Initialize SIGNATURE TABLE
ST_SET: 1
ST_WAY: 256
ST_TAG_BIT: 16
ST_TAG_MASK: ffff

Initialize PATTERN TABLE
PT_SET: 512
PT_WAY: 4
SIG_DELTA_BIT: 7
C_SIG_BIT: 4
C_DELTA_BIT: 4

Initialize PREFETCH FILTER
FILTER_SET: 1024

Initialize PERCEPTRON
PERC_ENTRIES: 4096
PERC_FEATURES: 9

*** ChampSim Multicore Out-of-Order Simulator ***

Warmup Instructions: 50000000
Simulation Instructions: 200000000
Number of CPUs: 1
LLC sets: 2048
LLC ways: 16
Secure Berti: OFF
Berti: OFF
Berti Fill: OFF
On commit prefetching: OFF
L2 LLC Bypass speculative loads: OFF
Off-chip DRAM Size: 4096 MB Channels: 1 Width: 64-bit Data Rate: 6400 MT/s
CPU 0 runs /home/sumon/secure_berti/Berti_Baseline/../../traces/spec/603.bwaves_s-891B.champsimtrace.xz
.xz
BTB has LRU replacement policy
ITLB has LRU replacement policy
DTLB has LRU replacement policy
STLB has LRU replacement policy
L1I has LRU replacement policy
L1D has LRU replacement policy
PERC_ENTRIES: 4096
L2C has LRU replacement policy
LLC has LRU replacement policy
Heartbeat CPU 0 instructions: 10000003 cycles: 2715419 heartbeat IPC: 3.68267 cumulative IPC: 3.68267 (Simulation time: 0 hr 0 min 13 sec) 
Heartbeat CPU 0 instructions: 20000003 cycles: 5430816 heartbeat IPC: 3.6827 cumulative IPC: 3.68269 (Simulation time: 0 hr 0 min 27 sec) 
Heartbeat CPU 0 instructions: 30000003 cycles: 8146192 heartbeat IPC: 3.68273 cumulative IPC: 3.6827 (Simulation time: 0 hr 0 min 41 sec) 
Heartbeat CPU 0 instructions: 40000000 cycles: 10861585 heartbeat IPC: 3.68271 cumulative IPC: 3.6827 (Simulation time: 0 hr 0 min 52 sec) 
Heartbeat CPU 0 instructions: 50000002 cycles: 13778226 heartbeat IPC: 3.4286 cumulative IPC: 3.62891 (Simulation time: 0 hr 1 min 0 sec) 

Warmup complete CPU 0 instructions: 50000002 cycles: 13778226 (Simulation time: 0 hr 1 min 0 sec) 

Heartbeat CPU 0 instructions: 60000001 cycles: 27531666 heartbeat IPC: 0.727091 cumulative IPC: 0.727091 (Simulation time: 0 hr 1 min 21 sec) 
Heartbeat CPU 0 instructions: 70000001 cycles: 41285309 heartbeat IPC: 0.72708 cumulative IPC: 0.727085 (Simulation time: 0 hr 1 min 41 sec) 
Heartbeat CPU 0 instructions: 80000002 cycles: 55039119 heartbeat IPC: 0.727071 cumulative IPC: 0.727081 (Simulation time: 0 hr 2 min 1 sec) 
Heartbeat CPU 0 instructions: 90000001 cycles: 68792456 heartbeat IPC: 0.727096 cumulative IPC: 0.727085 (Simulation time: 0 hr 2 min 24 sec) 
Heartbeat CPU 0 instructions: 100000000 cycles: 82545854 heartbeat IPC: 0.727093 cumulative IPC: 0.727086 (Simulation time: 0 hr 2 min 48 sec) 
Heartbeat CPU 0 instructions: 110000000 cycles: 96299733 heartbeat IPC: 0.727068 cumulative IPC: 0.727083 (Simulation time: 0 hr 3 min 7 sec) 
Heartbeat CPU 0 instructions: 120000001 cycles: 110053487 heartbeat IPC: 0.727074 cumulative IPC: 0.727082 (Simulation time: 0 hr 3 min 25 sec) 
Heartbeat CPU 0 instructions: 130000000 cycles: 123806822 heartbeat IPC: 0.727096 cumulative IPC: 0.727084 (Simulation time: 0 hr 3 min 43 sec) 
Heartbeat CPU 0 instructions: 140000001 cycles: 137561205 heartbeat IPC: 0.727041 cumulative IPC: 0.727079 (Simulation time: 0 hr 4 min 1 sec) 
Heartbeat CPU 0 instructions: 150000001 cycles: 151315473 heartbeat IPC: 0.727047 cumulative IPC: 0.727076 (Simulation time: 0 hr 4 min 19 sec) 
Heartbeat CPU 0 instructions: 160000000 cycles: 165069088 heartbeat IPC: 0.727081 cumulative IPC: 0.727076 (Simulation time: 0 hr 4 min 36 sec) 
Heartbeat CPU 0 instructions: 170000000 cycles: 178746206 heartbeat IPC: 0.731148 cumulative IPC: 0.727414 (Simulation time: 0 hr 4 min 55 sec) 
Heartbeat CPU 0 instructions: 180000001 cycles: 192266443 heartbeat IPC: 0.739632 cumulative IPC: 0.728339 (Simulation time: 0 hr 5 min 13 sec) 
Heartbeat CPU 0 instructions: 190000003 cycles: 205326074 heartbeat IPC: 0.765719 cumulative IPC: 0.730888 (Simulation time: 0 hr 5 min 32 sec) 
Heartbeat CPU 0 instructions: 200000002 cycles: 217846191 heartbeat IPC: 0.798715 cumulative IPC: 0.735049 (Simulation time: 0 hr 5 min 55 sec) 
Heartbeat CPU 0 instructions: 210000002 cycles: 230358094 heartbeat IPC: 0.799239 cumulative IPC: 0.738757 (Simulation time: 0 hr 6 min 17 sec) 
Heartbeat CPU 0 instructions: 220000000 cycles: 242870435 heartbeat IPC: 0.799211 cumulative IPC: 0.742059 (Simulation time: 0 hr 6 min 39 sec) 
Heartbeat CPU 0 instructions: 230000000 cycles: 255381346 heartbeat IPC: 0.799302 cumulative IPC: 0.745023 (Simulation time: 0 hr 7 min 0 sec) 
Heartbeat CPU 0 instructions: 240000002 cycles: 267895763 heartbeat IPC: 0.799079 cumulative IPC: 0.747685 (Simulation time: 0 hr 7 min 21 sec) 
Heartbeat CPU 0 instructions: 250000000 cycles: 280407559 heartbeat IPC: 0.799246 cumulative IPC: 0.750105 (Simulation time: 0 hr 7 min 43 sec) 
Finished CPU 0 instructions: 200000002 cycles: 266629334 cumulative IPC: 0.750105 (Simulation time: 0 hr 7 min 43 sec) 

ChampSim completed all CPUs

Region of Interest Statistics

CPU 0 cumulative IPC: 0.750105 instructions: 200000002 cycles: 266629334
ITLB TOTAL     ACCESS:   33484582  HIT:   33484581  MISS:          1  HIT %:        100  MISS %: 2.98645e-06   MPKI: 5e-06
ITLB Test counter:          0
ITLB LOAD TRANSLATION ACCESS:   33484582  HIT:   33484581  MISS:          1  HIT %:        100  MISS %: 2.98645e-06   MPKI: 5e-06
ITLB PREFETCH  REQUESTED:          0  ISSUED:          0  USEFUL:          0  USELESS:          0
ITLB USEFUL LOAD PREFETCHES:          0 PREFETCH ISSUED TO LOWER LEVEL:          0  ACCURACY: -nan
ITLB TIMELY PREFETCHES:          0 LATE PREFETCHES: 0 DROPPED PREFETCHES: 0
ITLB COMMIT LATE PREFETCHES: 0 MISSED OPPORTUNITY: 0 LATE IN PQ: 0 UNCOVERED: 0
ITLB COMMIT LATE MSHR PREFETCHES: 0
ITLB MPKI TOTAL: 0 MSHR LATE: 0 PQ LATE: 0 COMMIT LATE: 0 MISSED OPPORTUNITY: 0 UNCOVERED: 0
ITLB PREFETCHES SAME FILL-ORIGIN LEVEL: 0 DIFFERENT FILL-ORIGIN LEVEL: 0
ITLB AVERAGE MISS LATENCY: 431 cycles
ITLB AVERAGE MISS LATENCY LOAD: -nan cycles
ITLB AVERAGE MISS LATENCY PREFETCH: -nan cycles
ITLB AVERAGE MSHR OCCUPANCY: 2.98645e-08
ITLB MSHR FULL: 0
ITLB RQ	ACCESS:   34870382	FORWARD:          0	MERGED:    1385799	TO_CACHE:   33484583

DTLB TOTAL     ACCESS:   22777832  HIT:   22717178  MISS:      60654  HIT %:    99.7337  MISS %:   0.266285   MPKI: 0.30327
DTLB Test counter:          0
DTLB LOAD TRANSLATION ACCESS:   22777832  HIT:   22717178  MISS:      60654  HIT %:    99.7337  MISS %:   0.266285   MPKI: 0.30327
DTLB PREFETCH  REQUESTED:          0  ISSUED:          0  USEFUL:          0  USELESS:          0
DTLB USEFUL LOAD PREFETCHES:          0 PREFETCH ISSUED TO LOWER LEVEL:          0  ACCURACY: -nan
DTLB TIMELY PREFETCHES:          0 LATE PREFETCHES: 0 DROPPED PREFETCHES: 0
DTLB COMMIT LATE PREFETCHES: 0 MISSED OPPORTUNITY: 0 LATE IN PQ: 0 UNCOVERED: 0
DTLB COMMIT LATE MSHR PREFETCHES: 0
DTLB MPKI TOTAL: 0 MSHR LATE: 0 PQ LATE: 0 COMMIT LATE: 0 MISSED OPPORTUNITY: 0 UNCOVERED: 0
DTLB PREFETCHES SAME FILL-ORIGIN LEVEL: 0 DIFFERENT FILL-ORIGIN LEVEL: 0
DTLB AVERAGE MISS LATENCY: 117.084 cycles
DTLB AVERAGE MISS LATENCY LOAD: -nan cycles
DTLB AVERAGE MISS LATENCY PREFETCH: -nan cycles
DTLB AVERAGE MSHR OCCUPANCY: 0.0025562
DTLB MSHR FULL: 0
DTLB RQ	ACCESS:   23411048	FORWARD:          0	MERGED:     617800	TO_CACHE:   22793248

STLB TOTAL     ACCESS:      60655  HIT:        337  MISS:      60318  HIT %:   0.555601  MISS %:    99.4444   MPKI: 0.30159
STLB Test counter:          0
STLB LOAD TRANSLATION ACCESS:      60655  HIT:        337  MISS:      60318  HIT %:   0.555601  MISS %:    99.4444   MPKI: 0.30159
STLB PREFETCH  REQUESTED:          0  ISSUED:          0  USEFUL:          0  USELESS:          0
STLB USEFUL LOAD PREFETCHES:          0 PREFETCH ISSUED TO LOWER LEVEL:          0  ACCURACY: -nan
STLB TIMELY PREFETCHES:          0 LATE PREFETCHES: 0 DROPPED PREFETCHES: 0
STLB COMMIT LATE PREFETCHES: 0 MISSED OPPORTUNITY: 0 LATE IN PQ: 0 UNCOVERED: 0
STLB COMMIT LATE MSHR PREFETCHES: 0
STLB MPKI TOTAL: 0 MSHR LATE: 0 PQ LATE: 0 COMMIT LATE: 0 MISSED OPPORTUNITY: 0 UNCOVERED: 0
STLB PREFETCHES SAME FILL-ORIGIN LEVEL: 0 DIFFERENT FILL-ORIGIN LEVEL: 0
STLB AVERAGE MISS LATENCY: 108.693 cycles
STLB AVERAGE MISS LATENCY LOAD: -nan cycles
STLB AVERAGE MISS LATENCY PREFETCH: -nan cycles
STLB AVERAGE MSHR OCCUPANCY: 3.29734e-05
STLB MSHR FULL: 0
STLB RQ	ACCESS:      60655	FORWARD:          0	MERGED:          0	TO_CACHE:      60655

STLB Hit, L1D data hit: 0
STLB Hit, L2C data hit: 0
STLB Hit, LLC data hit: 0
STLB Hit, LLC data miss: 0
STLB STLB hints to L2: 0
L1D TOTAL     ACCESS:   22509415  HIT:   18648332  MISS:    3861083  HIT %:    82.8468  MISS %:    17.1532   MPKI: 19.3054
L1D Test counter:          0
L1D LOAD      ACCESS:   19194536  HIT:   15333455  MISS:    4762715  HIT %:    79.8845  MISS %:    20.1155   MPKI: 19.3054
L1D RFO       ACCESS:    3314879  HIT:    3314877  MISS:          2  HIT %:    99.9999  MISS %: 6.0334e-05   MPKI: 1e-05
L1D PREFETCH  REQUESTED:          0  ISSUED:          0  USEFUL:          0  USELESS:          0
L1D USEFUL LOAD PREFETCHES:          0 PREFETCH ISSUED TO LOWER LEVEL:          0  ACCURACY: -nan
L1D TIMELY PREFETCHES:          0 LATE PREFETCHES: 0 DROPPED PREFETCHES: 0
L1D COMMIT LATE PREFETCHES: 0 MISSED OPPORTUNITY: 0 LATE IN PQ: 0 UNCOVERED: 0
L1D COMMIT LATE MSHR PREFETCHES: 0
L1D MPKI TOTAL: 23.8136 MSHR LATE: 0 PQ LATE: 0 COMMIT LATE: 0 MISSED OPPORTUNITY: 0 UNCOVERED: 0
L1D PREFETCHES SAME FILL-ORIGIN LEVEL: 0 DIFFERENT FILL-ORIGIN LEVEL: 0
L1D AVERAGE MISS LATENCY: 19.9451 cycles
L1D AVERAGE MISS LATENCY LOAD: 19.945 cycles
L1D AVERAGE MISS LATENCY PREFETCH: -nan cycles
L1D AVERAGE MSHR OCCUPANCY: 0.19671
L1D MSHR FULL: 0
L1D RQ	ACCESS:   35804809	FORWARD:          0	MERGED:   15708639	TO_CACHE:   20096170
L1D WQ	ACCESS:    3375822	FORWARD:          0	MERGED:      60944	TO_CACHE:    3314878

L1D UNIQUE REGIONS ACCESSED: 0
L1D REGIONS CONFLICTS: 0
L1D Cross Page Prefetch Requests: 0
L1D Same Page Prefetch Requests: 0
L1D ROI Sum of L1D PQ occupancy: 0
L1D PREFETCHES PUSHED FROM L2C: 0
4027d7: 1
40344d: 1
4026ec: 1
402746: 98
4027f6: 98
402804: 98
402730: 98
403381: 238
403400: 239
4027a4: 875161
4027a0: 875161
4033c0: 2109887
L1I TOTAL     ACCESS:   34870380  HIT:   34870373  MISS:          7  HIT %:        100  MISS %: 2.00743e-05   MPKI: 3.5e-05
L1I Test counter:          0
L1I LOAD      ACCESS:   34870380  HIT:   34870373  MISS:          8  HIT %:        100  MISS %: 2.00743e-05   MPKI: 3.5e-05
L1I PREFETCH  REQUESTED:          0  ISSUED:          0  USEFUL:          0  USELESS:          0
L1I USEFUL LOAD PREFETCHES:          0 PREFETCH ISSUED TO LOWER LEVEL:          0  ACCURACY: -nan
L1I TIMELY PREFETCHES:          0 LATE PREFETCHES: 0 DROPPED PREFETCHES: 0
L1I COMMIT LATE PREFETCHES: 0 MISSED OPPORTUNITY: 0 LATE IN PQ: 0 UNCOVERED: 0
L1I COMMIT LATE MSHR PREFETCHES: 0
L1I MPKI TOTAL: 4e-05 MSHR LATE: 0 PQ LATE: 0 COMMIT LATE: 0 MISSED OPPORTUNITY: 0 UNCOVERED: 0
L1I PREFETCHES SAME FILL-ORIGIN LEVEL: 0 DIFFERENT FILL-ORIGIN LEVEL: 0
L1I AVERAGE MISS LATENCY: 214.143 cycles
L1I AVERAGE MISS LATENCY LOAD: 214.143 cycles
L1I AVERAGE MISS LATENCY PREFETCH: -nan cycles
L1I AVERAGE MSHR OCCUPANCY: 1.43388e-07
L1I MSHR FULL: 0
L1I RQ	ACCESS:   43890074	FORWARD:          0	MERGED:    9019692	TO_CACHE:   34870382

402781: 1
403444: 1
402801: 1
4026e0: 1
402702: 1
402746: 1
4027c3: 1
BTB TOTAL     ACCESS:   30088189  HIT:   30088178  MISS:         11  HIT %:        100  MISS %: 3.65592e-05   MPKI: 5.5e-05
BTB Test counter:          0
BTB BRANCH_DIRECT_JUMP	ACCESS:    1387292  HIT:    1387290  MISS:          2
BTB BRANCH_INDIRECT	ACCESS:          0  HIT:          0  MISS:          0
BTB BRANCH_CONDITIONAL	ACCESS:   28700897  HIT:   28700888  MISS:          9
BTB BRANCH_DIRECT_CALL	ACCESS:          0  HIT:          0  MISS:          0
BTB BRANCH_INDIRECT_CALL	ACCESS:          0  HIT:          0  MISS:          0
BTB BRANCH_RETURN	ACCESS:          0  HIT:          0  MISS:          0
BTB BRANCH_OTHER ACCESS:          0  HIT:          0  MISS:          0

L2C TOTAL     ACCESS:    8167064  HIT:    4298059  MISS:    3869005  HIT %:    52.6267  MISS %:    47.3733   MPKI: 19.345
L2C Test counter:          0
L2C LOAD      ACCESS:    3861088  HIT:    3710163  MISS:     150925  HIT %:    96.0911  MISS %:    3.90887   MPKI: 0.754625
L2C DATA LOAD MPKI: 0.75459
L2C INSTRUCTION LOAD MPKI: 3.5e-05
L2C RFO       ACCESS:          2  HIT:          0  MISS:          2  HIT %:          0  MISS %:        100   MPKI: 1e-05
L2C PREFETCH  ACCESS:    4245613  HIT:     535201  MISS:    3710412  HIT %:     12.606  MISS %:     87.394   MPKI: 18.5521
L2C DATA PREFETCH MPKI: 18.5521
L2C INSTRUCTION PREFETCH MPKI: 0
L2C WRITEBACK ACCESS:          4  HIT:          1  MISS:          3  HIT %:         25  MISS %:         75   MPKI: 1.5e-05
L2C LOAD TRANSLATION ACCESS:      60357  HIT:      52694  MISS:       7663  HIT %:    87.3039  MISS %:    12.6961   MPKI: 0.038315
L2C PREFETCH  REQUESTED:    4399123  ISSUED:    4399123  USEFUL:    3710118  USELESS:        291
L2C USEFUL LOAD PREFETCHES:    3710118 PREFETCH ISSUED TO LOWER LEVEL:    3754376  ACCURACY: 98.8212
L2C TIMELY PREFETCHES:    3710118 LATE PREFETCHES: 43957 DROPPED PREFETCHES: 0
L2C COMMIT LATE PREFETCHES: 0 MISSED OPPORTUNITY: 0 LATE IN PQ: 0 UNCOVERED: 0
L2C COMMIT LATE MSHR PREFETCHES: 0
L2C MPKI TOTAL: 0.754625 MSHR LATE: 0.219785 PQ LATE: 0 COMMIT LATE: 0 MISSED OPPORTUNITY: 0 UNCOVERED: 0
L2C PREFETCHES SAME FILL-ORIGIN LEVEL: 3754376 DIFFERENT FILL-ORIGIN LEVEL: 0
L2C AVERAGE MISS LATENCY: 159.784 cycles
L2C AVERAGE MISS LATENCY LOAD: 129.236 cycles
L2C AVERAGE MISS LATENCY PREFETCH: 160.942 cycles
L2C AVERAGE MSHR OCCUPANCY: 2.73227
L2C MSHR FULL: 0
L2C RQ	ACCESS:    3921447	FORWARD:          0	MERGED:          0	TO_CACHE:    3921447
L2C WQ	ACCESS:          4	FORWARD:          0	MERGED:          0	TO_CACHE:          4
L2C PQ	ACCESS:    4399123	FORWARD:          0	MERGED:       3285	TO_CACHE:    4395838

L2C Instructions Evicting Data 7
L2C Translations Evicting Data 7663
L2C Data Evicting Data 3853661
L2C Instructions Evicting Instructions 0
L2C Translations Evicting Instructions 0
L2C Data Evicting Instructions 7
L2C Instructions Evicting Translations 0
L2C Translations Evicting Translations 0
L2C Data Evicting Translations 7664
L2C Dense regions hint from L2: 0
403444: 1
4027d7: 1
4027c3: 1
402781: 1
402801: 1
402702: 1
4026e0: 1
40344d: 1
402730: 97
402804: 98
4027f6: 98
402746: 99
403400: 214
403381: 219
4027a0: 31483
4027a4: 38400
4033c0: 80209
PSCL5 TOTAL     ACCESS:      60318  HIT:      60318  MISS:          0  HIT %:        100  MISS %:          0   MPKI: 0
PSCL5 Test counter:          0
PSCL5 LOAD TRANSLATION ACCESS:      60318  HIT:      60318  MISS:          0  HIT %:        100  MISS %:          0   MPKI: 0
PSCL5 PREFETCH  REQUESTED:          0  ISSUED:          0  USEFUL:          0  USELESS:          0
PSCL5 USEFUL LOAD PREFETCHES:          0 PREFETCH ISSUED TO LOWER LEVEL:          0  ACCURACY: -nan
PSCL5 TIMELY PREFETCHES:          0 LATE PREFETCHES: 0 DROPPED PREFETCHES: 0
PSCL5 COMMIT LATE PREFETCHES: 0 MISSED OPPORTUNITY: 0 LATE IN PQ: 0 UNCOVERED: 0
PSCL5 COMMIT LATE MSHR PREFETCHES: 0
PSCL5 MPKI TOTAL: 0 MSHR LATE: 0 PQ LATE: 0 COMMIT LATE: 0 MISSED OPPORTUNITY: 0 UNCOVERED: 0
PSCL5 PREFETCHES SAME FILL-ORIGIN LEVEL: 0 DIFFERENT FILL-ORIGIN LEVEL: 0

PSCL4 TOTAL     ACCESS:      60318  HIT:      60318  MISS:          0  HIT %:        100  MISS %:          0   MPKI: 0
PSCL4 Test counter:          0
PSCL4 LOAD TRANSLATION ACCESS:      60318  HIT:      60318  MISS:          0  HIT %:        100  MISS %:          0   MPKI: 0
PSCL4 PREFETCH  REQUESTED:          0  ISSUED:          0  USEFUL:          0  USELESS:          0
PSCL4 USEFUL LOAD PREFETCHES:          0 PREFETCH ISSUED TO LOWER LEVEL:          0  ACCURACY: -nan
PSCL4 TIMELY PREFETCHES:          0 LATE PREFETCHES: 0 DROPPED PREFETCHES: 0
PSCL4 COMMIT LATE PREFETCHES: 0 MISSED OPPORTUNITY: 0 LATE IN PQ: 0 UNCOVERED: 0
PSCL4 COMMIT LATE MSHR PREFETCHES: 0
PSCL4 MPKI TOTAL: 0 MSHR LATE: 0 PQ LATE: 0 COMMIT LATE: 0 MISSED OPPORTUNITY: 0 UNCOVERED: 0
PSCL4 PREFETCHES SAME FILL-ORIGIN LEVEL: 0 DIFFERENT FILL-ORIGIN LEVEL: 0

PSCL3 TOTAL     ACCESS:      60318  HIT:      60318  MISS:          0  HIT %:        100  MISS %:          0   MPKI: 0
PSCL3 Test counter:          0
PSCL3 LOAD TRANSLATION ACCESS:      60318  HIT:      60318  MISS:          0  HIT %:        100  MISS %:          0   MPKI: 0
PSCL3 PREFETCH  REQUESTED:          0  ISSUED:          0  USEFUL:          0  USELESS:          0
PSCL3 USEFUL LOAD PREFETCHES:          0 PREFETCH ISSUED TO LOWER LEVEL:          0  ACCURACY: -nan
PSCL3 TIMELY PREFETCHES:          0 LATE PREFETCHES: 0 DROPPED PREFETCHES: 0
PSCL3 COMMIT LATE PREFETCHES: 0 MISSED OPPORTUNITY: 0 LATE IN PQ: 0 UNCOVERED: 0
PSCL3 COMMIT LATE MSHR PREFETCHES: 0
PSCL3 MPKI TOTAL: 0 MSHR LATE: 0 PQ LATE: 0 COMMIT LATE: 0 MISSED OPPORTUNITY: 0 UNCOVERED: 0
PSCL3 PREFETCHES SAME FILL-ORIGIN LEVEL: 0 DIFFERENT FILL-ORIGIN LEVEL: 0

PSCL2 TOTAL     ACCESS:      60318  HIT:      60198  MISS:        120  HIT %:    99.8011  MISS %:   0.198946   MPKI: 0.0006
PSCL2 Test counter:          0
PSCL2 LOAD TRANSLATION ACCESS:      60318  HIT:      60198  MISS:        120  HIT %:    99.8011  MISS %:   0.198946   MPKI: 0.0006
PSCL2 PREFETCH  REQUESTED:          0  ISSUED:          0  USEFUL:          0  USELESS:          0
PSCL2 USEFUL LOAD PREFETCHES:          0 PREFETCH ISSUED TO LOWER LEVEL:          0  ACCURACY: -nan
PSCL2 TIMELY PREFETCHES:          0 LATE PREFETCHES: 0 DROPPED PREFETCHES: 0
PSCL2 COMMIT LATE PREFETCHES: 0 MISSED OPPORTUNITY: 0 LATE IN PQ: 0 UNCOVERED: 0
PSCL2 COMMIT LATE MSHR PREFETCHES: 0
PSCL2 MPKI TOTAL: 0 MSHR LATE: 0 PQ LATE: 0 COMMIT LATE: 0 MISSED OPPORTUNITY: 0 UNCOVERED: 0
PSCL2 PREFETCHES SAME FILL-ORIGIN LEVEL: 0 DIFFERENT FILL-ORIGIN LEVEL: 0

LLC TOTAL     ACCESS:    3869006  HIT:        908  MISS:    3868098  HIT %:  0.0234686  MISS %:    99.9765   MPKI: 19.3405
LLC Test counter:          0
LLC LOAD      ACCESS:     106968  HIT:        823  MISS:     106145  HIT %:   0.769389  MISS %:    99.2306   MPKI: 0.530725
LLC RFO       ACCESS:          2  HIT:          0  MISS:          2  HIT %:          0  MISS %:        100   MPKI: 1e-05
LLC PREFETCH  ACCESS:    3754369  HIT:         72  MISS:    3754297  HIT %: 0.00191777  MISS %:    99.9981   MPKI: 18.7715
LLC WRITEBACK ACCESS:          4  HIT:          1  MISS:          3  HIT %:         25  MISS %:         75   MPKI: 1.5e-05
LLC LOAD TRANSLATION ACCESS:       7663  HIT:         12  MISS:       7651  HIT %:   0.156597  MISS %:    99.8434   MPKI: 0.038255
LLC PREFETCH  REQUESTED:          0  ISSUED:          0  USEFUL:          0  USELESS:    3754493
LLC USEFUL LOAD PREFETCHES:          0 PREFETCH ISSUED TO LOWER LEVEL:    3754304  ACCURACY: 0
LLC TIMELY PREFETCHES:          0 LATE PREFETCHES: 0 DROPPED PREFETCHES: 0
LLC COMMIT LATE PREFETCHES: 0 MISSED OPPORTUNITY: 0 LATE IN PQ: 0 UNCOVERED: 0
LLC COMMIT LATE MSHR PREFETCHES: 0
LLC MPKI TOTAL: 0.530725 MSHR LATE: 0 PQ LATE: 0 COMMIT LATE: 0 MISSED OPPORTUNITY: 0 UNCOVERED: 0
LLC PREFETCHES SAME FILL-ORIGIN LEVEL: 0 DIFFERENT FILL-ORIGIN LEVEL: 0
LLC AVERAGE MISS LATENCY: 130.764 cycles
LLC AVERAGE MISS LATENCY LOAD: 117.822 cycles
LLC AVERAGE MISS LATENCY PREFETCH: 131.049 cycles
LLC AVERAGE MSHR OCCUPANCY: 0.984708
LLC MSHR FULL: 0
LLC RQ	ACCESS:     114633	FORWARD:          0	MERGED:          0	TO_CACHE:     114633
LLC WQ	ACCESS:          4	FORWARD:          0	MERGED:          0	TO_CACHE:          4
LLC PQ	ACCESS:    3754376	FORWARD:          0	MERGED:          0	TO_CACHE:    3754376

LLC Dense regions hint to LLC: 0
4027d7: 1
4027f6: 1
4027c3: 1
402781: 1
403444: 1
40344d: 1
402801: 1
402702: 1
4026e0: 1
402746: 1
4027a0: 21984
4027a4: 29669
4033c0: 54482

RAW hits: 1
Loads Generated: 35804811
Loads sent to L1D: 35804809
Stores Generated: 3375822
Stores sent to L1D: 3375822
Major fault: 0 Minor fault: 62153
Allocated PAGES: 62153
Total Load insts: 43896007
Total Non-spec loads: 8360060
Percentage of speculative loads: 80.9548
L1D response latency: 19.945 cycles
Load retirement latency: 35.5045 cycles

------------------
Depth Distribution
------------------
depth 0: 1294
depth 1: 131
depth 2: 10
depth 3: 3
depth 4: 8
depth 5: 98
depth 6: 543
depth 7: 1399
depth 8: 54785
depth 9: 669694
depth 10: 227191
depth 11: 1125214
depth 12: 937094
depth 13: 169453
depth 14: 1348968
depth 15: 230657
depth 16: 196098
depth 17: 95088
depth 18: 64987
depth 19: 11277
depth 20: 1450
depth 21: 355
depth 22: 58
depth 23: 0
depth 24: 2
depth 25: 0
depth 26: 0
depth 27: 0
depth 28: 0
depth 29: 0
Total: 5135857
------------------
ST read accesses: 3800639
ST write accesses: 60442
PT read accesses: 270293799
PT write accesses: 5699914
FILTER read accesses: 51938322
FILTER write accesses: 15844064
GHR read accesses: 30294061
GHR write accesses: 5863380
PERC read accesses: 1947717648
PERC write accesses: 35170831
GHR counter read accesses: 7722162
GHR counter write accesses: 12041216
GHR ip read accesses: 24780612
GHR ip write accesses: 15444324
ST tag read accesses: 1516459198
ST tag write accesses: 20938713

DRAM Statistics
 CHANNEL 0
 RQ ROW_BUFFER_HIT:    2316294  ROW_BUFFER_MISS:    1551801
 DBUS_CONGESTED:          0
 WQ ROW_BUFFER_HIT:          0  ROW_BUFFER_MISS:          2  FULL:          0

 AVG_CONGESTED_CYCLE: -
 All warmup complete: 2
Channel 0 Bank busy for read cycles: 0
Channel 0 Bank busy for write cycles: 0
Channel 0
Rank 0
0banks busy for read cycles: 135996542
0banks busy for write cycles: 2
1banks busy for read cycles: 48712747
1banks busy for write cycles: 300
2banks busy for read cycles: 22310662
2banks busy for write cycles: 0
3banks busy for read cycles: 24027024
3banks busy for write cycles: 0
4banks busy for read cycles: 20037925
4banks busy for write cycles: 0
5banks busy for read cycles: 4409958
5banks busy for write cycles: 0
6banks busy for read cycles: 2844959
6banks busy for write cycles: 0
7banks busy for read cycles: 2411057
7banks busy for write cycles: 0
8banks busy for read cycles: 5878159
8banks busy for write cycles: 0

CPU 0 Branch Prediction Accuracy: 99.8669% MPKI: 0.223155 Average ROB Occupancy at Mispredict: 38.9014
Branch types
NOT_BRANCH: 166478363 83.2392%
BRANCH_DIRECT_JUMP: 1387292 0.693646%
BRANCH_INDIRECT: 0 0%
BRANCH_CONDITIONAL: 32134349 16.0672%
BRANCH_DIRECT_CALL: 0 0%
BRANCH_INDIRECT_CALL: 0 0%
BRANCH_RETURN: 0 0%
BRANCH_OTHER: 0 0%

DRAM PAGES: 1048576
Allocated PAGES: 62153
