Initialize SIGNATURE TABLE
ST_SET: 1
ST_WAY: 256
ST_TAG_BIT: 16
ST_TAG_MASK: ffff

Initialize PATTERN TABLE
PT_SET: 512
PT_WAY: 4
SIG_DELTA_BIT: 7
C_SIG_BIT: 4
C_DELTA_BIT: 4

Initialize PREFETCH FILTER
FILTER_SET: 1024

Initialize PERCEPTRON
PERC_ENTRIES: 4096
PERC_FEATURES: 9

*** ChampSim Multicore Out-of-Order Simulator ***

Warmup Instructions: 50000000
Simulation Instructions: 200000000
Number of CPUs: 1
LLC sets: 2048
LLC ways: 16
Secure Berti: OFF
Berti: OFF
Berti Fill: OFF
On commit prefetching: OFF
L2 LLC Bypass speculative loads: OFF
Off-chip DRAM Size: 4096 MB Channels: 1 Width: 64-bit Data Rate: 6400 MT/s
CPU 0 runs /home/sumon/secure_berti/Berti_Baseline/../../traces/spec/605.mcf_s-1536B.champsimtrace.xz
.xz
BTB has LRU replacement policy
ITLB has LRU replacement policy
DTLB has LRU replacement policy
STLB has LRU replacement policy
L1I has LRU replacement policy
L1D has LRU replacement policy
PERC_ENTRIES: 4096
L2C has LRU replacement policy
LLC has LRU replacement policy
Heartbeat CPU 0 instructions: 10000003 cycles: 2834501 heartbeat IPC: 3.52796 cumulative IPC: 3.52796 (Simulation time: 0 hr 0 min 26 sec) 
Heartbeat CPU 0 instructions: 20000003 cycles: 5659270 heartbeat IPC: 3.54011 cumulative IPC: 3.53403 (Simulation time: 0 hr 0 min 50 sec) 
Heartbeat CPU 0 instructions: 30000001 cycles: 8498760 heartbeat IPC: 3.52176 cumulative IPC: 3.52993 (Simulation time: 0 hr 1 min 25 sec) 
Heartbeat CPU 0 instructions: 40000001 cycles: 11351422 heartbeat IPC: 3.5055 cumulative IPC: 3.52379 (Simulation time: 0 hr 1 min 56 sec) 
Heartbeat CPU 0 instructions: 50000003 cycles: 14213760 heartbeat IPC: 3.49365 cumulative IPC: 3.51772 (Simulation time: 0 hr 2 min 21 sec) 

Warmup complete CPU 0 instructions: 50000003 cycles: 14213760 (Simulation time: 0 hr 2 min 21 sec) 

Heartbeat CPU 0 instructions: 60000003 cycles: 51955823 heartbeat IPC: 0.264956 cumulative IPC: 0.264956 (Simulation time: 0 hr 3 min 23 sec) 
Heartbeat CPU 0 instructions: 70000000 cycles: 89280176 heartbeat IPC: 0.267922 cumulative IPC: 0.266431 (Simulation time: 0 hr 4 min 25 sec) 
Heartbeat CPU 0 instructions: 80000001 cycles: 126777051 heartbeat IPC: 0.266689 cumulative IPC: 0.266517 (Simulation time: 0 hr 5 min 26 sec) 
Heartbeat CPU 0 instructions: 90000000 cycles: 164268063 heartbeat IPC: 0.266731 cumulative IPC: 0.26657 (Simulation time: 0 hr 6 min 27 sec) 
Heartbeat CPU 0 instructions: 100000002 cycles: 201767623 heartbeat IPC: 0.26667 cumulative IPC: 0.26659 (Simulation time: 0 hr 7 min 28 sec) 
Heartbeat CPU 0 instructions: 110000000 cycles: 239737589 heartbeat IPC: 0.263366 cumulative IPC: 0.266047 (Simulation time: 0 hr 8 min 30 sec) 
Heartbeat CPU 0 instructions: 120000000 cycles: 277647763 heartbeat IPC: 0.263781 cumulative IPC: 0.265721 (Simulation time: 0 hr 9 min 31 sec) 
Heartbeat CPU 0 instructions: 130000003 cycles: 315304690 heartbeat IPC: 0.265555 cumulative IPC: 0.2657 (Simulation time: 0 hr 10 min 33 sec) 
Heartbeat CPU 0 instructions: 140000000 cycles: 353235757 heartbeat IPC: 0.263636 cumulative IPC: 0.265469 (Simulation time: 0 hr 11 min 32 sec) 
Heartbeat CPU 0 instructions: 150000001 cycles: 390936568 heartbeat IPC: 0.265246 cumulative IPC: 0.265447 (Simulation time: 0 hr 12 min 27 sec) 
Heartbeat CPU 0 instructions: 160000000 cycles: 428424211 heartbeat IPC: 0.266755 cumulative IPC: 0.265565 (Simulation time: 0 hr 13 min 17 sec) 
Heartbeat CPU 0 instructions: 170000002 cycles: 466252562 heartbeat IPC: 0.264352 cumulative IPC: 0.265464 (Simulation time: 0 hr 14 min 3 sec) 
Heartbeat CPU 0 instructions: 180000002 cycles: 504157320 heartbeat IPC: 0.263819 cumulative IPC: 0.265337 (Simulation time: 0 hr 14 min 48 sec) 
Heartbeat CPU 0 instructions: 190000003 cycles: 542429369 heartbeat IPC: 0.261287 cumulative IPC: 0.265043 (Simulation time: 0 hr 15 min 32 sec) 
Heartbeat CPU 0 instructions: 200000003 cycles: 581191198 heartbeat IPC: 0.257986 cumulative IPC: 0.264561 (Simulation time: 0 hr 16 min 17 sec) 
Heartbeat CPU 0 instructions: 210000000 cycles: 619707335 heartbeat IPC: 0.259631 cumulative IPC: 0.264247 (Simulation time: 0 hr 17 min 1 sec) 
Heartbeat CPU 0 instructions: 220000000 cycles: 658498651 heartbeat IPC: 0.25779 cumulative IPC: 0.263858 (Simulation time: 0 hr 17 min 44 sec) 
Heartbeat CPU 0 instructions: 230000000 cycles: 697220571 heartbeat IPC: 0.258252 cumulative IPC: 0.263541 (Simulation time: 0 hr 18 min 28 sec) 
Heartbeat CPU 0 instructions: 240000002 cycles: 735946112 heartbeat IPC: 0.258228 cumulative IPC: 0.263255 (Simulation time: 0 hr 19 min 11 sec) 
Heartbeat CPU 0 instructions: 250000001 cycles: 774667633 heartbeat IPC: 0.258254 cumulative IPC: 0.263001 (Simulation time: 0 hr 19 min 54 sec) 
Finished CPU 0 instructions: 200000002 cycles: 760453874 cumulative IPC: 0.263001 (Simulation time: 0 hr 19 min 54 sec) 

ChampSim completed all CPUs

Region of Interest Statistics

CPU 0 cumulative IPC: 0.263001 instructions: 200000002 cycles: 760453874
ITLB TOTAL     ACCESS:   35839715  HIT:   35839715  MISS:          0  HIT %:        100  MISS %:          0   MPKI: 0
ITLB Test counter:          0
ITLB LOAD TRANSLATION ACCESS:   35839715  HIT:   35839715  MISS:          0  HIT %:        100  MISS %:          0   MPKI: 0
ITLB PREFETCH  REQUESTED:          0  ISSUED:          0  USEFUL:          0  USELESS:          0
ITLB USEFUL LOAD PREFETCHES:          0 PREFETCH ISSUED TO LOWER LEVEL:          0  ACCURACY: -nan
ITLB TIMELY PREFETCHES:          0 LATE PREFETCHES: 0 DROPPED PREFETCHES: 0
ITLB COMMIT LATE PREFETCHES: 0 MISSED OPPORTUNITY: 0 LATE IN PQ: 0 UNCOVERED: 0
ITLB COMMIT LATE MSHR PREFETCHES: 0
ITLB MPKI TOTAL: 0 MSHR LATE: 0 PQ LATE: 0 COMMIT LATE: 0 MISSED OPPORTUNITY: 0 UNCOVERED: 0
ITLB PREFETCHES SAME FILL-ORIGIN LEVEL: 0 DIFFERENT FILL-ORIGIN LEVEL: 0
ITLB AVERAGE MISS LATENCY: -nan cycles
ITLB AVERAGE MISS LATENCY LOAD: -nan cycles
ITLB AVERAGE MISS LATENCY PREFETCH: -nan cycles
ITLB AVERAGE MSHR OCCUPANCY: 0
ITLB MSHR FULL: 0
ITLB RQ	ACCESS:   38623208	FORWARD:          0	MERGED:    2783492	TO_CACHE:   35839716

DTLB TOTAL     ACCESS:   30096613  HIT:   25222259  MISS:    4874354  HIT %:    83.8043  MISS %:    16.1957   MPKI: 24.3718
DTLB Test counter:          0
DTLB LOAD TRANSLATION ACCESS:   30096613  HIT:   25222259  MISS:    4874354  HIT %:    83.8043  MISS %:    16.1957   MPKI: 24.3718
DTLB PREFETCH  REQUESTED:          0  ISSUED:          0  USEFUL:          0  USELESS:          0
DTLB USEFUL LOAD PREFETCHES:          0 PREFETCH ISSUED TO LOWER LEVEL:          0  ACCURACY: -nan
DTLB TIMELY PREFETCHES:          0 LATE PREFETCHES: 0 DROPPED PREFETCHES: 0
DTLB COMMIT LATE PREFETCHES: 0 MISSED OPPORTUNITY: 0 LATE IN PQ: 0 UNCOVERED: 0
DTLB COMMIT LATE MSHR PREFETCHES: 0
DTLB MPKI TOTAL: 0 MSHR LATE: 0 PQ LATE: 0 COMMIT LATE: 0 MISSED OPPORTUNITY: 0 UNCOVERED: 0
DTLB PREFETCHES SAME FILL-ORIGIN LEVEL: 0 DIFFERENT FILL-ORIGIN LEVEL: 0
DTLB AVERAGE MISS LATENCY: 76.7083 cycles
DTLB AVERAGE MISS LATENCY LOAD: -nan cycles
DTLB AVERAGE MISS LATENCY PREFETCH: -nan cycles
DTLB AVERAGE MSHR OCCUPANCY: 0.524204
DTLB MSHR FULL: 0
DTLB RQ	ACCESS:   34872459	FORWARD:          0	MERGED:    4713432	TO_CACHE:   30159027

STLB TOTAL     ACCESS:    4874354  HIT:     229555  MISS:    4644799  HIT %:    4.70944  MISS %:    95.2906   MPKI: 23.224
STLB Test counter:          0
STLB LOAD TRANSLATION ACCESS:    4874354  HIT:     229555  MISS:    4644799  HIT %:    4.70944  MISS %:    95.2906   MPKI: 23.224
STLB PREFETCH  REQUESTED:          0  ISSUED:          0  USEFUL:          0  USELESS:          0
STLB USEFUL LOAD PREFETCHES:          0 PREFETCH ISSUED TO LOWER LEVEL:          0  ACCURACY: -nan
STLB TIMELY PREFETCHES:          0 LATE PREFETCHES: 0 DROPPED PREFETCHES: 0
STLB COMMIT LATE PREFETCHES: 0 MISSED OPPORTUNITY: 0 LATE IN PQ: 0 UNCOVERED: 0
STLB COMMIT LATE MSHR PREFETCHES: 0
STLB MPKI TOTAL: 0 MSHR LATE: 0 PQ LATE: 0 COMMIT LATE: 0 MISSED OPPORTUNITY: 0 UNCOVERED: 0
STLB PREFETCHES SAME FILL-ORIGIN LEVEL: 0 DIFFERENT FILL-ORIGIN LEVEL: 0
STLB AVERAGE MISS LATENCY: 70.9455 cycles
STLB AVERAGE MISS LATENCY LOAD: -nan cycles
STLB AVERAGE MISS LATENCY PREFETCH: -nan cycles
STLB AVERAGE MSHR OCCUPANCY: 0.644979
STLB MSHR FULL: 0
STLB RQ	ACCESS:    4874354	FORWARD:          0	MERGED:          0	TO_CACHE:    4874354

STLB Hit, L1D data hit: 0
STLB Hit, L2C data hit: 0
STLB Hit, LLC data hit: 0
STLB Hit, LLC data miss: 0
STLB STLB hints to L2: 0
L1D TOTAL     ACCESS:   34682990  HIT:   23594139  MISS:   11088851  HIT %:     68.028  MISS %:     31.972   MPKI: 55.4443
L1D Test counter:          0
L1D LOAD      ACCESS:   25814580  HIT:   15280076  MISS:   10723972  HIT %:    59.1917  MISS %:    40.8083   MPKI: 52.6725
L1D RFO       ACCESS:    8868410  HIT:    8314063  MISS:     554347  HIT %:    93.7492  MISS %:     6.2508   MPKI: 2.77173
L1D PREFETCH  REQUESTED:          0  ISSUED:          0  USEFUL:          0  USELESS:          0
L1D USEFUL LOAD PREFETCHES:          0 PREFETCH ISSUED TO LOWER LEVEL:          0  ACCURACY: -nan
L1D TIMELY PREFETCHES:          0 LATE PREFETCHES: 0 DROPPED PREFETCHES: 0
L1D COMMIT LATE PREFETCHES: 0 MISSED OPPORTUNITY: 0 LATE IN PQ: 0 UNCOVERED: 0
L1D COMMIT LATE MSHR PREFETCHES: 0
L1D MPKI TOTAL: 53.6199 MSHR LATE: 0 PQ LATE: 0 COMMIT LATE: 0 MISSED OPPORTUNITY: 0 UNCOVERED: 0
L1D PREFETCHES SAME FILL-ORIGIN LEVEL: 0 DIFFERENT FILL-ORIGIN LEVEL: 0
L1D AVERAGE MISS LATENCY: 108.838 cycles
L1D AVERAGE MISS LATENCY LOAD: 113.315 cycles
L1D AVERAGE MISS LATENCY PREFETCH: -nan cycles
L1D AVERAGE MSHR OCCUPANCY: 0.798777
L1D MSHR FULL: 0
L1D RQ	ACCESS:   49236528	FORWARD:          0	MERGED:   22773692	TO_CACHE:   26004047
L1D WQ	ACCESS:    8868414	FORWARD:     458789	MERGED:          2	TO_CACHE:    8868412

L1D UNIQUE REGIONS ACCESSED: 0
L1D REGIONS CONFLICTS: 0
L1D Cross Page Prefetch Requests: 0
L1D Same Page Prefetch Requests: 0
L1D ROI Sum of L1D PQ occupancy: 0
L1D PREFETCHES PUSHED FROM L2C: 0
4036c0: 146
4036c5: 569
4036b7: 3353
4036a5: 1662609
4036af: 4433623
40368c: 4434204
L1I TOTAL     ACCESS:   38623206  HIT:   38623206  MISS:          0  HIT %:        100  MISS %:          0   MPKI: 0
L1I Test counter:          0
L1I LOAD      ACCESS:   38623206  HIT:   38623206  MISS:          0  HIT %:        100  MISS %:          0   MPKI: 0
L1I PREFETCH  REQUESTED:          0  ISSUED:          0  USEFUL:          0  USELESS:          0
L1I USEFUL LOAD PREFETCHES:          0 PREFETCH ISSUED TO LOWER LEVEL:          0  ACCURACY: -nan
L1I TIMELY PREFETCHES:          0 LATE PREFETCHES: 0 DROPPED PREFETCHES: 0
L1I COMMIT LATE PREFETCHES: 0 MISSED OPPORTUNITY: 0 LATE IN PQ: 0 UNCOVERED: 0
L1I COMMIT LATE MSHR PREFETCHES: 0
L1I MPKI TOTAL: 0 MSHR LATE: 0 PQ LATE: 0 COMMIT LATE: 0 MISSED OPPORTUNITY: 0 UNCOVERED: 0
L1I PREFETCHES SAME FILL-ORIGIN LEVEL: 0 DIFFERENT FILL-ORIGIN LEVEL: 0
L1I AVERAGE MISS LATENCY: -nan cycles
L1I AVERAGE MISS LATENCY LOAD: -nan cycles
L1I AVERAGE MISS LATENCY PREFETCH: -nan cycles
L1I AVERAGE MSHR OCCUPANCY: 0
L1I MSHR FULL: 0
L1I RQ	ACCESS:   58199744	FORWARD:          0	MERGED:   19576536	TO_CACHE:   38623208

BTB TOTAL     ACCESS:   26649158  HIT:   26649150  MISS:          8  HIT %:        100  MISS %: 3.00197e-05   MPKI: 4e-05
BTB Test counter:          0
BTB BRANCH_DIRECT_JUMP	ACCESS:    4549688  HIT:    4549686  MISS:          2
BTB BRANCH_INDIRECT	ACCESS:          0  HIT:          0  MISS:          0
BTB BRANCH_CONDITIONAL	ACCESS:   13231060  HIT:   13231056  MISS:          4
BTB BRANCH_DIRECT_CALL	ACCESS:    4434205  HIT:    4434204  MISS:          1
BTB BRANCH_INDIRECT_CALL	ACCESS:          0  HIT:          0  MISS:          0
BTB BRANCH_RETURN	ACCESS:    4434205  HIT:    4434204  MISS:          1
BTB BRANCH_OTHER ACCESS:          0  HIT:          0  MISS:          0

L2C TOTAL     ACCESS:   28717116  HIT:   13482362  MISS:   15234754  HIT %:    46.9489  MISS %:    53.0511   MPKI: 76.1738
L2C Test counter:          0
L2C LOAD      ACCESS:   10534504  HIT:    3929615  MISS:    6604889  HIT %:    37.3023  MISS %:    62.6977   MPKI: 33.0244
L2C DATA LOAD MPKI: 33.0244
L2C INSTRUCTION LOAD MPKI: 0
L2C RFO       ACCESS:     554347  HIT:     401411  MISS:     152936  HIT %:    72.4115  MISS %:    27.5885   MPKI: 0.76468
L2C PREFETCH  ACCESS:    7929619  HIT:    3590281  MISS:    4339338  HIT %:    45.2768  MISS %:    54.7232   MPKI: 21.6967
L2C DATA PREFETCH MPKI: 21.6967
L2C INSTRUCTION PREFETCH MPKI: 0
L2C WRITEBACK ACCESS:    4434203  HIT:    4434181  MISS:         22  HIT %:    99.9995  MISS %: 0.000496143   MPKI: 0.00011
L2C LOAD TRANSLATION ACCESS:    5264443  HIT:    1126874  MISS:    4137569  HIT %:    21.4054  MISS %:    78.5946   MPKI: 20.6878
L2C PREFETCH  REQUESTED:    9974312  ISSUED:    9974312  USEFUL:    1082268  USELESS:    3257180
L2C USEFUL LOAD PREFETCHES:    1082268 PREFETCH ISSUED TO LOWER LEVEL:    5602089  ACCURACY: 19.319
L2C TIMELY PREFETCHES:    1082268 LATE PREFETCHES: 111098 DROPPED PREFETCHES: 0
L2C COMMIT LATE PREFETCHES: 0 MISSED OPPORTUNITY: 0 LATE IN PQ: 0 UNCOVERED: 0
L2C COMMIT LATE MSHR PREFETCHES: 0
L2C MPKI TOTAL: 33.0244 MSHR LATE: 0.55549 PQ LATE: 0 COMMIT LATE: 0 MISSED OPPORTUNITY: 0 UNCOVERED: 0
L2C PREFETCHES SAME FILL-ORIGIN LEVEL: 4450436 DIFFERENT FILL-ORIGIN LEVEL: 1151653
L2C AVERAGE MISS LATENCY: 88.687 cycles
L2C AVERAGE MISS LATENCY LOAD: 156.724 cycles
L2C AVERAGE MISS LATENCY PREFETCH: 42.5465 cycles
L2C AVERAGE MSHR OCCUPANCY: 1.13418
L2C MSHR FULL: 0
L2C RQ	ACCESS:   16353294	FORWARD:          0	MERGED:          0	TO_CACHE:   16353294
L2C WQ	ACCESS:    4434203	FORWARD:          0	MERGED:          0	TO_CACHE:    4434203
L2C PQ	ACCESS:    9974312	FORWARD:          0	MERGED:       5976	TO_CACHE:    9968336

L2C Instructions Evicting Data 0
L2C Translations Evicting Data 2748196
L2C Data Evicting Data 8348832
L2C Instructions Evicting Instructions 0
L2C Translations Evicting Instructions 0
L2C Data Evicting Instructions 0
L2C Instructions Evicting Translations 0
L2C Translations Evicting Translations 1389373
L2C Data Evicting Translations 2748331
L2C Dense regions hint from L2: 0
4036c0: 100
4036c5: 390
4036b7: 3352
4036af: 937974
4036a5: 1229030
40368c: 4434043
PSCL5 TOTAL     ACCESS:    4644799  HIT:    4644799  MISS:          0  HIT %:        100  MISS %:          0   MPKI: 0
PSCL5 Test counter:          0
PSCL5 LOAD TRANSLATION ACCESS:    4644799  HIT:    4644799  MISS:          0  HIT %:        100  MISS %:          0   MPKI: 0
PSCL5 PREFETCH  REQUESTED:          0  ISSUED:          0  USEFUL:          0  USELESS:          0
PSCL5 USEFUL LOAD PREFETCHES:          0 PREFETCH ISSUED TO LOWER LEVEL:          0  ACCURACY: -nan
PSCL5 TIMELY PREFETCHES:          0 LATE PREFETCHES: 0 DROPPED PREFETCHES: 0
PSCL5 COMMIT LATE PREFETCHES: 0 MISSED OPPORTUNITY: 0 LATE IN PQ: 0 UNCOVERED: 0
PSCL5 COMMIT LATE MSHR PREFETCHES: 0
PSCL5 MPKI TOTAL: 0 MSHR LATE: 0 PQ LATE: 0 COMMIT LATE: 0 MISSED OPPORTUNITY: 0 UNCOVERED: 0
PSCL5 PREFETCHES SAME FILL-ORIGIN LEVEL: 0 DIFFERENT FILL-ORIGIN LEVEL: 0

PSCL4 TOTAL     ACCESS:    4644799  HIT:    4644799  MISS:          0  HIT %:        100  MISS %:          0   MPKI: 0
PSCL4 Test counter:          0
PSCL4 LOAD TRANSLATION ACCESS:    4644799  HIT:    4644799  MISS:          0  HIT %:        100  MISS %:          0   MPKI: 0
PSCL4 PREFETCH  REQUESTED:          0  ISSUED:          0  USEFUL:          0  USELESS:          0
PSCL4 USEFUL LOAD PREFETCHES:          0 PREFETCH ISSUED TO LOWER LEVEL:          0  ACCURACY: -nan
PSCL4 TIMELY PREFETCHES:          0 LATE PREFETCHES: 0 DROPPED PREFETCHES: 0
PSCL4 COMMIT LATE PREFETCHES: 0 MISSED OPPORTUNITY: 0 LATE IN PQ: 0 UNCOVERED: 0
PSCL4 COMMIT LATE MSHR PREFETCHES: 0
PSCL4 MPKI TOTAL: 0 MSHR LATE: 0 PQ LATE: 0 COMMIT LATE: 0 MISSED OPPORTUNITY: 0 UNCOVERED: 0
PSCL4 PREFETCHES SAME FILL-ORIGIN LEVEL: 0 DIFFERENT FILL-ORIGIN LEVEL: 0

PSCL3 TOTAL     ACCESS:    4644799  HIT:    4644799  MISS:          0  HIT %:        100  MISS %:          0   MPKI: 0
PSCL3 Test counter:          0
PSCL3 LOAD TRANSLATION ACCESS:    4644799  HIT:    4644799  MISS:          0  HIT %:        100  MISS %:          0   MPKI: 0
PSCL3 PREFETCH  REQUESTED:          0  ISSUED:          0  USEFUL:          0  USELESS:          0
PSCL3 USEFUL LOAD PREFETCHES:          0 PREFETCH ISSUED TO LOWER LEVEL:          0  ACCURACY: -nan
PSCL3 TIMELY PREFETCHES:          0 LATE PREFETCHES: 0 DROPPED PREFETCHES: 0
PSCL3 COMMIT LATE PREFETCHES: 0 MISSED OPPORTUNITY: 0 LATE IN PQ: 0 UNCOVERED: 0
PSCL3 COMMIT LATE MSHR PREFETCHES: 0
PSCL3 MPKI TOTAL: 0 MSHR LATE: 0 PQ LATE: 0 COMMIT LATE: 0 MISSED OPPORTUNITY: 0 UNCOVERED: 0
PSCL3 PREFETCHES SAME FILL-ORIGIN LEVEL: 0 DIFFERENT FILL-ORIGIN LEVEL: 0

PSCL2 TOTAL     ACCESS:    4644799  HIT:    4025155  MISS:     619644  HIT %:    86.6594  MISS %:    13.3406   MPKI: 3.09822
PSCL2 Test counter:          0
PSCL2 LOAD TRANSLATION ACCESS:    4644799  HIT:    4025155  MISS:     619644  HIT %:    86.6594  MISS %:    13.3406   MPKI: 3.09822
PSCL2 PREFETCH  REQUESTED:          0  ISSUED:          0  USEFUL:          0  USELESS:          0
PSCL2 USEFUL LOAD PREFETCHES:          0 PREFETCH ISSUED TO LOWER LEVEL:          0  ACCURACY: -nan
PSCL2 TIMELY PREFETCHES:          0 LATE PREFETCHES: 0 DROPPED PREFETCHES: 0
PSCL2 COMMIT LATE PREFETCHES: 0 MISSED OPPORTUNITY: 0 LATE IN PQ: 0 UNCOVERED: 0
PSCL2 COMMIT LATE MSHR PREFETCHES: 0
PSCL2 MPKI TOTAL: 0 MSHR LATE: 0 PQ LATE: 0 COMMIT LATE: 0 MISSED OPPORTUNITY: 0 UNCOVERED: 0
PSCL2 PREFETCHES SAME FILL-ORIGIN LEVEL: 0 DIFFERENT FILL-ORIGIN LEVEL: 0

LLC TOTAL     ACCESS:   20817269  HIT:   15441587  MISS:    5375682  HIT %:    74.1768  MISS %:    25.8232   MPKI: 26.8784
LLC Test counter:          0
LLC LOAD      ACCESS:    6493791  HIT:    1600212  MISS:    4893579  HIT %:    24.6422  MISS %:    75.3578   MPKI: 24.4679
LLC RFO       ACCESS:     152936  HIT:     152933  MISS:          3  HIT %:     99.998  MISS %:  0.0019616   MPKI: 1.5e-05
LLC PREFETCH  ACCESS:    5598210  HIT:    5130716  MISS:     467494  HIT %:    91.6492  MISS %:    8.35078   MPKI: 2.33747
LLC WRITEBACK ACCESS:    4434763  HIT:    4434763  MISS:          0  HIT %:        100  MISS %:          0   MPKI: 0
LLC LOAD TRANSLATION ACCESS:    4137569  HIT:    4122963  MISS:      14606  HIT %:     99.647  MISS %:   0.353009   MPKI: 0.07303
LLC PREFETCH  REQUESTED:          0  ISSUED:          0  USEFUL:      43515  USELESS:     422236
LLC USEFUL LOAD PREFETCHES:      43515 PREFETCH ISSUED TO LOWER LEVEL:     468213  ACCURACY: 9.29385
LLC TIMELY PREFETCHES:      43515 LATE PREFETCHES: 719 DROPPED PREFETCHES: 0
LLC COMMIT LATE PREFETCHES: 0 MISSED OPPORTUNITY: 0 LATE IN PQ: 0 UNCOVERED: 0
LLC COMMIT LATE MSHR PREFETCHES: 0
LLC MPKI TOTAL: 24.4679 MSHR LATE: 0.003595 PQ LATE: 0 COMMIT LATE: 0 MISSED OPPORTUNITY: 0 UNCOVERED: 0
LLC PREFETCHES SAME FILL-ORIGIN LEVEL: 140738 DIFFERENT FILL-ORIGIN LEVEL: 0
LLC AVERAGE MISS LATENCY: 171.094 cycles
LLC AVERAGE MISS LATENCY LOAD: 170.537 cycles
LLC AVERAGE MISS LATENCY PREFETCH: 176.777 cycles
LLC AVERAGE MSHR OCCUPANCY: 0.838724
LLC MSHR FULL: 0
LLC RQ	ACCESS:   10784296	FORWARD:          0	MERGED:          0	TO_CACHE:   10784296
LLC WQ	ACCESS:    4434763	FORWARD:          1	MERGED:          0	TO_CACHE:    4434763
LLC PQ	ACCESS:    5602089	FORWARD:          0	MERGED:       2532	TO_CACHE:    5599556

LLC Dense regions hint to LLC: 0
4036c0: 41
4036c5: 260
4036b7: 3342
4036af: 25781
4036a5: 450740
40368c: 4413415

RAW hits: 3972186
Loads Generated: 53208714
Loads sent to L1D: 49236528
Stores Generated: 8868412
Stores sent to L1D: 8868414
Major fault: 0 Minor fault: 101164
Allocated PAGES: 101164
Total Load insts: 61480099
Total Non-spec loads: 7806514
Percentage of speculative loads: 87.3024
L1D response latency: 113.315 cycles
Load retirement latency: 216.041 cycles

------------------
Depth Distribution
------------------
depth 0: 4409043
depth 1: 7837746
depth 2: 279106
depth 3: 191
depth 4: 0
depth 5: 0
depth 6: 0
depth 7: 0
depth 8: 0
depth 9: 0
depth 10: 0
depth 11: 0
depth 12: 0
depth 13: 0
depth 14: 0
depth 15: 0
depth 16: 0
depth 17: 0
depth 18: 0
depth 19: 0
depth 20: 0
depth 21: 0
depth 22: 0
depth 23: 0
depth 24: 0
depth 25: 0
depth 26: 0
depth 27: 0
depth 28: 0
depth 29: 0
Total: 12526086
------------------
ST read accesses: 5688435
ST write accesses: 4846069
PT read accesses: 98030633
PT write accesses: 6065030
FILTER read accesses: 56232618
FILTER write accesses: 54073127
GHR read accesses: 42895210
GHR write accesses: 573415
PERC read accesses: 711062856
PERC write accesses: 122079719
GHR counter read accesses: 21069008
GHR counter write accesses: 25165522
GHR ip read accesses: 91245231
GHR ip write accesses: 42138016
ST tag read accesses: 6531166240
ST tag write accesses: 1254407181

DRAM Statistics
 CHANNEL 0
 RQ ROW_BUFFER_HIT:      37101  ROW_BUFFER_MISS:    5338573
 DBUS_CONGESTED:        139
 WQ ROW_BUFFER_HIT:    1062838  ROW_BUFFER_MISS:    3375380  FULL:          0

 AVG_CONGESTED_CYCLE: 3
 All warmup complete: 2
Channel 0 Bank busy for read cycles: 0
Channel 0 Bank busy for write cycles: 0
Channel 0
Rank 0
0banks busy for read cycles: 39993317
0banks busy for write cycles: 680842
1banks busy for read cycles: 200802442
1banks busy for write cycles: 53055859
2banks busy for read cycles: 131973942
2banks busy for write cycles: 59420549
3banks busy for read cycles: 78344927
3banks busy for write cycles: 72894107
4banks busy for read cycles: 24074071
4banks busy for write cycles: 51346548
5banks busy for read cycles: 1166470
5banks busy for write cycles: 23676556
6banks busy for read cycles: 111690
6banks busy for write cycles: 11819242
7banks busy for read cycles: 12819
7banks busy for write cycles: 6239702
8banks busy for read cycles: 1257
8banks busy for write cycles: 4839535

CPU 0 Branch Prediction Accuracy: 99.988% MPKI: 0.01864 Average ROB Occupancy at Mispredict: 323.862
Branch types
NOT_BRANCH: 168845084 84.4225%
BRANCH_DIRECT_JUMP: 4549688 2.27484%
BRANCH_INDIRECT: 0 0%
BRANCH_CONDITIONAL: 17736819 8.86841%
BRANCH_DIRECT_CALL: 4434205 2.2171%
BRANCH_INDIRECT_CALL: 0 0%
BRANCH_RETURN: 4434205 2.2171%
BRANCH_OTHER: 0 0%

DRAM PAGES: 1048576
Allocated PAGES: 101164
