Initialize SIGNATURE TABLE
ST_SET: 1
ST_WAY: 256
ST_TAG_BIT: 16
ST_TAG_MASK: ffff

Initialize PATTERN TABLE
PT_SET: 512
PT_WAY: 4
SIG_DELTA_BIT: 7
C_SIG_BIT: 4
C_DELTA_BIT: 4

Initialize PREFETCH FILTER
FILTER_SET: 1024

Initialize PERCEPTRON
PERC_ENTRIES: 4096
PERC_FEATURES: 9

*** ChampSim Multicore Out-of-Order Simulator ***

Warmup Instructions: 50000000
Simulation Instructions: 200000000
Number of CPUs: 1
LLC sets: 2048
LLC ways: 16
Secure Berti: OFF
Berti: OFF
Berti Fill: OFF
On commit prefetching: OFF
L2 LLC Bypass speculative loads: OFF
Off-chip DRAM Size: 4096 MB Channels: 1 Width: 64-bit Data Rate: 6400 MT/s
CPU 0 runs /home/sumon/secure_berti/Berti_Baseline/../../traces/spec/605.mcf_s-472B.champsimtrace.xz
.xz
BTB has LRU replacement policy
ITLB has LRU replacement policy
DTLB has LRU replacement policy
STLB has LRU replacement policy
L1I has LRU replacement policy
L1D has LRU replacement policy
PERC_ENTRIES: 4096
L2C has LRU replacement policy
LLC has LRU replacement policy
Heartbeat CPU 0 instructions: 10000001 cycles: 3198672 heartbeat IPC: 3.1263 cumulative IPC: 3.1263 (Simulation time: 0 hr 0 min 35 sec) 
Heartbeat CPU 0 instructions: 20000003 cycles: 6554422 heartbeat IPC: 2.97996 cumulative IPC: 3.05138 (Simulation time: 0 hr 1 min 23 sec) 
Heartbeat CPU 0 instructions: 30000000 cycles: 9989530 heartbeat IPC: 2.91112 cumulative IPC: 3.00314 (Simulation time: 0 hr 1 min 56 sec) 
Heartbeat CPU 0 instructions: 40000003 cycles: 13209421 heartbeat IPC: 3.1057 cumulative IPC: 3.02814 (Simulation time: 0 hr 2 min 26 sec) 
Heartbeat CPU 0 instructions: 50000001 cycles: 16460842 heartbeat IPC: 3.07558 cumulative IPC: 3.03751 (Simulation time: 0 hr 2 min 56 sec) 

Warmup complete CPU 0 instructions: 50000001 cycles: 16460842 (Simulation time: 0 hr 2 min 56 sec) 

Heartbeat CPU 0 instructions: 60000001 cycles: 38850552 heartbeat IPC: 0.446634 cumulative IPC: 0.446634 (Simulation time: 0 hr 3 min 47 sec) 
Heartbeat CPU 0 instructions: 70000002 cycles: 60318172 heartbeat IPC: 0.465818 cumulative IPC: 0.456024 (Simulation time: 0 hr 4 min 33 sec) 
Heartbeat CPU 0 instructions: 80000002 cycles: 85986076 heartbeat IPC: 0.389592 cumulative IPC: 0.431498 (Simulation time: 0 hr 5 min 19 sec) 
Heartbeat CPU 0 instructions: 90000000 cycles: 107080021 heartbeat IPC: 0.47407 cumulative IPC: 0.441408 (Simulation time: 0 hr 5 min 58 sec) 
Heartbeat CPU 0 instructions: 100000002 cycles: 131490961 heartbeat IPC: 0.409652 cumulative IPC: 0.434669 (Simulation time: 0 hr 6 min 42 sec) 
Heartbeat CPU 0 instructions: 110000000 cycles: 152771880 heartbeat IPC: 0.469904 cumulative IPC: 0.44017 (Simulation time: 0 hr 7 min 20 sec) 
Heartbeat CPU 0 instructions: 120000002 cycles: 176086003 heartbeat IPC: 0.428925 cumulative IPC: 0.438527 (Simulation time: 0 hr 8 min 0 sec) 
Heartbeat CPU 0 instructions: 130000002 cycles: 200047219 heartbeat IPC: 0.417341 cumulative IPC: 0.435762 (Simulation time: 0 hr 8 min 42 sec) 
Heartbeat CPU 0 instructions: 140000003 cycles: 224274889 heartbeat IPC: 0.412751 cumulative IPC: 0.433079 (Simulation time: 0 hr 9 min 23 sec) 
Heartbeat CPU 0 instructions: 150000002 cycles: 248246906 heartbeat IPC: 0.417153 cumulative IPC: 0.431432 (Simulation time: 0 hr 10 min 4 sec) 
Heartbeat CPU 0 instructions: 160000000 cycles: 271592380 heartbeat IPC: 0.428348 cumulative IPC: 0.43115 (Simulation time: 0 hr 10 min 43 sec) 
Heartbeat CPU 0 instructions: 170000001 cycles: 293794056 heartbeat IPC: 0.450417 cumulative IPC: 0.432692 (Simulation time: 0 hr 11 min 20 sec) 
Heartbeat CPU 0 instructions: 180000000 cycles: 314339060 heartbeat IPC: 0.486736 cumulative IPC: 0.43642 (Simulation time: 0 hr 12 min 0 sec) 
Heartbeat CPU 0 instructions: 190000000 cycles: 340718634 heartbeat IPC: 0.379081 cumulative IPC: 0.431755 (Simulation time: 0 hr 12 min 49 sec) 
Heartbeat CPU 0 instructions: 200000002 cycles: 363159875 heartbeat IPC: 0.445608 cumulative IPC: 0.432652 (Simulation time: 0 hr 13 min 27 sec) 
Heartbeat CPU 0 instructions: 210000003 cycles: 385687005 heartbeat IPC: 0.443909 cumulative IPC: 0.433339 (Simulation time: 0 hr 14 min 5 sec) 
Heartbeat CPU 0 instructions: 220000000 cycles: 409288473 heartbeat IPC: 0.423702 cumulative IPC: 0.43276 (Simulation time: 0 hr 14 min 43 sec) 
Heartbeat CPU 0 instructions: 230000002 cycles: 432452624 heartbeat IPC: 0.431702 cumulative IPC: 0.432701 (Simulation time: 0 hr 15 min 21 sec) 
Heartbeat CPU 0 instructions: 240000002 cycles: 455174369 heartbeat IPC: 0.440107 cumulative IPC: 0.433084 (Simulation time: 0 hr 15 min 57 sec) 
Heartbeat CPU 0 instructions: 250000000 cycles: 471711412 heartbeat IPC: 0.604703 cumulative IPC: 0.439319 (Simulation time: 0 hr 16 min 24 sec) 
Finished CPU 0 instructions: 200000000 cycles: 455250571 cumulative IPC: 0.439319 (Simulation time: 0 hr 16 min 24 sec) 

ChampSim completed all CPUs

Region of Interest Statistics

CPU 0 cumulative IPC: 0.439319 instructions: 200000000 cycles: 455250571
ITLB TOTAL     ACCESS:   34938314  HIT:   34938314  MISS:          0  HIT %:        100  MISS %:          0   MPKI: 0
ITLB Test counter:          0
ITLB LOAD TRANSLATION ACCESS:   34938314  HIT:   34938314  MISS:          0  HIT %:        100  MISS %:          0   MPKI: 0
ITLB PREFETCH  REQUESTED:          0  ISSUED:          0  USEFUL:          0  USELESS:          0
ITLB USEFUL LOAD PREFETCHES:          0 PREFETCH ISSUED TO LOWER LEVEL:          0  ACCURACY: -nan
ITLB TIMELY PREFETCHES:          0 LATE PREFETCHES: 0 DROPPED PREFETCHES: 0
ITLB COMMIT LATE PREFETCHES: 0 MISSED OPPORTUNITY: 0 LATE IN PQ: 0 UNCOVERED: 0
ITLB COMMIT LATE MSHR PREFETCHES: 0
ITLB MPKI TOTAL: 0 MSHR LATE: 0 PQ LATE: 0 COMMIT LATE: 0 MISSED OPPORTUNITY: 0 UNCOVERED: 0
ITLB PREFETCHES SAME FILL-ORIGIN LEVEL: 0 DIFFERENT FILL-ORIGIN LEVEL: 0
ITLB AVERAGE MISS LATENCY: -nan cycles
ITLB AVERAGE MISS LATENCY LOAD: -nan cycles
ITLB AVERAGE MISS LATENCY PREFETCH: -nan cycles
ITLB AVERAGE MSHR OCCUPANCY: 0
ITLB MSHR FULL: 0
ITLB RQ	ACCESS:   44654565	FORWARD:          0	MERGED:    9716252	TO_CACHE:   34938313

DTLB TOTAL     ACCESS:   54023353  HIT:   53308355  MISS:     714998  HIT %:    98.6765  MISS %:     1.3235   MPKI: 3.57499
DTLB Test counter:          0
DTLB LOAD TRANSLATION ACCESS:   54023353  HIT:   53308355  MISS:     714998  HIT %:    98.6765  MISS %:     1.3235   MPKI: 3.57499
DTLB PREFETCH  REQUESTED:          0  ISSUED:          0  USEFUL:          0  USELESS:          0
DTLB USEFUL LOAD PREFETCHES:          0 PREFETCH ISSUED TO LOWER LEVEL:          0  ACCURACY: -nan
DTLB TIMELY PREFETCHES:          0 LATE PREFETCHES: 0 DROPPED PREFETCHES: 0
DTLB COMMIT LATE PREFETCHES: 0 MISSED OPPORTUNITY: 0 LATE IN PQ: 0 UNCOVERED: 0
DTLB COMMIT LATE MSHR PREFETCHES: 0
DTLB MPKI TOTAL: 0 MSHR LATE: 0 PQ LATE: 0 COMMIT LATE: 0 MISSED OPPORTUNITY: 0 UNCOVERED: 0
DTLB PREFETCHES SAME FILL-ORIGIN LEVEL: 0 DIFFERENT FILL-ORIGIN LEVEL: 0
DTLB AVERAGE MISS LATENCY: 36.0892 cycles
DTLB AVERAGE MISS LATENCY LOAD: -nan cycles
DTLB AVERAGE MISS LATENCY PREFETCH: -nan cycles
DTLB AVERAGE MSHR OCCUPANCY: 0.0253463
DTLB MSHR FULL: 0
DTLB RQ	ACCESS:   87874101	FORWARD:          0	MERGED:   33677501	TO_CACHE:   54196600

STLB TOTAL     ACCESS:     714998  HIT:     455110  MISS:     259888  HIT %:    63.6519  MISS %:    36.3481   MPKI: 1.29944
STLB Test counter:          0
STLB LOAD TRANSLATION ACCESS:     714998  HIT:     455110  MISS:     259888  HIT %:    63.6519  MISS %:    36.3481   MPKI: 1.29944
STLB PREFETCH  REQUESTED:          0  ISSUED:          0  USEFUL:          0  USELESS:          0
STLB USEFUL LOAD PREFETCHES:          0 PREFETCH ISSUED TO LOWER LEVEL:          0  ACCURACY: -nan
STLB TIMELY PREFETCHES:          0 LATE PREFETCHES: 0 DROPPED PREFETCHES: 0
STLB COMMIT LATE PREFETCHES: 0 MISSED OPPORTUNITY: 0 LATE IN PQ: 0 UNCOVERED: 0
STLB COMMIT LATE MSHR PREFETCHES: 0
STLB MPKI TOTAL: 0 MSHR LATE: 0 PQ LATE: 0 COMMIT LATE: 0 MISSED OPPORTUNITY: 0 UNCOVERED: 0
STLB PREFETCHES SAME FILL-ORIGIN LEVEL: 0 DIFFERENT FILL-ORIGIN LEVEL: 0
STLB AVERAGE MISS LATENCY: 74.3905 cycles
STLB AVERAGE MISS LATENCY LOAD: -nan cycles
STLB AVERAGE MISS LATENCY PREFETCH: -nan cycles
STLB AVERAGE MSHR OCCUPANCY: 0.00929653
STLB MSHR FULL: 0
STLB RQ	ACCESS:     714998	FORWARD:          0	MERGED:          0	TO_CACHE:     714998

STLB Hit, L1D data hit: 0
STLB Hit, L2C data hit: 0
STLB Hit, LLC data hit: 0
STLB Hit, LLC data miss: 0
STLB STLB hints to L2: 0
L1D TOTAL     ACCESS:   85920283  HIT:   75449349  MISS:   10470934  HIT %:    87.8132  MISS %:    12.1868   MPKI: 52.3547
L1D Test counter:          0
L1D LOAD      ACCESS:   41967101  HIT:   31933222  MISS:   10566148  HIT %:    76.0911  MISS %:    23.9089   MPKI: 50.1694
L1D RFO       ACCESS:   43953182  HIT:   43516127  MISS:     437055  HIT %:    99.0056  MISS %:   0.994365   MPKI: 2.18527
L1D PREFETCH  REQUESTED:          0  ISSUED:          0  USEFUL:          0  USELESS:          0
L1D USEFUL LOAD PREFETCHES:          0 PREFETCH ISSUED TO LOWER LEVEL:          0  ACCURACY: -nan
L1D TIMELY PREFETCHES:          0 LATE PREFETCHES: 0 DROPPED PREFETCHES: 0
L1D COMMIT LATE PREFETCHES: 0 MISSED OPPORTUNITY: 0 LATE IN PQ: 0 UNCOVERED: 0
L1D COMMIT LATE MSHR PREFETCHES: 0
L1D MPKI TOTAL: 52.8307 MSHR LATE: 0 PQ LATE: 0 COMMIT LATE: 0 MISSED OPPORTUNITY: 0 UNCOVERED: 0
L1D PREFETCHES SAME FILL-ORIGIN LEVEL: 0 DIFFERENT FILL-ORIGIN LEVEL: 0
L1D AVERAGE MISS LATENCY: 75.1842 cycles
L1D AVERAGE MISS LATENCY LOAD: 69.612 cycles
L1D AVERAGE MISS LATENCY PREFETCH: -nan cycles
L1D AVERAGE MSHR OCCUPANCY: 1.51582
L1D MSHR FULL: 0
L1D RQ	ACCESS:   66808432	FORWARD:          0	MERGED:   24258353	TO_CACHE:   42499367
L1D WQ	ACCESS:   46248418	FORWARD:      50712	MERGED:     873684	TO_CACHE:   45374734

L1D UNIQUE REGIONS ACCESSED: 0
L1D REGIONS CONFLICTS: 0
L1D Cross Page Prefetch Requests: 0
L1D Same Page Prefetch Requests: 0
L1D ROI Sum of L1D PQ occupancy: 0
L1D PREFETCHES PUSHED FROM L2C: 0
41a843: 12
402dab: 15
402d96: 15
402ffb: 104
41a9be: 108
41ac71: 120
41d3b5: 120
402d40: 120
402d9f: 120
41d375: 120
402d79: 120
402e04: 120
41d3be: 120
41d38c: 120
41a7ae: 120
41d3a0: 120
41acb6: 120
41d3c2: 120
402c8d: 121
402cad: 121
402c90: 121
402c93: 121
403162: 121
4030c1: 662
402f72: 1109
402f3c: 1248
402fbc: 1462
402f85: 1524
402fc5: 1527
402e18: 1705
40301c: 18790
403039: 20628
403012: 43489
403083: 296976
40307e: 318157
402828: 417793
402818: 837183
402dc7: 934360
402dc0: 1197190
402dfb: 1747411
402dcb: 1795804
402dc3: 2394442
L1I TOTAL     ACCESS:   44654564  HIT:   44654558  MISS:          6  HIT %:        100  MISS %: 1.34365e-05   MPKI: 3e-05
L1I Test counter:          0
L1I LOAD      ACCESS:   44654564  HIT:   44654558  MISS:          6  HIT %:        100  MISS %: 1.34365e-05   MPKI: 3e-05
L1I PREFETCH  REQUESTED:          0  ISSUED:          0  USEFUL:          0  USELESS:          0
L1I USEFUL LOAD PREFETCHES:          0 PREFETCH ISSUED TO LOWER LEVEL:          0  ACCURACY: -nan
L1I TIMELY PREFETCHES:          0 LATE PREFETCHES: 0 DROPPED PREFETCHES: 0
L1I COMMIT LATE PREFETCHES: 0 MISSED OPPORTUNITY: 0 LATE IN PQ: 0 UNCOVERED: 0
L1I COMMIT LATE MSHR PREFETCHES: 0
L1I MPKI TOTAL: 3e-05 MSHR LATE: 0 PQ LATE: 0 COMMIT LATE: 0 MISSED OPPORTUNITY: 0 UNCOVERED: 0
L1I PREFETCHES SAME FILL-ORIGIN LEVEL: 0 DIFFERENT FILL-ORIGIN LEVEL: 0
L1I AVERAGE MISS LATENCY: 214 cycles
L1I AVERAGE MISS LATENCY LOAD: 214 cycles
L1I AVERAGE MISS LATENCY PREFETCH: -nan cycles
L1I AVERAGE MSHR OCCUPANCY: 4.47883e-08
L1I MSHR FULL: 0
L1I RQ	ACCESS:   60556219	FORWARD:          0	MERGED:   15901654	TO_CACHE:   44654565

4027c4: 1
402975: 1
4027a0: 1
402801: 1
402cc3: 1
402d01: 1
BTB TOTAL     ACCESS:   25427193  HIT:   25427154  MISS:         39  HIT %:    99.9998  MISS %: 0.000153379   MPKI: 0.000195
BTB Test counter:          0
BTB BRANCH_DIRECT_JUMP	ACCESS:    2120382  HIT:    2120376  MISS:          6
BTB BRANCH_INDIRECT	ACCESS:          0  HIT:          0  MISS:          0
BTB BRANCH_CONDITIONAL	ACCESS:   23306330  HIT:   23306302  MISS:         28
BTB BRANCH_DIRECT_CALL	ACCESS:        241  HIT:        238  MISS:          3
BTB BRANCH_INDIRECT_CALL	ACCESS:          0  HIT:          0  MISS:          0
BTB BRANCH_RETURN	ACCESS:        240  HIT:        238  MISS:          2
BTB BRANCH_OTHER ACCESS:          0  HIT:          0  MISS:          0

L2C TOTAL     ACCESS:   21767492  HIT:    7718221  MISS:   14049271  HIT %:    35.4576  MISS %:    64.5424   MPKI: 70.2464
L2C Test counter:          0
L2C LOAD      ACCESS:   10033848  HIT:    5703652  MISS:    4330194  HIT %:    56.8441  MISS %:    43.1559   MPKI: 21.651
L2C DATA LOAD MPKI: 21.651
L2C INSTRUCTION LOAD MPKI: 3e-05
L2C RFO       ACCESS:     437050  HIT:      38814  MISS:     398236  HIT %:    8.88091  MISS %:    91.1191   MPKI: 1.99118
L2C PREFETCH  ACCESS:   10089844  HIT:     811773  MISS:    9278071  HIT %:    8.04545  MISS %:    91.9546   MPKI: 46.3904
L2C DATA PREFETCH MPKI: 46.3904
L2C INSTRUCTION PREFETCH MPKI: 0
L2C WRITEBACK ACCESS:     946504  HIT:     941215  MISS:       5289  HIT %:    99.4412  MISS %:   0.558793   MPKI: 0.026445
L2C LOAD TRANSLATION ACCESS:     260246  HIT:     222767  MISS:      37479  HIT %:    85.5986  MISS %:    14.4014   MPKI: 0.187395
L2C PREFETCH  REQUESTED:   13835618  ISSUED:   13833966  USEFUL:    5616605  USELESS:    3663074
L2C USEFUL LOAD PREFETCHES:    5616605 PREFETCH ISSUED TO LOWER LEVEL:   12376974  ACCURACY: 45.3795
L2C TIMELY PREFETCHES:    5616605 LATE PREFETCHES: 3043450 DROPPED PREFETCHES: 0
L2C COMMIT LATE PREFETCHES: 0 MISSED OPPORTUNITY: 0 LATE IN PQ: 0 UNCOVERED: 0
L2C COMMIT LATE MSHR PREFETCHES: 0
L2C MPKI TOTAL: 21.651 MSHR LATE: 15.2172 PQ LATE: 0 COMMIT LATE: 0 MISSED OPPORTUNITY: 0 UNCOVERED: 0
L2C PREFETCHES SAME FILL-ORIGIN LEVEL: 12321523 DIFFERENT FILL-ORIGIN LEVEL: 55451
L2C AVERAGE MISS LATENCY: 165.889 cycles
L2C AVERAGE MISS LATENCY LOAD: 133.122 cycles
L2C AVERAGE MISS LATENCY PREFETCH: 179.223 cycles
L2C AVERAGE MSHR OCCUPANCY: 9.16979
L2C MSHR FULL: 0.000829863
L2C RQ	ACCESS:   10731185	FORWARD:          0	MERGED:          0	TO_CACHE:   10731142
L2C WQ	ACCESS:     946504	FORWARD:         66	MERGED:          0	TO_CACHE:     946504
L2C PQ	ACCESS:   13833966	FORWARD:          0	MERGED:      32301	TO_CACHE:   13801642

L2C Instructions Evicting Data 6
L2C Translations Evicting Data 37428
L2C Data Evicting Data 13969079
L2C Instructions Evicting Instructions 0
L2C Translations Evicting Instructions 0
L2C Data Evicting Instructions 6
L2C Instructions Evicting Translations 0
L2C Translations Evicting Translations 51
L2C Data Evicting Translations 37412
L2C Dense regions hint from L2: 0
402975: 1
4027c4: 1
402cc3: 1
402801: 1
4027a0: 1
402d01: 1
402d96: 5
41a843: 11
402d79: 24
402ffb: 37
402fc5: 62
41d375: 83
402f85: 93
402e04: 94
402fbc: 95
41a9be: 108
402f3c: 114
41acb6: 119
41ac71: 120
41d3a0: 120
41d3c2: 120
402d9f: 120
41d3be: 120
402cad: 120
41d3b5: 120
402d40: 120
41d38c: 120
41a7ae: 120
402c90: 121
402c93: 121
403162: 121
4030c1: 145
402f72: 168
402e18: 172
40301c: 4092
403039: 4816
403012: 9987
402dc0: 45528
403083: 85177
40307e: 130878
402828: 171589
402818: 398956
402dc7: 474936
402dfb: 639583
402dcb: 761924
402dc3: 1599831
PSCL5 TOTAL     ACCESS:     259888  HIT:     259888  MISS:          0  HIT %:        100  MISS %:          0   MPKI: 0
PSCL5 Test counter:          0
PSCL5 LOAD TRANSLATION ACCESS:     259888  HIT:     259888  MISS:          0  HIT %:        100  MISS %:          0   MPKI: 0
PSCL5 PREFETCH  REQUESTED:          0  ISSUED:          0  USEFUL:          0  USELESS:          0
PSCL5 USEFUL LOAD PREFETCHES:          0 PREFETCH ISSUED TO LOWER LEVEL:          0  ACCURACY: -nan
PSCL5 TIMELY PREFETCHES:          0 LATE PREFETCHES: 0 DROPPED PREFETCHES: 0
PSCL5 COMMIT LATE PREFETCHES: 0 MISSED OPPORTUNITY: 0 LATE IN PQ: 0 UNCOVERED: 0
PSCL5 COMMIT LATE MSHR PREFETCHES: 0
PSCL5 MPKI TOTAL: 0 MSHR LATE: 0 PQ LATE: 0 COMMIT LATE: 0 MISSED OPPORTUNITY: 0 UNCOVERED: 0
PSCL5 PREFETCHES SAME FILL-ORIGIN LEVEL: 0 DIFFERENT FILL-ORIGIN LEVEL: 0

PSCL4 TOTAL     ACCESS:     259888  HIT:     259888  MISS:          0  HIT %:        100  MISS %:          0   MPKI: 0
PSCL4 Test counter:          0
PSCL4 LOAD TRANSLATION ACCESS:     259888  HIT:     259888  MISS:          0  HIT %:        100  MISS %:          0   MPKI: 0
PSCL4 PREFETCH  REQUESTED:          0  ISSUED:          0  USEFUL:          0  USELESS:          0
PSCL4 USEFUL LOAD PREFETCHES:          0 PREFETCH ISSUED TO LOWER LEVEL:          0  ACCURACY: -nan
PSCL4 TIMELY PREFETCHES:          0 LATE PREFETCHES: 0 DROPPED PREFETCHES: 0
PSCL4 COMMIT LATE PREFETCHES: 0 MISSED OPPORTUNITY: 0 LATE IN PQ: 0 UNCOVERED: 0
PSCL4 COMMIT LATE MSHR PREFETCHES: 0
PSCL4 MPKI TOTAL: 0 MSHR LATE: 0 PQ LATE: 0 COMMIT LATE: 0 MISSED OPPORTUNITY: 0 UNCOVERED: 0
PSCL4 PREFETCHES SAME FILL-ORIGIN LEVEL: 0 DIFFERENT FILL-ORIGIN LEVEL: 0

PSCL3 TOTAL     ACCESS:     259052  HIT:     259041  MISS:         11  HIT %:    99.9958  MISS %: 0.00424625   MPKI: 5.5e-05
PSCL3 Test counter:          0
PSCL3 LOAD TRANSLATION ACCESS:     259052  HIT:     259041  MISS:         11  HIT %:    99.9958  MISS %: 0.00424625   MPKI: 5.5e-05
PSCL3 PREFETCH  REQUESTED:          0  ISSUED:          0  USEFUL:          0  USELESS:          0
PSCL3 USEFUL LOAD PREFETCHES:          0 PREFETCH ISSUED TO LOWER LEVEL:          0  ACCURACY: -nan
PSCL3 TIMELY PREFETCHES:          0 LATE PREFETCHES: 0 DROPPED PREFETCHES: 0
PSCL3 COMMIT LATE PREFETCHES: 0 MISSED OPPORTUNITY: 0 LATE IN PQ: 0 UNCOVERED: 0
PSCL3 COMMIT LATE MSHR PREFETCHES: 0
PSCL3 MPKI TOTAL: 0 MSHR LATE: 0 PQ LATE: 0 COMMIT LATE: 0 MISSED OPPORTUNITY: 0 UNCOVERED: 0
PSCL3 PREFETCHES SAME FILL-ORIGIN LEVEL: 0 DIFFERENT FILL-ORIGIN LEVEL: 0

PSCL2 TOTAL     ACCESS:     259888  HIT:     259405  MISS:        483  HIT %:    99.8142  MISS %:   0.185849   MPKI: 0.002415
PSCL2 Test counter:          0
PSCL2 LOAD TRANSLATION ACCESS:     259888  HIT:     259405  MISS:        483  HIT %:    99.8142  MISS %:   0.185849   MPKI: 0.002415
PSCL2 PREFETCH  REQUESTED:          0  ISSUED:          0  USEFUL:          0  USELESS:          0
PSCL2 USEFUL LOAD PREFETCHES:          0 PREFETCH ISSUED TO LOWER LEVEL:          0  ACCURACY: -nan
PSCL2 TIMELY PREFETCHES:          0 LATE PREFETCHES: 0 DROPPED PREFETCHES: 0
PSCL2 COMMIT LATE PREFETCHES: 0 MISSED OPPORTUNITY: 0 LATE IN PQ: 0 UNCOVERED: 0
PSCL2 COMMIT LATE MSHR PREFETCHES: 0
PSCL2 MPKI TOTAL: 0 MSHR LATE: 0 PQ LATE: 0 COMMIT LATE: 0 MISSED OPPORTUNITY: 0 UNCOVERED: 0
PSCL2 PREFETCHES SAME FILL-ORIGIN LEVEL: 0 DIFFERENT FILL-ORIGIN LEVEL: 0

LLC TOTAL     ACCESS:   14951846  HIT:     923197  MISS:   14028649  HIT %:    6.17447  MISS %:    93.8255   MPKI: 70.1432
LLC Test counter:          0
LLC LOAD      ACCESS:    1290019  HIT:      11783  MISS:    1278235  HIT %:   0.913397  MISS %:    99.0866   MPKI: 6.39118
LLC RFO       ACCESS:     394963  HIT:       1115  MISS:     393848  HIT %:   0.282305  MISS %:    99.7177   MPKI: 1.96924
LLC PREFETCH  ACCESS:   12374787  HIT:      59591  MISS:   12315196  HIT %:   0.481552  MISS %:    99.5184   MPKI: 61.576
LLC WRITEBACK ACCESS:     854598  HIT:     849474  MISS:       5124  HIT %:    99.4004  MISS %:    0.59958   MPKI: 0.02562
LLC LOAD TRANSLATION ACCESS:      37479  HIT:       1234  MISS:      36245  HIT %:    3.29251  MISS %:    96.7075   MPKI: 0.181225
LLC PREFETCH  REQUESTED:          0  ISSUED:          0  USEFUL:       8323  USELESS:   12295477
LLC USEFUL LOAD PREFETCHES:       8323 PREFETCH ISSUED TO LOWER LEVEL:   12315476  ACCURACY: 0.0675816
LLC TIMELY PREFETCHES:       8323 LATE PREFETCHES: 278 DROPPED PREFETCHES: 0
LLC COMMIT LATE PREFETCHES: 0 MISSED OPPORTUNITY: 0 LATE IN PQ: 0 UNCOVERED: 0
LLC COMMIT LATE MSHR PREFETCHES: 0
LLC MPKI TOTAL: 6.39117 MSHR LATE: 0.00139 PQ LATE: 0 COMMIT LATE: 0 MISSED OPPORTUNITY: 0 UNCOVERED: 0
LLC PREFETCHES SAME FILL-ORIGIN LEVEL: 34636 DIFFERENT FILL-ORIGIN LEVEL: 0
LLC AVERAGE MISS LATENCY: 152.252 cycles
LLC AVERAGE MISS LATENCY LOAD: 144.49 cycles
LLC AVERAGE MISS LATENCY PREFETCH: 152.111 cycles
LLC AVERAGE MSHR OCCUPANCY: 6.09522
LLC MSHR FULL: 0
LLC RQ	ACCESS:    1722459	FORWARD:          0	MERGED:          0	TO_CACHE:    1722459
LLC WQ	ACCESS:     854598	FORWARD:          0	MERGED:          0	TO_CACHE:     854598
LLC PQ	ACCESS:   12376974	FORWARD:          0	MERGED:         34	TO_CACHE:   12376940

LLC Dense regions hint to LLC: 0
4027c4: 1
402cc3: 1
402d01: 1
402801: 1
402975: 1
4027a0: 1
402d96: 5
402f3c: 5
41a843: 10
402f85: 10
402c93: 15
402fc5: 21
402d79: 24
403162: 34
402ffb: 36
41d375: 51
4030c1: 53
402fbc: 57
402f72: 66
402e18: 78
402e04: 81
402cad: 95
41a9be: 108
41acb6: 119
41d3be: 120
402d9f: 120
41ac71: 120
402d40: 120
41d3a0: 120
41d3c2: 120
41d3b5: 120
41d38c: 120
41a7ae: 120
402c90: 121
40301c: 2001
403039: 2756
403012: 5298
402dc0: 33145
402828: 42654
403083: 44982
402818: 69361
40307e: 123946
402dc7: 143844
402dfb: 172686
402dcb: 252743
402dc3: 382745

RAW hits: 2410006
Loads Generated: 69218435
Loads sent to L1D: 66808432
Stores Generated: 46248414
Stores sent to L1D: 46248418
Major fault: 0 Minor fault: 63874
Allocated PAGES: 63874
Total Load insts: 83606397
Total Non-spec loads: 10167833
Percentage of speculative loads: 87.8384
L1D response latency: 69.612 cycles
Load retirement latency: 179.818 cycles

------------------
Depth Distribution
------------------
depth 0: 512530
depth 1: 606285
depth 2: 4491291
depth 3: 2397750
depth 4: 1205758
depth 5: 1548919
depth 6: 517840
depth 7: 459954
depth 8: 322653
depth 9: 249889
depth 10: 184894
depth 11: 57130
depth 12: 24183
depth 13: 6861
depth 14: 1980
depth 15: 358
depth 16: 351
depth 17: 83
depth 18: 70
depth 19: 32
depth 20: 6
depth 21: 2
depth 22: 0
depth 23: 0
depth 24: 0
depth 25: 0
depth 26: 0
depth 27: 0
depth 28: 0
depth 29: 0
Total: 12588819
------------------
ST read accesses: 9777534
ST write accesses: 256306
PT read accesses: 247785944
PT write accesses: 14561379
FILTER read accesses: 78779574
FILTER write accesses: 50920197
GHR read accesses: 26945325
GHR write accesses: 4334648
PERC read accesses: 1660545711
PERC write accesses: 142040888
GHR counter read accesses: 20067680
GHR counter write accesses: 34955629
GHR ip read accesses: 72176016
GHR ip write accesses: 40135360
ST tag read accesses: 3989546533
ST tag write accesses: 91001966

DRAM Statistics
 CHANNEL 0
 RQ ROW_BUFFER_HIT:   10119132  ROW_BUFFER_MISS:    3904219
 DBUS_CONGESTED:       6484
 WQ ROW_BUFFER_HIT:     215612  ROW_BUFFER_MISS:     631328  FULL:          0

 AVG_CONGESTED_CYCLE: 5
 All warmup complete: 2
Channel 0 Bank busy for read cycles: 0
Channel 0 Bank busy for write cycles: 0
Channel 0
Rank 0
0banks busy for read cycles: 145917603
0banks busy for write cycles: 34930
1banks busy for read cycles: 57655704
1banks busy for write cycles: 4687104
2banks busy for read cycles: 40259630
2banks busy for write cycles: 2459039
3banks busy for read cycles: 34501254
3banks busy for write cycles: 1754434
4banks busy for read cycles: 31754740
4banks busy for write cycles: 1450463
5banks busy for read cycles: 30197415
5banks busy for write cycles: 1268226
6banks busy for read cycles: 29685721
6banks busy for write cycles: 1318259
7banks busy for read cycles: 28176561
7banks busy for write cycles: 2331586
8banks busy for read cycles: 25327313
8banks busy for write cycles: 16470590

CPU 0 Branch Prediction Accuracy: 99.1418% MPKI: 1.10599 Average ROB Occupancy at Mispredict: 204.168
Branch types
NOT_BRANCH: 174224401 87.1122%
BRANCH_DIRECT_JUMP: 2120382 1.06019%
BRANCH_INDIRECT: 0 0%
BRANCH_CONDITIONAL: 23654431 11.8272%
BRANCH_DIRECT_CALL: 241 0.0001205%
BRANCH_INDIRECT_CALL: 0 0%
BRANCH_RETURN: 240 0.00012%
BRANCH_OTHER: 0 0%

DRAM PAGES: 1048576
Allocated PAGES: 63874
