Initialize SIGNATURE TABLE
ST_SET: 1
ST_WAY: 256
ST_TAG_BIT: 16
ST_TAG_MASK: ffff

Initialize PATTERN TABLE
PT_SET: 512
PT_WAY: 4
SIG_DELTA_BIT: 7
C_SIG_BIT: 4
C_DELTA_BIT: 4

Initialize PREFETCH FILTER
FILTER_SET: 1024

Initialize PERCEPTRON
PERC_ENTRIES: 4096
PERC_FEATURES: 9

*** ChampSim Multicore Out-of-Order Simulator ***

Warmup Instructions: 50000000
Simulation Instructions: 200000000
Number of CPUs: 1
LLC sets: 2048
LLC ways: 16
Secure Berti: OFF
Berti: OFF
Berti Fill: OFF
On commit prefetching: OFF
L2 LLC Bypass speculative loads: OFF
Off-chip DRAM Size: 4096 MB Channels: 1 Width: 64-bit Data Rate: 6400 MT/s
CPU 0 runs /home/sumon/secure_berti/Berti_Baseline/../../traces/spec/620.omnetpp_s-874B.champsimtrace.xz
.xz
BTB has LRU replacement policy
ITLB has LRU replacement policy
DTLB has LRU replacement policy
STLB has LRU replacement policy
L1I has LRU replacement policy
L1D has LRU replacement policy
PERC_ENTRIES: 4096
L2C has LRU replacement policy
LLC has LRU replacement policy
Heartbeat CPU 0 instructions: 10000001 cycles: 3904091 heartbeat IPC: 2.56142 cumulative IPC: 2.56142 (Simulation time: 0 hr 0 min 26 sec) 
Heartbeat CPU 0 instructions: 20000001 cycles: 7804671 heartbeat IPC: 2.56372 cumulative IPC: 2.56257 (Simulation time: 0 hr 0 min 58 sec) 
Heartbeat CPU 0 instructions: 30000003 cycles: 11700903 heartbeat IPC: 2.56658 cumulative IPC: 2.56391 (Simulation time: 0 hr 1 min 37 sec) 
Heartbeat CPU 0 instructions: 40000001 cycles: 15605981 heartbeat IPC: 2.56077 cumulative IPC: 2.56312 (Simulation time: 0 hr 2 min 17 sec) 
Heartbeat CPU 0 instructions: 50000000 cycles: 19513327 heartbeat IPC: 2.55928 cumulative IPC: 2.56235 (Simulation time: 0 hr 2 min 56 sec) 

Warmup complete CPU 0 instructions: 50000004 cycles: 19513328 (Simulation time: 0 hr 2 min 56 sec) 

Heartbeat CPU 0 instructions: 60000001 cycles: 62191507 heartbeat IPC: 0.234312 cumulative IPC: 0.234312 (Simulation time: 0 hr 3 min 56 sec) 
Heartbeat CPU 0 instructions: 70000001 cycles: 104345997 heartbeat IPC: 0.237223 cumulative IPC: 0.235758 (Simulation time: 0 hr 4 min 50 sec) 
Heartbeat CPU 0 instructions: 80000002 cycles: 146764801 heartbeat IPC: 0.235745 cumulative IPC: 0.235754 (Simulation time: 0 hr 5 min 39 sec) 
Heartbeat CPU 0 instructions: 90000001 cycles: 188711614 heartbeat IPC: 0.238397 cumulative IPC: 0.236409 (Simulation time: 0 hr 6 min 15 sec) 
Heartbeat CPU 0 instructions: 100000000 cycles: 231621195 heartbeat IPC: 0.233048 cumulative IPC: 0.235729 (Simulation time: 0 hr 6 min 50 sec) 
Heartbeat CPU 0 instructions: 110000000 cycles: 273868228 heartbeat IPC: 0.236703 cumulative IPC: 0.235891 (Simulation time: 0 hr 7 min 26 sec) 
Heartbeat CPU 0 instructions: 120000003 cycles: 316212514 heartbeat IPC: 0.236159 cumulative IPC: 0.235929 (Simulation time: 0 hr 8 min 0 sec) 
Heartbeat CPU 0 instructions: 130000000 cycles: 358656725 heartbeat IPC: 0.235603 cumulative IPC: 0.235888 (Simulation time: 0 hr 8 min 36 sec) 
Heartbeat CPU 0 instructions: 140000001 cycles: 400939026 heartbeat IPC: 0.236506 cumulative IPC: 0.235957 (Simulation time: 0 hr 9 min 12 sec) 
Heartbeat CPU 0 instructions: 150000002 cycles: 443553293 heartbeat IPC: 0.234663 cumulative IPC: 0.235827 (Simulation time: 0 hr 9 min 47 sec) 
Heartbeat CPU 0 instructions: 160000000 cycles: 486298723 heartbeat IPC: 0.233943 cumulative IPC: 0.235654 (Simulation time: 0 hr 10 min 21 sec) 
Heartbeat CPU 0 instructions: 170000000 cycles: 528410625 heartbeat IPC: 0.237463 cumulative IPC: 0.235804 (Simulation time: 0 hr 10 min 56 sec) 
Heartbeat CPU 0 instructions: 180000000 cycles: 570769605 heartbeat IPC: 0.236077 cumulative IPC: 0.235825 (Simulation time: 0 hr 11 min 30 sec) 
Heartbeat CPU 0 instructions: 190000003 cycles: 613186371 heartbeat IPC: 0.235756 cumulative IPC: 0.23582 (Simulation time: 0 hr 12 min 4 sec) 
Heartbeat CPU 0 instructions: 200000000 cycles: 655456976 heartbeat IPC: 0.236571 cumulative IPC: 0.23587 (Simulation time: 0 hr 12 min 39 sec) 
Heartbeat CPU 0 instructions: 210000000 cycles: 697917959 heartbeat IPC: 0.23551 cumulative IPC: 0.235847 (Simulation time: 0 hr 13 min 15 sec) 
Heartbeat CPU 0 instructions: 220000000 cycles: 740240430 heartbeat IPC: 0.236281 cumulative IPC: 0.235873 (Simulation time: 0 hr 13 min 49 sec) 
Heartbeat CPU 0 instructions: 230000002 cycles: 782284074 heartbeat IPC: 0.237848 cumulative IPC: 0.235982 (Simulation time: 0 hr 14 min 22 sec) 
Heartbeat CPU 0 instructions: 240000001 cycles: 824855991 heartbeat IPC: 0.234897 cumulative IPC: 0.235924 (Simulation time: 0 hr 14 min 54 sec) 
Heartbeat CPU 0 instructions: 250000000 cycles: 867221496 heartbeat IPC: 0.236041 cumulative IPC: 0.23593 (Simulation time: 0 hr 15 min 26 sec) 
Finished CPU 0 instructions: 200000000 cycles: 847708169 cumulative IPC: 0.23593 (Simulation time: 0 hr 15 min 26 sec) 

ChampSim completed all CPUs

Region of Interest Statistics

CPU 0 cumulative IPC: 0.23593 instructions: 200000000 cycles: 847708169
ITLB TOTAL     ACCESS:   32887945  HIT:   32606736  MISS:     281209  HIT %:    99.1449  MISS %:   0.855052   MPKI: 1.40604
ITLB Test counter:          0
ITLB LOAD TRANSLATION ACCESS:   32887945  HIT:   32606736  MISS:     281209  HIT %:    99.1449  MISS %:   0.855052   MPKI: 1.40604
ITLB PREFETCH  REQUESTED:          0  ISSUED:          0  USEFUL:          0  USELESS:          0
ITLB USEFUL LOAD PREFETCHES:          0 PREFETCH ISSUED TO LOWER LEVEL:          0  ACCURACY: -nan
ITLB TIMELY PREFETCHES:          0 LATE PREFETCHES: 0 DROPPED PREFETCHES: 0
ITLB COMMIT LATE PREFETCHES: 0 MISSED OPPORTUNITY: 0 LATE IN PQ: 0 UNCOVERED: 0
ITLB COMMIT LATE MSHR PREFETCHES: 0
ITLB MPKI TOTAL: 0 MSHR LATE: 0 PQ LATE: 0 COMMIT LATE: 0 MISSED OPPORTUNITY: 0 UNCOVERED: 0
ITLB PREFETCHES SAME FILL-ORIGIN LEVEL: 0 DIFFERENT FILL-ORIGIN LEVEL: 0
ITLB AVERAGE MISS LATENCY: 10.2137 cycles
ITLB AVERAGE MISS LATENCY LOAD: -nan cycles
ITLB AVERAGE MISS LATENCY PREFETCH: -nan cycles
ITLB AVERAGE MSHR OCCUPANCY: 0.00775528
ITLB MSHR FULL: 0
ITLB RQ	ACCESS:   37002289	FORWARD:          0	MERGED:    4023200	TO_CACHE:   32979089

DTLB TOTAL     ACCESS:   76694341  HIT:   72882220  MISS:    3812121  HIT %:    95.0295  MISS %:    4.97054   MPKI: 19.0606
DTLB Test counter:          0
DTLB LOAD TRANSLATION ACCESS:   76694341  HIT:   72882220  MISS:    3812121  HIT %:    95.0295  MISS %:    4.97054   MPKI: 19.0606
DTLB PREFETCH  REQUESTED:          0  ISSUED:          0  USEFUL:          0  USELESS:          0
DTLB USEFUL LOAD PREFETCHES:          0 PREFETCH ISSUED TO LOWER LEVEL:          0  ACCURACY: -nan
DTLB TIMELY PREFETCHES:          0 LATE PREFETCHES: 0 DROPPED PREFETCHES: 0
DTLB COMMIT LATE PREFETCHES: 0 MISSED OPPORTUNITY: 0 LATE IN PQ: 0 UNCOVERED: 0
DTLB COMMIT LATE MSHR PREFETCHES: 0
DTLB MPKI TOTAL: 0 MSHR LATE: 0 PQ LATE: 0 COMMIT LATE: 0 MISSED OPPORTUNITY: 0 UNCOVERED: 0
DTLB PREFETCHES SAME FILL-ORIGIN LEVEL: 0 DIFFERENT FILL-ORIGIN LEVEL: 0
DTLB AVERAGE MISS LATENCY: 28.9891 cycles
DTLB AVERAGE MISS LATENCY LOAD: -nan cycles
DTLB AVERAGE MISS LATENCY PREFETCH: -nan cycles
DTLB AVERAGE MSHR OCCUPANCY: 0.0920965
DTLB MSHR FULL: 1.9994e-05
DTLB RQ	ACCESS:   86563344	FORWARD:          0	MERGED:    9791927	TO_CACHE:   76771417

STLB TOTAL     ACCESS:    4093330  HIT:    3237950  MISS:     855380  HIT %:    79.1031  MISS %:    20.8969   MPKI: 4.2769
STLB Test counter:          0
STLB LOAD TRANSLATION ACCESS:    4093330  HIT:    3237950  MISS:     855380  HIT %:    79.1031  MISS %:    20.8969   MPKI: 4.2769
STLB PREFETCH  REQUESTED:          0  ISSUED:          0  USEFUL:          0  USELESS:          0
STLB USEFUL LOAD PREFETCHES:          0 PREFETCH ISSUED TO LOWER LEVEL:          0  ACCURACY: -nan
STLB TIMELY PREFETCHES:          0 LATE PREFETCHES: 0 DROPPED PREFETCHES: 0
STLB COMMIT LATE PREFETCHES: 0 MISSED OPPORTUNITY: 0 LATE IN PQ: 0 UNCOVERED: 0
STLB COMMIT LATE MSHR PREFETCHES: 0
STLB MPKI TOTAL: 0 MSHR LATE: 0 PQ LATE: 0 COMMIT LATE: 0 MISSED OPPORTUNITY: 0 UNCOVERED: 0
STLB PREFETCHES SAME FILL-ORIGIN LEVEL: 0 DIFFERENT FILL-ORIGIN LEVEL: 0
STLB AVERAGE MISS LATENCY: 89.3326 cycles
STLB AVERAGE MISS LATENCY LOAD: -nan cycles
STLB AVERAGE MISS LATENCY PREFETCH: -nan cycles
STLB AVERAGE MSHR OCCUPANCY: 0.077712
STLB MSHR FULL: 0
STLB RQ	ACCESS:    4093330	FORWARD:          0	MERGED:          0	TO_CACHE:    4093330

STLB Hit, L1D data hit: 0
STLB Hit, L2C data hit: 0
STLB Hit, LLC data hit: 0
STLB Hit, LLC data miss: 0
STLB STLB hints to L2: 0
L1D TOTAL     ACCESS:   85679335  HIT:   82037109  MISS:    3642226  HIT %:     95.749  MISS %:      4.251   MPKI: 18.2111
L1D Test counter:          0
L1D LOAD      ACCESS:   49637566  HIT:   46486363  MISS:    3367726  HIT %:    93.6516  MISS %:    6.34842   MPKI: 15.756
L1D RFO       ACCESS:   36041769  HIT:   35550746  MISS:     491023  HIT %:    98.6376  MISS %:    1.36237   MPKI: 2.45512
L1D PREFETCH  REQUESTED:          0  ISSUED:          0  USEFUL:          0  USELESS:          0
L1D USEFUL LOAD PREFETCHES:          0 PREFETCH ISSUED TO LOWER LEVEL:          0  ACCURACY: -nan
L1D TIMELY PREFETCHES:          0 LATE PREFETCHES: 0 DROPPED PREFETCHES: 0
L1D COMMIT LATE PREFETCHES: 0 MISSED OPPORTUNITY: 0 LATE IN PQ: 0 UNCOVERED: 0
L1D COMMIT LATE MSHR PREFETCHES: 0
L1D MPKI TOTAL: 16.8386 MSHR LATE: 0 PQ LATE: 0 COMMIT LATE: 0 MISSED OPPORTUNITY: 0 UNCOVERED: 0
L1D PREFETCHES SAME FILL-ORIGIN LEVEL: 0 DIFFERENT FILL-ORIGIN LEVEL: 0
L1D AVERAGE MISS LATENCY: 99.8408 cycles
L1D AVERAGE MISS LATENCY LOAD: 100.595 cycles
L1D AVERAGE MISS LATENCY PREFETCH: -nan cycles
L1D AVERAGE MSHR OCCUPANCY: 0.235614
L1D MSHR FULL: 0
L1D RQ	ACCESS:   64380604	FORWARD:          0	MERGED:   11856631	TO_CACHE:   49854087
L1D WQ	ACCESS:   37118330	FORWARD:    2669886	MERGED:     409073	TO_CACHE:   36709257

L1D UNIQUE REGIONS ACCESSED: 0
L1D REGIONS CONFLICTS: 0
L1D Cross Page Prefetch Requests: 0
L1D Same Page Prefetch Requests: 0
L1D ROI Sum of L1D PQ occupancy: 0
L1D PREFETCHES PUSHED FROM L2C: 0
544bff: 1
4c74d9: 1
4e0583: 1
680e22: 1
4c8937: 1
549774: 1
498148: 1
498162: 1
549b06: 1
4c703e: 1
4cce59: 1
549b73: 1
5555c3: 1
498169: 1
412246: 1
41d437: 1
47d471: 1
4c7067: 1
590696: 1
623f79: 1
558d53: 1
4e057c: 1
549ee8: 1
550bba: 1
4c86bf: 1
5502e6: 1
4c862b: 1
410666: 1
550280: 1
6220e6: 1
558cce: 1
511c1a: 1
4cce4f: 1
552c80: 1
620b25: 1
4c2586: 1
558d2d: 1
550d5b: 1
47d4b7: 1
558ad6: 1
511a8f: 1
59068b: 1
4cce80: 1
623f65: 1
4ccea2: 1
412417: 2
549fb0: 2
550d03: 2
41241d: 2
55b73b: 2
556f4d: 2
4c8516: 2
550cd8: 2
556e5c: 2
553cac: 2
556e38: 2
558a37: 2
64caa6: 2
41193a: 2
4c79fa: 2
558e48: 2
41077b: 2
558e90: 2
410754: 2
558d88: 2
41066e: 2
558ed3: 2
53f48a: 2
550cbd: 2
556dfe: 2
556dd4: 2
47128d: 2
544d49: 3
549c8f: 3
41d422: 3
63e670: 3
549afd: 3
54976a: 3
67c788: 3
471349: 3
639783: 3
549adf: 3
67c67b: 3
558d23: 3
67c76c: 3
4e0580: 3
49815f: 3
549f7c: 3
5502ec: 3
620ac1: 3
67c33b: 3
501cbe: 4
67c885: 4
620ad3: 4
549c81: 4
67c88c: 4
41631a: 4
549d13: 4
549cd5: 4
54971f: 4
550083: 5
411c7a: 5
411804: 5
63e661: 5
4117fe: 5
550c04: 5
558cf0: 5
55b752: 5
550657: 5
4c8508: 5
4117f3: 5
4714bb: 5
549fa0: 6
54ff9a: 6
62207f: 6
550e48: 6
5012c3: 7
54492b: 7
622591: 7
545247: 8
6222b1: 8
544ce2: 8
55009f: 9
550fab: 10
5498b1: 10
41ccb1: 10
4714b4: 10
47148a: 10
5504e0: 10
558c3d: 11
6223e0: 11
558c2c: 11
55030c: 11
4714a7: 11
5453bb: 13
550bb3: 13
5525b8: 13
4714db: 13
620aff: 14
471483: 14
4ebada: 15
5502ef: 15
5125c3: 16
550f70: 17
4714ac: 17
550d38: 18
4e0578: 19
54eedc: 19
620b09: 19
620ab7: 19
41cc22: 20
5012f6: 20
51a66d: 20
5012bc: 20
43ad21: 20
5012ed: 20
620aa5: 20
620aad: 22
55055b: 22
55241b: 23
4714df: 23
55023a: 23
4c269a: 24
51a684: 24
550af9: 26
55040d: 26
621fc8: 26
49bf82: 27
4ebaeb: 27
550f8e: 28
550406: 29
552758: 36
47ea73: 37
4712b7: 37
47d477: 38
41d238: 40
55063a: 40
47148e: 41
621ec1: 45
623f34: 48
4713dc: 49
4ebae4: 49
47ea6d: 50
629270: 51
62096e: 54
621fdb: 55
550629: 57
41cc4c: 59
53e1b9: 59
550005: 61
55842d: 62
558426: 69
550114: 77
41cc4f: 78
621e1e: 78
41d235: 83
620d89: 85
62257c: 87
62098c: 88
555da8: 88
623f49: 89
550010: 93
621dee: 97
620980: 99
62093b: 103
43b8f6: 104
4c2667: 110
5507d2: 125
552173: 133
41072e: 150
5525f5: 152
4106b3: 168
47d53a: 177
4c2595: 186
555f38: 192
4c26a3: 204
54ff23: 206
62201f: 206
54c958: 212
621ffe: 213
556079: 220
410781: 223
5507b5: 234
5525eb: 235
44416b: 238
47d608: 239
55833c: 244
552252: 249
550965: 255
4712c4: 257
5555ea: 266
621e95: 274
6225da: 277
550853: 281
5525ac: 289
4441d5: 308
550091: 315
4ebf7c: 316
55003d: 323
6225ab: 331
555504: 347
55100a: 368
4441ba: 374
620961: 384
622010: 393
4713b5: 393
620b35: 419
544c9b: 439
555bb1: 473
545190: 488
55218c: 492
6408a3: 510
555bbb: 559
544907: 561
5549c3: 583
55b176: 604
552130: 622
55b745: 629
55b1e5: 669
44512a: 689
55bb22: 695
5125d4: 722
4ebaf4: 769
4ea00b: 769
4712bc: 774
544edb: 777
55214d: 787
544914: 828
4713bc: 834
55b1c0: 846
5583d5: 852
545380: 882
4ea0c7: 971
55bb00: 989
552270: 993
47d3b5: 1008
506f34: 1014
552274: 1014
552182: 1016
54515b: 1030
5524c9: 1030
5524d8: 1030
54490e: 1030
411780: 1030
5525be: 1031
4ea048: 1045
43b438: 1067
4e9fc4: 1069
624580: 1082
55b6fe: 1083
620a3f: 1119
41cc70: 1123
620b3f: 1144
47e5da: 1146
555f8f: 1148
550931: 1171
4ebfa0: 1179
4441ae: 1200
43b43b: 1207
623f20: 1225
623f09: 1241
416e91: 1256
4441c7: 1268
400640: 1283
54fff8: 1289
623f81: 1292
545370: 1304
621435: 1319
63fb0d: 1329
54ff8c: 1357
63e5fa: 1390
621e83: 1419
4713a9: 1471
550075: 1472
549390: 1507
400580: 1520
63e5f6: 1620
4441eb: 1820
47d5c0: 1910
556275: 1970
4713a4: 2020
55b7b0: 2084
444197: 2091
443ff4: 2184
50754a: 2364
41d1f7: 2425
44427d: 2610
55bb37: 2653
471411: 2696
444186: 2732
550144: 2876
411c4a: 2922
545180: 3005
4117af: 3193
416eb9: 3257
5507ee: 3262
411aac: 3347
41055f: 3354
555f7c: 3369
555f2e: 3370
555d9d: 3375
549100: 3388
5555bc: 3401
411afa: 3414
411c3e: 3442
444028: 3452
4ebf44: 3583
54c9b1: 3624
6291bb: 3638
6291b5: 3787
411c5f: 3905
411b0d: 3921
62919a: 3994
6291c1: 4044
55b6eb: 4075
416e8e: 4650
550b49: 4810
549370: 5016
55039d: 5023
445148: 5037
555b54: 5046
550ab2: 5046
550397: 5081
555b1a: 5142
4450fb: 5165
621ea4: 5242
4ebb70: 5487
621e9a: 5529
471398: 6010
4168b0: 6097
4712ab: 6220
44415f: 6585
4105d4: 6723
41053f: 6728
62241f: 8174
47d45d: 8371
47eb9a: 9288
62200b: 9321
554a73: 9524
555f5c: 9871
444216: 10879
444178: 11204
4168cb: 11798
6408a0: 12494
4168b4: 13002
41d1f4: 13098
410737: 13185
555f6d: 13241
4ebe6b: 13275
5507af: 13288
4ebf76: 13298
4ebf40: 13300
5555a4: 13446
41054e: 13549
49c1ec: 14521
433dff: 14645
412730: 15331
62094f: 16045
620a5d: 16261
55bb1e: 16849
55bb33: 18123
507571: 18180
4340f0: 18778
416e84: 19150
433def: 19365
555b34: 20305
41218b: 20305
550a73: 20425
4ea01d: 22246
444020: 23061
55b173: 23340
41191a: 23380
620aeb: 24740
41195a: 27909
622407: 28770
47136d: 29075
4712af: 29297
47d453: 33930
416eb3: 34120
416e72: 35046
416eb6: 35368
471366: 35781
621e17: 36514
41cc78: 37247
4168ba: 40294
5124e1: 41921
471394: 41948
624599: 44216
47e5d4: 47620
416ef9: 51927
41cc81: 56961
4ec000: 60083
471359: 69166
54fe9b: 69537
47135d: 70574
4ea019: 77542
550ff8: 80996
54fefc: 81022
55bb13: 87199
4e9fc1: 88537
5432c8: 89656
47133d: 213414
471351: 260635
47134d: 310703
L1I TOTAL     ACCESS:   36971785  HIT:   36892777  MISS:      79008  HIT %:    99.7863  MISS %:   0.213698   MPKI: 0.39504
L1I Test counter:          0
L1I LOAD      ACCESS:   36971785  HIT:   36892777  MISS:     109513  HIT %:    99.7863  MISS %:   0.213698   MPKI: 0.39504
L1I PREFETCH  REQUESTED:          0  ISSUED:          0  USEFUL:          0  USELESS:          0
L1I USEFUL LOAD PREFETCHES:          0 PREFETCH ISSUED TO LOWER LEVEL:          0  ACCURACY: -nan
L1I TIMELY PREFETCHES:          0 LATE PREFETCHES: 0 DROPPED PREFETCHES: 0
L1I COMMIT LATE PREFETCHES: 0 MISSED OPPORTUNITY: 0 LATE IN PQ: 0 UNCOVERED: 0
L1I COMMIT LATE MSHR PREFETCHES: 0
L1I MPKI TOTAL: 0.547565 MSHR LATE: 0 PQ LATE: 0 COMMIT LATE: 0 MISSED OPPORTUNITY: 0 UNCOVERED: 0
L1I PREFETCHES SAME FILL-ORIGIN LEVEL: 0 DIFFERENT FILL-ORIGIN LEVEL: 0
L1I AVERAGE MISS LATENCY: 28.8634 cycles
L1I AVERAGE MISS LATENCY LOAD: 28.8634 cycles
L1I AVERAGE MISS LATENCY PREFETCH: -nan cycles
L1I AVERAGE MSHR OCCUPANCY: 0.00330428
L1I MSHR FULL: 0
L1I RQ	ACCESS:   57075771	FORWARD:          0	MERGED:   20073482	TO_CACHE:   37002289

556dc0: 1
55bd10: 1
550a40: 1
552ad0: 1
4c7697: 1
55be88: 1
54cad0: 1
558c20: 1
55b280: 1
4e0570: 1
511c80: 1
558ca2: 1
4c8db1: 1
549700: 1
555804: 1
511ce1: 1
558d80: 1
4c74c0: 1
4c7a04: 1
519a46: 1
558cc1: 1
63f7f5: 1
4c7044: 1
507688: 1
4cced6: 1
445101: 1
511c10: 1
4c868c: 1
620a82: 1
54ca83: 1
552703: 1
553cc0: 1
519a30: 1
410748: 1
4c8cd0: 1
629241: 1
498140: 1
552c90: 1
550690: 1
4cd010: 1
545870: 1
55bc90: 1
621ffe: 1
552753: 1
4c8500: 1
4c8923: 1
558c41: 1
558a41: 1
549d41: 1
5504c0: 1
4c8d53: 1
550338: 1
4c8dc1: 1
67cd4f: 1
558dc0: 1
4c7020: 1
411801: 1
558a8b: 1
558ac4: 1
558b0a: 1
501cc2: 1
558b46: 1
4c86c4: 1
4117c0: 1
54975c: 1
55bd50: 1
449d70: 1
4cd041: 1
63e680: 1
558d02: 1
555a70: 1
558ec2: 1
498180: 1
554a73: 1
556067: 1
620e58: 1
544c60: 1
550c0a: 1
443f6c: 1
61d150: 1
550d44: 1
4c8703: 1
590680: 1
680e01: 1
4cce80: 1
4cce40: 1
4c7086: 1
550942: 1
4c2680: 1
4c8740: 1
4c862b: 1
519a81: 1
545242: 1
680de2: 1
622682: 1
5906e0: 1
59071d: 1
4c79c9: 1
4c7a42: 1
550002: 1
4c8d01: 1
511a50: 1
55bbe0: 1
511a84: 1
556d4b: 1
511c40: 1
558d40: 1
553c80: 1
6220c0: 1
6814e2: 1
549d02: 1
5494b0: 1
67cda3: 1
55bf41: 1
558e48: 1
629200: 1
545942: 1
67c748: 1
55bd83: 1
55bdf9: 1
67cd04: 1
556500: 1
54a71e: 1
622042: 1
545902: 1
621100: 1
408910: 1
55bf64: 1
55bf30: 1
501d02: 1
501d8c: 1
55bcc1: 1
501d6e: 1
4ea360: 1
556d8f: 1
55bc01: 1
6210ef: 1
558e89: 1
549870: 2
622620: 2
41244b: 2
41242d: 2
553500: 2
412442: 2
5571c1: 2
443880: 2
557002: 2
54c8c4: 2
556fb0: 2
556fc1: 2
544beb: 2
550341: 2
55bebd: 2
61d900: 2
555ec1: 2
67ccc1: 2
5583d5: 2
556281: 2
549c81: 2
5500c0: 2
54ff84: 2
620b82: 2
54ff6a: 2
5498c3: 2
4ea0c4: 2
68024f: 2
557041: 2
549bc2: 2
412200: 2
551001: 2
549881: 2
558456: 2
54a680: 2
555fc7: 2
67c843: 2
557190: 2
549c70: 2
55bcd0: 2
55bed0: 2
67ce80: 2
4ea0bd: 2
412400: 2
61d881: 2
61d842: 2
68021d: 2
49bf82: 2
67c520: 2
6170c4: 2
61d040: 2
4c2570: 2
67c681: 2
55bec1: 2
411ba0: 2
549cc1: 2
54efe0: 2
412241: 2
443870: 2
556e80: 2
556ec2: 2
61d146: 2
6222c1: 2
55008b: 2
556cc0: 2
556f42: 2
553340: 2
501cb0: 2
548570: 2
556f19: 2
67ca58: 2
556e40: 2
548582: 2
552c80: 2
548301: 2
61ec00: 2
552bd0: 2
68062a: 2
615826: 2
61d807: 2
67c880: 2
54c8a0: 2
4340c1: 2
67c801: 2
61cef0: 3
410543: 3
546960: 3
61ec70: 3
47e5c0: 3
680286: 3
49c0e0: 3
61d0d3: 3
6802fd: 3
556344: 3
68102b: 3
544c81: 3
55ba40: 3
43b442: 3
5507c0: 3
51a843: 3
680f80: 3
51a7f1: 3
61cf00: 3
55bc80: 3
51a802: 3
67c310: 3
41cc10: 3
549fc1: 3
551090: 3
67ceeb: 3
545947: 3
549370: 3
41d410: 3
550c4c: 3
447960: 3
67c5c0: 3
61ec81: 3
549b81: 3
67cf4e: 3
67c544: 3
47ea60: 3
545042: 3
549b03: 3
61d081: 3
67cf86: 3
6157d0: 3
55bc40: 3
550cc3: 3
617100: 3
61d7e0: 3
67c340: 3
5493c0: 3
67c661: 3
67ce6f: 3
550bc0: 3
439c05: 3
471501: 3
549ec9: 3
54ff04: 3
67cc4f: 3
545882: 3
550241: 3
680307: 3
67cc81: 3
6806af: 3
5557ef: 3
64e140: 3
5458c0: 3
681460: 3
680f1c: 3
544e62: 3
5432b0: 3
680f68: 3
67c7c7: 3
54a500: 3
6220ef: 3
552686: 3
411482: 3
63eef0: 3
617080: 3
550201: 3
549a83: 3
411460: 3
549a7b: 3
549ace: 3
54cb10: 3
549b40: 3
55bf00: 3
63ef00: 3
41d441: 3
61d108: 3
55c020: 3
67c280: 3
550ac4: 3
54eec1: 4
54cae0: 4
544ec4: 4
545341: 4
55233a: 4
5592d2: 4
5463e0: 4
4113c4: 4
51a680: 4
546502: 4
4123c0: 4
550505: 4
47e640: 4
549f70: 4
546b30: 4
54a650: 4
544fc0: 4
5592a0: 4
550c80: 4
550ecd: 4
549f00: 4
55c0cc: 4
556302: 4
555f40: 4
622083: 4
549f83: 4
55bb41: 4
55c010: 4
558342: 5
416300: 5
546b50: 5
5453c6: 5
621183: 5
4ec000: 5
546ad0: 5
559340: 5
63e640: 5
621175: 5
559300: 5
546b90: 5
416f03: 5
63f5c0: 5
558320: 5
55bac3: 5
620b35: 6
49bfab: 6
545080: 6
54531d: 6
55bf60: 6
4ebb8b: 6
550e40: 7
552603: 7
546607: 7
55bf83: 7
551144: 7
622641: 7
4ea002: 7
55010d: 7
553440: 7
550b40: 7
63faf0: 7
554ab7: 7
55beb5: 7
6223dc: 7
47ea80: 8
49bf40: 8
550eb0: 8
54eeb0: 8
5505f1: 9
5505ce: 9
55be45: 9
433f40: 9
51a630: 9
555b45: 9
412640: 9
550608: 9
410641: 10
55bad3: 10
55baa0: 10
550b86: 10
555b80: 10
6292d0: 10
4ebf40: 11
5465c0: 11
507650: 11
4c2660: 11
4e0580: 11
641120: 11
545283: 11
55b187: 12
552282: 12
680599: 13
549100: 13
554a84: 13
67c585: 13
5502c1: 13
5522cd: 14
620ae0: 14
559488: 14
5012c3: 14
49c100: 14
4ebf82: 14
54510b: 15
55bba0: 15
544f9e: 15
55bb46: 15
5465b0: 15
545000: 15
434103: 15
546401: 15
544f08: 15
555f83: 15
501300: 15
546640: 15
549490: 16
41d490: 16
629304: 16
6225c0: 17
63f5b0: 17
62228f: 18
550542: 18
471481: 18
47eac0: 18
54ab40: 18
629282: 18
550f40: 19
55044a: 19
550280: 19
5504bd: 19
544b81: 19
550f84: 19
54aa80: 19
54ef00: 19
62257c: 19
544b74: 19
550f03: 19
51a641: 20
555a84: 20
550583: 20
550a80: 20
550400: 20
64e1d0: 20
501280: 20
443f82: 21
555540: 21
4ebb63: 21
623f00: 21
412110: 22
5555c3: 22
552470: 23
5525c4: 23
621f84: 26
621f42: 26
550591: 28
552120: 28
55067b: 30
621440: 38
55b1c0: 38
550027: 39
559440: 39
622190: 40
55564d: 42
43b430: 46
543401: 46
64e1e0: 46
53f480: 59
545190: 63
5511ce: 81
548440: 114
622581: 120
47d480: 129
4441a6: 153
49c1c2: 158
62241f: 175
64cac3: 210
411ac2: 213
64cb03: 290
411b01: 292
5524a0: 346
558441: 347
552440: 348
444180: 360
552482: 368
54547e: 370
555f06: 388
443f00: 438
629184: 463
412180: 511
47d430: 542
550b25: 646
555b04: 651
5521c1: 660
622407: 676
55bb00: 676
4ebb04: 685
545180: 698
552411: 707
552598: 725
552182: 739
555400: 740
5451c1: 750
554ac0: 766
555afa: 767
552142: 770
55214a: 775
556495: 778
621435: 781
544acf: 792
4ebac0: 793
545481: 812
555f27: 815
55548c: 818
6291c1: 837
629170: 840
558405: 861
5501c2: 882
5555a4: 885
545140: 900
64e150: 904
444004: 913
4441c1: 935
621f26: 981
55115d: 988
507581: 1020
49c1b0: 1064
53f5b0: 1066
506f20: 1132
445142: 1140
55b160: 1174
4ebf30: 1174
550191: 1179
433f36: 1180
548420: 1195
556420: 1235
556027: 1418
549030: 1418
54f002: 1420
622002: 1423
47e5a0: 1674
445148: 2128
47d596: 2291
64e160: 2320
624580: 2395
444140: 2489
410598: 2752
4c2586: 2780
400580: 2788
550140: 2948
BTB TOTAL     ACCESS:   32188164  HIT:   30296058  MISS:    1892106  HIT %:    94.1217  MISS %:    5.87827   MPKI: 9.46053
BTB Test counter:          0
BTB BRANCH_DIRECT_JUMP	ACCESS:    2276304  HIT:    2276179  MISS:        125
BTB BRANCH_INDIRECT	ACCESS:     671328  HIT:     585871  MISS:      85457
BTB BRANCH_CONDITIONAL	ACCESS:   17350102  HIT:   17349618  MISS:        484
BTB BRANCH_DIRECT_CALL	ACCESS:    3559126  HIT:    3558870  MISS:        256
BTB BRANCH_INDIRECT_CALL	ACCESS:    2386088  HIT:    2378106  MISS:       7982
BTB BRANCH_RETURN	ACCESS:    5945216  HIT:    4147414  MISS:    1797802
BTB BRANCH_OTHER ACCESS:          0  HIT:          0  MISS:          0

L2C TOTAL     ACCESS:    8407673  HIT:    4538871  MISS:    3868802  HIT %:    53.9849  MISS %:    46.0151   MPKI: 19.344
L2C Test counter:          0
L2C LOAD      ACCESS:    3230162  HIT:    1402039  MISS:    1828123  HIT %:    43.4046  MISS %:    56.5954   MPKI: 9.14062
L2C DATA LOAD MPKI: 9.05927
L2C INSTRUCTION LOAD MPKI: 0.081345
L2C RFO       ACCESS:     491018  HIT:     145970  MISS:     345048  HIT %:     29.728  MISS %:     70.272   MPKI: 1.72524
L2C PREFETCH  ACCESS:    1673319  HIT:     475388  MISS:    1197931  HIT %:    28.4099  MISS %:    71.5901   MPKI: 5.98965
L2C DATA PREFETCH MPKI: 5.98965
L2C INSTRUCTION PREFETCH MPKI: 0
L2C WRITEBACK ACCESS:    1803426  HIT:    1800260  MISS:       3166  HIT %:    99.8244  MISS %:   0.175555   MPKI: 0.01583
L2C LOAD TRANSLATION ACCESS:    1209748  HIT:     715214  MISS:     494534  HIT %:    59.1209  MISS %:    40.8791   MPKI: 2.47267
L2C PREFETCH  REQUESTED:    2265300  ISSUED:    2265300  USEFUL:     490942  USELESS:     706951
L2C USEFUL LOAD PREFETCHES:     490942 PREFETCH ISSUED TO LOWER LEVEL:    1574105  ACCURACY: 31.1886
L2C TIMELY PREFETCHES:     490942 LATE PREFETCHES: 66472 DROPPED PREFETCHES: 0
L2C COMMIT LATE PREFETCHES: 0 MISSED OPPORTUNITY: 0 LATE IN PQ: 0 UNCOVERED: 0
L2C COMMIT LATE MSHR PREFETCHES: 0
L2C MPKI TOTAL: 9.14062 MSHR LATE: 0.33236 PQ LATE: 0 COMMIT LATE: 0 MISSED OPPORTUNITY: 0 UNCOVERED: 0
L2C PREFETCHES SAME FILL-ORIGIN LEVEL: 1264407 DIFFERENT FILL-ORIGIN LEVEL: 309698
L2C AVERAGE MISS LATENCY: 143.563 cycles
L2C AVERAGE MISS LATENCY LOAD: 148.434 cycles
L2C AVERAGE MISS LATENCY PREFETCH: 164.553 cycles
L2C AVERAGE MSHR OCCUPANCY: 0.540405
L2C MSHR FULL: 0
L2C RQ	ACCESS:    4930982	FORWARD:          0	MERGED:          0	TO_CACHE:    4930928
L2C WQ	ACCESS:    1803426	FORWARD:         57	MERGED:          0	TO_CACHE:    1803426
L2C PQ	ACCESS:    2265300	FORWARD:          0	MERGED:       5795	TO_CACHE:    2259502

L2C Instructions Evicting Data 13496
L2C Translations Evicting Data 427280
L2C Data Evicting Data 2914507
L2C Instructions Evicting Instructions 1380
L2C Translations Evicting Instructions 1577
L2C Data Evicting Instructions 13315
L2C Instructions Evicting Translations 1393
L2C Translations Evicting Translations 65677
L2C Data Evicting Translations 427011
L2C Dense regions hint from L2: 0
4c86c4: 1
4c8516: 1
4c74d9: 1
4c703e: 1
445101: 1
498180: 1
558cce: 1
4e0583: 1
47ea6d: 1
550002: 1
4c8cd0: 1
558cc1: 1
552ad0: 1
558dc0: 1
4c868c: 1
550bba: 1
4cce59: 1
558d80: 1
550d44: 1
4c7697: 1
61d150: 1
545870: 1
54a71e: 1
558c20: 1
47148e: 1
63f7f5: 1
550e48: 1
4c7044: 1
4714db: 1
4c8d53: 1
622042: 1
4c8d01: 1
4c79c9: 1
558456: 1
4c8923: 1
55be88: 1
59071d: 1
590696: 1
4c8703: 1
501d02: 1
47d4b7: 1
5504c0: 1
558e89: 1
59068b: 1
519a81: 1
4c8740: 1
555804: 1
6814e2: 1
519a46: 1
519a30: 1
4ccea2: 1
4cce40: 1
55bc90: 1
498140: 1
680e01: 1
5906e0: 1
47ea73: 1
501d6e: 1
558c41: 1
4cd041: 1
501d8c: 1
55b280: 1
4c8500: 1
4c7a42: 1
5494b0: 1
680e22: 1
511ce1: 1
511a84: 1
558a8b: 1
552753: 1
4117c0: 1
558e48: 1
4cced6: 1
4c74c0: 1
4e0570: 1
558ec2: 1
54975c: 1
4c8dc1: 1
4c8db1: 1
558d53: 1
55bf64: 1
449d70: 1
410748: 1
590680: 1
550c0a: 1
511c40: 1
55bbe0: 1
552703: 1
549d02: 1
4c2680: 1
549774: 1
55bd83: 1
549adf: 1
4c862b: 1
545242: 1
629241: 1
680de2: 1
443f6c: 1
552c90: 1
4cd010: 1
55023a: 1
55bf30: 1
4cce4f: 1
555a70: 1
55bdf9: 1
4c8937: 1
4ea360: 1
54492b: 1
4c7a04: 1
544c60: 1
550a40: 1
620e58: 1
556067: 1
550083: 1
550338: 1
545942: 1
550690: 1
67cda3: 1
67cd4f: 1
67cd04: 1
41d437: 1
54cad0: 1
67c748: 1
556e5c: 1
55bd50: 1
411801: 1
551144: 1
545902: 1
622682: 1
623f65: 1
620a82: 1
5525ac: 1
4c2595: 1
4ebada: 1
550942: 1
556dfe: 1
498169: 1
54ca83: 1
507688: 1
6220e6: 1
6220c0: 1
408910: 1
558e90: 1
558a37: 1
558a41: 1
553cc0: 1
553c80: 1
629200: 1
556500: 1
558d2d: 1
621100: 1
556dc0: 1
556d8f: 1
556d4b: 1
549d41: 1
55bd10: 1
549d13: 1
55bc01: 1
558d40: 1
55bcc1: 1
550bb3: 1
558ca2: 1
511c1a: 1
498162: 1
511c80: 1
558d02: 1
549b73: 1
511a8f: 1
4c7067: 1
4c7086: 1
6210ef: 1
549700: 1
4e057c: 1
511a50: 1
558cf0: 1
4c7020: 1
558b46: 1
558ad6: 1
558b0a: 1
558ac4: 1
55bf41: 1
501cc2: 1
63e680: 1
511c10: 1
550f70: 2
61d881: 2
556f42: 2
556e40: 2
553340: 2
53f48a: 2
61d807: 2
556f4d: 2
555504: 2
549cc1: 2
556fc1: 2
41066e: 2
544beb: 2
556fb0: 2
44416b: 2
4c2570: 2
55bec1: 2
556f19: 2
4c79fa: 2
556cc0: 2
54ff84: 2
557002: 2
544907: 2
412400: 2
41d422: 2
548301: 2
67ce80: 2
55008b: 2
6222c1: 2
549870: 2
68021d: 2
41242d: 2
4ea0bd: 2
549bc2: 2
4cce80: 2
61d146: 2
5571c1: 2
54c8a0: 2
557190: 2
615826: 2
61d900: 2
4714bb: 2
620b82: 2
55bebd: 2
557041: 2
55030c: 2
550cbd: 2
67ca58: 2
47128d: 2
550f8e: 2
443870: 2
64caa6: 2
67c520: 2
4340c1: 2
54efe0: 2
555ec1: 2
67c801: 2
556dd4: 2
556281: 2
5500c0: 2
412241: 2
443880: 2
54c8c4: 2
5498c3: 2
549881: 2
67c843: 2
412442: 2
501cb0: 2
553500: 2
548582: 2
67ccc1: 2
67c880: 2
552bd0: 2
553cac: 2
68062a: 2
556e80: 2
556ec2: 2
68024f: 2
61ec00: 2
61d842: 2
6170c4: 2
412200: 2
549c70: 2
622620: 2
551001: 2
54ff6a: 2
411ba0: 2
55bcd0: 2
410754: 2
5502ec: 2
558ed3: 2
41244b: 2
549c8f: 2
41241d: 2
412417: 2
55bed0: 2
41077b: 2
54a680: 2
549fb0: 2
67c681: 2
61d040: 2
47148a: 2
550341: 2
4ea0c4: 2
548570: 2
555fc7: 2
621ffe: 2
67c661: 3
67cc81: 3
67cf86: 3
5557ef: 3
67c788: 3
67c7c7: 3
49815f: 3
5507c0: 3
550241: 3
6802fd: 3
51a802: 3
545947: 3
55bc40: 3
620ac1: 3
61cf00: 3
55c020: 3
4714df: 3
546960: 3
550c4c: 3
410781: 3
51a7f1: 3
550cc3: 3
61ec81: 3
61d7e0: 3
6157d0: 3
549b40: 3
67cc4f: 3
411460: 3
550ac4: 3
544c81: 3
471501: 3
61ec70: 3
680f68: 3
55bc80: 3
549ace: 3
67c544: 3
67c310: 3
680599: 3
43b442: 3
549b81: 3
67ce6f: 3
680f1c: 3
67ceeb: 3
6806af: 3
5458c0: 3
681460: 3
51a843: 3
67c33b: 3
67c280: 3
68102b: 3
680f80: 3
67cf4e: 3
552686: 3
545882: 3
67c76c: 3
61d0d3: 3
61d081: 3
67c885: 3
67c5c0: 3
639783: 3
67c585: 3
4714a7: 3
680286: 3
549fc1: 3
411482: 3
67c340: 3
549a83: 3
61cef0: 3
54cb10: 3
549b03: 3
63ef00: 3
617080: 3
41d441: 3
54ff04: 3
49c0e0: 3
549a7b: 3
5432b0: 3
544e62: 3
410543: 3
67c67b: 3
41d410: 3
63eef0: 3
67c88c: 3
4714b4: 3
47e5c0: 3
549afd: 3
680307: 3
550bc0: 3
54ff9a: 3
439c05: 3
6220ef: 3
61d108: 3
5493c0: 3
41cc10: 3
54a500: 3
447960: 3
551090: 3
549ec9: 3
55bf00: 3
545042: 3
552c80: 3
63e670: 3
47ea60: 3
55ba40: 3
556344: 3
550201: 3
617100: 3
54976a: 3
544ec4: 4
5463e0: 4
4714ac: 4
54eec1: 4
544fc0: 4
546502: 4
55bb41: 4
550505: 4
51a680: 4
4113c4: 4
55c010: 4
622591: 4
622083: 4
545341: 4
54971f: 4
549c81: 4
55233a: 4
550d38: 4
54cae0: 4
549f83: 4
549f70: 4
47e640: 4
54a650: 4
4123c0: 4
546b30: 4
549f00: 4
5592d2: 4
558c3d: 4
550c80: 4
549cd5: 4
4e0580: 4
550ecd: 4
5498b1: 4
620ad3: 4
556302: 4
5592a0: 4
555f40: 4
4c8508: 4
55c0cc: 4
416f03: 5
5453c6: 5
558426: 5
546b90: 5
63e640: 5
411c7a: 5
546b50: 5
63f5c0: 5
63f5b0: 5
546ad0: 5
6222b1: 5
558342: 5
558320: 5
55b752: 5
559340: 5
621175: 5
4117f3: 5
416300: 5
559300: 5
411804: 5
63e661: 5
621183: 5
55bac3: 5
4ebb8b: 5
62207f: 6
6223e0: 6
545080: 6
49bfab: 6
549fa0: 6
622641: 6
55bf60: 6
54531d: 6
55010d: 7
554ab7: 7
63faf0: 7
553440: 7
552603: 7
55beb5: 7
5505f1: 7
546607: 7
4ea002: 7
550e40: 7
55bf83: 7
550b40: 7
4ebaeb: 7
6223dc: 7
550eb0: 8
49bf40: 8
5505ce: 8
47ea80: 8
433f40: 8
54eeb0: 8
55be45: 9
412640: 9
555b45: 9
550608: 9
51a630: 9
55bad3: 10
550b86: 10
64e1d0: 10
4c269a: 10
410641: 10
555b80: 10
55baa0: 10
64e150: 10
6292d0: 10
5465c0: 11
445142: 11
641120: 11
545283: 11
4c2660: 11
558c2c: 11
550144: 11
507650: 11
552282: 12
5453bb: 12
55b187: 12
552470: 12
620aff: 13
55bb46: 13
559488: 13
554a84: 13
5502c1: 13
4ebf82: 14
4ebfa0: 14
41cc22: 14
5012c3: 14
49c100: 14
5522cd: 14
620ae0: 14
620b09: 14
434103: 14
544f08: 15
620b35: 15
41d490: 15
546640: 15
545000: 15
546401: 15
555f83: 15
55bba0: 15
544f9e: 15
5465b0: 15
621e95: 15
501300: 15
54510b: 15
54eedc: 15
550010: 15
620b3f: 16
4e0578: 16
44415f: 16
549490: 16
629304: 16
549390: 16
54ab40: 17
550005: 17
550542: 17
5504bd: 17
6225c0: 17
5012bc: 17
471481: 17
47eac0: 17
4ebb63: 18
629282: 18
550f40: 18
550f03: 18
544b81: 18
550f84: 18
544b74: 18
550a80: 18
550280: 18
550400: 18
54ef00: 18
54aa80: 18
62228f: 18
501280: 19
550114: 19
5012ed: 19
550591: 19
55833c: 19
55044a: 19
4712c4: 19
55842d: 19
620ab7: 19
51a66d: 19
51a641: 19
623f00: 20
555a84: 20
555540: 20
412110: 20
5012f6: 20
620aa5: 20
49bf82: 20
43ad21: 20
5507b5: 20
4c2586: 21
443f82: 21
5525c4: 21
51a684: 21
620aad: 21
621fc8: 21
55241b: 22
5555c3: 22
4ebae4: 24
621f84: 25
621f42: 25
55067b: 26
47d477: 27
622581: 27
622190: 27
4712b7: 27
552130: 28
552120: 28
6408a3: 29
64e1e0: 29
622010: 33
4ebf7c: 33
4ebaf4: 33
55b745: 34
621ec1: 35
555da8: 35
550027: 36
55564d: 36
621fdb: 38
559440: 38
621440: 38
556275: 39
556079: 40
629270: 41
43b430: 41
47d53a: 42
62096e: 42
623f34: 42
543401: 43
64e160: 43
54c958: 45
555f06: 45
550075: 46
555bbb: 48
53f480: 50
54ff8c: 52
41cc4c: 56
444186: 56
47d5c0: 57
53e1b9: 58
549030: 59
410598: 60
621e83: 60
621e1e: 61
54f002: 63
5525f5: 64
41072e: 65
55214d: 66
41cc4f: 66
400580: 67
550853: 67
620980: 67
555f8f: 68
400640: 68
5511ce: 69
4c2667: 69
5507d2: 69
544c9b: 71
556027: 71
620d89: 72
550091: 72
444004: 74
556420: 75
622002: 75
62093b: 75
621dee: 75
47d3b5: 76
62257c: 80
4441a6: 80
43b8f6: 81
62201f: 84
54fff8: 84
552482: 85
5525eb: 86
555f38: 89
47d596: 91
55b6fe: 92
416e91: 94
548440: 98
50754a: 98
4712bc: 99
555f27: 99
4ea048: 100
55b7b0: 100
620961: 101
54515b: 102
63fb0d: 102
623f20: 102
47d480: 103
47d608: 105
63e5fa: 117
506f34: 118
4e9fc4: 118
545481: 119
43b43b: 122
620a3f: 122
5524a0: 124
411afa: 124
550965: 124
548420: 125
552142: 129
47e5da: 130
4713b5: 131
411aac: 134
433f36: 136
621f26: 137
49c1c2: 137
55115d: 139
5549c3: 139
54ff23: 140
43b438: 142
4ebac0: 144
55003d: 144
4ebf30: 144
64cac3: 145
55100a: 146
555bb1: 146
411ac2: 147
623f09: 154
506f20: 154
556495: 157
4ea0c7: 159
47e5a0: 162
552411: 165
545140: 166
552598: 167
4441ba: 167
444197: 169
41cc70: 169
49c1b0: 175
55b176: 175
4117af: 178
544914: 178
64cb03: 179
53f5b0: 180
411b01: 184
552252: 186
443f00: 187
624580: 190
55548c: 192
54547e: 196
550191: 196
55b1c0: 198
558405: 198
555400: 200
444140: 202
55214a: 203
444180: 206
5583d5: 208
552440: 212
412180: 215
558441: 216
555afa: 217
555b04: 219
6225ab: 220
444178: 238
55b1e5: 239
621435: 247
5451c1: 254
47d430: 257
4441d5: 257
4713bc: 260
6225da: 264
4ebb04: 270
63e5f6: 271
507581: 282
41d1f7: 283
550140: 285
444216: 287
550b25: 288
443ff4: 295
416eb9: 298
629184: 299
4441eb: 305
5521c1: 326
544acf: 327
555d9d: 328
4441c1: 331
550b49: 334
554ac0: 338
5501c2: 342
554a73: 345
4ea00b: 353
55b6eb: 372
5555bc: 373
5507ee: 402
55218c: 402
55b160: 405
629170: 433
62919a: 463
4713a9: 465
545190: 506
555f2e: 523
44512a: 533
550931: 536
444028: 550
5125d4: 581
549370: 593
549100: 642
54490e: 667
411c3e: 680
55bb22: 689
544edb: 711
471411: 724
54c9b1: 728
4713a4: 735
410737: 760
4441ae: 819
555f7c: 824
5525be: 833
545380: 881
552274: 984
552270: 992
5524d8: 1016
623f81: 1028
5524c9: 1030
411780: 1030
4441c7: 1047
4712ab: 1049
552182: 1252
55bb00: 1272
545370: 1295
620a5d: 1473
55039d: 1499
4450fb: 1565
4105d4: 1568
471398: 1766
550ab2: 2059
41191a: 2153
41055f: 2208
550397: 2220
55bb37: 2433
555f5c: 2493
44427d: 2522
411c4a: 2571
62241f: 2633
6291b5: 3114
545180: 3189
416e8e: 3232
445148: 3266
411b0d: 3289
6291bb: 3498
4ebf44: 3575
411c5f: 3588
555b54: 3968
4168b0: 4181
6291c1: 4215
555b1a: 4253
41053f: 4398
621e9a: 4692
5555a4: 4928
621ea4: 5057
47d45d: 5243
4ebb70: 5472
47eb9a: 5823
62200b: 7359
47136d: 7784
6408a0: 8393
41d1f4: 8611
507571: 8784
4ebe6b: 8953
550a73: 9357
4712af: 9384
41054e: 10076
471366: 10102
4168cb: 10471
5507af: 10654
4168b4: 11088
621e17: 11588
555f6d: 11614
620aeb: 11740
4ec000: 11757
49c1ec: 11968
433dff: 12415
555b34: 12484
412730: 12541
4ebf40: 13290
4ebf76: 13292
62094f: 13534
41195a: 14376
4ea01d: 14720
41cc78: 14880
416e84: 15374
55bb1e: 16628
444020: 16721
5124e1: 17052
55bb33: 17490
4340f0: 17869
433def: 18185
41218b: 19764
55b173: 20321
4e9fc1: 20367
47d453: 21839
416eb6: 22014
4168ba: 25677
622407: 26270
471394: 27143
471359: 28796
47135d: 29048
416eb3: 31043
416e72: 32738
54fe9b: 34075
47e5d4: 35494
624599: 38032
41cc81: 40011
550ff8: 47938
416ef9: 49864
4ea019: 52230
54fefc: 55572
5432c8: 80833
55bb13: 86715
47133d: 97249
471351: 145799
47134d: 174463
PSCL5 TOTAL     ACCESS:     855380  HIT:     855380  MISS:          0  HIT %:        100  MISS %:          0   MPKI: 0
PSCL5 Test counter:          0
PSCL5 LOAD TRANSLATION ACCESS:     855380  HIT:     855380  MISS:          0  HIT %:        100  MISS %:          0   MPKI: 0
PSCL5 PREFETCH  REQUESTED:          0  ISSUED:          0  USEFUL:          0  USELESS:          0
PSCL5 USEFUL LOAD PREFETCHES:          0 PREFETCH ISSUED TO LOWER LEVEL:          0  ACCURACY: -nan
PSCL5 TIMELY PREFETCHES:          0 LATE PREFETCHES: 0 DROPPED PREFETCHES: 0
PSCL5 COMMIT LATE PREFETCHES: 0 MISSED OPPORTUNITY: 0 LATE IN PQ: 0 UNCOVERED: 0
PSCL5 COMMIT LATE MSHR PREFETCHES: 0
PSCL5 MPKI TOTAL: 0 MSHR LATE: 0 PQ LATE: 0 COMMIT LATE: 0 MISSED OPPORTUNITY: 0 UNCOVERED: 0
PSCL5 PREFETCHES SAME FILL-ORIGIN LEVEL: 0 DIFFERENT FILL-ORIGIN LEVEL: 0

PSCL4 TOTAL     ACCESS:     855380  HIT:     855380  MISS:          0  HIT %:        100  MISS %:          0   MPKI: 0
PSCL4 Test counter:          0
PSCL4 LOAD TRANSLATION ACCESS:     855380  HIT:     855380  MISS:          0  HIT %:        100  MISS %:          0   MPKI: 0
PSCL4 PREFETCH  REQUESTED:          0  ISSUED:          0  USEFUL:          0  USELESS:          0
PSCL4 USEFUL LOAD PREFETCHES:          0 PREFETCH ISSUED TO LOWER LEVEL:          0  ACCURACY: -nan
PSCL4 TIMELY PREFETCHES:          0 LATE PREFETCHES: 0 DROPPED PREFETCHES: 0
PSCL4 COMMIT LATE PREFETCHES: 0 MISSED OPPORTUNITY: 0 LATE IN PQ: 0 UNCOVERED: 0
PSCL4 COMMIT LATE MSHR PREFETCHES: 0
PSCL4 MPKI TOTAL: 0 MSHR LATE: 0 PQ LATE: 0 COMMIT LATE: 0 MISSED OPPORTUNITY: 0 UNCOVERED: 0
PSCL4 PREFETCHES SAME FILL-ORIGIN LEVEL: 0 DIFFERENT FILL-ORIGIN LEVEL: 0

PSCL3 TOTAL     ACCESS:     855380  HIT:     855380  MISS:          0  HIT %:        100  MISS %:          0   MPKI: 0
PSCL3 Test counter:          0
PSCL3 LOAD TRANSLATION ACCESS:     855380  HIT:     855380  MISS:          0  HIT %:        100  MISS %:          0   MPKI: 0
PSCL3 PREFETCH  REQUESTED:          0  ISSUED:          0  USEFUL:          0  USELESS:          0
PSCL3 USEFUL LOAD PREFETCHES:          0 PREFETCH ISSUED TO LOWER LEVEL:          0  ACCURACY: -nan
PSCL3 TIMELY PREFETCHES:          0 LATE PREFETCHES: 0 DROPPED PREFETCHES: 0
PSCL3 COMMIT LATE PREFETCHES: 0 MISSED OPPORTUNITY: 0 LATE IN PQ: 0 UNCOVERED: 0
PSCL3 COMMIT LATE MSHR PREFETCHES: 0
PSCL3 MPKI TOTAL: 0 MSHR LATE: 0 PQ LATE: 0 COMMIT LATE: 0 MISSED OPPORTUNITY: 0 UNCOVERED: 0
PSCL3 PREFETCHES SAME FILL-ORIGIN LEVEL: 0 DIFFERENT FILL-ORIGIN LEVEL: 0

PSCL2 TOTAL     ACCESS:     855380  HIT:     501012  MISS:     354368  HIT %:    58.5719  MISS %:    41.4281   MPKI: 1.77184
PSCL2 Test counter:          0
PSCL2 LOAD TRANSLATION ACCESS:     855380  HIT:     501012  MISS:     354368  HIT %:    58.5719  MISS %:    41.4281   MPKI: 1.77184
PSCL2 PREFETCH  REQUESTED:          0  ISSUED:          0  USEFUL:          0  USELESS:          0
PSCL2 USEFUL LOAD PREFETCHES:          0 PREFETCH ISSUED TO LOWER LEVEL:          0  ACCURACY: -nan
PSCL2 TIMELY PREFETCHES:          0 LATE PREFETCHES: 0 DROPPED PREFETCHES: 0
PSCL2 COMMIT LATE PREFETCHES: 0 MISSED OPPORTUNITY: 0 LATE IN PQ: 0 UNCOVERED: 0
PSCL2 COMMIT LATE MSHR PREFETCHES: 0
PSCL2 MPKI TOTAL: 0 MSHR LATE: 0 PQ LATE: 0 COMMIT LATE: 0 MISSED OPPORTUNITY: 0 UNCOVERED: 0
PSCL2 PREFETCHES SAME FILL-ORIGIN LEVEL: 0 DIFFERENT FILL-ORIGIN LEVEL: 0

LLC TOTAL     ACCESS:    5501617  HIT:    2580005  MISS:    2921612  HIT %:    46.8954  MISS %:    53.1046   MPKI: 14.6081
LLC Test counter:          0
LLC LOAD      ACCESS:    1762844  HIT:     507590  MISS:    1255254  HIT %:    28.7938  MISS %:    71.2062   MPKI: 6.27627
LLC RFO       ACCESS:     343853  HIT:     173140  MISS:     170713  HIT %:    50.3529  MISS %:    49.6471   MPKI: 0.853565
LLC PREFETCH  ACCESS:    1569995  HIT:     269035  MISS:    1300960  HIT %:     17.136  MISS %:     82.864   MPKI: 6.5048
LLC WRITEBACK ACCESS:    1330391  HIT:    1324219  MISS:       6172  HIT %:    99.5361  MISS %:   0.463924   MPKI: 0.03086
LLC LOAD TRANSLATION ACCESS:     494534  HIT:     306021  MISS:     188513  HIT %:    61.8807  MISS %:    38.1193   MPKI: 0.942565
LLC PREFETCH  REQUESTED:          0  ISSUED:          0  USEFUL:     115783  USELESS:    1185499
LLC USEFUL LOAD PREFETCHES:     115783 PREFETCH ISSUED TO LOWER LEVEL:    1302881  ACCURACY: 8.88669
LLC TIMELY PREFETCHES:     115783 LATE PREFETCHES: 1917 DROPPED PREFETCHES: 0
LLC COMMIT LATE PREFETCHES: 0 MISSED OPPORTUNITY: 0 LATE IN PQ: 0 UNCOVERED: 0
LLC COMMIT LATE MSHR PREFETCHES: 0
LLC MPKI TOTAL: 6.27627 MSHR LATE: 0.009585 PQ LATE: 0 COMMIT LATE: 0 MISSED OPPORTUNITY: 0 UNCOVERED: 0
LLC PREFETCHES SAME FILL-ORIGIN LEVEL: 255655 DIFFERENT FILL-ORIGIN LEVEL: 0
LLC AVERAGE MISS LATENCY: 165.6 cycles
LLC AVERAGE MISS LATENCY LOAD: 166.238 cycles
LLC AVERAGE MISS LATENCY PREFETCH: 164.057 cycles
LLC AVERAGE MSHR OCCUPANCY: 0.487802
LLC MSHR FULL: 0
LLC RQ	ACCESS:    2601233	FORWARD:          0	MERGED:          0	TO_CACHE:    2601231
LLC WQ	ACCESS:    1330391	FORWARD:          3	MERGED:          0	TO_CACHE:    1330391
LLC PQ	ACCESS:    1574105	FORWARD:          0	MERGED:        387	TO_CACHE:    1573717

LLC Dense regions hint to LLC: 0
55b280: 1
4c7a42: 1
511ce1: 1
590680: 1
54975c: 1
498140: 1
680e01: 1
558ec2: 1
550c0a: 1
511a84: 1
55bbe0: 1
549774: 1
4c8db1: 1
4c868c: 1
501d02: 1
410748: 1
4cce4f: 1
4cce59: 1
4c703e: 1
555804: 1
519a46: 1
519a30: 1
4ccea2: 1
4cce40: 1
558dc0: 1
4c8516: 1
4c74c0: 1
553cac: 1
445101: 1
498180: 1
558cce: 1
4e0583: 1
544907: 1
4c8cd0: 1
558cc1: 1
552ad0: 1
558c20: 1
680de2: 1
4cd010: 1
5906e0: 1
501d8c: 1
558c41: 1
4c86c4: 1
550bb3: 1
55bf30: 1
545242: 1
545870: 1
558d80: 1
412400: 1
629241: 1
511c40: 1
63f7f5: 1
558a8b: 1
54a71e: 1
552753: 1
4cd041: 1
5494b0: 1
550d44: 1
4c7697: 1
61d150: 1
4c862b: 1
4c2680: 1
55bc90: 1
4c8740: 1
552c90: 1
558e48: 1
4c8500: 1
550d38: 1
4cced6: 1
449d70: 1
549d02: 1
55be88: 1
620e58: 1
556067: 1
501d6e: 1
550338: 1
555a70: 1
550690: 1
4c74d9: 1
41d437: 1
550a40: 1
54cad0: 1
556e5c: 1
55bd50: 1
411801: 1
558ca2: 1
549700: 1
4e057c: 1
4712b7: 1
54ca83: 1
6210ef: 1
4117c0: 1
55bc01: 1
511c1a: 1
545902: 1
623f65: 1
620a82: 1
498169: 1
558cf0: 1
55bd83: 1
55bdf9: 1
4c8937: 1
4e0570: 1
47d4b7: 1
552703: 1
4c7a04: 1
544c60: 1
4c79c9: 1
511c10: 1
511a50: 1
507688: 1
4c7044: 1
4c8dc1: 1
4c8d53: 1
622042: 1
4c8d01: 1
511c80: 1
4c8923: 1
59071d: 1
590696: 1
4c8703: 1
5504c0: 1
558e89: 1
59068b: 1
519a81: 1
558d40: 1
4c7020: 1
558b46: 1
558ad6: 1
558b0a: 1
558ac4: 1
55bf41: 1
63e680: 1
558d53: 1
443f6c: 1
558d2d: 1
498162: 1
558d02: 1
549b73: 1
4c7067: 1
4c7086: 1
511a8f: 1
55bd10: 1
680e22: 1
629200: 1
621ffe: 1
621100: 1
5525ac: 1
55bf64: 1
408910: 1
550942: 1
556dfe: 1
6814e2: 1
558a41: 1
501cc2: 1
412417: 1
55bcc1: 1
41241d: 1
6220c0: 1
6220e6: 1
4441a6: 1
556500: 1
545942: 1
4ea360: 1
556dc0: 1
558a37: 1
67cd04: 1
67cd4f: 1
549d41: 1
622682: 1
549d13: 1
67c748: 1
67cda3: 1
558ed3: 1
556d4b: 1
556d8f: 1
553cc0: 1
552470: 1
6223e0: 1
553c80: 1
4ea0c4: 2
548301: 2
61d900: 2
555fc7: 2
548582: 2
55bed0: 2
61d146: 2
557002: 2
556dd4: 2
4cce80: 2
548570: 2
501cb0: 2
443870: 2
41d422: 2
41244b: 2
4714a7: 2
556cc0: 2
67ce80: 2
41066e: 2
54c8c4: 2
61ec00: 2
5498c3: 2
549881: 2
67c520: 2
557041: 2
553500: 2
67ccc1: 2
412200: 2
67ca58: 2
6222b1: 2
68062a: 2
61d040: 2
67c681: 2
68024f: 2
4c79fa: 2
67c880: 2
67c801: 2
5571c1: 2
550341: 2
552bd0: 2
4340c1: 2
54efe0: 2
555ec1: 2
41cc22: 2
67c843: 2
556281: 2
556e80: 2
552c80: 2
54c8a0: 2
556ec2: 2
5500c0: 2
412241: 2
556f4d: 2
61d842: 2
6170c4: 2
443880: 2
615826: 2
4ea0bd: 2
556f19: 2
54ff84: 2
54a680: 2
41077b: 2
549c70: 2
549870: 2
55bcd0: 2
622620: 2
549cc1: 2
55bebd: 2
53f48a: 2
55bec1: 2
411ba0: 2
549bc2: 2
550005: 2
544beb: 2
4c2570: 2
557190: 2
556fb0: 2
550853: 2
47128d: 2
622591: 2
620ac1: 2
556f42: 2
549fb0: 2
620b82: 2
556fc1: 2
553340: 2
61d807: 2
620961: 2
410754: 2
412442: 2
54ff6a: 2
61d881: 2
556e40: 2
551001: 2
64caa6: 2
55008b: 2
6222c1: 2
68021d: 2
41242d: 2
55ba40: 3
67ce6f: 3
67c310: 3
549b40: 3
617080: 3
617100: 3
67c33b: 3
67c76c: 3
6157d0: 3
545947: 3
6806af: 3
5458c0: 3
43b442: 3
41d410: 3
67c661: 3
61d108: 3
549ec9: 3
549f00: 3
555f38: 3
411460: 3
49815f: 3
67c544: 3
620ad3: 3
61d081: 3
51a843: 3
63e670: 3
550114: 3
67cc81: 3
41cc10: 3
6802fd: 3
51a7f1: 3
549fc1: 3
544c81: 3
680f80: 3
549ace: 3
550ac4: 3
549c81: 3
447960: 3
67c788: 3
471501: 3
61ec70: 3
51a802: 3
54971f: 3
5507c0: 3
680286: 3
67c67b: 3
67c280: 3
68102b: 3
550bc0: 3
680307: 3
67c5c0: 3
49c0e0: 3
5557ef: 3
67c88c: 3
546b30: 3
550201: 3
61cef0: 3
67c885: 3
63eef0: 3
410543: 3
61cf00: 3
544e62: 3
5432b0: 3
61ec81: 3
550cc3: 3
54ff04: 3
555da8: 3
61d0d3: 3
55c020: 3
639783: 3
681460: 3
55bc40: 3
549b81: 3
67ceeb: 3
545882: 3
55bf00: 3
4714ac: 3
546960: 3
550241: 3
6220ef: 3
55bb41: 3
55bc80: 3
67cc4f: 3
63ef00: 3
439c05: 3
545042: 3
47ea60: 3
5498b1: 3
67cf4e: 3
54a500: 3
551090: 3
411c7a: 3
67c585: 3
5493c0: 3
680f68: 3
552686: 3
680f1c: 3
61d7e0: 3
680599: 3
47e5c0: 3
67cf86: 3
556344: 3
54976a: 3
549a7b: 3
549b03: 3
54cb10: 3
550c4c: 3
67c7c7: 3
549a83: 3
55c010: 3
67c340: 3
55c0cc: 3
41d441: 3
411482: 3
47e640: 4
549fa0: 4
546b90: 4
51a680: 4
545341: 4
544ec4: 4
544fc0: 4
4e0580: 4
55233a: 4
416f03: 4
622641: 4
5525f5: 4
5463e0: 4
550c80: 4
549f83: 4
63f5c0: 4
550ecd: 4
411804: 4
549cd5: 4
4113c4: 4
54a650: 4
558c3d: 4
549f70: 4
4c269a: 4
622010: 4
54cae0: 4
556302: 4
5592d2: 4
63f5b0: 4
546502: 4
550505: 4
622083: 4
4123c0: 4
54eec1: 4
55bac3: 4
5592a0: 4
4ebb04: 4
54c958: 4
4c8508: 4
555f40: 4
621183: 5
558320: 5
62207f: 5
546b50: 5
621175: 5
63e640: 5
55b752: 5
4712c4: 5
559340: 5
5012bc: 5
4ebb8b: 5
629184: 5
545080: 5
4117f3: 5
416300: 5
559300: 5
63e661: 5
558342: 5
546ad0: 5
64e150: 5
620b35: 5
62201f: 5
5453c6: 5
555bb1: 5
550091: 5
554ab7: 6
553440: 6
54531d: 6
55214a: 6
63faf0: 6
5507d2: 6
4ea002: 6
4ebfa0: 6
55bf60: 6
64e1d0: 6
55842d: 6
555d9d: 6
507581: 6
49bfab: 6
5501c2: 6
4ebaeb: 7
444180: 7
5507b5: 7
552603: 7
5505ce: 7
55b160: 7
5505f1: 7
552482: 7
550e40: 7
55beb5: 7
55010d: 7
546607: 7
55bf83: 7
550b40: 7
6223dc: 7
410641: 8
445142: 8
621e95: 8
555b45: 8
554ac0: 8
550eb0: 8
433f40: 8
54eeb0: 8
412640: 8
554a84: 8
555b80: 8
49bf40: 8
55100a: 8
47ea80: 8
556079: 9
550b86: 9
4c2660: 9
51a630: 9
507650: 9
4ebf7c: 9
550608: 9
552142: 9
552282: 9
55be45: 9
558441: 10
55b187: 10
6292d0: 10
54eedc: 10
545283: 10
47d53a: 10
552440: 10
55baa0: 10
41072e: 10
55bad3: 10
558c2c: 11
621e1e: 11
5465c0: 11
5453bb: 11
5521c1: 11
621ec1: 11
550140: 11
641120: 11
55003d: 12
550f84: 12
559488: 12
54aa80: 12
4ebf82: 12
552130: 12
620ae0: 12
55bb46: 12
41d490: 12
550f03: 13
550f40: 13
5012f6: 13
549490: 13
620aff: 13
55044a: 13
550b25: 13
471481: 13
544f9e: 13
434103: 13
49c100: 13
5502c1: 13
550400: 13
5504bd: 13
555f83: 13
54547e: 13
620b09: 13
550591: 13
5524a0: 13
546401: 14
5012c3: 14
555b04: 14
620ab7: 14
544acf: 14
555a84: 14
4441c1: 14
47eac0: 14
501280: 14
623f00: 14
556275: 14
54510b: 14
550280: 14
5012ed: 14
51a66d: 14
51a641: 14
550542: 14
5522cd: 14
5465b0: 14
443f00: 14
546640: 14
54ab40: 14
55bba0: 14
54ef00: 14
620aa5: 14
545000: 14
544f08: 14
6225c0: 15
412110: 15
54ff23: 15
550a80: 15
4ebb63: 15
501300: 15
629304: 15
62228f: 15
43ad21: 15
544b74: 15
64e1e0: 16
55b1e5: 16
51a684: 16
55b745: 16
5525c4: 16
555afa: 16
555540: 16
544b81: 16
5555c3: 16
621fc8: 16
4e0578: 16
49bf82: 16
629270: 17
623f34: 17
621f42: 17
622581: 17
629282: 17
443f82: 17
552120: 17
620aad: 17
621f84: 17
5549c3: 18
47d477: 18
622190: 18
544c9b: 18
62096e: 18
555f06: 19
64e160: 19
4c2586: 19
544914: 19
556495: 19
47d430: 19
5451c1: 20
552598: 20
4712bc: 20
5507ee: 20
55067b: 20
4ebaf4: 20
550027: 21
55241b: 21
4ebac0: 21
55115d: 21
62093b: 21
550075: 22
47d608: 22
4ebae4: 22
552411: 22
47d3b5: 22
558405: 23
621fdb: 23
50754a: 24
620980: 24
621e83: 25
4ea048: 25
6408a3: 25
55b6fe: 25
55214d: 26
621440: 26
55564d: 26
621dee: 26
550191: 27
559440: 27
43b438: 27
4713bc: 27
53f5b0: 28
54ff8c: 29
5511ce: 29
49c1b0: 30
47e5da: 30
47d5c0: 30
620a3f: 30
49c1c2: 31
41cc4c: 31
55548c: 31
54fff8: 31
63e5fa: 31
47e5a0: 31
411b01: 31
549030: 32
556027: 32
556420: 32
555400: 33
4ea0c7: 33
55b176: 33
64cb03: 33
444140: 34
400640: 34
545140: 34
620d89: 34
54f002: 34
41cc70: 35
4ebf30: 35
53e1b9: 35
47d596: 35
444004: 35
43b430: 35
543401: 36
555f27: 36
545481: 37
506f34: 37
410598: 37
4c2667: 37
411ac2: 38
412180: 38
53f480: 39
622002: 39
555f8f: 39
548420: 40
43b8f6: 40
41cc4f: 40
4e9fc4: 41
548440: 42
623f20: 42
43b43b: 42
555bbb: 45
4117af: 46
623f09: 46
63fb0d: 47
506f20: 47
621f26: 47
4713b5: 48
47d480: 48
416e91: 49
400580: 50
64cac3: 51
63e5f6: 53
55b7b0: 54
433f36: 55
621435: 55
411afa: 59
62257c: 60
411aac: 61
4441eb: 65
55b1c0: 70
5525eb: 70
54515b: 74
444197: 75
624580: 75
4ea00b: 84
62919a: 87
549100: 88
41d1f7: 89
444028: 92
416eb9: 97
4712ab: 97
54c9b1: 101
550965: 118
6225da: 120
55b6eb: 129
6225ab: 147
4441ba: 153
471411: 156
552252: 161
555f7c: 171
55039d: 175
5583d5: 180
550397: 190
4713a9: 191
5125d4: 236
4441d5: 241
4ebe6b: 247
443ff4: 271
5555bc: 288
550b49: 330
554a73: 343
623f81: 355
55218c: 384
4713a4: 458
545190: 483
555f2e: 489
44512a: 496
550931: 513
471398: 528
555b54: 541
549370: 588
54490e: 664
411c3e: 666
55bb22: 677
544edb: 681
410737: 688
550ab2: 709
41191a: 742
4105d4: 749
4441ae: 757
5525be: 770
545380: 869
62241f: 909
47136d: 912
552182: 935
552274: 944
4441c7: 970
5524d8: 971
552270: 982
55bb00: 987
411780: 1027
5524c9: 1028
4450fb: 1061
41055f: 1068
620a5d: 1224
545370: 1274
6291b5: 1585
621e9a: 1655
411c4a: 1976
41053f: 2132
411b0d: 2220
47eb9a: 2334
62200b: 2362
555f5c: 2363
55bb37: 2400
44427d: 2481
4712af: 2588
416e8e: 2800
621ea4: 2901
545180: 2990
411c5f: 2994
4168b0: 3028
445148: 3076
6291bb: 3147
4ebf44: 3418
6291c1: 3504
47d45d: 3590
5555a4: 4184
555b1a: 4216
621e17: 4222
471366: 4644
41054e: 4859
5507af: 5161
4ebb70: 5394
507571: 5659
49c1ec: 6168
412730: 6331
4ea01d: 6814
4ec000: 7062
41d1f4: 7521
4168b4: 7808
620aeb: 7932
6408a0: 8253
4168cb: 8618
41195a: 8620
550a73: 8647
41cc78: 8748
622407: 8904
416eb6: 9079
555f6d: 11431
433dff: 11725
555b34: 12445
4ebf40: 12792
4ebf76: 13147
62094f: 13155
5124e1: 13200
47e5d4: 13461
4168ba: 13892
444020: 14098
416e84: 14286
471394: 15979
55bb1e: 16252
47d453: 16708
55bb33: 16941
4340f0: 17462
433def: 17576
471359: 17635
47135d: 17695
41218b: 19344
4e9fc1: 19435
55b173: 20132
54fe9b: 24456
4ea019: 25484
416eb3: 27816
416e72: 29804
550ff8: 31677
41cc81: 33431
54fefc: 34636
47133d: 36740
624599: 37568
416ef9: 48388
5432c8: 79143
471351: 81087
55bb13: 85736
47134d: 97584

RAW hits: 3068148
Loads Generated: 67448752
Loads sent to L1D: 64380604
Stores Generated: 37118330
Stores sent to L1D: 37118330
Major fault: 0 Minor fault: 47401
Allocated PAGES: 47401
Total Load insts: 79624111
Total Non-spec loads: 27366723
Percentage of speculative loads: 65.6301
L1D response latency: 100.595 cycles
Load retirement latency: 174.509 cycles

------------------
Depth Distribution
------------------
depth 0: 1652047
depth 1: 1923168
depth 2: 365637
depth 3: 2072
depth 4: 0
depth 5: 0
depth 6: 0
depth 7: 0
depth 8: 0
depth 9: 0
depth 10: 0
depth 11: 0
depth 12: 0
depth 13: 0
depth 14: 0
depth 15: 0
depth 16: 0
depth 17: 0
depth 18: 0
depth 19: 0
depth 20: 0
depth 21: 0
depth 22: 0
depth 23: 0
depth 24: 0
depth 25: 0
depth 26: 0
depth 27: 0
depth 28: 0
depth 29: 0
Total: 3942924
------------------
ST read accesses: 1915217
ST write accesses: 1235937
PT read accesses: 29989650
PT write accesses: 2232115
FILTER read accesses: 14379221
FILTER write accesses: 12437722
GHR read accesses: 11449810
GHR write accesses: 199987
PERC read accesses: 201512799
PERC write accesses: 25782101
GHR counter read accesses: 6302308
GHR counter write accesses: 6463773
GHR ip read accesses: 20899338
GHR ip write accesses: 12604616
ST tag read accesses: 1844232815
ST tag write accesses: 356511555

DRAM Statistics
 CHANNEL 0
 RQ ROW_BUFFER_HIT:     308330  ROW_BUFFER_MISS:    2607098
 DBUS_CONGESTED:        589
 WQ ROW_BUFFER_HIT:     171633  ROW_BUFFER_MISS:     759388  FULL:          0

 AVG_CONGESTED_CYCLE: 3
 All warmup complete: 2
Channel 0 Bank busy for read cycles: 0
Channel 0 Bank busy for write cycles: 0
Channel 0
Rank 0
0banks busy for read cycles: 499840289
0banks busy for write cycles: 447791
1banks busy for read cycles: 140986458
1banks busy for write cycles: 64058749
2banks busy for read cycles: 50652398
2banks busy for write cycles: 27830057
3banks busy for read cycles: 24366591
3banks busy for write cycles: 12205065
4banks busy for read cycles: 11947119
4banks busy for write cycles: 5027567
5banks busy for read cycles: 5188345
5banks busy for write cycles: 1786037
6banks busy for read cycles: 1949043
6banks busy for write cycles: 503891
7banks busy for read cycles: 691796
7banks busy for write cycles: 109500
8banks busy for read cycles: 103224
8banks busy for write cycles: 14250

CPU 0 Branch Prediction Accuracy: 98.2082% MPKI: 3.72743 Average ROB Occupancy at Mispredict: 35.095
Branch types
NOT_BRANCH: 158393552 79.1968%
BRANCH_DIRECT_JUMP: 2276304 1.13815%
BRANCH_INDIRECT: 671328 0.335664%
BRANCH_CONDITIONAL: 26768026 13.384%
BRANCH_DIRECT_CALL: 3559126 1.77956%
BRANCH_INDIRECT_CALL: 2386088 1.19304%
BRANCH_RETURN: 5945216 2.97261%
BRANCH_OTHER: 0 0%

DRAM PAGES: 1048576
Allocated PAGES: 47401
