Initialize SIGNATURE TABLE
ST_SET: 1
ST_WAY: 256
ST_TAG_BIT: 16
ST_TAG_MASK: ffff

Initialize PATTERN TABLE
PT_SET: 512
PT_WAY: 4
SIG_DELTA_BIT: 7
C_SIG_BIT: 4
C_DELTA_BIT: 4

Initialize PREFETCH FILTER
FILTER_SET: 1024

Initialize PERCEPTRON
PERC_ENTRIES: 4096
PERC_FEATURES: 9

*** ChampSim Multicore Out-of-Order Simulator ***

Warmup Instructions: 50000000
Simulation Instructions: 200000000
Number of CPUs: 1
LLC sets: 2048
LLC ways: 16
Secure Berti: OFF
Berti: OFF
Berti Fill: OFF
On commit prefetching: OFF
L2 LLC Bypass speculative loads: OFF
Off-chip DRAM Size: 4096 MB Channels: 1 Width: 64-bit Data Rate: 6400 MT/s
CPU 0 runs /home/sumon/secure_berti/Berti_Baseline/../../traces/spec/620.omnetpp_s-141B.champsimtrace.xz
.xz
BTB has LRU replacement policy
ITLB has LRU replacement policy
DTLB has LRU replacement policy
STLB has LRU replacement policy
L1I has LRU replacement policy
L1D has LRU replacement policy
PERC_ENTRIES: 4096
L2C has LRU replacement policy
LLC has LRU replacement policy
Heartbeat CPU 0 instructions: 10000001 cycles: 3912904 heartbeat IPC: 2.55565 cumulative IPC: 2.55565 (Simulation time: 0 hr 0 min 28 sec) 
Heartbeat CPU 0 instructions: 20000003 cycles: 7839191 heartbeat IPC: 2.54694 cumulative IPC: 2.55128 (Simulation time: 0 hr 0 min 57 sec) 
Heartbeat CPU 0 instructions: 30000000 cycles: 11769603 heartbeat IPC: 2.54426 cumulative IPC: 2.54894 (Simulation time: 0 hr 1 min 26 sec) 
Heartbeat CPU 0 instructions: 40000001 cycles: 15689579 heartbeat IPC: 2.55104 cumulative IPC: 2.54946 (Simulation time: 0 hr 1 min 57 sec) 
Heartbeat CPU 0 instructions: 50000003 cycles: 19622134 heartbeat IPC: 2.54288 cumulative IPC: 2.54814 (Simulation time: 0 hr 2 min 30 sec) 

Warmup complete CPU 0 instructions: 50000003 cycles: 19622134 (Simulation time: 0 hr 2 min 30 sec) 

Heartbeat CPU 0 instructions: 60000001 cycles: 63786924 heartbeat IPC: 0.226425 cumulative IPC: 0.226425 (Simulation time: 0 hr 3 min 18 sec) 
Heartbeat CPU 0 instructions: 70000000 cycles: 108317649 heartbeat IPC: 0.224564 cumulative IPC: 0.225491 (Simulation time: 0 hr 4 min 5 sec) 
Heartbeat CPU 0 instructions: 80000003 cycles: 152459329 heartbeat IPC: 0.226543 cumulative IPC: 0.22584 (Simulation time: 0 hr 4 min 52 sec) 
Heartbeat CPU 0 instructions: 90000003 cycles: 196764930 heartbeat IPC: 0.225705 cumulative IPC: 0.225807 (Simulation time: 0 hr 5 min 38 sec) 
Heartbeat CPU 0 instructions: 100000000 cycles: 240721188 heartbeat IPC: 0.227499 cumulative IPC: 0.226143 (Simulation time: 0 hr 6 min 25 sec) 
Heartbeat CPU 0 instructions: 110000000 cycles: 284867369 heartbeat IPC: 0.22652 cumulative IPC: 0.226206 (Simulation time: 0 hr 7 min 13 sec) 
Heartbeat CPU 0 instructions: 120000000 cycles: 328880271 heartbeat IPC: 0.227206 cumulative IPC: 0.226348 (Simulation time: 0 hr 7 min 59 sec) 
Heartbeat CPU 0 instructions: 130000000 cycles: 373123202 heartbeat IPC: 0.226025 cumulative IPC: 0.226308 (Simulation time: 0 hr 8 min 46 sec) 
Heartbeat CPU 0 instructions: 140000000 cycles: 417328120 heartbeat IPC: 0.226219 cumulative IPC: 0.226298 (Simulation time: 0 hr 9 min 31 sec) 
Heartbeat CPU 0 instructions: 150000003 cycles: 461941001 heartbeat IPC: 0.224151 cumulative IPC: 0.226081 (Simulation time: 0 hr 10 min 17 sec) 
Heartbeat CPU 0 instructions: 160000001 cycles: 506114515 heartbeat IPC: 0.22638 cumulative IPC: 0.226108 (Simulation time: 0 hr 11 min 2 sec) 
Heartbeat CPU 0 instructions: 170000001 cycles: 550103791 heartbeat IPC: 0.227328 cumulative IPC: 0.22621 (Simulation time: 0 hr 11 min 44 sec) 
Heartbeat CPU 0 instructions: 180000000 cycles: 594172168 heartbeat IPC: 0.22692 cumulative IPC: 0.226264 (Simulation time: 0 hr 12 min 25 sec) 
Heartbeat CPU 0 instructions: 190000000 cycles: 638069893 heartbeat IPC: 0.227802 cumulative IPC: 0.226373 (Simulation time: 0 hr 13 min 1 sec) 
Heartbeat CPU 0 instructions: 200000000 cycles: 682889861 heartbeat IPC: 0.223115 cumulative IPC: 0.226153 (Simulation time: 0 hr 13 min 37 sec) 
Heartbeat CPU 0 instructions: 210000000 cycles: 727332594 heartbeat IPC: 0.225009 cumulative IPC: 0.226081 (Simulation time: 0 hr 14 min 10 sec) 
Heartbeat CPU 0 instructions: 220000000 cycles: 771954459 heartbeat IPC: 0.224105 cumulative IPC: 0.225964 (Simulation time: 0 hr 14 min 43 sec) 
Heartbeat CPU 0 instructions: 230000001 cycles: 816339121 heartbeat IPC: 0.225303 cumulative IPC: 0.225927 (Simulation time: 0 hr 15 min 17 sec) 
Heartbeat CPU 0 instructions: 240000001 cycles: 860814483 heartbeat IPC: 0.224844 cumulative IPC: 0.22587 (Simulation time: 0 hr 15 min 50 sec) 
Heartbeat CPU 0 instructions: 250000000 cycles: 904337640 heartbeat IPC: 0.229763 cumulative IPC: 0.226061 (Simulation time: 0 hr 16 min 23 sec) 
Finished CPU 0 instructions: 200000001 cycles: 884715507 cumulative IPC: 0.226061 (Simulation time: 0 hr 16 min 23 sec) 

ChampSim completed all CPUs

Region of Interest Statistics

CPU 0 cumulative IPC: 0.226061 instructions: 200000001 cycles: 884715507
ITLB TOTAL     ACCESS:   33297686  HIT:   33007548  MISS:     290138  HIT %:    99.1287  MISS %:   0.871346   MPKI: 1.45069
ITLB Test counter:          0
ITLB LOAD TRANSLATION ACCESS:   33297686  HIT:   33007548  MISS:     290138  HIT %:    99.1287  MISS %:   0.871346   MPKI: 1.45069
ITLB PREFETCH  REQUESTED:          0  ISSUED:          0  USEFUL:          0  USELESS:          0
ITLB USEFUL LOAD PREFETCHES:          0 PREFETCH ISSUED TO LOWER LEVEL:          0  ACCURACY: -nan
ITLB TIMELY PREFETCHES:          0 LATE PREFETCHES: 0 DROPPED PREFETCHES: 0
ITLB COMMIT LATE PREFETCHES: 0 MISSED OPPORTUNITY: 0 LATE IN PQ: 0 UNCOVERED: 0
ITLB COMMIT LATE MSHR PREFETCHES: 0
ITLB MPKI TOTAL: 0 MSHR LATE: 0 PQ LATE: 0 COMMIT LATE: 0 MISSED OPPORTUNITY: 0 UNCOVERED: 0
ITLB PREFETCHES SAME FILL-ORIGIN LEVEL: 0 DIFFERENT FILL-ORIGIN LEVEL: 0
ITLB AVERAGE MISS LATENCY: 9.83676 cycles
ITLB AVERAGE MISS LATENCY LOAD: -nan cycles
ITLB AVERAGE MISS LATENCY PREFETCH: -nan cycles
ITLB AVERAGE MSHR OCCUPANCY: 0.00792984
ITLB MSHR FULL: 0
ITLB RQ	ACCESS:   37407250	FORWARD:          0	MERGED:    4019294	TO_CACHE:   33387956

DTLB TOTAL     ACCESS:   77118900  HIT:   72955954  MISS:    4162946  HIT %:    94.6019  MISS %:    5.39809   MPKI: 20.8147
DTLB Test counter:          0
DTLB LOAD TRANSLATION ACCESS:   77118900  HIT:   72955954  MISS:    4162946  HIT %:    94.6019  MISS %:    5.39809   MPKI: 20.8147
DTLB PREFETCH  REQUESTED:          0  ISSUED:          0  USEFUL:          0  USELESS:          0
DTLB USEFUL LOAD PREFETCHES:          0 PREFETCH ISSUED TO LOWER LEVEL:          0  ACCURACY: -nan
DTLB TIMELY PREFETCHES:          0 LATE PREFETCHES: 0 DROPPED PREFETCHES: 0
DTLB COMMIT LATE PREFETCHES: 0 MISSED OPPORTUNITY: 0 LATE IN PQ: 0 UNCOVERED: 0
DTLB COMMIT LATE MSHR PREFETCHES: 0
DTLB MPKI TOTAL: 0 MSHR LATE: 0 PQ LATE: 0 COMMIT LATE: 0 MISSED OPPORTUNITY: 0 UNCOVERED: 0
DTLB PREFETCHES SAME FILL-ORIGIN LEVEL: 0 DIFFERENT FILL-ORIGIN LEVEL: 0
DTLB AVERAGE MISS LATENCY: 31.6762 cycles
DTLB AVERAGE MISS LATENCY LOAD: -nan cycles
DTLB AVERAGE MISS LATENCY PREFETCH: -nan cycles
DTLB AVERAGE MSHR OCCUPANCY: 0.107302
DTLB MSHR FULL: 1.99949e-05
DTLB RQ	ACCESS:   87295164	FORWARD:          0	MERGED:   10076792	TO_CACHE:   77218372

STLB TOTAL     ACCESS:    4453084  HIT:    3482750  MISS:     970334  HIT %:    78.2098  MISS %:    21.7902   MPKI: 4.85167
STLB Test counter:          0
STLB LOAD TRANSLATION ACCESS:    4453084  HIT:    3482750  MISS:     970334  HIT %:    78.2098  MISS %:    21.7902   MPKI: 4.85167
STLB PREFETCH  REQUESTED:          0  ISSUED:          0  USEFUL:          0  USELESS:          0
STLB USEFUL LOAD PREFETCHES:          0 PREFETCH ISSUED TO LOWER LEVEL:          0  ACCURACY: -nan
STLB TIMELY PREFETCHES:          0 LATE PREFETCHES: 0 DROPPED PREFETCHES: 0
STLB COMMIT LATE PREFETCHES: 0 MISSED OPPORTUNITY: 0 LATE IN PQ: 0 UNCOVERED: 0
STLB COMMIT LATE MSHR PREFETCHES: 0
STLB MPKI TOTAL: 0 MSHR LATE: 0 PQ LATE: 0 COMMIT LATE: 0 MISSED OPPORTUNITY: 0 UNCOVERED: 0
STLB PREFETCHES SAME FILL-ORIGIN LEVEL: 0 DIFFERENT FILL-ORIGIN LEVEL: 0
STLB AVERAGE MISS LATENCY: 97.364 cycles
STLB AVERAGE MISS LATENCY LOAD: -nan cycles
STLB AVERAGE MISS LATENCY PREFETCH: -nan cycles
STLB AVERAGE MSHR OCCUPANCY: 0.0877098
STLB MSHR FULL: 0
STLB RQ	ACCESS:    4453084	FORWARD:          0	MERGED:          0	TO_CACHE:    4453084

STLB Hit, L1D data hit: 0
STLB Hit, L2C data hit: 0
STLB Hit, LLC data hit: 0
STLB Hit, LLC data miss: 0
STLB STLB hints to L2: 0
L1D TOTAL     ACCESS:   86228716  HIT:   82525682  MISS:    3703034  HIT %:    95.7056  MISS %:    4.29443   MPKI: 18.5152
L1D Test counter:          0
L1D LOAD      ACCESS:   50335893  HIT:   47116435  MISS:    3456149  HIT %:    93.6041  MISS %:    6.39595   MPKI: 16.0973
L1D RFO       ACCESS:   35892823  HIT:   35409247  MISS:     483576  HIT %:    98.6527  MISS %:    1.34728   MPKI: 2.41788
L1D PREFETCH  REQUESTED:          0  ISSUED:          0  USEFUL:          0  USELESS:          0
L1D USEFUL LOAD PREFETCHES:          0 PREFETCH ISSUED TO LOWER LEVEL:          0  ACCURACY: -nan
L1D TIMELY PREFETCHES:          0 LATE PREFETCHES: 0 DROPPED PREFETCHES: 0
L1D COMMIT LATE PREFETCHES: 0 MISSED OPPORTUNITY: 0 LATE IN PQ: 0 UNCOVERED: 0
L1D COMMIT LATE MSHR PREFETCHES: 0
L1D MPKI TOTAL: 17.2807 MSHR LATE: 0 PQ LATE: 0 COMMIT LATE: 0 MISSED OPPORTUNITY: 0 UNCOVERED: 0
L1D PREFETCHES SAME FILL-ORIGIN LEVEL: 0 DIFFERENT FILL-ORIGIN LEVEL: 0
L1D AVERAGE MISS LATENCY: 111.888 cycles
L1D AVERAGE MISS LATENCY LOAD: 110.303 cycles
L1D AVERAGE MISS LATENCY PREFETCH: -nan cycles
L1D AVERAGE MSHR OCCUPANCY: 0.247962
L1D MSHR FULL: 0
L1D RQ	ACCESS:   63530623	FORWARD:          0	MERGED:   10256781	TO_CACHE:   50572581
L1D WQ	ACCESS:   37145107	FORWARD:    2701261	MERGED:     422524	TO_CACHE:   36722583

L1D UNIQUE REGIONS ACCESSED: 0
L1D REGIONS CONFLICTS: 0
L1D Cross Page Prefetch Requests: 0
L1D Same Page Prefetch Requests: 0
L1D ROI Sum of L1D PQ occupancy: 0
L1D PREFETCHES PUSHED FROM L2C: 0
558d53: 1
558cce: 1
680e22: 1
4c7067: 1
550bba: 1
4ebf37: 1
411c77: 1
550c04: 1
4c74d9: 1
471349: 1
4cce4f: 1
545061: 1
544ff8: 1
4c8937: 1
498162: 1
4cce59: 1
412229: 1
550fab: 1
59068b: 1
552c80: 1
55009f: 1
5125e7: 1
4c862b: 1
558cf0: 1
558d88: 1
558ad6: 1
558d23: 1
558d2d: 1
554ab2: 1
511a8f: 1
511c1a: 1
550b50: 1
590696: 1
4ccea2: 1
4cce80: 1
4c86bf: 1
4c703e: 1
498169: 1
4ebf72: 1
498148: 1
4e0583: 1
558ed9: 1
507547: 2
549fb0: 2
41d1c7: 2
558e90: 2
553cdd: 2
549884: 2
4113bf: 2
546b80: 2
412417: 2
4714bb: 2
558eb4: 2
6220e6: 2
4c79fa: 2
549d41: 2
553c0c: 2
4123f4: 2
4c8516: 2
47d471: 2
4ebada: 2
501cd7: 2
558edf: 2
4117fe: 2
410751: 2
549ce3: 3
47d5ae: 3
557005: 3
49815f: 3
623fa3: 3
4e0580: 3
622124: 3
621ede: 3
412409: 3
556d4b: 3
549788: 3
550083: 3
621ee1: 3
4714b4: 3
550657: 3
4e057c: 3
553ca9: 3
553cf2: 3
549d61: 3
549efe: 4
4123e1: 4
549ef6: 4
55948c: 4
412246: 4
54492b: 4
620b25: 4
556fd9: 4
556fe3: 4
4ebaeb: 4
549ee8: 4
544d49: 4
556f94: 4
54cae0: 4
4ebae4: 4
549cdc: 5
47d3b2: 5
512590: 5
41d437: 5
4c8508: 5
411c7a: 5
620ad3: 5
549b73: 6
549774: 6
550bb3: 6
553cac: 6
558a37: 6
558e48: 6
558eae: 6
558ed3: 6
410754: 6
558c3d: 6
41077b: 6
5502e6: 6
558c2c: 6
623fa2: 6
549b06: 6
555da8: 6
4714a7: 7
556e38: 7
550cd8: 7
550280: 7
64caa6: 7
5555c3: 7
545080: 8
5012c3: 8
550cb3: 8
622591: 8
41241d: 8
400670: 8
556dd4: 9
550e48: 9
5504e0: 9
55b73b: 9
556f4d: 9
4e0578: 9
549741: 9
556e5c: 9
556dfe: 9
5498b1: 10
622088: 10
549c8f: 10
41d422: 10
55005b: 10
549afd: 10
549adf: 10
54976a: 10
544cdb: 10
5125c3: 10
4714ac: 11
550cba: 11
5453bb: 11
623f49: 11
629270: 11
550114: 11
55002d: 11
621edd: 11
550680: 12
41631a: 12
549f7c: 12
622260: 12
67c788: 13
623f65: 13
67c88c: 13
55055b: 13
47d4b7: 13
550cbd: 14
623f34: 14
471483: 14
67c33b: 14
47148a: 14
639783: 14
549c81: 14
550d03: 14
5502ec: 14
67c67b: 14
549cd5: 15
549d13: 15
550010: 15
41066e: 15
67c76c: 15
54971f: 15
47d5ba: 15
501cbe: 15
5502ef: 15
67c885: 15
410666: 15
4c2586: 16
5525b8: 16
41065f: 16
54ff9a: 17
54eedc: 17
4714db: 17
47d4a3: 17
623f79: 17
55030c: 17
4710ce: 17
550f70: 17
41cc22: 18
5012ed: 18
5012bc: 18
5012f6: 18
51a66d: 18
43ad21: 18
41ccb1: 18
439bb0: 18
47128d: 19
55b752: 19
55023a: 19
4c269a: 20
4117f3: 20
51a684: 21
411804: 21
620ac1: 21
549fa0: 21
53f48a: 21
47d4ab: 22
55241b: 22
550af9: 22
49bf82: 23
550406: 24
550f8e: 25
550d38: 27
4712b7: 27
620af7: 28
55842d: 28
621dee: 29
620980: 30
4714df: 31
62098c: 31
621ec1: 32
55040d: 32
62096e: 33
55063a: 33
621e1e: 35
47ea73: 37
552757: 41
62207f: 42
621ffe: 43
544c9b: 44
47d477: 45
555bb1: 45
62201f: 46
620d89: 47
622108: 47
62215a: 47
622090: 47
47148e: 48
550629: 50
558426: 50
47ea6d: 53
62093b: 54
54c958: 62
47d53a: 69
5507b5: 71
4713dc: 74
41d235: 79
62257c: 86
4106b3: 86
4c2595: 94
620aad: 97
620aa5: 97
620ab7: 97
55003d: 100
621fdb: 102
620b09: 103
620aff: 103
621fc8: 116
5525f5: 116
5549c3: 120
44ab20: 124
552760: 129
63f85e: 136
43b8f6: 146
47d608: 146
4c2667: 150
53e1b9: 166
41cc4c: 166
41cc4f: 172
545247: 178
545370: 179
4713b5: 185
4c26a3: 186
55833c: 186
41072e: 186
550005: 187
552173: 194
556079: 197
555f38: 203
44416b: 218
54ff23: 220
410781: 229
4ebf7c: 241
5525eb: 243
550853: 245
556275: 247
550965: 249
5525ac: 254
552252: 258
4441d5: 295
6225ab: 306
6225da: 306
545380: 329
622010: 337
4441ba: 355
5555ea: 362
55b745: 387
5507d2: 404
55b176: 405
555504: 419
550091: 427
6408a3: 480
55218c: 487
55100a: 490
4712c4: 506
55b1e5: 509
5125d4: 540
555bbb: 563
544907: 606
4713bc: 623
4ebaf4: 663
552130: 692
4713a9: 701
44512a: 711
55b1c0: 715
4ea00b: 737
55214d: 748
41cc70: 764
545190: 768
6291bb: 781
47e5da: 787
620961: 789
544914: 797
6291b5: 835
4ea0c7: 879
5583d5: 895
4ea048: 928
55b6fe: 951
4e9fc4: 966
620b35: 966
6291c1: 976
47d3b5: 979
552270: 993
54fff8: 994
43b43b: 1005
55bb00: 1005
552182: 1015
43b438: 1019
5525be: 1020
5524d8: 1021
54490e: 1021
5524c9: 1021
411780: 1021
54515b: 1021
552274: 1030
506f34: 1050
624580: 1094
63fad6: 1114
550144: 1129
4441ae: 1144
63fb0d: 1147
4441c7: 1194
621e95: 1209
550931: 1234
555f8f: 1244
4ebfa0: 1274
620a3f: 1314
400640: 1320
55bb22: 1341
623f09: 1437
620b3f: 1448
550075: 1476
471411: 1499
549390: 1549
443ff4: 1549
621435: 1659
54ff8c: 1693
4713a4: 1706
623f20: 1781
545180: 1848
63f85a: 1857
4712bc: 1930
621e83: 1949
4441eb: 1966
444186: 2150
416e91: 2174
55b7b0: 2269
400580: 2360
47d5c0: 2614
41d1f7: 2644
50754a: 2656
44427d: 2689
55bb37: 2861
411aac: 3030
549100: 3057
444197: 3095
5507ee: 3229
555f2e: 3238
555f7c: 3239
471398: 3320
555d9d: 3323
5555bc: 3347
41055f: 3546
411c3e: 3579
4ebf44: 3580
411afa: 3616
4117af: 3725
54c9b1: 3947
416eb9: 3993
444028: 4047
623f81: 4290
550b49: 4353
416e8e: 4749
550ab2: 5053
555b54: 5053
55b6eb: 5064
55039d: 5130
44415f: 5175
550397: 5177
445148: 5198
4450fb: 5249
62919a: 5306
549370: 5348
555b1a: 5450
4168b0: 6241
4712ab: 6262
4105d4: 6676
41053f: 6740
62241f: 6837
444216: 8247
47d45d: 8519
62200b: 8791
444178: 8851
47eb9a: 9307
554a73: 9445
555f5c: 9582
411c4a: 10453
411b0d: 11314
6408a0: 11451
411c5f: 11770
4168cb: 11776
4ebb70: 12173
555f6d: 12827
4ebf76: 12836
4ebf40: 12836
4168b4: 12882
4ebe6b: 13131
5507af: 13161
410737: 13176
5555a4: 13233
41054e: 13405
41d1f4: 14022
49c1ec: 14349
622407: 15014
433dff: 15014
412730: 15484
620a5d: 16000
507571: 16213
62094f: 16357
55bb1e: 17440
55bb33: 18385
621e9a: 19085
621ea4: 19093
4340f0: 19187
416e84: 19485
433def: 19678
41218b: 20165
555b34: 20165
550a73: 20283
4ea01d: 21930
55b173: 22730
620aeb: 23105
444020: 23212
47136d: 23256
471366: 26106
4712af: 27352
41191a: 27684
41195a: 28040
621e17: 30758
47d453: 34064
416eb3: 34178
544edb: 34324
416e72: 35591
416eb6: 35751
4168ba: 39934
5124e1: 41784
624599: 42847
47e5d4: 47493
416ef9: 52194
471394: 54302
41cc81: 55826
4ec000: 57517
471359: 57631
47135d: 58708
41cc78: 62032
54fe9b: 67411
4ea019: 76522
550ff8: 80321
54fefc: 80327
4e9fc1: 87271
5432c8: 88383
55bb13: 90982
47133d: 221702
471351: 263958
47134d: 322208
L1I TOTAL     ACCESS:   37368046  HIT:   37247108  MISS:     120938  HIT %:    99.6764  MISS %:    0.32364   MPKI: 0.60469
L1I Test counter:          0
L1I LOAD      ACCESS:   37368046  HIT:   37247108  MISS:     160140  HIT %:    99.6764  MISS %:    0.32364   MPKI: 0.60469
L1I PREFETCH  REQUESTED:          0  ISSUED:          0  USEFUL:          0  USELESS:          0
L1I USEFUL LOAD PREFETCHES:          0 PREFETCH ISSUED TO LOWER LEVEL:          0  ACCURACY: -nan
L1I TIMELY PREFETCHES:          0 LATE PREFETCHES: 0 DROPPED PREFETCHES: 0
L1I COMMIT LATE PREFETCHES: 0 MISSED OPPORTUNITY: 0 LATE IN PQ: 0 UNCOVERED: 0
L1I COMMIT LATE MSHR PREFETCHES: 0
L1I MPKI TOTAL: 0.8007 MSHR LATE: 0 PQ LATE: 0 COMMIT LATE: 0 MISSED OPPORTUNITY: 0 UNCOVERED: 0
L1I PREFETCHES SAME FILL-ORIGIN LEVEL: 0 DIFFERENT FILL-ORIGIN LEVEL: 0
L1I AVERAGE MISS LATENCY: 29.1026 cycles
L1I AVERAGE MISS LATENCY LOAD: 29.1026 cycles
L1I AVERAGE MISS LATENCY PREFETCH: -nan cycles
L1I AVERAGE MSHR OCCUPANCY: 0.00491303
L1I MSHR FULL: 0
L1I RQ	ACCESS:   56660205	FORWARD:          0	MERGED:   19252955	TO_CACHE:   37407250

4117c0: 1
445101: 1
4c8cd0: 1
4c862b: 1
511c10: 1
4cd041: 1
558c20: 1
550910: 1
4c7044: 1
507688: 1
4cced6: 1
550a40: 1
498140: 1
590680: 1
4c7086: 1
4c8db1: 1
55ba90: 1
558d80: 1
552753: 1
550e84: 1
4c868c: 1
67cd4f: 1
49c0e0: 1
4e0570: 1
4714ec: 1
4c7020: 1
558ca2: 1
511a84: 1
554a73: 1
680e01: 1
5906e0: 1
67cd04: 1
519a30: 1
63fad2: 1
622088: 1
4c8923: 1
449d70: 1
558a20: 1
549d41: 1
5557ef: 1
4c86c4: 1
55be85: 1
64e1c0: 1
511ce1: 1
680de2: 1
444281: 1
556dc0: 1
55b280: 1
549700: 1
498180: 1
558d02: 1
558a8b: 1
556067: 1
4c2680: 1
4cce40: 1
4c8dc1: 1
620e58: 1
558b46: 1
558b0a: 1
558ac4: 1
558d40: 1
511c80: 1
556d4b: 1
511c40: 1
511a50: 1
550043: 1
47d441: 1
4c7a42: 1
4c7a04: 1
4c79c9: 1
4c8740: 1
59071d: 1
4c8703: 1
519a81: 1
501d02: 1
555bc2: 1
552703: 1
629200: 1
545942: 1
6814e2: 1
67c748: 1
67c681: 1
501d6e: 1
501d8c: 1
4c8d53: 1
556d8f: 1
54a71e: 1
5504c0: 1
67cda3: 1
620b82: 1
54cad0: 1
54975c: 1
550690: 1
4cce80: 1
4c8d01: 1
544c40: 1
519a46: 1
558c41: 1
61d150: 1
552ad0: 1
558cc1: 1
552c90: 1
555a70: 1
4c74c0: 1
4c7697: 1
4cd010: 1
552686: 1
4c8500: 1
544cc3: 2
63fb00: 2
4ebe60: 2
553c02: 2
6220c0: 2
544e90: 2
552470: 2
5503c1: 2
55be88: 2
550c30: 2
5494b0: 2
558dc0: 2
553be0: 2
55c055: 2
6222c1: 2
55bcd0: 2
553c42: 2
47e640: 2
55bbe0: 2
410520: 2
54531d: 3
55c043: 3
51a630: 3
550120: 3
552603: 3
5508f0: 3
5511ce: 3
55ba40: 3
544c2c: 3
554ab7: 3
555e96: 3
545902: 3
55bf2d: 3
545947: 3
550849: 3
411b46: 3
550608: 4
55bc90: 4
55bebd: 4
550b40: 4
555b45: 4
443f6c: 4
556302: 4
55bed0: 4
550338: 4
5522cd: 4
55c028: 4
5592d2: 4
68062a: 4
553c80: 5
408910: 5
555e47: 5
433e41: 5
629241: 5
549370: 5
558ec2: 5
558e89: 5
558a41: 5
64caa0: 5
5505ce: 5
553cc0: 5
61d900: 6
55bec1: 6
6292d0: 6
55bc80: 6
558e48: 6
54ff84: 6
443ff4: 6
54ff6a: 6
620b35: 6
49bf82: 6
553440: 6
549490: 6
4e0580: 6
548301: 7
412442: 7
550942: 7
629282: 7
41242d: 7
559488: 7
629304: 7
41244b: 8
61ec00: 8
55bfb0: 8
411a80: 8
412400: 8
556500: 8
622260: 8
54a680: 8
55beb5: 8
550bc0: 8
5432b0: 8
544c60: 8
549bc2: 8
501cc2: 8
41cc10: 8
4c2570: 9
556f42: 9
556f19: 9
556fb0: 9
557190: 9
556fc1: 9
548570: 9
6408a0: 9
51a7f1: 9
5448f0: 9
5012c3: 9
6157d0: 9
553500: 9
557002: 9
6225c0: 9
557041: 9
5571c1: 9
556344: 9
552c80: 9
556e40: 9
556e80: 9
61d7e0: 9
548582: 9
550341: 9
67c7c7: 9
6802fd: 9
51a843: 9
68021d: 9
412241: 9
5500c0: 9
553340: 9
552bd0: 9
54ff04: 9
412200: 9
546502: 9
6806af: 9
43b442: 9
439c05: 9
556cc0: 9
54a500: 9
556ec2: 9
61d146: 9
68024f: 9
5498c3: 10
680307: 10
617100: 10
549a83: 10
67ca58: 10
549c70: 10
549c81: 10
67ce80: 10
51a680: 10
550241: 10
67c310: 10
549881: 10
680f80: 10
67c520: 10
471501: 10
550201: 10
549870: 10
622042: 10
54efe0: 10
550c80: 10
680f1c: 10
67cc4f: 10
54c8c4: 10
61ec70: 10
680f68: 10
443880: 10
67c5c0: 10
67ceeb: 10
544c81: 10
67c843: 10
617080: 10
550505: 10
67c340: 10
67c661: 10
5458c0: 10
681460: 10
447960: 10
550c4c: 10
61cef0: 10
549cc1: 10
680286: 10
549a7b: 10
550ecd: 10
54eec1: 10
443870: 10
61d0d3: 10
67cf4e: 10
5493c0: 10
41d441: 10
411482: 10
556281: 10
555f40: 10
4340c1: 10
549ec9: 10
545300: 10
61d842: 10
545882: 10
411460: 10
61d881: 10
55bc40: 10
5502c1: 10
67c544: 10
67cc81: 10
67c880: 10
550ac4: 10
67ce6f: 10
61d108: 10
545870: 10
61d081: 10
549b81: 10
61d040: 10
61cf00: 10
549ace: 10
6170c4: 10
54c8a0: 10
544ec4: 10
54cb10: 10
67c280: 10
68102b: 10
545042: 10
549b03: 10
47ea60: 10
61ec81: 10
41d410: 10
550cc3: 10
410543: 10
67ccc1: 10
549b40: 10
67cf86: 10
501cb0: 10
546960: 11
501300: 11
5453c6: 12
4340b6: 12
55bf3b: 12
5505f1: 12
55c0cc: 12
55008b: 13
5555c3: 13
54a650: 13
5463e0: 13
555fc7: 13
545341: 13
5583d5: 13
550027: 13
4123c0: 13
546b30: 13
5592a0: 13
549fc1: 13
41d150: 14
559300: 14
559340: 14
4113c4: 14
4ebb8b: 14
53e170: 14
55bb46: 14
546b50: 14
416300: 14
546b90: 14
55233a: 15
549f00: 15
64cb45: 15
67c585: 15
55bfc0: 15
680599: 15
558320: 15
558342: 15
554a84: 15
54cae0: 15
549f83: 15
549f70: 15
550eb0: 16
546ad0: 16
54ef00: 17
47eac0: 17
550f84: 17
54ab40: 17
5504bd: 17
550f03: 17
550280: 17
54aa80: 17
471481: 17
550f40: 17
550e40: 17
54eeb0: 17
55044a: 17
55bf64: 17
550542: 17
47ea80: 17
4ebb63: 18
550a80: 18
555a84: 18
501280: 18
51a641: 18
544e62: 18
62257c: 20
55010d: 20
5525c4: 20
621440: 20
55bf10: 21
544fc0: 21
550400: 22
55000d: 22
550583: 22
6223dc: 22
55bf41: 23
641120: 23
550591: 24
5465c0: 26
55baa0: 26
621ffe: 26
552282: 26
555540: 27
412110: 27
545283: 28
544b74: 29
55be45: 31
622083: 31
548440: 32
622190: 32
62228f: 32
622108: 33
62215a: 35
55bf30: 39
43b430: 47
543401: 47
55c086: 50
551090: 53
64e080: 53
620ae0: 56
4441a6: 62
49c100: 65
545080: 66
47eb80: 75
622581: 85
55bf00: 88
411ba0: 107
47d480: 107
412640: 108
55c010: 109
410641: 115
507650: 117
4c2660: 117
49bf40: 131
55bf60: 149
621f42: 158
433f40: 160
4ebf40: 163
411b01: 169
64cb03: 169
555f06: 173
64e1d0: 174
621f84: 188
49bfab: 197
55b1c0: 212
55c020: 229
4ebf82: 256
555f83: 257
5451c1: 259
55bf83: 273
55115d: 280
64e150: 293
55bac3: 302
416f03: 319
552482: 326
55bad3: 331
412180: 337
558441: 354
443f82: 356
5524a0: 361
544f9e: 371
552440: 371
54547e: 372
545190: 386
49c1c2: 424
4ea002: 436
550002: 446
4ec000: 455
623f00: 461
545180: 473
551001: 474
622407: 510
552120: 528
549100: 533
629184: 583
544b81: 595
55011a: 601
4ebb80: 609
411ac2: 613
64cac3: 613
550b86: 617
555b80: 621
55bba0: 623
544f08: 639
54510b: 641
546640: 641
546401: 644
545000: 644
55564d: 649
55067b: 650
434103: 651
5465b0: 695
5521c1: 759
444180: 761
621435: 794
629170: 809
550b25: 817
544acf: 817
64e1e0: 820
555b04: 822
55bb00: 823
4ebb04: 837
555afa: 838
554ac0: 838
4ebac0: 838
556495: 838
545481: 854
552411: 855
55548c: 856
552598: 857
55214a: 859
552182: 861
552142: 862
555400: 870
545140: 877
5555a4: 881
55b160: 893
5501c2: 916
507581: 989
445142: 995
53f5b0: 1050
558405: 1055
443f00: 1191
62241f: 1215
445148: 1224
6291c1: 1225
4441c1: 1286
621f26: 1450
49c1b0: 1476
550191: 1511
64e160: 1521
506f20: 1549
622002: 1583
548420: 1675
444004: 1698
555f27: 1740
47d430: 1865
549030: 1879
433f36: 1886
54f002: 1889
4ebf30: 1907
556027: 1919
556420: 2077
444140: 2533
550140: 2621
47e5a0: 3568
624580: 3935
47d596: 4622
410598: 4888
4c2586: 4908
400580: 4912
BTB TOTAL     ACCESS:   32873216  HIT:   30947953  MISS:    1925263  HIT %:    94.1434  MISS %:    5.85663   MPKI: 9.62631
BTB Test counter:          0
BTB BRANCH_DIRECT_JUMP	ACCESS:    2330259  HIT:    2330115  MISS:        144
BTB BRANCH_INDIRECT	ACCESS:     674228  HIT:     571149  MISS:     103079
BTB BRANCH_CONDITIONAL	ACCESS:   17721650  HIT:   17721121  MISS:        529
BTB BRANCH_DIRECT_CALL	ACCESS:    3701835  HIT:    3701543  MISS:        292
BTB BRANCH_INDIRECT_CALL	ACCESS:    2371706  HIT:    2363088  MISS:       8618
BTB BRANCH_RETURN	ACCESS:    6073538  HIT:    4260937  MISS:    1812601
BTB BRANCH_OTHER ACCESS:          0  HIT:          0  MISS:          0

L2C TOTAL     ACCESS:    8596150  HIT:    4313305  MISS:    4282845  HIT %:    50.1772  MISS %:    49.8228   MPKI: 21.4142
L2C Test counter:          0
L2C LOAD      ACCESS:    3340323  HIT:    1316551  MISS:    2023772  HIT %:    39.4139  MISS %:    60.5861   MPKI: 10.1189
L2C DATA LOAD MPKI: 10.0042
L2C INSTRUCTION LOAD MPKI: 0.11467
L2C RFO       ACCESS:     483572  HIT:      97921  MISS:     385651  HIT %:    20.2495  MISS %:    79.7505   MPKI: 1.92825
L2C PREFETCH  ACCESS:    1565714  HIT:     311909  MISS:    1253805  HIT %:    19.9212  MISS %:    80.0788   MPKI: 6.26902
L2C DATA PREFETCH MPKI: 6.26902
L2C INSTRUCTION PREFETCH MPKI: 0
L2C WRITEBACK ACCESS:    1815819  HIT:    1811686  MISS:       4133  HIT %:    99.7724  MISS %:   0.227611   MPKI: 0.020665
L2C LOAD TRANSLATION ACCESS:    1390722  HIT:     775238  MISS:     615484  HIT %:    55.7436  MISS %:    44.2564   MPKI: 3.07742
L2C PREFETCH  REQUESTED:    2242995  ISSUED:    2242995  USEFUL:     516099  USELESS:     737741
L2C USEFUL LOAD PREFETCHES:     516099 PREFETCH ISSUED TO LOWER LEVEL:    1705518  ACCURACY: 30.2605
L2C TIMELY PREFETCHES:     516099 LATE PREFETCHES: 66580 DROPPED PREFETCHES: 0
L2C COMMIT LATE PREFETCHES: 0 MISSED OPPORTUNITY: 0 LATE IN PQ: 0 UNCOVERED: 0
L2C COMMIT LATE MSHR PREFETCHES: 0
L2C MPKI TOTAL: 10.1189 MSHR LATE: 0.3329 PQ LATE: 0 COMMIT LATE: 0 MISSED OPPORTUNITY: 0 UNCOVERED: 0
L2C PREFETCHES SAME FILL-ORIGIN LEVEL: 1320385 DIFFERENT FILL-ORIGIN LEVEL: 385133
L2C AVERAGE MISS LATENCY: 146.726 cycles
L2C AVERAGE MISS LATENCY LOAD: 152.73 cycles
L2C AVERAGE MISS LATENCY PREFETCH: 165.315 cycles
L2C AVERAGE MSHR OCCUPANCY: 0.547252
L2C MSHR FULL: 0
L2C RQ	ACCESS:    5214693	FORWARD:          0	MERGED:          0	TO_CACHE:    5214617
L2C WQ	ACCESS:    1815819	FORWARD:         79	MERGED:          0	TO_CACHE:    1815819
L2C PQ	ACCESS:    2242995	FORWARD:          0	MERGED:       5210	TO_CACHE:    2237782

L2C Instructions Evicting Data 19433
L2C Translations Evicting Data 523339
L2C Data Evicting Data 3098120
L2C Instructions Evicting Instructions 340
L2C Translations Evicting Instructions 3136
L2C Data Evicting Instructions 19412
L2C Instructions Evicting Translations 3161
L2C Translations Evicting Translations 89009
L2C Data Evicting Translations 522762
L2C Dense regions hint from L2: 0
558d80: 1
552686: 1
558c20: 1
4c74c0: 1
558cc1: 1
549700: 1
620b25: 1
4c8d53: 1
558d40: 1
4713dc: 1
4117c0: 1
4cce59: 1
620b82: 1
4ebf37: 1
498169: 1
4c7a04: 1
4c8937: 1
558c41: 1
4e0570: 1
41077b: 1
4106b3: 1
501cd7: 1
552c90: 1
680e22: 1
498140: 1
680e01: 1
680de2: 1
61d150: 1
550120: 1
47d441: 1
410751: 1
55be85: 1
4123f4: 1
67c748: 1
498162: 1
4c2595: 1
411c77: 1
63fad2: 1
558a20: 1
5504c0: 1
552470: 1
445101: 1
55ba90: 1
501d8c: 1
4cce4f: 1
558ac4: 1
4c8500: 1
4c7067: 1
4c8d01: 1
558ad6: 1
5906e0: 1
552ad0: 1
549f7c: 1
620e58: 1
552703: 1
4714ac: 1
4c74d9: 1
6814e2: 1
4c79c9: 1
44ab20: 1
4c86c4: 1
4c2680: 1
507688: 1
550680: 1
558cce: 1
550629: 1
501d02: 1
558ca2: 1
449d70: 1
511a84: 1
4c8dc1: 1
550f70: 1
555bc2: 1
4c7a42: 1
4c8cd0: 1
501d6e: 1
54a71e: 1
4cce40: 1
519a46: 1
4c868c: 1
550e84: 1
511c10: 1
4c7044: 1
511a8f: 1
4c7086: 1
552753: 1
4714ec: 1
511ce1: 1
511c80: 1
511c40: 1
511c1a: 1
511a50: 1
558d02: 1
4c8db1: 1
4c8923: 1
556d4b: 1
4c862b: 1
556d8f: 1
556dc0: 1
59071d: 1
4c8703: 1
519a81: 1
55b280: 1
550690: 1
555a70: 1
550a40: 1
550043: 1
444281: 1
54975c: 1
49c0e0: 1
549774: 1
556067: 1
4c8740: 1
550910: 1
558b46: 1
54cad0: 1
558b0a: 1
41d437: 1
558a8b: 1
558d53: 1
558d2d: 1
5557ef: 1
4c703e: 1
558426: 1
554ab2: 1
544ff8: 1
629200: 1
41d1c7: 1
553cdd: 1
4cd010: 1
4ccea2: 1
4c7697: 1
67cda3: 1
545942: 1
4cced6: 1
4cd041: 1
67cd04: 1
544c40: 1
590696: 1
59068b: 1
4e0583: 1
498148: 1
498180: 1
67c681: 1
590680: 1
519a30: 1
4c7020: 1
67cd4f: 1
555504: 2
553c42: 2
549adf: 2
5525ac: 2
550114: 2
55be88: 2
55bbe0: 2
550c30: 2
47e640: 2
5503c1: 2
556dfe: 2
544e90: 2
4ebae4: 2
63fb00: 2
47d471: 2
553be0: 2
6222c1: 2
549741: 2
410520: 2
558dc0: 2
5494b0: 2
550bb3: 2
412417: 2
544cc3: 2
55bfb0: 2
549ef6: 2
6220e6: 2
6220c0: 2
55bcd0: 2
553c02: 2
553c0c: 2
412409: 2
4ebe60: 2
558eae: 2
4c79fa: 2
4c26a3: 2
4113bf: 2
4ebada: 2
552173: 2
558e90: 2
55c055: 2
558eb4: 2
4c8516: 2
44416b: 2
549fb0: 2
549d41: 2
4cce80: 2
412246: 3
4714a7: 3
545947: 3
55c043: 3
545902: 3
5511ce: 3
4e057c: 3
47d5ae: 3
555da8: 3
621e95: 3
54531d: 3
550d38: 3
41631a: 3
556e5c: 3
554ab7: 3
544c2c: 3
555e96: 3
51a630: 3
550849: 3
49815f: 3
5508f0: 3
54492b: 3
55ba40: 3
411b46: 3
55bf2d: 3
620ad3: 3
549d61: 3
4ebaeb: 3
552603: 3
622124: 3
558a37: 4
550608: 4
55bc90: 4
55bed0: 4
4123e1: 4
501cbe: 4
556302: 4
5522cd: 4
4e0580: 4
68062a: 4
55bebd: 4
555e47: 4
5592d2: 4
550b40: 4
4c8508: 4
555b45: 4
55c028: 4
433e41: 4
550338: 4
443f6c: 4
558c2c: 4
5505ce: 5
620b3f: 5
558ec2: 5
64caa0: 5
408910: 5
558a41: 5
553c80: 5
410754: 5
553cc0: 5
411c7a: 5
556e38: 5
558e89: 5
629241: 5
54ff84: 6
550010: 6
412442: 6
553cac: 6
549490: 6
55bec1: 6
558c3d: 6
41242d: 6
544907: 6
55bc80: 6
54ff6a: 6
61d900: 6
550027: 6
47e5a0: 6
6292d0: 6
558ed3: 6
553440: 6
55b73b: 7
64caa6: 7
550cbd: 7
629282: 7
41244b: 7
54ff9a: 7
548301: 7
629304: 7
55030c: 7
550942: 7
550cb3: 7
559488: 7
5502ec: 8
411a80: 8
556500: 8
61ec00: 8
549bc2: 8
41cc10: 8
5432b0: 8
550bc0: 8
55beb5: 8
620af7: 8
501cc2: 8
41241d: 8
544c60: 8
400670: 8
412400: 8
54a680: 8
68024f: 9
67c7c7: 9
556e80: 9
51a7f1: 9
4c2570: 9
557190: 9
55002d: 9
6802fd: 9
68021d: 9
552bd0: 9
556344: 9
6806af: 9
548582: 9
51a843: 9
439c05: 9
557041: 9
5448f0: 9
4e0578: 9
41d422: 9
556fc1: 9
5571c1: 9
6157d0: 9
54a500: 9
556cc0: 9
43b442: 9
556ec2: 9
61d146: 9
556e40: 9
61d7e0: 9
550341: 9
555f06: 9
412241: 9
556f4d: 9
6225c0: 9
548570: 9
556f19: 9
546502: 9
556dd4: 9
556f42: 9
549afd: 9
553500: 9
412200: 9
556fb0: 9
54ff04: 9
5500c0: 9
47d596: 9
557002: 9
550ac4: 9
553340: 9
61d842: 10
443870: 10
549a83: 10
67c76c: 10
67c340: 10
61d040: 10
680f68: 10
5502c1: 10
54976a: 10
410543: 10
622042: 10
67c880: 10
501cb0: 10
549b40: 10
549a7b: 10
680307: 10
67c88c: 10
550241: 10
545042: 10
617080: 10
680f1c: 10
622088: 10
680f80: 10
443880: 10
4340c1: 10
61ec70: 10
556281: 10
549cc1: 10
550201: 10
549ace: 10
471501: 10
411482: 10
552c80: 10
447960: 10
55bf3b: 10
549b81: 10
67c310: 10
6170c4: 10
54eec1: 10
61d108: 10
67c585: 10
67ce6f: 10
550cc3: 10
67c520: 10
61ec81: 10
5012c3: 10
67c5c0: 10
61d0d3: 10
67c885: 10
639783: 10
550c4c: 10
61cef0: 10
549b03: 10
549870: 10
5498c3: 10
54cb10: 10
67ceeb: 10
67c661: 10
55bc40: 10
617100: 10
555f40: 10
67cf4e: 10
549ec9: 10
61d081: 10
680599: 10
680286: 10
550c80: 10
67c67b: 10
4ebb8b: 10
549c70: 10
545870: 10
549881: 10
67c788: 10
41d410: 10
67cf86: 10
67ccc1: 10
61cf00: 10
544c81: 10
67c544: 10
544ec4: 10
5493c0: 10
67ca58: 10
55010d: 10
545882: 10
68102b: 10
51a680: 10
67ce80: 10
550ecd: 10
629270: 10
47ea60: 10
411460: 10
41d441: 10
67c843: 10
67c280: 10
67c33b: 10
67cc4f: 10
54c8a0: 10
545300: 10
681460: 10
5458c0: 10
550505: 10
67cc81: 10
54c8c4: 10
61d881: 10
558e48: 10
54efe0: 10
546960: 11
550cba: 11
4441a6: 11
5453bb: 11
55bf64: 11
501300: 11
55000d: 11
549d13: 12
623f34: 12
550144: 12
5505f1: 12
5453c6: 12
555fc7: 12
54971f: 12
55c0cc: 12
4340b6: 12
5463e0: 13
55008b: 13
47d5ba: 13
47d4b7: 13
546b30: 13
623f65: 13
5592a0: 13
54a650: 13
549fc1: 13
545341: 13
4123c0: 13
559340: 14
55bb46: 14
416300: 14
549f00: 14
559300: 14
546b50: 14
4113c4: 14
41d150: 14
53e170: 14
4117f3: 14
4c2586: 14
64cb45: 14
55bf41: 14
55bfc0: 14
549cd5: 14
546b90: 14
55233a: 15
549f83: 15
555bb1: 15
558320: 15
549f70: 15
554a84: 15
41cc22: 15
55bf10: 15
558342: 15
4c269a: 15
41066e: 15
55b752: 16
550eb0: 16
550280: 16
41065f: 16
411804: 16
546ad0: 16
55833c: 16
54eedc: 17
549c81: 17
55044a: 17
54eeb0: 17
471481: 17
47eac0: 17
550e40: 17
550400: 17
54aa80: 17
550591: 17
54ef00: 17
47ea80: 17
5504bd: 17
54ab40: 17
550f03: 17
550542: 17
5555c3: 17
555bbb: 17
550f40: 17
47d4a3: 17
5012bc: 17
550f84: 17
51a641: 18
439bb0: 18
549390: 18
51a66d: 18
550a80: 18
54cae0: 18
5012f6: 18
5012ed: 18
544e62: 18
555a84: 18
501280: 18
4ebb63: 18
43ad21: 18
620b35: 19
544c9b: 19
621440: 19
47128d: 19
620ac1: 19
44415f: 20
5525c4: 20
51a684: 20
55842d: 20
622260: 20
49bf82: 20
53f48a: 21
549fa0: 21
544fc0: 21
62096e: 21
47d4ab: 22
641120: 22
6223dc: 22
55241b: 22
62201f: 22
556275: 23
620980: 24
552282: 25
55baa0: 25
621dee: 25
4712b7: 26
5465c0: 26
545283: 27
555540: 27
412110: 27
621ffe: 27
621e83: 28
548440: 29
544b74: 29
64e150: 29
621ec1: 29
622083: 30
622581: 30
41cc70: 30
444140: 31
410598: 31
400580: 31
55be45: 31
55bf30: 32
62228f: 32
622190: 32
621e1e: 33
5507b5: 34
4ebaf4: 34
47d5c0: 35
620d89: 35
55b745: 35
43b430: 35
545247: 36
63f85e: 36
54c958: 36
543401: 37
62207f: 38
506f20: 38
47d477: 38
622002: 39
54ff8c: 40
445142: 40
556420: 41
4713b5: 41
55214a: 41
47d53a: 45
622090: 45
64e1d0: 46
416e91: 47
444197: 47
62093b: 48
47d430: 48
443f00: 50
4712c4: 50
55c086: 50
550140: 51
64e080: 52
621f26: 52
551090: 52
620ae0: 53
552142: 53
55003d: 53
5525f5: 54
4ebfa0: 54
47eb80: 55
6408a3: 56
550075: 56
49c100: 56
552130: 58
5525eb: 59
550853: 60
444186: 62
545080: 62
55c010: 62
55214d: 62
62257c: 65
47d608: 70
55bf00: 71
62215a: 75
622108: 76
5549c3: 78
621fdb: 78
623f20: 79
4441c1: 80
47d480: 81
412640: 82
41072e: 84
411ba0: 86
400640: 88
507650: 89
55bac3: 89
4c2660: 91
550965: 91
410641: 92
49bf40: 93
55bad3: 95
620aad: 95
620aa5: 95
620ab7: 95
555f27: 98
548420: 98
556079: 99
550091: 99
544914: 100
550005: 101
552482: 101
55bf60: 101
622010: 101
4c2667: 101
620b09: 103
620aff: 103
621fc8: 104
4ebf7c: 108
433f40: 109
555f38: 109
623f09: 110
43b8f6: 111
556495: 117
50754a: 120
63fad6: 121
550191: 122
506f34: 122
556027: 122
621f42: 123
64cb03: 123
41cc4c: 124
47d3b5: 124
621f84: 124
41cc4f: 125
411b01: 126
54515b: 128
4ea048: 128
49c1b0: 129
5524a0: 131
53e1b9: 132
49bfab: 133
433f36: 134
444004: 135
55b7b0: 135
4ebf30: 139
55c020: 142
624580: 144
555f83: 145
549030: 145
620a3f: 146
4e9fc4: 146
55548c: 147
54f002: 147
620961: 147
411afa: 149
54fff8: 150
64e160: 152
4ebf82: 153
4713a9: 160
54ff23: 160
4ea002: 161
55100a: 162
411aac: 167
5507d2: 170
550b49: 171
555afa: 171
43b43b: 172
555400: 172
558405: 173
444180: 173
55bf83: 174
4441ba: 175
545370: 178
43b438: 180
5451c1: 181
416f03: 182
555f8f: 186
552252: 186
507581: 187
555b04: 187
4117af: 187
47e5da: 189
63fb0d: 190
55b160: 190
55b6fe: 190
4ea0c7: 197
4ebb04: 200
412180: 201
551001: 203
55115d: 205
444216: 205
544acf: 205
5501c2: 207
5521c1: 209
629170: 210
49c1c2: 211
550002: 212
554ac0: 214
544f9e: 215
550b25: 215
55b1e5: 216
55bba0: 217
443f82: 217
4ebb80: 218
55b176: 219
545481: 220
558441: 221
64e1e0: 222
546640: 224
4ebac0: 224
629184: 227
545140: 227
5465b0: 228
6225ab: 229
552120: 233
545000: 234
4712bc: 235
55067b: 235
555b80: 236
411ac2: 237
623f00: 238
552440: 238
64cac3: 238
55564d: 239
55011a: 241
552411: 242
5583d5: 244
546401: 245
53f5b0: 246
550b86: 247
54547e: 250
552598: 252
444178: 253
54510b: 253
4441d5: 256
4713bc: 264
434103: 267
6225da: 278
544b81: 287
544f08: 301
545380: 329
443ff4: 343
555d9d: 347
621435: 361
41d1f7: 362
555f2e: 364
55b1c0: 369
55218c: 383
4ea00b: 394
554a73: 403
411c3e: 406
63f85a: 410
4441eb: 446
55b6eb: 447
471411: 482
5125d4: 483
5507ee: 504
550931: 529
416eb9: 534
62919a: 555
44512a: 558
549370: 572
4713a4: 675
4441ae: 734
54490e: 738
6291bb: 747
6291b5: 771
444028: 788
5525be: 798
4712ab: 814
5555bc: 830
545190: 861
410737: 864
552270: 993
5524d8: 1011
552274: 1011
5524c9: 1021
411780: 1021
555f7c: 1029
4441c7: 1032
549100: 1073
55bb00: 1143
471398: 1154
6291c1: 1158
552182: 1173
620a5d: 1218
55bb22: 1287
54c9b1: 1295
55039d: 1475
4450fb: 1679
550ab2: 1847
545180: 1972
4105d4: 2272
555f5c: 2477
44427d: 2612
550397: 2650
55bb37: 2677
62241f: 2765
41055f: 2986
41191a: 3065
416e8e: 3505
445148: 3541
4ebf44: 3577
623f81: 3932
555b54: 3987
4168b0: 4453
555b1a: 4583
411c4a: 5501
41053f: 5567
47d45d: 6192
411b0d: 6199
6408a0: 6630
4712af: 6888
47136d: 7184
62200b: 7605
411c5f: 7829
471366: 8136
47eb9a: 8252
5555a4: 8721
550a73: 9479
555b34: 9911
507571: 10170
41d1f4: 10751
555f6d: 10898
4168cb: 11117
620aeb: 11282
4ec000: 12024
4168b4: 12068
4ebb70: 12154
621e17: 12178
41054e: 12306
4ebe6b: 12329
4ebf76: 12832
4ebf40: 12941
5507af: 13102
433dff: 13529
62094f: 14047
49c1ec: 14102
412730: 14550
622407: 14996
4ea01d: 15091
416e84: 15934
55bb1e: 16774
444020: 17098
55bb33: 17174
433def: 17468
621ea4: 17615
4340f0: 18405
621e9a: 18673
41218b: 19420
41195a: 19735
55b173: 20192
4e9fc1: 21794
5124e1: 22778
47d453: 24239
47135d: 26174
471359: 27128
544edb: 31722
416eb6: 32522
416eb3: 32823
471394: 33569
416e72: 34239
4168ba: 34260
624599: 37250
54fe9b: 38613
47e5d4: 41061
41cc81: 45977
550ff8: 46433
416ef9: 51467
41cc78: 52007
4ea019: 54268
54fefc: 62878
5432c8: 79224
55bb13: 88409
47133d: 101721
471351: 144917
47134d: 178972
PSCL5 TOTAL     ACCESS:     970334  HIT:     970334  MISS:          0  HIT %:        100  MISS %:          0   MPKI: 0
PSCL5 Test counter:          0
PSCL5 LOAD TRANSLATION ACCESS:     970334  HIT:     970334  MISS:          0  HIT %:        100  MISS %:          0   MPKI: 0
PSCL5 PREFETCH  REQUESTED:          0  ISSUED:          0  USEFUL:          0  USELESS:          0
PSCL5 USEFUL LOAD PREFETCHES:          0 PREFETCH ISSUED TO LOWER LEVEL:          0  ACCURACY: -nan
PSCL5 TIMELY PREFETCHES:          0 LATE PREFETCHES: 0 DROPPED PREFETCHES: 0
PSCL5 COMMIT LATE PREFETCHES: 0 MISSED OPPORTUNITY: 0 LATE IN PQ: 0 UNCOVERED: 0
PSCL5 COMMIT LATE MSHR PREFETCHES: 0
PSCL5 MPKI TOTAL: 0 MSHR LATE: 0 PQ LATE: 0 COMMIT LATE: 0 MISSED OPPORTUNITY: 0 UNCOVERED: 0
PSCL5 PREFETCHES SAME FILL-ORIGIN LEVEL: 0 DIFFERENT FILL-ORIGIN LEVEL: 0

PSCL4 TOTAL     ACCESS:     970334  HIT:     970334  MISS:          0  HIT %:        100  MISS %:          0   MPKI: 0
PSCL4 Test counter:          0
PSCL4 LOAD TRANSLATION ACCESS:     970334  HIT:     970334  MISS:          0  HIT %:        100  MISS %:          0   MPKI: 0
PSCL4 PREFETCH  REQUESTED:          0  ISSUED:          0  USEFUL:          0  USELESS:          0
PSCL4 USEFUL LOAD PREFETCHES:          0 PREFETCH ISSUED TO LOWER LEVEL:          0  ACCURACY: -nan
PSCL4 TIMELY PREFETCHES:          0 LATE PREFETCHES: 0 DROPPED PREFETCHES: 0
PSCL4 COMMIT LATE PREFETCHES: 0 MISSED OPPORTUNITY: 0 LATE IN PQ: 0 UNCOVERED: 0
PSCL4 COMMIT LATE MSHR PREFETCHES: 0
PSCL4 MPKI TOTAL: 0 MSHR LATE: 0 PQ LATE: 0 COMMIT LATE: 0 MISSED OPPORTUNITY: 0 UNCOVERED: 0
PSCL4 PREFETCHES SAME FILL-ORIGIN LEVEL: 0 DIFFERENT FILL-ORIGIN LEVEL: 0

PSCL3 TOTAL     ACCESS:     970334  HIT:     970334  MISS:          0  HIT %:        100  MISS %:          0   MPKI: 0
PSCL3 Test counter:          0
PSCL3 LOAD TRANSLATION ACCESS:     970334  HIT:     970334  MISS:          0  HIT %:        100  MISS %:          0   MPKI: 0
PSCL3 PREFETCH  REQUESTED:          0  ISSUED:          0  USEFUL:          0  USELESS:          0
PSCL3 USEFUL LOAD PREFETCHES:          0 PREFETCH ISSUED TO LOWER LEVEL:          0  ACCURACY: -nan
PSCL3 TIMELY PREFETCHES:          0 LATE PREFETCHES: 0 DROPPED PREFETCHES: 0
PSCL3 COMMIT LATE PREFETCHES: 0 MISSED OPPORTUNITY: 0 LATE IN PQ: 0 UNCOVERED: 0
PSCL3 COMMIT LATE MSHR PREFETCHES: 0
PSCL3 MPKI TOTAL: 0 MSHR LATE: 0 PQ LATE: 0 COMMIT LATE: 0 MISSED OPPORTUNITY: 0 UNCOVERED: 0
PSCL3 PREFETCHES SAME FILL-ORIGIN LEVEL: 0 DIFFERENT FILL-ORIGIN LEVEL: 0

PSCL2 TOTAL     ACCESS:     970334  HIT:     549946  MISS:     420388  HIT %:    56.6759  MISS %:    43.3241   MPKI: 2.10194
PSCL2 Test counter:          0
PSCL2 LOAD TRANSLATION ACCESS:     970334  HIT:     549946  MISS:     420388  HIT %:    56.6759  MISS %:    43.3241   MPKI: 2.10194
PSCL2 PREFETCH  REQUESTED:          0  ISSUED:          0  USEFUL:          0  USELESS:          0
PSCL2 USEFUL LOAD PREFETCHES:          0 PREFETCH ISSUED TO LOWER LEVEL:          0  ACCURACY: -nan
PSCL2 TIMELY PREFETCHES:          0 LATE PREFETCHES: 0 DROPPED PREFETCHES: 0
PSCL2 COMMIT LATE PREFETCHES: 0 MISSED OPPORTUNITY: 0 LATE IN PQ: 0 UNCOVERED: 0
PSCL2 COMMIT LATE MSHR PREFETCHES: 0
PSCL2 MPKI TOTAL: 0 MSHR LATE: 0 PQ LATE: 0 COMMIT LATE: 0 MISSED OPPORTUNITY: 0 UNCOVERED: 0
PSCL2 PREFETCHES SAME FILL-ORIGIN LEVEL: 0 DIFFERENT FILL-ORIGIN LEVEL: 0

LLC TOTAL     ACCESS:    6106106  HIT:    2783230  MISS:    3322876  HIT %:    45.5811  MISS %:    54.4189   MPKI: 16.6144
LLC Test counter:          0
LLC LOAD      ACCESS:    1958843  HIT:     528032  MISS:    1430811  HIT %:    26.9563  MISS %:    73.0437   MPKI: 7.15405
LLC RFO       ACCESS:     383997  HIT:     147073  MISS:     236924  HIT %:    38.3006  MISS %:    61.6994   MPKI: 1.18462
LLC PREFETCH  ACCESS:    1701508  HIT:     291287  MISS:    1410221  HIT %:    17.1193  MISS %:    82.8807   MPKI: 7.0511
LLC WRITEBACK ACCESS:    1446274  HIT:    1439409  MISS:       6865  HIT %:    99.5253  MISS %:   0.474668   MPKI: 0.034325
LLC LOAD TRANSLATION ACCESS:     615484  HIT:     377429  MISS:     238055  HIT %:    61.3223  MISS %:    38.6777   MPKI: 1.19027
LLC PREFETCH  REQUESTED:          0  ISSUED:          0  USEFUL:      94411  USELESS:    1315408
LLC USEFUL LOAD PREFETCHES:      94411 PREFETCH ISSUED TO LOWER LEVEL:    1412507  ACCURACY: 6.68393
LLC TIMELY PREFETCHES:      94411 LATE PREFETCHES: 2286 DROPPED PREFETCHES: 0
LLC COMMIT LATE PREFETCHES: 0 MISSED OPPORTUNITY: 0 LATE IN PQ: 0 UNCOVERED: 0
LLC COMMIT LATE MSHR PREFETCHES: 0
LLC MPKI TOTAL: 7.15405 MSHR LATE: 0.01143 PQ LATE: 0 COMMIT LATE: 0 MISSED OPPORTUNITY: 0 UNCOVERED: 0
LLC PREFETCHES SAME FILL-ORIGIN LEVEL: 321705 DIFFERENT FILL-ORIGIN LEVEL: 0
LLC AVERAGE MISS LATENCY: 167.302 cycles
LLC AVERAGE MISS LATENCY LOAD: 167.881 cycles
LLC AVERAGE MISS LATENCY PREFETCH: 165.762 cycles
LLC AVERAGE MSHR OCCUPANCY: 0.492498
LLC MSHR FULL: 0
LLC RQ	ACCESS:    2958327	FORWARD:          0	MERGED:          0	TO_CACHE:    2958324
LLC WQ	ACCESS:    1446274	FORWARD:          3	MERGED:          0	TO_CACHE:    1446274
LLC PQ	ACCESS:    1705518	FORWARD:          0	MERGED:        545	TO_CACHE:    1704973

LLC Dense regions hint to LLC: 0
4cce4f: 1
4e0570: 1
501d6e: 1
511c10: 1
412417: 1
449d70: 1
550e84: 1
501d8c: 1
4c7067: 1
4c8d01: 1
445101: 1
4c86c4: 1
5906e0: 1
4c868c: 1
558ad6: 1
4c8937: 1
501d02: 1
552703: 1
4ebb8b: 1
558ac4: 1
67c748: 1
552c90: 1
680e22: 1
498140: 1
680e01: 1
680de2: 1
61d150: 1
47d441: 1
501cd7: 1
544907: 1
411c77: 1
4c79c9: 1
4c7a04: 1
55be85: 1
4c8cd0: 1
558c41: 1
6814e2: 1
498169: 1
558cce: 1
54a71e: 1
558a20: 1
549700: 1
558cc1: 1
4c74c0: 1
4c2680: 1
558c20: 1
552686: 1
4cce59: 1
5504c0: 1
4c8dc1: 1
620b25: 1
63fad2: 1
498162: 1
4113bf: 1
552ad0: 1
558e90: 1
4c7a42: 1
507688: 1
4ebae4: 1
5507b5: 1
549f7c: 1
558ca2: 1
4c8500: 1
549adf: 1
511a84: 1
544c9b: 1
620e58: 1
4cce40: 1
519a46: 1
55ba90: 1
555bc2: 1
55bf2d: 1
620b82: 1
4c74d9: 1
41077b: 1
558d80: 1
4117c0: 1
558d40: 1
4c8d53: 1
67cd4f: 1
54cad0: 1
41d437: 1
5557ef: 1
552753: 1
4714ec: 1
4c862b: 1
4c8740: 1
549d41: 1
556d4b: 1
556dc0: 1
67c681: 1
59071d: 1
67cd04: 1
4c8923: 1
67cda3: 1
629200: 1
55000d: 1
554ab2: 1
4c8703: 1
4441a6: 1
544ff8: 1
549ef6: 1
519a81: 1
590696: 1
59068b: 1
590680: 1
558b0a: 1
511c40: 1
511c1a: 1
511a50: 1
511c80: 1
511ce1: 1
4c7086: 1
511a8f: 1
558d02: 1
4c7044: 1
558d2d: 1
558d53: 1
558a8b: 1
4c8db1: 1
556d8f: 1
558b46: 1
550910: 1
55b280: 1
556067: 1
49c0e0: 1
550043: 1
550a40: 1
555a70: 1
550690: 1
444281: 1
54975c: 1
549774: 1
545942: 1
544c40: 1
4cd041: 1
4cced6: 1
4ccea2: 1
4cd010: 1
519a30: 1
4e0583: 1
4c7697: 1
4c703e: 1
4c7020: 1
498180: 1
498148: 1
4cce80: 2
553c02: 2
410520: 2
41cc22: 2
5494b0: 2
558eb4: 2
555bb1: 2
553c42: 2
4c79fa: 2
63fb00: 2
6222c1: 2
550c30: 2
544e90: 2
55bcd0: 2
55bf3b: 2
556dfe: 2
553c0c: 2
4ebaeb: 2
54c958: 2
47d471: 2
550bb3: 2
544cc3: 2
553be0: 2
55c055: 2
556e5c: 2
549fb0: 2
4c8516: 2
6220e6: 2
55bbe0: 2
5503c1: 2
55be88: 2
6220c0: 2
4ebe60: 2
55030c: 2
558dc0: 2
49815f: 2
47e640: 2
554ab7: 3
5511ce: 3
54531d: 3
5505ce: 3
558a37: 3
51a630: 3
550849: 3
622124: 3
552603: 3
55b73b: 3
5508f0: 3
620ad3: 3
55ba40: 3
544c2c: 3
545947: 3
55c043: 3
411b46: 3
4c8508: 3
555e96: 3
549d61: 3
4e057c: 3
555e47: 3
545902: 3
47d5ae: 3
410754: 4
558c2c: 4
433e41: 4
5592d2: 4
550338: 4
558e89: 4
550b40: 4
558ec2: 4
555b45: 4
55bf41: 4
55bc90: 4
68062a: 4
4e0580: 4
5522cd: 4
4123e1: 4
408910: 4
55bf64: 4
443f6c: 4
550853: 4
556302: 4
550cb3: 4
55bebd: 4
558a41: 4
549afd: 4
550608: 4
55bed0: 4
501cbe: 4
411c7a: 4
47e5a0: 5
553440: 5
629241: 5
558ed3: 5
55bf10: 5
64caa0: 5
553cac: 5
553c80: 5
549490: 5
556e38: 5
55003d: 5
41cc70: 5
47d5ba: 5
553cc0: 5
550005: 6
4712c4: 6
620b35: 6
54ff6a: 6
558c3d: 6
55bec1: 6
41244b: 6
55bc80: 6
6292d0: 6
54ff84: 6
556079: 6
41242d: 6
412442: 6
400670: 6
412400: 6
61d900: 6
4e0578: 7
556dd4: 7
55beb5: 7
620af7: 7
64e150: 7
5525f5: 7
64e1e0: 7
41241d: 7
550942: 7
64caa6: 7
548301: 7
629282: 7
4117f3: 7
559488: 7
629304: 7
62201f: 8
61ec00: 8
556f4d: 8
55b745: 8
501cc2: 8
47d596: 8
411a80: 8
54971f: 8
552bd0: 8
544c60: 8
556500: 8
629270: 8
54a680: 8
545300: 8
549bc2: 8
622088: 8
550bc0: 8
55c010: 8
5432b0: 8
558441: 8
623f65: 8
6225c0: 8
41cc10: 8
558e48: 9
556e80: 9
555d9d: 9
553340: 9
556fc1: 9
6802fd: 9
620980: 9
548570: 9
41d422: 9
68024f: 9
546502: 9
6806af: 9
557041: 9
501cb0: 9
550ac4: 9
5500c0: 9
5571c1: 9
623f34: 9
6157d0: 9
439c05: 9
54ff04: 9
556f19: 9
412200: 9
621e83: 9
556f42: 9
553500: 9
54a500: 9
51a843: 9
556fb0: 9
68021d: 9
557002: 9
412241: 9
67c7c7: 9
4c2570: 9
548582: 9
61d7e0: 9
556344: 9
51a7f1: 9
43b442: 9
5448f0: 9
556e40: 9
556cc0: 9
5012c3: 9
61d146: 9
556ec2: 9
550341: 9
557190: 9
549ec9: 9
6170c4: 10
411460: 10
51a680: 10
67ccc1: 10
61ec70: 10
67cf86: 10
549881: 10
545870: 10
61d081: 10
41d441: 10
67c585: 10
67cf4e: 10
61ec81: 10
67ca58: 10
550cc3: 10
617080: 10
54976a: 10
680599: 10
549b40: 10
471501: 10
552c80: 10
411482: 10
5502c1: 10
680307: 10
67c544: 10
47ea60: 10
61d040: 10
545042: 10
67ce80: 10
410543: 10
550c80: 10
68102b: 10
639783: 10
680f68: 10
680f80: 10
680f1c: 10
62096e: 10
67c88c: 10
67c880: 10
67c76c: 10
549ace: 10
67c885: 10
67cc4f: 10
61cf00: 10
67c5c0: 10
67c280: 10
549b81: 10
61cef0: 10
555f40: 10
67c33b: 10
550241: 10
550201: 10
5458c0: 10
67c788: 10
67ceeb: 10
443870: 10
67cc81: 10
67c310: 10
5493c0: 10
556281: 10
549d13: 10
4340c1: 10
54cb10: 10
550c4c: 10
550505: 10
54c8c4: 10
447960: 10
54efe0: 10
549870: 10
67c67b: 10
549c70: 10
61d108: 10
545882: 10
67ce6f: 10
61d0d3: 10
546960: 10
54eec1: 10
67c843: 10
55bc40: 10
622042: 10
5012bc: 10
5498c3: 10
67c340: 10
544c81: 10
549a83: 10
681460: 10
549a7b: 10
41d410: 10
54c8a0: 10
549cc1: 10
550ecd: 10
544ec4: 10
55bf30: 10
443880: 10
549b03: 10
680286: 10
61d842: 10
67c520: 10
61d881: 10
67c661: 10
617100: 10
556275: 11
501300: 11
550cba: 11
5453c6: 11
555f38: 11
5453bb: 11
64cb45: 12
549f70: 12
549f83: 12
549f00: 12
55008b: 12
5592a0: 12
555fc7: 12
545341: 12
550091: 12
63f85e: 12
552482: 12
5505f1: 12
5463e0: 12
55c0cc: 12
47d4b7: 12
4123c0: 12
54a650: 12
55100a: 12
4340b6: 12
546b30: 13
554a84: 13
558320: 13
550002: 13
5549c3: 13
552440: 13
559300: 13
549030: 13
55bad3: 13
559340: 13
55b752: 13
4113c4: 13
546b90: 13
411804: 13
552130: 13
549cd5: 13
55214a: 13
4c269a: 13
416300: 13
55b1e5: 13
4c2586: 13
545000: 13
54cae0: 13
558342: 13
549fc1: 13
55bb46: 14
5507ee: 14
54fff8: 14
546ad0: 14
55bfc0: 14
55842d: 14
47eac0: 14
55044a: 14
55233a: 14
550eb0: 14
53e170: 14
550591: 14
54eedc: 14
555b80: 14
41d150: 14
546b50: 14
5555c3: 15
41066e: 15
550400: 15
471481: 15
550e40: 15
41072e: 15
5504bd: 15
47ea80: 15
54547e: 15
54aa80: 15
54ab40: 15
4ebf7c: 15
550f84: 15
54eeb0: 15
550f40: 15
550280: 15
4ebaf4: 15
621dee: 15
550542: 15
550f03: 15
54ef00: 15
5525c4: 16
41065f: 16
550a80: 16
549c81: 16
544e62: 16
43ad21: 16
4ebb63: 16
501280: 16
4713b5: 16
5012f6: 16
51a641: 16
556027: 16
51a66d: 16
555a84: 16
49bf82: 16
54f002: 17
54ff23: 17
55bac3: 17
47d4a3: 17
5012ed: 17
439bb0: 17
621440: 17
552411: 17
49c1c2: 17
55564d: 17
555bbb: 17
4ea002: 18
433f36: 18
47d608: 18
621ec1: 18
53f48a: 18
51a684: 18
5524a0: 18
552598: 19
6223dc: 19
47128d: 19
5507d2: 19
620ac1: 19
544fc0: 19
47d53a: 19
551001: 19
641120: 19
545140: 20
444004: 20
55067b: 20
552120: 20
622260: 20
55c020: 20
5501c2: 21
5465b0: 21
443f82: 21
549fa0: 21
412180: 21
55241b: 21
55bf00: 21
47d4ab: 22
445142: 22
412110: 22
552142: 22
621ffe: 22
621e1e: 22
444140: 22
552282: 22
54ff8c: 22
62093b: 22
555540: 22
546401: 23
622083: 23
548440: 23
55b6fe: 23
53f5b0: 23
4712bc: 23
545283: 23
5465c0: 23
5521c1: 23
410598: 24
544b74: 24
400580: 24
47d5c0: 24
622190: 24
55baa0: 24
623f00: 24
550b86: 24
64e160: 25
62228f: 25
4ebfa0: 25
556420: 25
620d89: 25
4ebb80: 25
55214d: 25
544b81: 25
555f27: 25
55be45: 26
63fad6: 26
622581: 26
55b160: 26
49bf40: 27
629170: 27
544914: 27
433f40: 27
629184: 28
544f9e: 28
507581: 28
550b25: 28
64cac3: 28
444180: 29
550075: 29
47e5da: 29
43b430: 29
47d477: 29
416e91: 29
545481: 29
4ebf30: 29
55115d: 30
620961: 30
444197: 30
64e080: 30
506f20: 30
411ac2: 30
620ae0: 30
4ea048: 31
546640: 31
47d3b5: 31
622002: 31
4713bc: 31
543401: 31
544f08: 31
54510b: 31
4ebb04: 31
434103: 31
545080: 32
47d430: 32
55011a: 32
55c086: 32
62207f: 33
550140: 33
558405: 33
555f8f: 33
623f20: 34
555afa: 34
55bba0: 34
555f83: 34
50754a: 34
49bfab: 34
400640: 34
551090: 34
43b43b: 34
4ebac0: 35
545247: 35
4ebf82: 35
43b438: 35
416f03: 35
4441c1: 36
556495: 36
507650: 36
621f84: 36
5451c1: 36
47d480: 37
555b04: 37
443f00: 37
544acf: 37
555400: 37
621f26: 38
47eb80: 38
55bf60: 38
4ea0c7: 39
49c1b0: 39
554ac0: 39
4117af: 40
55548c: 40
4e9fc4: 40
621f42: 40
550191: 40
620a3f: 40
506f34: 41
49c100: 41
622090: 42
63fb0d: 42
63f85a: 42
548420: 43
412640: 43
41cc4c: 44
410641: 44
4c2660: 44
43b8f6: 46
55bf83: 47
621fdb: 47
5525eb: 47
41cc4f: 48
53e1b9: 50
6408a3: 51
4713a9: 52
623f09: 55
411b01: 55
622010: 56
411ba0: 56
4441eb: 56
62257c: 58
64cb03: 59
621435: 61
55b7b0: 61
55b176: 62
62215a: 64
622108: 66
62919a: 68
624580: 68
5125d4: 74
55b1c0: 74
621fc8: 76
620aa5: 85
4c2667: 86
550965: 87
620aad: 87
54515b: 88
620ab7: 89
41d1f7: 91
4ea00b: 94
620b09: 96
620aff: 96
444028: 108
416eb9: 112
55039d: 125
411afa: 125
471411: 139
4712ab: 141
411aac: 146
552252: 155
550b49: 161
4441ba: 163
555f7c: 165
545370: 168
550397: 169
55b6eb: 176
6225ab: 204
5583d5: 207
549100: 215
4ebe6b: 224
54c9b1: 230
4441d5: 247
6225da: 268
545380: 318
443ff4: 330
555f2e: 334
55218c: 365
554a73: 401
411c3e: 402
471398: 449
6291b5: 501
550931: 515
44512a: 524
4713a4: 552
549370: 570
6291bb: 685
555b54: 705
4441ae: 708
54490e: 727
5525be: 741
545190: 747
5555bc: 769
410737: 772
6291c1: 882
41191a: 915
552182: 944
552274: 982
552270: 985
55bb00: 995
4441c7: 998
5524d8: 1000
411780: 1020
5524c9: 1020
620a5d: 1108
4450fb: 1138
550ab2: 1245
62241f: 1270
55bb22: 1271
47136d: 1344
545180: 1802
4105d4: 1869
555f5c: 2362
411c4a: 2465
4712af: 2481
44427d: 2568
55bb37: 2628
41055f: 2729
411b0d: 3059
416e8e: 3218
623f81: 3319
445148: 3358
4ebf44: 3561
47eb9a: 3658
4168b0: 3902
411c5f: 4022
471366: 4040
555b1a: 4573
41053f: 5114
621e17: 5654
47d45d: 5690
62200b: 6073
412730: 6196
6408a0: 6489
507571: 6638
4ea01d: 6676
4ec000: 7379
41d1f4: 7899
5555a4: 8051
620aeb: 8547
550a73: 9019
4168cb: 9725
555b34: 9892
555f6d: 10779
4168b4: 11053
41054e: 11296
5507af: 12074
4ebb70: 12098
41195a: 12573
4ebf40: 12773
4ebf76: 12787
433dff: 12886
49c1ec: 13046
62094f: 13719
47e5d4: 14294
416eb6: 14614
444020: 14641
622407: 14666
416e84: 15183
5124e1: 15773
621e9a: 16180
55bb1e: 16388
433def: 16599
55bb33: 16617
47135d: 16778
621ea4: 17085
471359: 17176
4340f0: 18091
41218b: 18270
4168ba: 18728
471394: 19566
55b173: 20109
4e9fc1: 20498
47d453: 22569
41cc78: 23591
4ea019: 25075
54fe9b: 26499
550ff8: 28307
416eb3: 29078
544edb: 30783
416e72: 32135
41cc81: 33541
624599: 36903
54fefc: 37511
47133d: 40308
416ef9: 50056
5432c8: 77876
471351: 83071
55bb13: 87004
47134d: 102849

RAW hits: 3341913
Loads Generated: 66872536
Loads sent to L1D: 63530623
Stores Generated: 37145093
Stores sent to L1D: 37145107
Major fault: 0 Minor fault: 53031
Allocated PAGES: 53031
Total Load insts: 78616493
Total Non-spec loads: 27214582
Percentage of speculative loads: 65.3831
L1D response latency: 110.303 cycles
Load retirement latency: 191.721 cycles

------------------
Depth Distribution
------------------
depth 0: 1770081
depth 1: 1956964
depth 2: 304539
depth 3: 248
depth 4: 0
depth 5: 0
depth 6: 0
depth 7: 0
depth 8: 0
depth 9: 0
depth 10: 0
depth 11: 0
depth 12: 0
depth 13: 0
depth 14: 0
depth 15: 0
depth 16: 0
depth 17: 0
depth 18: 0
depth 19: 0
depth 20: 0
depth 21: 0
depth 22: 0
depth 23: 0
depth 24: 0
depth 25: 0
depth 26: 0
depth 27: 0
depth 28: 0
depth 29: 0
Total: 4031832
------------------
ST read accesses: 1893353
ST write accesses: 1326032
PT read accesses: 29838329
PT write accesses: 2131799
FILTER read accesses: 15310006
FILTER write accesses: 13548899
GHR read accesses: 12164792
GHR write accesses: 195822
PERC read accesses: 202736340
PERC write accesses: 25376664
GHR counter read accesses: 6438770
GHR counter write accesses: 6404384
GHR ip read accesses: 22020027
GHR ip write accesses: 12877540
ST tag read accesses: 1916912104
ST tag write accesses: 381133503

DRAM Statistics
 CHANNEL 0
 RQ ROW_BUFFER_HIT:     285547  ROW_BUFFER_MISS:    3030450
 DBUS_CONGESTED:        447
 WQ ROW_BUFFER_HIT:     221057  ROW_BUFFER_MISS:     822027  FULL:          0

 AVG_CONGESTED_CYCLE: 3
 All warmup complete: 2
Channel 0 Bank busy for read cycles: 0
Channel 0 Bank busy for write cycles: 0
Channel 0
Rank 0
0banks busy for read cycles: 488848371
0banks busy for write cycles: 486312
1banks busy for read cycles: 156236782
1banks busy for write cycles: 70831625
2banks busy for read cycles: 60997085
2banks busy for write cycles: 32419427
3banks busy for read cycles: 28681147
3banks busy for write cycles: 14515043
4banks busy for read cycles: 13796416
4banks busy for write cycles: 5951823
5banks busy for read cycles: 5846497
5banks busy for write cycles: 2115372
6banks busy for read cycles: 2389954
6banks busy for write cycles: 624818
7banks busy for read cycles: 745078
7banks busy for write cycles: 142893
8banks busy for read cycles: 74903
8banks busy for write cycles: 11962

CPU 0 Branch Prediction Accuracy: 98.172% MPKI: 3.83776 Average ROB Occupancy at Mispredict: 37.9686
Branch types
NOT_BRANCH: 158010842 79.0054%
BRANCH_DIRECT_JUMP: 2330259 1.16513%
BRANCH_INDIRECT: 674228 0.337114%
BRANCH_CONDITIONAL: 26837265 13.4186%
BRANCH_DIRECT_CALL: 3701835 1.85092%
BRANCH_INDIRECT_CALL: 2371706 1.18585%
BRANCH_RETURN: 6073538 3.03677%
BRANCH_OTHER: 0 0%

DRAM PAGES: 1048576
Allocated PAGES: 53031
