Initialize SIGNATURE TABLE
ST_SET: 1
ST_WAY: 256
ST_TAG_BIT: 16
ST_TAG_MASK: ffff

Initialize PATTERN TABLE
PT_SET: 512
PT_WAY: 4
SIG_DELTA_BIT: 7
C_SIG_BIT: 4
C_DELTA_BIT: 4

Initialize PREFETCH FILTER
FILTER_SET: 1024

Initialize PERCEPTRON
PERC_ENTRIES: 4096
PERC_FEATURES: 9

*** ChampSim Multicore Out-of-Order Simulator ***

Warmup Instructions: 50000000
Simulation Instructions: 200000000
Number of CPUs: 1
LLC sets: 2048
LLC ways: 16
Secure Berti: OFF
Berti: OFF
Berti Fill: OFF
On commit prefetching: OFF
L2 LLC Bypass speculative loads: OFF
Off-chip DRAM Size: 4096 MB Channels: 1 Width: 64-bit Data Rate: 6400 MT/s
CPU 0 runs /home/sumon/secure_berti/Berti_Baseline/../../traces/spec/623.xalancbmk_s-10B.champsimtrace.xz
.xz
BTB has LRU replacement policy
ITLB has LRU replacement policy
DTLB has LRU replacement policy
STLB has LRU replacement policy
L1I has LRU replacement policy
L1D has LRU replacement policy
PERC_ENTRIES: 4096
L2C has LRU replacement policy
LLC has LRU replacement policy
Heartbeat CPU 0 instructions: 10000002 cycles: 3116949 heartbeat IPC: 3.20827 cumulative IPC: 3.20827 (Simulation time: 0 hr 0 min 32 sec) 
Heartbeat CPU 0 instructions: 20000000 cycles: 6238042 heartbeat IPC: 3.20401 cumulative IPC: 3.20613 (Simulation time: 0 hr 1 min 0 sec) 
Heartbeat CPU 0 instructions: 30000001 cycles: 9380241 heartbeat IPC: 3.18248 cumulative IPC: 3.19821 (Simulation time: 0 hr 1 min 26 sec) 
Heartbeat CPU 0 instructions: 40000003 cycles: 12515370 heartbeat IPC: 3.18966 cumulative IPC: 3.19607 (Simulation time: 0 hr 1 min 56 sec) 
Heartbeat CPU 0 instructions: 50000003 cycles: 15695446 heartbeat IPC: 3.14458 cumulative IPC: 3.18564 (Simulation time: 0 hr 2 min 23 sec) 

Warmup complete CPU 0 instructions: 50000003 cycles: 15695446 (Simulation time: 0 hr 2 min 23 sec) 

Heartbeat CPU 0 instructions: 60000001 cycles: 46853203 heartbeat IPC: 0.320947 cumulative IPC: 0.320947 (Simulation time: 0 hr 3 min 16 sec) 
Heartbeat CPU 0 instructions: 70000000 cycles: 78585844 heartbeat IPC: 0.315133 cumulative IPC: 0.318014 (Simulation time: 0 hr 4 min 7 sec) 
Heartbeat CPU 0 instructions: 80000003 cycles: 110155729 heartbeat IPC: 0.316758 cumulative IPC: 0.317594 (Simulation time: 0 hr 5 min 0 sec) 
Heartbeat CPU 0 instructions: 90000002 cycles: 139922324 heartbeat IPC: 0.335947 cumulative IPC: 0.321992 (Simulation time: 0 hr 5 min 49 sec) 
Heartbeat CPU 0 instructions: 100000003 cycles: 171612851 heartbeat IPC: 0.315552 cumulative IPC: 0.320683 (Simulation time: 0 hr 6 min 41 sec) 
Heartbeat CPU 0 instructions: 110000000 cycles: 199904777 heartbeat IPC: 0.353458 cumulative IPC: 0.325716 (Simulation time: 0 hr 7 min 29 sec) 
Heartbeat CPU 0 instructions: 120000001 cycles: 228299396 heartbeat IPC: 0.352179 cumulative IPC: 0.329251 (Simulation time: 0 hr 8 min 18 sec) 
Heartbeat CPU 0 instructions: 130000000 cycles: 261814359 heartbeat IPC: 0.298374 cumulative IPC: 0.325046 (Simulation time: 0 hr 9 min 14 sec) 
Heartbeat CPU 0 instructions: 140000001 cycles: 294149564 heartbeat IPC: 0.30926 cumulative IPC: 0.323213 (Simulation time: 0 hr 10 min 7 sec) 
Heartbeat CPU 0 instructions: 150000003 cycles: 321434822 heartbeat IPC: 0.366498 cumulative IPC: 0.327076 (Simulation time: 0 hr 10 min 53 sec) 
Heartbeat CPU 0 instructions: 160000000 cycles: 353910989 heartbeat IPC: 0.307918 cumulative IPC: 0.325236 (Simulation time: 0 hr 11 min 43 sec) 
Heartbeat CPU 0 instructions: 170000001 cycles: 383887057 heartbeat IPC: 0.333599 cumulative IPC: 0.325917 (Simulation time: 0 hr 12 min 27 sec) 
Heartbeat CPU 0 instructions: 180000000 cycles: 412912334 heartbeat IPC: 0.344527 cumulative IPC: 0.327277 (Simulation time: 0 hr 13 min 5 sec) 
Heartbeat CPU 0 instructions: 190000001 cycles: 441725815 heartbeat IPC: 0.34706 cumulative IPC: 0.328615 (Simulation time: 0 hr 13 min 42 sec) 
Heartbeat CPU 0 instructions: 200000000 cycles: 471821340 heartbeat IPC: 0.332275 cumulative IPC: 0.328857 (Simulation time: 0 hr 14 min 17 sec) 
Heartbeat CPU 0 instructions: 210000002 cycles: 503183323 heartbeat IPC: 0.318857 cumulative IPC: 0.328213 (Simulation time: 0 hr 14 min 54 sec) 
Heartbeat CPU 0 instructions: 220000000 cycles: 534701647 heartbeat IPC: 0.317276 cumulative IPC: 0.327549 (Simulation time: 0 hr 15 min 30 sec) 
Heartbeat CPU 0 instructions: 230000002 cycles: 563810084 heartbeat IPC: 0.343543 cumulative IPC: 0.328398 (Simulation time: 0 hr 16 min 4 sec) 
Heartbeat CPU 0 instructions: 240000002 cycles: 596235501 heartbeat IPC: 0.3084 cumulative IPC: 0.327281 (Simulation time: 0 hr 16 min 41 sec) 
Heartbeat CPU 0 instructions: 250000003 cycles: 627885326 heartbeat IPC: 0.315958 cumulative IPC: 0.326696 (Simulation time: 0 hr 17 min 17 sec) 
Finished CPU 0 instructions: 200000000 cycles: 612189880 cumulative IPC: 0.326696 (Simulation time: 0 hr 17 min 17 sec) 

ChampSim completed all CPUs

Region of Interest Statistics

CPU 0 cumulative IPC: 0.326696 instructions: 200000000 cycles: 612189880
ITLB TOTAL     ACCESS:   32878754  HIT:   32738583  MISS:     140171  HIT %:    99.5737  MISS %:   0.426327   MPKI: 0.700855
ITLB Test counter:          0
ITLB LOAD TRANSLATION ACCESS:   32878754  HIT:   32738583  MISS:     140171  HIT %:    99.5737  MISS %:   0.426327   MPKI: 0.700855
ITLB PREFETCH  REQUESTED:          0  ISSUED:          0  USEFUL:          0  USELESS:          0
ITLB USEFUL LOAD PREFETCHES:          0 PREFETCH ISSUED TO LOWER LEVEL:          0  ACCURACY: -nan
ITLB TIMELY PREFETCHES:          0 LATE PREFETCHES: 0 DROPPED PREFETCHES: 0
ITLB COMMIT LATE PREFETCHES: 0 MISSED OPPORTUNITY: 0 LATE IN PQ: 0 UNCOVERED: 0
ITLB COMMIT LATE MSHR PREFETCHES: 0
ITLB MPKI TOTAL: 0 MSHR LATE: 0 PQ LATE: 0 COMMIT LATE: 0 MISSED OPPORTUNITY: 0 UNCOVERED: 0
ITLB PREFETCHES SAME FILL-ORIGIN LEVEL: 0 DIFFERENT FILL-ORIGIN LEVEL: 0
ITLB AVERAGE MISS LATENCY: 17.6012 cycles
ITLB AVERAGE MISS LATENCY LOAD: -nan cycles
ITLB AVERAGE MISS LATENCY PREFETCH: -nan cycles
ITLB AVERAGE MSHR OCCUPANCY: 0.00228579
ITLB MSHR FULL: 0
ITLB RQ	ACCESS:   38686209	FORWARD:          0	MERGED:    5771560	TO_CACHE:   32914649

DTLB TOTAL     ACCESS:   36773473  HIT:   35454716  MISS:    1318757  HIT %:    96.4138  MISS %:    3.58616   MPKI: 6.59378
DTLB Test counter:          0
DTLB LOAD TRANSLATION ACCESS:   36773473  HIT:   35454716  MISS:    1318757  HIT %:    96.4138  MISS %:    3.58616   MPKI: 6.59378
DTLB PREFETCH  REQUESTED:          0  ISSUED:          0  USEFUL:          0  USELESS:          0
DTLB USEFUL LOAD PREFETCHES:          0 PREFETCH ISSUED TO LOWER LEVEL:          0  ACCURACY: -nan
DTLB TIMELY PREFETCHES:          0 LATE PREFETCHES: 0 DROPPED PREFETCHES: 0
DTLB COMMIT LATE PREFETCHES: 0 MISSED OPPORTUNITY: 0 LATE IN PQ: 0 UNCOVERED: 0
DTLB COMMIT LATE MSHR PREFETCHES: 0
DTLB MPKI TOTAL: 0 MSHR LATE: 0 PQ LATE: 0 COMMIT LATE: 0 MISSED OPPORTUNITY: 0 UNCOVERED: 0
DTLB PREFETCHES SAME FILL-ORIGIN LEVEL: 0 DIFFERENT FILL-ORIGIN LEVEL: 0
DTLB AVERAGE MISS LATENCY: 67.1458 cycles
DTLB AVERAGE MISS LATENCY LOAD: -nan cycles
DTLB AVERAGE MISS LATENCY PREFETCH: -nan cycles
DTLB AVERAGE MSHR OCCUPANCY: 0.0528143
DTLB MSHR FULL: 0
DTLB RQ	ACCESS:   41712383	FORWARD:          0	MERGED:    4713672	TO_CACHE:   36998711

STLB TOTAL     ACCESS:    1458928  HIT:     494501  MISS:     964427  HIT %:    33.8948  MISS %:    66.1052   MPKI: 4.82214
STLB Test counter:          0
STLB LOAD TRANSLATION ACCESS:    1458928  HIT:     494501  MISS:     964427  HIT %:    33.8948  MISS %:    66.1052   MPKI: 4.82214
STLB PREFETCH  REQUESTED:          0  ISSUED:          0  USEFUL:          0  USELESS:          0
STLB USEFUL LOAD PREFETCHES:          0 PREFETCH ISSUED TO LOWER LEVEL:          0  ACCURACY: -nan
STLB TIMELY PREFETCHES:          0 LATE PREFETCHES: 0 DROPPED PREFETCHES: 0
STLB COMMIT LATE PREFETCHES: 0 MISSED OPPORTUNITY: 0 LATE IN PQ: 0 UNCOVERED: 0
STLB COMMIT LATE MSHR PREFETCHES: 0
STLB MPKI TOTAL: 0 MSHR LATE: 0 PQ LATE: 0 COMMIT LATE: 0 MISSED OPPORTUNITY: 0 UNCOVERED: 0
STLB PREFETCHES SAME FILL-ORIGIN LEVEL: 0 DIFFERENT FILL-ORIGIN LEVEL: 0
STLB AVERAGE MISS LATENCY: 80.7131 cycles
STLB AVERAGE MISS LATENCY LOAD: -nan cycles
STLB AVERAGE MISS LATENCY PREFETCH: -nan cycles
STLB AVERAGE MSHR OCCUPANCY: 0.124522
STLB MSHR FULL: 0
STLB RQ	ACCESS:    1458928	FORWARD:          0	MERGED:          0	TO_CACHE:    1458928

STLB Hit, L1D data hit: 0
STLB Hit, L2C data hit: 0
STLB Hit, LLC data hit: 0
STLB Hit, LLC data miss: 0
STLB STLB hints to L2: 0
L1D TOTAL     ACCESS:   40944739  HIT:   35625092  MISS:    5319647  HIT %:    87.0077  MISS %:    12.9923   MPKI: 26.5982
L1D Test counter:          0
L1D LOAD      ACCESS:   31387713  HIT:   26149033  MISS:    5781355  HIT %:    83.3098  MISS %:    16.6902   MPKI: 26.1934
L1D RFO       ACCESS:    9557026  HIT:    9476059  MISS:      80967  HIT %:    99.1528  MISS %:   0.847199   MPKI: 0.404835
L1D PREFETCH  REQUESTED:          0  ISSUED:          0  USEFUL:          0  USELESS:          0
L1D USEFUL LOAD PREFETCHES:          0 PREFETCH ISSUED TO LOWER LEVEL:          0  ACCURACY: -nan
L1D TIMELY PREFETCHES:          0 LATE PREFETCHES: 0 DROPPED PREFETCHES: 0
L1D COMMIT LATE PREFETCHES: 0 MISSED OPPORTUNITY: 0 LATE IN PQ: 0 UNCOVERED: 0
L1D COMMIT LATE MSHR PREFETCHES: 0
L1D MPKI TOTAL: 28.9068 MSHR LATE: 0 PQ LATE: 0 COMMIT LATE: 0 MISSED OPPORTUNITY: 0 UNCOVERED: 0
L1D PREFETCHES SAME FILL-ORIGIN LEVEL: 0 DIFFERENT FILL-ORIGIN LEVEL: 0
L1D AVERAGE MISS LATENCY: 104.038 cycles
L1D AVERAGE MISS LATENCY LOAD: 103.834 cycles
L1D AVERAGE MISS LATENCY PREFETCH: -nan cycles
L1D AVERAGE MSHR OCCUPANCY: 0.299699
L1D MSHR FULL: 4.77272e-05
L1D RQ	ACCESS:   58691839	FORWARD:          0	MERGED:   25890095	TO_CACHE:   31930388
L1D WQ	ACCESS:    9906424	FORWARD:     871356	MERGED:     124429	TO_CACHE:    9781995

L1D UNIQUE REGIONS ACCESSED: 0
L1D REGIONS CONFLICTS: 0
L1D Cross Page Prefetch Requests: 0
L1D Same Page Prefetch Requests: 0
L1D ROI Sum of L1D PQ occupancy: 0
L1D PREFETCHES PUSHED FROM L2C: 0
52f904: 1
67b4dc: 1
67b4c7: 1
5bfed2: 1
4c081f: 1
4c0783: 1
4c0778: 1
404975: 1
7a6144: 1
67fb46: 1
7b14a3: 1
500cd7: 1
4d0a93: 1
4d0a8f: 1
4c0798: 1
67fae5: 1
7c96c9: 1
4c2181: 1
4c08e9: 1
4c1792: 1
67b558: 1
67b570: 1
4c1337: 1
5297c7: 1
4c12fb: 1
5bf5c0: 1
4c0927: 1
529b6e: 1
501280: 1
4c128f: 1
67e9f0: 1
4c1761: 1
67ba93: 1
5bf5ee: 1
67baa8: 1
4c1348: 1
4c087e: 1
4c12e3: 1
5bec21: 1
67e326: 1
4c0c8e: 1
5bf610: 1
4c1311: 1
4c1318: 1
4c131f: 1
4c1326: 1
5bf6f4: 1
4c088d: 1
4c0c72: 2
7b14d2: 2
4c0941: 2
4c0960: 2
4c081d: 2
5beff1: 2
4d0767: 2
7b3ba8: 2
4c094f: 2
5c5b11: 2
4c0889: 2
5d05b6: 2
5bd245: 2
5297e4: 2
4c109a: 2
4c1097: 2
461670: 2
67b4b8: 2
5139d8: 2
5139c0: 2
4c0937: 2
4c0e71: 2
4c0c66: 2
4d076b: 2
4c0948: 2
5bfc49: 2
5bfc42: 2
5befed: 2
5bf5c7: 2
7b318b: 3
7b13f5: 3
4c0c0c: 3
7b142a: 3
5beaae: 4
7abdeb: 4
4c125b: 4
7a6148: 4
496966: 4
53168a: 5
7a6101: 5
7a7009: 5
7a610f: 5
7a60fa: 5
7ae320: 5
4c1d1c: 5
410e8c: 5
7a608f: 5
7c9523: 5
7a609f: 5
4c6dc0: 5
4a2f90: 5
410efe: 5
649a48: 5
4c1f0f: 5
7abe03: 5
7c96a6: 5
7c94f0: 5
7abcfe: 5
7a6080: 5
5bedb0: 5
4c1f06: 5
5bed9a: 5
4c179f: 5
4c17a5: 5
4c53ea: 5
7ae327: 5
7c9410: 5
7c9663: 6
5fff05: 6
7b35b7: 6
68df6b: 7
7c960a: 7
649ab1: 7
4c139d: 7
7b304a: 7
5bd235: 7
67e330: 8
7b3bcc: 9
5bfce2: 9
7fc219: 9
7fc225: 9
7b3898: 9
7b3b87: 9
64d9df: 10
513a16: 10
4c0b0e: 10
4c10b3: 10
52f9f0: 10
5139cd: 10
59ea21: 10
513a0f: 10
5bef01: 10
4c0900: 10
4c0a13: 10
4c0e74: 10
4c0dfa: 10
406bb0: 10
5d0350: 10
52fa35: 10
59eb1e: 10
4c0911: 10
4c08f9: 10
4c0aff: 10
4cd782: 11
4cd910: 11
7b31c0: 11
7b1aeb: 11
7b1b30: 11
4cd9da: 11
4cd909: 11
5befe9: 11
4d0794: 11
6001d4: 11
4cdbc6: 11
7b1b3c: 11
4cd8ff: 11
4cd807: 11
4cdba1: 11
7b5131: 11
4cdb9d: 11
4c9fe4: 12
4cdaeb: 12
4ca0ed: 12
4c9e62: 12
4ca101: 12
4c9ff8: 12
67b363: 12
4ca2e0: 12
4ca071: 12
4ca2ed: 12
4ca0fd: 12
512b1e: 12
67b35a: 12
512b15: 12
67fb62: 12
67b568: 13
64da0c: 14
67e96e: 14
5bee15: 15
5bee0b: 15
7b1b11: 15
5bedee: 15
5d03ac: 15
67e337: 15
5bee73: 15
5ffa5b: 15
52f98c: 15
59eb21: 19
7b378a: 19
7b3741: 19
406cd0: 20
4d07b2: 20
4c083a: 21
6885f4: 22
4d083b: 24
7c965f: 24
7b3054: 24
52f92f: 25
4a304d: 25
7b31cf: 26
7b31bb: 27
7c9606: 28
688267: 29
7b375b: 29
4d07a5: 30
600402: 31
52f9e9: 31
406c20: 32
6003ee: 33
67b578: 33
52fa12: 33
5bfe60: 34
4d0bde: 34
52fcf7: 34
52fcd9: 34
68d7f8: 35
64d93a: 35
527690: 37
687ae8: 37
64d971: 39
7b3045: 39
64d944: 41
60022b: 41
5139dc: 41
4c1131: 42
5d7678: 42
686948: 43
4ca063: 45
600cdd: 52
52f966: 53
52f98f: 53
429059: 54
64c598: 54
429198: 55
4a3065: 55
505502: 58
52f96d: 59
505a8d: 61
4a2f5d: 63
7b372c: 63
5054ef: 63
64d917: 65
7c94b0: 65
505594: 66
7b1476: 67
504c53: 68
52f5c1: 68
67fb80: 69
4cd6b1: 70
4ef030: 73
4c67fb: 77
4ca81e: 79
5ffa5f: 80
679698: 80
5139f2: 83
52f66c: 84
4c8498: 86
52a319: 86
52a0ad: 86
4c846c: 86
52a09b: 86
4c84b4: 86
4113d7: 86
52af64: 87
4bde21: 89
688b8d: 90
52a990: 90
4c2461: 90
40f46c: 90
4eede4: 90
5accf8: 90
5accf2: 90
5ffcb9: 90
4a3603: 90
5ffcc1: 90
47f755: 90
5c8627: 90
5ffd55: 90
410d6d: 90
4f6c87: 90
68dfa8: 90
40f3e6: 90
47f7c0: 90
4c286a: 90
64a0b0: 90
4a3df6: 91
49605e: 91
4a2f68: 91
4be47a: 91
59d325: 91
4a2f9e: 91
507a76: 91
4290ac: 91
4a2f81: 91
4c6f01: 91
4c12b4: 91
4c6ec2: 91
59d3e7: 91
4a2f73: 91
4a3caa: 91
4f70b8: 91
4a2d60: 91
59d3e4: 91
4be486: 91
4a3e08: 92
51335e: 93
5bfc3d: 93
4c1d6e: 95
429090: 95
59e804: 95
4c1d5b: 95
4c1d61: 95
59e7fc: 95
4d0abd: 95
4c816f: 96
64d6c6: 97
60040f: 97
52f90c: 98
4be476: 99
52f919: 101
4c9e6c: 102
4c9e86: 102
4c9e7f: 102
496607: 102
4c9e69: 102
496614: 103
529d24: 103
64c55b: 104
4c9e9c: 107
5ffa8e: 108
4c1088: 109
4f7102: 110
406bd7: 110
4a2d26: 110
64d96b: 114
600ce6: 114
52f932: 115
429134: 118
4eee00: 123
49692b: 125
64d93e: 134
4a3c92: 136
4eede0: 138
513a27: 141
64d9d0: 143
42908a: 148
7b3178: 149
4c8182: 149
60025d: 150
500d03: 152
688254: 154
5055ea: 154
4c6db1: 155
68d7f1: 157
64c564: 158
52986f: 158
68d7c4: 158
4ca2f0: 158
68d7bb: 160
4eec40: 168
64d9fd: 170
505b68: 172
429055: 172
4f6604: 176
5298a0: 176
4f658b: 176
52a326: 177
64da39: 179
47f72d: 180
410e2e: 181
59eb2f: 181
410da1: 181
4a309b: 182
59d974: 182
5fffc3: 182
4a2d3f: 182
59cd56: 182
7b3590: 183
429220: 186
4c2871: 186
4c79ec: 187
4f65b1: 187
4c1ecf: 189
7b3609: 196
4c3e8e: 196
68864c: 203
4c67bc: 204
59eb16: 206
59f22b: 207
512b27: 211
68d7f4: 211
7b1485: 212
52f5dd: 213
7b1472: 213
688869: 223
687aab: 223
600406: 223
4caa4d: 228
64d9d4: 233
5299b4: 236
687ae4: 237
4eee04: 242
5ae08b: 246
64d911: 252
64c594: 256
64c591: 260
687ae1: 266
47f736: 270
4c6da1: 272
5bfe54: 276
67ee30: 282
59c9f2: 293
4c257f: 294
410cc7: 298
4c242c: 306
4c243d: 308
4c2425: 309
4d07ec: 315
4c2413: 316
4bde61: 317
4c23fd: 317
45fa24: 317
4a3050: 319
4c6d7e: 319
513275: 320
67e1d0: 320
4c26ab: 320
529d28: 320
4c25fc: 322
4c2699: 325
4c26a8: 325
4ef0f0: 327
496347: 327
5297da: 328
496357: 329
4c2589: 329
5ffff5: 329
59d98d: 332
6001f5: 332
59ca00: 333
4c274a: 333
4290d7: 334
4c26c4: 335
59ca03: 336
59ea26: 336
4c67b9: 337
4c108c: 339
688b8a: 341
5055c2: 342
4c269d: 344
5298b0: 344
5ffe83: 351
4c267f: 354
600037: 354
5d764e: 355
4a35e8: 358
5d7644: 359
59f65c: 359
4cdb31: 359
4bde29: 360
5bf552: 360
5139f7: 363
7b3461: 364
4bde47: 366
4bde25: 367
7b50d0: 368
4a3054: 368
4a3061: 371
59cec5: 373
4bdea4: 373
5ffe7f: 373
59d3fa: 374
4be509: 374
513304: 374
600040: 375
429218: 377
4bde1d: 377
59cc6f: 378
4c6f15: 379
7b2f9e: 380
5132f0: 383
4c3d8e: 383
5ff628: 383
4d0c1d: 384
5132e0: 384
4d0c20: 387
4d0bfe: 387
4c2249: 388
7b50f9: 389
67e27b: 391
4d0c63: 393
4a2f64: 394
4bde3d: 396
4c233f: 397
5ffc54: 398
4d0c24: 399
7b31ae: 399
52763a: 402
67ee1a: 402
7b14d8: 403
5ffd99: 404
524d62: 404
4c6d6e: 405
4ba917: 405
688862: 405
4bc32d: 406
600224: 406
4c6d65: 406
7b2fce: 406
4c1775: 407
4c3bfb: 407
4c235c: 408
513288: 408
4c2355: 409
4cd5d7: 409
4c3dfe: 411
4ba909: 411
524d40: 411
64da01: 411
4a306e: 412
4c2346: 412
4caa8b: 412
5c4f9c: 412
67e283: 413
67fadb: 414
4c6ef4: 414
5ae0a9: 414
4c3f2e: 414
51371e: 414
688a2d: 414
5c4f78: 415
688602: 415
5c4f7f: 415
5ae0a0: 416
52a1c9: 416
4be586: 416
4c6bc8: 416
67ba6a: 416
68dfa4: 416
4c2363: 416
4c21ab: 417
67e28b: 417
4a2f54: 418
59d3ef: 419
513265: 419
4c2395: 420
513281: 420
679664: 420
688a2a: 421
4c29fd: 421
5a30a1: 422
410d4e: 422
67bb30: 422
5ffa92: 423
4d07f9: 423
4c6de3: 424
67bbbd: 425
5c4f82: 425
4c031b: 425
67965b: 425
67fb9b: 426
686914: 426
679691: 427
52a1d1: 427
688b97: 427
4ba902: 428
4c02c2: 428
67e0f2: 429
686941: 429
4968ad: 429
68df74: 429
4c2358: 429
59c92b: 429
4c8445: 430
68693d: 430
4ba8fa: 430
686944: 431
5ab99f: 431
505a9f: 432
59d990: 432
4ba8fe: 432
68690b: 432
5316a4: 432
4a2eb5: 433
49689b: 433
4c79dc: 433
5135fe: 434
4c6ed6: 434
531674: 434
5ff617: 434
5135f7: 434
4cd681: 437
4c20d7: 437
4a2eb8: 438
4c3f61: 438
67ee48: 439
4c02bf: 439
679694: 439
496940: 440
688a37: 440
67f068: 440
67ee41: 440
67ee87: 441
4c6ec8: 442
67faee: 442
4c6ebb: 443
67bb40: 445
5055f0: 446
7b5730: 449
4c3f53: 450
5ac310: 459
507a7c: 464
531692: 465
5055a9: 467
42918f: 468
410e5d: 468
461674: 469
513301: 472
4968a0: 472
5c8a35: 480
5010bb: 483
50559a: 484
7b50e4: 485
5ffc06: 486
53168e: 489
68dfa1: 489
410cd7: 496
5bf96b: 503
4603c0: 507
4d0a71: 508
7b34e8: 513
5276a0: 515
64d8e0: 516
52a59b: 517
4c67d2: 519
4ca007: 535
52763f: 541
7b50b9: 542
4968b5: 543
4c29f8: 544
4c0314: 545
4f6c91: 549
5fffbf: 551
5ffca3: 552
5bf57b: 561
4c6794: 563
4c12fe: 566
5276a5: 580
4bc30a: 581
5fffb0: 582
59eb38: 585
504d15: 589
5ffff9: 598
4c1381: 600
410c76: 617
513721: 620
4a3080: 628
504bd1: 629
4eeff0: 631
688854: 662
5010bd: 664
64d8ea: 665
527660: 681
4291ad: 686
429c20: 689
4cdb34: 692
7b35cf: 699
4be569: 700
5fffc7: 705
42919c: 709
4c1356: 712
5010d5: 716
4bc37e: 728
4d0c0d: 732
4ff65d: 752
4cd697: 761
5ffcbd: 813
4c9ea9: 827
4c679b: 852
4ff5aa: 856
59f224: 856
64d6bf: 862
59eb3b: 870
7b1aff: 878
4ff684: 879
52ac09: 917
5ffffd: 925
5fffd2: 926
5c85b5: 945
4968d4: 955
4968a4: 955
4c1376: 965
4c0202: 978
4f70d2: 978
600250: 1012
4f6c95: 1027
531706: 1035
64d6dc: 1039
53170a: 1051
4f70a7: 1075
42921c: 1087
60026e: 1090
600261: 1105
52a864: 1126
4d0bf4: 1228
64dd20: 1271
7c9672: 1275
7c966b: 1275
7c94cb: 1280
7c9619: 1280
7c9612: 1280
5c85b0: 1284
429189: 1292
4291aa: 1301
64d8e4: 1321
5ffed0: 1328
505384: 1370
7b3033: 1386
4c1a42: 1478
52a981: 1510
527657: 1512
410e6b: 1514
4f6c7e: 1564
5276bd: 1582
600265: 1628
600288: 1638
7b5749: 1681
4d07a9: 1761
49692f: 1781
5ffeeb: 1835
410cae: 1895
410cb7: 1962
5fff70: 2051
64da2a: 2063
600255: 2066
600272: 2088
59f242: 2188
64da2e: 2418
505375: 2804
7b2fc7: 3077
46039b: 3272
527669: 3481
5ffeef: 3500
5fff8d: 3717
5d038f: 3840
4be44e: 3853
64d6d7: 4069
4bc35d: 4090
5ffed4: 4601
5ffef3: 4723
5ffee7: 5039
4d0bf8: 5237
4cd692: 6219
5fff83: 6350
59cd89: 91125
59cdb0: 98530
59d4e0: 128905
59cdee: 153373
59cdcb: 174979
59cdcf: 278947
59d4d1: 616061
59cd8d: 621220
59cdf2: 655004
59cde2: 686532
59cd9b: 718481
59cdbf: 724403
L1I TOTAL     ACCESS:   38461937  HIT:   37748358  MISS:     713579  HIT %:    98.1447  MISS %:    1.85529   MPKI: 3.5679
L1I Test counter:          0
L1I LOAD      ACCESS:   38461937  HIT:   37748358  MISS:     937851  HIT %:    98.1447  MISS %:    1.85529   MPKI: 3.5679
L1I PREFETCH  REQUESTED:          0  ISSUED:          0  USEFUL:          0  USELESS:          0
L1I USEFUL LOAD PREFETCHES:          0 PREFETCH ISSUED TO LOWER LEVEL:          0  ACCURACY: -nan
L1I TIMELY PREFETCHES:          0 LATE PREFETCHES: 0 DROPPED PREFETCHES: 0
L1I COMMIT LATE PREFETCHES: 0 MISSED OPPORTUNITY: 0 LATE IN PQ: 0 UNCOVERED: 0
L1I COMMIT LATE MSHR PREFETCHES: 0
L1I MPKI TOTAL: 4.68926 MSHR LATE: 0 PQ LATE: 0 COMMIT LATE: 0 MISSED OPPORTUNITY: 0 UNCOVERED: 0
L1I PREFETCHES SAME FILL-ORIGIN LEVEL: 0 DIFFERENT FILL-ORIGIN LEVEL: 0
L1I AVERAGE MISS LATENCY: 40.3264 cycles
L1I AVERAGE MISS LATENCY LOAD: 40.3264 cycles
L1I AVERAGE MISS LATENCY PREFETCH: -nan cycles
L1I AVERAGE MSHR OCCUPANCY: 0.0271271
L1I MSHR FULL: 0
L1I RQ	ACCESS:   66136066	FORWARD:          0	MERGED:   27449857	TO_CACHE:   38686209

5ffde7: 1
410ccd: 1
67fd4b: 1
67fc52: 1
5ffcc1: 1
67fc03: 1
67fdc0: 1
67fb46: 1
67fb01: 1
5bed84: 1
67fe85: 1
7b34e0: 1
67fcc1: 1
4be504: 1
67fb80: 1
67fbc6: 1
67fd81: 1
67fd00: 1
67fc81: 1
5bed6c: 1
5becc5: 1
5bec86: 1
600001: 1
5bec40: 1
5bec01: 1
7b3019: 1
688060: 2
7b3b35: 2
4c3cc3: 2
7b36df: 3
7b1403: 3
5bed93: 4
600020: 4
5316f0: 4
7b35c4: 4
4c3d06: 5
7a60c0: 5
6796c7: 5
7a7085: 5
7ae320: 5
7a6101: 5
41ac00: 5
679700: 5
7abcf0: 5
7abd03: 5
6869da: 5
7abdf8: 5
7c9501: 5
7c95f0: 5
7c9643: 5
7c9680: 5
7a6140: 5
7c96c4: 5
7abe03: 5
7c93c0: 5
7a6ff0: 5
7a7042: 5
5bedc1: 5
4c3d40: 5
600370: 5
7c9602: 5
679743: 5
7b36fc: 5
7b3703: 5
686982: 5
404940: 5
7a7002: 5
686a01: 5
7a6060: 5
7a6080: 5
7c9482: 6
5fff00: 6
7b3bca: 9
7b3905: 9
7b39cb: 9
7b3a01: 9
7c93c4: 9
7b3a40: 9
825040: 9
7b3898: 9
7b3941: 9
7b3b41: 9
7fc240: 9
7b3501: 9
7b3b84: 9
7fc210: 9
7b1502: 9
7b78c0: 9
7b3c06: 9
5c865a: 9
5bedd3: 10
68d8c3: 11
4ce500: 11
529b81: 12
5bec44: 14
7bd7b0: 15
5beaa0: 15
5beac6: 15
5beeea: 15
5d0342: 15
5bebe4: 15
5d0303: 15
5bee01: 15
5bf505: 15
5d0381: 15
5beb24: 15
5d02d0: 15
5befde: 15
5bef01: 15
5bee73: 15
5d05c3: 15
5d059f: 15
7bd7c4: 16
7bd800: 16
67b505: 16
7b35b7: 17
406c47: 18
687b80: 20
68d841: 20
687b40: 20
68d827: 20
68d890: 20
687b17: 20
59f504: 24
67e944: 24
64da58: 24
68e040: 25
68e000: 25
68dfd7: 25
7b30c2: 26
52fcd4: 29
52fd00: 29
507885: 29
52f9e4: 34
6880a0: 38
429240: 38
429283: 38
52fa43: 41
52f767: 41
52fa01: 41
7b50c0: 44
406cc1: 49
7b5140: 49
4ca180: 51
52f982: 53
52f9d8: 53
505502: 53
52f961: 53
5054e6: 53
7c94c1: 54
64a7c0: 56
507881: 56
64c643: 57
4ca1c1: 58
4ca165: 59
7b33c0: 59
4ca240: 60
4ca201: 60
7b3391: 64
64c600: 65
64c5c7: 65
410e80: 70
505481: 71
5077c2: 80
5c8640: 81
5c86b1: 81
7b1b42: 85
67b540: 85
52a090: 86
52a0c4: 86
4c8870: 86
7b3102: 86
4c85e0: 86
4c8985: 86
4c8602: 86
4c8962: 86
4c856b: 86
4c8642: 86
59cebe: 90
5bc7c0: 90
4e28f8: 90
5ac5c1: 90
5acd43: 90
5ac3c1: 90
47f8de: 90
5ac61a: 90
40f480: 90
5ac520: 90
47f7a7: 90
47f710: 90
40f3e0: 90
67b740: 90
410ed0: 90
64d872: 90
505a99: 90
5ac742: 90
5ac6f3: 90
5c8610: 90
5ac380: 90
47f741: 90
4e2810: 90
64d801: 90
649a83: 90
5ad200: 90
64d7f0: 90
5ac710: 90
5ac540: 90
64da71: 90
5accd0: 90
40f442: 90
40f400: 90
47f7c0: 90
47f884: 90
4e2901: 90
5ac340: 90
5ac581: 90
47f000: 90
5acd01: 90
5ac402: 90
5bc7a0: 90
67e9c1: 90
4c2578: 91
52f6cf: 91
4a2d02: 91
4c1fcc: 91
52fd40: 91
5bfcc0: 91
406ce3: 94
507801: 95
4bc2c0: 96
64d942: 96
64d8c1: 98
7b1b81: 98
5077b0: 99
7b1510: 99
64c2f0: 100
4c2517: 104
7b14d2: 110
410e9c: 111
4cc51f: 123
59d501: 124
5fff6e: 134
7b31ae: 134
64dcd0: 135
42922c: 139
7b36c0: 139
64c550: 141
505471: 141
7b1481: 141
429210: 142
4c3ce0: 142
4eee00: 143
406f00: 143
4ca28d: 143
4eede0: 143
406e10: 143
406cbc: 143
410cc2: 143
529d82: 143
406b41: 143
4c9f78: 143
4ca101: 143
4ca002: 143
4ca2c4: 143
4cc570: 144
67ef01: 144
4c3f16: 144
529c9f: 144
4a2f00: 144
600cc0: 144
4c6f01: 144
5132c2: 144
4c7c82: 144
529cfe: 144
4a2cc0: 144
5a2f01: 144
4a32d4: 144
406ef9: 148
4ca040: 149
7b13c2: 153
429130: 159
429189: 159
7b37d0: 161
7b1b8f: 162
4be560: 166
429040: 167
4069c0: 168
6499e0: 168
527682: 170
507887: 170
505bb7: 170
505a3e: 170
505a87: 170
505a43: 170
67e2d2: 171
505b81: 175
505b5f: 175
429280: 176
4c9ec1: 177
7c9401: 179
59d542: 179
67f100: 181
68ce40: 181
686da0: 181
411320: 181
410e41: 181
410e01: 181
4c3e80: 181
4c0e85: 181
4c110d: 181
410dc0: 181
4c0e01: 181
4c0dc7: 181
4c0e59: 181
4c0c85: 181
5bfe40: 181
5bfe80: 181
4c1048: 182
52fe00: 182
4c8182: 182
4a3c80: 182
52fdf4: 182
429020: 182
5297c7: 189
52f65f: 190
52f904: 190
52f943: 190
4c0ec0: 192
4c67c1: 194
7b3604: 202
64d90d: 207
7b142a: 207
7b1472: 212
7b1380: 212
4069a0: 216
6ee3e0: 216
7b31c0: 216
7b3806: 222
52f5b0: 234
4291c0: 237
7b3843: 237
406c02: 241
406c43: 243
68d7c2: 255
4eec40: 255
50785c: 255
5055d9: 260
496103: 263
4c3ebe: 263
529b60: 267
7b3340: 275
4290c0: 281
52f5c1: 281
429080: 281
7b3784: 285
5bf880: 291
4c29d8: 301
7b358c: 304
4da1e0: 311
7b3741: 317
512b41: 318
530cb0: 320
4da230: 327
5c4f82: 338
7b3203: 338
461680: 340
7b34c6: 344
64d9c0: 345
406bc3: 351
4c25c5: 354
4c41ed: 354
4c2603: 354
4c26c1: 354
7b1aa0: 354
4a2d06: 354
4c2756: 354
5ffdd6: 354
4be3a0: 354
4d0990: 354
4c1fc2: 354
5bd1f0: 354
4c29ef: 354
4c2405: 354
4c2582: 354
4c2687: 354
4c2646: 354
4c2441: 354
59ca00: 354
4c01f0: 354
4c2726: 354
4c2780: 354
4c4202: 354
5c85cf: 356
7b372c: 361
5bfec4: 364
68d7b0: 367
513041: 368
530410: 369
5297c1: 375
5011c2: 376
4c0816: 383
4f717c: 396
4d08c5: 407
4a3040: 407
59d3e0: 408
496054: 415
64da01: 419
52a181: 422
4f7180: 429
67e104: 434
530c2b: 435
64c58d: 436
4c54ea: 438
679773: 439
686a1d: 439
68d5a0: 440
600040: 442
67fb97: 443
67f042: 444
685680: 444
684e10: 444
68ddc0: 444
684e42: 444
4a37c0: 444
686483: 444
686746: 444
67e4d0: 444
685660: 444
59cb43: 444
6483d0: 444
4c1f44: 444
67ed80: 444
678d10: 444
4a3603: 444
4c1dc0: 444
4a3580: 444
686440: 444
679440: 444
513301: 444
686a41: 444
4c3dd0: 444
686900: 444
67968d: 444
600280: 444
686941: 444
501280: 444
501260: 444
4c9e44: 444
513281: 444
678d40: 444
5a3110: 444
4a3b2c: 444
67e38f: 444
59ca80: 444
67effd: 444
513396: 444
5133c0: 444
500d85: 444
4c1e84: 444
5ab990: 444
6797c1: 444
64a0a0: 444
64a0c1: 444
67e5c1: 444
67f0e3: 444
64a72c: 444
52af5c: 444
67eec3: 444
67b4c0: 444
4a3840: 444
67ee80: 444
5a3000: 444
59ca7c: 444
51335a: 444
68cd41: 444
67ee41: 444
4bde42: 444
67e401: 444
679797: 444
67ee02: 444
67edc3: 444
67f002: 444
4a3ac0: 444
45fa10: 444
529e5d: 444
4a3742: 444
68df60: 444
67949a: 444
68dd82: 444
4a3ab0: 444
4c02bf: 444
686701: 444
66ee70: 444
4f6d42: 444
4cd780: 444
679650: 444
5c5b0c: 444
4a38d3: 444
4f6d3b: 444
59cc58: 444
4a3980: 444
5ac310: 444
59cec0: 444
501178: 444
501180: 444
4bde9f: 444
5ffe83: 444
5bf490: 444
4c1283: 444
4c9fc2: 444
4a369f: 444
67fad0: 444
4cdb9d: 444
68ce30: 444
5010c3: 444
5bfc80: 444
527370: 444
4c9e10: 444
529e80: 444
5010b0: 444
513010: 444
4a3804: 444
4a3941: 444
64dd94: 444
5bd243: 444
4f6c82: 444
500d01: 444
67e241: 444
67e283: 444
4a3642: 444
67e461: 444
59cb1c: 444
4a3703: 444
5135a0: 444
5bf4d1: 444
4c9e86: 444
67e3c6: 444
64a6e0: 444
6866c0: 444
5a3080: 444
4f6c70: 444
67e5a7: 444
5bfc42: 444
4a379f: 444
4a3904: 444
5135e9: 444
5134fa: 444
4a35c4: 444
64dd00: 444
4a36c0: 444
67e9d0: 444
64dd40: 444
4c84c1: 445
4c7469: 445
52a388: 445
4c6881: 445
4c6bc0: 445
4c9043: 445
5258c1: 445
4c6bb2: 445
5bf960: 445
59d341: 445
4c7482: 445
4a3de0: 445
4c6dc0: 445
4c6806: 445
4c6ec2: 445
5c7fd0: 445
59c910: 445
4c68c1: 445
4c3e42: 445
52a150: 445
5ff803: 445
4c3d80: 445
4bdf70: 445
4c3c80: 445
4cc650: 445
4c931c: 445
5bfb80: 445
501210: 445
4cc4c4: 445
5ffb40: 445
4cc490: 445
5ff940: 445
5ff980: 445
5c4e81: 445
4c760b: 445
5c4e70: 445
513990: 445
4c3e05: 445
4c7a03: 445
4a2f81: 445
4c415d: 445
4a2d9d: 445
4c6d42: 445
4ca8e0: 445
496963: 445
5ac141: 445
5ae1c0: 445
4caecb: 445
5ae080: 445
4cae00: 445
4f717e: 445
4c4102: 445
59cd40: 445
4c87b4: 445
4c3ec1: 445
4c684c: 445
4be4c0: 445
5ae227: 445
4caa8b: 445
5ffd03: 445
4c6d82: 445
4ca990: 445
5ffb20: 445
5ae180: 445
4ca800: 445
4c83c0: 445
4ca7c1: 445
52a1c2: 445
4ca7b0: 445
4c6985: 445
5ff600: 445
4f665d: 445
52a283: 445
4c7c57: 445
5ff640: 445
5ff753: 445
5ff783: 445
4c782f: 445
5ff9c1: 445
4bdf82: 445
5ff910: 445
7bd782: 445
4bdfc1: 445
59cd20: 445
4a2eb5: 445
5ffa50: 445
5ffa82: 445
600470: 445
59da02: 445
4f7102: 445
4be481: 445
4a2ec2: 445
59d380: 445
4cc7da: 445
59d7f0: 445
59d958: 445
4ca943: 445
4c3f40: 445
4a2fc1: 445
426fc0: 445
4c6b5a: 445
4c7999: 445
4a2c90: 445
52a68a: 445
4c79c4: 445
4a3290: 445
4dde10: 445
4c6eaf: 445
59d9c0: 445
59cd80: 445
59cdc2: 445
59ce02: 445
59d4c3: 445
59d4b0: 445
59d5c4: 445
4ca901: 445
59ce43: 445
4caba0: 445
5ffe02: 445
4d08b8: 445
59d464: 445
4c0310: 445
4a3080: 445
600483: 445
5ffe40: 445
5ffd42: 445
6003e0: 445
4f65c0: 445
600400: 445
4c40f7: 445
4c69ca: 445
5ffb81: 445
4c8150: 445
5ac181: 445
4bde06: 445
525840: 445
525881: 445
5c5aaf: 445
59c95a: 445
4c7a42: 445
59c984: 445
59c9c0: 445
5ae440: 445
4c94a0: 445
59d981: 445
4a2d43: 445
4c6902: 445
5ae16d: 445
4c7a81: 445
59c600: 445
52a319: 445
59d803: 445
41f860: 445
4c94c7: 445
52a27f: 445
4c6a04: 445
4a3018: 445
4cc6c5: 445
52a597: 445
4dde70: 445
4be0c0: 445
4cadd0: 445
4a3e01: 445
4c7f60: 445
4c9425: 445
4caa4d: 445
4c759e: 445
4c9000: 445
4c6d10: 445
4c8b10: 445
4c6a46: 445
4c93f8: 445
505a89: 445
4d0842: 445
4a2f41: 445
5ffc82: 445
4c9440: 445
4c7d80: 445
4c8400: 445
4c8a60: 445
52a62a: 445
4c8388: 445
52a705: 445
52a6fd: 445
5ff7c0: 445
5ffd80: 445
4cab50: 445
4ca9c0: 445
495fd0: 445
4c8480: 445
4c7d7e: 445
600214: 445
4c8351: 445
4c7dc2: 445
4c2242: 445
5055c2: 445
5ac110: 445
505bbd: 445
4dde80: 445
4bdde0: 445
524d40: 445
5ca043: 445
4c8442: 445
5ca020: 445
59d310: 445
5ca081: 445
5ca0ca: 445
5ff682: 445
52a5c0: 445
5fffc3: 447
5c5a20: 448
5c5a42: 448
59f1f0: 449
4603c0: 449
496600: 449
4c0200: 449
6001c0: 449
4cd5c0: 451
5a2ee0: 452
5ffed0: 453
64a801: 454
4cd770: 460
7bd760: 460
4ef030: 461
504fcb: 466
4eeff0: 466
529d01: 467
5bf957: 470
4bc3a4: 477
7c94a0: 477
4cd601: 498
410d87: 501
4c1480: 506
4c67cd: 507
67e1c2: 514
59f4b0: 517
67b4b0: 517
67bb01: 520
4c0781: 522
527780: 523
529d6e: 526
5059c1: 530
410efa: 530
7b3483: 532
67bac2: 533
688080: 534
52ca00: 535
52cadb: 535
52cb01: 535
4c1d83: 535
52c900: 535
52caa2: 535
52c942: 535
52ca40: 535
4cd9d0: 537
406b80: 537
4f65c2: 539
505588: 543
4d07c1: 545
7b50b0: 556
7b3083: 556
4cd7c4: 557
429277: 561
410d25: 569
460390: 573
4d0b5b: 574
4f6486: 583
410c90: 583
504c91: 588
52aeef: 589
4cd801: 590
7c9430: 594
5c85a0: 595
4c1ec2: 597
4c0a13: 599
529898: 599
52986f: 599
4c1140: 600
4ce48c: 605
5c86c0: 615
5c8702: 615
505961: 615
4ef0f0: 615
505981: 615
5c8740: 615
4c1e48: 616
530c37: 616
507a76: 620
4ff680: 620
4ff71c: 620
5053c1: 620
504b50: 620
5079c1: 620
507ac0: 620
505280: 620
507a02: 620
507a82: 620
5079b0: 620
4ff5a0: 620
4ff65d: 620
67bb40: 621
5c85c1: 624
59eb41: 625
59ed96: 626
51381e: 629
505381: 630
4be593: 632
4f6640: 632
68d602: 639
5139c0: 641
649a45: 646
6493a0: 653
4d0800: 654
4c23e3: 654
7b35cf: 669
4d09a9: 673
4f69c2: 678
4c13ea: 688
4963c0: 688
4c53df: 688
461686: 693
529b99: 693
67e98a: 697
5bd220: 699
59e7f0: 701
4c2383: 702
505ac2: 705
4eefb0: 705
5299b4: 706
529c0f: 706
529943: 706
5256c0: 706
5298f4: 706
4c0a08: 706
529902: 706
649aa3: 710
406c08: 714
67b580: 717
59e9c2: 725
4d0781: 736
5bf580: 743
52f160: 759
4c1381: 759
496581: 767
7b3142: 770
4f6581: 777
500d6d: 789
4c1d4d: 789
68cd30: 789
68dd50: 789
4c1d12: 789
504b85: 790
504d15: 790
505310: 790
504c36: 790
504bc0: 790
504c50: 790
504fa0: 790
5bfd00: 790
505b20: 790
504d41: 790
505bc0: 790
505342: 790
7b5740: 791
529781: 793
684f80: 805
68d5c3: 808
4c1821: 812
5d7670: 815
6ec681: 817
527380: 817
59f140: 823
64da81: 824
649981: 825
67e8f0: 827
5c8810: 828
5135f7: 831
59e800: 832
4963b0: 833
4c0c47: 837
4113d0: 842
4ba8e0: 847
4aa150: 851
4c08c0: 857
68d8d3: 858
4ba902: 861
64da40: 863
5ffc40: 889
649ac2: 892
406b1f: 892
4c0900: 901
64d8a0: 910
6878c1: 932
4c1784: 933
4c10c1: 946
4f6450: 951
64d6c3: 953
4ca0c0: 954
4c6781: 955
4ca317: 959
4c2158: 962
406880: 965
512b80: 967
68d902: 968
67e901: 968
4ca081: 970
410d40: 971
672960: 977
4cda60: 978
7b343f: 981
4c2304: 982
4f6602: 984
4f6990: 985
5bf60e: 1007
527620: 1007
67b417: 1010
4968c4: 1013
67e419: 1013
4c1081: 1023
687900: 1026
410c70: 1040
688602: 1043
685610: 1043
649a11: 1059
52984f: 1060
530bc0: 1061
513601: 1071
4f6680: 1077
4f70c0: 1077
4f70a0: 1077
406ac7: 1082
64c300: 1122
64c697: 1123
64c6c1: 1125
6885e0: 1130
7b30d6: 1132
7c9440: 1141
4d0c56: 1143
64d9b0: 1147
4c1c40: 1156
4c3c40: 1156
68dc60: 1162
64c342: 1163
7b1b03: 1181
52a981: 1190
4ba941: 1191
6498c2: 1194
4c1fb5: 1194
64d900: 1196
4c9f93: 1202
7b1ac0: 1234
59e982: 1238
4be420: 1264
4c0941: 1276
64d680: 1277
6855d0: 1284
688909: 1289
67e963: 1292
7b5730: 1294
4c0b94: 1294
496880: 1294
600341: 1298
687882: 1303
687aa0: 1304
687870: 1304
4c286a: 1304
4c0885: 1304
4c0c07: 1305
4c0760: 1305
4c0843: 1305
4c0bc0: 1305
68d400: 1320
4cd8e8: 1324
4cd906: 1324
4cd896: 1324
67bad4: 1330
67b745: 1335
4cd950: 1339
68e0c2: 1340
5bf5c0: 1342
688240: 1351
67e442: 1364
4bc300: 1365
49694f: 1367
67bb30: 1370
5c8a40: 1375
4bc346: 1383
7b3446: 1398
649970: 1406
4c5403: 1406
4c1404: 1406
406944: 1406
4c0af8: 1411
4c0b02: 1419
4960c9: 1442
5fff83: 1454
4c2461: 1460
59eba0: 1460
4c8b25: 1461
426fa0: 1462
4cd6c1: 1467
4c20c3: 1477
4cd700: 1477
496900: 1479
67b350: 1479
59e912: 1482
67e0c0: 1485
496430: 1485
4c422a: 1489
427088: 1500
4ce450: 1505
688b80: 1506
67e303: 1524
67e340: 1527
687680: 1527
68df80: 1538
52af81: 1539
687ac0: 1548
688691: 1555
67bb82: 1562
4aa241: 1564
6498b0: 1566
51389d: 1567
67ba80: 1567
688a81: 1567
59f240: 1568
600250: 1568
688840: 1572
4c1841: 1579
65e860: 1582
4be444: 1594
7b1bc1: 1598
68e083: 1607
513083: 1607
513aa2: 1608
513b80: 1610
531700: 1612
52769c: 1613
496340: 1614
6ec670: 1615
687c02: 1636
5276c1: 1638
4c1969: 1642
59ea41: 1649
5c8a10: 1651
4baa09: 1651
513241: 1655
513740: 1658
59f201: 1659
4c2095: 1659
59f742: 1659
59f73e: 1659
59ea10: 1659
4d0750: 1659
513a00: 1659
529770: 1659
4c2343: 1660
512b01: 1691
68864c: 1694
512ae0: 1730
4c1242: 1736
4c4241: 1736
67b6ac: 1737
513230: 1741
51370e: 1748
527774: 1749
4d0a8f: 1749
5c8841: 1749
4c6744: 1749
52a850: 1749
4c1751: 1749
5d7680: 1750
67e201: 1758
5bf6da: 1760
64da2a: 1761
4aa238: 1762
4c5302: 1762
4c1302: 1762
461660: 1765
59eb05: 1773
531680: 1784
4c1344: 1787
4d0c02: 1790
64c673: 1797
4cd681: 1801
5a36e0: 1807
5136ca: 1807
513ae6: 1808
4c16da: 1808
600330: 1810
59e942: 1812
52a95f: 1812
68d440: 1814
513b01: 1820
4cdb01: 1832
4c1210: 1843
4cdaeb: 1845
4c145a: 1848
429c20: 1859
496443: 1862
67b70b: 1884
67b640: 1884
67ea02: 1884
687bc3: 1888
59f640: 1899
688a74: 1905
4c1b17: 1912
5bf690: 1954
4d0ac2: 1954
685650: 1960
687650: 1973
5ffc01: 1991
4c1a42: 1993
67ba50: 1995
4d0a50: 1996
5d7640: 2009
7b3b03: 2025
7b3ae8: 2027
4cda04: 2072
67bc00: 2080
52ac00: 2081
4c1c2b: 2081
5bfc02: 2122
4c3c02: 2122
527708: 2140
5bfbe0: 2150
5ffbe0: 2153
59ebc0: 2153
4d0bc6: 2153
4cdbc1: 2163
688a20: 2179
4c2a01: 2179
64d702: 2230
527642: 2233
4c1641: 2233
5a370c: 2310
4c6720: 2310
67bbc0: 2332
4c1a2e: 2357
68eac0: 2385
4c1700: 2395
4c3be0: 2417
4cd649: 2593
531670: 2689
BTB TOTAL     ACCESS:   33166963  HIT:   32847082  MISS:     319881  HIT %:    99.0355  MISS %:   0.964457   MPKI: 1.5994
BTB Test counter:          0
BTB BRANCH_DIRECT_JUMP	ACCESS:     525802  HIT:     523852  MISS:       1950
BTB BRANCH_INDIRECT	ACCESS:      94835  HIT:      37758  MISS:      57077
BTB BRANCH_CONDITIONAL	ACCESS:   27817704  HIT:   27808171  MISS:       9533
BTB BRANCH_DIRECT_CALL	ACCESS:    1305271  HIT:    1301665  MISS:       3606
BTB BRANCH_INDIRECT_CALL	ACCESS:    1059042  HIT:    1046753  MISS:      12289
BTB BRANCH_RETURN	ACCESS:    2364309  HIT:    2128883  MISS:     235426
BTB BRANCH_OTHER ACCESS:          0  HIT:          0  MISS:          0

L2C TOTAL     ACCESS:   11300047  HIT:    3585120  MISS:    7714927  HIT %:    31.7266  MISS %:    68.2734   MPKI: 38.5746
L2C Test counter:          0
L2C LOAD      ACCESS:    5952259  HIT:    1994264  MISS:    3957996  HIT %:    33.5043  MISS %:    66.4957   MPKI: 19.79
L2C DATA LOAD MPKI: 18.9518
L2C INSTRUCTION LOAD MPKI: 0.838225
L2C RFO       ACCESS:      80953  HIT:      25806  MISS:      55147  HIT %:    31.8778  MISS %:    68.1222   MPKI: 0.275735
L2C PREFETCH  ACCESS:    4144909  HIT:     675363  MISS:    3469546  HIT %:    16.2938  MISS %:    83.7062   MPKI: 17.3477
L2C DATA PREFETCH MPKI: 17.3477
L2C INSTRUCTION PREFETCH MPKI: 0
L2C WRITEBACK ACCESS:     153180  HIT:     152563  MISS:        617  HIT %:    99.5972  MISS %:   0.402794   MPKI: 0.003085
L2C LOAD TRANSLATION ACCESS:     968746  HIT:     737124  MISS:     231622  HIT %:    76.0905  MISS %:    23.9095   MPKI: 1.15811
L2C PREFETCH  REQUESTED:    6057626  ISSUED:    6057626  USEFUL:    1037970  USELESS:    2431447
L2C USEFUL LOAD PREFETCHES:    1037970 PREFETCH ISSUED TO LOWER LEVEL:    4404031  ACCURACY: 23.5686
L2C TIMELY PREFETCHES:    1037970 LATE PREFETCHES: 326069 DROPPED PREFETCHES: 0
L2C COMMIT LATE PREFETCHES: 0 MISSED OPPORTUNITY: 0 LATE IN PQ: 0 UNCOVERED: 0
L2C COMMIT LATE MSHR PREFETCHES: 0
L2C MPKI TOTAL: 19.79 MSHR LATE: 1.63034 PQ LATE: 0 COMMIT LATE: 0 MISSED OPPORTUNITY: 0 UNCOVERED: 0
L2C PREFETCHES SAME FILL-ORIGIN LEVEL: 3795616 DIFFERENT FILL-ORIGIN LEVEL: 608415
L2C AVERAGE MISS LATENCY: 128.006 cycles
L2C AVERAGE MISS LATENCY LOAD: 122.919 cycles
L2C AVERAGE MISS LATENCY PREFETCH: 128.977 cycles
L2C AVERAGE MSHR OCCUPANCY: 1.18704
L2C MSHR FULL: 0
L2C RQ	ACCESS:    7001973	FORWARD:          0	MERGED:          0	TO_CACHE:    7001959
L2C WQ	ACCESS:     153180	FORWARD:         14	MERGED:          0	TO_CACHE:     153180
L2C PQ	ACCESS:    6057626	FORWARD:          0	MERGED:      29816	TO_CACHE:    6027810

L2C Instructions Evicting Data 159352
L2C Translations Evicting Data 221639
L2C Data Evicting Data 6933916
L2C Instructions Evicting Instructions 5123
L2C Translations Evicting Instructions 3191
L2C Data Evicting Instructions 159227
L2C Instructions Evicting Translations 3170
L2C Translations Evicting Translations 6792
L2C Data Evicting Translations 221900
L2C Dense regions hint from L2: 0
4eede4: 1
496966: 1
4d07a5: 1
5bec40: 1
5bed6c: 1
600001: 1
4d07b2: 1
67fb01: 1
67ee1a: 1
7b1b3c: 1
67fcc1: 1
4bc32d: 1
5becc5: 1
67fc52: 1
5bec01: 1
7b3019: 1
4cd8ff: 1
67fd81: 1
67fe85: 1
67fd00: 1
67fc81: 1
67fbc6: 1
4c3cc3: 1
7b1b11: 1
67fdc0: 1
5bed84: 1
5bec86: 1
7b30c2: 1
4c2413: 1
7b34e0: 1
7b35c4: 1
5bec21: 1
5ae08b: 1
67fc03: 1
68d8c3: 1
410e8c: 1
5bfce2: 1
67fd4b: 1
4be504: 1
513a16: 1
5beaae: 2
7b3bcc: 2
4d083b: 2
7b304a: 2
7b5131: 2
429090: 2
7abcfe: 2
64c55b: 2
67fb46: 2
7b3ba8: 2
688060: 2
7b35b7: 2
500d03: 2
7b318b: 3
5bfc3d: 3
7b378a: 3
4c1ecf: 3
686a01: 3
679743: 3
5bed93: 4
5316f0: 4
67ee30: 4
5bed9a: 4
679698: 4
4c2395: 4
7b36fc: 4
7c960a: 4
7b3b87: 4
600020: 4
4cd782: 4
5c4f9c: 4
7c96c4: 5
7c95f0: 5
7abcf0: 5
7b3054: 5
404940: 5
7a609f: 5
7c94f0: 5
679700: 5
41ac00: 5
7a6140: 5
7abdf8: 5
5bedc1: 5
7c9501: 5
7c9680: 5
7c9523: 5
7ae327: 5
7c9410: 5
6869da: 5
7b3703: 5
686982: 5
4c3d06: 5
7a6101: 5
7c9602: 5
4c29f8: 5
7c93c0: 5
64c643: 5
4c3d40: 5
7abe03: 5
7c9643: 5
7abd03: 5
7a7002: 5
7a7085: 5
5bedb0: 5
7a7042: 5
7a6060: 5
6796c7: 5
7a608f: 5
7a6ff0: 5
7a60c0: 5
7c9663: 6
5fff05: 6
4c9e69: 6
5bfe54: 6
4c12fe: 6
505a87: 6
7ae320: 6
7c9482: 6
5fff00: 6
496607: 7
4c3dfe: 7
4a3e08: 8
7fc225: 8
4c0314: 8
51335e: 8
7c93c4: 9
7b39cb: 9
7fc219: 9
5c865a: 9
7b3c06: 9
7fc240: 9
7b3bca: 9
825040: 9
686948: 9
7fc210: 9
7b3b84: 9
7a6080: 9
7b1502: 9
7b3a01: 9
7b3501: 9
7b3a40: 9
7b3905: 9
7b3941: 9
7b3b41: 9
7b78c0: 9
5d0350: 10
64d9df: 10
5bedd3: 10
600224: 10
7bd7b0: 11
4ce500: 11
52f98f: 11
5ffa5b: 12
7b3045: 12
68d7f8: 12
5bedee: 12
67fb62: 12
68dfa8: 13
7b31bb: 13
7b375b: 13
505a8d: 13
52a0ad: 13
5bec44: 14
5276a0: 14
600402: 14
406c47: 14
64da0c: 14
505bb7: 15
5d0303: 15
5bee01: 15
5beaa0: 15
40f46c: 15
5bebe4: 15
5d02d0: 15
5beb24: 15
5bee0b: 15
5d0342: 15
5beeea: 15
5d059f: 15
5d05c3: 15
5bee73: 15
5bef01: 15
5bf505: 15
5beac6: 15
5befde: 15
5d0381: 15
7b3590: 16
7bd7c4: 16
4c6794: 16
7bd800: 16
40f3e6: 16
67b505: 16
4bde29: 17
7c9606: 17
60025d: 18
7b3898: 18
687ae8: 19
4c67d2: 19
6003ee: 19
7b31cf: 20
4290ac: 20
68d890: 20
68d827: 20
687b17: 20
687b40: 20
68d841: 20
687b80: 20
59cc6f: 20
4968b5: 20
7c965f: 20
59eb3b: 20
5d7678: 21
429283: 21
5bf552: 21
64d93a: 21
52fcd9: 22
496347: 22
7b1b81: 22
67bbbd: 23
7b3178: 23
504c53: 23
59f504: 23
5132f0: 23
4c25fc: 23
4c67b9: 24
59d325: 24
64c598: 24
429240: 24
4bc37e: 25
4bdea4: 25
68e040: 25
4d0c63: 25
68e000: 25
68dfd7: 25
4f70b8: 26
4a3caa: 26
4c8b10: 26
4c0a13: 26
429198: 27
52f9e9: 27
527690: 28
52fa12: 28
52fa43: 29
52f9e4: 29
52fa01: 29
52fd00: 29
52fcf7: 29
52f767: 29
649aa3: 29
52fcd4: 29
7c94b0: 29
4a2d02: 30
4968ad: 30
4c4202: 30
59eb2f: 31
4d0c20: 32
4a3df6: 32
406cc1: 32
5054ef: 33
4a3050: 33
59eb16: 34
5ffcc1: 34
4ba909: 35
4d0bfe: 35
7b1b8f: 35
5bf57b: 36
4cd5d7: 36
688869: 36
52f961: 37
4bde47: 37
52f966: 39
64d971: 39
5a30a1: 39
4c257f: 40
7b1476: 40
4bde21: 41
64d944: 41
64d900: 41
7b3391: 42
7b33c0: 42
7b50c0: 43
59d3ef: 44
4f665d: 44
60040f: 45
496940: 45
4c29ef: 45
6001f5: 45
4a2f9e: 46
64a7c0: 46
4c108c: 47
505a89: 47
7b5140: 47
68d7bb: 48
52f9d8: 48
530c2b: 48
5298a0: 49
59cd56: 50
505594: 50
4c26ab: 50
4ca180: 51
4ca201: 51
5297c1: 51
4ca165: 51
4ca240: 51
4ca1c1: 51
7c94c1: 51
4f65c0: 52
5054e6: 53
52f982: 53
505a3e: 53
50785c: 53
505a43: 53
507887: 53
505481: 53
5077c2: 53
507801: 53
5077b0: 53
505471: 53
7b1b42: 53
4d0a71: 53
59d3e7: 54
5d038f: 54
5ffa8e: 55
67e1d0: 55
7c94cb: 56
505bbd: 56
4c12b4: 57
4a3061: 57
4c23fd: 58
4a306e: 59
64c600: 60
64c5c7: 60
4be569: 60
64d917: 61
64d6c6: 61
687aab: 62
42922c: 63
4be509: 63
600ce6: 63
4a2f54: 64
7c9401: 65
4d0abd: 67
4c2425: 67
429210: 67
67fb80: 68
59d3e4: 68
59f22b: 69
688b8a: 69
4f65b1: 69
4c79dc: 69
5ffa5f: 70
410e80: 70
4c67cd: 70
4c20d7: 71
59ea26: 72
5ffc54: 72
4c242c: 72
7b3102: 73
4c84b4: 73
4c2589: 73
64da40: 74
4c26a8: 74
429055: 74
7b36c0: 74
5ffc06: 75
52f932: 76
410cc7: 76
5bf880: 77
4c6d6e: 77
4c8498: 77
64d9d4: 79
5c4f78: 79
59c9f2: 79
496357: 80
4c2699: 80
5c86b1: 81
4a3c92: 81
5c8640: 81
52a09b: 81
4da230: 82
529d24: 82
52f919: 82
4c3ebe: 82
4c2346: 83
4113d7: 84
52af64: 85
67b540: 85
4c846c: 85
4c2441: 85
4c8602: 86
4c85e0: 86
4c8985: 86
4c8870: 86
52a0c4: 86
4f6604: 86
4c8962: 86
52a090: 86
53168e: 86
4c8642: 86
410d6d: 86
4c856b: 86
68d7f1: 87
5accf8: 87
4a2f68: 87
410e9c: 88
5297da: 88
4c29fd: 88
49605e: 88
52a990: 88
49689b: 89
7b37d0: 89
4c1d5b: 89
64d801: 90
67b740: 90
40f480: 90
5c85c1: 90
47f884: 90
7b3340: 90
59e7fc: 90
4c67c1: 90
47f7a7: 90
4f6c87: 90
40f400: 90
5ad200: 90
5bfcc0: 90
5c8610: 90
410ed0: 90
5acd43: 90
4e2901: 90
64a0b0: 90
5ac5c1: 90
4e2810: 90
64d872: 90
40f3e0: 90
64d7f0: 90
649a83: 90
59e804: 90
5ac520: 90
4c29d8: 90
47f000: 90
5ffd55: 90
5ffcb9: 90
5297c7: 90
4e28f8: 90
5acd01: 90
59cebe: 90
5ac6f3: 90
505a99: 90
5bc7c0: 90
4c1d61: 90
47f8de: 90
4d09a9: 90
5ac3c1: 90
496614: 90
4c9e6c: 90
4c9e7f: 90
4c9e9c: 90
5ac380: 90
5ac540: 90
5c8627: 90
5ac402: 90
47f741: 90
5ac710: 90
505b81: 90
4f717c: 90
5accf2: 90
5bc7a0: 90
5ac340: 90
47f710: 90
5ac61a: 90
4c1fcc: 90
64da71: 90
5accd0: 90
52f90c: 90
5ac742: 90
5ac581: 90
40f442: 90
600406: 91
4c2578: 91
410da1: 91
4a2f73: 91
52fd40: 91
64d8c1: 91
52f65f: 91
7b1510: 91
52f904: 91
4a2d60: 91
52f6cf: 91
52f943: 91
4be47a: 91
7b3784: 91
4be486: 91
5055ea: 92
64dcd0: 92
600261: 92
7b3843: 92
7b3806: 92
68df74: 93
4ca2f0: 93
406ce3: 93
7b3604: 94
64d942: 94
4d07ec: 94
4a2d3f: 95
4bc2c0: 95
4c6d7e: 95
4c422a: 96
4c3f2e: 96
4c243d: 96
7b1481: 97
7b3203: 97
7b3741: 97
4c8b25: 98
4be560: 98
64c2f0: 99
530c37: 99
52a326: 99
5055d9: 99
67ef01: 99
4c2517: 99
7b31c0: 100
5c85cf: 100
7b358c: 100
7b14d2: 101
7b1380: 101
505502: 101
7b142a: 102
4f65c2: 103
4f6640: 103
4a35e8: 103
4a3054: 103
7b13c2: 103
410d4e: 104
59d501: 104
5ffe7f: 104
5a2f01: 105
7b1485: 106
42918f: 106
42908a: 107
68d7f4: 107
5132c2: 107
7b31ae: 108
4c269d: 108
410cd7: 109
64da39: 109
47f7c0: 110
64d90d: 110
68693d: 110
7b372c: 110
410efa: 111
524d62: 111
4a2f00: 111
4c4241: 111
67e8f0: 112
4d0990: 113
406880: 113
5298f4: 113
4cc51f: 114
64d96b: 114
4cd6c1: 115
7b1aa0: 115
529902: 115
5256c0: 115
68d602: 116
429280: 116
429134: 116
512b01: 116
5fff6e: 116
4f717e: 116
68d5c3: 117
64d9c0: 117
7b1b03: 117
406c08: 118
688254: 118
4c2a01: 118
406bc3: 118
64c594: 118
5ffff5: 119
600341: 119
461686: 119
406c43: 120
4cd700: 120
6499e0: 120
406ac7: 120
7b1ac0: 120
512b41: 121
64c550: 121
64d8a0: 121
4c9ec1: 121
406944: 121
529c9f: 121
649a45: 121
512ae0: 122
505b68: 122
64c564: 122
67e963: 122
4c25c5: 122
5ffa82: 122
67b745: 122
68d7c4: 122
649a11: 122
461660: 122
512b27: 122
68d902: 122
4a2f41: 122
67e901: 123
429277: 123
68d5a0: 123
4cdb34: 123
67bbc0: 123
529cfe: 123
429080: 123
68d8d3: 123
529b60: 124
68d7b0: 124
68d7c2: 124
410cc2: 125
4c2582: 125
64c58d: 125
529b99: 125
64d9d0: 125
4c3ce0: 125
512b80: 125
4c2687: 126
67bb82: 126
4c7c82: 126
649ac2: 126
4c2726: 126
600cc0: 126
4c3f16: 126
5010bb: 126
4c0843: 126
496103: 126
59c600: 127
4c3e80: 127
6498b0: 127
529c0f: 127
687ae4: 127
67fad0: 127
687ae1: 127
7b1bc1: 128
4a2cc0: 128
4ca002: 128
4c0a08: 128
67f100: 128
505b5f: 128
4c67bc: 128
406b41: 128
6498c2: 129
4bde25: 129
429040: 129
4c6bc8: 129
67bc00: 129
406b80: 129
67fb97: 129
59cec5: 129
4c0885: 130
406b1f: 130
530cb0: 130
4bc346: 130
4c2603: 130
600037: 130
406cbc: 130
504c91: 130
4069c0: 130
4a3ac0: 131
529d01: 131
513275: 131
504b50: 131
59d542: 131
4c0b02: 131
4c0af8: 131
67e98a: 132
4a309b: 132
4069a0: 132
4a2f81: 132
4c2304: 132
406f00: 132
67b350: 132
64c342: 132
4ca040: 133
4ca0c0: 133
64d93e: 133
64c6c1: 133
64c673: 133
4291c0: 133
5ffb40: 133
531700: 133
687680: 133
4c9f78: 133
67ba50: 133
406ef9: 133
4ca081: 133
4c2095: 133
7b30d6: 134
4bdde0: 134
406e10: 134
4cc570: 134
649970: 134
45fa24: 134
529943: 134
64c300: 134
4ca2c4: 134
649981: 134
495fd0: 135
4c1356: 135
67ee87: 135
4c2358: 135
504c50: 135
529d82: 135
529898: 135
687870: 135
4c1c40: 135
529d6e: 135
59e942: 135
4c6da1: 135
4c84c1: 136
496963: 136
4f658b: 136
59f65c: 136
64d9fd: 136
4a2fc1: 137
513304: 137
4eee04: 137
4f6c91: 137
4ca28d: 137
688b97: 137
4ca101: 138
5ffc40: 138
4c3bfb: 138
4c6db1: 138
5ffc82: 138
67e303: 139
67b417: 139
7b3083: 139
67e2d2: 139
67ba80: 139
4c02c2: 139
4c8a60: 139
496581: 139
687650: 139
4bc300: 140
5ffb20: 140
5c4f7f: 140
59d98d: 140
4c1b17: 140
59eba0: 140
686da0: 140
59ca03: 140
7b3142: 141
4c6744: 141
52a705: 141
4a32d4: 141
4d0750: 141
4cdbc1: 141
59eb41: 141
4c2646: 141
679664: 142
52cb01: 142
59f73e: 142
68dfa4: 142
49694f: 142
5ca020: 142
59c9c0: 142
64c697: 142
4c0816: 143
59f640: 143
7c94a0: 143
67bad4: 143
496600: 143
4cda60: 143
4f6486: 143
4cd649: 143
527774: 143
4a3941: 144
4c41ed: 144
4c2756: 144
66ee70: 144
4c6720: 144
4cd681: 144
4cd601: 144
504b85: 144
5ffc01: 144
4c9e10: 144
513288: 144
5c5b0c: 144
505bc0: 144
4cd7c4: 144
429220: 144
5ffb81: 145
529770: 145
4c08c0: 145
4cd780: 145
59d4c3: 146
59ebc0: 146
4c3e8e: 146
4a2ec2: 146
4c2871: 146
67e340: 146
4290c0: 146
59e9c2: 146
4c0b94: 146
67f042: 147
4c1c2b: 147
4c7a81: 147
687c02: 147
4c0c07: 147
59cb1c: 147
4f6602: 147
4c031b: 147
5bfc80: 147
4d0c1d: 147
52f5dd: 147
429130: 147
504c36: 147
513aa2: 147
5bd1f0: 148
7bd782: 148
5ffff9: 148
4c9fc2: 148
4c9e44: 148
4f6680: 148
4bde42: 148
64da81: 148
59ea10: 149
59d341: 149
4a3e01: 149
59f140: 149
529781: 150
6ee3e0: 150
4d08b8: 150
4bde06: 150
505961: 150
59e912: 150
687882: 150
5bfec4: 150
4dde10: 150
4a3ab0: 150
4a3040: 150
429020: 150
527620: 151
4c0bc0: 151
688a37: 151
4d08c5: 151
5ffbe0: 151
4c1302: 151
4c40f7: 151
59ca80: 151
505310: 152
7b34c6: 152
59f742: 152
4f6450: 152
4a3904: 152
4a3c80: 152
4a35c4: 152
5bfd00: 152
4f6581: 152
4c1d12: 152
4c8480: 152
4c7a42: 152
411320: 152
5a370c: 153
5276c1: 153
5c5aaf: 153
5ae0a0: 153
4c415d: 153
59d974: 153
4be0c0: 154
530bc0: 154
4ba8fe: 154
4cd770: 154
5ffd03: 154
59ca7c: 154
530410: 154
4c0c47: 154
52f5b0: 154
527780: 154
4cd801: 154
4f6990: 154
4a2d9d: 154
5053c1: 154
504bc0: 154
505ac2: 154
4c2405: 155
4ca7b0: 155
4c1140: 155
5ca0ca: 155
4c0c85: 155
410e2e: 155
5c5a42: 155
4bdfc1: 155
5bfe40: 156
4a3742: 156
52cadb: 156
4c1d83: 156
4c0781: 156
7bd760: 156
5ab99f: 156
505588: 156
4c2343: 156
687bc3: 157
4c0941: 157
4c10c1: 157
5079c1: 157
4c6902: 157
4c8351: 157
4be4c0: 157
688240: 157
67faee: 158
64a801: 158
52984f: 158
4ba8e0: 158
513b01: 158
410e41: 158
4cd9d0: 158
7b3ae8: 158
4c1048: 159
59cb43: 159
4eec40: 159
59eb05: 159
7b343f: 159
5ffd99: 159
513230: 159
4c1081: 159
426fc0: 159
59d380: 159
4c0900: 159
67ed80: 159
684f80: 159
7b3446: 159
505280: 159
59f1f0: 159
4bc3a4: 159
4dde70: 159
496880: 159
5d7640: 159
4a2d06: 159
4d0781: 159
67bb40: 159
68dfa1: 159
59e982: 160
527380: 160
64d9b0: 160
64c591: 160
4c1f44: 160
5ff910: 160
4c0dc7: 160
4cdaeb: 160
52ac00: 160
4c7c57: 160
4c6781: 160
64a72c: 160
687aa0: 160
4c79c4: 160
513a00: 161
4d07c1: 161
52a850: 161
4c0e59: 161
5bfc42: 161
59d803: 161
67e401: 161
687ac0: 161
52af81: 162
52fe00: 162
4c1404: 162
4c274a: 162
4c3f53: 162
4be481: 162
52fdf4: 162
59ea41: 162
687900: 162
4ba941: 162
4a2d43: 162
5298b0: 162
4cda04: 163
4c7a03: 163
4c0e85: 163
4c0ec0: 163
410e01: 163
5ffd80: 163
4ca800: 163
4be593: 163
67e28b: 163
5bfe80: 163
59cec0: 163
410dc0: 163
513041: 163
686900: 163
4c0e01: 163
4c1283: 163
4c782f: 163
527642: 163
5c8841: 164
59f240: 164
5ff600: 164
531670: 164
4cab50: 164
4968c4: 164
505981: 164
4a379f: 164
4a3580: 164
67ee02: 164
4c1841: 164
67f002: 164
47f72d: 164
4ca7c1: 165
600280: 165
59cc58: 165
4ff5a0: 165
4c7dc2: 165
59c984: 165
4a38d3: 165
4a3b2c: 165
59d3fa: 165
505342: 165
68ce40: 165
59e800: 165
59c910: 166
505381: 166
59c95a: 166
4caba0: 166
4a3840: 166
59f201: 166
4c8182: 166
4c9f93: 166
4c68c1: 166
4a3980: 166
4ca8e0: 166
4c2780: 166
525840: 167
4be444: 167
4c110d: 167
4c3c02: 167
4c4102: 167
4c1969: 167
4c69ca: 167
5a36e0: 167
59cd80: 167
52a95f: 167
4bde61: 167
4c1e48: 167
686944: 168
5c8a35: 168
4ca943: 168
67ba6a: 168
501180: 168
5ffe02: 168
4d07f9: 168
4cd896: 168
4bde1d: 168
7b3609: 168
4c1344: 168
52769c: 169
4c6d65: 169
527708: 169
4c3c40: 169
5d7680: 169
4cd906: 169
5ffdd6: 169
4c0760: 169
4c2242: 169
678d10: 170
4da1e0: 170
600330: 170
501178: 170
600214: 170
5ff940: 170
59e7f0: 171
52caa2: 171
4c6f15: 171
688a2d: 171
67e4d0: 171
4ca901: 171
6878c1: 171
531680: 171
600400: 171
7b3b03: 171
7b34e8: 171
4d0842: 171
52aeef: 171
4f6d3b: 171
5ffe40: 172
59ed96: 172
67edc3: 172
4c1dc0: 172
52f5c1: 172
525881: 172
4cd697: 172
68dc60: 172
4a3804: 172
4c0310: 172
4c6881: 172
4a2eb5: 173
4f69c2: 173
4c16da: 173
59cd20: 173
410d87: 173
6866c0: 173
4cdb01: 173
4bdf70: 173
679797: 174
4c3be0: 174
64dd94: 174
64a6e0: 174
505b20: 174
5c86c0: 174
6797c1: 174
513265: 174
410d25: 174
4a37c0: 175
68df80: 175
4ef030: 175
68e0c2: 175
4cdb31: 175
513010: 176
4c1e84: 176
67ee80: 176
4c1ec2: 176
41f860: 176
5132e0: 176
513083: 176
4f70a0: 176
679694: 177
59d310: 177
4bde3d: 177
529e80: 177
4ba917: 177
5055c2: 177
688a2a: 177
5059c1: 177
6855d0: 177
67e38f: 177
59d7f0: 177
5ae0a9: 178
4c9000: 178
4f6d42: 178
7b2f9e: 178
507a02: 178
4be3a0: 178
4c6d10: 178
67e3c6: 178
5010b0: 178
496054: 179
4cd5c0: 179
4cd692: 179
5ab990: 179
5ff7c0: 179
59d5c4: 179
4c01f0: 179
67b6ac: 179
496443: 179
5bfc02: 179
4c2461: 180
52a68a: 180
67eec3: 180
4bdf82: 180
410d40: 180
4c1480: 180
4baa09: 180
7c9440: 180
4a2c90: 180
5ac110: 180
529e5d: 180
531692: 180
5011c2: 181
6ec681: 181
59d9c0: 181
4d0800: 181
4c1784: 181
4c3d80: 181
67e5a7: 182
5c85a0: 182
686483: 182
4c1700: 182
513740: 183
5fffbf: 183
5c8702: 183
4968a4: 183
531674: 183
4cd8e8: 183
5ff682: 183
65e860: 184
500d01: 184
4c0200: 184
4c1d4d: 184
504d41: 184
5299b4: 184
4c6ebb: 184
686914: 184
4cdb9d: 185
513721: 185
59cdc2: 185
5bf96b: 185
4c87b4: 185
4f70c0: 185
4c13ea: 185
5258c1: 185
504fa0: 186
5ffd42: 186
7b50b0: 186
52a1c9: 186
7c9430: 186
4c1fb5: 186
52a5c0: 186
4c3f61: 187
64dd40: 187
5ca081: 187
67b70b: 187
410c90: 187
67e283: 187
4c6ed6: 187
4c79ec: 187
4c6a04: 188
59da02: 188
68d440: 188
5c8810: 188
4c26c1: 188
59eb38: 188
4c1821: 188
686701: 188
4c6ec8: 188
4f6c82: 188
52a283: 188
67ee48: 189
685610: 189
4c3c80: 189
679691: 189
67e0f2: 189
4c2363: 189
4c02bf: 189
5ff783: 189
4c6806: 189
68d400: 190
4caecb: 190
67e0c0: 190
67e5c1: 190
4c8400: 190
68ce30: 190
5d764e: 191
5c8a40: 191
5bf5c0: 191
5135e9: 191
59d990: 191
4c3dd0: 191
426fa0: 192
6001c0: 192
5010bd: 192
4c2383: 192
5276a5: 192
5bf690: 192
4c6bb2: 192
4ba8fa: 192
4f7180: 192
4c21ab: 192
513ae6: 193
4c8442: 193
527370: 193
4c5403: 194
5ae080: 194
5c5a20: 194
52a6fd: 194
4eee00: 194
52af5c: 194
5bf580: 194
5ff980: 194
505a9f: 194
5ff628: 195
4d0c56: 195
45fa10: 195
4c7999: 195
410c70: 196
5ac141: 196
4c8388: 196
4a3018: 197
4c3e05: 197
59d981: 197
68dd50: 197
4c1242: 197
67e27b: 197
5bd243: 198
4cd950: 198
5135a0: 198
5010c3: 198
5c85b5: 198
5ca043: 198
685660: 198
686a41: 198
5135fe: 198
5bd220: 198
4d0c02: 199
672960: 199
52763f: 199
4f6c70: 199
678d40: 199
5bf60e: 200
68df60: 200
4c6eaf: 200
5055f0: 200
513601: 200
5bf490: 200
4be420: 200
4c7f60: 201
501260: 201
5ac181: 201
5ffa50: 201
4c684c: 201
4aa241: 202
52763a: 202
59cd40: 202
64d6c3: 202
51370e: 202
688862: 202
4c1641: 202
4eefb0: 203
4d0b5b: 203
67968d: 203
5079b0: 203
427088: 203
5ff803: 203
4c3e42: 204
685680: 204
52f160: 204
4a3de0: 204
4be586: 204
59d958: 204
67e241: 205
6ec670: 205
52ca40: 205
67e461: 205
4bde9f: 206
7b50d0: 206
4aa238: 206
686440: 206
5ff640: 206
4c1751: 206
64d702: 206
64dd00: 207
4ce48c: 207
5c8740: 207
51381e: 207
4c145a: 207
4a36c0: 207
679650: 207
4c9043: 208
52a27f: 208
4c23e3: 209
496340: 210
5bfbe0: 210
500d85: 210
4c2249: 210
5139c0: 210
4ff71c: 210
59d4b0: 211
67b640: 211
52a181: 211
4a3703: 211
513990: 211
600483: 211
7b2fce: 211
4c6ec2: 212
67b580: 212
42919c: 212
4dde80: 212
4c20c3: 213
59d464: 213
4c7d7e: 213
5010d5: 213
4d0ac2: 213
4c83c0: 213
500d6d: 214
4c6985: 214
4ca317: 214
59d3e0: 215
5ff617: 215
5bf960: 215
5ff753: 215
52a1c2: 216
4c6de3: 216
4c7d80: 217
501210: 217
4caa4d: 217
4a3642: 217
59ce02: 217
501280: 217
67e1c2: 218
4aa150: 218
68cd30: 218
5136ca: 218
4c3f40: 218
5a2ee0: 218
67949a: 218
4a3290: 219
4c760b: 219
52a62a: 219
6483d0: 219
686746: 220
68690b: 220
507ac0: 220
513396: 220
679440: 220
5bf6da: 220
7b1472: 220
4c235c: 220
4d0bc6: 221
4c286a: 221
684e10: 221
5316a4: 221
67e104: 221
4c6f01: 221
4c1210: 221
4d0a8f: 221
52ca00: 221
4c2355: 221
4ef0f0: 222
4c3ec1: 222
67e201: 222
51335a: 222
529d28: 222
67e9d0: 223
7b14d8: 224
684e42: 224
5ff9c1: 224
507a82: 225
688691: 225
52a1d1: 225
4c54ea: 225
4a2eb8: 225
4968d4: 226
4c9ea9: 226
5bf4d1: 226
4c233f: 226
4c0202: 227
6493a0: 228
52a150: 228
5134fa: 229
513241: 229
51371e: 229
4c6b5a: 229
6885e0: 229
4ca9c0: 229
4c6ef4: 230
4d0c24: 230
4c7482: 230
59ce43: 231
68cd41: 231
4960c9: 231
5055a9: 232
52a388: 232
4cc490: 233
4eede0: 233
4f70d2: 233
4cae00: 233
4ca990: 233
67965b: 233
51389d: 234
4c6bc0: 234
688a74: 234
4290d7: 235
5133c0: 235
4cc4c4: 235
4c7469: 235
68dd82: 235
4c6dc0: 235
5ae227: 236
4f70a7: 236
4c6d82: 236
4c1fc2: 236
5ffa92: 237
4c53df: 237
688a20: 238
4cc650: 239
67f0e3: 239
4ce450: 239
460390: 239
59f4b0: 239
4113d0: 240
7b3483: 241
4c2158: 241
5ffcbd: 241
688a81: 241
50559a: 242
600470: 242
4cc6c5: 242
4968a0: 243
52a59b: 243
4c6d42: 243
64d911: 243
461674: 245
4cc7da: 245
688840: 246
429218: 246
4ff680: 248
7b1aff: 248
507a7c: 249
4c8150: 249
4963b0: 249
688b80: 249
496430: 250
6003e0: 250
4c3d8e: 250
4c931c: 250
4d0a50: 250
64d680: 251
4d0bf4: 252
4c8445: 252
5c4e81: 252
68eac0: 253
52a597: 253
4c759e: 253
7b50b9: 254
4a3603: 254
5d7644: 255
5ae16d: 256
513b80: 257
4a369f: 258
686a1d: 260
531706: 260
4c1a2e: 260
67ea02: 260
688909: 260
5c8a10: 260
4a2f64: 262
410c76: 263
67bb30: 264
4c6a46: 266
68e083: 266
5bfb80: 266
513281: 267
688080: 269
47f736: 270
4f7102: 271
410e5d: 276
4c5302: 277
52a319: 277
5fffb0: 277
4963c0: 278
68ddc0: 278
64d6bf: 278
5a3000: 278
7b3461: 281
52c942: 281
5ae1c0: 285
5ffca3: 286
4291ad: 286
4cadd0: 286
59f224: 287
68864c: 287
5c4e70: 288
64da01: 288
5ae180: 289
7b50f9: 291
60026e: 292
4c9e86: 292
59c92b: 293
4ff684: 295
7b5740: 296
4d0c0d: 298
496900: 298
52c900: 299
4eeff0: 299
67b4c0: 301
5a3110: 302
679773: 302
4c94c7: 303
64a0c1: 305
5a3080: 307
4bc30a: 307
64a0a0: 307
67fb9b: 308
4c93f8: 310
7b50e4: 312
4c94a0: 312
67ee41: 315
5c4f82: 315
5ffe83: 315
5fffc7: 316
600250: 316
600288: 316
524d40: 317
67b4b0: 317
5ffffd: 318
5c7fd0: 318
504fcb: 318
4c9425: 319
4be44e: 321
507a76: 324
67effd: 326
4d07a9: 327
5fffd2: 331
67f068: 332
52a864: 337
4caa8b: 338
4c9440: 341
5ae440: 341
67fadb: 348
59ca00: 352
4c679b: 364
64d6dc: 365
4ba902: 367
600040: 368
4ca007: 372
64d8e0: 377
53170a: 382
4a3080: 382
7b35cf: 384
64d8ea: 392
504d15: 394
504bd1: 394
4603c0: 398
688602: 400
429c20: 408
686941: 415
4f6c95: 427
64dd20: 427
7b3033: 432
600272: 449
59f242: 452
4f6c7e: 453
688854: 457
7b5730: 465
4c1381: 468
600265: 478
5fffc3: 500
4ff5aa: 501
52ac09: 512
513301: 513
505384: 514
49692f: 517
527660: 519
4c1376: 519
5ac310: 520
600255: 537
5ffeeb: 588
4ff65d: 638
5c85b0: 664
429189: 677
7b5749: 688
410cb7: 700
64d8e4: 734
42921c: 747
5fff70: 749
7c9672: 754
5ffed0: 756
7c966b: 771
410cae: 771
64da2e: 814
7c9612: 837
7c9619: 844
5276bd: 853
4291aa: 889
410e6b: 938
527657: 978
52a981: 1025
4bc35d: 1175
7b2fc7: 1193
505375: 1247
5ffeef: 1251
64da2a: 1359
5ffed4: 1369
5fff8d: 1394
4c1a42: 1480
5ffef3: 1879
5ffee7: 1913
46039b: 2022
5fff83: 2169
4d0bf8: 2344
64d6d7: 2396
59cd89: 2785
527669: 2802
59cdb0: 65449
59cdcf: 90060
59d4e0: 99896
59cdee: 136481
59cdcb: 158349
59cd8d: 325415
59cdf2: 463910
59d4d1: 479789
59cde2: 562351
59cdbf: 649473
59cd9b: 650051
PSCL5 TOTAL     ACCESS:     964427  HIT:     964427  MISS:          0  HIT %:        100  MISS %:          0   MPKI: 0
PSCL5 Test counter:          0
PSCL5 LOAD TRANSLATION ACCESS:     964427  HIT:     964427  MISS:          0  HIT %:        100  MISS %:          0   MPKI: 0
PSCL5 PREFETCH  REQUESTED:          0  ISSUED:          0  USEFUL:          0  USELESS:          0
PSCL5 USEFUL LOAD PREFETCHES:          0 PREFETCH ISSUED TO LOWER LEVEL:          0  ACCURACY: -nan
PSCL5 TIMELY PREFETCHES:          0 LATE PREFETCHES: 0 DROPPED PREFETCHES: 0
PSCL5 COMMIT LATE PREFETCHES: 0 MISSED OPPORTUNITY: 0 LATE IN PQ: 0 UNCOVERED: 0
PSCL5 COMMIT LATE MSHR PREFETCHES: 0
PSCL5 MPKI TOTAL: 0 MSHR LATE: 0 PQ LATE: 0 COMMIT LATE: 0 MISSED OPPORTUNITY: 0 UNCOVERED: 0
PSCL5 PREFETCHES SAME FILL-ORIGIN LEVEL: 0 DIFFERENT FILL-ORIGIN LEVEL: 0

PSCL4 TOTAL     ACCESS:     964427  HIT:     964427  MISS:          0  HIT %:        100  MISS %:          0   MPKI: 0
PSCL4 Test counter:          0
PSCL4 LOAD TRANSLATION ACCESS:     964427  HIT:     964427  MISS:          0  HIT %:        100  MISS %:          0   MPKI: 0
PSCL4 PREFETCH  REQUESTED:          0  ISSUED:          0  USEFUL:          0  USELESS:          0
PSCL4 USEFUL LOAD PREFETCHES:          0 PREFETCH ISSUED TO LOWER LEVEL:          0  ACCURACY: -nan
PSCL4 TIMELY PREFETCHES:          0 LATE PREFETCHES: 0 DROPPED PREFETCHES: 0
PSCL4 COMMIT LATE PREFETCHES: 0 MISSED OPPORTUNITY: 0 LATE IN PQ: 0 UNCOVERED: 0
PSCL4 COMMIT LATE MSHR PREFETCHES: 0
PSCL4 MPKI TOTAL: 0 MSHR LATE: 0 PQ LATE: 0 COMMIT LATE: 0 MISSED OPPORTUNITY: 0 UNCOVERED: 0
PSCL4 PREFETCHES SAME FILL-ORIGIN LEVEL: 0 DIFFERENT FILL-ORIGIN LEVEL: 0

PSCL3 TOTAL     ACCESS:     964427  HIT:     964427  MISS:          0  HIT %:        100  MISS %:          0   MPKI: 0
PSCL3 Test counter:          0
PSCL3 LOAD TRANSLATION ACCESS:     964427  HIT:     964427  MISS:          0  HIT %:        100  MISS %:          0   MPKI: 0
PSCL3 PREFETCH  REQUESTED:          0  ISSUED:          0  USEFUL:          0  USELESS:          0
PSCL3 USEFUL LOAD PREFETCHES:          0 PREFETCH ISSUED TO LOWER LEVEL:          0  ACCURACY: -nan
PSCL3 TIMELY PREFETCHES:          0 LATE PREFETCHES: 0 DROPPED PREFETCHES: 0
PSCL3 COMMIT LATE PREFETCHES: 0 MISSED OPPORTUNITY: 0 LATE IN PQ: 0 UNCOVERED: 0
PSCL3 COMMIT LATE MSHR PREFETCHES: 0
PSCL3 MPKI TOTAL: 0 MSHR LATE: 0 PQ LATE: 0 COMMIT LATE: 0 MISSED OPPORTUNITY: 0 UNCOVERED: 0
PSCL3 PREFETCHES SAME FILL-ORIGIN LEVEL: 0 DIFFERENT FILL-ORIGIN LEVEL: 0

PSCL2 TOTAL     ACCESS:     964427  HIT:     960108  MISS:       4319  HIT %:    99.5522  MISS %:   0.447831   MPKI: 0.021595
PSCL2 Test counter:          0
PSCL2 LOAD TRANSLATION ACCESS:     964427  HIT:     960108  MISS:       4319  HIT %:    99.5522  MISS %:   0.447831   MPKI: 0.021595
PSCL2 PREFETCH  REQUESTED:          0  ISSUED:          0  USEFUL:          0  USELESS:          0
PSCL2 USEFUL LOAD PREFETCHES:          0 PREFETCH ISSUED TO LOWER LEVEL:          0  ACCURACY: -nan
PSCL2 TIMELY PREFETCHES:          0 LATE PREFETCHES: 0 DROPPED PREFETCHES: 0
PSCL2 COMMIT LATE PREFETCHES: 0 MISSED OPPORTUNITY: 0 LATE IN PQ: 0 UNCOVERED: 0
PSCL2 COMMIT LATE MSHR PREFETCHES: 0
PSCL2 MPKI TOTAL: 0 MSHR LATE: 0 PQ LATE: 0 COMMIT LATE: 0 MISSED OPPORTUNITY: 0 UNCOVERED: 0
PSCL2 PREFETCHES SAME FILL-ORIGIN LEVEL: 0 DIFFERENT FILL-ORIGIN LEVEL: 0

LLC TOTAL     ACCESS:    8408984  HIT:     859730  MISS:    7549254  HIT %:    10.2239  MISS %:    89.7761   MPKI: 37.7463
LLC Test counter:          0
LLC LOAD      ACCESS:    3632046  HIT:     343099  MISS:    3288947  HIT %:    9.44644  MISS %:    90.5536   MPKI: 16.4447
LLC RFO       ACCESS:      55026  HIT:       8580  MISS:      46446  HIT %:    15.5926  MISS %:    84.4074   MPKI: 0.23223
LLC PREFETCH  ACCESS:    4396712  HIT:     406466  MISS:    3990246  HIT %:    9.24477  MISS %:    90.7552   MPKI: 19.9512
LLC WRITEBACK ACCESS:      93578  HIT:      93280  MISS:        298  HIT %:    99.6815  MISS %:   0.318451   MPKI: 0.00149
LLC LOAD TRANSLATION ACCESS:     231622  HIT:       8305  MISS:     223317  HIT %:    3.58558  MISS %:    96.4144   MPKI: 1.11658
LLC PREFETCH  REQUESTED:          0  ISSUED:          0  USEFUL:      82605  USELESS:    3905543
LLC USEFUL LOAD PREFETCHES:      82605 PREFETCH ISSUED TO LOWER LEVEL:    3993449  ACCURACY: 2.06851
LLC TIMELY PREFETCHES:      82605 LATE PREFETCHES: 3203 DROPPED PREFETCHES: 0
LLC COMMIT LATE PREFETCHES: 0 MISSED OPPORTUNITY: 0 LATE IN PQ: 0 UNCOVERED: 0
LLC COMMIT LATE MSHR PREFETCHES: 0
LLC MPKI TOTAL: 16.4447 MSHR LATE: 0.016015 PQ LATE: 0 COMMIT LATE: 0 MISSED OPPORTUNITY: 0 UNCOVERED: 0
LLC PREFETCHES SAME FILL-ORIGIN LEVEL: 573469 DIFFERENT FILL-ORIGIN LEVEL: 0
LLC AVERAGE MISS LATENCY: 111.654 cycles
LLC AVERAGE MISS LATENCY LOAD: 107.994 cycles
LLC AVERAGE MISS LATENCY PREFETCH: 110.966 cycles
LLC AVERAGE MSHR OCCUPANCY: 1.33488
LLC MSHR FULL: 0
LLC RQ	ACCESS:    3918696	FORWARD:          0	MERGED:          0	TO_CACHE:    3918695
LLC WQ	ACCESS:      93578	FORWARD:          1	MERGED:          0	TO_CACHE:      93578
LLC PQ	ACCESS:    4404031	FORWARD:          0	MERGED:        497	TO_CACHE:    4403534

LLC Dense regions hint to LLC: 0
67ee30: 1
5bec40: 1
4d0990: 1
4c242c: 1
4c9e69: 1
410e8c: 1
67fd4b: 1
600001: 1
5bed6c: 1
4c67d2: 1
7c960a: 1
4eede4: 1
67fb01: 1
5becc5: 1
7c9663: 1
4c0314: 1
67fc52: 1
67fd81: 1
67fe85: 1
496347: 1
67fdc0: 1
67fd00: 1
67fc81: 1
67fbc6: 1
5bec01: 1
7b3019: 1
4bdea4: 1
686a01: 1
4c67cd: 1
4be504: 1
429090: 1
67fc03: 1
68d8c3: 1
5bfe54: 1
5bec21: 1
67fcc1: 1
7abcfe: 1
4bc32d: 1
4c3ebe: 1
7b35c4: 1
679743: 1
7b34e0: 1
7b30c2: 1
5bec86: 1
5bed84: 1
505bbd: 1
7b36fc: 2
4c2441: 2
7b35b7: 2
406cc1: 2
4ba909: 2
688060: 2
7b5131: 2
7b304a: 2
500d03: 2
59cd56: 2
4f65b1: 2
527690: 2
4290ac: 2
52f961: 2
4c2699: 2
5beaae: 2
679698: 2
4c3dfe: 2
67fb46: 2
4c0a13: 2
4c2395: 2
7b3703: 2
5297c1: 2
4c274a: 3
5bfc3d: 3
68d7f8: 3
45fa24: 3
4c1ecf: 3
4968b5: 3
59cc6f: 3
4cd782: 3
7b318b: 3
4bde47: 3
7c94f0: 3
7b378a: 3
4c243d: 3
4a3054: 3
4c29fd: 3
67b745: 3
5bf96b: 4
5bed93: 4
410efa: 4
7b3054: 4
600020: 4
5316f0: 4
5bed9a: 4
64c643: 4
688b8a: 4
4c12fe: 4
679700: 5
7c9643: 5
7c9523: 5
7abcf0: 5
7a6101: 5
7abe03: 5
7a6140: 5
7a7042: 5
7a7085: 5
686982: 5
7c9410: 5
7ae327: 5
4d07ec: 5
7abd03: 5
4c3d06: 5
7a7002: 5
6796c7: 5
7c93c0: 5
7c96c4: 5
7a608f: 5
404940: 5
4c3d40: 5
5bedb0: 5
41ac00: 5
51335e: 5
7c95f0: 5
429055: 5
6869da: 5
7c9602: 5
7a6ff0: 5
5bedc1: 5
7c9680: 5
7a6060: 5
7a60c0: 5
7c9501: 5
4c29f8: 5
7a609f: 5
7abdf8: 5
68dfa8: 5
7ae320: 6
42919c: 6
5fff00: 6
4c6794: 6
59d974: 6
7c9482: 6
5fff05: 6
59eb2f: 6
52f98f: 6
496607: 7
5276a0: 7
4291ad: 7
4a3e08: 7
60026e: 7
600255: 8
600288: 8
7b31cf: 8
600272: 8
5ffa5b: 8
7a6080: 8
7fc225: 8
4d0bfe: 9
7b3501: 9
7b3c06: 9
5c865a: 9
7fc219: 9
496940: 9
7b3941: 9
7b78c0: 9
7b3b84: 9
7c93c4: 9
7fc210: 9
7b3bca: 9
7b3a01: 9
7fc240: 9
7b3b41: 9
7b39cb: 9
7b3a40: 9
7b3905: 9
825040: 9
7b1502: 9
5bedd3: 10
7b3045: 10
5d0350: 10
7bd7b0: 10
7b3590: 10
4f70d2: 10
4c108c: 10
59eb16: 10
64d9df: 10
4ce500: 11
7b375b: 11
5bedee: 11
5d7678: 11
7b31bb: 11
600265: 11
67bbbd: 11
7c9606: 12
688869: 12
7c965f: 12
4d0c63: 12
4bc37e: 12
67fb62: 12
600402: 12
59d325: 13
6003ee: 13
505a8d: 13
7b3178: 13
687ae8: 13
53168e: 13
406c47: 14
59d3ef: 14
64da0c: 14
5bec44: 14
5d0342: 15
5bee01: 15
5bef01: 15
5bee73: 15
5d05c3: 15
5befde: 15
5d059f: 15
5bee0b: 15
5d0303: 15
5bf505: 15
64d900: 15
5d02d0: 15
5beaa0: 15
5beeea: 15
5beac6: 15
5beb24: 15
5bebe4: 15
5d0381: 15
40f46c: 15
7bd800: 16
40f3e6: 16
7bd7c4: 16
67b505: 16
64d93a: 17
64c598: 17
4968ad: 18
7b3898: 18
52fcd9: 19
4d07a9: 19
68d827: 20
68d841: 20
687b40: 20
68d890: 20
687b80: 20
429198: 20
4a306e: 20
687b17: 20
7b1b81: 21
4bde21: 21
42918f: 21
4be509: 21
59f504: 22
5ffa5f: 23
52f966: 23
4f70b8: 23
4c67b9: 24
68e000: 25
4c3f2e: 25
4a2f9e: 25
7c9430: 25
68e040: 25
68dfd7: 25
52f9e9: 25
410e9c: 27
68d7bb: 27
7c94b0: 27
4a2f54: 27
49689b: 27
5bf57b: 28
52fa12: 28
52fd00: 29
7c94cb: 29
52fcf7: 29
52fcd4: 29
52fa43: 29
52f9e4: 29
52fa01: 29
52f767: 29
59f22b: 30
7b1476: 30
4cd5d7: 32
5054ef: 33
5ffcc1: 34
7b1b8f: 35
4c2346: 35
59d3e7: 36
505594: 37
60040f: 37
52f9d8: 37
64d944: 37
7b3391: 38
7b33c0: 38
64d971: 38
429210: 39
5a30a1: 39
5298a0: 40
5ffa8e: 42
7b50c0: 42
4c20d7: 42
64a7c0: 43
4ca165: 44
4ca240: 44
4ca180: 44
4ca201: 44
4ca1c1: 44
7b5140: 44
4a35e8: 45
4d0a71: 45
59d3e4: 45
5ffe7f: 46
4c8498: 46
4bde61: 47
64d6c6: 47
5055ea: 47
7c94c1: 47
687aab: 48
4c79dc: 48
4a3c92: 49
52f90c: 52
42922c: 52
7b1b42: 53
505a43: 53
505481: 53
5077c2: 53
507801: 53
505a3e: 53
5077b0: 53
50785c: 53
507887: 53
505471: 53
52f982: 53
5d038f: 53
5054e6: 53
410cd7: 54
4d07f9: 55
4c12b4: 55
5ae0a0: 56
64d9d4: 57
64c5c7: 57
64c600: 57
5055c2: 58
64d917: 59
524d62: 60
68d7f1: 60
5c4f78: 60
5bf880: 61
68693d: 61
4c6d6e: 62
600ce6: 62
7b36c0: 63
4c84b4: 63
4f70a7: 63
4d0abd: 64
7b1510: 65
7c9401: 65
5ffc54: 65
67ee87: 65
513288: 65
67fb80: 66
410d4e: 66
410e80: 67
67965b: 68
4da230: 68
7c966b: 68
52f932: 70
7b3102: 70
4ca2f0: 70
68d7f4: 71
64c2f0: 71
687ae4: 71
59eb38: 71
687ae1: 72
4c6d7e: 72
68dfa4: 72
7b3340: 73
5c85b5: 73
7b1485: 73
7b37d0: 74
7b3806: 74
529d24: 74
7b3843: 74
7b1380: 74
7b31c0: 74
68dfa1: 75
64d90d: 75
7b3784: 75
7b3604: 75
7b1481: 75
7b14d2: 75
7b13c2: 76
7b3203: 76
7b2fce: 76
7b142a: 76
4c6db1: 76
406c43: 77
7b358c: 77
42908a: 78
52af64: 78
679694: 78
64d942: 78
496103: 78
7b31ae: 79
7b3461: 79
52f919: 80
67fb9b: 80
4ba8fa: 80
52a09b: 80
7b3741: 80
5c8640: 81
59d501: 81
4f6604: 81
4cc51f: 81
5c86b1: 81
5276a5: 82
7bd782: 82
5c8a35: 82
5298b0: 82
4ba917: 82
4c3f53: 83
686914: 83
5ffff5: 83
68d7c4: 83
67ba6a: 83
4be44e: 84
7c94a0: 84
5055f0: 84
4113d7: 84
4ba8fe: 85
64c594: 85
67b540: 85
410da1: 85
4c846c: 85
7b50b9: 85
410d6d: 85
4da1e0: 85
4c856b: 86
5fff6e: 86
52a0c4: 86
4c8642: 86
4c8870: 86
4c3f61: 86
7b34c6: 86
4c8602: 86
52a090: 86
52a990: 86
4c8985: 86
4c8962: 86
679691: 86
4c85e0: 86
688b97: 87
5accf8: 87
406bc3: 87
47f72d: 87
64c673: 87
4a2f68: 87
64dcd0: 88
4eec40: 88
49605e: 88
5fffbf: 88
512b27: 89
59e804: 89
50559a: 89
600037: 89
4c1d5b: 89
64c550: 89
686a1d: 89
52a1c9: 89
679773: 89
5ae0a9: 89
4be560: 89
7b30d6: 89
59ca03: 89
4aa238: 90
4c031b: 90
67bc00: 90
4c13ea: 90
52a95f: 90
427088: 90
4c29d8: 90
4c2a01: 90
5010c3: 90
5010b0: 90
501178: 90
67f002: 90
678d10: 90
67f042: 90
684f80: 90
679440: 90
4cd780: 90
679797: 90
67b4c0: 90
67968d: 90
4d0c56: 90
679664: 90
4f6640: 90
4f70a0: 90
4d0c24: 90
4c1ec2: 90
67b580: 90
64c564: 90
688a37: 90
4c1fb5: 90
6855d0: 90
4c9e10: 90
5134fa: 90
4a3ac0: 90
505ac2: 90
4cd906: 90
4cdb01: 90
4d09a9: 90
4cdaeb: 90
4cda60: 90
530cb0: 90
5bd220: 90
4f6680: 90
5ac3c1: 90
496614: 90
4cdb9d: 90
4c9e6c: 90
7b50d0: 90
5c8a10: 90
4c9e7f: 90
52cb01: 90
4a3580: 90
5ac540: 90
4d0c02: 90
4c0200: 90
5010bd: 90
4c1fcc: 90
5132c2: 90
4c9f93: 90
4c02c2: 90
4cd5c0: 90
4cd601: 90
4c1d4d: 90
4cd649: 90
5010bb: 90
687882: 90
4cd770: 90
5ffc01: 90
5bd243: 90
4cd7c4: 90
4cd801: 90
4c1d61: 90
64a801: 90
4cd950: 90
4960c9: 90
686900: 90
4cd896: 90
4c422a: 90
7b1b03: 90
5c5b0c: 90
7b3446: 90
687c02: 90
67e3c6: 90
5ac520: 90
67ba50: 90
6866c0: 90
4ca2c4: 90
512b80: 90
505381: 90
5c8a40: 90
7b3142: 90
4c3e80: 90
67e38f: 90
513083: 90
460390: 90
686483: 90
426fc0: 90
67bbc0: 90
4c9e44: 90
59f201: 90
688a2d: 90
67ee02: 90
4c2358: 90
67e0f2: 90
4c1d83: 90
67e4d0: 90
7b3083: 90
64d9c0: 90
59ca7c: 90
5acd01: 90
687650: 90
4c1f44: 90
496600: 90
4ff5a0: 90
40f400: 90
68690b: 90
5297c7: 90
4f6c82: 90
49694f: 90
649981: 90
649a11: 90
67e1c2: 90
5c85c1: 90
4c1344: 90
410c90: 90
649a83: 90
649ac2: 90
5d764e: 90
67faee: 90
5bfc42: 90
410c70: 90
4d0a8f: 90
64d7f0: 90
64d872: 90
59e912: 90
4d07c1: 90
4e2810: 90
67ba80: 90
64a72c: 90
4a3642: 90
4a3ab0: 90
67fad0: 90
426fa0: 90
505b81: 90
67e27b: 90
4c1283: 90
512ae0: 90
67ed80: 90
5a3000: 90
4e28f8: 90
67f0e3: 90
496581: 90
5a3110: 90
67effd: 90
67ef01: 90
64dd00: 90
495fd0: 90
64c58d: 90
649970: 90
529770: 90
4eefb0: 90
512b01: 90
5053c1: 90
7b3ae8: 90
67b350: 90
512b41: 90
7b34e8: 90
5bfcc0: 90
4c0b02: 90
4c0af8: 90
4c9f78: 90
507ac0: 90
4ef030: 90
67b640: 90
5a2f01: 90
679650: 90
507a82: 90
688254: 90
5079c1: 90
4be593: 90
504c50: 90
5bfd00: 90
4f6990: 90
4c8b25: 90
4d0a50: 90
59e7f0: 90
59e800: 90
59e7fc: 90
600330: 90
5ac581: 90
4f70c0: 90
5bc7a0: 90
504c36: 90
4c235c: 90
7b1ac0: 90
686701: 90
687870: 90
4c1480: 90
5ac340: 90
5ac402: 90
4ca002: 90
4ca081: 90
4ca101: 90
64a0b0: 90
461660: 90
68d8d3: 90
52c900: 90
513aa2: 90
504b85: 90
513ae6: 90
4bde25: 90
4d0c1d: 90
4cd9d0: 90
4d0bf4: 90
52caa2: 90
4bde9f: 90
685610: 90
4ca28d: 90
496340: 90
52ca00: 90
496880: 90
4bc346: 90
67edc3: 90
4968c4: 90
4d0bc6: 90
59ea10: 90
47f710: 90
52cadb: 90
410ed0: 90
530bc0: 90
4ff680: 90
530c37: 90
52c942: 90
6001c0: 90
4a379f: 90
5ffc40: 90
4c6720: 90
59f742: 90
59f73e: 90
59f240: 90
59f140: 90
4a3904: 90
4a3980: 90
59f4b0: 90
4c0c47: 90
47f8de: 90
4c4241: 90
64da71: 90
5bfc02: 90
7b1bc1: 90
5bfc80: 90
505280: 90
59ca80: 90
4c3c40: 90
59cec5: 90
5c8627: 90
5a3080: 90
5bc7c0: 90
7b1aa0: 90
4cd8e8: 90
4c1302: 90
686944: 90
5135fe: 90
5ac742: 90
600341: 90
4c5302: 90
52a850: 90
4c53df: 90
4be420: 90
4c9e9c: 90
4c9fc2: 90
67b6ac: 90
67b70b: 90
68dd50: 90
4f717c: 90
5bf5c0: 90
504bc0: 90
68df74: 90
4f69c2: 90
59cb1c: 90
4f6c70: 90
4cd6c1: 90
527780: 90
67eec3: 90
5bf490: 90
5bf580: 90
66ee70: 90
5bf690: 90
5bfbe0: 90
59f640: 90
4c1c2b: 90
505310: 90
4c1c40: 90
4963b0: 90
4963c0: 90
4c1d12: 90
52aeef: 90
52af5c: 90
52ac00: 90
4cd700: 90
5316a4: 90
4cda04: 90
5ac710: 90
5ac5c1: 90
64d801: 90
4c1dc0: 90
5c8810: 90
64d8c1: 90
4c2095: 90
496430: 90
4c2158: 90
4bc3a4: 90
4c5403: 90
406880: 90
4968a0: 90
496900: 90
4c233f: 90
5accf2: 90
4c2363: 90
47f741: 90
527620: 90
5ac6f3: 90
5a370c: 90
52763f: 90
504c91: 90
527774: 90
5accd0: 90
527380: 90
4f6602: 90
40f480: 90
40f442: 90
67bad4: 90
6ec681: 90
4c3be0: 90
4a35c4: 90
4c2304: 90
513721: 90
4ca040: 90
4f65c2: 90
47f884: 90
505a99: 90
4ce48c: 90
6498b0: 90
686a41: 90
4bde42: 90
64dd40: 90
496443: 90
5ac61a: 90
686da0: 90
4c2249: 90
40f3e0: 90
513396: 90
411320: 90
5c8841: 90
52af81: 90
47f7a7: 90
59cec0: 90
4c67c1: 90
4968a4: 90
64da81: 90
4bc300: 90
67b4b0: 90
672960: 90
64d9b0: 90
406c08: 90
67fb97: 90
67949a: 90
67b740: 90
7b3b03: 90
4c0310: 90
4cdbc1: 90
5ffd55: 90
4ba941: 90
688a2a: 90
686440: 90
4f6c87: 90
6797c1: 90
4a3941: 90
7b343f: 90
685660: 90
7c9440: 90
59f1f0: 90
5055d9: 90
4ca0c0: 90
5ffbe0: 90
5ffcb9: 90
685680: 90
5a2ee0: 90
59cebe: 90
504d41: 90
504b50: 90
5ac380: 90
505342: 90
686746: 90
52f160: 90
406ce3: 90
64dd94: 90
5acd43: 90
501260: 90
6498c2: 90
406ac7: 90
47f000: 90
7b3483: 90
52763a: 90
68ce30: 90
67bb82: 90
5a36e0: 90
687bc3: 90
513010: 90
4c6ec8: 90
649a45: 90
5c8610: 90
504fa0: 90
688862: 90
5133c0: 90
4bde3d: 90
5256c0: 90
4d0b5b: 90
4a3b2c: 90
5276c1: 90
529781: 90
4c2355: 90
5ad200: 90
507a02: 90
513304: 90
4d0ac2: 90
7b50b0: 90
4f6581: 90
4aa150: 90
4e2901: 90
7b372c: 90
59cb43: 90
5d7644: 90
67f100: 90
5ab990: 90
5ae16d: 91
4dde10: 91
4c2646: 91
505588: 91
5c4f7f: 91
4c6bc0: 91
525881: 91
4c931c: 91
68ce40: 91
4c1e48: 91
687900: 91
4c2687: 91
4c26c1: 91
4be481: 91
527642: 91
5ca020: 91
4c7a81: 91
59ce43: 91
7b50e4: 91
4c6902: 91
52769c: 91
5ffa50: 91
59d341: 91
4290c0: 91
4c3c02: 91
52f5b0: 91
513230: 91
4c2517: 91
4c6a46: 91
5132e0: 91
52a62a: 91
4c16da: 91
4a2c90: 91
5ff682: 91
4c54ea: 91
5ff783: 91
67b417: 91
5ae227: 91
429280: 91
4c7c57: 91
4ca901: 91
59d9c0: 91
4a3e01: 91
5ae1c0: 91
5c85a0: 91
4c2603: 91
4c7dc2: 91
4c9000: 91
531700: 91
429020: 91
59cd80: 91
4c6881: 91
688080: 91
59cdc2: 91
52f65f: 91
59ce02: 91
52a597: 91
52a1d1: 91
59d4c3: 91
59d4b0: 91
5ff7c0: 91
4be0c0: 91
505bc0: 91
4c87b4: 91
4bdfc1: 91
501280: 91
4c2726: 91
527708: 91
429080: 91
5bf4d1: 91
4c94c7: 91
4c1242: 91
4c01f0: 91
4ca317: 91
4c1210: 91
67e28b: 91
6493a0: 91
4cc4c4: 91
4dde80: 91
5ffc82: 91
4c6f15: 91
4cc7da: 91
68e083: 91
67e201: 91
4cdb34: 91
5ffdd6: 91
527370: 91
4a3de0: 91
4c2780: 91
4ca7b0: 91
4c3ce0: 91
4cc490: 91
4c0b94: 91
4c7d7e: 91
4bdf82: 91
4c7999: 91
4d0781: 91
4d0750: 91
4c6d10: 91
4c9ec1: 91
59c600: 91
5ae080: 91
4c9043: 91
4c415d: 91
429277: 91
600483: 91
4ca7c1: 91
4c0bc0: 91
5298f4: 91
67e241: 91
4c759e: 91
68d602: 91
5bf60e: 91
4c69ca: 91
529898: 91
688b80: 91
4c2582: 91
4c1140: 91
4c6ebb: 91
4c8a60: 91
4c40f7: 91
5ffb81: 91
5ffe40: 91
4a2d3f: 91
4c3d80: 91
68d902: 91
4ff71c: 91
68d7b0: 91
5ac141: 91
4c8480: 91
64c6c1: 91
67e8f0: 91
68dd82: 91
59cc58: 91
4c8445: 91
4c760b: 91
4c6781: 91
59cd20: 91
59d5c4: 91
4be444: 91
4a2cc0: 91
5011c2: 91
501180: 91
5bd1f0: 91
6499e0: 91
496054: 91
5079b0: 91
4c67bc: 91
59d542: 91
4a2f41: 91
5ffb20: 91
4c2756: 91
525840: 91
4a3290: 91
4a3c80: 91
461686: 91
52984f: 91
4c21ab: 91
4f6486: 91
505981: 91
600406: 91
68d5c3: 91
4c79c4: 91
4cc570: 91
4be47a: 91
59d803: 91
4bde1d: 91
6878c1: 91
4c6bb2: 91
59e982: 91
505b20: 91
4d08b8: 91
5ff600: 91
5c86c0: 91
5ca043: 91
5ffe02: 91
59d7f0: 91
600214: 91
4be3a0: 91
59da02: 91
4a2ec2: 91
4a3040: 91
51389d: 91
64a6e0: 91
5ac181: 91
59c910: 91
4a2d9d: 91
4aa241: 91
4bde06: 91
4c2343: 91
4f7180: 91
4bdde0: 91
600400: 91
600470: 91
5c8702: 91
5ffa82: 91
4c25c5: 91
4c6a04: 91
4a2d43: 91
4a2d06: 91
59d464: 91
5ff753: 91
687ac0: 91
5ff9c1: 91
5ff980: 91
59d380: 91
4c782f: 91
429220: 91
52f943: 91
52f904: 91
4c7f60: 91
4c3dd0: 91
4c1641: 91
4c3e42: 91
5258c1: 91
406b80: 91
4c7c82: 91
4a2eb8: 91
52fd40: 91
67e283: 91
4c2578: 91
4c7a03: 91
4c7a42: 91
4c8351: 91
5bf960: 91
5ffd42: 91
4a37c0: 91
5c8740: 91
4cc650: 91
5ffd80: 91
4c2405: 91
4f6450: 91
429040: 91
5ac110: 91
4c6b5a: 91
4c8150: 91
4a2d60: 91
4a3018: 91
600280: 91
4c8400: 91
4c7d80: 91
52a6fd: 91
4cc6c5: 91
52a5c0: 91
406cbc: 91
5ca0ca: 91
59c9c0: 91
59d310: 91
4cab50: 91
5ca081: 91
5bfb80: 91
4be4c0: 91
4c4102: 91
4c41ed: 91
5ff803: 91
59d981: 91
59d958: 91
59c92b: 91
513041: 91
600cc0: 91
52ca40: 91
5ff640: 91
4c84c1: 91
4bdf70: 91
4bc2c0: 91
4be486: 91
429130: 91
4c68c1: 91
5ff910: 91
4c6744: 91
4a2f73: 91
52f6cf: 91
4a369f: 91
4dde70: 91
4c2871: 91
52f5dd: 91
678d40: 91
4a2fc1: 91
4f6c91: 91
4d08c5: 91
5ae180: 91
4ba8e0: 91
4c6bc8: 91
6ec670: 91
5ffb40: 91
67e104: 92
64d8a0: 92
68d7c2: 92
59eba0: 92
59d3e0: 92
4c6806: 92
5d7640: 92
59ed96: 92
67ee80: 92
5139c0: 92
6483d0: 92
529902: 92
6ee3e0: 92
504fcb: 92
4c0c07: 92
52a68a: 92
4c08c0: 92
531670: 92
4cae00: 92
4c684c: 92
64c300: 92
4d0842: 92
5135a0: 92
67e901: 92
4d0800: 92
64c697: 92
51335a: 92
505961: 92
687680: 92
531674: 92
4ca8e0: 92
67e303: 92
59c984: 92
67e963: 92
4caa4d: 92
4a36c0: 92
4c0a08: 92
4c1404: 92
4a2f00: 92
4c3f40: 92
529943: 92
64c342: 92
501210: 92
529c0f: 92
5c5a42: 92
59ebc0: 92
4ca800: 92
4a3742: 92
7b2f9e: 92
4c0843: 92
4c3e05: 92
513b01: 92
4c3ec1: 92
67e340: 92
4caecb: 92
67e98a: 92
684e42: 92
67ea02: 92
4c93f8: 92
68df80: 92
7bd760: 92
4c1b17: 92
4113d0: 92
513a00: 92
4ce450: 92
4c6985: 92
52a283: 92
4ca943: 92
4c0885: 92
5d7680: 92
4069a0: 92
68d440: 92
406f00: 92
59d3fa: 92
4c3f16: 92
5ab99f: 92
4a3804: 92
65e860: 92
4c1e84: 92
6003e0: 92
4c0781: 92
406b41: 92
406b1f: 92
4291c0: 92
4a38d3: 92
67e2d2: 92
505b5f: 92
4968d4: 92
59cd40: 92
51381e: 92
52a705: 92
59eb41: 92
51371e: 92
67e5a7: 92
406944: 92
4c7482: 92
64d680: 92
68d5a0: 92
4c1969: 92
52a388: 92
513241: 92
684e10: 92
41f860: 92
4a3840: 92
67e0c0: 92
4c6ec2: 92
4c1a2e: 92
67e401: 93
513601: 93
67e9d0: 93
64d6c3: 93
406e10: 93
5bf6da: 93
52a59b: 93
4c6dc0: 93
505b68: 93
4c0760: 93
4c2383: 93
4c1048: 93
4c145a: 93
4c3c80: 93
529b99: 93
59eb05: 93
529c9f: 93
5c5a20: 93
52a181: 93
4c6d42: 93
5ffa92: 93
410d40: 93
4c3e8e: 93
410e01: 93
59e942: 93
4baa09: 93
4f6d42: 93
513281: 93
52fdf4: 93
51370e: 93
5ff940: 93
67e5c1: 93
5c7fd0: 93
4c2242: 93
4c8442: 93
4c0900: 93
4c1081: 93
67ee48: 93
513990: 93
59e9c2: 93
4c6d82: 93
67e461: 93
5ffd03: 93
7b5740: 93
5136ca: 93
59d990: 93
5c5aaf: 93
45fa10: 93
406ef9: 93
59c95a: 93
4069c0: 93
4c7469: 93
4c9425: 94
4c94a0: 94
687aa0: 94
5bfec4: 94
4be586: 94
4c0941: 94
52a1c2: 94
4c0e01: 94
505502: 94
68cd30: 94
64d9fd: 94
5135e9: 94
4a3703: 94
64d702: 94
4cd697: 94
410cc2: 94
4c0e85: 94
4c8388: 94
4c6eaf: 94
4cd681: 94
52a27f: 94
4a32d4: 94
529cfe: 95
4c0ec0: 95
410e41: 95
4c3bfb: 95
59ea41: 95
4c8182: 95
68ddc0: 95
4c9440: 95
59d98d: 95
4c20c3: 95
5ffff9: 95
513740: 95
531680: 95
4c10c1: 95
4c0816: 95
5bfe80: 95
68e0c2: 95
5ae440: 95
410dc0: 95
410d87: 96
4c0c85: 96
5059c1: 96
67fadb: 96
529b60: 96
600250: 96
688a81: 96
530410: 96
4cadd0: 96
4c0dc7: 96
5c4e70: 96
5c4e81: 96
68df60: 96
4c110d: 96
4c0e59: 97
4c1821: 97
52a150: 97
4c02bf: 97
68d400: 97
4a2f81: 97
67f068: 97
7b50f9: 97
4caba0: 97
529d01: 97
4c1784: 97
52fe00: 97
64a0a0: 98
500d01: 98
4f6d3b: 98
410d25: 98
64a0c1: 98
4ca9c0: 98
531692: 98
52a326: 98
4ef0f0: 98
68cd41: 98
513b80: 98
4c1751: 98
4ca990: 99
4c0202: 99
4c23e3: 99
4c1841: 99
4c1700: 99
688240: 99
4c83c0: 100
5bfe40: 100
64da39: 100
68dc60: 100
67bb40: 102
529d82: 102
529d6e: 102
529e80: 103
688a20: 103
688a74: 103
64d9d0: 104
5ffd99: 104
4eee04: 105
507a7c: 105
68eac0: 105
4603c0: 106
688691: 107
688909: 108
4c6da1: 108
47f7c0: 109
529e5d: 109
688840: 109
64d6bf: 110
5010d5: 110
6885e0: 110
500d6d: 112
52f5c1: 114
64d96b: 114
500d85: 116
429134: 116
7b1aff: 117
67bb30: 117
68864c: 117
4a309b: 118
7c9672: 120
4a2eb5: 122
4c6ed6: 122
4c1356: 123
4c286a: 124
4eee00: 125
59f224: 127
64d93e: 131
4f658b: 133
4f7102: 133
64c591: 137
7c9612: 139
5299b4: 142
4a3603: 149
4a2f64: 150
507a76: 151
4eede0: 151
410e2e: 152
52a319: 154
7b3609: 154
4cdb31: 154
531706: 160
4c6d65: 160
524d40: 164
5ffca3: 165
4ff684: 165
4c3d8e: 165
4c6de3: 165
5ff617: 166
410c76: 167
7b14d8: 169
4c6f01: 169
4c9ea9: 170
59ca00: 171
461674: 171
59f242: 171
7b1472: 172
5ffe83: 174
4eeff0: 175
4cd692: 176
505384: 178
5ff628: 179
4c9e86: 180
4bc30a: 180
529d28: 180
688854: 180
4c2461: 180
600040: 181
67ee41: 181
5fffb0: 181
7c9619: 182
53170a: 182
7b5730: 182
686941: 182
4ba902: 183
4c6ef4: 184
429218: 185
4d0c0d: 185
4caa8b: 185
5055a9: 186
5c4f82: 186
4c79ec: 187
5ffcbd: 190
410e5d: 193
5fffd2: 193
7b35cf: 195
49692f: 199
688602: 203
64da01: 223
513301: 224
64d8ea: 226
64d6dc: 228
4290d7: 231
4a3080: 231
5ffffd: 232
64d911: 238
504d15: 247
429c20: 250
5fffc7: 250
64dd20: 261
7b3033: 261
4f6c95: 269
4c1381: 270
47f736: 270
4f6c7e: 272
5fffc3: 275
5ac310: 279
52a864: 297
5ffeeb: 298
4c679b: 328
504bd1: 334
4c1376: 336
64d8e0: 337
410cb7: 364
4ca007: 372
410cae: 374
4ff5aa: 426
5ffed0: 435
52ac09: 438
64da2e: 449
7b5749: 454
4ff65d: 459
527660: 464
5fff70: 485
429189: 497
64d8e4: 523
5ffeef: 557
5c85b0: 560
5276bd: 569
410e6b: 592
42921c: 594
4291aa: 620
52a981: 627
527657: 677
7b2fc7: 682
5fff8d: 823
4bc35d: 849
5ffed4: 925
5ffee7: 1015
4d0bf8: 1026
5ffef3: 1040
505375: 1050
64da2a: 1112
5fff83: 1230
4c1a42: 1277
46039b: 1537
64d6d7: 2031
59cd89: 2455
527669: 2576
59cdcf: 37970
59cdb0: 59698
59d4e0: 85220
59cdee: 129307
59cdcb: 146421
59cdf2: 223727
59cd8d: 294298
59d4d1: 439623
59cde2: 528388
59cdbf: 593818
59cd9b: 595164

RAW hits: 297227
Loads Generated: 58989066
Loads sent to L1D: 58691839
Stores Generated: 9906420
Stores sent to L1D: 9906424
Major fault: 0 Minor fault: 11434
Allocated PAGES: 11434
Total Load insts: 73179739
Total Non-spec loads: 11679520
Percentage of speculative loads: 84.04
L1D response latency: 103.834 cycles
Load retirement latency: 176.046 cycles

------------------
Depth Distribution
------------------
depth 0: 1066009
depth 1: 3471991
depth 2: 1997174
depth 3: 57460
depth 4: 3344
depth 5: 1106
depth 6: 976
depth 7: 972
depth 8: 1041
depth 9: 1360
depth 10: 194
depth 11: 164
depth 12: 0
depth 13: 0
depth 14: 0
depth 15: 0
depth 16: 0
depth 17: 0
depth 18: 0
depth 19: 0
depth 20: 0
depth 21: 0
depth 22: 0
depth 23: 0
depth 24: 0
depth 25: 0
depth 26: 0
depth 27: 0
depth 28: 0
depth 29: 0
Total: 6601791
------------------
ST read accesses: 4189958
ST write accesses: 1048723
PT read accesses: 66893238
PT write accesses: 5189441
FILTER read accesses: 27556358
FILTER write accesses: 25653792
GHR read accesses: 10783390
GHR write accesses: 348048
PERC read accesses: 435511917
PERC write accesses: 65813234
GHR counter read accesses: 10477362
GHR counter write accesses: 14556400
GHR ip read accesses: 38985717
GHR ip write accesses: 20954724
ST tag read accesses: 2551400784
ST tag write accesses: 288618060

DRAM Statistics
 CHANNEL 0
 RQ ROW_BUFFER_HIT:    5118063  ROW_BUFFER_MISS:    2430892
 DBUS_CONGESTED:       1706
 WQ ROW_BUFFER_HIT:       8300  ROW_BUFFER_MISS:      61310  FULL:          0

 AVG_CONGESTED_CYCLE: 4
 All warmup complete: 2
Channel 0 Bank busy for read cycles: 0
Channel 0 Bank busy for write cycles: 0
Channel 0
Rank 0
0banks busy for read cycles: 332835768
0banks busy for write cycles: 50248
1banks busy for read cycles: 115954961
1banks busy for write cycles: 9062110
2banks busy for read cycles: 58999094
2banks busy for write cycles: 2006400
3banks busy for read cycles: 35620680
3banks busy for write cycles: 535277
4banks busy for read cycles: 24266338
4banks busy for write cycles: 137221
5banks busy for read cycles: 19158265
5banks busy for write cycles: 35508
6banks busy for read cycles: 8803856
6banks busy for write cycles: 9047
7banks busy for read cycles: 3654762
7banks busy for write cycles: 863
8banks busy for read cycles: 1058773
8banks busy for write cycles: 710

CPU 0 Branch Prediction Accuracy: 99.7326% MPKI: 0.69165 Average ROB Occupancy at Mispredict: 118.634
Branch types
NOT_BRANCH: 148259800 74.1299%
BRANCH_DIRECT_JUMP: 525802 0.262901%
BRANCH_INDIRECT: 94835 0.0474175%
BRANCH_CONDITIONAL: 46390990 23.1955%
BRANCH_DIRECT_CALL: 1305271 0.652636%
BRANCH_INDIRECT_CALL: 1059042 0.529521%
BRANCH_RETURN: 2364309 1.18215%
BRANCH_OTHER: 0 0%

DRAM PAGES: 1048576
Allocated PAGES: 11434
