Initialize SIGNATURE TABLE
ST_SET: 1
ST_WAY: 256
ST_TAG_BIT: 16
ST_TAG_MASK: ffff

Initialize PATTERN TABLE
PT_SET: 512
PT_WAY: 4
SIG_DELTA_BIT: 7
C_SIG_BIT: 4
C_DELTA_BIT: 4

Initialize PREFETCH FILTER
FILTER_SET: 1024

Initialize PERCEPTRON
PERC_ENTRIES: 4096
PERC_FEATURES: 9

*** ChampSim Multicore Out-of-Order Simulator ***

Warmup Instructions: 50000000
Simulation Instructions: 200000000
Number of CPUs: 1
LLC sets: 2048
LLC ways: 16
Secure Berti: OFF
Berti: OFF
Berti Fill: OFF
On commit prefetching: OFF
L2 LLC Bypass speculative loads: OFF
Off-chip DRAM Size: 4096 MB Channels: 1 Width: 64-bit Data Rate: 6400 MT/s
CPU 0 runs /home/sumon/secure_berti/Berti_Baseline/../../traces/spec/649.fotonik3d_s-7084B.champsimtrace.xz
.xz
BTB has LRU replacement policy
ITLB has LRU replacement policy
DTLB has LRU replacement policy
STLB has LRU replacement policy
L1I has LRU replacement policy
L1D has LRU replacement policy
PERC_ENTRIES: 4096
L2C has LRU replacement policy
LLC has LRU replacement policy
Heartbeat CPU 0 instructions: 10000001 cycles: 2909190 heartbeat IPC: 3.43738 cumulative IPC: 3.43738 (Simulation time: 0 hr 0 min 32 sec) 
Heartbeat CPU 0 instructions: 20000001 cycles: 5817769 heartbeat IPC: 3.43811 cumulative IPC: 3.43774 (Simulation time: 0 hr 1 min 5 sec) 
Heartbeat CPU 0 instructions: 30000001 cycles: 8729711 heartbeat IPC: 3.43413 cumulative IPC: 3.43654 (Simulation time: 0 hr 1 min 34 sec) 
Heartbeat CPU 0 instructions: 40000003 cycles: 11646420 heartbeat IPC: 3.42852 cumulative IPC: 3.43453 (Simulation time: 0 hr 1 min 53 sec) 
Heartbeat CPU 0 instructions: 50000002 cycles: 14570615 heartbeat IPC: 3.41974 cumulative IPC: 3.43156 (Simulation time: 0 hr 2 min 13 sec) 

Warmup complete CPU 0 instructions: 50000002 cycles: 14570615 (Simulation time: 0 hr 2 min 13 sec) 

Heartbeat CPU 0 instructions: 60000002 cycles: 24732730 heartbeat IPC: 0.984047 cumulative IPC: 0.984047 (Simulation time: 0 hr 2 min 37 sec) 
Heartbeat CPU 0 instructions: 70000002 cycles: 34887907 heartbeat IPC: 0.984719 cumulative IPC: 0.984383 (Simulation time: 0 hr 3 min 1 sec) 
Heartbeat CPU 0 instructions: 80000001 cycles: 45044547 heartbeat IPC: 0.984577 cumulative IPC: 0.984448 (Simulation time: 0 hr 3 min 26 sec) 
Heartbeat CPU 0 instructions: 90000001 cycles: 55206125 heartbeat IPC: 0.984099 cumulative IPC: 0.984361 (Simulation time: 0 hr 3 min 51 sec) 
Heartbeat CPU 0 instructions: 100000003 cycles: 65357227 heartbeat IPC: 0.985115 cumulative IPC: 0.984511 (Simulation time: 0 hr 4 min 16 sec) 
Heartbeat CPU 0 instructions: 110000000 cycles: 75521106 heartbeat IPC: 0.983876 cumulative IPC: 0.984406 (Simulation time: 0 hr 4 min 45 sec) 
Heartbeat CPU 0 instructions: 120000000 cycles: 85676266 heartbeat IPC: 0.984721 cumulative IPC: 0.984451 (Simulation time: 0 hr 5 min 18 sec) 
Heartbeat CPU 0 instructions: 130000003 cycles: 95824667 heartbeat IPC: 0.985377 cumulative IPC: 0.984566 (Simulation time: 0 hr 5 min 50 sec) 
Heartbeat CPU 0 instructions: 140000002 cycles: 105980342 heartbeat IPC: 0.984671 cumulative IPC: 0.984578 (Simulation time: 0 hr 6 min 22 sec) 
Heartbeat CPU 0 instructions: 150000001 cycles: 116132437 heartbeat IPC: 0.985018 cumulative IPC: 0.984622 (Simulation time: 0 hr 6 min 55 sec) 
Heartbeat CPU 0 instructions: 160000001 cycles: 126304787 heartbeat IPC: 0.983057 cumulative IPC: 0.984479 (Simulation time: 0 hr 7 min 27 sec) 
Heartbeat CPU 0 instructions: 170000000 cycles: 136474824 heartbeat IPC: 0.98328 cumulative IPC: 0.984379 (Simulation time: 0 hr 8 min 0 sec) 
Heartbeat CPU 0 instructions: 180000001 cycles: 146633926 heartbeat IPC: 0.984339 cumulative IPC: 0.984376 (Simulation time: 0 hr 8 min 31 sec) 
Heartbeat CPU 0 instructions: 190000001 cycles: 156791443 heartbeat IPC: 0.984493 cumulative IPC: 0.984385 (Simulation time: 0 hr 9 min 2 sec) 
Heartbeat CPU 0 instructions: 200000001 cycles: 166947896 heartbeat IPC: 0.984596 cumulative IPC: 0.984399 (Simulation time: 0 hr 9 min 33 sec) 
Heartbeat CPU 0 instructions: 210000003 cycles: 177108785 heartbeat IPC: 0.984166 cumulative IPC: 0.984384 (Simulation time: 0 hr 10 min 4 sec) 
Heartbeat CPU 0 instructions: 220000000 cycles: 187270773 heartbeat IPC: 0.984059 cumulative IPC: 0.984365 (Simulation time: 0 hr 10 min 35 sec) 
Heartbeat CPU 0 instructions: 230000001 cycles: 197433994 heartbeat IPC: 0.98394 cumulative IPC: 0.984341 (Simulation time: 0 hr 11 min 5 sec) 
Heartbeat CPU 0 instructions: 240000002 cycles: 207595547 heartbeat IPC: 0.984102 cumulative IPC: 0.984329 (Simulation time: 0 hr 11 min 34 sec) 
Heartbeat CPU 0 instructions: 250000001 cycles: 217747946 heartbeat IPC: 0.984989 cumulative IPC: 0.984362 (Simulation time: 0 hr 12 min 1 sec) 
Finished CPU 0 instructions: 200000003 cycles: 203177332 cumulative IPC: 0.984362 (Simulation time: 0 hr 12 min 1 sec) 

ChampSim completed all CPUs

Region of Interest Statistics

CPU 0 cumulative IPC: 0.984362 instructions: 200000003 cycles: 203177332
ITLB TOTAL     ACCESS:   24346491  HIT:   24346491  MISS:          0  HIT %:        100  MISS %:          0   MPKI: 0
ITLB Test counter:          0
ITLB LOAD TRANSLATION ACCESS:   24346491  HIT:   24346491  MISS:          0  HIT %:        100  MISS %:          0   MPKI: 0
ITLB PREFETCH  REQUESTED:          0  ISSUED:          0  USEFUL:          0  USELESS:          0
ITLB USEFUL LOAD PREFETCHES:          0 PREFETCH ISSUED TO LOWER LEVEL:          0  ACCURACY: -nan
ITLB TIMELY PREFETCHES:          0 LATE PREFETCHES: 0 DROPPED PREFETCHES: 0
ITLB COMMIT LATE PREFETCHES: 0 MISSED OPPORTUNITY: 0 LATE IN PQ: 0 UNCOVERED: 0
ITLB COMMIT LATE MSHR PREFETCHES: 0
ITLB MPKI TOTAL: 0 MSHR LATE: 0 PQ LATE: 0 COMMIT LATE: 0 MISSED OPPORTUNITY: 0 UNCOVERED: 0
ITLB PREFETCHES SAME FILL-ORIGIN LEVEL: 0 DIFFERENT FILL-ORIGIN LEVEL: 0
ITLB AVERAGE MISS LATENCY: -nan cycles
ITLB AVERAGE MISS LATENCY LOAD: -nan cycles
ITLB AVERAGE MISS LATENCY PREFETCH: -nan cycles
ITLB AVERAGE MSHR OCCUPANCY: 0
ITLB MSHR FULL: 0
ITLB RQ	ACCESS:   29752707	FORWARD:          0	MERGED:    5406216	TO_CACHE:   24346491

DTLB TOTAL     ACCESS:   52919172  HIT:   52792251  MISS:     126921  HIT %:    99.7602  MISS %:   0.239839   MPKI: 0.634605
DTLB Test counter:          0
DTLB LOAD TRANSLATION ACCESS:   52919172  HIT:   52792251  MISS:     126921  HIT %:    99.7602  MISS %:   0.239839   MPKI: 0.634605
DTLB PREFETCH  REQUESTED:          0  ISSUED:          0  USEFUL:          0  USELESS:          0
DTLB USEFUL LOAD PREFETCHES:          0 PREFETCH ISSUED TO LOWER LEVEL:          0  ACCURACY: -nan
DTLB TIMELY PREFETCHES:          0 LATE PREFETCHES: 0 DROPPED PREFETCHES: 0
DTLB COMMIT LATE PREFETCHES: 0 MISSED OPPORTUNITY: 0 LATE IN PQ: 0 UNCOVERED: 0
DTLB COMMIT LATE MSHR PREFETCHES: 0
DTLB MPKI TOTAL: 0 MSHR LATE: 0 PQ LATE: 0 COMMIT LATE: 0 MISSED OPPORTUNITY: 0 UNCOVERED: 0
DTLB PREFETCHES SAME FILL-ORIGIN LEVEL: 0 DIFFERENT FILL-ORIGIN LEVEL: 0
DTLB AVERAGE MISS LATENCY: 65.8257 cycles
DTLB AVERAGE MISS LATENCY LOAD: -nan cycles
DTLB AVERAGE MISS LATENCY PREFETCH: -nan cycles
DTLB AVERAGE MSHR OCCUPANCY: 0.0129059
DTLB MSHR FULL: 0.000102066
DTLB RQ	ACCESS:   58152064	FORWARD:          0	MERGED:    5230889	TO_CACHE:   52921175

STLB TOTAL     ACCESS:     126921  HIT:      72314  MISS:      54607  HIT %:    56.9756  MISS %:    43.0244   MPKI: 0.273035
STLB Test counter:          0
STLB LOAD TRANSLATION ACCESS:     126921  HIT:      72314  MISS:      54607  HIT %:    56.9756  MISS %:    43.0244   MPKI: 0.273035
STLB PREFETCH  REQUESTED:          0  ISSUED:          0  USEFUL:          0  USELESS:          0
STLB USEFUL LOAD PREFETCHES:          0 PREFETCH ISSUED TO LOWER LEVEL:          0  ACCURACY: -nan
STLB TIMELY PREFETCHES:          0 LATE PREFETCHES: 0 DROPPED PREFETCHES: 0
STLB COMMIT LATE PREFETCHES: 0 MISSED OPPORTUNITY: 0 LATE IN PQ: 0 UNCOVERED: 0
STLB COMMIT LATE MSHR PREFETCHES: 0
STLB MPKI TOTAL: 0 MSHR LATE: 0 PQ LATE: 0 COMMIT LATE: 0 MISSED OPPORTUNITY: 0 UNCOVERED: 0
STLB PREFETCHES SAME FILL-ORIGIN LEVEL: 0 DIFFERENT FILL-ORIGIN LEVEL: 0
STLB AVERAGE MISS LATENCY: 131.32 cycles
STLB AVERAGE MISS LATENCY LOAD: -nan cycles
STLB AVERAGE MISS LATENCY PREFETCH: -nan cycles
STLB AVERAGE MSHR OCCUPANCY: 0.0243852
STLB MSHR FULL: 0
STLB RQ	ACCESS:     126921	FORWARD:          0	MERGED:          0	TO_CACHE:     126921

STLB Hit, L1D data hit: 0
STLB Hit, L2C data hit: 0
STLB Hit, LLC data hit: 0
STLB Hit, LLC data miss: 0
STLB STLB hints to L2: 0
L1D TOTAL     ACCESS:   58121457  HIT:   54846490  MISS:    3274967  HIT %:    94.3653  MISS %:     5.6347   MPKI: 16.3748
L1D Test counter:          0
L1D LOAD      ACCESS:   48287016  HIT:   45012049  MISS:    3305573  HIT %:    93.2177  MISS %:    6.78229   MPKI: 16.3748
L1D RFO       ACCESS:    9834441  HIT:    9834441  MISS:          0  HIT %:        100  MISS %:          0   MPKI: 0
L1D PREFETCH  REQUESTED:          0  ISSUED:          0  USEFUL:          0  USELESS:          0
L1D USEFUL LOAD PREFETCHES:          0 PREFETCH ISSUED TO LOWER LEVEL:          0  ACCURACY: -nan
L1D TIMELY PREFETCHES:          0 LATE PREFETCHES: 0 DROPPED PREFETCHES: 0
L1D COMMIT LATE PREFETCHES: 0 MISSED OPPORTUNITY: 0 LATE IN PQ: 0 UNCOVERED: 0
L1D COMMIT LATE MSHR PREFETCHES: 0
L1D MPKI TOTAL: 16.5279 MSHR LATE: 0 PQ LATE: 0 COMMIT LATE: 0 MISSED OPPORTUNITY: 0 UNCOVERED: 0
L1D PREFETCHES SAME FILL-ORIGIN LEVEL: 0 DIFFERENT FILL-ORIGIN LEVEL: 0
L1D AVERAGE MISS LATENCY: 20.8805 cycles
L1D AVERAGE MISS LATENCY LOAD: 20.8805 cycles
L1D AVERAGE MISS LATENCY PREFETCH: -nan cycles
L1D AVERAGE MSHR OCCUPANCY: 0.304266
L1D MSHR FULL: 0
L1D RQ	ACCESS:   70259041	FORWARD:          0	MERGED:   21881438	TO_CACHE:   48317622
L1D WQ	ACCESS:    9834442	FORWARD:      59981	MERGED:          0	TO_CACHE:    9834442

L1D UNIQUE REGIONS ACCESSED: 0
L1D REGIONS CONFLICTS: 0
L1D Cross Page Prefetch Requests: 0
L1D Same Page Prefetch Requests: 0
L1D ROI Sum of L1D PQ occupancy: 0
L1D PREFETCHES PUSHED FROM L2C: 0
421386: 1
421374: 1
421426: 1
4210b2: 3
42118f: 3
420d00: 6
420c9c: 8
42140c: 11
421430: 11
421381: 11
420dd2: 12
4213d7: 12
420962: 12
421354: 12
421362: 12
420cfb: 14
421140: 58
420f21: 90
420f77: 97
420e7e: 413
420c8a: 473
420da6: 2306
4210a1: 2749
42112f: 2802
421111: 2806
421123: 2807
42117e: 2807
4210d0: 2810
4210de: 2810
420e41: 3353
420c3d: 168399
420d21: 168399
420dfd: 168399
420c7c: 341482
420cdf: 341837
420d5a: 342385
420d1b: 342387
420df7: 342387
420d4c: 342388
420cc0: 342393
420c37: 348000
L1I TOTAL     ACCESS:   29752705  HIT:   29752705  MISS:          0  HIT %:        100  MISS %:          0   MPKI: 0
L1I Test counter:          0
L1I LOAD      ACCESS:   29752705  HIT:   29752705  MISS:          0  HIT %:        100  MISS %:          0   MPKI: 0
L1I PREFETCH  REQUESTED:          0  ISSUED:          0  USEFUL:          0  USELESS:          0
L1I USEFUL LOAD PREFETCHES:          0 PREFETCH ISSUED TO LOWER LEVEL:          0  ACCURACY: -nan
L1I TIMELY PREFETCHES:          0 LATE PREFETCHES: 0 DROPPED PREFETCHES: 0
L1I COMMIT LATE PREFETCHES: 0 MISSED OPPORTUNITY: 0 LATE IN PQ: 0 UNCOVERED: 0
L1I COMMIT LATE MSHR PREFETCHES: 0
L1I MPKI TOTAL: 0 MSHR LATE: 0 PQ LATE: 0 COMMIT LATE: 0 MISSED OPPORTUNITY: 0 UNCOVERED: 0
L1I PREFETCHES SAME FILL-ORIGIN LEVEL: 0 DIFFERENT FILL-ORIGIN LEVEL: 0
L1I AVERAGE MISS LATENCY: -nan cycles
L1I AVERAGE MISS LATENCY LOAD: -nan cycles
L1I AVERAGE MISS LATENCY PREFETCH: -nan cycles
L1I AVERAGE MSHR OCCUPANCY: 0
L1I MSHR FULL: 0
L1I RQ	ACCESS:   43324380	FORWARD:          0	MERGED:   13571673	TO_CACHE:   29752707

BTB TOTAL     ACCESS:    1347104  HIT:    1347101  MISS:          3  HIT %:    99.9998  MISS %:  0.0002227   MPKI: 1.5e-05
BTB Test counter:          0
BTB BRANCH_DIRECT_JUMP	ACCESS:          0  HIT:          0  MISS:          0
BTB BRANCH_INDIRECT	ACCESS:          0  HIT:          0  MISS:          0
BTB BRANCH_CONDITIONAL	ACCESS:    1347104  HIT:    1347101  MISS:          3
BTB BRANCH_DIRECT_CALL	ACCESS:          0  HIT:          0  MISS:          0
BTB BRANCH_INDIRECT_CALL	ACCESS:          0  HIT:          0  MISS:          0
BTB BRANCH_RETURN	ACCESS:          0  HIT:          0  MISS:          0
BTB BRANCH_OTHER ACCESS:          0  HIT:          0  MISS:          0

L2C TOTAL     ACCESS:    8807702  HIT:    5320780  MISS:    3486922  HIT %:    60.4105  MISS %:    39.5895   MPKI: 17.4346
L2C Test counter:          0
L2C LOAD      ACCESS:    3274967  HIT:    3191276  MISS:      83691  HIT %:    97.4445  MISS %:    2.55548   MPKI: 0.418455
L2C DATA LOAD MPKI: 0.418455
L2C INSTRUCTION LOAD MPKI: 0
L2C PREFETCH  ACCESS:    4439683  HIT:    1043484  MISS:    3396199  HIT %:    23.5036  MISS %:    76.4964   MPKI: 16.981
L2C DATA PREFETCH MPKI: 16.981
L2C INSTRUCTION PREFETCH MPKI: 0
L2C WRITEBACK ACCESS:    1038440  HIT:    1038433  MISS:          7  HIT %:    99.9993  MISS %: 0.000674088   MPKI: 3.5e-05
L2C LOAD TRANSLATION ACCESS:      54612  HIT:      47587  MISS:       7025  HIT %:    87.1365  MISS %:    12.8635   MPKI: 0.035125
L2C PREFETCH  REQUESTED:    4445012  ISSUED:    4444920  USEFUL:    3190995  USELESS:     205205
L2C USEFUL LOAD PREFETCHES:    3190995 PREFETCH ISSUED TO LOWER LEVEL:    3398564  ACCURACY: 93.8924
L2C TIMELY PREFETCHES:    3190995 LATE PREFETCHES: 2360 DROPPED PREFETCHES: 0
L2C COMMIT LATE PREFETCHES: 0 MISSED OPPORTUNITY: 0 LATE IN PQ: 0 UNCOVERED: 0
L2C COMMIT LATE MSHR PREFETCHES: 0
L2C MPKI TOTAL: 0.418455 MSHR LATE: 0.0118 PQ LATE: 0 COMMIT LATE: 0 MISSED OPPORTUNITY: 0 UNCOVERED: 0
L2C PREFETCHES SAME FILL-ORIGIN LEVEL: 3398564 DIFFERENT FILL-ORIGIN LEVEL: 0
L2C AVERAGE MISS LATENCY: 215.033 cycles
L2C AVERAGE MISS LATENCY LOAD: 208.458 cycles
L2C AVERAGE MISS LATENCY PREFETCH: 215.152 cycles
L2C AVERAGE MSHR OCCUPANCY: 3.41565
L2C MSHR FULL: 9.01015e-07
L2C RQ	ACCESS:    3329579	FORWARD:          0	MERGED:          0	TO_CACHE:    3329579
L2C WQ	ACCESS:    1038440	FORWARD:          0	MERGED:          0	TO_CACHE:    1038440
L2C PQ	ACCESS:    4444920	FORWARD:          0	MERGED:         65	TO_CACHE:    4444855

L2C Instructions Evicting Data 0
L2C Translations Evicting Data 7021
L2C Data Evicting Data 3472867
L2C Instructions Evicting Instructions 0
L2C Translations Evicting Instructions 0
L2C Data Evicting Instructions 0
L2C Instructions Evicting Translations 0
L2C Translations Evicting Translations 4
L2C Data Evicting Translations 7023
L2C Dense regions hint from L2: 0
421386: 1
421426: 1
421140: 1
421430: 3
420d00: 4
420c9c: 8
421381: 11
421354: 11
42140c: 11
421362: 12
420962: 12
4213d7: 12
420dd2: 12
420cfb: 14
420c8a: 23
420f77: 23
420e7e: 29
420f21: 35
42112f: 63
4210a1: 64
42117e: 65
4210d0: 66
421123: 66
421111: 67
4210de: 67
420da6: 214
420e41: 276
420d21: 3722
420dfd: 3765
420c3d: 3767
420d1b: 8796
420cdf: 8831
420d4c: 8874
420c37: 8922
420cc0: 8931
420c7c: 8935
420d5a: 8965
420df7: 9012
PSCL5 TOTAL     ACCESS:      54607  HIT:      54607  MISS:          0  HIT %:        100  MISS %:          0   MPKI: 0
PSCL5 Test counter:          0
PSCL5 LOAD TRANSLATION ACCESS:      54607  HIT:      54607  MISS:          0  HIT %:        100  MISS %:          0   MPKI: 0
PSCL5 PREFETCH  REQUESTED:          0  ISSUED:          0  USEFUL:          0  USELESS:          0
PSCL5 USEFUL LOAD PREFETCHES:          0 PREFETCH ISSUED TO LOWER LEVEL:          0  ACCURACY: -nan
PSCL5 TIMELY PREFETCHES:          0 LATE PREFETCHES: 0 DROPPED PREFETCHES: 0
PSCL5 COMMIT LATE PREFETCHES: 0 MISSED OPPORTUNITY: 0 LATE IN PQ: 0 UNCOVERED: 0
PSCL5 COMMIT LATE MSHR PREFETCHES: 0
PSCL5 MPKI TOTAL: 0 MSHR LATE: 0 PQ LATE: 0 COMMIT LATE: 0 MISSED OPPORTUNITY: 0 UNCOVERED: 0
PSCL5 PREFETCHES SAME FILL-ORIGIN LEVEL: 0 DIFFERENT FILL-ORIGIN LEVEL: 0

PSCL4 TOTAL     ACCESS:      54607  HIT:      54607  MISS:          0  HIT %:        100  MISS %:          0   MPKI: 0
PSCL4 Test counter:          0
PSCL4 LOAD TRANSLATION ACCESS:      54607  HIT:      54607  MISS:          0  HIT %:        100  MISS %:          0   MPKI: 0
PSCL4 PREFETCH  REQUESTED:          0  ISSUED:          0  USEFUL:          0  USELESS:          0
PSCL4 USEFUL LOAD PREFETCHES:          0 PREFETCH ISSUED TO LOWER LEVEL:          0  ACCURACY: -nan
PSCL4 TIMELY PREFETCHES:          0 LATE PREFETCHES: 0 DROPPED PREFETCHES: 0
PSCL4 COMMIT LATE PREFETCHES: 0 MISSED OPPORTUNITY: 0 LATE IN PQ: 0 UNCOVERED: 0
PSCL4 COMMIT LATE MSHR PREFETCHES: 0
PSCL4 MPKI TOTAL: 0 MSHR LATE: 0 PQ LATE: 0 COMMIT LATE: 0 MISSED OPPORTUNITY: 0 UNCOVERED: 0
PSCL4 PREFETCHES SAME FILL-ORIGIN LEVEL: 0 DIFFERENT FILL-ORIGIN LEVEL: 0

PSCL3 TOTAL     ACCESS:      54607  HIT:      54607  MISS:          0  HIT %:        100  MISS %:          0   MPKI: 0
PSCL3 Test counter:          0
PSCL3 LOAD TRANSLATION ACCESS:      54607  HIT:      54607  MISS:          0  HIT %:        100  MISS %:          0   MPKI: 0
PSCL3 PREFETCH  REQUESTED:          0  ISSUED:          0  USEFUL:          0  USELESS:          0
PSCL3 USEFUL LOAD PREFETCHES:          0 PREFETCH ISSUED TO LOWER LEVEL:          0  ACCURACY: -nan
PSCL3 TIMELY PREFETCHES:          0 LATE PREFETCHES: 0 DROPPED PREFETCHES: 0
PSCL3 COMMIT LATE PREFETCHES: 0 MISSED OPPORTUNITY: 0 LATE IN PQ: 0 UNCOVERED: 0
PSCL3 COMMIT LATE MSHR PREFETCHES: 0
PSCL3 MPKI TOTAL: 0 MSHR LATE: 0 PQ LATE: 0 COMMIT LATE: 0 MISSED OPPORTUNITY: 0 UNCOVERED: 0
PSCL3 PREFETCHES SAME FILL-ORIGIN LEVEL: 0 DIFFERENT FILL-ORIGIN LEVEL: 0

PSCL2 TOTAL     ACCESS:      54607  HIT:      54517  MISS:         90  HIT %:    99.8352  MISS %:   0.164814   MPKI: 0.00045
PSCL2 Test counter:          0
PSCL2 LOAD TRANSLATION ACCESS:      54607  HIT:      54517  MISS:         90  HIT %:    99.8352  MISS %:   0.164814   MPKI: 0.00045
PSCL2 PREFETCH  REQUESTED:          0  ISSUED:          0  USEFUL:          0  USELESS:          0
PSCL2 USEFUL LOAD PREFETCHES:          0 PREFETCH ISSUED TO LOWER LEVEL:          0  ACCURACY: -nan
PSCL2 TIMELY PREFETCHES:          0 LATE PREFETCHES: 0 DROPPED PREFETCHES: 0
PSCL2 COMMIT LATE PREFETCHES: 0 MISSED OPPORTUNITY: 0 LATE IN PQ: 0 UNCOVERED: 0
PSCL2 COMMIT LATE MSHR PREFETCHES: 0
PSCL2 MPKI TOTAL: 0 MSHR LATE: 0 PQ LATE: 0 COMMIT LATE: 0 MISSED OPPORTUNITY: 0 UNCOVERED: 0
PSCL2 PREFETCHES SAME FILL-ORIGIN LEVEL: 0 DIFFERENT FILL-ORIGIN LEVEL: 0

LLC TOTAL     ACCESS:    4525093  HIT:    1038275  MISS:    3486818  HIT %:    22.9448  MISS %:    77.0552   MPKI: 17.4341
LLC Test counter:          0
LLC LOAD      ACCESS:      81331  HIT:         33  MISS:      81298  HIT %:  0.0405749  MISS %:    99.9594   MPKI: 0.40649
LLC PREFETCH  ACCESS:    3398559  HIT:         65  MISS:    3398494  HIT %: 0.00191258  MISS %:    99.9981   MPKI: 16.9925
LLC WRITEBACK ACCESS:    1038178  HIT:    1038171  MISS:          7  HIT %:    99.9993  MISS %: 0.000674258   MPKI: 3.5e-05
LLC LOAD TRANSLATION ACCESS:       7025  HIT:          6  MISS:       7019  HIT %:  0.0854093  MISS %:    99.9146   MPKI: 0.035095
LLC PREFETCH  REQUESTED:          0  ISSUED:          0  USEFUL:          1  USELESS:    3398501
LLC USEFUL LOAD PREFETCHES:          1 PREFETCH ISSUED TO LOWER LEVEL:    3398495  ACCURACY: 2.94248e-05
LLC TIMELY PREFETCHES:          1 LATE PREFETCHES: 0 DROPPED PREFETCHES: 0
LLC COMMIT LATE PREFETCHES: 0 MISSED OPPORTUNITY: 0 LATE IN PQ: 0 UNCOVERED: 0
LLC COMMIT LATE MSHR PREFETCHES: 0
LLC MPKI TOTAL: 0.40649 MSHR LATE: 0 PQ LATE: 0 COMMIT LATE: 0 MISSED OPPORTUNITY: 0 UNCOVERED: 0
LLC PREFETCHES SAME FILL-ORIGIN LEVEL: 0 DIFFERENT FILL-ORIGIN LEVEL: 0
LLC AVERAGE MISS LATENCY: 184.3 cycles
LLC AVERAGE MISS LATENCY LOAD: 179.414 cycles
LLC AVERAGE MISS LATENCY PREFETCH: 184.372 cycles
LLC AVERAGE MSHR OCCUPANCY: 2.60174
LLC MSHR FULL: 0
LLC RQ	ACCESS:      88356	FORWARD:          0	MERGED:          0	TO_CACHE:      88356
LLC WQ	ACCESS:    1038178	FORWARD:          0	MERGED:          0	TO_CACHE:    1038178
LLC PQ	ACCESS:    3398564	FORWARD:          0	MERGED:          0	TO_CACHE:    3398564

LLC Dense regions hint to LLC: 0
421140: 1
421426: 1
421430: 1
420d00: 4
420c9c: 8
420f77: 9
42140c: 10
421354: 11
421381: 11
421362: 12
4213d7: 12
420962: 12
420dd2: 12
420cfb: 14
420f21: 16
420c8a: 23
420e7e: 29
42112f: 63
4210a1: 64
42117e: 65
421123: 66
4210d0: 66
421111: 67
4210de: 67
420da6: 207
420e41: 266
420d21: 3722
420dfd: 3765
420c3d: 3767
420cdf: 8526
420d1b: 8531
420cc0: 8589
420c37: 8603
420d4c: 8616
420d5a: 8643
420c7c: 8668
420df7: 8751

RAW hits: 486761
Loads Generated: 70745804
Loads sent to L1D: 70259041
Stores Generated: 9834442
Stores sent to L1D: 9834442
Major fault: 0 Minor fault: 54759
Allocated PAGES: 54759
Total Load insts: 87343002
Total Non-spec loads: 4528885
Percentage of speculative loads: 94.8148
L1D response latency: 20.8805 cycles
Load retirement latency: 47.3269 cycles

------------------
Depth Distribution
------------------
depth 0: 861
depth 1: 97
depth 2: 49
depth 3: 9675
depth 4: 171228
depth 5: 422867
depth 6: 218327
depth 7: 2553534
depth 8: 714668
depth 9: 2472
depth 10: 20
depth 11: 2
depth 12: 0
depth 13: 0
depth 14: 0
depth 15: 0
depth 16: 0
depth 17: 0
depth 18: 0
depth 19: 0
depth 20: 0
depth 21: 0
depth 22: 0
depth 23: 0
depth 24: 0
depth 25: 0
depth 26: 0
depth 27: 0
depth 28: 0
depth 29: 0
Total: 4093800
------------------
ST read accesses: 3220558
ST write accesses: 54409
PT read accesses: 127413262
PT write accesses: 4830375
FILTER read accesses: 27487426
FILTER write accesses: 14406966
GHR read accesses: 8878288
GHR write accesses: 1552947
PERC read accesses: 922712949
PERC write accesses: 35369600
GHR counter read accesses: 6549934
GHR counter write accesses: 11028895
GHR ip read accesses: 23159679
GHR ip write accesses: 13099868
ST tag read accesses: 1287355797
ST tag write accesses: 44912654

DRAM Statistics
 CHANNEL 0
 RQ ROW_BUFFER_HIT:     960746  ROW_BUFFER_MISS:    2526065
 DBUS_CONGESTED:       3255
 WQ ROW_BUFFER_HIT:     468072  ROW_BUFFER_MISS:     570893  FULL:          0

 AVG_CONGESTED_CYCLE: 4
 All warmup complete: 2
Channel 0 Bank busy for read cycles: 0
Channel 0 Bank busy for write cycles: 0
Channel 0
Rank 0
0banks busy for read cycles: 1441386
0banks busy for write cycles: 5879
1banks busy for read cycles: 42421427
1banks busy for write cycles: 1027260
2banks busy for read cycles: 46453312
2banks busy for write cycles: 1065196
3banks busy for read cycles: 37048298
3banks busy for write cycles: 1092451
4banks busy for read cycles: 21942953
4banks busy for write cycles: 1125929
5banks busy for read cycles: 10202505
5banks busy for write cycles: 1237447
6banks busy for read cycles: 4099049
6banks busy for write cycles: 1548681
7banks busy for read cycles: 1715229
7banks busy for write cycles: 3185054
8banks busy for read cycles: 838908
8banks busy for write cycles: 26726369

CPU 0 Branch Prediction Accuracy: 99.9985% MPKI: 0.000105 Average ROB Occupancy at Mispredict: 88.381
Branch types
NOT_BRANCH: 198618953 99.3095%
BRANCH_DIRECT_JUMP: 0 0%
BRANCH_INDIRECT: 0 0%
BRANCH_CONDITIONAL: 1380806 0.690403%
BRANCH_DIRECT_CALL: 0 0%
BRANCH_INDIRECT_CALL: 0 0%
BRANCH_RETURN: 0 0%
BRANCH_OTHER: 0 0%

DRAM PAGES: 1048576
Allocated PAGES: 54759
