Initialize SIGNATURE TABLE
ST_SET: 1
ST_WAY: 256
ST_TAG_BIT: 16
ST_TAG_MASK: ffff

Initialize PATTERN TABLE
PT_SET: 512
PT_WAY: 4
SIG_DELTA_BIT: 7
C_SIG_BIT: 4
C_DELTA_BIT: 4

Initialize PREFETCH FILTER
FILTER_SET: 1024

Initialize PERCEPTRON
PERC_ENTRIES: 4096
PERC_FEATURES: 9

*** ChampSim Multicore Out-of-Order Simulator ***

Warmup Instructions: 50000000
Simulation Instructions: 200000000
Number of CPUs: 1
LLC sets: 2048
LLC ways: 16
Secure Berti: OFF
Berti: OFF
Berti Fill: OFF
On commit prefetching: OFF
L2 LLC Bypass speculative loads: OFF
Off-chip DRAM Size: 4096 MB Channels: 1 Width: 64-bit Data Rate: 6400 MT/s
CPU 0 runs /home/sumon/secure_berti/Berti_Baseline/../../traces/spec/654.roms_s-1070B.champsimtrace.xz
.xz
BTB has LRU replacement policy
ITLB has LRU replacement policy
DTLB has LRU replacement policy
STLB has LRU replacement policy
L1I has LRU replacement policy
L1D has LRU replacement policy
PERC_ENTRIES: 4096
L2C has LRU replacement policy
LLC has LRU replacement policy
Heartbeat CPU 0 instructions: 10000002 cycles: 3113147 heartbeat IPC: 3.21218 cumulative IPC: 3.21218 (Simulation time: 0 hr 0 min 33 sec) 
Heartbeat CPU 0 instructions: 20000002 cycles: 6331695 heartbeat IPC: 3.10699 cumulative IPC: 3.15871 (Simulation time: 0 hr 1 min 8 sec) 
Heartbeat CPU 0 instructions: 30000000 cycles: 9361648 heartbeat IPC: 3.30038 cumulative IPC: 3.20456 (Simulation time: 0 hr 1 min 31 sec) 
Heartbeat CPU 0 instructions: 40000001 cycles: 12665591 heartbeat IPC: 3.02669 cumulative IPC: 3.15816 (Simulation time: 0 hr 2 min 12 sec) 
Heartbeat CPU 0 instructions: 50000001 cycles: 15852756 heartbeat IPC: 3.13758 cumulative IPC: 3.15403 (Simulation time: 0 hr 2 min 54 sec) 

Warmup complete CPU 0 instructions: 50000001 cycles: 15852756 (Simulation time: 0 hr 2 min 54 sec) 

Heartbeat CPU 0 instructions: 60000000 cycles: 30329406 heartbeat IPC: 0.690767 cumulative IPC: 0.690767 (Simulation time: 0 hr 4 min 8 sec) 
Heartbeat CPU 0 instructions: 70000002 cycles: 39613150 heartbeat IPC: 1.07715 cumulative IPC: 0.841737 (Simulation time: 0 hr 5 min 0 sec) 
Heartbeat CPU 0 instructions: 80000003 cycles: 50009591 heartbeat IPC: 0.961868 cumulative IPC: 0.878302 (Simulation time: 0 hr 5 min 58 sec) 
Heartbeat CPU 0 instructions: 90000000 cycles: 63328170 heartbeat IPC: 0.750831 cumulative IPC: 0.842541 (Simulation time: 0 hr 7 min 1 sec) 
Heartbeat CPU 0 instructions: 100000003 cycles: 71926905 heartbeat IPC: 1.16296 cumulative IPC: 0.891677 (Simulation time: 0 hr 7 min 31 sec) 
Heartbeat CPU 0 instructions: 110000000 cycles: 86934876 heartbeat IPC: 0.666312 cumulative IPC: 0.844094 (Simulation time: 0 hr 8 min 16 sec) 
Heartbeat CPU 0 instructions: 120000002 cycles: 95570043 heartbeat IPC: 1.15806 cumulative IPC: 0.878103 (Simulation time: 0 hr 8 min 46 sec) 
Heartbeat CPU 0 instructions: 130000002 cycles: 106917789 heartbeat IPC: 0.881232 cumulative IPC: 0.878493 (Simulation time: 0 hr 9 min 22 sec) 
Heartbeat CPU 0 instructions: 140000001 cycles: 119206957 heartbeat IPC: 0.813725 cumulative IPC: 0.870792 (Simulation time: 0 hr 9 min 59 sec) 
Heartbeat CPU 0 instructions: 150000003 cycles: 127853452 heartbeat IPC: 1.15654 cumulative IPC: 0.892852 (Simulation time: 0 hr 10 min 28 sec) 
Heartbeat CPU 0 instructions: 160000000 cycles: 142804728 heartbeat IPC: 0.668839 cumulative IPC: 0.866469 (Simulation time: 0 hr 11 min 12 sec) 
Heartbeat CPU 0 instructions: 170000000 cycles: 151366022 heartbeat IPC: 1.16805 cumulative IPC: 0.885522 (Simulation time: 0 hr 11 min 39 sec) 
Heartbeat CPU 0 instructions: 180000002 cycles: 163778265 heartbeat IPC: 0.805656 cumulative IPC: 0.878821 (Simulation time: 0 hr 12 min 13 sec) 
Heartbeat CPU 0 instructions: 190000000 cycles: 175095050 heartbeat IPC: 0.883643 cumulative IPC: 0.879163 (Simulation time: 0 hr 12 min 43 sec) 
Heartbeat CPU 0 instructions: 200000000 cycles: 185159254 heartbeat IPC: 0.993621 cumulative IPC: 0.885967 (Simulation time: 0 hr 13 min 6 sec) 
Heartbeat CPU 0 instructions: 210000001 cycles: 200684607 heartbeat IPC: 0.644108 cumulative IPC: 0.865652 (Simulation time: 0 hr 13 min 40 sec) 
Heartbeat CPU 0 instructions: 220000000 cycles: 212864538 heartbeat IPC: 0.821023 cumulative IPC: 0.862893 (Simulation time: 0 hr 14 min 1 sec) 
Heartbeat CPU 0 instructions: 230000002 cycles: 227704237 heartbeat IPC: 0.673868 cumulative IPC: 0.849652 (Simulation time: 0 hr 14 min 29 sec) 
Heartbeat CPU 0 instructions: 240000000 cycles: 241218653 heartbeat IPC: 0.73995 cumulative IPC: 0.843073 (Simulation time: 0 hr 14 min 54 sec) 
Heartbeat CPU 0 instructions: 250000001 cycles: 253631270 heartbeat IPC: 0.805632 cumulative IPC: 0.841119 (Simulation time: 0 hr 15 min 15 sec) 
Finished CPU 0 instructions: 200000000 cycles: 237778514 cumulative IPC: 0.841119 (Simulation time: 0 hr 15 min 15 sec) 

ChampSim completed all CPUs

Region of Interest Statistics

CPU 0 cumulative IPC: 0.841119 instructions: 200000000 cycles: 237778514
ITLB TOTAL     ACCESS:   30853057  HIT:   30853056  MISS:          1  HIT %:        100  MISS %: 3.24117e-06   MPKI: 5e-06
ITLB Test counter:          0
ITLB LOAD TRANSLATION ACCESS:   30853057  HIT:   30853056  MISS:          1  HIT %:        100  MISS %: 3.24117e-06   MPKI: 5e-06
ITLB PREFETCH  REQUESTED:          0  ISSUED:          0  USEFUL:          0  USELESS:          0
ITLB USEFUL LOAD PREFETCHES:          0 PREFETCH ISSUED TO LOWER LEVEL:          0  ACCURACY: -nan
ITLB TIMELY PREFETCHES:          0 LATE PREFETCHES: 0 DROPPED PREFETCHES: 0
ITLB COMMIT LATE PREFETCHES: 0 MISSED OPPORTUNITY: 0 LATE IN PQ: 0 UNCOVERED: 0
ITLB COMMIT LATE MSHR PREFETCHES: 0
ITLB MPKI TOTAL: 0 MSHR LATE: 0 PQ LATE: 0 COMMIT LATE: 0 MISSED OPPORTUNITY: 0 UNCOVERED: 0
ITLB PREFETCHES SAME FILL-ORIGIN LEVEL: 0 DIFFERENT FILL-ORIGIN LEVEL: 0
ITLB AVERAGE MISS LATENCY: 320 cycles
ITLB AVERAGE MISS LATENCY LOAD: -nan cycles
ITLB AVERAGE MISS LATENCY PREFETCH: -nan cycles
ITLB AVERAGE MSHR OCCUPANCY: 0
ITLB MSHR FULL: 0
ITLB RQ	ACCESS:   35080624	FORWARD:          0	MERGED:    4227568	TO_CACHE:   30853056

DTLB TOTAL     ACCESS:   54302349  HIT:   54195785  MISS:     106564  HIT %:    99.8038  MISS %:   0.196242   MPKI: 0.53282
DTLB Test counter:          0
DTLB LOAD TRANSLATION ACCESS:   54302349  HIT:   54195785  MISS:     106564  HIT %:    99.8038  MISS %:   0.196242   MPKI: 0.53282
DTLB PREFETCH  REQUESTED:          0  ISSUED:          0  USEFUL:          0  USELESS:          0
DTLB USEFUL LOAD PREFETCHES:          0 PREFETCH ISSUED TO LOWER LEVEL:          0  ACCURACY: -nan
DTLB TIMELY PREFETCHES:          0 LATE PREFETCHES: 0 DROPPED PREFETCHES: 0
DTLB COMMIT LATE PREFETCHES: 0 MISSED OPPORTUNITY: 0 LATE IN PQ: 0 UNCOVERED: 0
DTLB COMMIT LATE MSHR PREFETCHES: 0
DTLB MPKI TOTAL: 0 MSHR LATE: 0 PQ LATE: 0 COMMIT LATE: 0 MISSED OPPORTUNITY: 0 UNCOVERED: 0
DTLB PREFETCHES SAME FILL-ORIGIN LEVEL: 0 DIFFERENT FILL-ORIGIN LEVEL: 0
DTLB AVERAGE MISS LATENCY: 173.275 cycles
DTLB AVERAGE MISS LATENCY LOAD: -nan cycles
DTLB AVERAGE MISS LATENCY PREFETCH: -nan cycles
DTLB AVERAGE MSHR OCCUPANCY: 0.0229552
DTLB MSHR FULL: 3.19693e-05
DTLB RQ	ACCESS:   58642339	FORWARD:          0	MERGED:    4248153	TO_CACHE:   54394186

STLB TOTAL     ACCESS:     106565  HIT:      10351  MISS:      96214  HIT %:    9.71332  MISS %:    90.2867   MPKI: 0.48107
STLB Test counter:          0
STLB LOAD TRANSLATION ACCESS:     106565  HIT:      10351  MISS:      96214  HIT %:    9.71332  MISS %:    90.2867   MPKI: 0.48107
STLB PREFETCH  REQUESTED:          0  ISSUED:          0  USEFUL:          0  USELESS:          0
STLB USEFUL LOAD PREFETCHES:          0 PREFETCH ISSUED TO LOWER LEVEL:          0  ACCURACY: -nan
STLB TIMELY PREFETCHES:          0 LATE PREFETCHES: 0 DROPPED PREFETCHES: 0
STLB COMMIT LATE PREFETCHES: 0 MISSED OPPORTUNITY: 0 LATE IN PQ: 0 UNCOVERED: 0
STLB COMMIT LATE MSHR PREFETCHES: 0
STLB MPKI TOTAL: 0 MSHR LATE: 0 PQ LATE: 0 COMMIT LATE: 0 MISSED OPPORTUNITY: 0 UNCOVERED: 0
STLB PREFETCHES SAME FILL-ORIGIN LEVEL: 0 DIFFERENT FILL-ORIGIN LEVEL: 0
STLB AVERAGE MISS LATENCY: 179.81 cycles
STLB AVERAGE MISS LATENCY LOAD: -nan cycles
STLB AVERAGE MISS LATENCY PREFETCH: -nan cycles
STLB AVERAGE MSHR OCCUPANCY: 0.438399
STLB MSHR FULL: 0
STLB RQ	ACCESS:     106565	FORWARD:          0	MERGED:          0	TO_CACHE:     106565

STLB Hit, L1D data hit: 0
STLB Hit, L2C data hit: 0
STLB Hit, LLC data hit: 0
STLB Hit, LLC data miss: 0
STLB STLB hints to L2: 0
L1D TOTAL     ACCESS:   50637955  HIT:   45918880  MISS:    4719075  HIT %:    90.6808  MISS %:    9.31924   MPKI: 23.5954
L1D Test counter:          0
L1D LOAD      ACCESS:   47514329  HIT:   44143793  MISS:    3779261  HIT %:    92.9063  MISS %:    7.09373   MPKI: 16.8527
L1D RFO       ACCESS:    3123626  HIT:    1775087  MISS:    1348539  HIT %:    56.8278  MISS %:    43.1722   MPKI: 6.7427
L1D PREFETCH  REQUESTED:          0  ISSUED:          0  USEFUL:          0  USELESS:          0
L1D USEFUL LOAD PREFETCHES:          0 PREFETCH ISSUED TO LOWER LEVEL:          0  ACCURACY: -nan
L1D TIMELY PREFETCHES:          0 LATE PREFETCHES: 0 DROPPED PREFETCHES: 0
L1D COMMIT LATE PREFETCHES: 0 MISSED OPPORTUNITY: 0 LATE IN PQ: 0 UNCOVERED: 0
L1D COMMIT LATE MSHR PREFETCHES: 0
L1D MPKI TOTAL: 18.8963 MSHR LATE: 0 PQ LATE: 0 COMMIT LATE: 0 MISSED OPPORTUNITY: 0 UNCOVERED: 0
L1D PREFETCHES SAME FILL-ORIGIN LEVEL: 0 DIFFERENT FILL-ORIGIN LEVEL: 0
L1D AVERAGE MISS LATENCY: 108.362 cycles
L1D AVERAGE MISS LATENCY LOAD: 27.38 cycles
L1D AVERAGE MISS LATENCY PREFETCH: -nan cycles
L1D AVERAGE MSHR OCCUPANCY: 2.48189
L1D MSHR FULL: 0.0584085
L1D RQ	ACCESS:   73913363	FORWARD:          0	MERGED:   25990311	TO_CACHE:   47923052
L1D WQ	ACCESS:   10719287	FORWARD:          0	MERGED:          0	TO_CACHE:   10719287

L1D UNIQUE REGIONS ACCESSED: 0
L1D REGIONS CONFLICTS: 0
L1D Cross Page Prefetch Requests: 0
L1D Same Page Prefetch Requests: 0
L1D ROI Sum of L1D PQ occupancy: 0
L1D PREFETCHES PUSHED FROM L2C: 0
466c65: 1
466e2b: 1
46726b: 1
466d27: 1
466dc7: 1
4679fb: 2
466daa: 2
4677de: 2
467a5b: 2
4676cf: 2
4674fb: 2
467519: 2
4675a3: 2
4675e5: 2
467538: 2
4676ab: 2
4679cb: 2
4679b5: 2
4677ed: 2
4679db: 2
4676d7: 2
466c5d: 5
4667fc: 5
466950: 6
466b7d: 6
466a56: 6
466940: 6
466a5e: 6
466d9a: 6
466824: 6
466996: 6
466928: 6
466a47: 6
466a76: 6
466920: 6
4669c8: 6
466d3c: 7
466ce9: 7
466d92: 7
466ca3: 8
466ce1: 8
46795a: 12
466af8: 13
466b0f: 13
466d17: 15
466b00: 25
466b4e: 39
4677a5: 52
467619: 130
4675d0: 130
467499: 195
467486: 195
4668a6: 768
4668b5: 768
467990: 970
467962: 1010
4677c5: 1020
46796a: 1022
46793f: 1022
467921: 1022
467770: 1022
467768: 1022
466980: 2300
4669d0: 2310
466bd5: 2338
466bea: 2339
466bb0: 2463
466b90: 13497
467857: 66174
46785d: 66174
467871: 66174
467809: 66175
467817: 66175
46786b: 66176
46761e: 66304
4675d5: 66304
467834: 66306
4677e6: 66430
4677d5: 66430
46784d: 66430
467825: 66430
467848: 66430
4677f5: 66430
467480: 75868
467493: 75868
466b97: 188409
4669dd: 196608
466986: 196612
466bf1: 199564
466bdc: 199565
4668a0: 199680
4668af: 199680
466ba2: 200219
466b77: 202682
466bbe: 202682
466b65: 202683
L1I TOTAL     ACCESS:   35080600  HIT:   35080550  MISS:         50  HIT %:    99.9999  MISS %: 0.000142529   MPKI: 0.00025
L1I Test counter:          0
L1I LOAD      ACCESS:   35080600  HIT:   35080550  MISS:         74  HIT %:    99.9999  MISS %: 0.000142529   MPKI: 0.00025
L1I PREFETCH  REQUESTED:          0  ISSUED:          0  USEFUL:          0  USELESS:          0
L1I USEFUL LOAD PREFETCHES:          0 PREFETCH ISSUED TO LOWER LEVEL:          0  ACCURACY: -nan
L1I TIMELY PREFETCHES:          0 LATE PREFETCHES: 0 DROPPED PREFETCHES: 0
L1I COMMIT LATE PREFETCHES: 0 MISSED OPPORTUNITY: 0 LATE IN PQ: 0 UNCOVERED: 0
L1I COMMIT LATE MSHR PREFETCHES: 0
L1I MPKI TOTAL: 0.00037 MSHR LATE: 0 PQ LATE: 0 COMMIT LATE: 0 MISSED OPPORTUNITY: 0 UNCOVERED: 0
L1I PREFETCHES SAME FILL-ORIGIN LEVEL: 0 DIFFERENT FILL-ORIGIN LEVEL: 0
L1I AVERAGE MISS LATENCY: 257.86 cycles
L1I AVERAGE MISS LATENCY LOAD: 257.86 cycles
L1I AVERAGE MISS LATENCY PREFETCH: -nan cycles
L1I AVERAGE MSHR OCCUPANCY: 1.88138e-06
L1I MSHR FULL: 0
L1I RQ	ACCESS:   53953843	FORWARD:          0	MERGED:   18873219	TO_CACHE:   35080624

467347: 1
4675c1: 1
466ec0: 1
467903: 1
466fc1: 1
466e85: 1
467206: 1
467240: 1
467985: 1
467446: 1
467281: 1
467001: 1
467540: 1
467610: 1
467650: 1
4672c5: 1
467401: 1
467181: 1
4676c0: 1
467480: 1
467787: 1
467384: 1
4674c0: 1
467502: 1
467580: 1
467303: 1
467947: 1
4678c2: 1
4679c0: 1
467884: 1
467840: 1
467801: 1
4677c5: 1
467740: 1
467707: 1
4671c0: 1
4670c3: 1
467044: 1
467a03: 1
466f82: 1
467682: 1
466e47: 1
466e00: 1
466f03: 1
467a43: 1
467101: 1
4673c0: 1
467146: 1
466f40: 1
467082: 1
BTB TOTAL     ACCESS:   10637190  HIT:   10637169  MISS:         21  HIT %:    99.9998  MISS %: 0.000197421   MPKI: 0.000105
BTB Test counter:          0
BTB BRANCH_DIRECT_JUMP	ACCESS:      26624  HIT:      26622  MISS:          2
BTB BRANCH_INDIRECT	ACCESS:          0  HIT:          0  MISS:          0
BTB BRANCH_CONDITIONAL	ACCESS:   10610566  HIT:   10610547  MISS:         19
BTB BRANCH_DIRECT_CALL	ACCESS:          0  HIT:          0  MISS:          0
BTB BRANCH_INDIRECT_CALL	ACCESS:          0  HIT:          0  MISS:          0
BTB BRANCH_RETURN	ACCESS:          0  HIT:          0  MISS:          0
BTB BRANCH_OTHER ACCESS:          0  HIT:          0  MISS:          0

L2C TOTAL     ACCESS:   10300323  HIT:    5775664  MISS:    4524659  HIT %:    56.0726  MISS %:    43.9274   MPKI: 22.6233
L2C Test counter:          0
L2C LOAD      ACCESS:    3370586  HIT:    3215922  MISS:     154664  HIT %:    95.4114  MISS %:    4.58864   MPKI: 0.77332
L2C DATA LOAD MPKI: 0.77307
L2C INSTRUCTION LOAD MPKI: 0.00025
L2C RFO       ACCESS:    1348539  HIT:          2  MISS:    1348537  HIT %: 0.000148309  MISS %:    99.9999   MPKI: 6.74268
L2C PREFETCH  ACCESS:    4134489  HIT:    1132800  MISS:    3001689  HIT %:    27.3988  MISS %:    72.6012   MPKI: 15.0084
L2C DATA PREFETCH MPKI: 15.0084
L2C INSTRUCTION PREFETCH MPKI: 0
L2C WRITEBACK ACCESS:    1350366  HIT:    1350361  MISS:          5  HIT %:    99.9996  MISS %: 0.00037027   MPKI: 2.5e-05
L2C LOAD TRANSLATION ACCESS:      96343  HIT:      76579  MISS:      19764  HIT %:    79.4858  MISS %:    20.5142   MPKI: 0.09882
L2C PREFETCH  REQUESTED:    4226647  ISSUED:    4226646  USEFUL:    2810825  USELESS:     190770
L2C USEFUL LOAD PREFETCHES:    2810825 PREFETCH ISSUED TO LOWER LEVEL:    3044214  ACCURACY: 92.3334
L2C TIMELY PREFETCHES:    2810825 LATE PREFETCHES: 41698 DROPPED PREFETCHES: 0
L2C COMMIT LATE PREFETCHES: 0 MISSED OPPORTUNITY: 0 LATE IN PQ: 0 UNCOVERED: 0
L2C COMMIT LATE MSHR PREFETCHES: 0
L2C MPKI TOTAL: 0.77332 MSHR LATE: 0.20849 PQ LATE: 0 COMMIT LATE: 0 MISSED OPPORTUNITY: 0 UNCOVERED: 0
L2C PREFETCHES SAME FILL-ORIGIN LEVEL: 3043393 DIFFERENT FILL-ORIGIN LEVEL: 821
L2C AVERAGE MISS LATENCY: 288.812 cycles
L2C AVERAGE MISS LATENCY LOAD: 261.109 cycles
L2C AVERAGE MISS LATENCY PREFETCH: 287.294 cycles
L2C AVERAGE MSHR OCCUPANCY: 6.52098
L2C MSHR FULL: 0.0271784
L2C RQ	ACCESS:    4815474	FORWARD:          0	MERGED:          0	TO_CACHE:    4815474
L2C WQ	ACCESS:    1350366	FORWARD:          0	MERGED:          0	TO_CACHE:    1350366
L2C PQ	ACCESS:    4226646	FORWARD:          0	MERGED:       1163	TO_CACHE:    4225483

L2C Instructions Evicting Data 50
L2C Translations Evicting Data 19707
L2C Data Evicting Data 4485068
L2C Instructions Evicting Instructions 0
L2C Translations Evicting Instructions 0
L2C Data Evicting Instructions 50
L2C Instructions Evicting Translations 0
L2C Translations Evicting Translations 57
L2C Data Evicting Translations 19722
L2C Dense regions hint from L2: 0
4678c2: 1
46726b: 1
467206: 1
467181: 1
467101: 1
466d17: 1
467787: 1
4670c3: 1
467044: 1
466e2b: 1
467240: 1
466e47: 1
467082: 1
466f40: 1
467446: 1
466ec0: 1
4671c0: 1
467650: 1
467502: 1
467001: 1
467303: 1
466f03: 1
467985: 1
466dc7: 1
467347: 1
467281: 1
4677ed: 1
4675c1: 1
467146: 1
466fc1: 1
467a43: 1
466e85: 1
467a03: 1
467884: 1
467840: 1
467801: 1
467384: 1
4674c0: 1
467740: 1
4673c0: 1
467947: 1
467540: 1
466e00: 1
467707: 1
467682: 1
4676c0: 1
467401: 1
4672c5: 1
467610: 1
4677c5: 1
466f82: 1
4679c0: 1
467580: 1
467903: 1
4675a3: 1
467519: 2
4679fb: 2
467a5b: 2
467770: 2
4676d7: 2
467768: 2
4676cf: 2
466daa: 2
4676ab: 2
467538: 2
4675e5: 2
4674fb: 2
466c5d: 4
466b7d: 5
4667fc: 5
46785d: 5
466d9a: 5
4669c8: 5
466940: 6
466928: 6
466a76: 6
466920: 6
466a5e: 6
466996: 6
466a56: 6
466824: 6
466ce9: 6
466950: 6
467834: 6
466a47: 6
466d3c: 7
4677f5: 7
466b0f: 7
466d92: 7
467809: 7
4675d0: 7
467619: 7
46784d: 7
467871: 7
466af8: 12
467486: 15
467499: 17
466b00: 19
466b4e: 32
466980: 48
466bea: 50
4669d0: 60
466bd5: 63
466b90: 247
4668b5: 439
4668a6: 495
46761e: 1379
4675d5: 1381
467857: 1542
46786b: 1591
467817: 1603
466bb0: 2463
4677d5: 3088
4677e6: 3103
467825: 3165
467848: 3175
4669dd: 4121
466986: 4157
466b97: 4268
466bdc: 4398
466bf1: 4644
467480: 5574
467493: 6480
466ba2: 7913
466b77: 10389
466bbe: 10423
466b65: 10476
4668a0: 24788
4668af: 32803
PSCL5 TOTAL     ACCESS:      96214  HIT:      96214  MISS:          0  HIT %:        100  MISS %:          0   MPKI: 0
PSCL5 Test counter:          0
PSCL5 LOAD TRANSLATION ACCESS:      96214  HIT:      96214  MISS:          0  HIT %:        100  MISS %:          0   MPKI: 0
PSCL5 PREFETCH  REQUESTED:          0  ISSUED:          0  USEFUL:          0  USELESS:          0
PSCL5 USEFUL LOAD PREFETCHES:          0 PREFETCH ISSUED TO LOWER LEVEL:          0  ACCURACY: -nan
PSCL5 TIMELY PREFETCHES:          0 LATE PREFETCHES: 0 DROPPED PREFETCHES: 0
PSCL5 COMMIT LATE PREFETCHES: 0 MISSED OPPORTUNITY: 0 LATE IN PQ: 0 UNCOVERED: 0
PSCL5 COMMIT LATE MSHR PREFETCHES: 0
PSCL5 MPKI TOTAL: 0 MSHR LATE: 0 PQ LATE: 0 COMMIT LATE: 0 MISSED OPPORTUNITY: 0 UNCOVERED: 0
PSCL5 PREFETCHES SAME FILL-ORIGIN LEVEL: 0 DIFFERENT FILL-ORIGIN LEVEL: 0

PSCL4 TOTAL     ACCESS:      96214  HIT:      96214  MISS:          0  HIT %:        100  MISS %:          0   MPKI: 0
PSCL4 Test counter:          0
PSCL4 LOAD TRANSLATION ACCESS:      96214  HIT:      96214  MISS:          0  HIT %:        100  MISS %:          0   MPKI: 0
PSCL4 PREFETCH  REQUESTED:          0  ISSUED:          0  USEFUL:          0  USELESS:          0
PSCL4 USEFUL LOAD PREFETCHES:          0 PREFETCH ISSUED TO LOWER LEVEL:          0  ACCURACY: -nan
PSCL4 TIMELY PREFETCHES:          0 LATE PREFETCHES: 0 DROPPED PREFETCHES: 0
PSCL4 COMMIT LATE PREFETCHES: 0 MISSED OPPORTUNITY: 0 LATE IN PQ: 0 UNCOVERED: 0
PSCL4 COMMIT LATE MSHR PREFETCHES: 0
PSCL4 MPKI TOTAL: 0 MSHR LATE: 0 PQ LATE: 0 COMMIT LATE: 0 MISSED OPPORTUNITY: 0 UNCOVERED: 0
PSCL4 PREFETCHES SAME FILL-ORIGIN LEVEL: 0 DIFFERENT FILL-ORIGIN LEVEL: 0

PSCL3 TOTAL     ACCESS:      95108  HIT:      95101  MISS:          7  HIT %:    99.9926  MISS %: 0.00736005   MPKI: 3.5e-05
PSCL3 Test counter:          0
PSCL3 LOAD TRANSLATION ACCESS:      95108  HIT:      95101  MISS:          7  HIT %:    99.9926  MISS %: 0.00736005   MPKI: 3.5e-05
PSCL3 PREFETCH  REQUESTED:          0  ISSUED:          0  USEFUL:          0  USELESS:          0
PSCL3 USEFUL LOAD PREFETCHES:          0 PREFETCH ISSUED TO LOWER LEVEL:          0  ACCURACY: -nan
PSCL3 TIMELY PREFETCHES:          0 LATE PREFETCHES: 0 DROPPED PREFETCHES: 0
PSCL3 COMMIT LATE PREFETCHES: 0 MISSED OPPORTUNITY: 0 LATE IN PQ: 0 UNCOVERED: 0
PSCL3 COMMIT LATE MSHR PREFETCHES: 0
PSCL3 MPKI TOTAL: 0 MSHR LATE: 0 PQ LATE: 0 COMMIT LATE: 0 MISSED OPPORTUNITY: 0 UNCOVERED: 0
PSCL3 PREFETCHES SAME FILL-ORIGIN LEVEL: 0 DIFFERENT FILL-ORIGIN LEVEL: 0

PSCL2 TOTAL     ACCESS:      96214  HIT:      95941  MISS:        273  HIT %:    99.7163  MISS %:   0.283742   MPKI: 0.001365
PSCL2 Test counter:          0
PSCL2 LOAD TRANSLATION ACCESS:      96214  HIT:      95941  MISS:        273  HIT %:    99.7163  MISS %:   0.283742   MPKI: 0.001365
PSCL2 PREFETCH  REQUESTED:          0  ISSUED:          0  USEFUL:          0  USELESS:          0
PSCL2 USEFUL LOAD PREFETCHES:          0 PREFETCH ISSUED TO LOWER LEVEL:          0  ACCURACY: -nan
PSCL2 TIMELY PREFETCHES:          0 LATE PREFETCHES: 0 DROPPED PREFETCHES: 0
PSCL2 COMMIT LATE PREFETCHES: 0 MISSED OPPORTUNITY: 0 LATE IN PQ: 0 UNCOVERED: 0
PSCL2 COMMIT LATE MSHR PREFETCHES: 0
PSCL2 MPKI TOTAL: 0 MSHR LATE: 0 PQ LATE: 0 COMMIT LATE: 0 MISSED OPPORTUNITY: 0 UNCOVERED: 0
PSCL2 PREFETCHES SAME FILL-ORIGIN LEVEL: 0 DIFFERENT FILL-ORIGIN LEVEL: 0

LLC TOTAL     ACCESS:    5871036  HIT:    1345815  MISS:    4525221  HIT %:     22.923  MISS %:     77.077   MPKI: 22.6261
LLC Test counter:          0
LLC LOAD      ACCESS:     112980  HIT:          7  MISS:     112973  HIT %: 0.00619579  MISS %:    99.9938   MPKI: 0.564865
LLC RFO       ACCESS:    1348523  HIT:          0  MISS:    1348523  HIT %:          0  MISS %:        100   MPKI: 6.74261
LLC PREFETCH  ACCESS:    3044208  HIT:        210  MISS:    3043998  HIT %: 0.00689835  MISS %:    99.9931   MPKI: 15.22
LLC WRITEBACK ACCESS:    1345561  HIT:    1345551  MISS:         10  HIT %:    99.9993  MISS %: 0.000743184   MPKI: 5e-05
LLC LOAD TRANSLATION ACCESS:      19764  HIT:         47  MISS:      19717  HIT %:   0.237806  MISS %:    99.7622   MPKI: 0.098585
LLC PREFETCH  REQUESTED:          0  ISSUED:          0  USEFUL:          2  USELESS:    3054770
LLC USEFUL LOAD PREFETCHES:          2 PREFETCH ISSUED TO LOWER LEVEL:    3044004  ACCURACY: 6.57029e-05
LLC TIMELY PREFETCHES:          2 LATE PREFETCHES: 0 DROPPED PREFETCHES: 0
LLC COMMIT LATE PREFETCHES: 0 MISSED OPPORTUNITY: 0 LATE IN PQ: 0 UNCOVERED: 0
LLC COMMIT LATE MSHR PREFETCHES: 0
LLC MPKI TOTAL: 0.564865 MSHR LATE: 0 PQ LATE: 0 COMMIT LATE: 0 MISSED OPPORTUNITY: 0 UNCOVERED: 0
LLC PREFETCHES SAME FILL-ORIGIN LEVEL: 714 DIFFERENT FILL-ORIGIN LEVEL: 0
LLC AVERAGE MISS LATENCY: 262.526 cycles
LLC AVERAGE MISS LATENCY LOAD: 239.092 cycles
LLC AVERAGE MISS LATENCY PREFETCH: 262.592 cycles
LLC AVERAGE MSHR OCCUPANCY: 6.44537
LLC MSHR FULL: 0
LLC RQ	ACCESS:    1481272	FORWARD:          0	MERGED:          0	TO_CACHE:    1481272
LLC WQ	ACCESS:    1345561	FORWARD:          0	MERGED:          0	TO_CACHE:    1345561
LLC PQ	ACCESS:    3044214	FORWARD:          0	MERGED:          0	TO_CACHE:    3044214

LLC Dense regions hint to LLC: 0
467a43: 1
467787: 1
4670c3: 1
467044: 1
466f40: 1
466e2b: 1
466e47: 1
466ec0: 1
467001: 1
467303: 1
467347: 1
467146: 1
466e85: 1
467240: 1
467903: 1
466fc1: 1
4675c1: 1
4678c2: 1
467281: 1
466dc7: 1
467985: 1
467446: 1
467650: 1
467502: 1
4669c8: 1
467082: 1
466f03: 1
467947: 1
4677ed: 1
4679c0: 1
466e00: 1
467540: 1
4673c0: 1
4674c0: 1
467384: 1
467401: 1
467884: 1
467840: 1
4672c5: 1
467801: 1
466f82: 1
467740: 1
467580: 1
46726b: 1
467707: 1
467682: 1
467a03: 1
4676c0: 1
467206: 1
4671c0: 1
467610: 1
4677c5: 1
467181: 1
467101: 1
466daa: 2
466b7d: 2
467a5b: 2
4676d7: 2
4675e5: 2
4674fb: 2
467519: 2
467538: 2
4676ab: 2
4676cf: 2
467768: 2
467770: 2
466c5d: 2
46785d: 5
467871: 5
466d9a: 5
466940: 5
4667fc: 5
466ce9: 5
466a76: 6
466920: 6
466928: 6
466a5e: 6
466a56: 6
4677f5: 6
467809: 6
466824: 6
466996: 6
4675d0: 6
467619: 6
466a47: 6
467834: 6
466b0f: 6
466950: 6
466d92: 7
46784d: 7
466d3c: 7
467499: 11
466af8: 11
467486: 12
466b00: 17
466b4e: 31
466980: 48
466bea: 50
4669d0: 60
466bd5: 63
466b90: 245
4668b5: 364
4668a6: 380
4675d5: 1367
46761e: 1372
467857: 1540
46786b: 1589
467817: 1603
466bb0: 2463
4677e6: 3006
467825: 3011
4677d5: 3032
467848: 3082
467480: 3797
466986: 4078
4669dd: 4101
467493: 4164
466b97: 4251
466bdc: 4370
466bf1: 4552
466ba2: 7859
466b77: 10265
466b65: 10266
466bbe: 10332
4668a0: 10388
4668af: 10972

RAW hits: 15
Loads Generated: 73913377
Loads sent to L1D: 73913363
Stores Generated: 10719286
Stores sent to L1D: 10719287
Major fault: 0 Minor fault: 51871
Allocated PAGES: 51871
Total Load insts: 92757193
Total Non-spec loads: 8918670
Percentage of speculative loads: 90.3849
L1D response latency: 27.38 cycles
Load retirement latency: 88.9578 cycles

------------------
Depth Distribution
------------------
depth 0: 25508
depth 1: 850
depth 2: 263
depth 3: 78
depth 4: 278
depth 5: 16327
depth 6: 251455
depth 7: 1074393
depth 8: 1645427
depth 9: 457826
depth 10: 46998
depth 11: 351874
depth 12: 177146
depth 13: 36895
depth 14: 33361
depth 15: 127
depth 16: 10
depth 17: 0
depth 18: 0
depth 19: 0
depth 20: 0
depth 21: 0
depth 22: 0
depth 23: 0
depth 24: 0
depth 25: 0
depth 26: 0
depth 27: 0
depth 28: 0
depth 29: 0
Total: 4118816
------------------
ST read accesses: 3299534
ST write accesses: 71002
PT read accesses: 153861567
PT write accesses: 4913897
FILTER read accesses: 32045815
FILTER write accesses: 16283610
GHR read accesses: 11424873
GHR write accesses: 2145962
PERC read accesses: 1113124041
PERC write accesses: 34101606
GHR counter read accesses: 6741072
GHR counter write accesses: 10870027
GHR ip read accesses: 22796088
GHR ip write accesses: 13482144
ST tag read accesses: 1332810083
ST tag write accesses: 40450189

DRAM Statistics
 CHANNEL 0
 RQ ROW_BUFFER_HIT:     914615  ROW_BUFFER_MISS:    3610596
 DBUS_CONGESTED:       1005
 WQ ROW_BUFFER_HIT:     416317  ROW_BUFFER_MISS:     921056  FULL:          0

 AVG_CONGESTED_CYCLE: 5
 All warmup complete: 2
Channel 0 Bank busy for read cycles: 0
Channel 0 Bank busy for write cycles: 0
Channel 0
Rank 0
0banks busy for read cycles: 855953
0banks busy for write cycles: 2341
1banks busy for read cycles: 37899981
1banks busy for write cycles: 625644
2banks busy for read cycles: 53517833
2banks busy for write cycles: 608156
3banks busy for read cycles: 45207169
3banks busy for write cycles: 577512
4banks busy for read cycles: 25312005
4banks busy for write cycles: 579637
5banks busy for read cycles: 12565739
5banks busy for write cycles: 612622
6banks busy for read cycles: 7653766
6banks busy for write cycles: 726934
7banks busy for read cycles: 5332209
7banks busy for write cycles: 2434352
8banks busy for read cycles: 9233636
8banks busy for write cycles: 34033026

CPU 0 Branch Prediction Accuracy: 99.8819% MPKI: 0.062825 Average ROB Occupancy at Mispredict: 185.444
Branch types
NOT_BRANCH: 189359363 94.6797%
BRANCH_DIRECT_JUMP: 26624 0.013312%
BRANCH_INDIRECT: 0 0%
BRANCH_CONDITIONAL: 10613669 5.30683%
BRANCH_DIRECT_CALL: 0 0%
BRANCH_INDIRECT_CALL: 0 0%
BRANCH_RETURN: 0 0%
BRANCH_OTHER: 0 0%

DRAM PAGES: 1048576
Allocated PAGES: 51871
