
*** ChampSim Multicore Out-of-Order Simulator ***

Warmup Instructions: 50000000
Simulation Instructions: 200000000
Number of CPUs: 1
LLC sets: 2048
LLC ways: 16
Secure Berti: OFF
Berti: OFF
Berti Fill: OFF
On commit prefetching: OFF
L2 LLC Bypass speculative loads: OFF
Off-chip DRAM Size: 4096 MB Channels: 1 Width: 64-bit Data Rate: 6400 MT/s
CPU 0 runs /home/sumon/secure_berti/Berti_Baseline/../../traces/gap/bc-0.trace.gz
.gz
BTB has LRU replacement policy
ITLB has LRU replacement policy
DTLB has LRU replacement policy
STLB has LRU replacement policy
L1I has LRU replacement policy
L1D has LRU replacement policy
L2C has LRU replacement policy
LLC has LRU replacement policy
Heartbeat CPU 0 instructions: 10000002 cycles: 3487674 heartbeat IPC: 2.86724 cumulative IPC: 2.86724 (Simulation time: 0 hr 0 min 21 sec) 
Heartbeat CPU 0 instructions: 20000000 cycles: 6415430 heartbeat IPC: 3.41558 cumulative IPC: 3.11748 (Simulation time: 0 hr 0 min 39 sec) 
Heartbeat CPU 0 instructions: 30000003 cycles: 9333546 heartbeat IPC: 3.42687 cumulative IPC: 3.21421 (Simulation time: 0 hr 0 min 57 sec) 
Heartbeat CPU 0 instructions: 40000003 cycles: 12248885 heartbeat IPC: 3.43013 cumulative IPC: 3.2656 (Simulation time: 0 hr 1 min 14 sec) 
Heartbeat CPU 0 instructions: 50000001 cycles: 15162299 heartbeat IPC: 3.4324 cumulative IPC: 3.29765 (Simulation time: 0 hr 1 min 32 sec) 

Warmup complete CPU 0 instructions: 50000001 cycles: 15162299 (Simulation time: 0 hr 1 min 32 sec) 

Heartbeat CPU 0 instructions: 60000002 cycles: 88074644 heartbeat IPC: 0.137151 cumulative IPC: 0.137151 (Simulation time: 0 hr 2 min 5 sec) 
Heartbeat CPU 0 instructions: 70000000 cycles: 161324408 heartbeat IPC: 0.136519 cumulative IPC: 0.136834 (Simulation time: 0 hr 2 min 39 sec) 
Heartbeat CPU 0 instructions: 80000000 cycles: 233955123 heartbeat IPC: 0.137683 cumulative IPC: 0.137116 (Simulation time: 0 hr 3 min 15 sec) 
Heartbeat CPU 0 instructions: 90000002 cycles: 306725200 heartbeat IPC: 0.137419 cumulative IPC: 0.137192 (Simulation time: 0 hr 3 min 51 sec) 
Heartbeat CPU 0 instructions: 100000001 cycles: 379398502 heartbeat IPC: 0.137602 cumulative IPC: 0.137274 (Simulation time: 0 hr 4 min 27 sec) 
Heartbeat CPU 0 instructions: 110000000 cycles: 451224678 heartbeat IPC: 0.139225 cumulative IPC: 0.137595 (Simulation time: 0 hr 5 min 2 sec) 
Heartbeat CPU 0 instructions: 120000000 cycles: 522597260 heartbeat IPC: 0.14011 cumulative IPC: 0.137949 (Simulation time: 0 hr 5 min 37 sec) 
Heartbeat CPU 0 instructions: 130000002 cycles: 594258384 heartbeat IPC: 0.139546 cumulative IPC: 0.138146 (Simulation time: 0 hr 6 min 12 sec) 
Heartbeat CPU 0 instructions: 140000000 cycles: 665925216 heartbeat IPC: 0.139535 cumulative IPC: 0.138299 (Simulation time: 0 hr 6 min 47 sec) 
Heartbeat CPU 0 instructions: 150000000 cycles: 737453081 heartbeat IPC: 0.139806 cumulative IPC: 0.138448 (Simulation time: 0 hr 7 min 22 sec) 
Heartbeat CPU 0 instructions: 160000003 cycles: 808462010 heartbeat IPC: 0.140827 cumulative IPC: 0.138661 (Simulation time: 0 hr 7 min 56 sec) 
Heartbeat CPU 0 instructions: 170000001 cycles: 879725700 heartbeat IPC: 0.140324 cumulative IPC: 0.138798 (Simulation time: 0 hr 8 min 34 sec) 
Heartbeat CPU 0 instructions: 180000002 cycles: 950938299 heartbeat IPC: 0.140425 cumulative IPC: 0.138922 (Simulation time: 0 hr 9 min 11 sec) 
Heartbeat CPU 0 instructions: 190000002 cycles: 1022121277 heartbeat IPC: 0.140483 cumulative IPC: 0.139032 (Simulation time: 0 hr 9 min 48 sec) 
Heartbeat CPU 0 instructions: 200000000 cycles: 1093651144 heartbeat IPC: 0.139802 cumulative IPC: 0.139083 (Simulation time: 0 hr 10 min 24 sec) 
Heartbeat CPU 0 instructions: 210000002 cycles: 1165012867 heartbeat IPC: 0.140131 cumulative IPC: 0.139149 (Simulation time: 0 hr 11 min 8 sec) 
Heartbeat CPU 0 instructions: 220000000 cycles: 1236467572 heartbeat IPC: 0.139949 cumulative IPC: 0.139195 (Simulation time: 0 hr 11 min 53 sec) 
Heartbeat CPU 0 instructions: 230000000 cycles: 1307975279 heartbeat IPC: 0.139845 cumulative IPC: 0.139231 (Simulation time: 0 hr 13 min 1 sec) 
Heartbeat CPU 0 instructions: 240000003 cycles: 1379777422 heartbeat IPC: 0.139272 cumulative IPC: 0.139233 (Simulation time: 0 hr 13 min 49 sec) 
Heartbeat CPU 0 instructions: 250000003 cycles: 1451344245 heartbeat IPC: 0.13973 cumulative IPC: 0.139258 (Simulation time: 0 hr 14 min 35 sec) 
Finished CPU 0 instructions: 200000002 cycles: 1436181946 cumulative IPC: 0.139258 (Simulation time: 0 hr 14 min 35 sec) 

ChampSim completed all CPUs

Region of Interest Statistics

CPU 0 cumulative IPC: 0.139258 instructions: 200000002 cycles: 1436181946
ITLB TOTAL     ACCESS:   40681974  HIT:   40681974  MISS:          0  HIT %:        100  MISS %:          0   MPKI: 0
ITLB Test counter:          0
ITLB LOAD TRANSLATION ACCESS:   40681974  HIT:   40681974  MISS:          0  HIT %:        100  MISS %:          0   MPKI: 0
ITLB PREFETCH  REQUESTED:          0  ISSUED:          0  USEFUL:          0  USELESS:          0
ITLB USEFUL LOAD PREFETCHES:          0 PREFETCH ISSUED TO LOWER LEVEL:          0  ACCURACY: -nan
ITLB TIMELY PREFETCHES:          0 LATE PREFETCHES: 0 DROPPED PREFETCHES: 0
ITLB COMMIT LATE PREFETCHES: 0 MISSED OPPORTUNITY: 0 LATE IN PQ: 0 UNCOVERED: 0
ITLB COMMIT LATE MSHR PREFETCHES: 0
ITLB MPKI TOTAL: 0 MSHR LATE: 0 PQ LATE: 0 COMMIT LATE: 0 MISSED OPPORTUNITY: 0 UNCOVERED: 0
ITLB PREFETCHES SAME FILL-ORIGIN LEVEL: 0 DIFFERENT FILL-ORIGIN LEVEL: 0
ITLB AVERAGE MISS LATENCY: -nan cycles
ITLB AVERAGE MISS LATENCY LOAD: -nan cycles
ITLB AVERAGE MISS LATENCY PREFETCH: -nan cycles
ITLB AVERAGE MSHR OCCUPANCY: 0
ITLB MSHR FULL: 0
ITLB RQ	ACCESS:   40944397	FORWARD:          0	MERGED:     262424	TO_CACHE:   40681973

DTLB TOTAL     ACCESS:   54207430  HIT:   44788027  MISS:    9419403  HIT %:    82.6234  MISS %:    17.3766   MPKI: 47.097
DTLB Test counter:          0
DTLB LOAD TRANSLATION ACCESS:   54207430  HIT:   44788027  MISS:    9419403  HIT %:    82.6234  MISS %:    17.3766   MPKI: 47.097
DTLB PREFETCH  REQUESTED:          0  ISSUED:          0  USEFUL:          0  USELESS:          0
DTLB USEFUL LOAD PREFETCHES:          0 PREFETCH ISSUED TO LOWER LEVEL:          0  ACCURACY: -nan
DTLB TIMELY PREFETCHES:          0 LATE PREFETCHES: 0 DROPPED PREFETCHES: 0
DTLB COMMIT LATE PREFETCHES: 0 MISSED OPPORTUNITY: 0 LATE IN PQ: 0 UNCOVERED: 0
DTLB COMMIT LATE MSHR PREFETCHES: 0
DTLB MPKI TOTAL: 0 MSHR LATE: 0 PQ LATE: 0 COMMIT LATE: 0 MISSED OPPORTUNITY: 0 UNCOVERED: 0
DTLB PREFETCHES SAME FILL-ORIGIN LEVEL: 0 DIFFERENT FILL-ORIGIN LEVEL: 0
DTLB AVERAGE MISS LATENCY: 17.2914 cycles
DTLB AVERAGE MISS LATENCY LOAD: -nan cycles
DTLB AVERAGE MISS LATENCY PREFETCH: -nan cycles
DTLB AVERAGE MSHR OCCUPANCY: 0.248872
DTLB MSHR FULL: 0.00130458
DTLB RQ	ACCESS:   55701024	FORWARD:          0	MERGED:    1094183	TO_CACHE:   54606841

STLB TOTAL     ACCESS:    9419403  HIT:    6409215  MISS:    3010188  HIT %:    68.0427  MISS %:    31.9573   MPKI: 15.0509
STLB Test counter:          0
STLB LOAD TRANSLATION ACCESS:    9419403  HIT:    6409215  MISS:    3010188  HIT %:    68.0427  MISS %:    31.9573   MPKI: 15.0509
STLB PREFETCH  REQUESTED:          0  ISSUED:          0  USEFUL:          0  USELESS:          0
STLB USEFUL LOAD PREFETCHES:          0 PREFETCH ISSUED TO LOWER LEVEL:          0  ACCURACY: -nan
STLB TIMELY PREFETCHES:          0 LATE PREFETCHES: 0 DROPPED PREFETCHES: 0
STLB COMMIT LATE PREFETCHES: 0 MISSED OPPORTUNITY: 0 LATE IN PQ: 0 UNCOVERED: 0
STLB COMMIT LATE MSHR PREFETCHES: 0
STLB MPKI TOTAL: 0 MSHR LATE: 0 PQ LATE: 0 COMMIT LATE: 0 MISSED OPPORTUNITY: 0 UNCOVERED: 0
STLB PREFETCHES SAME FILL-ORIGIN LEVEL: 0 DIFFERENT FILL-ORIGIN LEVEL: 0
STLB AVERAGE MISS LATENCY: 25.5497 cycles
STLB AVERAGE MISS LATENCY LOAD: -nan cycles
STLB AVERAGE MISS LATENCY PREFETCH: -nan cycles
STLB AVERAGE MSHR OCCUPANCY: 0.143713
STLB MSHR FULL: 0
STLB RQ	ACCESS:    9419403	FORWARD:          0	MERGED:          0	TO_CACHE:    9419403

STLB Hit, L1D data hit: 0
STLB Hit, L2C data hit: 0
STLB Hit, LLC data hit: 0
STLB Hit, LLC data miss: 0
STLB STLB hints to L2: 0
L1D TOTAL     ACCESS:   54436716  HIT:   36850513  MISS:   17586203  HIT %:    67.6942  MISS %:    32.3058   MPKI: 87.931
L1D Test counter:          0
L1D LOAD      ACCESS:   45388009  HIT:   27831137  MISS:   18778971  HIT %:    61.3183  MISS %:    38.6817   MPKI: 87.7844
L1D RFO       ACCESS:    9048707  HIT:    9019376  MISS:      29331  HIT %:    99.6759  MISS %:   0.324146   MPKI: 0.146655
L1D PREFETCH  REQUESTED:          0  ISSUED:          0  USEFUL:          0  USELESS:          0
L1D USEFUL LOAD PREFETCHES:          0 PREFETCH ISSUED TO LOWER LEVEL:          0  ACCURACY: -nan
L1D TIMELY PREFETCHES:          0 LATE PREFETCHES: 0 DROPPED PREFETCHES: 0
L1D COMMIT LATE PREFETCHES: 0 MISSED OPPORTUNITY: 0 LATE IN PQ: 0 UNCOVERED: 0
L1D COMMIT LATE MSHR PREFETCHES: 0
L1D MPKI TOTAL: 93.8949 MSHR LATE: 0 PQ LATE: 0 COMMIT LATE: 0 MISSED OPPORTUNITY: 0 UNCOVERED: 0
L1D PREFETCHES SAME FILL-ORIGIN LEVEL: 0 DIFFERENT FILL-ORIGIN LEVEL: 0
L1D AVERAGE MISS LATENCY: 128.204 cycles
L1D AVERAGE MISS LATENCY LOAD: 127.946 cycles
L1D AVERAGE MISS LATENCY PREFETCH: -nan cycles
L1D AVERAGE MSHR OCCUPANCY: 1.06443
L1D MSHR FULL: 0.00798516
L1D RQ	ACCESS:   52383499	FORWARD:          0	MERGED:    5766244	TO_CACHE:   46610107
L1D WQ	ACCESS:    9121061	FORWARD:       7148	MERGED:      30144	TO_CACHE:    9090917

L1D UNIQUE REGIONS ACCESSED: 0
L1D REGIONS CONFLICTS: 0
L1D Cross Page Prefetch Requests: 0
L1D Same Page Prefetch Requests: 0
L1D ROI Sum of L1D PQ occupancy: 0
L1D PREFETCHES PUSHED FROM L2C: 0
560e8c841ff8: 10
560e8c840770: 14
14ce07da7672: 14
14ce07da763e: 14
14ce07da76c3: 14
560e8c841f15: 14
560e8c841ea5: 14
560e8c84203f: 14
560e8c841f0a: 14
560e8c841f20: 46
560e8c841efb: 280
560e8c841e7b: 2749
560e8c841f25: 5487
560e8c841e73: 5772
560e8c841e70: 6646
14ce07da767f: 14308
560e8c841ec6: 20737
560e8c841e77: 21743
560e8c841ebf: 44567
560e8c841ed6: 821061
560e8c841eca: 4242574
560e8c841ee2: 12370780
L1I TOTAL     ACCESS:   40944398  HIT:   40944398  MISS:          0  HIT %:        100  MISS %:          0   MPKI: 0
L1I Test counter:          0
L1I LOAD      ACCESS:   40944398  HIT:   40944398  MISS:          0  HIT %:        100  MISS %:          0   MPKI: 0
L1I PREFETCH  REQUESTED:          0  ISSUED:          0  USEFUL:          0  USELESS:          0
L1I USEFUL LOAD PREFETCHES:          0 PREFETCH ISSUED TO LOWER LEVEL:          0  ACCURACY: -nan
L1I TIMELY PREFETCHES:          0 LATE PREFETCHES: 0 DROPPED PREFETCHES: 0
L1I COMMIT LATE PREFETCHES: 0 MISSED OPPORTUNITY: 0 LATE IN PQ: 0 UNCOVERED: 0
L1I COMMIT LATE MSHR PREFETCHES: 0
L1I MPKI TOTAL: 0 MSHR LATE: 0 PQ LATE: 0 COMMIT LATE: 0 MISSED OPPORTUNITY: 0 UNCOVERED: 0
L1I PREFETCHES SAME FILL-ORIGIN LEVEL: 0 DIFFERENT FILL-ORIGIN LEVEL: 0
L1I AVERAGE MISS LATENCY: -nan cycles
L1I AVERAGE MISS LATENCY LOAD: -nan cycles
L1I AVERAGE MISS LATENCY PREFETCH: -nan cycles
L1I AVERAGE MSHR OCCUPANCY: 0
L1I MSHR FULL: 0
L1I RQ	ACCESS:   52455745	FORWARD:          0	MERGED:   11511348	TO_CACHE:   40944397

BTB TOTAL     ACCESS:   38946633  HIT:   38946619  MISS:         14  HIT %:        100  MISS %: 3.59466e-05   MPKI: 7e-05
BTB Test counter:          0
BTB BRANCH_DIRECT_JUMP	ACCESS:     251798  HIT:     251794  MISS:          4
BTB BRANCH_INDIRECT	ACCESS:          0  HIT:          0  MISS:          0
BTB BRANCH_CONDITIONAL	ACCESS:   38694807  HIT:   38694799  MISS:          8
BTB BRANCH_DIRECT_CALL	ACCESS:         14  HIT:         13  MISS:          1
BTB BRANCH_INDIRECT_CALL	ACCESS:          0  HIT:          0  MISS:          0
BTB BRANCH_RETURN	ACCESS:         14  HIT:         13  MISS:          1
BTB BRANCH_OTHER ACCESS:          0  HIT:          0  MISS:          0

L2C TOTAL     ACCESS:   25143657  HIT:   10227105  MISS:   14916552  HIT %:    40.6747  MISS %:    59.3253   MPKI: 74.5828
L2C Test counter:          0
L2C LOAD      ACCESS:   17556872  HIT:    2799488  MISS:   14757384  HIT %:    15.9453  MISS %:    84.0547   MPKI: 73.7869
L2C DATA LOAD MPKI: 73.7869
L2C INSTRUCTION LOAD MPKI: 0
L2C RFO       ACCESS:      29331  HIT:        744  MISS:      28587  HIT %:    2.53657  MISS %:    97.4634   MPKI: 0.142935
L2C WRITEBACK ACCESS:    4546323  HIT:    4545986  MISS:        337  HIT %:    99.9926  MISS %: 0.00741258   MPKI: 0.001685
L2C LOAD TRANSLATION ACCESS:    3011131  HIT:    2880887  MISS:     130244  HIT %:    95.6746  MISS %:    4.32542   MPKI: 0.65122
L2C PREFETCH  REQUESTED:          0  ISSUED:          0  USEFUL:          0  USELESS:          0
L2C USEFUL LOAD PREFETCHES:          0 PREFETCH ISSUED TO LOWER LEVEL:          0  ACCURACY: -nan
L2C TIMELY PREFETCHES:          0 LATE PREFETCHES: 0 DROPPED PREFETCHES: 0
L2C COMMIT LATE PREFETCHES: 0 MISSED OPPORTUNITY: 0 LATE IN PQ: 0 UNCOVERED: 0
L2C COMMIT LATE MSHR PREFETCHES: 0
L2C MPKI TOTAL: 73.7869 MSHR LATE: 0 PQ LATE: 0 COMMIT LATE: 0 MISSED OPPORTUNITY: 0 UNCOVERED: 0
L2C PREFETCHES SAME FILL-ORIGIN LEVEL: 0 DIFFERENT FILL-ORIGIN LEVEL: 0
L2C AVERAGE MISS LATENCY: 134.14 cycles
L2C AVERAGE MISS LATENCY LOAD: 134.231 cycles
L2C AVERAGE MISS LATENCY PREFETCH: -nan cycles
L2C AVERAGE MSHR OCCUPANCY: 1.21056
L2C MSHR FULL: 0
L2C RQ	ACCESS:   20597334	FORWARD:          0	MERGED:          0	TO_CACHE:   20597334
L2C WQ	ACCESS:    4546323	FORWARD:          0	MERGED:          0	TO_CACHE:    4546323

L2C Instructions Evicting Data 0
L2C Translations Evicting Data 127783
L2C Data Evicting Data 14658212
L2C Instructions Evicting Instructions 0
L2C Translations Evicting Instructions 0
L2C Data Evicting Instructions 0
L2C Instructions Evicting Translations 0
L2C Translations Evicting Translations 2461
L2C Data Evicting Translations 127759
L2C Dense regions hint from L2: 0
560e8c841f20: 1
560e8c841efb: 2
560e8c841ff8: 4
560e8c841ea5: 14
14ce07da7672: 14
14ce07da763e: 14
560e8c840770: 14
560e8c841f25: 421
560e8c841e73: 593
560e8c841e70: 1713
560e8c841e7b: 2749
14ce07da767f: 14234
560e8c841ec6: 20171
560e8c841e77: 21652
560e8c841ebf: 44553
560e8c841ed6: 821061
560e8c841eca: 4083279
560e8c841ee2: 9746895
PSCL5 TOTAL     ACCESS:    3010188  HIT:    3010188  MISS:          0  HIT %:        100  MISS %:          0   MPKI: 0
PSCL5 Test counter:          0
PSCL5 LOAD TRANSLATION ACCESS:    3010188  HIT:    3010188  MISS:          0  HIT %:        100  MISS %:          0   MPKI: 0
PSCL5 PREFETCH  REQUESTED:          0  ISSUED:          0  USEFUL:          0  USELESS:          0
PSCL5 USEFUL LOAD PREFETCHES:          0 PREFETCH ISSUED TO LOWER LEVEL:          0  ACCURACY: -nan
PSCL5 TIMELY PREFETCHES:          0 LATE PREFETCHES: 0 DROPPED PREFETCHES: 0
PSCL5 COMMIT LATE PREFETCHES: 0 MISSED OPPORTUNITY: 0 LATE IN PQ: 0 UNCOVERED: 0
PSCL5 COMMIT LATE MSHR PREFETCHES: 0
PSCL5 MPKI TOTAL: 0 MSHR LATE: 0 PQ LATE: 0 COMMIT LATE: 0 MISSED OPPORTUNITY: 0 UNCOVERED: 0
PSCL5 PREFETCHES SAME FILL-ORIGIN LEVEL: 0 DIFFERENT FILL-ORIGIN LEVEL: 0

PSCL4 TOTAL     ACCESS:    3010188  HIT:    3010188  MISS:          0  HIT %:        100  MISS %:          0   MPKI: 0
PSCL4 Test counter:          0
PSCL4 LOAD TRANSLATION ACCESS:    3010188  HIT:    3010188  MISS:          0  HIT %:        100  MISS %:          0   MPKI: 0
PSCL4 PREFETCH  REQUESTED:          0  ISSUED:          0  USEFUL:          0  USELESS:          0
PSCL4 USEFUL LOAD PREFETCHES:          0 PREFETCH ISSUED TO LOWER LEVEL:          0  ACCURACY: -nan
PSCL4 TIMELY PREFETCHES:          0 LATE PREFETCHES: 0 DROPPED PREFETCHES: 0
PSCL4 COMMIT LATE PREFETCHES: 0 MISSED OPPORTUNITY: 0 LATE IN PQ: 0 UNCOVERED: 0
PSCL4 COMMIT LATE MSHR PREFETCHES: 0
PSCL4 MPKI TOTAL: 0 MSHR LATE: 0 PQ LATE: 0 COMMIT LATE: 0 MISSED OPPORTUNITY: 0 UNCOVERED: 0
PSCL4 PREFETCHES SAME FILL-ORIGIN LEVEL: 0 DIFFERENT FILL-ORIGIN LEVEL: 0

PSCL3 TOTAL     ACCESS:    3010188  HIT:    3010188  MISS:          0  HIT %:        100  MISS %:          0   MPKI: 0
PSCL3 Test counter:          0
PSCL3 LOAD TRANSLATION ACCESS:    3010188  HIT:    3010188  MISS:          0  HIT %:        100  MISS %:          0   MPKI: 0
PSCL3 PREFETCH  REQUESTED:          0  ISSUED:          0  USEFUL:          0  USELESS:          0
PSCL3 USEFUL LOAD PREFETCHES:          0 PREFETCH ISSUED TO LOWER LEVEL:          0  ACCURACY: -nan
PSCL3 TIMELY PREFETCHES:          0 LATE PREFETCHES: 0 DROPPED PREFETCHES: 0
PSCL3 COMMIT LATE PREFETCHES: 0 MISSED OPPORTUNITY: 0 LATE IN PQ: 0 UNCOVERED: 0
PSCL3 COMMIT LATE MSHR PREFETCHES: 0
PSCL3 MPKI TOTAL: 0 MSHR LATE: 0 PQ LATE: 0 COMMIT LATE: 0 MISSED OPPORTUNITY: 0 UNCOVERED: 0
PSCL3 PREFETCHES SAME FILL-ORIGIN LEVEL: 0 DIFFERENT FILL-ORIGIN LEVEL: 0

PSCL2 TOTAL     ACCESS:    3010188  HIT:    3009234  MISS:        954  HIT %:    99.9683  MISS %:  0.0316924   MPKI: 0.00477
PSCL2 Test counter:          0
PSCL2 LOAD TRANSLATION ACCESS:    3010188  HIT:    3009234  MISS:        954  HIT %:    99.9683  MISS %:  0.0316924   MPKI: 0.00477
PSCL2 PREFETCH  REQUESTED:          0  ISSUED:          0  USEFUL:          0  USELESS:          0
PSCL2 USEFUL LOAD PREFETCHES:          0 PREFETCH ISSUED TO LOWER LEVEL:          0  ACCURACY: -nan
PSCL2 TIMELY PREFETCHES:          0 LATE PREFETCHES: 0 DROPPED PREFETCHES: 0
PSCL2 COMMIT LATE PREFETCHES: 0 MISSED OPPORTUNITY: 0 LATE IN PQ: 0 UNCOVERED: 0
PSCL2 COMMIT LATE MSHR PREFETCHES: 0
PSCL2 MPKI TOTAL: 0 MSHR LATE: 0 PQ LATE: 0 COMMIT LATE: 0 MISSED OPPORTUNITY: 0 UNCOVERED: 0
PSCL2 PREFETCHES SAME FILL-ORIGIN LEVEL: 0 DIFFERENT FILL-ORIGIN LEVEL: 0

LLC TOTAL     ACCESS:   19302983  HIT:    9934669  MISS:    9368314  HIT %:     51.467  MISS %:     48.533   MPKI: 46.8416
LLC Test counter:          0
LLC LOAD      ACCESS:   14757384  HIT:    5464944  MISS:    9292440  HIT %:    37.0319  MISS %:    62.9681   MPKI: 46.4622
LLC RFO       ACCESS:      28587  HIT:        524  MISS:      28063  HIT %:      1.833  MISS %:     98.167   MPKI: 0.140315
LLC WRITEBACK ACCESS:    4386768  HIT:    4386321  MISS:        447  HIT %:    99.9898  MISS %:  0.0101897   MPKI: 0.002235
LLC LOAD TRANSLATION ACCESS:     130244  HIT:      82880  MISS:      47364  HIT %:    63.6344  MISS %:    36.3656   MPKI: 0.23682
LLC PREFETCH  REQUESTED:          0  ISSUED:          0  USEFUL:          0  USELESS:          0
LLC USEFUL LOAD PREFETCHES:          0 PREFETCH ISSUED TO LOWER LEVEL:          0  ACCURACY: -nan
LLC TIMELY PREFETCHES:          0 LATE PREFETCHES: 0 DROPPED PREFETCHES: 0
LLC COMMIT LATE PREFETCHES: 0 MISSED OPPORTUNITY: 0 LATE IN PQ: 0 UNCOVERED: 0
LLC COMMIT LATE MSHR PREFETCHES: 0
LLC MPKI TOTAL: 46.4622 MSHR LATE: 0 PQ LATE: 0 COMMIT LATE: 0 MISSED OPPORTUNITY: 0 UNCOVERED: 0
LLC PREFETCHES SAME FILL-ORIGIN LEVEL: 0 DIFFERENT FILL-ORIGIN LEVEL: 0
LLC AVERAGE MISS LATENCY: 165.773 cycles
LLC AVERAGE MISS LATENCY LOAD: 165.487 cycles
LLC AVERAGE MISS LATENCY PREFETCH: -nan cycles
LLC AVERAGE MSHR OCCUPANCY: 0.841429
LLC MSHR FULL: 0
LLC RQ	ACCESS:   14916215	FORWARD:          0	MERGED:          0	TO_CACHE:   14916215
LLC WQ	ACCESS:    4386768	FORWARD:          0	MERGED:          0	TO_CACHE:    4386768

LLC Dense regions hint to LLC: 0
560e8c841ff8: 1
560e8c841ea5: 14
14ce07da7672: 14
14ce07da763e: 14
560e8c840770: 14
560e8c841f25: 119
560e8c841e73: 141
560e8c841e70: 1391
560e8c841e7b: 2749
14ce07da767f: 13658
560e8c841ec6: 17736
560e8c841e77: 21648
560e8c841ebf: 44553
560e8c841ed6: 821061
560e8c841eca: 3287395
560e8c841ee2: 5081932

RAW hits: 115447
Loads Generated: 52498946
Loads sent to L1D: 52383499
Stores Generated: 9121059
Stores sent to L1D: 9121061
Major fault: 0 Minor fault: 33138
Allocated PAGES: 33138
Total Load insts: 64516405
Total Non-spec loads: 6451355
Percentage of speculative loads: 90.0004
L1D response latency: 127.946 cycles
Load retirement latency: 206.966 cycles


DRAM Statistics
 CHANNEL 0
 RQ ROW_BUFFER_HIT:    1305860  ROW_BUFFER_MISS:    8061964
 DBUS_CONGESTED:       3822
 WQ ROW_BUFFER_HIT:    2345798  ROW_BUFFER_MISS:    1245532  FULL:          0

 AVG_CONGESTED_CYCLE: 4
 All warmup complete: 2
Channel 0 Bank busy for read cycles: 0
Channel 0 Bank busy for write cycles: 0
Channel 0
Rank 0
0banks busy for read cycles: 145327854
0banks busy for write cycles: 980561
1banks busy for read cycles: 481569276
1banks busy for write cycles: 216598139
2banks busy for read cycles: 283310371
2banks busy for write cycles: 152074490
3banks busy for read cycles: 59771615
3banks busy for write cycles: 63031720
4banks busy for read cycles: 9375598
4banks busy for write cycles: 17864868
5banks busy for read cycles: 1185565
5banks busy for write cycles: 3653393
6banks busy for read cycles: 172265
6banks busy for write cycles: 540662
7banks busy for read cycles: 74056
7banks busy for write cycles: 75055
8banks busy for read cycles: 302593
8banks busy for write cycles: 273866

CPU 0 Branch Prediction Accuracy: 88.9318% MPKI: 21.5679 Average ROB Occupancy at Mispredict: 28.591
Branch types
NOT_BRANCH: 161026978 80.5135%
BRANCH_DIRECT_JUMP: 251798 0.125899%
BRANCH_INDIRECT: 0 0%
BRANCH_CONDITIONAL: 38720835 19.3604%
BRANCH_DIRECT_CALL: 14 7e-06%
BRANCH_INDIRECT_CALL: 0 0%
BRANCH_RETURN: 14 7e-06%
BRANCH_OTHER: 0 0%

DRAM PAGES: 1048576
Allocated PAGES: 33138
