
*** ChampSim Multicore Out-of-Order Simulator ***

Warmup Instructions: 50000000
Simulation Instructions: 200000000
Number of CPUs: 1
LLC sets: 2048
LLC ways: 16
Secure Berti: OFF
Berti: OFF
Berti Fill: OFF
On commit prefetching: OFF
L2 LLC Bypass speculative loads: OFF
Off-chip DRAM Size: 4096 MB Channels: 1 Width: 64-bit Data Rate: 6400 MT/s
CPU 0 runs /home/sumon/secure_berti/Berti_Baseline/../../traces/gap/bc-5.trace.gz
.gz
BTB has LRU replacement policy
ITLB has LRU replacement policy
DTLB has LRU replacement policy
STLB has LRU replacement policy
L1I has LRU replacement policy
L1D has LRU replacement policy
L2C has LRU replacement policy
LLC has LRU replacement policy
Heartbeat CPU 0 instructions: 10000002 cycles: 3533807 heartbeat IPC: 2.82981 cumulative IPC: 2.82981 (Simulation time: 0 hr 0 min 22 sec) 
Heartbeat CPU 0 instructions: 20000001 cycles: 6575993 heartbeat IPC: 3.28711 cumulative IPC: 3.04137 (Simulation time: 0 hr 0 min 40 sec) 
Heartbeat CPU 0 instructions: 30000001 cycles: 9615607 heartbeat IPC: 3.28989 cumulative IPC: 3.11993 (Simulation time: 0 hr 0 min 58 sec) 
Heartbeat CPU 0 instructions: 40000003 cycles: 12650713 heartbeat IPC: 3.29478 cumulative IPC: 3.16188 (Simulation time: 0 hr 1 min 17 sec) 
Heartbeat CPU 0 instructions: 50000000 cycles: 15690441 heartbeat IPC: 3.28977 cumulative IPC: 3.18665 (Simulation time: 0 hr 1 min 35 sec) 

Warmup complete CPU 0 instructions: 50000004 cycles: 15690442 (Simulation time: 0 hr 1 min 35 sec) 

Heartbeat CPU 0 instructions: 60000000 cycles: 57285342 heartbeat IPC: 0.240414 cumulative IPC: 0.240414 (Simulation time: 0 hr 2 min 13 sec) 
Heartbeat CPU 0 instructions: 70000000 cycles: 98645356 heartbeat IPC: 0.241779 cumulative IPC: 0.241095 (Simulation time: 0 hr 2 min 52 sec) 
Heartbeat CPU 0 instructions: 80000003 cycles: 139106159 heartbeat IPC: 0.247153 cumulative IPC: 0.243081 (Simulation time: 0 hr 3 min 30 sec) 
Heartbeat CPU 0 instructions: 90000000 cycles: 179581352 heartbeat IPC: 0.247065 cumulative IPC: 0.244065 (Simulation time: 0 hr 4 min 9 sec) 
Heartbeat CPU 0 instructions: 100000003 cycles: 220005645 heartbeat IPC: 0.247376 cumulative IPC: 0.24472 (Simulation time: 0 hr 4 min 49 sec) 
Heartbeat CPU 0 instructions: 110000000 cycles: 260265937 heartbeat IPC: 0.248384 cumulative IPC: 0.245323 (Simulation time: 0 hr 5 min 29 sec) 
Heartbeat CPU 0 instructions: 120000000 cycles: 300166218 heartbeat IPC: 0.250625 cumulative IPC: 0.246067 (Simulation time: 0 hr 6 min 9 sec) 
Heartbeat CPU 0 instructions: 130000002 cycles: 340355067 heartbeat IPC: 0.248825 cumulative IPC: 0.246408 (Simulation time: 0 hr 6 min 49 sec) 
Heartbeat CPU 0 instructions: 140000002 cycles: 376736597 heartbeat IPC: 0.274865 cumulative IPC: 0.249276 (Simulation time: 0 hr 7 min 28 sec) 
Heartbeat CPU 0 instructions: 150000002 cycles: 409867164 heartbeat IPC: 0.301836 cumulative IPC: 0.253693 (Simulation time: 0 hr 8 min 13 sec) 
Heartbeat CPU 0 instructions: 160000001 cycles: 443132968 heartbeat IPC: 0.300609 cumulative IPC: 0.257345 (Simulation time: 0 hr 9 min 32 sec) 
Heartbeat CPU 0 instructions: 170000001 cycles: 476672790 heartbeat IPC: 0.298153 cumulative IPC: 0.260314 (Simulation time: 0 hr 10 min 52 sec) 
Heartbeat CPU 0 instructions: 180000003 cycles: 510387289 heartbeat IPC: 0.296608 cumulative IPC: 0.262787 (Simulation time: 0 hr 12 min 7 sec) 
Heartbeat CPU 0 instructions: 190000002 cycles: 543948676 heartbeat IPC: 0.297961 cumulative IPC: 0.265022 (Simulation time: 0 hr 13 min 6 sec) 
Heartbeat CPU 0 instructions: 200000002 cycles: 577594363 heartbeat IPC: 0.297215 cumulative IPC: 0.26695 (Simulation time: 0 hr 14 min 1 sec) 
Heartbeat CPU 0 instructions: 210000003 cycles: 611183292 heartbeat IPC: 0.297717 cumulative IPC: 0.268685 (Simulation time: 0 hr 14 min 51 sec) 
Heartbeat CPU 0 instructions: 220000000 cycles: 645441813 heartbeat IPC: 0.291898 cumulative IPC: 0.269948 (Simulation time: 0 hr 15 min 38 sec) 
Heartbeat CPU 0 instructions: 230000002 cycles: 680262976 heartbeat IPC: 0.287182 cumulative IPC: 0.270851 (Simulation time: 0 hr 16 min 27 sec) 
Heartbeat CPU 0 instructions: 240000002 cycles: 715297488 heartbeat IPC: 0.285433 cumulative IPC: 0.271581 (Simulation time: 0 hr 17 min 14 sec) 
Heartbeat CPU 0 instructions: 250000002 cycles: 750644431 heartbeat IPC: 0.28291 cumulative IPC: 0.272126 (Simulation time: 0 hr 18 min 1 sec) 
Finished CPU 0 instructions: 200000002 cycles: 734953990 cumulative IPC: 0.272126 (Simulation time: 0 hr 18 min 1 sec) 

ChampSim completed all CPUs

Region of Interest Statistics

CPU 0 cumulative IPC: 0.272126 instructions: 200000002 cycles: 734953990
ITLB TOTAL     ACCESS:   34405804  HIT:   34405804  MISS:          0  HIT %:        100  MISS %:          0   MPKI: 0
ITLB Test counter:          0
ITLB LOAD TRANSLATION ACCESS:   34405804  HIT:   34405804  MISS:          0  HIT %:        100  MISS %:          0   MPKI: 0
ITLB PREFETCH  REQUESTED:          0  ISSUED:          0  USEFUL:          0  USELESS:          0
ITLB USEFUL LOAD PREFETCHES:          0 PREFETCH ISSUED TO LOWER LEVEL:          0  ACCURACY: -nan
ITLB TIMELY PREFETCHES:          0 LATE PREFETCHES: 0 DROPPED PREFETCHES: 0
ITLB COMMIT LATE PREFETCHES: 0 MISSED OPPORTUNITY: 0 LATE IN PQ: 0 UNCOVERED: 0
ITLB COMMIT LATE MSHR PREFETCHES: 0
ITLB MPKI TOTAL: 0 MSHR LATE: 0 PQ LATE: 0 COMMIT LATE: 0 MISSED OPPORTUNITY: 0 UNCOVERED: 0
ITLB PREFETCHES SAME FILL-ORIGIN LEVEL: 0 DIFFERENT FILL-ORIGIN LEVEL: 0
ITLB AVERAGE MISS LATENCY: -nan cycles
ITLB AVERAGE MISS LATENCY LOAD: -nan cycles
ITLB AVERAGE MISS LATENCY PREFETCH: -nan cycles
ITLB AVERAGE MSHR OCCUPANCY: 0
ITLB MSHR FULL: 0
ITLB RQ	ACCESS:   34714550	FORWARD:          0	MERGED:     308747	TO_CACHE:   34405803

DTLB TOTAL     ACCESS:   36788720  HIT:   28599585  MISS:    8189135  HIT %:    77.7401  MISS %:    22.2599   MPKI: 40.9457
DTLB Test counter:          0
DTLB LOAD TRANSLATION ACCESS:   36788720  HIT:   28599585  MISS:    8189135  HIT %:    77.7401  MISS %:    22.2599   MPKI: 40.9457
DTLB PREFETCH  REQUESTED:          0  ISSUED:          0  USEFUL:          0  USELESS:          0
DTLB USEFUL LOAD PREFETCHES:          0 PREFETCH ISSUED TO LOWER LEVEL:          0  ACCURACY: -nan
DTLB TIMELY PREFETCHES:          0 LATE PREFETCHES: 0 DROPPED PREFETCHES: 0
DTLB COMMIT LATE PREFETCHES: 0 MISSED OPPORTUNITY: 0 LATE IN PQ: 0 UNCOVERED: 0
DTLB COMMIT LATE MSHR PREFETCHES: 0
DTLB MPKI TOTAL: 0 MSHR LATE: 0 PQ LATE: 0 COMMIT LATE: 0 MISSED OPPORTUNITY: 0 UNCOVERED: 0
DTLB PREFETCHES SAME FILL-ORIGIN LEVEL: 0 DIFFERENT FILL-ORIGIN LEVEL: 0
DTLB AVERAGE MISS LATENCY: 15.4966 cycles
DTLB AVERAGE MISS LATENCY LOAD: -nan cycles
DTLB AVERAGE MISS LATENCY PREFETCH: -nan cycles
DTLB AVERAGE MSHR OCCUPANCY: 0.710897
DTLB MSHR FULL: 0.0272014
DTLB RQ	ACCESS:   41612401	FORWARD:          0	MERGED:    4241680	TO_CACHE:   37370721

STLB TOTAL     ACCESS:    8189134  HIT:    6791922  MISS:    1397212  HIT %:    82.9382  MISS %:    17.0618   MPKI: 6.98606
STLB Test counter:          0
STLB LOAD TRANSLATION ACCESS:    8189134  HIT:    6791922  MISS:    1397212  HIT %:    82.9382  MISS %:    17.0618   MPKI: 6.98606
STLB PREFETCH  REQUESTED:          0  ISSUED:          0  USEFUL:          0  USELESS:          0
STLB USEFUL LOAD PREFETCHES:          0 PREFETCH ISSUED TO LOWER LEVEL:          0  ACCURACY: -nan
STLB TIMELY PREFETCHES:          0 LATE PREFETCHES: 0 DROPPED PREFETCHES: 0
STLB COMMIT LATE PREFETCHES: 0 MISSED OPPORTUNITY: 0 LATE IN PQ: 0 UNCOVERED: 0
STLB COMMIT LATE MSHR PREFETCHES: 0
STLB MPKI TOTAL: 0 MSHR LATE: 0 PQ LATE: 0 COMMIT LATE: 0 MISSED OPPORTUNITY: 0 UNCOVERED: 0
STLB PREFETCHES SAME FILL-ORIGIN LEVEL: 0 DIFFERENT FILL-ORIGIN LEVEL: 0
STLB AVERAGE MISS LATENCY: 34.9558 cycles
STLB AVERAGE MISS LATENCY LOAD: -nan cycles
STLB AVERAGE MISS LATENCY PREFETCH: -nan cycles
STLB AVERAGE MSHR OCCUPANCY: 0.138985
STLB MSHR FULL: 0
STLB RQ	ACCESS:    8189135	FORWARD:          0	MERGED:          0	TO_CACHE:    8189135

STLB Hit, L1D data hit: 0
STLB Hit, L2C data hit: 0
STLB Hit, LLC data hit: 0
STLB Hit, LLC data miss: 0
STLB STLB hints to L2: 0
L1D TOTAL     ACCESS:   39558579  HIT:   22014454  MISS:   17544125  HIT %:    55.6503  MISS %:    44.3497   MPKI: 87.7206
L1D Test counter:          0
L1D LOAD      ACCESS:   32859984  HIT:   15349903  MISS:   19515603  HIT %:    46.7131  MISS %:    53.2869   MPKI: 87.5504
L1D RFO       ACCESS:    6698595  HIT:    6664551  MISS:      34044  HIT %:    99.4918  MISS %:   0.508226   MPKI: 0.17022
L1D PREFETCH  REQUESTED:          0  ISSUED:          0  USEFUL:          0  USELESS:          0
L1D USEFUL LOAD PREFETCHES:          0 PREFETCH ISSUED TO LOWER LEVEL:          0  ACCURACY: -nan
L1D TIMELY PREFETCHES:          0 LATE PREFETCHES: 0 DROPPED PREFETCHES: 0
L1D COMMIT LATE PREFETCHES: 0 MISSED OPPORTUNITY: 0 LATE IN PQ: 0 UNCOVERED: 0
L1D COMMIT LATE MSHR PREFETCHES: 0
L1D MPKI TOTAL: 97.578 MSHR LATE: 0 PQ LATE: 0 COMMIT LATE: 0 MISSED OPPORTUNITY: 0 UNCOVERED: 0
L1D PREFETCHES SAME FILL-ORIGIN LEVEL: 0 DIFFERENT FILL-ORIGIN LEVEL: 0
L1D AVERAGE MISS LATENCY: 120.046 cycles
L1D AVERAGE MISS LATENCY LOAD: 119.747 cycles
L1D AVERAGE MISS LATENCY PREFETCH: -nan cycles
L1D AVERAGE MSHR OCCUPANCY: 3.03127
L1D MSHR FULL: 0.0118045
L1D RQ	ACCESS:   47073074	FORWARD:          0	MERGED:   12068969	TO_CACHE:   34865509
L1D WQ	ACCESS:    7505182	FORWARD:     138596	MERGED:     758290	TO_CACHE:    6746892

L1D UNIQUE REGIONS ACCESSED: 0
L1D REGIONS CONFLICTS: 0
L1D Cross Page Prefetch Requests: 0
L1D Same Page Prefetch Requests: 0
L1D ROI Sum of L1D PQ occupancy: 0
L1D PREFETCHES PUSHED FROM L2C: 0
14ff0170620e: 1
14ff0172a47a: 1
14ff0209fb30: 1
14ff01706207: 1
14ff017060cf: 1
14ff01706076: 1
55a0b2943600: 1
55a0b2944e19: 1
55a0b2944f80: 1
14ff0170607d: 1
14ff017060af: 1
55a0b2944ea0: 1
14ff017060c1: 1
14ff017061f4: 1
14ff020a03f0: 1
14ff01706961: 1
14ff0172a477: 1
55a0b29435d0: 1
14ff01706978: 1
55a0b294720e: 1
55a0b2944f20: 2
55a0b2944efb: 9
55a0b2944ff8: 11
55a0b2944ec3: 14
14ff0172a6c3: 16
55a0b2945049: 16
55a0b294503f: 16
55a0b2944f0a: 16
55a0b2944f15: 16
14ff0172a672: 17
14ff0172a63e: 17
55a0b2943770: 18
55a0b2944ea5: 24
55a0b2944e7b: 2865
55a0b2944f25: 5335
55a0b2944e73: 5609
55a0b2944e70: 6562
14ff0172a67f: 7154
14ff0172a68a: 9592
55a0b2944ec6: 18294
55a0b2944e77: 23452
55a0b2944ebf: 41566
55a0b2944ed6: 882540
55a0b2944eca: 3272305
55a0b2944ee2: 13234595
L1I TOTAL     ACCESS:   34714550  HIT:   34714550  MISS:          0  HIT %:        100  MISS %:          0   MPKI: 0
L1I Test counter:          0
L1I LOAD      ACCESS:   34714550  HIT:   34714550  MISS:          0  HIT %:        100  MISS %:          0   MPKI: 0
L1I PREFETCH  REQUESTED:          0  ISSUED:          0  USEFUL:          0  USELESS:          0
L1I USEFUL LOAD PREFETCHES:          0 PREFETCH ISSUED TO LOWER LEVEL:          0  ACCURACY: -nan
L1I TIMELY PREFETCHES:          0 LATE PREFETCHES: 0 DROPPED PREFETCHES: 0
L1I COMMIT LATE PREFETCHES: 0 MISSED OPPORTUNITY: 0 LATE IN PQ: 0 UNCOVERED: 0
L1I COMMIT LATE MSHR PREFETCHES: 0
L1I MPKI TOTAL: 0 MSHR LATE: 0 PQ LATE: 0 COMMIT LATE: 0 MISSED OPPORTUNITY: 0 UNCOVERED: 0
L1I PREFETCHES SAME FILL-ORIGIN LEVEL: 0 DIFFERENT FILL-ORIGIN LEVEL: 0
L1I AVERAGE MISS LATENCY: -nan cycles
L1I AVERAGE MISS LATENCY LOAD: -nan cycles
L1I AVERAGE MISS LATENCY PREFETCH: -nan cycles
L1I AVERAGE MSHR OCCUPANCY: 0
L1I MSHR FULL: 0
L1I RQ	ACCESS:   54478618	FORWARD:          0	MERGED:   19764068	TO_CACHE:   34714550

BTB TOTAL     ACCESS:   41913134  HIT:   41913092  MISS:         42  HIT %:    99.9999  MISS %: 0.000100207   MPKI: 0.00021
BTB Test counter:          0
BTB BRANCH_DIRECT_JUMP	ACCESS:     294369  HIT:     294357  MISS:         12
BTB BRANCH_INDIRECT	ACCESS:          0  HIT:          0  MISS:          0
BTB BRANCH_CONDITIONAL	ACCESS:   41618721  HIT:   41618706  MISS:         15
BTB BRANCH_DIRECT_CALL	ACCESS:         22  HIT:         15  MISS:          7
BTB BRANCH_INDIRECT_CALL	ACCESS:          0  HIT:          0  MISS:          0
BTB BRANCH_RETURN	ACCESS:         22  HIT:         14  MISS:          8
BTB BRANCH_OTHER ACCESS:          0  HIT:          0  MISS:          0

L2C TOTAL     ACCESS:   22561388  HIT:    8293055  MISS:   14268333  HIT %:    36.7577  MISS %:    63.2423   MPKI: 71.3417
L2C Test counter:          0
L2C LOAD      ACCESS:   17510080  HIT:    3437648  MISS:   14072431  HIT %:    19.6324  MISS %:    80.3676   MPKI: 70.3622
L2C DATA LOAD MPKI: 70.3622
L2C INSTRUCTION LOAD MPKI: 0
L2C RFO       ACCESS:      34044  HIT:        431  MISS:      33613  HIT %:    1.26601  MISS %:     98.734   MPKI: 0.168065
L2C WRITEBACK ACCESS:    3618339  HIT:    3618278  MISS:         61  HIT %:    99.9983  MISS %: 0.00168586   MPKI: 0.000305
L2C LOAD TRANSLATION ACCESS:    1398925  HIT:    1236698  MISS:     162227  HIT %:    88.4035  MISS %:    11.5965   MPKI: 0.811135
L2C PREFETCH  REQUESTED:          0  ISSUED:          0  USEFUL:          0  USELESS:          0
L2C USEFUL LOAD PREFETCHES:          0 PREFETCH ISSUED TO LOWER LEVEL:          0  ACCURACY: -nan
L2C TIMELY PREFETCHES:          0 LATE PREFETCHES: 0 DROPPED PREFETCHES: 0
L2C COMMIT LATE PREFETCHES: 0 MISSED OPPORTUNITY: 0 LATE IN PQ: 0 UNCOVERED: 0
L2C COMMIT LATE MSHR PREFETCHES: 0
L2C MPKI TOTAL: 70.3622 MSHR LATE: 0 PQ LATE: 0 COMMIT LATE: 0 MISSED OPPORTUNITY: 0 UNCOVERED: 0
L2C PREFETCHES SAME FILL-ORIGIN LEVEL: 0 DIFFERENT FILL-ORIGIN LEVEL: 0
L2C AVERAGE MISS LATENCY: 129.299 cycles
L2C AVERAGE MISS LATENCY LOAD: 129.656 cycles
L2C AVERAGE MISS LATENCY PREFETCH: -nan cycles
L2C AVERAGE MSHR OCCUPANCY: 2.9042
L2C MSHR FULL: 0
L2C RQ	ACCESS:   18943049	FORWARD:          0	MERGED:          0	TO_CACHE:   18943048
L2C WQ	ACCESS:    3618339	FORWARD:          1	MERGED:          0	TO_CACHE:    3618339

L2C Instructions Evicting Data 0
L2C Translations Evicting Data 160239
L2C Data Evicting Data 13945649
L2C Instructions Evicting Instructions 0
L2C Translations Evicting Instructions 0
L2C Data Evicting Instructions 0
L2C Instructions Evicting Translations 0
L2C Translations Evicting Translations 1988
L2C Data Evicting Translations 160396
L2C Dense regions hint from L2: 0
55a0b29435d0: 1
14ff020a03f0: 1
55a0b294720e: 1
14ff01706961: 1
14ff017061f4: 1
14ff01706978: 1
14ff017060c1: 1
14ff0170620e: 1
55a0b2944e19: 1
55a0b2943600: 1
14ff01706076: 1
14ff0172a477: 1
14ff0170607d: 1
14ff0209fb30: 1
14ff0172a47a: 1
14ff017060af: 1
14ff017060cf: 1
14ff01706207: 1
55a0b2944ff8: 5
55a0b2944ec3: 14
55a0b2943770: 17
14ff0172a672: 17
14ff0172a63e: 17
55a0b2944ea5: 23
55a0b2944f25: 371
55a0b2944e73: 457
55a0b2944e70: 1771
55a0b2944e7b: 2865
14ff0172a67f: 7135
14ff0172a68a: 9513
55a0b2944ec6: 18105
55a0b2944e77: 23351
55a0b2944ebf: 41549
55a0b2944ed6: 882540
55a0b2944eca: 3082650
55a0b2944ee2: 10002014
PSCL5 TOTAL     ACCESS:    1397212  HIT:    1397212  MISS:          0  HIT %:        100  MISS %:          0   MPKI: 0
PSCL5 Test counter:          0
PSCL5 LOAD TRANSLATION ACCESS:    1397212  HIT:    1397212  MISS:          0  HIT %:        100  MISS %:          0   MPKI: 0
PSCL5 PREFETCH  REQUESTED:          0  ISSUED:          0  USEFUL:          0  USELESS:          0
PSCL5 USEFUL LOAD PREFETCHES:          0 PREFETCH ISSUED TO LOWER LEVEL:          0  ACCURACY: -nan
PSCL5 TIMELY PREFETCHES:          0 LATE PREFETCHES: 0 DROPPED PREFETCHES: 0
PSCL5 COMMIT LATE PREFETCHES: 0 MISSED OPPORTUNITY: 0 LATE IN PQ: 0 UNCOVERED: 0
PSCL5 COMMIT LATE MSHR PREFETCHES: 0
PSCL5 MPKI TOTAL: 0 MSHR LATE: 0 PQ LATE: 0 COMMIT LATE: 0 MISSED OPPORTUNITY: 0 UNCOVERED: 0
PSCL5 PREFETCHES SAME FILL-ORIGIN LEVEL: 0 DIFFERENT FILL-ORIGIN LEVEL: 0

PSCL4 TOTAL     ACCESS:    1397212  HIT:    1397212  MISS:          0  HIT %:        100  MISS %:          0   MPKI: 0
PSCL4 Test counter:          0
PSCL4 LOAD TRANSLATION ACCESS:    1397212  HIT:    1397212  MISS:          0  HIT %:        100  MISS %:          0   MPKI: 0
PSCL4 PREFETCH  REQUESTED:          0  ISSUED:          0  USEFUL:          0  USELESS:          0
PSCL4 USEFUL LOAD PREFETCHES:          0 PREFETCH ISSUED TO LOWER LEVEL:          0  ACCURACY: -nan
PSCL4 TIMELY PREFETCHES:          0 LATE PREFETCHES: 0 DROPPED PREFETCHES: 0
PSCL4 COMMIT LATE PREFETCHES: 0 MISSED OPPORTUNITY: 0 LATE IN PQ: 0 UNCOVERED: 0
PSCL4 COMMIT LATE MSHR PREFETCHES: 0
PSCL4 MPKI TOTAL: 0 MSHR LATE: 0 PQ LATE: 0 COMMIT LATE: 0 MISSED OPPORTUNITY: 0 UNCOVERED: 0
PSCL4 PREFETCHES SAME FILL-ORIGIN LEVEL: 0 DIFFERENT FILL-ORIGIN LEVEL: 0

PSCL3 TOTAL     ACCESS:    1397212  HIT:    1397212  MISS:          0  HIT %:        100  MISS %:          0   MPKI: 0
PSCL3 Test counter:          0
PSCL3 LOAD TRANSLATION ACCESS:    1397212  HIT:    1397212  MISS:          0  HIT %:        100  MISS %:          0   MPKI: 0
PSCL3 PREFETCH  REQUESTED:          0  ISSUED:          0  USEFUL:          0  USELESS:          0
PSCL3 USEFUL LOAD PREFETCHES:          0 PREFETCH ISSUED TO LOWER LEVEL:          0  ACCURACY: -nan
PSCL3 TIMELY PREFETCHES:          0 LATE PREFETCHES: 0 DROPPED PREFETCHES: 0
PSCL3 COMMIT LATE PREFETCHES: 0 MISSED OPPORTUNITY: 0 LATE IN PQ: 0 UNCOVERED: 0
PSCL3 COMMIT LATE MSHR PREFETCHES: 0
PSCL3 MPKI TOTAL: 0 MSHR LATE: 0 PQ LATE: 0 COMMIT LATE: 0 MISSED OPPORTUNITY: 0 UNCOVERED: 0
PSCL3 PREFETCHES SAME FILL-ORIGIN LEVEL: 0 DIFFERENT FILL-ORIGIN LEVEL: 0

PSCL2 TOTAL     ACCESS:    1397212  HIT:    1395461  MISS:       1751  HIT %:    99.8747  MISS %:   0.125321   MPKI: 0.008755
PSCL2 Test counter:          0
PSCL2 LOAD TRANSLATION ACCESS:    1397212  HIT:    1395461  MISS:       1751  HIT %:    99.8747  MISS %:   0.125321   MPKI: 0.008755
PSCL2 PREFETCH  REQUESTED:          0  ISSUED:          0  USEFUL:          0  USELESS:          0
PSCL2 USEFUL LOAD PREFETCHES:          0 PREFETCH ISSUED TO LOWER LEVEL:          0  ACCURACY: -nan
PSCL2 TIMELY PREFETCHES:          0 LATE PREFETCHES: 0 DROPPED PREFETCHES: 0
PSCL2 COMMIT LATE PREFETCHES: 0 MISSED OPPORTUNITY: 0 LATE IN PQ: 0 UNCOVERED: 0
PSCL2 COMMIT LATE MSHR PREFETCHES: 0
PSCL2 MPKI TOTAL: 0 MSHR LATE: 0 PQ LATE: 0 COMMIT LATE: 0 MISSED OPPORTUNITY: 0 UNCOVERED: 0
PSCL2 PREFETCHES SAME FILL-ORIGIN LEVEL: 0 DIFFERENT FILL-ORIGIN LEVEL: 0

LLC TOTAL     ACCESS:   17699503  HIT:    9785426  MISS:    7914077  HIT %:    55.2864  MISS %:    44.7136   MPKI: 39.5704
LLC Test counter:          0
LLC LOAD      ACCESS:   14072410  HIT:    6228394  MISS:    7844015  HIT %:    44.2596  MISS %:    55.7404   MPKI: 39.2201
LLC RFO       ACCESS:      33613  HIT:        779  MISS:      32834  HIT %:    2.31756  MISS %:    97.6824   MPKI: 0.16417
LLC WRITEBACK ACCESS:    3431253  HIT:    3430641  MISS:        612  HIT %:    99.9822  MISS %:   0.017836   MPKI: 0.00306
LLC LOAD TRANSLATION ACCESS:     162227  HIT:     125612  MISS:      36615  HIT %:    77.4298  MISS %:    22.5702   MPKI: 0.183075
LLC PREFETCH  REQUESTED:          0  ISSUED:          0  USEFUL:          0  USELESS:          0
LLC USEFUL LOAD PREFETCHES:          0 PREFETCH ISSUED TO LOWER LEVEL:          0  ACCURACY: -nan
LLC TIMELY PREFETCHES:          0 LATE PREFETCHES: 0 DROPPED PREFETCHES: 0
LLC COMMIT LATE PREFETCHES: 0 MISSED OPPORTUNITY: 0 LATE IN PQ: 0 UNCOVERED: 0
LLC COMMIT LATE MSHR PREFETCHES: 0
LLC MPKI TOTAL: 39.2201 MSHR LATE: 0 PQ LATE: 0 COMMIT LATE: 0 MISSED OPPORTUNITY: 0 UNCOVERED: 0
LLC PREFETCHES SAME FILL-ORIGIN LEVEL: 0 DIFFERENT FILL-ORIGIN LEVEL: 0
LLC AVERAGE MISS LATENCY: 178.949 cycles
LLC AVERAGE MISS LATENCY LOAD: 178.709 cycles
LLC AVERAGE MISS LATENCY PREFETCH: -nan cycles
LLC AVERAGE MSHR OCCUPANCY: 1.88855
LLC MSHR FULL: 0
LLC RQ	ACCESS:   14268271	FORWARD:          0	MERGED:          0	TO_CACHE:   14268249
LLC WQ	ACCESS:    3431253	FORWARD:         22	MERGED:          0	TO_CACHE:    3431253

LLC Dense regions hint to LLC: 0
55a0b2943600: 1
55a0b2944ff8: 1
14ff01706978: 1
14ff017061f4: 1
14ff01706961: 1
14ff017060c1: 1
14ff0170620e: 1
55a0b294720e: 1
14ff020a03f0: 1
55a0b2944e19: 1
14ff0209fb30: 1
14ff01706076: 1
14ff0172a477: 1
14ff0170607d: 1
14ff017060af: 1
14ff017060cf: 1
14ff01706207: 1
14ff0172a47a: 1
55a0b29435d0: 1
55a0b2944ec3: 12
55a0b2943770: 17
14ff0172a672: 17
14ff0172a63e: 17
55a0b2944ea5: 20
55a0b2944f25: 79
55a0b2944e73: 150
55a0b2944e70: 1511
55a0b2944e7b: 2865
14ff0172a67f: 6796
14ff0172a68a: 9016
55a0b2944ec6: 17480
55a0b2944e77: 23346
55a0b2944ebf: 41548
55a0b2944ed6: 882540
55a0b2944eca: 2110238
55a0b2944ee2: 4748345

RAW hits: 2403856
Loads Generated: 49476931
Loads sent to L1D: 47073074
Stores Generated: 7505175
Stores sent to L1D: 7505182
Major fault: 0 Minor fault: 33326
Allocated PAGES: 33326
Total Load insts: 60899281
Total Non-spec loads: 2562527
Percentage of speculative loads: 95.7922
L1D response latency: 119.747 cycles
Load retirement latency: 227.561 cycles


DRAM Statistics
 CHANNEL 0
 RQ ROW_BUFFER_HIT:    1234451  ROW_BUFFER_MISS:    6678477
 DBUS_CONGESTED:       2603
 WQ ROW_BUFFER_HIT:    1404727  ROW_BUFFER_MISS:    1061760  FULL:          0

 AVG_CONGESTED_CYCLE: 4
 All warmup complete: 2
Channel 0 Bank busy for read cycles: 0
Channel 0 Bank busy for write cycles: 0
Channel 0
Rank 0
0banks busy for read cycles: 56136117
0banks busy for write cycles: 187930
1banks busy for read cycles: 204935098
1banks busy for write cycles: 48010543
2banks busy for read cycles: 135283249
2banks busy for write cycles: 28995496
3banks busy for read cycles: 81662055
3banks busy for write cycles: 17408237
4banks busy for read cycles: 43034496
4banks busy for write cycles: 13087642
5banks busy for read cycles: 20094596
5banks busy for write cycles: 12833837
6banks busy for read cycles: 8220558
6banks busy for write cycles: 14581104
7banks busy for read cycles: 2392895
7banks busy for write cycles: 19985437
8banks busy for read cycles: 628439
8banks busy for write cycles: 27476262

CPU 0 Branch Prediction Accuracy: 97.9623% MPKI: 4.27319 Average ROB Occupancy at Mispredict: 140.51
Branch types
NOT_BRANCH: 158057978 79.029%
BRANCH_DIRECT_JUMP: 294369 0.147184%
BRANCH_INDIRECT: 0 0%
BRANCH_CONDITIONAL: 41647479 20.8237%
BRANCH_DIRECT_CALL: 22 1.1e-05%
BRANCH_INDIRECT_CALL: 0 0%
BRANCH_RETURN: 22 1.1e-05%
BRANCH_OTHER: 0 0%

DRAM PAGES: 1048576
Allocated PAGES: 33326
