
*** ChampSim Multicore Out-of-Order Simulator ***

Warmup Instructions: 50000000
Simulation Instructions: 200000000
Number of CPUs: 1
LLC sets: 2048
LLC ways: 16
Secure Berti: OFF
Berti: OFF
Berti Fill: OFF
On commit prefetching: OFF
L2 LLC Bypass speculative loads: OFF
Off-chip DRAM Size: 4096 MB Channels: 1 Width: 64-bit Data Rate: 6400 MT/s
CPU 0 runs /home/sumon/secure_berti/Berti_Baseline/../../traces/gap/pr-10.trace.gz
.gz
BTB has LRU replacement policy
ITLB has LRU replacement policy
DTLB has LRU replacement policy
STLB has LRU replacement policy
L1I has LRU replacement policy
L1D has LRU replacement policy
L2C has LRU replacement policy
LLC has LRU replacement policy
Heartbeat CPU 0 instructions: 10000002 cycles: 3333448 heartbeat IPC: 2.9999 cumulative IPC: 2.9999 (Simulation time: 0 hr 0 min 8 sec) 
Heartbeat CPU 0 instructions: 20000000 cycles: 9670168 heartbeat IPC: 1.5781 cumulative IPC: 2.06822 (Simulation time: 0 hr 0 min 29 sec) 
Heartbeat CPU 0 instructions: 30000003 cycles: 16537053 heartbeat IPC: 1.45626 cumulative IPC: 1.81411 (Simulation time: 0 hr 0 min 51 sec) 
Heartbeat CPU 0 instructions: 40000001 cycles: 23392221 heartbeat IPC: 1.45875 cumulative IPC: 1.70997 (Simulation time: 0 hr 1 min 14 sec) 
Heartbeat CPU 0 instructions: 50000000 cycles: 30231020 heartbeat IPC: 1.46224 cumulative IPC: 1.65393 (Simulation time: 0 hr 1 min 36 sec) 

Warmup complete CPU 0 instructions: 50000002 cycles: 30231021 (Simulation time: 0 hr 1 min 36 sec) 

Heartbeat CPU 0 instructions: 60000000 cycles: 219267392 heartbeat IPC: 0.0528999 cumulative IPC: 0.0528999 (Simulation time: 0 hr 3 min 16 sec) 
Heartbeat CPU 0 instructions: 70000000 cycles: 408243096 heartbeat IPC: 0.0529169 cumulative IPC: 0.0529084 (Simulation time: 0 hr 4 min 57 sec) 
Heartbeat CPU 0 instructions: 80000000 cycles: 596951806 heartbeat IPC: 0.0529917 cumulative IPC: 0.0529361 (Simulation time: 0 hr 6 min 37 sec) 
Heartbeat CPU 0 instructions: 90000000 cycles: 785361895 heartbeat IPC: 0.0530757 cumulative IPC: 0.0529709 (Simulation time: 0 hr 8 min 20 sec) 
Heartbeat CPU 0 instructions: 100000002 cycles: 975027938 heartbeat IPC: 0.0527243 cumulative IPC: 0.0529214 (Simulation time: 0 hr 11 min 2 sec) 
Heartbeat CPU 0 instructions: 110000000 cycles: 1163123865 heartbeat IPC: 0.0531644 cumulative IPC: 0.0529618 (Simulation time: 0 hr 13 min 14 sec) 
Heartbeat CPU 0 instructions: 120000000 cycles: 1351725451 heartbeat IPC: 0.0530218 cumulative IPC: 0.0529703 (Simulation time: 0 hr 14 min 59 sec) 
Heartbeat CPU 0 instructions: 130000001 cycles: 1541218810 heartbeat IPC: 0.0527723 cumulative IPC: 0.0529455 (Simulation time: 0 hr 16 min 45 sec) 
Heartbeat CPU 0 instructions: 140000000 cycles: 1729625656 heartbeat IPC: 0.0530766 cumulative IPC: 0.05296 (Simulation time: 0 hr 18 min 30 sec) 
Heartbeat CPU 0 instructions: 150000000 cycles: 1918596399 heartbeat IPC: 0.0529182 cumulative IPC: 0.0529559 (Simulation time: 0 hr 20 min 11 sec) 
Heartbeat CPU 0 instructions: 160000000 cycles: 2107413791 heartbeat IPC: 0.0529612 cumulative IPC: 0.0529563 (Simulation time: 0 hr 21 min 52 sec) 
Heartbeat CPU 0 instructions: 170000001 cycles: 2295399768 heartbeat IPC: 0.0531955 cumulative IPC: 0.0529762 (Simulation time: 0 hr 23 min 32 sec) 
Heartbeat CPU 0 instructions: 180000001 cycles: 2484757018 heartbeat IPC: 0.0528102 cumulative IPC: 0.0529634 (Simulation time: 0 hr 25 min 12 sec) 
Heartbeat CPU 0 instructions: 190000001 cycles: 2623058751 heartbeat IPC: 0.0723057 cumulative IPC: 0.0539951 (Simulation time: 0 hr 26 min 31 sec) 
Heartbeat CPU 0 instructions: 200000003 cycles: 2666942399 heartbeat IPC: 0.227875 cumulative IPC: 0.056889 (Simulation time: 0 hr 27 min 11 sec) 
Heartbeat CPU 0 instructions: 210000000 cycles: 2856316660 heartbeat IPC: 0.0528055 cumulative IPC: 0.0566154 (Simulation time: 0 hr 28 min 50 sec) 
Heartbeat CPU 0 instructions: 220000000 cycles: 3045210160 heartbeat IPC: 0.0529399 cumulative IPC: 0.0563851 (Simulation time: 0 hr 30 min 30 sec) 
Heartbeat CPU 0 instructions: 230000001 cycles: 3234562231 heartbeat IPC: 0.0528117 cumulative IPC: 0.056174 (Simulation time: 0 hr 32 min 9 sec) 
Heartbeat CPU 0 instructions: 240000001 cycles: 3424201833 heartbeat IPC: 0.0527316 cumulative IPC: 0.0559816 (Simulation time: 0 hr 33 min 49 sec) 
Heartbeat CPU 0 instructions: 250000001 cycles: 3613030165 heartbeat IPC: 0.0529582 cumulative IPC: 0.0558223 (Simulation time: 0 hr 35 min 28 sec) 
Finished CPU 0 instructions: 200000000 cycles: 3582799145 cumulative IPC: 0.0558223 (Simulation time: 0 hr 35 min 28 sec) 

ChampSim completed all CPUs

Region of Interest Statistics

CPU 0 cumulative IPC: 0.0558223 instructions: 200000000 cycles: 3582799145
ITLB TOTAL     ACCESS:   59053095  HIT:   59053095  MISS:          0  HIT %:        100  MISS %:          0   MPKI: 0
ITLB Test counter:          0
ITLB LOAD TRANSLATION ACCESS:   59053095  HIT:   59053095  MISS:          0  HIT %:        100  MISS %:          0   MPKI: 0
ITLB PREFETCH  REQUESTED:          0  ISSUED:          0  USEFUL:          0  USELESS:          0
ITLB USEFUL LOAD PREFETCHES:          0 PREFETCH ISSUED TO LOWER LEVEL:          0  ACCURACY: -nan
ITLB TIMELY PREFETCHES:          0 LATE PREFETCHES: 0 DROPPED PREFETCHES: 0
ITLB COMMIT LATE PREFETCHES: 0 MISSED OPPORTUNITY: 0 LATE IN PQ: 0 UNCOVERED: 0
ITLB COMMIT LATE MSHR PREFETCHES: 0
ITLB MPKI TOTAL: 0 MSHR LATE: 0 PQ LATE: 0 COMMIT LATE: 0 MISSED OPPORTUNITY: 0 UNCOVERED: 0
ITLB PREFETCHES SAME FILL-ORIGIN LEVEL: 0 DIFFERENT FILL-ORIGIN LEVEL: 0
ITLB AVERAGE MISS LATENCY: -nan cycles
ITLB AVERAGE MISS LATENCY LOAD: -nan cycles
ITLB AVERAGE MISS LATENCY PREFETCH: -nan cycles
ITLB AVERAGE MSHR OCCUPANCY: 0
ITLB MSHR FULL: 0
ITLB RQ	ACCESS:   60178027	FORWARD:          0	MERGED:    1124932	TO_CACHE:   59053095

DTLB TOTAL     ACCESS:   66154467  HIT:   43200016  MISS:   22954451  HIT %:    65.3017  MISS %:    34.6983   MPKI: 114.772
DTLB Test counter:          0
DTLB LOAD TRANSLATION ACCESS:   66154467  HIT:   43200016  MISS:   22954451  HIT %:    65.3017  MISS %:    34.6983   MPKI: 114.772
DTLB PREFETCH  REQUESTED:          0  ISSUED:          0  USEFUL:          0  USELESS:          0
DTLB USEFUL LOAD PREFETCHES:          0 PREFETCH ISSUED TO LOWER LEVEL:          0  ACCURACY: -nan
DTLB TIMELY PREFETCHES:          0 LATE PREFETCHES: 0 DROPPED PREFETCHES: 0
DTLB COMMIT LATE PREFETCHES: 0 MISSED OPPORTUNITY: 0 LATE IN PQ: 0 UNCOVERED: 0
DTLB COMMIT LATE MSHR PREFETCHES: 0
DTLB MPKI TOTAL: 0 MSHR LATE: 0 PQ LATE: 0 COMMIT LATE: 0 MISSED OPPORTUNITY: 0 UNCOVERED: 0
DTLB PREFETCHES SAME FILL-ORIGIN LEVEL: 0 DIFFERENT FILL-ORIGIN LEVEL: 0
DTLB AVERAGE MISS LATENCY: 9.1871 cycles
DTLB AVERAGE MISS LATENCY LOAD: -nan cycles
DTLB AVERAGE MISS LATENCY PREFETCH: -nan cycles
DTLB AVERAGE MSHR OCCUPANCY: 0.203037
DTLB MSHR FULL: 0
DTLB RQ	ACCESS:   66872703	FORWARD:          0	MERGED:     703928	TO_CACHE:   66168775

STLB TOTAL     ACCESS:   22954451  HIT:   22913660  MISS:      40791  HIT %:    99.8223  MISS %:   0.177704   MPKI: 0.203955
STLB Test counter:          0
STLB LOAD TRANSLATION ACCESS:   22954451  HIT:   22913660  MISS:      40791  HIT %:    99.8223  MISS %:   0.177704   MPKI: 0.203955
STLB PREFETCH  REQUESTED:          0  ISSUED:          0  USEFUL:          0  USELESS:          0
STLB USEFUL LOAD PREFETCHES:          0 PREFETCH ISSUED TO LOWER LEVEL:          0  ACCURACY: -nan
STLB TIMELY PREFETCHES:          0 LATE PREFETCHES: 0 DROPPED PREFETCHES: 0
STLB COMMIT LATE PREFETCHES: 0 MISSED OPPORTUNITY: 0 LATE IN PQ: 0 UNCOVERED: 0
STLB COMMIT LATE MSHR PREFETCHES: 0
STLB MPKI TOTAL: 0 MSHR LATE: 0 PQ LATE: 0 COMMIT LATE: 0 MISSED OPPORTUNITY: 0 UNCOVERED: 0
STLB PREFETCHES SAME FILL-ORIGIN LEVEL: 0 DIFFERENT FILL-ORIGIN LEVEL: 0
STLB AVERAGE MISS LATENCY: 101.034 cycles
STLB AVERAGE MISS LATENCY LOAD: -nan cycles
STLB AVERAGE MISS LATENCY PREFETCH: -nan cycles
STLB AVERAGE MSHR OCCUPANCY: 0.000398964
STLB MSHR FULL: 0
STLB RQ	ACCESS:   22954451	FORWARD:          0	MERGED:          0	TO_CACHE:   22954451

STLB Hit, L1D data hit: 0
STLB Hit, L2C data hit: 0
STLB Hit, LLC data hit: 0
STLB Hit, LLC data miss: 0
STLB STLB hints to L2: 0
L1D TOTAL     ACCESS:   61729435  HIT:   27192007  MISS:   34537428  HIT %:    44.0503  MISS %:    55.9497   MPKI: 172.687
L1D Test counter:          0
L1D LOAD      ACCESS:   59178205  HIT:   24706336  MISS:   38866692  HIT %:     41.749  MISS %:     58.251   MPKI: 172.359
L1D RFO       ACCESS:    2551230  HIT:    2485671  MISS:      65559  HIT %:    97.4303  MISS %:     2.5697   MPKI: 0.327795
L1D PREFETCH  REQUESTED:          0  ISSUED:          0  USEFUL:          0  USELESS:          0
L1D USEFUL LOAD PREFETCHES:          0 PREFETCH ISSUED TO LOWER LEVEL:          0  ACCURACY: -nan
L1D TIMELY PREFETCHES:          0 LATE PREFETCHES: 0 DROPPED PREFETCHES: 0
L1D COMMIT LATE PREFETCHES: 0 MISSED OPPORTUNITY: 0 LATE IN PQ: 0 UNCOVERED: 0
L1D COMMIT LATE MSHR PREFETCHES: 0
L1D MPKI TOTAL: 194.333 MSHR LATE: 0 PQ LATE: 0 COMMIT LATE: 0 MISSED OPPORTUNITY: 0 UNCOVERED: 0
L1D PREFETCHES SAME FILL-ORIGIN LEVEL: 0 DIFFERENT FILL-ORIGIN LEVEL: 0
L1D AVERAGE MISS LATENCY: 97.1334 cycles
L1D AVERAGE MISS LATENCY LOAD: 96.963 cycles
L1D AVERAGE MISS LATENCY PREFETCH: -nan cycles
L1D AVERAGE MSHR OCCUPANCY: 0.511629
L1D MSHR FULL: 0
L1D RQ	ACCESS:   77353833	FORWARD:          0	MERGED:   13780796	TO_CACHE:   63573028
L1D WQ	ACCESS:    3299680	FORWARD:          9	MERGED:          5	TO_CACHE:    3299675

L1D UNIQUE REGIONS ACCESSED: 0
L1D REGIONS CONFLICTS: 0
L1D Cross Page Prefetch Requests: 0
L1D Same Page Prefetch Requests: 0
L1D ROI Sum of L1D PQ occupancy: 0
L1D PREFETCHES PUSHED FROM L2C: 0
14b38703b67e: 1
14b38703886b: 1
14b38703b3cc: 1
14b387001040: 1
14b387091143: 1
55fa52a1ffe0: 1
14b38703b530: 1
14b38706b951: 1
14b387001230: 1
14b38703f1d1: 1
14b38703def2: 1
55fa52a2002d: 1
14b38703c461: 1
55fa52a1ffee: 1
14b38703b67a: 1
14b38703dee7: 1
14b387041760: 1
14b38703ecd6: 1
14b38709b578: 1
14b38703f1c6: 1
14b38711226f: 1
14b38703ecdd: 1
14b387112247: 1
55fa52a2003f: 1
14b387001100: 1
14b3871100b0: 1
14b38703f6d6: 1
14b387091646: 1
14b387112264: 1
14b387112254: 1
14b38703f6e4: 1
14b387112230: 1
14b387112240: 1
55fa52a1e510: 1
14b38703b3bc: 1
14b38703b5e5: 1
14b38703b3c3: 1
14b38711224b: 1
14b3870404f2: 5
55fa52a20075: 7371
55fa52a20050: 7463
55fa52a20093: 7791
55fa52a2000d: 65536
55fa52a2007b: 77225
55fa52a20000: 131073
55fa52a20054: 140674
55fa52a20060: 2107979
55fa52a2006a: 31926714
L1I TOTAL     ACCESS:   60178026  HIT:   60178003  MISS:         23  HIT %:        100  MISS %: 3.82199e-05   MPKI: 0.000115
L1I Test counter:          0
L1I LOAD      ACCESS:   60178026  HIT:   60178003  MISS:         24  HIT %:        100  MISS %: 3.82199e-05   MPKI: 0.000115
L1I PREFETCH  REQUESTED:          0  ISSUED:          0  USEFUL:          0  USELESS:          0
L1I USEFUL LOAD PREFETCHES:          0 PREFETCH ISSUED TO LOWER LEVEL:          0  ACCURACY: -nan
L1I TIMELY PREFETCHES:          0 LATE PREFETCHES: 0 DROPPED PREFETCHES: 0
L1I COMMIT LATE PREFETCHES: 0 MISSED OPPORTUNITY: 0 LATE IN PQ: 0 UNCOVERED: 0
L1I COMMIT LATE MSHR PREFETCHES: 0
L1I MPKI TOTAL: 0.00012 MSHR LATE: 0 PQ LATE: 0 COMMIT LATE: 0 MISSED OPPORTUNITY: 0 UNCOVERED: 0
L1I PREFETCHES SAME FILL-ORIGIN LEVEL: 0 DIFFERENT FILL-ORIGIN LEVEL: 0
L1I AVERAGE MISS LATENCY: 161.826 cycles
L1I AVERAGE MISS LATENCY LOAD: 161.826 cycles
L1I AVERAGE MISS LATENCY PREFETCH: -nan cycles
L1I AVERAGE MSHR OCCUPANCY: 1.32939e-07
L1I MSHR FULL: 0
L1I RQ	ACCESS:   71255314	FORWARD:          0	MERGED:   11077287	TO_CACHE:   60178027

14b3870403df: 1
14b3870413c4: 1
14b387033396: 1
14b387040400: 1
14b3870413b8: 1
14b38704066c: 1
14b387040682: 1
14b3870411c8: 1
14b387033340: 1
14b38703393a: 1
14b38703d103: 1
14b387033944: 1
14b387040c43: 1
14b38703d0db: 1
14b3870333c0: 1
14b3870339b9: 1
14b387040443: 1
14b3870404ee: 1
14b3870406f2: 1
14b387040f41: 1
14b387040f1c: 1
14b38703fd70: 1
14b387040c24: 1
BTB TOTAL     ACCESS:   37027234  HIT:   37027062  MISS:        172  HIT %:    99.9995  MISS %: 0.000464523   MPKI: 0.00086
BTB Test counter:          0
BTB BRANCH_DIRECT_JUMP	ACCESS:         67  HIT:         33  MISS:         34
BTB BRANCH_INDIRECT	ACCESS:          4  HIT:          0  MISS:          4
BTB BRANCH_CONDITIONAL	ACCESS:   37027097  HIT:   37027009  MISS:         88
BTB BRANCH_DIRECT_CALL	ACCESS:         28  HIT:         10  MISS:         18
BTB BRANCH_INDIRECT_CALL	ACCESS:          5  HIT:          1  MISS:          4
BTB BRANCH_RETURN	ACCESS:         33  HIT:          9  MISS:         24
BTB BRANCH_OTHER ACCESS:          0  HIT:          0  MISS:          0

L2C TOTAL     ACCESS:   34728441  HIT:    9234337  MISS:   25494104  HIT %:    26.5901  MISS %:    73.4099   MPKI: 127.471
L2C Test counter:          0
L2C LOAD      ACCESS:   34471892  HIT:    9050371  MISS:   25421520  HIT %:    26.2543  MISS %:    73.7457   MPKI: 127.108
L2C DATA LOAD MPKI: 127.107
L2C INSTRUCTION LOAD MPKI: 0.000115
L2C RFO       ACCESS:      65559  HIT:         60  MISS:      65499  HIT %:  0.0915206  MISS %:    99.9085   MPKI: 0.327495
L2C WRITEBACK ACCESS:     150160  HIT:     150111  MISS:         49  HIT %:    99.9674  MISS %:  0.0326319   MPKI: 0.000245
L2C LOAD TRANSLATION ACCESS:      40830  HIT:      33795  MISS:       7035  HIT %:      82.77  MISS %:      17.23   MPKI: 0.035175
L2C PREFETCH  REQUESTED:          0  ISSUED:          0  USEFUL:          0  USELESS:          0
L2C USEFUL LOAD PREFETCHES:          0 PREFETCH ISSUED TO LOWER LEVEL:          0  ACCURACY: -nan
L2C TIMELY PREFETCHES:          0 LATE PREFETCHES: 0 DROPPED PREFETCHES: 0
L2C COMMIT LATE PREFETCHES: 0 MISSED OPPORTUNITY: 0 LATE IN PQ: 0 UNCOVERED: 0
L2C COMMIT LATE MSHR PREFETCHES: 0
L2C MPKI TOTAL: 127.108 MSHR LATE: 0 PQ LATE: 0 COMMIT LATE: 0 MISSED OPPORTUNITY: 0 UNCOVERED: 0
L2C PREFETCHES SAME FILL-ORIGIN LEVEL: 0 DIFFERENT FILL-ORIGIN LEVEL: 0
L2C AVERAGE MISS LATENCY: 111.292 cycles
L2C AVERAGE MISS LATENCY LOAD: 111.122 cycles
L2C AVERAGE MISS LATENCY PREFETCH: -nan cycles
L2C AVERAGE MSHR OCCUPANCY: 0.178448
L2C MSHR FULL: 0
L2C RQ	ACCESS:   34578280	FORWARD:          0	MERGED:          0	TO_CACHE:   34578280
L2C WQ	ACCESS:     150160	FORWARD:          0	MERGED:          0	TO_CACHE:     150160

L2C Instructions Evicting Data 23
L2C Translations Evicting Data 7034
L2C Data Evicting Data 25479941
L2C Instructions Evicting Instructions 0
L2C Translations Evicting Instructions 0
L2C Data Evicting Instructions 23
L2C Instructions Evicting Translations 0
L2C Translations Evicting Translations 1
L2C Data Evicting Translations 7033
L2C Dense regions hint from L2: 0
14b38703b530: 1
55fa52a1e510: 1
14b38703b3bc: 1
55fa52a2003f: 1
14b38703ecdd: 1
14b38711226f: 1
14b38703d0db: 1
14b387112230: 1
14b38703886b: 1
14b38703f1d1: 1
14b38703b3c3: 1
14b38711224b: 1
14b38703b3cc: 1
14b387001040: 1
14b387091143: 1
55fa52a1ffe0: 1
14b38703b5e5: 1
14b38706b951: 1
14b387001230: 1
14b38703def2: 1
14b387040c43: 1
14b38703d103: 1
14b38703b67e: 1
14b38703c461: 1
55fa52a1ffee: 1
14b38703b67a: 1
14b38703dee7: 1
14b387041760: 1
14b3870413b8: 1
14b38703ecd6: 1
14b38709b578: 1
14b38703f1c6: 1
14b387033396: 1
14b387040f1c: 1
14b3870404ee: 1
14b387091646: 1
14b387040682: 1
14b387033944: 1
14b38703393a: 1
14b387033340: 1
14b3870406f2: 1
14b387112247: 1
14b3870333c0: 1
14b3870413c4: 1
14b38703f6d6: 1
14b3870411c8: 1
14b3871100b0: 1
14b387040f41: 1
14b38703fd70: 1
14b387040c24: 1
14b387040400: 1
14b387001100: 1
14b387112240: 1
14b3870339b9: 1
14b38703f6e4: 1
14b38704066c: 1
14b387040443: 1
55fa52a2002d: 1
14b3870403df: 1
14b387112264: 1
14b387112254: 1
14b3870404f2: 5
55fa52a20075: 114
55fa52a20050: 214
55fa52a20093: 3897
55fa52a2000d: 65536
55fa52a2007b: 70592
55fa52a20000: 131073
55fa52a20054: 140674
55fa52a20060: 2107979
55fa52a2006a: 22901376
PSCL5 TOTAL     ACCESS:      40791  HIT:      40791  MISS:          0  HIT %:        100  MISS %:          0   MPKI: 0
PSCL5 Test counter:          0
PSCL5 LOAD TRANSLATION ACCESS:      40791  HIT:      40791  MISS:          0  HIT %:        100  MISS %:          0   MPKI: 0
PSCL5 PREFETCH  REQUESTED:          0  ISSUED:          0  USEFUL:          0  USELESS:          0
PSCL5 USEFUL LOAD PREFETCHES:          0 PREFETCH ISSUED TO LOWER LEVEL:          0  ACCURACY: -nan
PSCL5 TIMELY PREFETCHES:          0 LATE PREFETCHES: 0 DROPPED PREFETCHES: 0
PSCL5 COMMIT LATE PREFETCHES: 0 MISSED OPPORTUNITY: 0 LATE IN PQ: 0 UNCOVERED: 0
PSCL5 COMMIT LATE MSHR PREFETCHES: 0
PSCL5 MPKI TOTAL: 0 MSHR LATE: 0 PQ LATE: 0 COMMIT LATE: 0 MISSED OPPORTUNITY: 0 UNCOVERED: 0
PSCL5 PREFETCHES SAME FILL-ORIGIN LEVEL: 0 DIFFERENT FILL-ORIGIN LEVEL: 0

PSCL4 TOTAL     ACCESS:      40791  HIT:      40791  MISS:          0  HIT %:        100  MISS %:          0   MPKI: 0
PSCL4 Test counter:          0
PSCL4 LOAD TRANSLATION ACCESS:      40791  HIT:      40791  MISS:          0  HIT %:        100  MISS %:          0   MPKI: 0
PSCL4 PREFETCH  REQUESTED:          0  ISSUED:          0  USEFUL:          0  USELESS:          0
PSCL4 USEFUL LOAD PREFETCHES:          0 PREFETCH ISSUED TO LOWER LEVEL:          0  ACCURACY: -nan
PSCL4 TIMELY PREFETCHES:          0 LATE PREFETCHES: 0 DROPPED PREFETCHES: 0
PSCL4 COMMIT LATE PREFETCHES: 0 MISSED OPPORTUNITY: 0 LATE IN PQ: 0 UNCOVERED: 0
PSCL4 COMMIT LATE MSHR PREFETCHES: 0
PSCL4 MPKI TOTAL: 0 MSHR LATE: 0 PQ LATE: 0 COMMIT LATE: 0 MISSED OPPORTUNITY: 0 UNCOVERED: 0
PSCL4 PREFETCHES SAME FILL-ORIGIN LEVEL: 0 DIFFERENT FILL-ORIGIN LEVEL: 0

PSCL3 TOTAL     ACCESS:      40791  HIT:      40791  MISS:          0  HIT %:        100  MISS %:          0   MPKI: 0
PSCL3 Test counter:          0
PSCL3 LOAD TRANSLATION ACCESS:      40791  HIT:      40791  MISS:          0  HIT %:        100  MISS %:          0   MPKI: 0
PSCL3 PREFETCH  REQUESTED:          0  ISSUED:          0  USEFUL:          0  USELESS:          0
PSCL3 USEFUL LOAD PREFETCHES:          0 PREFETCH ISSUED TO LOWER LEVEL:          0  ACCURACY: -nan
PSCL3 TIMELY PREFETCHES:          0 LATE PREFETCHES: 0 DROPPED PREFETCHES: 0
PSCL3 COMMIT LATE PREFETCHES: 0 MISSED OPPORTUNITY: 0 LATE IN PQ: 0 UNCOVERED: 0
PSCL3 COMMIT LATE MSHR PREFETCHES: 0
PSCL3 MPKI TOTAL: 0 MSHR LATE: 0 PQ LATE: 0 COMMIT LATE: 0 MISSED OPPORTUNITY: 0 UNCOVERED: 0
PSCL3 PREFETCHES SAME FILL-ORIGIN LEVEL: 0 DIFFERENT FILL-ORIGIN LEVEL: 0

PSCL2 TOTAL     ACCESS:      40791  HIT:      40705  MISS:         86  HIT %:    99.7892  MISS %:   0.210831   MPKI: 0.00043
PSCL2 Test counter:          0
PSCL2 LOAD TRANSLATION ACCESS:      40791  HIT:      40705  MISS:         86  HIT %:    99.7892  MISS %:   0.210831   MPKI: 0.00043
PSCL2 PREFETCH  REQUESTED:          0  ISSUED:          0  USEFUL:          0  USELESS:          0
PSCL2 USEFUL LOAD PREFETCHES:          0 PREFETCH ISSUED TO LOWER LEVEL:          0  ACCURACY: -nan
PSCL2 TIMELY PREFETCHES:          0 LATE PREFETCHES: 0 DROPPED PREFETCHES: 0
PSCL2 COMMIT LATE PREFETCHES: 0 MISSED OPPORTUNITY: 0 LATE IN PQ: 0 UNCOVERED: 0
PSCL2 COMMIT LATE MSHR PREFETCHES: 0
PSCL2 MPKI TOTAL: 0 MSHR LATE: 0 PQ LATE: 0 COMMIT LATE: 0 MISSED OPPORTUNITY: 0 UNCOVERED: 0
PSCL2 PREFETCHES SAME FILL-ORIGIN LEVEL: 0 DIFFERENT FILL-ORIGIN LEVEL: 0

LLC TOTAL     ACCESS:   25630381  HIT:   12684753  MISS:   12945628  HIT %:    49.4911  MISS %:    50.5089   MPKI: 64.7281
LLC Test counter:          0
LLC LOAD      ACCESS:   25421521  HIT:   12545131  MISS:   12876390  HIT %:    49.3485  MISS %:    50.6515   MPKI: 64.382
LLC RFO       ACCESS:      65499  HIT:       1601  MISS:      63898  HIT %:    2.44431  MISS %:    97.5557   MPKI: 0.31949
LLC WRITEBACK ACCESS:     136326  HIT:     136229  MISS:         97  HIT %:    99.9288  MISS %:   0.071153   MPKI: 0.000485
LLC LOAD TRANSLATION ACCESS:       7035  HIT:       1792  MISS:       5243  HIT %:    25.4726  MISS %:    74.5274   MPKI: 0.026215
LLC PREFETCH  REQUESTED:          0  ISSUED:          0  USEFUL:          0  USELESS:          0
LLC USEFUL LOAD PREFETCHES:          0 PREFETCH ISSUED TO LOWER LEVEL:          0  ACCURACY: -nan
LLC TIMELY PREFETCHES:          0 LATE PREFETCHES: 0 DROPPED PREFETCHES: 0
LLC COMMIT LATE PREFETCHES: 0 MISSED OPPORTUNITY: 0 LATE IN PQ: 0 UNCOVERED: 0
LLC COMMIT LATE MSHR PREFETCHES: 0
LLC MPKI TOTAL: 64.382 MSHR LATE: 0 PQ LATE: 0 COMMIT LATE: 0 MISSED OPPORTUNITY: 0 UNCOVERED: 0
LLC PREFETCHES SAME FILL-ORIGIN LEVEL: 0 DIFFERENT FILL-ORIGIN LEVEL: 0
LLC AVERAGE MISS LATENCY: 160.045 cycles
LLC AVERAGE MISS LATENCY LOAD: 160.112 cycles
LLC AVERAGE MISS LATENCY PREFETCH: -nan cycles
LLC AVERAGE MSHR OCCUPANCY: 0.154138
LLC MSHR FULL: 0
LLC RQ	ACCESS:   25494054	FORWARD:          0	MERGED:          0	TO_CACHE:   25494054
LLC WQ	ACCESS:     136326	FORWARD:          0	MERGED:          0	TO_CACHE:     136326

LLC Dense regions hint to LLC: 0
14b38703b3c3: 1
55fa52a1ffe0: 1
14b387091143: 1
14b387001040: 1
14b38703b3cc: 1
14b38703886b: 1
14b387112230: 1
14b38703f1d1: 1
14b38711224b: 1
14b38703b530: 1
14b38703d0db: 1
14b38711226f: 1
14b38703ecdd: 1
55fa52a20075: 1
55fa52a2003f: 1
14b38703b3bc: 1
55fa52a1e510: 1
14b38703b5e5: 1
14b38706b951: 1
14b387001230: 1
14b38703def2: 1
14b387040c43: 1
14b38703d103: 1
14b38703b67e: 1
14b38703c461: 1
55fa52a1ffee: 1
14b38703b67a: 1
14b38703dee7: 1
14b387041760: 1
14b3870413b8: 1
14b38703ecd6: 1
14b38709b578: 1
14b38703f1c6: 1
14b387033396: 1
14b387040f1c: 1
14b3870404ee: 1
14b387091646: 1
14b387040682: 1
14b387033944: 1
14b38703393a: 1
14b387033340: 1
14b3870406f2: 1
14b387112247: 1
14b3870333c0: 1
14b3870413c4: 1
14b38703f6d6: 1
14b3870411c8: 1
14b3871100b0: 1
14b387040f41: 1
14b38703fd70: 1
14b387040c24: 1
14b387040400: 1
14b387112240: 1
14b3870339b9: 1
14b387001100: 1
14b38703f6e4: 1
14b38704066c: 1
14b387112254: 1
14b387040443: 1
55fa52a2002d: 1
14b387112264: 1
14b3870403df: 1
14b3870404f2: 5
55fa52a20050: 6
55fa52a20093: 132
55fa52a2000d: 65536
55fa52a2007b: 70341
55fa52a20000: 131073
55fa52a20054: 140674
55fa52a20060: 2107979
55fa52a2006a: 10360582

RAW hits: 21
Loads Generated: 77353856
Loads sent to L1D: 77353833
Stores Generated: 3299680
Stores sent to L1D: 3299680
Major fault: 0 Minor fault: 34900
Allocated PAGES: 34900
Total Load insts: 95651109
Total Non-spec loads: 44748821
Percentage of speculative loads: 53.2166
L1D response latency: 96.963 cycles
Load retirement latency: 230.594 cycles


DRAM Statistics
 CHANNEL 0
 RQ ROW_BUFFER_HIT:    1527072  ROW_BUFFER_MISS:   11418459
 DBUS_CONGESTED:       2329
 WQ ROW_BUFFER_HIT:      78836  ROW_BUFFER_MISS:      57257  FULL:          0

 AVG_CONGESTED_CYCLE: 5
 All warmup complete: 2
Channel 0 Bank busy for read cycles: 0
Channel 0 Bank busy for write cycles: 0
Channel 0
Rank 0
0banks busy for read cycles: 1945042010
0banks busy for write cycles: 71650
1banks busy for read cycles: 1467615848
1banks busy for write cycles: 14947163
2banks busy for read cycles: 130465898
2banks busy for write cycles: 778359
3banks busy for read cycles: 16460795
3banks busy for write cycles: 309307
4banks busy for read cycles: 2795800
4banks busy for write cycles: 289651
5banks busy for read cycles: 4689
5banks busy for write cycles: 327748
6banks busy for read cycles: 0
6banks busy for write cycles: 413357
7banks busy for read cycles: 0
7banks busy for write cycles: 604593
8banks busy for read cycles: 0
8banks busy for write cycles: 2672278

CPU 0 Branch Prediction Accuracy: 96.9594% MPKI: 5.62926 Average ROB Occupancy at Mispredict: 136.185
Branch types
NOT_BRANCH: 162972290 81.4861%
BRANCH_DIRECT_JUMP: 67 3.35e-05%
BRANCH_INDIRECT: 4 2e-06%
BRANCH_CONDITIONAL: 37027324 18.5137%
BRANCH_DIRECT_CALL: 28 1.4e-05%
BRANCH_INDIRECT_CALL: 5 2.5e-06%
BRANCH_RETURN: 33 1.65e-05%
BRANCH_OTHER: 0 0%

DRAM PAGES: 1048576
Allocated PAGES: 34900
