
*** ChampSim Multicore Out-of-Order Simulator ***

Warmup Instructions: 50000000
Simulation Instructions: 200000000
Number of CPUs: 1
LLC sets: 2048
LLC ways: 16
Secure Berti: OFF
Berti: OFF
Berti Fill: OFF
On commit prefetching: OFF
L2 LLC Bypass speculative loads: OFF
Off-chip DRAM Size: 4096 MB Channels: 1 Width: 64-bit Data Rate: 6400 MT/s
CPU 0 runs /home/sumon/secure_berti/Berti_Baseline/../../traces/gap/pr-3.trace.gz
.gz
BTB has LRU replacement policy
ITLB has LRU replacement policy
DTLB has LRU replacement policy
STLB has LRU replacement policy
L1I has LRU replacement policy
L1D has LRU replacement policy
L2C has LRU replacement policy
LLC has LRU replacement policy
Heartbeat CPU 0 instructions: 10000002 cycles: 3333447 heartbeat IPC: 2.9999 cumulative IPC: 2.9999 (Simulation time: 0 hr 0 min 8 sec) 
Heartbeat CPU 0 instructions: 20000002 cycles: 9675869 heartbeat IPC: 1.57668 cumulative IPC: 2.067 (Simulation time: 0 hr 0 min 29 sec) 
Heartbeat CPU 0 instructions: 30000001 cycles: 16530103 heartbeat IPC: 1.45895 cumulative IPC: 1.81487 (Simulation time: 0 hr 0 min 51 sec) 
Heartbeat CPU 0 instructions: 40000000 cycles: 23402337 heartbeat IPC: 1.45513 cumulative IPC: 1.70923 (Simulation time: 0 hr 1 min 14 sec) 
Heartbeat CPU 0 instructions: 50000000 cycles: 30279578 heartbeat IPC: 1.45407 cumulative IPC: 1.65128 (Simulation time: 0 hr 1 min 37 sec) 

Warmup complete CPU 0 instructions: 50000001 cycles: 30279579 (Simulation time: 0 hr 1 min 37 sec) 

Heartbeat CPU 0 instructions: 60000003 cycles: 219585322 heartbeat IPC: 0.0528246 cumulative IPC: 0.0528246 (Simulation time: 0 hr 3 min 19 sec) 
Heartbeat CPU 0 instructions: 70000001 cycles: 408560746 heartbeat IPC: 0.0529169 cumulative IPC: 0.0528707 (Simulation time: 0 hr 5 min 4 sec) 
Heartbeat CPU 0 instructions: 80000003 cycles: 597654809 heartbeat IPC: 0.0528837 cumulative IPC: 0.0528751 (Simulation time: 0 hr 6 min 54 sec) 
Heartbeat CPU 0 instructions: 90000000 cycles: 786277407 heartbeat IPC: 0.0530159 cumulative IPC: 0.0529102 (Simulation time: 0 hr 8 min 52 sec) 
Heartbeat CPU 0 instructions: 100000002 cycles: 975804918 heartbeat IPC: 0.0527628 cumulative IPC: 0.0528807 (Simulation time: 0 hr 11 min 8 sec) 
Heartbeat CPU 0 instructions: 110000000 cycles: 1165079188 heartbeat IPC: 0.0528334 cumulative IPC: 0.0528728 (Simulation time: 0 hr 13 min 25 sec) 
Heartbeat CPU 0 instructions: 120000001 cycles: 1355234356 heartbeat IPC: 0.0525886 cumulative IPC: 0.052832 (Simulation time: 0 hr 15 min 41 sec) 
Heartbeat CPU 0 instructions: 130000001 cycles: 1543741821 heartbeat IPC: 0.0530483 cumulative IPC: 0.0528589 (Simulation time: 0 hr 17 min 53 sec) 
Heartbeat CPU 0 instructions: 140000002 cycles: 1732993968 heartbeat IPC: 0.0528396 cumulative IPC: 0.0528568 (Simulation time: 0 hr 19 min 54 sec) 
Heartbeat CPU 0 instructions: 150000000 cycles: 1921956480 heartbeat IPC: 0.0529205 cumulative IPC: 0.0528632 (Simulation time: 0 hr 21 min 47 sec) 
Heartbeat CPU 0 instructions: 160000002 cycles: 2110636090 heartbeat IPC: 0.0529999 cumulative IPC: 0.0528756 (Simulation time: 0 hr 23 min 32 sec) 
Heartbeat CPU 0 instructions: 170000003 cycles: 2299261282 heartbeat IPC: 0.0530152 cumulative IPC: 0.0528872 (Simulation time: 0 hr 25 min 11 sec) 
Heartbeat CPU 0 instructions: 180000002 cycles: 2487941240 heartbeat IPC: 0.0529998 cumulative IPC: 0.0528958 (Simulation time: 0 hr 26 min 51 sec) 
Heartbeat CPU 0 instructions: 190000001 cycles: 2625855651 heartbeat IPC: 0.0725087 cumulative IPC: 0.0539379 (Simulation time: 0 hr 28 min 8 sec) 
Heartbeat CPU 0 instructions: 200000001 cycles: 2669015921 heartbeat IPC: 0.231695 cumulative IPC: 0.0568454 (Simulation time: 0 hr 28 min 47 sec) 
Heartbeat CPU 0 instructions: 210000003 cycles: 2857267916 heartbeat IPC: 0.0531203 cumulative IPC: 0.0565973 (Simulation time: 0 hr 30 min 27 sec) 
Heartbeat CPU 0 instructions: 220000000 cycles: 3045867500 heartbeat IPC: 0.0530224 cumulative IPC: 0.0563737 (Simulation time: 0 hr 32 min 8 sec) 
Heartbeat CPU 0 instructions: 230000000 cycles: 3234238857 heartbeat IPC: 0.0530866 cumulative IPC: 0.0561805 (Simulation time: 0 hr 33 min 49 sec) 
Heartbeat CPU 0 instructions: 240000003 cycles: 3423717527 heartbeat IPC: 0.0527764 cumulative IPC: 0.0559904 (Simulation time: 0 hr 35 min 31 sec) 
Heartbeat CPU 0 instructions: 250000001 cycles: 3612778963 heartbeat IPC: 0.0528928 cumulative IPC: 0.0558269 (Simulation time: 0 hr 37 min 12 sec) 
Finished CPU 0 instructions: 200000000 cycles: 3582499384 cumulative IPC: 0.0558269 (Simulation time: 0 hr 37 min 12 sec) 

ChampSim completed all CPUs

Region of Interest Statistics

CPU 0 cumulative IPC: 0.0558269 instructions: 200000000 cycles: 3582499384
ITLB TOTAL     ACCESS:   58938366  HIT:   58938366  MISS:          0  HIT %:        100  MISS %:          0   MPKI: 0
ITLB Test counter:          0
ITLB LOAD TRANSLATION ACCESS:   58938366  HIT:   58938366  MISS:          0  HIT %:        100  MISS %:          0   MPKI: 0
ITLB PREFETCH  REQUESTED:          0  ISSUED:          0  USEFUL:          0  USELESS:          0
ITLB USEFUL LOAD PREFETCHES:          0 PREFETCH ISSUED TO LOWER LEVEL:          0  ACCURACY: -nan
ITLB TIMELY PREFETCHES:          0 LATE PREFETCHES: 0 DROPPED PREFETCHES: 0
ITLB COMMIT LATE PREFETCHES: 0 MISSED OPPORTUNITY: 0 LATE IN PQ: 0 UNCOVERED: 0
ITLB COMMIT LATE MSHR PREFETCHES: 0
ITLB MPKI TOTAL: 0 MSHR LATE: 0 PQ LATE: 0 COMMIT LATE: 0 MISSED OPPORTUNITY: 0 UNCOVERED: 0
ITLB PREFETCHES SAME FILL-ORIGIN LEVEL: 0 DIFFERENT FILL-ORIGIN LEVEL: 0
ITLB AVERAGE MISS LATENCY: -nan cycles
ITLB AVERAGE MISS LATENCY LOAD: -nan cycles
ITLB AVERAGE MISS LATENCY PREFETCH: -nan cycles
ITLB AVERAGE MSHR OCCUPANCY: 0
ITLB MSHR FULL: 0
ITLB RQ	ACCESS:   60063687	FORWARD:          0	MERGED:    1125322	TO_CACHE:   58938365

DTLB TOTAL     ACCESS:   66274721  HIT:   43389348  MISS:   22885373  HIT %:    65.4689  MISS %:    34.5311   MPKI: 114.427
DTLB Test counter:          0
DTLB LOAD TRANSLATION ACCESS:   66274721  HIT:   43389348  MISS:   22885373  HIT %:    65.4689  MISS %:    34.5311   MPKI: 114.427
DTLB PREFETCH  REQUESTED:          0  ISSUED:          0  USEFUL:          0  USELESS:          0
DTLB USEFUL LOAD PREFETCHES:          0 PREFETCH ISSUED TO LOWER LEVEL:          0  ACCURACY: -nan
DTLB TIMELY PREFETCHES:          0 LATE PREFETCHES: 0 DROPPED PREFETCHES: 0
DTLB COMMIT LATE PREFETCHES: 0 MISSED OPPORTUNITY: 0 LATE IN PQ: 0 UNCOVERED: 0
DTLB COMMIT LATE MSHR PREFETCHES: 0
DTLB MPKI TOTAL: 0 MSHR LATE: 0 PQ LATE: 0 COMMIT LATE: 0 MISSED OPPORTUNITY: 0 UNCOVERED: 0
DTLB PREFETCHES SAME FILL-ORIGIN LEVEL: 0 DIFFERENT FILL-ORIGIN LEVEL: 0
DTLB AVERAGE MISS LATENCY: 9.1888 cycles
DTLB AVERAGE MISS LATENCY LOAD: -nan cycles
DTLB AVERAGE MISS LATENCY PREFETCH: -nan cycles
DTLB AVERAGE MSHR OCCUPANCY: 0.201888
DTLB MSHR FULL: 0
DTLB RQ	ACCESS:   67024479	FORWARD:          0	MERGED:     740389	TO_CACHE:   66284090

STLB TOTAL     ACCESS:   22885373  HIT:   22844598  MISS:      40775  HIT %:    99.8218  MISS %:   0.178171   MPKI: 0.203875
STLB Test counter:          0
STLB LOAD TRANSLATION ACCESS:   22885373  HIT:   22844598  MISS:      40775  HIT %:    99.8218  MISS %:   0.178171   MPKI: 0.203875
STLB PREFETCH  REQUESTED:          0  ISSUED:          0  USEFUL:          0  USELESS:          0
STLB USEFUL LOAD PREFETCHES:          0 PREFETCH ISSUED TO LOWER LEVEL:          0  ACCURACY: -nan
STLB TIMELY PREFETCHES:          0 LATE PREFETCHES: 0 DROPPED PREFETCHES: 0
STLB COMMIT LATE PREFETCHES: 0 MISSED OPPORTUNITY: 0 LATE IN PQ: 0 UNCOVERED: 0
STLB COMMIT LATE MSHR PREFETCHES: 0
STLB MPKI TOTAL: 0 MSHR LATE: 0 PQ LATE: 0 COMMIT LATE: 0 MISSED OPPORTUNITY: 0 UNCOVERED: 0
STLB PREFETCHES SAME FILL-ORIGIN LEVEL: 0 DIFFERENT FILL-ORIGIN LEVEL: 0
STLB AVERAGE MISS LATENCY: 101.811 cycles
STLB AVERAGE MISS LATENCY LOAD: -nan cycles
STLB AVERAGE MISS LATENCY PREFETCH: -nan cycles
STLB AVERAGE MSHR OCCUPANCY: 0.00043447
STLB MSHR FULL: 0
STLB RQ	ACCESS:   22885373	FORWARD:          0	MERGED:          0	TO_CACHE:   22885373

STLB Hit, L1D data hit: 0
STLB Hit, L2C data hit: 0
STLB Hit, LLC data hit: 0
STLB Hit, LLC data miss: 0
STLB STLB hints to L2: 0
L1D TOTAL     ACCESS:   62249866  HIT:   27739274  MISS:   34510592  HIT %:    44.5612  MISS %:    55.4388   MPKI: 172.553
L1D Test counter:          0
L1D LOAD      ACCESS:   59249645  HIT:   24804612  MISS:   38919269  HIT %:    41.8646  MISS %:    58.1354   MPKI: 172.225
L1D RFO       ACCESS:    3000221  HIT:    2934662  MISS:      65559  HIT %:    97.8149  MISS %:    2.18514   MPKI: 0.327795
L1D PREFETCH  REQUESTED:          0  ISSUED:          0  USEFUL:          0  USELESS:          0
L1D USEFUL LOAD PREFETCHES:          0 PREFETCH ISSUED TO LOWER LEVEL:          0  ACCURACY: -nan
L1D TIMELY PREFETCHES:          0 LATE PREFETCHES: 0 DROPPED PREFETCHES: 0
L1D COMMIT LATE PREFETCHES: 0 MISSED OPPORTUNITY: 0 LATE IN PQ: 0 UNCOVERED: 0
L1D COMMIT LATE MSHR PREFETCHES: 0
L1D MPKI TOTAL: 194.596 MSHR LATE: 0 PQ LATE: 0 COMMIT LATE: 0 MISSED OPPORTUNITY: 0 UNCOVERED: 0
L1D PREFETCHES SAME FILL-ORIGIN LEVEL: 0 DIFFERENT FILL-ORIGIN LEVEL: 0
L1D AVERAGE MISS LATENCY: 97.0625 cycles
L1D AVERAGE MISS LATENCY LOAD: 96.9314 cycles
L1D AVERAGE MISS LATENCY PREFETCH: -nan cycles
L1D AVERAGE MSHR OCCUPANCY: 0.510701
L1D MSHR FULL: 0
L1D RQ	ACCESS:   77353315	FORWARD:          0	MERGED:   13629424	TO_CACHE:   63723880
L1D WQ	ACCESS:    3300603	FORWARD:         11	MERGED:          4	TO_CACHE:    3300599

L1D UNIQUE REGIONS ACCESSED: 0
L1D REGIONS CONFLICTS: 0
L1D Cross Page Prefetch Requests: 0
L1D Same Page Prefetch Requests: 0
L1D ROI Sum of L1D PQ occupancy: 0
L1D PREFETCHES PUSHED FROM L2C: 0
14cb10b67ef2: 1
14cb10b655e5: 1
55fe46b7b02d: 1
14cb10b6286b: 1
14cb10c3c254: 1
14cb10b653cc: 1
14cb10b653c3: 1
14cb10bbb143: 1
55fe46b7b03f: 1
14cb10b65530: 1
14cb10b95951: 1
14cb10b2b230: 1
14cb10b653bc: 1
14cb10b68cd6: 1
14cb10b691c6: 1
14cb10bc5578: 1
14cb10b6567e: 1
14cb10b66461: 1
14cb10b6567a: 1
14cb10b67ee7: 1
14cb10b6b760: 1
14cb10c3c26f: 1
14cb10b68cdd: 1
14cb10c3c264: 1
14cb10b696d6: 1
14cb10bbb646: 1
14cb10b691d1: 1
14cb10c3c24b: 1
14cb10c3c240: 1
14cb10c3c230: 1
14cb10b2b100: 1
55fe46b7afe0: 1
14cb10c3a0b0: 1
14cb10b2b040: 1
14cb10b696e4: 1
55fe46b7afee: 1
14cb10c3c247: 1
55fe46b79510: 1
14cb10b6a4f2: 5
55fe46b7b09e: 7121
55fe46b7b093: 7168
55fe46b7b050: 7474
55fe46b7b075: 7761
55fe46b7b00d: 65536
55fe46b7b07b: 77160
55fe46b7b000: 131073
55fe46b7b054: 140731
55fe46b7b060: 2107877
55fe46b7b06a: 31893089
L1I TOTAL     ACCESS:   60063687  HIT:   60063664  MISS:         23  HIT %:        100  MISS %: 3.82927e-05   MPKI: 0.000115
L1I Test counter:          0
L1I LOAD      ACCESS:   60063687  HIT:   60063664  MISS:         24  HIT %:        100  MISS %: 3.82927e-05   MPKI: 0.000115
L1I PREFETCH  REQUESTED:          0  ISSUED:          0  USEFUL:          0  USELESS:          0
L1I USEFUL LOAD PREFETCHES:          0 PREFETCH ISSUED TO LOWER LEVEL:          0  ACCURACY: -nan
L1I TIMELY PREFETCHES:          0 LATE PREFETCHES: 0 DROPPED PREFETCHES: 0
L1I COMMIT LATE PREFETCHES: 0 MISSED OPPORTUNITY: 0 LATE IN PQ: 0 UNCOVERED: 0
L1I COMMIT LATE MSHR PREFETCHES: 0
L1I MPKI TOTAL: 0.00012 MSHR LATE: 0 PQ LATE: 0 COMMIT LATE: 0 MISSED OPPORTUNITY: 0 UNCOVERED: 0
L1I PREFETCHES SAME FILL-ORIGIN LEVEL: 0 DIFFERENT FILL-ORIGIN LEVEL: 0
L1I AVERAGE MISS LATENCY: 170.522 cycles
L1I AVERAGE MISS LATENCY LOAD: 170.522 cycles
L1I AVERAGE MISS LATENCY PREFETCH: -nan cycles
L1I AVERAGE MSHR OCCUPANCY: 1.49841e-07
L1I MSHR FULL: 0
L1I RQ	ACCESS:   71133243	FORWARD:          0	MERGED:   11069556	TO_CACHE:   60063687

14cb10b6a3df: 1
14cb10b6b3c4: 1
14cb10b5d396: 1
14cb10b6a400: 1
14cb10b6b3b8: 1
14cb10b6a66c: 1
14cb10b6a682: 1
14cb10b6b1c8: 1
14cb10b5d340: 1
14cb10b5d93a: 1
14cb10b67103: 1
14cb10b5d944: 1
14cb10b6a350: 1
14cb10b670db: 1
14cb10b5d3c0: 1
14cb10b5d9b9: 1
14cb10b6a443: 1
14cb10b6a4ee: 1
14cb10b6a6f2: 1
14cb10b6af41: 1
14cb10b6af1c: 1
14cb10b69d70: 1
14cb10b6a31f: 1
BTB TOTAL     ACCESS:   37026577  HIT:   37026405  MISS:        172  HIT %:    99.9995  MISS %: 0.000464531   MPKI: 0.00086
BTB Test counter:          0
BTB BRANCH_DIRECT_JUMP	ACCESS:         66  HIT:         33  MISS:         33
BTB BRANCH_INDIRECT	ACCESS:          4  HIT:          0  MISS:          4
BTB BRANCH_CONDITIONAL	ACCESS:   37026441  HIT:   37026352  MISS:         89
BTB BRANCH_DIRECT_CALL	ACCESS:         28  HIT:         10  MISS:         18
BTB BRANCH_INDIRECT_CALL	ACCESS:          5  HIT:          1  MISS:          4
BTB BRANCH_RETURN	ACCESS:         33  HIT:          9  MISS:         24
BTB BRANCH_OTHER ACCESS:          0  HIT:          0  MISS:          0

L2C TOTAL     ACCESS:   34701277  HIT:    9105809  MISS:   25595468  HIT %:    26.2406  MISS %:    73.7594   MPKI: 127.977
L2C Test counter:          0
L2C LOAD      ACCESS:   34445056  HIT:    8922180  MISS:   25522876  HIT %:    25.9026  MISS %:    74.0974   MPKI: 127.614
L2C DATA LOAD MPKI: 127.614
L2C INSTRUCTION LOAD MPKI: 0.000115
L2C RFO       ACCESS:      65559  HIT:        120  MISS:      65439  HIT %:   0.183041  MISS %:     99.817   MPKI: 0.327195
L2C WRITEBACK ACCESS:     149850  HIT:     149845  MISS:          5  HIT %:    99.9967  MISS %: 0.00333667   MPKI: 2.5e-05
L2C LOAD TRANSLATION ACCESS:      40812  HIT:      33664  MISS:       7148  HIT %:    82.4855  MISS %:    17.5145   MPKI: 0.03574
L2C PREFETCH  REQUESTED:          0  ISSUED:          0  USEFUL:          0  USELESS:          0
L2C USEFUL LOAD PREFETCHES:          0 PREFETCH ISSUED TO LOWER LEVEL:          0  ACCURACY: -nan
L2C TIMELY PREFETCHES:          0 LATE PREFETCHES: 0 DROPPED PREFETCHES: 0
L2C COMMIT LATE PREFETCHES: 0 MISSED OPPORTUNITY: 0 LATE IN PQ: 0 UNCOVERED: 0
L2C COMMIT LATE MSHR PREFETCHES: 0
L2C MPKI TOTAL: 127.614 MSHR LATE: 0 PQ LATE: 0 COMMIT LATE: 0 MISSED OPPORTUNITY: 0 UNCOVERED: 0
L2C PREFETCHES SAME FILL-ORIGIN LEVEL: 0 DIFFERENT FILL-ORIGIN LEVEL: 0
L2C AVERAGE MISS LATENCY: 110.67 cycles
L2C AVERAGE MISS LATENCY LOAD: 110.552 cycles
L2C AVERAGE MISS LATENCY PREFETCH: -nan cycles
L2C AVERAGE MSHR OCCUPANCY: 0.176618
L2C MSHR FULL: 0
L2C RQ	ACCESS:   34551427	FORWARD:          0	MERGED:          0	TO_CACHE:   34551427
L2C WQ	ACCESS:     149850	FORWARD:          0	MERGED:          0	TO_CACHE:     149850

L2C Instructions Evicting Data 23
L2C Translations Evicting Data 7145
L2C Data Evicting Data 25581131
L2C Instructions Evicting Instructions 0
L2C Translations Evicting Instructions 1
L2C Data Evicting Instructions 22
L2C Instructions Evicting Translations 0
L2C Translations Evicting Translations 2
L2C Data Evicting Translations 7139
L2C Dense regions hint from L2: 0
55fe46b79510: 1
14cb10b653c3: 1
14cb10b653cc: 1
14cb10c3c254: 1
14cb10b6286b: 1
14cb10b6a31f: 1
14cb10b653bc: 1
14cb10b655e5: 1
14cb10c3c247: 1
14cb10bbb143: 1
14cb10b5d9b9: 1
14cb10b696e4: 1
14cb10b2b040: 1
14cb10b67103: 1
14cb10b6a350: 1
55fe46b7b02d: 1
14cb10b68cdd: 1
14cb10c3c26f: 1
55fe46b7b03f: 1
14cb10b65530: 1
14cb10b95951: 1
14cb10b2b230: 1
14cb10b67ef2: 1
14cb10b670db: 1
14cb10b6b3b8: 1
14cb10b691c6: 1
14cb10b68cd6: 1
14cb10bc5578: 1
14cb10b6567e: 1
14cb10b66461: 1
14cb10b6567a: 1
14cb10b67ee7: 1
14cb10b6b760: 1
14cb10b6b1c8: 1
14cb10b5d3c0: 1
14cb10b5d396: 1
14cb10b6a6f2: 1
14cb10b5d340: 1
14cb10b5d93a: 1
14cb10b5d944: 1
14cb10b6a682: 1
14cb10bbb646: 1
14cb10b6b3c4: 1
14cb10b6a4ee: 1
14cb10b2b100: 1
14cb10b6a66c: 1
14cb10b6a443: 1
14cb10b696d6: 1
14cb10c3a0b0: 1
14cb10b6a400: 1
55fe46b7afee: 1
14cb10b6a3df: 1
14cb10b691d1: 1
14cb10c3c24b: 1
14cb10c3c240: 1
14cb10b6af1c: 1
14cb10c3c230: 1
14cb10c3c264: 1
14cb10b6af41: 1
14cb10b69d70: 1
55fe46b7afe0: 1
55fe46b7b09e: 2
14cb10b6a4f2: 5
55fe46b7b075: 16
55fe46b7b093: 17
55fe46b7b050: 255
55fe46b7b00d: 65536
55fe46b7b07b: 70620
55fe46b7b000: 131073
55fe46b7b054: 140731
55fe46b7b060: 2107877
55fe46b7b06a: 23006683
PSCL5 TOTAL     ACCESS:      40775  HIT:      40775  MISS:          0  HIT %:        100  MISS %:          0   MPKI: 0
PSCL5 Test counter:          0
PSCL5 LOAD TRANSLATION ACCESS:      40775  HIT:      40775  MISS:          0  HIT %:        100  MISS %:          0   MPKI: 0
PSCL5 PREFETCH  REQUESTED:          0  ISSUED:          0  USEFUL:          0  USELESS:          0
PSCL5 USEFUL LOAD PREFETCHES:          0 PREFETCH ISSUED TO LOWER LEVEL:          0  ACCURACY: -nan
PSCL5 TIMELY PREFETCHES:          0 LATE PREFETCHES: 0 DROPPED PREFETCHES: 0
PSCL5 COMMIT LATE PREFETCHES: 0 MISSED OPPORTUNITY: 0 LATE IN PQ: 0 UNCOVERED: 0
PSCL5 COMMIT LATE MSHR PREFETCHES: 0
PSCL5 MPKI TOTAL: 0 MSHR LATE: 0 PQ LATE: 0 COMMIT LATE: 0 MISSED OPPORTUNITY: 0 UNCOVERED: 0
PSCL5 PREFETCHES SAME FILL-ORIGIN LEVEL: 0 DIFFERENT FILL-ORIGIN LEVEL: 0

PSCL4 TOTAL     ACCESS:      40775  HIT:      40775  MISS:          0  HIT %:        100  MISS %:          0   MPKI: 0
PSCL4 Test counter:          0
PSCL4 LOAD TRANSLATION ACCESS:      40775  HIT:      40775  MISS:          0  HIT %:        100  MISS %:          0   MPKI: 0
PSCL4 PREFETCH  REQUESTED:          0  ISSUED:          0  USEFUL:          0  USELESS:          0
PSCL4 USEFUL LOAD PREFETCHES:          0 PREFETCH ISSUED TO LOWER LEVEL:          0  ACCURACY: -nan
PSCL4 TIMELY PREFETCHES:          0 LATE PREFETCHES: 0 DROPPED PREFETCHES: 0
PSCL4 COMMIT LATE PREFETCHES: 0 MISSED OPPORTUNITY: 0 LATE IN PQ: 0 UNCOVERED: 0
PSCL4 COMMIT LATE MSHR PREFETCHES: 0
PSCL4 MPKI TOTAL: 0 MSHR LATE: 0 PQ LATE: 0 COMMIT LATE: 0 MISSED OPPORTUNITY: 0 UNCOVERED: 0
PSCL4 PREFETCHES SAME FILL-ORIGIN LEVEL: 0 DIFFERENT FILL-ORIGIN LEVEL: 0

PSCL3 TOTAL     ACCESS:      40775  HIT:      40775  MISS:          0  HIT %:        100  MISS %:          0   MPKI: 0
PSCL3 Test counter:          0
PSCL3 LOAD TRANSLATION ACCESS:      40775  HIT:      40775  MISS:          0  HIT %:        100  MISS %:          0   MPKI: 0
PSCL3 PREFETCH  REQUESTED:          0  ISSUED:          0  USEFUL:          0  USELESS:          0
PSCL3 USEFUL LOAD PREFETCHES:          0 PREFETCH ISSUED TO LOWER LEVEL:          0  ACCURACY: -nan
PSCL3 TIMELY PREFETCHES:          0 LATE PREFETCHES: 0 DROPPED PREFETCHES: 0
PSCL3 COMMIT LATE PREFETCHES: 0 MISSED OPPORTUNITY: 0 LATE IN PQ: 0 UNCOVERED: 0
PSCL3 COMMIT LATE MSHR PREFETCHES: 0
PSCL3 MPKI TOTAL: 0 MSHR LATE: 0 PQ LATE: 0 COMMIT LATE: 0 MISSED OPPORTUNITY: 0 UNCOVERED: 0
PSCL3 PREFETCHES SAME FILL-ORIGIN LEVEL: 0 DIFFERENT FILL-ORIGIN LEVEL: 0

PSCL2 TOTAL     ACCESS:      40775  HIT:      40691  MISS:         84  HIT %:     99.794  MISS %:   0.206009   MPKI: 0.00042
PSCL2 Test counter:          0
PSCL2 LOAD TRANSLATION ACCESS:      40775  HIT:      40691  MISS:         84  HIT %:     99.794  MISS %:   0.206009   MPKI: 0.00042
PSCL2 PREFETCH  REQUESTED:          0  ISSUED:          0  USEFUL:          0  USELESS:          0
PSCL2 USEFUL LOAD PREFETCHES:          0 PREFETCH ISSUED TO LOWER LEVEL:          0  ACCURACY: -nan
PSCL2 TIMELY PREFETCHES:          0 LATE PREFETCHES: 0 DROPPED PREFETCHES: 0
PSCL2 COMMIT LATE PREFETCHES: 0 MISSED OPPORTUNITY: 0 LATE IN PQ: 0 UNCOVERED: 0
PSCL2 COMMIT LATE MSHR PREFETCHES: 0
PSCL2 MPKI TOTAL: 0 MSHR LATE: 0 PQ LATE: 0 COMMIT LATE: 0 MISSED OPPORTUNITY: 0 UNCOVERED: 0
PSCL2 PREFETCHES SAME FILL-ORIGIN LEVEL: 0 DIFFERENT FILL-ORIGIN LEVEL: 0

LLC TOTAL     ACCESS:   25731748  HIT:   12831733  MISS:   12900015  HIT %:    49.8673  MISS %:    50.1327   MPKI: 64.5001
LLC Test counter:          0
LLC LOAD      ACCESS:   25522876  HIT:   12692190  MISS:   12830686  HIT %:    49.7287  MISS %:    50.2713   MPKI: 64.1534
LLC RFO       ACCESS:      65439  HIT:       1465  MISS:      63974  HIT %:    2.23873  MISS %:    97.7613   MPKI: 0.31987
LLC WRITEBACK ACCESS:     136285  HIT:     136258  MISS:         27  HIT %:    99.9802  MISS %:  0.0198114   MPKI: 0.000135
LLC LOAD TRANSLATION ACCESS:       7148  HIT:       1820  MISS:       5328  HIT %:    25.4617  MISS %:    74.5383   MPKI: 0.02664
LLC PREFETCH  REQUESTED:          0  ISSUED:          0  USEFUL:          0  USELESS:          0
LLC USEFUL LOAD PREFETCHES:          0 PREFETCH ISSUED TO LOWER LEVEL:          0  ACCURACY: -nan
LLC TIMELY PREFETCHES:          0 LATE PREFETCHES: 0 DROPPED PREFETCHES: 0
LLC COMMIT LATE PREFETCHES: 0 MISSED OPPORTUNITY: 0 LATE IN PQ: 0 UNCOVERED: 0
LLC COMMIT LATE MSHR PREFETCHES: 0
LLC MPKI TOTAL: 64.1534 MSHR LATE: 0 PQ LATE: 0 COMMIT LATE: 0 MISSED OPPORTUNITY: 0 UNCOVERED: 0
LLC PREFETCHES SAME FILL-ORIGIN LEVEL: 0 DIFFERENT FILL-ORIGIN LEVEL: 0
LLC AVERAGE MISS LATENCY: 160.017 cycles
LLC AVERAGE MISS LATENCY LOAD: 160.19 cycles
LLC AVERAGE MISS LATENCY PREFETCH: -nan cycles
LLC AVERAGE MSHR OCCUPANCY: 0.153154
LLC MSHR FULL: 0
LLC RQ	ACCESS:   25595463	FORWARD:          0	MERGED:          0	TO_CACHE:   25595463
LLC WQ	ACCESS:     136285	FORWARD:          0	MERGED:          0	TO_CACHE:     136285

LLC Dense regions hint to LLC: 0
14cb10c3c26f: 1
14cb10b653c3: 1
14cb10b6286b: 1
14cb10b6a31f: 1
14cb10b655e5: 1
14cb10b653bc: 1
14cb10c3a0b0: 1
14cb10b67103: 1
14cb10b6a350: 1
14cb10bbb143: 1
14cb10b68cdd: 1
14cb10c3c264: 1
14cb10c3c247: 1
55fe46b79510: 1
55fe46b7b02d: 1
14cb10b696e4: 1
14cb10b2b040: 1
14cb10b5d9b9: 1
55fe46b7b03f: 1
14cb10b65530: 1
14cb10b95951: 1
14cb10b2b230: 1
14cb10b67ef2: 1
14cb10b670db: 1
14cb10b6b3b8: 1
14cb10b68cd6: 1
14cb10b691c6: 1
14cb10bc5578: 1
14cb10b6567e: 1
14cb10b66461: 1
14cb10b6567a: 1
14cb10b67ee7: 1
14cb10b6b760: 1
14cb10c3c254: 1
55fe46b7afe0: 1
14cb10b69d70: 1
14cb10b6af41: 1
14cb10b6b1c8: 1
14cb10b696d6: 1
14cb10b6b3c4: 1
14cb10b5d3c0: 1
14cb10b5d396: 1
14cb10b6a6f2: 1
14cb10b5d340: 1
14cb10b5d93a: 1
14cb10b5d944: 1
14cb10b6a682: 1
14cb10bbb646: 1
14cb10b6a4ee: 1
14cb10b6af1c: 1
14cb10c3c24b: 1
14cb10c3c240: 1
14cb10b653cc: 1
14cb10b691d1: 1
14cb10b6a3df: 1
14cb10b2b100: 1
55fe46b7afee: 1
14cb10b6a400: 1
14cb10b6a443: 1
14cb10b6a66c: 1
14cb10c3c230: 1
14cb10b6a4f2: 5
55fe46b7b050: 6
55fe46b7b075: 13
55fe46b7b093: 16
55fe46b7b00d: 65536
55fe46b7b07b: 70375
55fe46b7b000: 131073
55fe46b7b054: 140731
55fe46b7b060: 2107877
55fe46b7b06a: 10314993

RAW hits: 20
Loads Generated: 77353336
Loads sent to L1D: 77353315
Stores Generated: 3300603
Stores sent to L1D: 3300603
Major fault: 0 Minor fault: 34900
Allocated PAGES: 34900
Total Load insts: 95642888
Total Non-spec loads: 44690150
Percentage of speculative loads: 53.2739
L1D response latency: 96.9314 cycles
Load retirement latency: 230.596 cycles


DRAM Statistics
 CHANNEL 0
 RQ ROW_BUFFER_HIT:    1549491  ROW_BUFFER_MISS:   11350497
 DBUS_CONGESTED:        354
 WQ ROW_BUFFER_HIT:      80584  ROW_BUFFER_MISS:      55487  FULL:          0

 AVG_CONGESTED_CYCLE: 3
 All warmup complete: 2
Channel 0 Bank busy for read cycles: 0
Channel 0 Bank busy for write cycles: 0
Channel 0
Rank 0
0banks busy for read cycles: 1949032662
0banks busy for write cycles: 73725
1banks busy for read cycles: 1463677957
1banks busy for write cycles: 15895826
2banks busy for read cycles: 132035738
2banks busy for write cycles: 1653385
3banks busy for read cycles: 17095729
3banks busy for write cycles: 880346
4banks busy for read cycles: 249109
4banks busy for write cycles: 432282
5banks busy for read cycles: 3577
5banks busy for write cycles: 528799
6banks busy for read cycles: 0
6banks busy for write cycles: 180533
7banks busy for read cycles: 0
7banks busy for write cycles: 380741
8banks busy for read cycles: 0
8banks busy for write cycles: 378976

CPU 0 Branch Prediction Accuracy: 96.9582% MPKI: 5.63138 Average ROB Occupancy at Mispredict: 135.69
Branch types
NOT_BRANCH: 162973200 81.4866%
BRANCH_DIRECT_JUMP: 66 3.3e-05%
BRANCH_INDIRECT: 4 2e-06%
BRANCH_CONDITIONAL: 37026665 18.5133%
BRANCH_DIRECT_CALL: 28 1.4e-05%
BRANCH_INDIRECT_CALL: 5 2.5e-06%
BRANCH_RETURN: 33 1.65e-05%
BRANCH_OTHER: 0 0%

DRAM PAGES: 1048576
Allocated PAGES: 34900
