
*** ChampSim Multicore Out-of-Order Simulator ***

Warmup Instructions: 50000000
Simulation Instructions: 200000000
Number of CPUs: 1
LLC sets: 2048
LLC ways: 16
Secure Berti: OFF
Berti: OFF
Berti Fill: OFF
On commit prefetching: OFF
L2 LLC Bypass speculative loads: OFF
Off-chip DRAM Size: 4096 MB Channels: 1 Width: 64-bit Data Rate: 6400 MT/s
CPU 0 runs /home/sumon/secure_berti/Berti_Baseline/../../traces/gap/sssp-3.trace.gz
.gz
BTB has LRU replacement policy
ITLB has LRU replacement policy
DTLB has LRU replacement policy
STLB has LRU replacement policy
L1I has LRU replacement policy
L1D has LRU replacement policy
L2C has LRU replacement policy
LLC has LRU replacement policy
Heartbeat CPU 0 instructions: 10000002 cycles: 3093485 heartbeat IPC: 3.2326 cumulative IPC: 3.2326 (Simulation time: 0 hr 0 min 17 sec) 
Heartbeat CPU 0 instructions: 20000001 cycles: 6157873 heartbeat IPC: 3.26329 cumulative IPC: 3.24787 (Simulation time: 0 hr 0 min 35 sec) 
Heartbeat CPU 0 instructions: 30000002 cycles: 9246600 heartbeat IPC: 3.23758 cumulative IPC: 3.24444 (Simulation time: 0 hr 0 min 53 sec) 
Heartbeat CPU 0 instructions: 40000001 cycles: 12334570 heartbeat IPC: 3.23837 cumulative IPC: 3.24292 (Simulation time: 0 hr 1 min 11 sec) 
Heartbeat CPU 0 instructions: 50000000 cycles: 15432164 heartbeat IPC: 3.22831 cumulative IPC: 3.23999 (Simulation time: 0 hr 1 min 28 sec) 

Warmup complete CPU 0 instructions: 50000004 cycles: 15432165 (Simulation time: 0 hr 1 min 28 sec) 

Heartbeat CPU 0 instructions: 60000001 cycles: 51622854 heartbeat IPC: 0.276314 cumulative IPC: 0.276314 (Simulation time: 0 hr 1 min 57 sec) 
Heartbeat CPU 0 instructions: 70000000 cycles: 86627433 heartbeat IPC: 0.285677 cumulative IPC: 0.280917 (Simulation time: 0 hr 2 min 27 sec) 
Heartbeat CPU 0 instructions: 80000000 cycles: 120873210 heartbeat IPC: 0.292007 cumulative IPC: 0.284519 (Simulation time: 0 hr 2 min 57 sec) 
Heartbeat CPU 0 instructions: 90000002 cycles: 154759891 heartbeat IPC: 0.295101 cumulative IPC: 0.287093 (Simulation time: 0 hr 3 min 28 sec) 
Heartbeat CPU 0 instructions: 100000000 cycles: 187704453 heartbeat IPC: 0.30354 cumulative IPC: 0.290238 (Simulation time: 0 hr 3 min 58 sec) 
Heartbeat CPU 0 instructions: 110000000 cycles: 220603132 heartbeat IPC: 0.303964 cumulative IPC: 0.292439 (Simulation time: 0 hr 4 min 28 sec) 
Heartbeat CPU 0 instructions: 120000000 cycles: 252854146 heartbeat IPC: 0.310068 cumulative IPC: 0.294834 (Simulation time: 0 hr 5 min 0 sec) 
Heartbeat CPU 0 instructions: 130000002 cycles: 284886278 heartbeat IPC: 0.312187 cumulative IPC: 0.296897 (Simulation time: 0 hr 5 min 34 sec) 
Heartbeat CPU 0 instructions: 140000000 cycles: 316611839 heartbeat IPC: 0.315203 cumulative IPC: 0.298825 (Simulation time: 0 hr 6 min 7 sec) 
Heartbeat CPU 0 instructions: 150000000 cycles: 347866037 heartbeat IPC: 0.319957 cumulative IPC: 0.300812 (Simulation time: 0 hr 6 min 41 sec) 
Heartbeat CPU 0 instructions: 160000001 cycles: 378999343 heartbeat IPC: 0.321199 cumulative IPC: 0.302558 (Simulation time: 0 hr 7 min 16 sec) 
Heartbeat CPU 0 instructions: 170000003 cycles: 410037203 heartbeat IPC: 0.322187 cumulative IPC: 0.304102 (Simulation time: 0 hr 7 min 51 sec) 
Heartbeat CPU 0 instructions: 180000003 cycles: 440759533 heartbeat IPC: 0.325496 cumulative IPC: 0.305647 (Simulation time: 0 hr 8 min 30 sec) 
Heartbeat CPU 0 instructions: 190000001 cycles: 471550709 heartbeat IPC: 0.324768 cumulative IPC: 0.306938 (Simulation time: 0 hr 9 min 12 sec) 
Heartbeat CPU 0 instructions: 200000002 cycles: 502070712 heartbeat IPC: 0.327654 cumulative IPC: 0.308237 (Simulation time: 0 hr 10 min 6 sec) 
Heartbeat CPU 0 instructions: 210000003 cycles: 532529427 heartbeat IPC: 0.328313 cumulative IPC: 0.30942 (Simulation time: 0 hr 11 min 22 sec) 
Heartbeat CPU 0 instructions: 220000000 cycles: 562851590 heartbeat IPC: 0.329792 cumulative IPC: 0.310548 (Simulation time: 0 hr 12 min 15 sec) 
Heartbeat CPU 0 instructions: 230000002 cycles: 592957090 heartbeat IPC: 0.332165 cumulative IPC: 0.311675 (Simulation time: 0 hr 12 min 56 sec) 
Heartbeat CPU 0 instructions: 240000000 cycles: 623385210 heartbeat IPC: 0.328643 cumulative IPC: 0.312524 (Simulation time: 0 hr 13 min 37 sec) 
Heartbeat CPU 0 instructions: 250000002 cycles: 653793553 heartbeat IPC: 0.328857 cumulative IPC: 0.313302 (Simulation time: 0 hr 14 min 19 sec) 
Finished CPU 0 instructions: 200000002 cycles: 638361389 cumulative IPC: 0.313302 (Simulation time: 0 hr 14 min 19 sec) 

ChampSim completed all CPUs

Region of Interest Statistics

CPU 0 cumulative IPC: 0.313302 instructions: 200000002 cycles: 638361389
ITLB TOTAL     ACCESS:   24920543  HIT:   24920543  MISS:          0  HIT %:        100  MISS %:          0   MPKI: 0
ITLB Test counter:          0
ITLB LOAD TRANSLATION ACCESS:   24920543  HIT:   24920543  MISS:          0  HIT %:        100  MISS %:          0   MPKI: 0
ITLB PREFETCH  REQUESTED:          0  ISSUED:          0  USEFUL:          0  USELESS:          0
ITLB USEFUL LOAD PREFETCHES:          0 PREFETCH ISSUED TO LOWER LEVEL:          0  ACCURACY: -nan
ITLB TIMELY PREFETCHES:          0 LATE PREFETCHES: 0 DROPPED PREFETCHES: 0
ITLB COMMIT LATE PREFETCHES: 0 MISSED OPPORTUNITY: 0 LATE IN PQ: 0 UNCOVERED: 0
ITLB COMMIT LATE MSHR PREFETCHES: 0
ITLB MPKI TOTAL: 0 MSHR LATE: 0 PQ LATE: 0 COMMIT LATE: 0 MISSED OPPORTUNITY: 0 UNCOVERED: 0
ITLB PREFETCHES SAME FILL-ORIGIN LEVEL: 0 DIFFERENT FILL-ORIGIN LEVEL: 0
ITLB AVERAGE MISS LATENCY: -nan cycles
ITLB AVERAGE MISS LATENCY LOAD: -nan cycles
ITLB AVERAGE MISS LATENCY PREFETCH: -nan cycles
ITLB AVERAGE MSHR OCCUPANCY: 0
ITLB MSHR FULL: 0
ITLB RQ	ACCESS:   25583174	FORWARD:          0	MERGED:     662632	TO_CACHE:   24920542

DTLB TOTAL     ACCESS:   43347022  HIT:   38802820  MISS:    4544202  HIT %:    89.5167  MISS %:    10.4833   MPKI: 22.721
DTLB Test counter:          0
DTLB LOAD TRANSLATION ACCESS:   43347022  HIT:   38802820  MISS:    4544202  HIT %:    89.5167  MISS %:    10.4833   MPKI: 22.721
DTLB PREFETCH  REQUESTED:          0  ISSUED:          0  USEFUL:          0  USELESS:          0
DTLB USEFUL LOAD PREFETCHES:          0 PREFETCH ISSUED TO LOWER LEVEL:          0  ACCURACY: -nan
DTLB TIMELY PREFETCHES:          0 LATE PREFETCHES: 0 DROPPED PREFETCHES: 0
DTLB COMMIT LATE PREFETCHES: 0 MISSED OPPORTUNITY: 0 LATE IN PQ: 0 UNCOVERED: 0
DTLB COMMIT LATE MSHR PREFETCHES: 0
DTLB MPKI TOTAL: 0 MSHR LATE: 0 PQ LATE: 0 COMMIT LATE: 0 MISSED OPPORTUNITY: 0 UNCOVERED: 0
DTLB PREFETCHES SAME FILL-ORIGIN LEVEL: 0 DIFFERENT FILL-ORIGIN LEVEL: 0
DTLB AVERAGE MISS LATENCY: 11.7296 cycles
DTLB AVERAGE MISS LATENCY LOAD: -nan cycles
DTLB AVERAGE MISS LATENCY PREFETCH: -nan cycles
DTLB AVERAGE MSHR OCCUPANCY: 0.193787
DTLB MSHR FULL: 3.68046e-07
DTLB RQ	ACCESS:   50084120	FORWARD:          0	MERGED:    6611307	TO_CACHE:   43472813

STLB TOTAL     ACCESS:    4544202  HIT:    4486657  MISS:      57545  HIT %:    98.7337  MISS %:    1.26634   MPKI: 0.287725
STLB Test counter:          0
STLB LOAD TRANSLATION ACCESS:    4544202  HIT:    4486657  MISS:      57545  HIT %:    98.7337  MISS %:    1.26634   MPKI: 0.287725
STLB PREFETCH  REQUESTED:          0  ISSUED:          0  USEFUL:          0  USELESS:          0
STLB USEFUL LOAD PREFETCHES:          0 PREFETCH ISSUED TO LOWER LEVEL:          0  ACCURACY: -nan
STLB TIMELY PREFETCHES:          0 LATE PREFETCHES: 0 DROPPED PREFETCHES: 0
STLB COMMIT LATE PREFETCHES: 0 MISSED OPPORTUNITY: 0 LATE IN PQ: 0 UNCOVERED: 0
STLB COMMIT LATE MSHR PREFETCHES: 0
STLB MPKI TOTAL: 0 MSHR LATE: 0 PQ LATE: 0 COMMIT LATE: 0 MISSED OPPORTUNITY: 0 UNCOVERED: 0
STLB PREFETCHES SAME FILL-ORIGIN LEVEL: 0 DIFFERENT FILL-ORIGIN LEVEL: 0
STLB AVERAGE MISS LATENCY: 187.145 cycles
STLB AVERAGE MISS LATENCY LOAD: -nan cycles
STLB AVERAGE MISS LATENCY PREFETCH: -nan cycles
STLB AVERAGE MSHR OCCUPANCY: 0.00389683
STLB MSHR FULL: 0
STLB RQ	ACCESS:    4544202	FORWARD:          0	MERGED:          0	TO_CACHE:    4544202

STLB Hit, L1D data hit: 0
STLB Hit, L2C data hit: 0
STLB Hit, LLC data hit: 0
STLB Hit, LLC data miss: 0
STLB STLB hints to L2: 0
L1D TOTAL     ACCESS:   45315859  HIT:   34474643  MISS:   10841216  HIT %:    76.0763  MISS %:    23.9237   MPKI: 54.2061
L1D Test counter:          0
L1D LOAD      ACCESS:   43282730  HIT:   32907728  MISS:   14972169  HIT %:    76.0297  MISS %:    23.9703   MPKI: 51.875
L1D RFO       ACCESS:    2033129  HIT:    1566915  MISS:     466214  HIT %:    77.0691  MISS %:    22.9309   MPKI: 2.33107
L1D PREFETCH  REQUESTED:          0  ISSUED:          0  USEFUL:          0  USELESS:          0
L1D USEFUL LOAD PREFETCHES:          0 PREFETCH ISSUED TO LOWER LEVEL:          0  ACCURACY: -nan
L1D TIMELY PREFETCHES:          0 LATE PREFETCHES: 0 DROPPED PREFETCHES: 0
L1D COMMIT LATE PREFETCHES: 0 MISSED OPPORTUNITY: 0 LATE IN PQ: 0 UNCOVERED: 0
L1D COMMIT LATE MSHR PREFETCHES: 0
L1D MPKI TOTAL: 74.8608 MSHR LATE: 0 PQ LATE: 0 COMMIT LATE: 0 MISSED OPPORTUNITY: 0 UNCOVERED: 0
L1D PREFETCHES SAME FILL-ORIGIN LEVEL: 0 DIFFERENT FILL-ORIGIN LEVEL: 0
L1D AVERAGE MISS LATENCY: 100.69 cycles
L1D AVERAGE MISS LATENCY LOAD: 102.179 cycles
L1D AVERAGE MISS LATENCY PREFETCH: -nan cycles
L1D AVERAGE MSHR OCCUPANCY: 1.80189
L1D MSHR FULL: 0.0183294
L1D RQ	ACCESS:   76739790	FORWARD:          0	MERGED:   28855458	TO_CACHE:   47879896
L1D WQ	ACCESS:    2204915	FORWARD:       4436	MERGED:        691	TO_CACHE:    2204224

L1D UNIQUE REGIONS ACCESSED: 0
L1D REGIONS CONFLICTS: 0
L1D Cross Page Prefetch Requests: 0
L1D Same Page Prefetch Requests: 0
L1D ROI Sum of L1D PQ occupancy: 0
L1D PREFETCHES PUSHED FROM L2C: 0
559889cb14af: 1
559889cb11c5: 1
14e493a8657e: 1
559889caf710: 1
14e493a5ba06: 1
14e493a62a82: 1
14e493a62a4b: 1
14e493a865d4: 1
14e493a5b9a5: 1
14e493a62a58: 1
559889cb15c5: 1
14e493a5b9fc: 1
14e493a62a7c: 1
559889cb1485: 1
14e493a5b9de: 1
14e493a5ba25: 1
14e493a5b965: 1
14e493a5b9f4: 1
14e493a8658f: 1
559889cb11de: 1
559889cb148c: 1
7ffeb778ad75: 1
14e493a5b97e: 1
14e493a5b99b: 1
14e493a5b93c: 1
14e493a86477: 2
14e493a866c3: 2
559889cb132a: 3
14e493a865c8: 3
14e493a63457: 3
14e493a865c5: 3
14e493a5f913: 3
14e493a6345d: 3
14e493a6339a: 4
14e493a5ff2b: 4
14e493a60252: 4
14e493a62d67: 5
559889cb1568: 5
14e493a6024c: 6
14e493a86650: 7
14e493a633a4: 7
14e493a6344d: 7
14e493a62ccc: 9
14e493a86646: 9
14e493a6338c: 9
14e493a62d3b: 10
14e493a60135: 11
14e493a8664b: 12
14e493a62e41: 14
14e493a6021e: 14
14e493a5f795: 15
14e493a62cf9: 15
14e493a6015a: 16
14e493a6013f: 17
559889cb1585: 17
14e493a60106: 17
14e493a5fe6c: 17
14e493a5f62d: 18
14e493a6012d: 18
14e493a5ff46: 19
14e493a5ff19: 19
559889cb14d3: 19
14e493a600ec: 20
14e493a621f4: 20
14e493a6220e: 20
14e493a62207: 20
14e493a6331c: 21
14e493a62a12: 23
14e493a5feb2: 24
559889cb1317: 26
14e493a86641: 27
14e493a5febb: 28
14e493a5f896: 30
14e493a8663e: 30
14e493a5f867: 31
14e493a86672: 32
14e493a62d4d: 34
14e493a62cde: 36
14e493a62d43: 36
14e493a6010a: 38
14e493a5fe97: 41
14e493a5fc11: 43
14e493a62cd4: 44
14e493a8674a: 45
14e493a62d7f: 45
559889cb132f: 46
14e493a62a09: 46
14e493a6299f: 46
14e493a629a6: 46
559889cb1327: 46
559889cb1539: 46
14e493a62971: 46
14e493a62cb6: 47
14e493a60174: 50
14e493a62c95: 52
14e493a62c45: 52
14e493a62c61: 52
14e493a62c4f: 52
14e493a62a27: 53
14e493a62c88: 54
14e493a866c7: 54
14e493a866cb: 55
14e493a866cf: 57
14e493a5f5a7: 61
14e493a600e6: 63
14e493a5fc15: 67
14e493a5fef2: 72
14e493a60123: 75
14e493a5ff10: 86
14e493a6298d: 93
14e493a62c6b: 95
14e493a600f0: 109
14e493a5fbf5: 121
14e493a5f8f4: 137
14e493a8668a: 154
14e493a5f60d: 166
14e493a866d3: 178
14e493a5f8e8: 182
14e493a5f65b: 200
14e493a5ff73: 205
14e493a866f6: 219
14e493a866c4: 222
14e493a5f58f: 229
14e493a5f574: 232
14e493a5f323: 232
14e493a620e3: 233
14e493a62d1a: 234
14e493a5f4f8: 236
14e493a62e55: 239
14e493a5f5f4: 246
14e493a620c1: 252
14e493a620cf: 254
14e493a620af: 255
14e493a62978: 256
559889caf720: 257
14e493a62961: 257
559889caf580: 257
14e493a62076: 258
14e4943fc3f0: 258
14e493a6207d: 260
14e4943fbb30: 260
559889caf5b0: 260
14e493a5f581: 267
14e493a8667f: 474
14e493a86686: 1230
559889cb11eb: 1532
14e493a86682: 2936
559889cb11e3: 3345
559889cb11b8: 3818
559889cb11d5: 11776
559889cb11e7: 11852
14e493a86706: 12332
14e493a8670e: 12542
14e493a8670a: 13253
14e493a86703: 14730
559889cb12dc: 28279
559889cb12d8: 220769
559889cb1200: 1164960
559889cb1226: 8861432
L1I TOTAL     ACCESS:   25583174  HIT:   25583174  MISS:          0  HIT %:        100  MISS %:          0   MPKI: 0
L1I Test counter:          0
L1I LOAD      ACCESS:   25583174  HIT:   25583174  MISS:          0  HIT %:        100  MISS %:          0   MPKI: 0
L1I PREFETCH  REQUESTED:          0  ISSUED:          0  USEFUL:          0  USELESS:          0
L1I USEFUL LOAD PREFETCHES:          0 PREFETCH ISSUED TO LOWER LEVEL:          0  ACCURACY: -nan
L1I TIMELY PREFETCHES:          0 LATE PREFETCHES: 0 DROPPED PREFETCHES: 0
L1I COMMIT LATE PREFETCHES: 0 MISSED OPPORTUNITY: 0 LATE IN PQ: 0 UNCOVERED: 0
L1I COMMIT LATE MSHR PREFETCHES: 0
L1I MPKI TOTAL: 0 MSHR LATE: 0 PQ LATE: 0 COMMIT LATE: 0 MISSED OPPORTUNITY: 0 UNCOVERED: 0
L1I PREFETCHES SAME FILL-ORIGIN LEVEL: 0 DIFFERENT FILL-ORIGIN LEVEL: 0
L1I AVERAGE MISS LATENCY: -nan cycles
L1I AVERAGE MISS LATENCY LOAD: -nan cycles
L1I AVERAGE MISS LATENCY PREFETCH: -nan cycles
L1I AVERAGE MSHR OCCUPANCY: 0
L1I MSHR FULL: 0
L1I RQ	ACCESS:   39326346	FORWARD:          0	MERGED:   13743172	TO_CACHE:   25583174

BTB TOTAL     ACCESS:   29073098  HIT:   29072935  MISS:        163  HIT %:    99.9994  MISS %: 0.000560656   MPKI: 0.000815
BTB Test counter:          0
BTB BRANCH_DIRECT_JUMP	ACCESS:    9228470  HIT:    9228426  MISS:         44
BTB BRANCH_INDIRECT	ACCESS:          0  HIT:          0  MISS:          0
BTB BRANCH_CONDITIONAL	ACCESS:   19842030  HIT:   19841939  MISS:         91
BTB BRANCH_DIRECT_CALL	ACCESS:       1299  HIT:       1288  MISS:         11
BTB BRANCH_INDIRECT_CALL	ACCESS:          0  HIT:          0  MISS:          0
BTB BRANCH_RETURN	ACCESS:       1299  HIT:       1282  MISS:         17
BTB BRANCH_OTHER ACCESS:          0  HIT:          0  MISS:          0

L2C TOTAL     ACCESS:   12250321  HIT:    3984202  MISS:    8266119  HIT %:    32.5232  MISS %:    67.4768   MPKI: 41.3306
L2C Test counter:          0
L2C LOAD      ACCESS:   10375000  HIT:    2321188  MISS:    8053813  HIT %:    22.3729  MISS %:    77.6271   MPKI: 40.2691
L2C DATA LOAD MPKI: 40.2691
L2C INSTRUCTION LOAD MPKI: 0
L2C RFO       ACCESS:     466214  HIT:     299144  MISS:     167070  HIT %:    64.1645  MISS %:    35.8355   MPKI: 0.83535
L2C WRITEBACK ACCESS:    1339738  HIT:    1338122  MISS:       1616  HIT %:    99.8794  MISS %:   0.120621   MPKI: 0.00808
L2C LOAD TRANSLATION ACCESS:      69369  HIT:      25748  MISS:      43621  HIT %:    37.1174  MISS %:    62.8826   MPKI: 0.218105
L2C PREFETCH  REQUESTED:          0  ISSUED:          0  USEFUL:          0  USELESS:          0
L2C USEFUL LOAD PREFETCHES:          0 PREFETCH ISSUED TO LOWER LEVEL:          0  ACCURACY: -nan
L2C TIMELY PREFETCHES:          0 LATE PREFETCHES: 0 DROPPED PREFETCHES: 0
L2C COMMIT LATE PREFETCHES: 0 MISSED OPPORTUNITY: 0 LATE IN PQ: 0 UNCOVERED: 0
L2C COMMIT LATE MSHR PREFETCHES: 0
L2C MPKI TOTAL: 40.2691 MSHR LATE: 0 PQ LATE: 0 COMMIT LATE: 0 MISSED OPPORTUNITY: 0 UNCOVERED: 0
L2C PREFETCHES SAME FILL-ORIGIN LEVEL: 0 DIFFERENT FILL-ORIGIN LEVEL: 0
L2C AVERAGE MISS LATENCY: 112.758 cycles
L2C AVERAGE MISS LATENCY LOAD: 111.848 cycles
L2C AVERAGE MISS LATENCY PREFETCH: -nan cycles
L2C AVERAGE MSHR OCCUPANCY: 1.60504
L2C MSHR FULL: 0
L2C RQ	ACCESS:   10910586	FORWARD:          0	MERGED:          0	TO_CACHE:   10910584
L2C WQ	ACCESS:    1339738	FORWARD:          2	MERGED:          0	TO_CACHE:    1339738

L2C Instructions Evicting Data 0
L2C Translations Evicting Data 43400
L2C Data Evicting Data 8177566
L2C Instructions Evicting Instructions 0
L2C Translations Evicting Instructions 0
L2C Data Evicting Instructions 0
L2C Instructions Evicting Translations 0
L2C Translations Evicting Translations 221
L2C Data Evicting Translations 43316
L2C Dense regions hint from L2: 0
14e493a5b965: 1
14e493a5b9fc: 1
559889caf710: 1
14e493a5b9de: 1
14e493a5ba06: 1
14e493a5b99b: 1
559889cb1539: 1
559889cb15c5: 1
14e493a62a58: 1
559889cb11c5: 1
14e493a62a82: 1
14e493a86477: 1
14e493a5b9a5: 1
14e493a5b9f4: 1
14e493a5b97e: 1
14e493a5ba25: 1
14e493a8657e: 1
14e493a8658f: 1
14e493a5b93c: 1
14e493a865d4: 1
7ffeb778ad75: 1
14e493a63457: 3
14e493a5f913: 3
14e493a5ff2b: 3
14e493a865c8: 3
14e493a6345d: 3
14e493a865c5: 3
14e493a6339a: 4
14e493a62c45: 4
14e493a60252: 4
14e493a62c61: 5
14e493a62a27: 5
14e493a62d67: 5
14e493a62c4f: 5
14e493a62c95: 5
14e493a6024c: 6
14e493a62d7f: 7
14e493a86650: 7
14e493a633a4: 7
14e493a6344d: 7
559889cb132f: 7
14e493a62c88: 8
14e493a6338c: 8
14e493a86646: 8
559889cb14d3: 9
14e493a62ccc: 9
14e493a60135: 9
14e493a62d3b: 10
14e493a86641: 10
14e493a8664b: 11
14e493a6021e: 13
14e493a62e41: 13
14e493a62cf9: 15
14e493a5f795: 15
14e493a6015a: 15
14e493a60106: 16
14e493a6013f: 16
14e493a5fe6c: 16
14e493a5f62d: 17
14e493a6012d: 18
14e493a600ec: 19
14e493a5ff19: 19
14e493a5ff46: 19
14e493a6220e: 19
14e493a62207: 20
14e493a621f4: 20
14e493a6331c: 21
14e493a62a12: 22
14e493a5feb2: 23
14e493a5febb: 26
14e493a86672: 27
14e493a5f867: 27
14e493a5f896: 27
14e493a8663e: 30
14e493a62d4d: 33
14e493a62cde: 34
14e493a6010a: 34
14e493a62d43: 35
14e493a5fc11: 39
14e493a5fe97: 39
14e493a62cd4: 42
14e493a5f5a7: 44
559889cb1327: 45
14e493a62cb6: 46
14e493a60174: 48
14e493a866c7: 54
14e493a866cb: 55
14e493a866cf: 57
14e493a600e6: 58
14e493a866d3: 58
14e493a6298d: 59
14e493a5fc15: 61
14e493a62c6b: 62
14e493a5fef2: 67
14e493a60123: 75
14e493a5ff10: 84
14e493a600f0: 104
14e493a5fbf5: 115
14e493a5f8f4: 125
559889cb11e3: 148
14e493a8668a: 154
14e493a5f60d: 157
14e493a866f6: 164
14e493a5f8e8: 165
14e493a5f4f8: 165
14e493a5ff73: 166
14e493a5f574: 170
14e493a5f58f: 174
14e493a5f65b: 174
14e493a620cf: 184
14e493a620e3: 186
559889caf720: 186
14e493a5f323: 186
14e493a62e55: 186
14e493a62978: 190
14e493a620af: 191
14e493a6207d: 192
14e493a62961: 193
14e4943fbb30: 193
14e493a620c1: 198
559889caf5b0: 200
559889caf580: 204
14e493a62076: 204
14e4943fc3f0: 209
14e493a5f581: 211
14e493a5f5f4: 219
14e493a866c4: 221
14e493a62d1a: 230
14e493a8667f: 474
559889cb11b8: 954
14e493a86686: 1230
559889cb11eb: 1532
559889cb12dc: 2687
14e493a86682: 2932
559889cb11d5: 9287
559889cb11e7: 11851
14e493a86706: 12309
14e493a8670e: 12526
14e493a8670a: 13233
14e493a86703: 14728
559889cb12d8: 20140
559889cb1200: 1164914
559889cb1226: 6777450
PSCL5 TOTAL     ACCESS:      57545  HIT:      57545  MISS:          0  HIT %:        100  MISS %:          0   MPKI: 0
PSCL5 Test counter:          0
PSCL5 LOAD TRANSLATION ACCESS:      57545  HIT:      57545  MISS:          0  HIT %:        100  MISS %:          0   MPKI: 0
PSCL5 PREFETCH  REQUESTED:          0  ISSUED:          0  USEFUL:          0  USELESS:          0
PSCL5 USEFUL LOAD PREFETCHES:          0 PREFETCH ISSUED TO LOWER LEVEL:          0  ACCURACY: -nan
PSCL5 TIMELY PREFETCHES:          0 LATE PREFETCHES: 0 DROPPED PREFETCHES: 0
PSCL5 COMMIT LATE PREFETCHES: 0 MISSED OPPORTUNITY: 0 LATE IN PQ: 0 UNCOVERED: 0
PSCL5 COMMIT LATE MSHR PREFETCHES: 0
PSCL5 MPKI TOTAL: 0 MSHR LATE: 0 PQ LATE: 0 COMMIT LATE: 0 MISSED OPPORTUNITY: 0 UNCOVERED: 0
PSCL5 PREFETCHES SAME FILL-ORIGIN LEVEL: 0 DIFFERENT FILL-ORIGIN LEVEL: 0

PSCL4 TOTAL     ACCESS:      57545  HIT:      57545  MISS:          0  HIT %:        100  MISS %:          0   MPKI: 0
PSCL4 Test counter:          0
PSCL4 LOAD TRANSLATION ACCESS:      57545  HIT:      57545  MISS:          0  HIT %:        100  MISS %:          0   MPKI: 0
PSCL4 PREFETCH  REQUESTED:          0  ISSUED:          0  USEFUL:          0  USELESS:          0
PSCL4 USEFUL LOAD PREFETCHES:          0 PREFETCH ISSUED TO LOWER LEVEL:          0  ACCURACY: -nan
PSCL4 TIMELY PREFETCHES:          0 LATE PREFETCHES: 0 DROPPED PREFETCHES: 0
PSCL4 COMMIT LATE PREFETCHES: 0 MISSED OPPORTUNITY: 0 LATE IN PQ: 0 UNCOVERED: 0
PSCL4 COMMIT LATE MSHR PREFETCHES: 0
PSCL4 MPKI TOTAL: 0 MSHR LATE: 0 PQ LATE: 0 COMMIT LATE: 0 MISSED OPPORTUNITY: 0 UNCOVERED: 0
PSCL4 PREFETCHES SAME FILL-ORIGIN LEVEL: 0 DIFFERENT FILL-ORIGIN LEVEL: 0

PSCL3 TOTAL     ACCESS:      57545  HIT:      57545  MISS:          0  HIT %:        100  MISS %:          0   MPKI: 0
PSCL3 Test counter:          0
PSCL3 LOAD TRANSLATION ACCESS:      57545  HIT:      57545  MISS:          0  HIT %:        100  MISS %:          0   MPKI: 0
PSCL3 PREFETCH  REQUESTED:          0  ISSUED:          0  USEFUL:          0  USELESS:          0
PSCL3 USEFUL LOAD PREFETCHES:          0 PREFETCH ISSUED TO LOWER LEVEL:          0  ACCURACY: -nan
PSCL3 TIMELY PREFETCHES:          0 LATE PREFETCHES: 0 DROPPED PREFETCHES: 0
PSCL3 COMMIT LATE PREFETCHES: 0 MISSED OPPORTUNITY: 0 LATE IN PQ: 0 UNCOVERED: 0
PSCL3 COMMIT LATE MSHR PREFETCHES: 0
PSCL3 MPKI TOTAL: 0 MSHR LATE: 0 PQ LATE: 0 COMMIT LATE: 0 MISSED OPPORTUNITY: 0 UNCOVERED: 0
PSCL3 PREFETCHES SAME FILL-ORIGIN LEVEL: 0 DIFFERENT FILL-ORIGIN LEVEL: 0

PSCL2 TOTAL     ACCESS:      57545  HIT:      45719  MISS:      11826  HIT %:    79.4491  MISS %:    20.5509   MPKI: 0.05913
PSCL2 Test counter:          0
PSCL2 LOAD TRANSLATION ACCESS:      57545  HIT:      45719  MISS:      11826  HIT %:    79.4491  MISS %:    20.5509   MPKI: 0.05913
PSCL2 PREFETCH  REQUESTED:          0  ISSUED:          0  USEFUL:          0  USELESS:          0
PSCL2 USEFUL LOAD PREFETCHES:          0 PREFETCH ISSUED TO LOWER LEVEL:          0  ACCURACY: -nan
PSCL2 TIMELY PREFETCHES:          0 LATE PREFETCHES: 0 DROPPED PREFETCHES: 0
PSCL2 COMMIT LATE PREFETCHES: 0 MISSED OPPORTUNITY: 0 LATE IN PQ: 0 UNCOVERED: 0
PSCL2 COMMIT LATE MSHR PREFETCHES: 0
PSCL2 MPKI TOTAL: 0 MSHR LATE: 0 PQ LATE: 0 COMMIT LATE: 0 MISSED OPPORTUNITY: 0 UNCOVERED: 0
PSCL2 PREFETCHES SAME FILL-ORIGIN LEVEL: 0 DIFFERENT FILL-ORIGIN LEVEL: 0

LLC TOTAL     ACCESS:    9095230  HIT:    4734256  MISS:    4360974  HIT %:    52.0521  MISS %:    47.9479   MPKI: 21.8049
LLC Test counter:          0
LLC LOAD      ACCESS:    8053812  HIT:    3829317  MISS:    4224496  HIT %:    47.5466  MISS %:    52.4534   MPKI: 21.1225
LLC RFO       ACCESS:     167070  HIT:      67994  MISS:      99076  HIT %:    40.6979  MISS %:    59.3021   MPKI: 0.49538
LLC WRITEBACK ACCESS:     830727  HIT:     825207  MISS:       5520  HIT %:    99.3355  MISS %:   0.664478   MPKI: 0.0276
LLC LOAD TRANSLATION ACCESS:      43621  HIT:      11738  MISS:      31883  HIT %:    26.9091  MISS %:    73.0909   MPKI: 0.159415
LLC PREFETCH  REQUESTED:          0  ISSUED:          0  USEFUL:          0  USELESS:          0
LLC USEFUL LOAD PREFETCHES:          0 PREFETCH ISSUED TO LOWER LEVEL:          0  ACCURACY: -nan
LLC TIMELY PREFETCHES:          0 LATE PREFETCHES: 0 DROPPED PREFETCHES: 0
LLC COMMIT LATE PREFETCHES: 0 MISSED OPPORTUNITY: 0 LATE IN PQ: 0 UNCOVERED: 0
LLC COMMIT LATE MSHR PREFETCHES: 0
LLC MPKI TOTAL: 21.1225 MSHR LATE: 0 PQ LATE: 0 COMMIT LATE: 0 MISSED OPPORTUNITY: 0 UNCOVERED: 0
LLC PREFETCHES SAME FILL-ORIGIN LEVEL: 0 DIFFERENT FILL-ORIGIN LEVEL: 0
LLC AVERAGE MISS LATENCY: 156.754 cycles
LLC AVERAGE MISS LATENCY LOAD: 155.924 cycles
LLC AVERAGE MISS LATENCY PREFETCH: -nan cycles
LLC AVERAGE MSHR OCCUPANCY: 0.963513
LLC MSHR FULL: 0
LLC RQ	ACCESS:    8264504	FORWARD:          0	MERGED:          0	TO_CACHE:    8264504
LLC WQ	ACCESS:     830727	FORWARD:          0	MERGED:          0	TO_CACHE:     830727

LLC Dense regions hint to LLC: 0
14e493a5b965: 1
14e493a865d4: 1
14e493a5b99b: 1
14e493a5ba06: 1
559889cb15c5: 1
14e493a5b9fc: 1
14e493a62d7f: 1
14e493a5b9de: 1
14e493a8657e: 1
14e493a62a27: 1
14e493a5f913: 1
559889cb11c5: 1
14e493a5b9a5: 1
14e493a86477: 1
7ffeb778ad75: 1
14e493a5b97e: 1
14e493a5b9f4: 1
14e493a5b93c: 1
14e493a5ba25: 1
14e493a62c88: 1
14e493a62c45: 1
14e493a8658f: 1
14e493a62c4f: 1
14e493a62c61: 1
14e493a86641: 2
559889cb132f: 2
559889cb14d3: 2
14e493a865c5: 3
14e493a63457: 3
14e493a865c8: 3
14e493a5ff2b: 3
14e493a6345d: 3
14e493a6339a: 4
14e493a60252: 4
14e493a633a4: 5
14e493a86646: 5
14e493a6024c: 5
14e493a62d67: 5
14e493a6344d: 5
14e493a86650: 7
14e493a8664b: 7
14e493a60135: 8
14e493a6338c: 8
14e493a5fe6c: 9
14e493a62d3b: 9
14e493a6021e: 9
14e493a62ccc: 9
14e493a5ff19: 10
14e493a86672: 10
14e493a60106: 10
14e493a62e41: 11
14e493a600ec: 11
14e493a5f5a7: 11
14e493a5f896: 12
14e493a5f62d: 12
14e493a6012d: 12
14e493a5ff46: 12
14e493a62cf9: 13
14e493a6013f: 13
14e493a5f795: 13
14e493a6015a: 14
14e493a62a12: 14
14e493a5febb: 15
14e493a5f867: 15
14e493a6220e: 16
14e493a866d3: 17
14e493a621f4: 19
14e493a6331c: 19
14e493a62207: 20
14e493a5feb2: 21
14e493a6010a: 23
14e493a62cde: 29
14e493a8663e: 30
14e493a62d4d: 30
14e493a62d43: 30
14e493a5fc11: 31
14e493a5fe97: 35
559889cb1327: 38
14e493a62cd4: 39
14e493a62cb6: 40
14e493a60174: 41
14e493a600e6: 42
14e493a5ff73: 45
14e493a5fef2: 46
14e493a5fc15: 48
559889caf720: 49
14e493a5f58f: 50
14e493a62978: 51
14e493a5f4f8: 51
14e493a5f574: 51
14e493a62076: 53
14e493a620e3: 53
14e493a866c7: 54
14e493a866f6: 54
14e493a866cb: 55
14e4943fc3f0: 56
14e493a62c6b: 57
14e493a6298d: 57
14e493a866cf: 57
14e493a5f323: 59
14e493a62e55: 59
14e493a5ff10: 62
14e493a620af: 64
559889caf5b0: 66
14e493a5f65b: 66
559889cb11e3: 66
14e493a60123: 67
14e493a62961: 67
14e493a620cf: 68
14e493a5f581: 69
14e4943fbb30: 71
14e493a600f0: 71
14e493a6207d: 71
14e493a620c1: 72
14e493a5f8f4: 79
559889caf580: 88
14e493a5fbf5: 94
14e493a5f8e8: 95
14e493a5f60d: 124
559889cb12dc: 131
14e493a5f5f4: 135
14e493a8668a: 154
14e493a866c4: 216
14e493a62d1a: 220
14e493a8667f: 474
559889cb11b8: 756
559889cb12d8: 1099
14e493a86686: 1230
559889cb11eb: 1532
14e493a86682: 2919
559889cb11d5: 4521
559889cb11e7: 11844
14e493a86706: 12256
14e493a8670e: 12493
14e493a8670a: 13188
14e493a86703: 14682
559889cb1200: 1164910
559889cb1226: 2978498

RAW hits: 66446
Loads Generated: 76806237
Loads sent to L1D: 76739790
Stores Generated: 2204913
Stores sent to L1D: 2204915
Major fault: 0 Minor fault: 36550
Allocated PAGES: 36550
Total Load insts: 93562008
Total Non-spec loads: 6651999
Percentage of speculative loads: 92.8903
L1D response latency: 102.179 cycles
Load retirement latency: 167.632 cycles


DRAM Statistics
 CHANNEL 0
 RQ ROW_BUFFER_HIT:    1027471  ROW_BUFFER_MISS:    3327961
 DBUS_CONGESTED:       1415
 WQ ROW_BUFFER_HIT:     207251  ROW_BUFFER_MISS:     496994  FULL:          0

 AVG_CONGESTED_CYCLE: 4
 All warmup complete: 2
Channel 0 Bank busy for read cycles: 0
Channel 0 Bank busy for write cycles: 0
Channel 0
Rank 0
0banks busy for read cycles: 151972270
0banks busy for write cycles: 395488
1banks busy for read cycles: 238620636
1banks busy for write cycles: 77585905
2banks busy for read cycles: 93894767
2banks busy for write cycles: 27517600
3banks busy for read cycles: 28383555
3banks busy for write cycles: 8325694
4banks busy for read cycles: 5877707
4banks busy for write cycles: 2183655
5banks busy for read cycles: 830701
5banks busy for write cycles: 542357
6banks busy for read cycles: 280909
6banks busy for write cycles: 138685
7banks busy for read cycles: 310994
7banks busy for write cycles: 106320
8banks busy for read cycles: 971756
8banks busy for write cycles: 422391

CPU 0 Branch Prediction Accuracy: 97.7925% MPKI: 3.28398 Average ROB Occupancy at Mispredict: 169.278
Branch types
NOT_BRANCH: 170247338 85.1237%
BRANCH_DIRECT_JUMP: 9228470 4.61423%
BRANCH_INDIRECT: 0 0%
BRANCH_CONDITIONAL: 20521452 10.2607%
BRANCH_DIRECT_CALL: 1299 0.0006495%
BRANCH_INDIRECT_CALL: 0 0%
BRANCH_RETURN: 1299 0.0006495%
BRANCH_OTHER: 0 0%

DRAM PAGES: 1048576
Allocated PAGES: 36550
