
*** ChampSim Multicore Out-of-Order Simulator ***

Warmup Instructions: 50000000
Simulation Instructions: 200000000
Number of CPUs: 1
LLC sets: 2048
LLC ways: 16
L0D sets: 16
L0D ways: 2
ROB size: 352
LQ size: 128
SQ size: 72
Secure Berti: OFF
Berti: OFF
Berti Fill: OFF
On commit prefetching: OFF
Hit-based filter: OFF
Time-guarding: ON
Free-slotting: ON
Leap-frogging: ON
Train prefetcher on L0D bypass: OFF
No translation penalty for prefetchers: OFF
Prefetch to L0D only: OFF
Prefetch to L1D only: OFF
Clean evictions: ON
Commit loads: ON
Commit write: ON
Fill commit loads to L2C, LLC: ON
DRAM IO FREQUENCY: 6400
ROB SIZE: 352
Off-chip DRAM Size: 4096 MB Channels: 1 Width: 64-bit Data Rate: 6400 MT/s
CPU 0 runs /home/sumon/secure_berti/GhostMinion/../../traces/gap/cc-13.trace.gz
.gz
BTB has LRU replacement policy
ITLB has LRU replacement policy
DTLB has LRU replacement policy
STLB has LRU replacement policy
L1I has LRU replacement policy
L0D has LRU replacement policy
CPU 0 L1D IP-based stride prefetcher
L1D has LRU replacement policy
L2C has LRU replacement policy
LLC has LRU replacement policy
Heartbeat CPU 0 instructions: 10000003 cycles: 3234575 heartbeat IPC: 3.0916 cumulative IPC: 3.0916 (Simulation time: 0 hr 0 min 44 sec) 
Heartbeat CPU 0 instructions: 20000000 cycles: 6474722 heartbeat IPC: 3.08628 cumulative IPC: 3.08894 (Simulation time: 0 hr 1 min 34 sec) 
Heartbeat CPU 0 instructions: 30000003 cycles: 9716604 heartbeat IPC: 3.08463 cumulative IPC: 3.0875 (Simulation time: 0 hr 2 min 42 sec) 
Heartbeat CPU 0 instructions: 40000002 cycles: 12956429 heartbeat IPC: 3.08659 cumulative IPC: 3.08727 (Simulation time: 0 hr 3 min 46 sec) 
Heartbeat CPU 0 instructions: 50000001 cycles: 16202209 heartbeat IPC: 3.08092 cumulative IPC: 3.086 (Simulation time: 0 hr 4 min 54 sec) 

Warmup complete CPU 0 instructions: 50000001 cycles: 16202209 (Simulation time: 0 hr 4 min 54 sec) 

Heartbeat CPU 0 instructions: 60000000 cycles: 62600066 heartbeat IPC: 0.215527 cumulative IPC: 0.215527 (Simulation time: 0 hr 6 min 30 sec) 
Heartbeat CPU 0 instructions: 70000000 cycles: 106970950 heartbeat IPC: 0.225373 cumulative IPC: 0.22034 (Simulation time: 0 hr 8 min 1 sec) 
Heartbeat CPU 0 instructions: 80000000 cycles: 151184127 heartbeat IPC: 0.226177 cumulative IPC: 0.222252 (Simulation time: 0 hr 9 min 33 sec) 
Heartbeat CPU 0 instructions: 90000000 cycles: 195965152 heartbeat IPC: 0.223309 cumulative IPC: 0.222515 (Simulation time: 0 hr 10 min 53 sec) 
Heartbeat CPU 0 instructions: 100000003 cycles: 239233102 heartbeat IPC: 0.231118 cumulative IPC: 0.224184 (Simulation time: 0 hr 11 min 53 sec) 
Heartbeat CPU 0 instructions: 110000000 cycles: 281896438 heartbeat IPC: 0.234393 cumulative IPC: 0.225823 (Simulation time: 0 hr 12 min 53 sec) 
Heartbeat CPU 0 instructions: 120000000 cycles: 324383441 heartbeat IPC: 0.235366 cumulative IPC: 0.227139 (Simulation time: 0 hr 13 min 55 sec) 
Heartbeat CPU 0 instructions: 130000000 cycles: 368570058 heartbeat IPC: 0.226313 cumulative IPC: 0.227035 (Simulation time: 0 hr 14 min 57 sec) 
Heartbeat CPU 0 instructions: 140000002 cycles: 412567154 heartbeat IPC: 0.227288 cumulative IPC: 0.227063 (Simulation time: 0 hr 15 min 58 sec) 
Heartbeat CPU 0 instructions: 150000000 cycles: 454015164 heartbeat IPC: 0.241266 cumulative IPC: 0.228408 (Simulation time: 0 hr 17 min 1 sec) 
Heartbeat CPU 0 instructions: 160000002 cycles: 496970710 heartbeat IPC: 0.232799 cumulative IPC: 0.2288 (Simulation time: 0 hr 18 min 3 sec) 
Heartbeat CPU 0 instructions: 170000000 cycles: 540182785 heartbeat IPC: 0.231417 cumulative IPC: 0.229016 (Simulation time: 0 hr 19 min 34 sec) 
Heartbeat CPU 0 instructions: 180000003 cycles: 583283504 heartbeat IPC: 0.232015 cumulative IPC: 0.229244 (Simulation time: 0 hr 21 min 5 sec) 
Heartbeat CPU 0 instructions: 190000001 cycles: 626128421 heartbeat IPC: 0.2334 cumulative IPC: 0.229536 (Simulation time: 0 hr 22 min 34 sec) 
Heartbeat CPU 0 instructions: 200000000 cycles: 669194977 heartbeat IPC: 0.232199 cumulative IPC: 0.229712 (Simulation time: 0 hr 23 min 57 sec) 
Heartbeat CPU 0 instructions: 210000000 cycles: 710882210 heartbeat IPC: 0.239882 cumulative IPC: 0.230322 (Simulation time: 0 hr 24 min 49 sec) 
Heartbeat CPU 0 instructions: 220000000 cycles: 754903859 heartbeat IPC: 0.227161 cumulative IPC: 0.230134 (Simulation time: 0 hr 25 min 38 sec) 
Heartbeat CPU 0 instructions: 230000000 cycles: 797030577 heartbeat IPC: 0.237379 cumulative IPC: 0.230524 (Simulation time: 0 hr 26 min 26 sec) 
Heartbeat CPU 0 instructions: 240000000 cycles: 840401347 heartbeat IPC: 0.23057 cumulative IPC: 0.230527 (Simulation time: 0 hr 27 min 13 sec) 
Heartbeat CPU 0 instructions: 250000000 cycles: 883214973 heartbeat IPC: 0.233571 cumulative IPC: 0.230677 (Simulation time: 0 hr 27 min 59 sec) 
Finished CPU 0 instructions: 200000003 cycles: 867012765 cumulative IPC: 0.230677 (Simulation time: 0 hr 27 min 59 sec) 
 Instruction ID: 250000047

ChampSim completed all CPUs

Region of Interest Statistics

CPU 0 cumulative IPC: 0.230677 instructions: 200000003 cycles: 867012765
ITLB SPEC fills:          0  NON-SPEC fills:          0
ITLB Test counter :          0
ITLB Leapfrog:          0
ITLB MSHR merge:          0
ITLB TOTAL     ACCESS:   31045738  HIT:   31045738  MISS:          0  HIT %:        100  MISS %:          0   MPKI: 0
ITLB LOAD TRANSLATION NON_SPEC    ACCESS:   31045738  HIT:   31045738  MISS:          0  HIT %:        100  MISS %:          0   MPKI: 0
ITLB PREFETCH  REQUESTED:          0  ISSUED:          0  USEFUL:          0  USELESS:          0
ITLB USEFUL LOAD PREFETCHES:          0 PREFETCH ISSUED TO LOWER LEVEL:          0  ACCURACY: -nan
ITLB TIMELY PREFETCHES:          0 LATE PREFETCHES: 0 DROPPED PREFETCHES: 0
ITLB COMMIT LATE PREFETCHES: 0 NORMAL LATE: 0 MISSED OPPORTUNITY: 0 UNCOVERED: 0
ITLB PREFETCHES SAME FILL-ORIGIN LEVEL: 0 DIFFERENT FILL-ORIGIN LEVEL: 0
ITLB AVERAGE MISS LATENCY: -nan cycles
ITLB AVERAGE MISS LATENCY LOAD: -nan cycles
ITLB AVERAGE MISS LATENCY PREFETCH: -nan cycles
ITLB AVERAGE MSHR OCCUPANCY: 0
ITLB MSHR FULL: 0
ITLB RQ	ACCESS:   31623979	FORWARD:          0	MERGED:     578242	TO_CACHE:   31045737

DTLB SPEC fills:          0  NON-SPEC fills:          0
DTLB Test counter :          0
DTLB Leapfrog:          0
DTLB MSHR merge:          0
DTLB TOTAL     ACCESS:   49249743  HIT:   39208729  MISS:   10041014  HIT %:     79.612  MISS %:     20.388   MPKI: 50.2051
DTLB LOAD TRANSLATION NON_SPEC    ACCESS:   49249743  HIT:   39208729  MISS:   10041014  HIT %:     79.612  MISS %:     20.388   MPKI: 50.2051
DTLB PREFETCH  REQUESTED:          0  ISSUED:          0  USEFUL:          0  USELESS:          0
DTLB USEFUL LOAD PREFETCHES:          0 PREFETCH ISSUED TO LOWER LEVEL:          0  ACCURACY: -nan
DTLB TIMELY PREFETCHES:          0 LATE PREFETCHES: 0 DROPPED PREFETCHES: 0
DTLB COMMIT LATE PREFETCHES: 0 NORMAL LATE: 0 MISSED OPPORTUNITY: 0 UNCOVERED: 0
DTLB PREFETCHES SAME FILL-ORIGIN LEVEL: 0 DIFFERENT FILL-ORIGIN LEVEL: 0
DTLB AVERAGE MISS LATENCY: 9.44017 cycles
DTLB AVERAGE MISS LATENCY LOAD: -nan cycles
DTLB AVERAGE MISS LATENCY PREFETCH: -nan cycles
DTLB AVERAGE MSHR OCCUPANCY: 0.322513
DTLB MSHR FULL: 0.00229946
DTLB RQ	ACCESS:   51128245	FORWARD:          0	MERGED:    1575304	TO_CACHE:   49552941

STLB SPEC fills:          0  NON-SPEC fills:          0
STLB Test counter :          0
STLB Leapfrog:          0
STLB MSHR merge:          0
STLB TOTAL     ACCESS:   11253753  HIT:   11238733  MISS:      15020  HIT %:    99.8665  MISS %:   0.133467   MPKI: 0.0751
STLB LOAD TRANSLATION NON_SPEC    ACCESS:   10041014  HIT:   10025994  MISS:      15020  HIT %:    99.8504  MISS %:   0.149586   MPKI: 0.0751
STLB TRANSLATION FROM L1D PREFETCHER NON_SPEC    ACCESS:    1212739  HIT:    1212739  MISS:          0  HIT %:        100  MISS %:          0   MPKI: 0
STLB PREFETCH  REQUESTED:          0  ISSUED:          0  USEFUL:          0  USELESS:          0
STLB USEFUL LOAD PREFETCHES:          0 PREFETCH ISSUED TO LOWER LEVEL:          0  ACCURACY: -nan
STLB TIMELY PREFETCHES:          0 LATE PREFETCHES: 0 DROPPED PREFETCHES: 0
STLB COMMIT LATE PREFETCHES: 0 NORMAL LATE: 0 MISSED OPPORTUNITY: 0 UNCOVERED: 0
STLB PREFETCHES SAME FILL-ORIGIN LEVEL: 0 DIFFERENT FILL-ORIGIN LEVEL: 0
STLB AVERAGE MISS LATENCY: 187.779 cycles
STLB AVERAGE MISS LATENCY LOAD: -nan cycles
STLB AVERAGE MISS LATENCY PREFETCH: -nan cycles
STLB AVERAGE MSHR OCCUPANCY: 0.00097914
STLB MSHR FULL: 0
STLB RQ	ACCESS:   13580666	FORWARD:          0	MERGED:    2326913	TO_CACHE:   11253753

STLB Hit, L1D data hit: 0
STLB Hit, L2C data hit: 0
STLB Hit, LLC data hit: 0
STLB Hit, LLC data miss: 0
STLB STLB hints to L2: 0
L0D SPEC fills:   24848714  NON-SPEC fills:          0
L0D TimeGuard Request with older TS:     538613 Restricted eviction:     197076 read:     542778
L0D Test counter :          0
L0D Leapfrog:          0
L0D MSHR merge:     720046
L0D TOTAL     ACCESS:   50161156  HIT:   13037361  MISS:   37123795  HIT %:     25.991  MISS %:     74.009   MPKI: 185.619
L0D LOAD      TOTAL       ACCESS:   50161156  HIT:   13037361  MISS:   37123795  HIT %:     25.991  MISS %:     74.009   MPKI: 185.619
L0D LOAD      NON_SPEC    ACCESS:   13098233  HIT:    1020228  MISS:   12078005  HIT %:    7.78905  MISS %:    92.2109   MPKI: 60.39
L0D LOAD      SPEC        ACCESS:   37062923  HIT:   12017133  MISS:   25045790  HIT %:    32.4236  MISS %:    67.5764   MPKI: 125.229
L0D PREFETCH  REQUESTED:          0  ISSUED:          0  USEFUL:          0  USELESS:          0
L0D USEFUL LOAD PREFETCHES:          0 PREFETCH ISSUED TO LOWER LEVEL:          0  ACCURACY: -nan
L0D TIMELY PREFETCHES:          0 LATE PREFETCHES: 0 DROPPED PREFETCHES: 0
L0D COMMIT LATE PREFETCHES: 0 NORMAL LATE: 0 MISSED OPPORTUNITY: 0 UNCOVERED: 37123795
L0D PREFETCHES SAME FILL-ORIGIN LEVEL: 0 DIFFERENT FILL-ORIGIN LEVEL: 0
L0D AVERAGE MISS LATENCY: 30.7044 cycles
L0D AVERAGE MISS LATENCY LOAD: 30.7044 cycles
L0D AVERAGE MISS LATENCY PREFETCH: -nan cycles
L0D AVERAGE MSHR OCCUPANCY: 1.67935
L0D MSHR FULL: 0.0274615
L0D RQ	ACCESS:   55706387	FORWARD:          0	MERGED:    4825187	TO_CACHE:   50881200
L0D WQ	ACCESS:     247045	FORWARD:          0	MERGED:          0	TO_CACHE:     247045

L1D SPEC fills:          0  NON-SPEC fills:    4106960
L1D Test counter :          0
L1D Leapfrog:          0
L1D MSHR merge:      18405
L1D TOTAL     ACCESS:   76582767  HIT:   50750986  MISS:   25831781  HIT %:    66.2695  MISS %:    33.7305   MPKI: 129.159
L1D LOAD      TOTAL       ACCESS:   37123375  HIT:   22829704  MISS:   14293671  HIT %:    61.4968  MISS %:    38.5032   MPKI: 71.4684
L1D LOAD      NON_SPEC    ACCESS:   12077617  HIT:    7970657  MISS:    4106960  HIT %:    65.9953  MISS %:    34.0047   MPKI: 20.5348
L1D LOAD      SPEC        ACCESS:   25045758  HIT:   14859047  MISS:   10186711  HIT %:    59.3276  MISS %:    40.6724   MPKI: 50.9336
L1D RFO       NON_SPEC    ACCESS:     246095  HIT:     246095  MISS:          0  HIT %:        100  MISS %:          0   MPKI: 0
L1D PREFETCH  NON_SPEC    ACCESS:    3416374  HIT:    2060162  MISS:    1356212  HIT %:    60.3026  MISS %:    39.6974   MPKI: 6.78106
L1D COMMIT LOAD NON_SPEC    ACCESS:   11601874  HIT:   11410444  MISS:     191430  HIT %:      98.35  MISS %:    1.64999   MPKI: 0.95715
L1D COMMIT WRITE NON_SPEC    ACCESS:   24195049  HIT:   14204581  MISS:    9990468  HIT %:    58.7086  MISS %:    41.2914   MPKI: 49.9523
L1D PREFETCH  REQUESTED:    3569771  ISSUED:    3569771  USEFUL:     994187  USELESS:     362023
L1D USEFUL LOAD PREFETCHES:     994187 PREFETCH ISSUED TO LOWER LEVEL:    1399775  ACCURACY: 71.0248
L1D TIMELY PREFETCHES:     994187 LATE PREFETCHES: 17986 DROPPED PREFETCHES: 0
L1D COMMIT LATE PREFETCHES: 0 NORMAL LATE: 17986 MISSED OPPORTUNITY: 0 UNCOVERED: 14275685
L1D PREFETCHES SAME FILL-ORIGIN LEVEL: 1374201 DIFFERENT FILL-ORIGIN LEVEL: 25574
L1D AVERAGE MISS LATENCY: 47.4694 cycles
L1D AVERAGE MISS LATENCY LOAD: 66.5756 cycles
L1D AVERAGE MISS LATENCY PREFETCH: 196.92 cycles
L1D AVERAGE MSHR OCCUPANCY: 1.33913
L1D MSHR FULL: 1.23136e-07
L1D RQ	ACCESS:   55121541	FORWARD:          0	MERGED:    4512399	TO_CACHE:   48726694
L1D WQ	ACCESS:   24663099	FORWARD:    1882448	MERGED:     221011	TO_CACHE:   24442088
L1D PQ	ACCESS:    3569771	FORWARD:          0	MERGED:      30119	TO_CACHE:    3539652

L1D UNIQUE REGIONS ACCESSED: 0
L1D REGIONS CONFLICTS: 0
L1D Cross Page Prefetch Requests: 0
L1D Same Page Prefetch Requests: 4396401
L1D ROI Sum of L1D PQ occupancy: 47340799
L1D PREFETCHES PUSHED FROM L2C: 0
L1I SPEC fills:          0  NON-SPEC fills:          0
L1I Test counter :          0
L1I Leapfrog:          0
L1I MSHR merge:          0
L1I TOTAL     ACCESS:   31623980  HIT:   31623980  MISS:          0  HIT %:        100  MISS %:          0   MPKI: 0
L1I LOAD      TOTAL       ACCESS:   31623980  HIT:   31623980  MISS:          0  HIT %:        100  MISS %:          0   MPKI: 0
L1I LOAD      NON_SPEC    ACCESS:   31623980  HIT:   31623980  MISS:          0  HIT %:        100  MISS %:          0   MPKI: 0
L1I PREFETCH  REQUESTED:          0  ISSUED:          0  USEFUL:          0  USELESS:          0
L1I USEFUL LOAD PREFETCHES:          0 PREFETCH ISSUED TO LOWER LEVEL:          0  ACCURACY: -nan
L1I TIMELY PREFETCHES:          0 LATE PREFETCHES: 0 DROPPED PREFETCHES: 0
L1I COMMIT LATE PREFETCHES: 0 NORMAL LATE: 0 MISSED OPPORTUNITY: 0 UNCOVERED: 0
L1I PREFETCHES SAME FILL-ORIGIN LEVEL: 0 DIFFERENT FILL-ORIGIN LEVEL: 0
L1I AVERAGE MISS LATENCY: -nan cycles
L1I AVERAGE MISS LATENCY LOAD: -nan cycles
L1I AVERAGE MISS LATENCY PREFETCH: -nan cycles
L1I AVERAGE MSHR OCCUPANCY: 0
L1I MSHR FULL: 0
L1I RQ	ACCESS:   56836555	FORWARD:          0	MERGED:   25212576	TO_CACHE:   31623979

BTB SPEC fills:          0  NON-SPEC fills:          0
BTB Test counter :          0
BTB Leapfrog:          0
BTB MSHR merge:          0
BTB TOTAL     ACCESS:   40650073  HIT:   40650068  MISS:          5  HIT %:        100  MISS %: 1.23001e-05   MPKI: 2.5e-05
BTB BRANCH_DIRECT_JUMP	ACCESS:          0  HIT:          0  MISS:          0
BTB BRANCH_INDIRECT	ACCESS:          0  HIT:          0  MISS:          0
BTB BRANCH_CONDITIONAL	ACCESS:   40650073  HIT:   40650068  MISS:          5
BTB BRANCH_DIRECT_CALL	ACCESS:          0  HIT:          0  MISS:          0
BTB BRANCH_INDIRECT_CALL	ACCESS:          0  HIT:          0  MISS:          0
BTB BRANCH_RETURN	ACCESS:          0  HIT:          0  MISS:          0
BTB BRANCH_OTHER ACCESS:          0  HIT:          0  MISS:          0

L2C SPEC fills:          0  NON-SPEC fills:    2656141
L2C Test counter :          0
L2C Leapfrog:          0
L2C MSHR merge:       1568
L2C TOTAL     ACCESS:   27130735  HIT:    9218794  MISS:   17911941  HIT %:    33.9792  MISS %:    66.0208   MPKI: 89.5597
L2C LOAD      TOTAL       ACCESS:   14275511  HIT:    4739424  MISS:    9536087  HIT %:    33.1997  MISS %:    66.8003   MPKI: 47.6804
L2C LOAD      NON_SPEC    ACCESS:    4105312  HIT:    1449171  MISS:    2656141  HIT %:    35.2999  MISS %:    64.7001   MPKI: 13.2807
L2C LOAD      SPEC        ACCESS:   10170199  HIT:    3290253  MISS:    6879946  HIT %:    32.3519  MISS %:    67.6481   MPKI: 34.3997
L2C PREFETCH  NON_SPEC    ACCESS:    1396927  HIT:      69579  MISS:    1327348  HIT %:    4.98086  MISS %:    95.0191   MPKI: 6.63674
L2C WRITEBACK NON_SPEC    ACCESS:      45242  HIT:      45242  MISS:          0  HIT %:        100  MISS %:          0   MPKI: 0
L2C CLEAN_EVICTION NON_SPEC    ACCESS:   11146663  HIT:    4210545  MISS:    6936118  HIT %:     37.774  MISS %:     62.226   MPKI: 34.6806
L2C COMMIT LOAD NON_SPEC    ACCESS:     191322  HIT:      83978  MISS:     107344  HIT %:    43.8935  MISS %:    56.1065   MPKI: 0.53672
L2C LOAD TRANSLATION NON_SPEC    ACCESS:      75070  HIT:      70026  MISS:       5044  HIT %:    93.2809  MISS %:    6.71906   MPKI: 0.02522
L2C PREFETCH  REQUESTED:          0  ISSUED:          0  USEFUL:      32749  USELESS:    1294586
L2C USEFUL LOAD PREFETCHES:      32749 PREFETCH ISSUED TO LOWER LEVEL:    1328916  ACCURACY: 2.46434
L2C TIMELY PREFETCHES:      32749 LATE PREFETCHES: 1568 DROPPED PREFETCHES: 0
L2C COMMIT LATE PREFETCHES: 0 NORMAL LATE: 1568 MISSED OPPORTUNITY: 0 UNCOVERED: 9534519
L2C PREFETCHES SAME FILL-ORIGIN LEVEL: 23826 DIFFERENT FILL-ORIGIN LEVEL: 0
L2C AVERAGE MISS LATENCY: 57.6153 cycles
L2C AVERAGE MISS LATENCY LOAD: 81.1458 cycles
L2C AVERAGE MISS LATENCY PREFETCH: 190.63 cycles
L2C AVERAGE MSHR OCCUPANCY: 1.5517
L2C MSHR FULL: 0
L2C RQ	ACCESS:   14542187	FORWARD:          0	MERGED:          0	TO_CACHE:   14541904
L2C WQ	ACCESS:   11191905	FORWARD:        287	MERGED:          0	TO_CACHE:   11191905
L2C PQ	ACCESS:    1399775	FORWARD:          0	MERGED:          0	TO_CACHE:    1399771

L2C Instructions Evicting Data 0
L2C Translations Evicting Data 5044
L2C Data Evicting Data 4088937
L2C Instructions Evicting Instructions 0
L2C Translations Evicting Instructions 0
L2C Data Evicting Instructions 0
L2C Instructions Evicting Translations 0
L2C Translations Evicting Translations 0
L2C Data Evicting Translations 1896
L2C Dense regions hint from L2: 0
PSCL5 SPEC fills:          0  NON-SPEC fills:          0
PSCL5 Test counter :          0
PSCL5 Leapfrog:          0
PSCL5 MSHR merge:          0
PSCL5 TOTAL     ACCESS:          0  HIT:          0  MISS:          0  HIT %:       -nan  MISS %:       -nan   MPKI: 0
PSCL5 PREFETCH  REQUESTED:          0  ISSUED:          0  USEFUL:          0  USELESS:          0
PSCL5 USEFUL LOAD PREFETCHES:          0 PREFETCH ISSUED TO LOWER LEVEL:          0  ACCURACY: -nan
PSCL5 TIMELY PREFETCHES:          0 LATE PREFETCHES: 0 DROPPED PREFETCHES: 0
PSCL5 COMMIT LATE PREFETCHES: 0 NORMAL LATE: 0 MISSED OPPORTUNITY: 0 UNCOVERED: 0
PSCL5 PREFETCHES SAME FILL-ORIGIN LEVEL: 0 DIFFERENT FILL-ORIGIN LEVEL: 0

PSCL4 SPEC fills:          0  NON-SPEC fills:          0
PSCL4 Test counter :          0
PSCL4 Leapfrog:          0
PSCL4 MSHR merge:          0
PSCL4 TOTAL     ACCESS:          0  HIT:          0  MISS:          0  HIT %:       -nan  MISS %:       -nan   MPKI: 0
PSCL4 PREFETCH  REQUESTED:          0  ISSUED:          0  USEFUL:          0  USELESS:          0
PSCL4 USEFUL LOAD PREFETCHES:          0 PREFETCH ISSUED TO LOWER LEVEL:          0  ACCURACY: -nan
PSCL4 TIMELY PREFETCHES:          0 LATE PREFETCHES: 0 DROPPED PREFETCHES: 0
PSCL4 COMMIT LATE PREFETCHES: 0 NORMAL LATE: 0 MISSED OPPORTUNITY: 0 UNCOVERED: 0
PSCL4 PREFETCHES SAME FILL-ORIGIN LEVEL: 0 DIFFERENT FILL-ORIGIN LEVEL: 0

PSCL3 SPEC fills:          0  NON-SPEC fills:          0
PSCL3 Test counter :          0
PSCL3 Leapfrog:          0
PSCL3 MSHR merge:          0
PSCL3 TOTAL     ACCESS:          0  HIT:          0  MISS:          0  HIT %:       -nan  MISS %:       -nan   MPKI: 0
PSCL3 PREFETCH  REQUESTED:          0  ISSUED:          0  USEFUL:          0  USELESS:          0
PSCL3 USEFUL LOAD PREFETCHES:          0 PREFETCH ISSUED TO LOWER LEVEL:          0  ACCURACY: -nan
PSCL3 TIMELY PREFETCHES:          0 LATE PREFETCHES: 0 DROPPED PREFETCHES: 0
PSCL3 COMMIT LATE PREFETCHES: 0 NORMAL LATE: 0 MISSED OPPORTUNITY: 0 UNCOVERED: 0
PSCL3 PREFETCHES SAME FILL-ORIGIN LEVEL: 0 DIFFERENT FILL-ORIGIN LEVEL: 0

PSCL2 SPEC fills:          0  NON-SPEC fills:          0
PSCL2 Test counter :          0
PSCL2 Leapfrog:          0
PSCL2 MSHR merge:          0
PSCL2 TOTAL     ACCESS:          0  HIT:          0  MISS:          0  HIT %:       -nan  MISS %:       -nan   MPKI: 0
PSCL2 PREFETCH  REQUESTED:          0  ISSUED:          0  USEFUL:          0  USELESS:          0
PSCL2 USEFUL LOAD PREFETCHES:          0 PREFETCH ISSUED TO LOWER LEVEL:          0  ACCURACY: -nan
PSCL2 TIMELY PREFETCHES:          0 LATE PREFETCHES: 0 DROPPED PREFETCHES: 0
PSCL2 COMMIT LATE PREFETCHES: 0 NORMAL LATE: 0 MISSED OPPORTUNITY: 0 UNCOVERED: 0
PSCL2 PREFETCHES SAME FILL-ORIGIN LEVEL: 0 DIFFERENT FILL-ORIGIN LEVEL: 0

LLC SPEC fills:          0  NON-SPEC fills:     938699
LLC Test counter :          0
LLC Leapfrog:          0
LLC MSHR merge:          0
LLC TOTAL     ACCESS:   19401863  HIT:   11870637  MISS:    7531226  HIT %:     61.183  MISS %:     38.817   MPKI: 37.6561
LLC LOAD      TOTAL       ACCESS:    9534465  HIT:    6109877  MISS:    3424588  HIT %:     64.082  MISS %:     35.918   MPKI: 17.1229
LLC LOAD      NON_SPEC    ACCESS:    2656106  HIT:    1717407  MISS:     938699  HIT %:    64.6588  MISS %:    35.3412   MPKI: 4.69349
LLC LOAD      SPEC        ACCESS:    6878359  HIT:    4392470  MISS:    2485889  HIT %:    63.8593  MISS %:    36.1407   MPKI: 12.4294
LLC PREFETCH  NON_SPEC    ACCESS:    1328914  HIT:     142015  MISS:    1186899  HIT %:    10.6865  MISS %:    89.3135   MPKI: 5.93449
LLC WRITEBACK NON_SPEC    ACCESS:      41746  HIT:      41737  MISS:          9  HIT %:    99.9784  MISS %:   0.021559   MPKI: 4.5e-05
LLC CLEAN_EVICTION NON_SPEC    ACCESS:    8384380  HIT:    5478160  MISS:    2906220  HIT %:    65.3377  MISS %:    34.6623   MPKI: 14.5311
LLC COMMIT LOAD NON_SPEC    ACCESS:     107314  HIT:      95731  MISS:      11583  HIT %:    89.2064  MISS %:    10.7936   MPKI: 0.057915
LLC LOAD TRANSLATION NON_SPEC    ACCESS:       5044  HIT:       3117  MISS:       1927  HIT %:    61.7962  MISS %:    38.2038   MPKI: 0.009635
LLC PREFETCH  REQUESTED:          0  ISSUED:          0  USEFUL:      58124  USELESS:    1128306
LLC USEFUL LOAD PREFETCHES:      58124 PREFETCH ISSUED TO LOWER LEVEL:    1186900  ACCURACY: 4.89713
LLC TIMELY PREFETCHES:      58124 LATE PREFETCHES: 0 DROPPED PREFETCHES: 0
LLC COMMIT LATE PREFETCHES: 0 NORMAL LATE: 0 MISSED OPPORTUNITY: 0 UNCOVERED: 3424588
LLC PREFETCHES SAME FILL-ORIGIN LEVEL: 0 DIFFERENT FILL-ORIGIN LEVEL: 0
LLC AVERAGE MISS LATENCY: 101.524 cycles
LLC AVERAGE MISS LATENCY LOAD: 160.415 cycles
LLC AVERAGE MISS LATENCY PREFETCH: 179.853 cycles
LLC AVERAGE MSHR OCCUPANCY: 0.921221
LLC MSHR FULL: 0
LLC RQ	ACCESS:    9646908	FORWARD:          0	MERGED:          0	TO_CACHE:    9646824
LLC WQ	ACCESS:    8426126	FORWARD:         86	MERGED:          0	TO_CACHE:    8426126
LLC PQ	ACCESS:    1328916	FORWARD:          0	MERGED:          0	TO_CACHE:    1328914

LLC Dense regions hint to LLC: 0

RAW hits: 26178
Loads Generated: 55732565
Loads sent to L1D: 55706387
Stores Generated: 247045
Stores sent to L1D: 247045
Major fault: 0 Minor fault: 19633
Allocated PAGES: 19633
Total Load insts: 68639302
Total Non-spec loads: 13632644
Percentage of speculative loads: 80.1387

LeapFrogging counter: 338643
Commit hits: 24416054 miss: 17997747
Commit hit %: 57.5663 miss %: 42.4337
Commits not translated: 0
Loads retired: 14293670
Stores retired: 247045
Cache fills: 14293671
L1D response latency: 66.5756 cycles
Load retirement latency: 141.305 cycles
OOO test counter: 0
Discarded buffer inserts: 24416054 hits: 1464 hit %: 0.00599605
Filter prediction accuracy: -nan
Speculative prefetch buffer size: 0
CPU 0 L1D PC-based stride prefetcher final stats
Degree: 3

DRAM Statistics
 CHANNEL 0
 RQ ROW_BUFFER_HIT:     414487  ROW_BUFFER_MISS:    4209890
 DBUS_CONGESTED:       1454
 WQ ROW_BUFFER_HIT:    1494621  ROW_BUFFER_MISS:    2770474  FULL:          0

 AVG_CONGESTED_CYCLE: 5
 All warmup complete: 2
Channel 0 Bank busy for read cycles: 0
Channel 0 Bank busy for write cycles: 0
Channel 0
Rank 0
0banks busy for read cycles: 85666435
0banks busy for write cycles: 814742
1banks busy for read cycles: 264263621
1banks busy for write cycles: 136319028
2banks busy for read cycles: 98260362
2banks busy for write cycles: 104742570
3banks busy for read cycles: 36342366
3banks busy for write cycles: 54968202
4banks busy for read cycles: 14015782
4banks busy for write cycles: 25275934
5banks busy for read cycles: 3473993
5banks busy for write cycles: 12764471
6banks busy for read cycles: 1016014
6banks busy for write cycles: 8345399
7banks busy for read cycles: 341982
7banks busy for write cycles: 8423418
8banks busy for read cycles: 116557
8banks busy for write cycles: 11861890

CPU 0 Branch Prediction Accuracy: 90.5062% MPKI: 19.3845 Average ROB Occupancy at Mispredict: 25.2735
Branch types
NOT_BRANCH: 159163481 79.5817%
BRANCH_DIRECT_JUMP: 0 0%
BRANCH_INDIRECT: 0 0%
BRANCH_CONDITIONAL: 40836226 20.4181%
BRANCH_DIRECT_CALL: 0 0%
BRANCH_INDIRECT_CALL: 0 0%
BRANCH_RETURN: 0 0%
BRANCH_OTHER: 0 0%

DRAM PAGES: 1048576
Allocated PAGES: 19633
