
*** ChampSim Multicore Out-of-Order Simulator ***

Warmup Instructions: 50000000
Simulation Instructions: 200000000
Number of CPUs: 1
LLC sets: 2048
LLC ways: 16
L0D sets: 16
L0D ways: 2
ROB size: 352
LQ size: 128
SQ size: 72
Secure Berti: OFF
Berti: OFF
Berti Fill: OFF
On commit prefetching: OFF
Hit-based filter: OFF
Time-guarding: ON
Free-slotting: ON
Leap-frogging: ON
Train prefetcher on L0D bypass: OFF
No translation penalty for prefetchers: OFF
Prefetch to L0D only: OFF
Prefetch to L1D only: OFF
Clean evictions: ON
Commit loads: ON
Commit write: ON
Fill commit loads to L2C, LLC: ON
DRAM IO FREQUENCY: 6400
ROB SIZE: 352
Off-chip DRAM Size: 4096 MB Channels: 1 Width: 64-bit Data Rate: 6400 MT/s
CPU 0 runs /home/sumon/secure_berti/GhostMinion/../../traces/gap/cc-6.trace.gz
.gz
BTB has LRU replacement policy
ITLB has LRU replacement policy
DTLB has LRU replacement policy
STLB has LRU replacement policy
L1I has LRU replacement policy
L0D has LRU replacement policy
CPU 0 L1D IP-based stride prefetcher
L1D has LRU replacement policy
L2C has LRU replacement policy
LLC has LRU replacement policy
Heartbeat CPU 0 instructions: 10000000 cycles: 3243597 heartbeat IPC: 3.083 cumulative IPC: 3.083 (Simulation time: 0 hr 0 min 45 sec) 
Heartbeat CPU 0 instructions: 20000002 cycles: 6496967 heartbeat IPC: 3.07374 cumulative IPC: 3.07836 (Simulation time: 0 hr 1 min 29 sec) 
Heartbeat CPU 0 instructions: 30000001 cycles: 9759967 heartbeat IPC: 3.06466 cumulative IPC: 3.07378 (Simulation time: 0 hr 2 min 14 sec) 
Heartbeat CPU 0 instructions: 40000000 cycles: 13025809 heartbeat IPC: 3.062 cumulative IPC: 3.07083 (Simulation time: 0 hr 2 min 59 sec) 
Heartbeat CPU 0 instructions: 50000003 cycles: 16295199 heartbeat IPC: 3.05868 cumulative IPC: 3.06839 (Simulation time: 0 hr 3 min 44 sec) 

Warmup complete CPU 0 instructions: 50000003 cycles: 16295199 (Simulation time: 0 hr 3 min 44 sec) 

Heartbeat CPU 0 instructions: 60000002 cycles: 64133917 heartbeat IPC: 0.209036 cumulative IPC: 0.209036 (Simulation time: 0 hr 5 min 10 sec) 
Heartbeat CPU 0 instructions: 70000003 cycles: 113769213 heartbeat IPC: 0.20147 cumulative IPC: 0.205183 (Simulation time: 0 hr 6 min 39 sec) 
Heartbeat CPU 0 instructions: 80000000 cycles: 164352659 heartbeat IPC: 0.197693 cumulative IPC: 0.202624 (Simulation time: 0 hr 8 min 14 sec) 
Heartbeat CPU 0 instructions: 90000002 cycles: 212841253 heartbeat IPC: 0.206234 cumulative IPC: 0.203515 (Simulation time: 0 hr 9 min 48 sec) 
Heartbeat CPU 0 instructions: 100000000 cycles: 260878071 heartbeat IPC: 0.208174 cumulative IPC: 0.20443 (Simulation time: 0 hr 11 min 22 sec) 
Heartbeat CPU 0 instructions: 110000000 cycles: 308277761 heartbeat IPC: 0.210972 cumulative IPC: 0.205492 (Simulation time: 0 hr 12 min 57 sec) 
Heartbeat CPU 0 instructions: 120000003 cycles: 357812003 heartbeat IPC: 0.201881 cumulative IPC: 0.204968 (Simulation time: 0 hr 14 min 33 sec) 
Heartbeat CPU 0 instructions: 130000001 cycles: 409019266 heartbeat IPC: 0.195285 cumulative IPC: 0.203705 (Simulation time: 0 hr 16 min 3 sec) 
Heartbeat CPU 0 instructions: 140000002 cycles: 460081524 heartbeat IPC: 0.195839 cumulative IPC: 0.2028 (Simulation time: 0 hr 17 min 3 sec) 
Heartbeat CPU 0 instructions: 150000000 cycles: 507305343 heartbeat IPC: 0.211757 cumulative IPC: 0.203662 (Simulation time: 0 hr 18 min 4 sec) 
Heartbeat CPU 0 instructions: 160000001 cycles: 557531890 heartbeat IPC: 0.199098 cumulative IPC: 0.203238 (Simulation time: 0 hr 19 min 21 sec) 
Heartbeat CPU 0 instructions: 170000002 cycles: 604277933 heartbeat IPC: 0.213922 cumulative IPC: 0.204088 (Simulation time: 0 hr 20 min 58 sec) 
Heartbeat CPU 0 instructions: 180000000 cycles: 653856278 heartbeat IPC: 0.201701 cumulative IPC: 0.203902 (Simulation time: 0 hr 22 min 6 sec) 
Heartbeat CPU 0 instructions: 190000002 cycles: 704071393 heartbeat IPC: 0.199143 cumulative IPC: 0.203555 (Simulation time: 0 hr 23 min 3 sec) 
Heartbeat CPU 0 instructions: 200000001 cycles: 753308592 heartbeat IPC: 0.203098 cumulative IPC: 0.203524 (Simulation time: 0 hr 24 min 0 sec) 
Heartbeat CPU 0 instructions: 210000002 cycles: 801599478 heartbeat IPC: 0.207078 cumulative IPC: 0.203743 (Simulation time: 0 hr 24 min 55 sec) 
Heartbeat CPU 0 instructions: 220000000 cycles: 850477867 heartbeat IPC: 0.204589 cumulative IPC: 0.203792 (Simulation time: 0 hr 25 min 46 sec) 
Heartbeat CPU 0 instructions: 230000000 cycles: 899579288 heartbeat IPC: 0.20366 cumulative IPC: 0.203785 (Simulation time: 0 hr 26 min 35 sec) 
Heartbeat CPU 0 instructions: 240000001 cycles: 951865609 heartbeat IPC: 0.191255 cumulative IPC: 0.203085 (Simulation time: 0 hr 27 min 23 sec) 
Heartbeat CPU 0 instructions: 250000001 cycles: 1004804139 heartbeat IPC: 0.188898 cumulative IPC: 0.202325 (Simulation time: 0 hr 28 min 20 sec) 
Finished CPU 0 instructions: 200000002 cycles: 988508941 cumulative IPC: 0.202325 (Simulation time: 0 hr 28 min 20 sec) 
 Instruction ID: 250000031

ChampSim completed all CPUs

Region of Interest Statistics

CPU 0 cumulative IPC: 0.202325 instructions: 200000002 cycles: 988508941
ITLB SPEC fills:          0  NON-SPEC fills:          0
ITLB Test counter :          0
ITLB Leapfrog:          0
ITLB MSHR merge:          0
ITLB TOTAL     ACCESS:   36369784  HIT:   36369784  MISS:          0  HIT %:        100  MISS %:          0   MPKI: 0
ITLB LOAD TRANSLATION NON_SPEC    ACCESS:   36369784  HIT:   36369784  MISS:          0  HIT %:        100  MISS %:          0   MPKI: 0
ITLB PREFETCH  REQUESTED:          0  ISSUED:          0  USEFUL:          0  USELESS:          0
ITLB USEFUL LOAD PREFETCHES:          0 PREFETCH ISSUED TO LOWER LEVEL:          0  ACCURACY: -nan
ITLB TIMELY PREFETCHES:          0 LATE PREFETCHES: 0 DROPPED PREFETCHES: 0
ITLB COMMIT LATE PREFETCHES: 0 NORMAL LATE: 0 MISSED OPPORTUNITY: 0 UNCOVERED: 0
ITLB PREFETCHES SAME FILL-ORIGIN LEVEL: 0 DIFFERENT FILL-ORIGIN LEVEL: 0
ITLB AVERAGE MISS LATENCY: -nan cycles
ITLB AVERAGE MISS LATENCY LOAD: -nan cycles
ITLB AVERAGE MISS LATENCY PREFETCH: -nan cycles
ITLB AVERAGE MSHR OCCUPANCY: 0
ITLB MSHR FULL: 0
ITLB RQ	ACCESS:   36977123	FORWARD:          0	MERGED:     607340	TO_CACHE:   36369783

DTLB SPEC fills:          0  NON-SPEC fills:          0
DTLB Test counter :          0
DTLB Leapfrog:          0
DTLB MSHR merge:          0
DTLB TOTAL     ACCESS:   51533678  HIT:   40957994  MISS:   10575684  HIT %:    79.4781  MISS %:    20.5219   MPKI: 52.8784
DTLB LOAD TRANSLATION NON_SPEC    ACCESS:   51533678  HIT:   40957994  MISS:   10575684  HIT %:    79.4781  MISS %:    20.5219   MPKI: 52.8784
DTLB PREFETCH  REQUESTED:          0  ISSUED:          0  USEFUL:          0  USELESS:          0
DTLB USEFUL LOAD PREFETCHES:          0 PREFETCH ISSUED TO LOWER LEVEL:          0  ACCURACY: -nan
DTLB TIMELY PREFETCHES:          0 LATE PREFETCHES: 0 DROPPED PREFETCHES: 0
DTLB COMMIT LATE PREFETCHES: 0 NORMAL LATE: 0 MISSED OPPORTUNITY: 0 UNCOVERED: 0
DTLB PREFETCHES SAME FILL-ORIGIN LEVEL: 0 DIFFERENT FILL-ORIGIN LEVEL: 0
DTLB AVERAGE MISS LATENCY: 9.46146 cycles
DTLB AVERAGE MISS LATENCY LOAD: -nan cycles
DTLB AVERAGE MISS LATENCY PREFETCH: -nan cycles
DTLB AVERAGE MSHR OCCUPANCY: 0.342266
DTLB MSHR FULL: 0.00289382
DTLB RQ	ACCESS:   53268615	FORWARD:          0	MERGED:    1025601	TO_CACHE:   52243014

STLB SPEC fills:          0  NON-SPEC fills:          0
STLB Test counter :          0
STLB Leapfrog:          0
STLB MSHR merge:          0
STLB TOTAL     ACCESS:   11911211  HIT:   11895087  MISS:      16124  HIT %:    99.8646  MISS %:   0.135368   MPKI: 0.08062
STLB LOAD TRANSLATION NON_SPEC    ACCESS:   10575684  HIT:   10559560  MISS:      16124  HIT %:    99.8475  MISS %:   0.152463   MPKI: 0.08062
STLB TRANSLATION FROM L1D PREFETCHER NON_SPEC    ACCESS:    1335527  HIT:    1335527  MISS:          0  HIT %:        100  MISS %:          0   MPKI: 0
STLB PREFETCH  REQUESTED:          0  ISSUED:          0  USEFUL:          0  USELESS:          0
STLB USEFUL LOAD PREFETCHES:          0 PREFETCH ISSUED TO LOWER LEVEL:          0  ACCURACY: -nan
STLB TIMELY PREFETCHES:          0 LATE PREFETCHES: 0 DROPPED PREFETCHES: 0
STLB COMMIT LATE PREFETCHES: 0 NORMAL LATE: 0 MISSED OPPORTUNITY: 0 UNCOVERED: 0
STLB PREFETCHES SAME FILL-ORIGIN LEVEL: 0 DIFFERENT FILL-ORIGIN LEVEL: 0
STLB AVERAGE MISS LATENCY: 188.039 cycles
STLB AVERAGE MISS LATENCY LOAD: -nan cycles
STLB AVERAGE MISS LATENCY PREFETCH: -nan cycles
STLB AVERAGE MSHR OCCUPANCY: 0.00100561
STLB MSHR FULL: 0
STLB RQ	ACCESS:   14464800	FORWARD:          0	MERGED:    2553589	TO_CACHE:   11911211

STLB Hit, L1D data hit: 0
STLB Hit, L2C data hit: 0
STLB Hit, LLC data hit: 0
STLB Hit, LLC data miss: 0
STLB STLB hints to L2: 0
L0D SPEC fills:   29561948  NON-SPEC fills:          0
L0D TimeGuard Request with older TS:     479071 Restricted eviction:     188523 read:     486239
L0D Test counter :          0
L0D Leapfrog:          0
L0D MSHR merge:     710669
L0D TOTAL     ACCESS:   52311235  HIT:   12466086  MISS:   39845149  HIT %:    23.8306  MISS %:    76.1694   MPKI: 199.226
L0D LOAD      TOTAL       ACCESS:   52311235  HIT:   12466086  MISS:   39845149  HIT %:    23.8306  MISS %:    76.1694   MPKI: 199.226
L0D LOAD      NON_SPEC    ACCESS:   10742829  HIT:     648151  MISS:   10094678  HIT %:    6.03334  MISS %:    93.9667   MPKI: 50.4734
L0D LOAD      SPEC        ACCESS:   41568406  HIT:   11817935  MISS:   29750471  HIT %:    28.4301  MISS %:    71.5699   MPKI: 148.752
L0D PREFETCH  REQUESTED:          0  ISSUED:          0  USEFUL:          0  USELESS:          0
L0D USEFUL LOAD PREFETCHES:          0 PREFETCH ISSUED TO LOWER LEVEL:          0  ACCURACY: -nan
L0D TIMELY PREFETCHES:          0 LATE PREFETCHES: 0 DROPPED PREFETCHES: 0
L0D COMMIT LATE PREFETCHES: 0 NORMAL LATE: 0 MISSED OPPORTUNITY: 0 UNCOVERED: 39845149
L0D PREFETCHES SAME FILL-ORIGIN LEVEL: 0 DIFFERENT FILL-ORIGIN LEVEL: 0
L0D AVERAGE MISS LATENCY: 30.6823 cycles
L0D AVERAGE MISS LATENCY LOAD: 30.6823 cycles
L0D AVERAGE MISS LATENCY PREFETCH: -nan cycles
L0D AVERAGE MSHR OCCUPANCY: 1.64472
L0D MSHR FULL: 0.0281835
L0D RQ	ACCESS:   57742013	FORWARD:          0	MERGED:    4720115	TO_CACHE:   53021898
L0D WQ	ACCESS:     246717	FORWARD:          0	MERGED:          0	TO_CACHE:     246717

L1D SPEC fills:          0  NON-SPEC fills:    4596032
L1D Test counter :          0
L1D Leapfrog:          0
L1D MSHR merge:      19219
L1D TOTAL     ACCESS:   83781669  HIT:   56166321  MISS:   27615348  HIT %:    67.0389  MISS %:    32.9611   MPKI: 138.077
L1D LOAD      TOTAL       ACCESS:   39844856  HIT:   24513743  MISS:   15331113  HIT %:     61.523  MISS %:     38.477   MPKI: 76.6556
L1D LOAD      NON_SPEC    ACCESS:   10094471  HIT:    5498439  MISS:    4596032  HIT %:    54.4698  MISS %:    45.5302   MPKI: 22.9802
L1D LOAD      SPEC        ACCESS:   29750385  HIT:   19015304  MISS:   10735081  HIT %:    63.9162  MISS %:    36.0838   MPKI: 53.6754
L1D RFO       NON_SPEC    ACCESS:     245994  HIT:     245994  MISS:          0  HIT %:        100  MISS %:          0   MPKI: 0
L1D PREFETCH  NON_SPEC    ACCESS:    3775844  HIT:    2223412  MISS:    1552432  HIT %:    58.8852  MISS %:    41.1148   MPKI: 7.76216
L1D COMMIT LOAD NON_SPEC    ACCESS:   10946373  HIT:   10776490  MISS:     169883  HIT %:     98.448  MISS %:    1.55196   MPKI: 0.849415
L1D COMMIT WRITE NON_SPEC    ACCESS:   28968602  HIT:   18406682  MISS:   10561920  HIT %:    63.5401  MISS %:    36.4599   MPKI: 52.8096
L1D PREFETCH  REQUESTED:    3919633  ISSUED:    3919633  USEFUL:    1098972  USELESS:     453460
L1D USEFUL LOAD PREFETCHES:    1098972 PREFETCH ISSUED TO LOWER LEVEL:    1582178  ACCURACY: 69.4594
L1D TIMELY PREFETCHES:    1098972 LATE PREFETCHES: 18927 DROPPED PREFETCHES: 0
L1D COMMIT LATE PREFETCHES: 0 NORMAL LATE: 18927 MISSED OPPORTUNITY: 0 UNCOVERED: 15312186
L1D PREFETCHES SAME FILL-ORIGIN LEVEL: 1571360 DIFFERENT FILL-ORIGIN LEVEL: 10818
L1D AVERAGE MISS LATENCY: 47.9092 cycles
L1D AVERAGE MISS LATENCY LOAD: 66.6112 cycles
L1D AVERAGE MISS LATENCY PREFETCH: 190.278 cycles
L1D AVERAGE MSHR OCCUPANCY: 1.21115
L1D MSHR FULL: 0
L1D RQ	ACCESS:   57592409	FORWARD:          0	MERGED:    4518943	TO_CACHE:   50792026
L1D WQ	ACCESS:   29406117	FORWARD:    2281440	MERGED:     190803	TO_CACHE:   29215314
L1D PQ	ACCESS:    3919633	FORWARD:          0	MERGED:      30517	TO_CACHE:    3889116

L1D UNIQUE REGIONS ACCESSED: 0
L1D REGIONS CONFLICTS: 0
L1D Cross Page Prefetch Requests: 0
L1D Same Page Prefetch Requests: 4763641
L1D ROI Sum of L1D PQ occupancy: 51983599
L1D PREFETCHES PUSHED FROM L2C: 0
L1I SPEC fills:          0  NON-SPEC fills:          0
L1I Test counter :          0
L1I Leapfrog:          0
L1I MSHR merge:          0
L1I TOTAL     ACCESS:   36977124  HIT:   36977124  MISS:          0  HIT %:        100  MISS %:          0   MPKI: 0
L1I LOAD      TOTAL       ACCESS:   36977124  HIT:   36977124  MISS:          0  HIT %:        100  MISS %:          0   MPKI: 0
L1I LOAD      NON_SPEC    ACCESS:   36977124  HIT:   36977124  MISS:          0  HIT %:        100  MISS %:          0   MPKI: 0
L1I PREFETCH  REQUESTED:          0  ISSUED:          0  USEFUL:          0  USELESS:          0
L1I USEFUL LOAD PREFETCHES:          0 PREFETCH ISSUED TO LOWER LEVEL:          0  ACCURACY: -nan
L1I TIMELY PREFETCHES:          0 LATE PREFETCHES: 0 DROPPED PREFETCHES: 0
L1I COMMIT LATE PREFETCHES: 0 NORMAL LATE: 0 MISSED OPPORTUNITY: 0 UNCOVERED: 0
L1I PREFETCHES SAME FILL-ORIGIN LEVEL: 0 DIFFERENT FILL-ORIGIN LEVEL: 0
L1I AVERAGE MISS LATENCY: -nan cycles
L1I AVERAGE MISS LATENCY LOAD: -nan cycles
L1I AVERAGE MISS LATENCY PREFETCH: -nan cycles
L1I AVERAGE MSHR OCCUPANCY: 0
L1I MSHR FULL: 0
L1I RQ	ACCESS:   60577539	FORWARD:          0	MERGED:   23600416	TO_CACHE:   36977123

BTB SPEC fills:          0  NON-SPEC fills:          0
BTB Test counter :          0
BTB Leapfrog:          0
BTB MSHR merge:          0
BTB TOTAL     ACCESS:   41566927  HIT:   41566922  MISS:          5  HIT %:        100  MISS %: 1.20288e-05   MPKI: 2.5e-05
BTB BRANCH_DIRECT_JUMP	ACCESS:          0  HIT:          0  MISS:          0
BTB BRANCH_INDIRECT	ACCESS:          0  HIT:          0  MISS:          0
BTB BRANCH_CONDITIONAL	ACCESS:   41566927  HIT:   41566922  MISS:          5
BTB BRANCH_DIRECT_CALL	ACCESS:          0  HIT:          0  MISS:          0
BTB BRANCH_INDIRECT_CALL	ACCESS:          0  HIT:          0  MISS:          0
BTB BRANCH_RETURN	ACCESS:          0  HIT:          0  MISS:          0
BTB BRANCH_OTHER ACCESS:          0  HIT:          0  MISS:          0

L2C SPEC fills:          0  NON-SPEC fills:    3040459
L2C Test counter :          0
L2C Leapfrog:          0
L2C MSHR merge:        223
L2C TOTAL     ACCESS:   29005313  HIT:    9783891  MISS:   19221422  HIT %:    33.7314  MISS %:    66.2686   MPKI: 96.1071
L2C LOAD      TOTAL       ACCESS:   15312029  HIT:    5029236  MISS:   10282793  HIT %:     32.845  MISS %:     67.155   MPKI: 51.414
L2C LOAD      NON_SPEC    ACCESS:    4588393  HIT:    1547934  MISS:    3040459  HIT %:    33.7359  MISS %:    66.2641   MPKI: 15.2023
L2C LOAD      SPEC        ACCESS:   10723636  HIT:    3481302  MISS:    7242334  HIT %:    32.4638  MISS %:    67.5362   MPKI: 36.2117
L2C PREFETCH  NON_SPEC    ACCESS:    1581794  HIT:      64908  MISS:    1516886  HIT %:    4.10344  MISS %:    95.8966   MPKI: 7.58443
L2C WRITEBACK NON_SPEC    ACCESS:      44614  HIT:      44614  MISS:          0  HIT %:        100  MISS %:          0   MPKI: 0
L2C CLEAN_EVICTION NON_SPEC    ACCESS:   11816476  HIT:    4494232  MISS:    7322244  HIT %:    38.0336  MISS %:    61.9664   MPKI: 36.6112
L2C COMMIT LOAD NON_SPEC    ACCESS:     169811  HIT:      75766  MISS:      94045  HIT %:    44.6178  MISS %:    55.3822   MPKI: 0.470225
L2C LOAD TRANSLATION NON_SPEC    ACCESS:      80589  HIT:      75135  MISS:       5454  HIT %:    93.2323  MISS %:    6.76767   MPKI: 0.02727
L2C PREFETCH  REQUESTED:          0  ISSUED:          0  USEFUL:      35383  USELESS:    1481475
L2C USEFUL LOAD PREFETCHES:      35383 PREFETCH ISSUED TO LOWER LEVEL:    1517110  ACCURACY: 2.33226
L2C TIMELY PREFETCHES:      35383 LATE PREFETCHES: 223 DROPPED PREFETCHES: 0
L2C COMMIT LATE PREFETCHES: 0 NORMAL LATE: 223 MISSED OPPORTUNITY: 0 UNCOVERED: 10282570
L2C PREFETCHES SAME FILL-ORIGIN LEVEL: 10067 DIFFERENT FILL-ORIGIN LEVEL: 0
L2C AVERAGE MISS LATENCY: 57.802 cycles
L2C AVERAGE MISS LATENCY LOAD: 80.767 cycles
L2C AVERAGE MISS LATENCY PREFETCH: 182.042 cycles
L2C AVERAGE MSHR OCCUPANCY: 1.44897
L2C MSHR FULL: 0
L2C RQ	ACCESS:   15562657	FORWARD:          0	MERGED:          0	TO_CACHE:   15562428
L2C WQ	ACCESS:   11861093	FORWARD:        229	MERGED:          0	TO_CACHE:   11861093
L2C PQ	ACCESS:    1582178	FORWARD:          0	MERGED:          0	TO_CACHE:    1582178

L2C Instructions Evicting Data 0
L2C Translations Evicting Data 5454
L2C Data Evicting Data 4649315
L2C Instructions Evicting Instructions 0
L2C Translations Evicting Instructions 0
L2C Data Evicting Instructions 0
L2C Instructions Evicting Translations 0
L2C Translations Evicting Translations 0
L2C Data Evicting Translations 2075
L2C Dense regions hint from L2: 0
PSCL5 SPEC fills:          0  NON-SPEC fills:          0
PSCL5 Test counter :          0
PSCL5 Leapfrog:          0
PSCL5 MSHR merge:          0
PSCL5 TOTAL     ACCESS:          0  HIT:          0  MISS:          0  HIT %:       -nan  MISS %:       -nan   MPKI: 0
PSCL5 PREFETCH  REQUESTED:          0  ISSUED:          0  USEFUL:          0  USELESS:          0
PSCL5 USEFUL LOAD PREFETCHES:          0 PREFETCH ISSUED TO LOWER LEVEL:          0  ACCURACY: -nan
PSCL5 TIMELY PREFETCHES:          0 LATE PREFETCHES: 0 DROPPED PREFETCHES: 0
PSCL5 COMMIT LATE PREFETCHES: 0 NORMAL LATE: 0 MISSED OPPORTUNITY: 0 UNCOVERED: 0
PSCL5 PREFETCHES SAME FILL-ORIGIN LEVEL: 0 DIFFERENT FILL-ORIGIN LEVEL: 0

PSCL4 SPEC fills:          0  NON-SPEC fills:          0
PSCL4 Test counter :          0
PSCL4 Leapfrog:          0
PSCL4 MSHR merge:          0
PSCL4 TOTAL     ACCESS:          0  HIT:          0  MISS:          0  HIT %:       -nan  MISS %:       -nan   MPKI: 0
PSCL4 PREFETCH  REQUESTED:          0  ISSUED:          0  USEFUL:          0  USELESS:          0
PSCL4 USEFUL LOAD PREFETCHES:          0 PREFETCH ISSUED TO LOWER LEVEL:          0  ACCURACY: -nan
PSCL4 TIMELY PREFETCHES:          0 LATE PREFETCHES: 0 DROPPED PREFETCHES: 0
PSCL4 COMMIT LATE PREFETCHES: 0 NORMAL LATE: 0 MISSED OPPORTUNITY: 0 UNCOVERED: 0
PSCL4 PREFETCHES SAME FILL-ORIGIN LEVEL: 0 DIFFERENT FILL-ORIGIN LEVEL: 0

PSCL3 SPEC fills:          0  NON-SPEC fills:          0
PSCL3 Test counter :          0
PSCL3 Leapfrog:          0
PSCL3 MSHR merge:          0
PSCL3 TOTAL     ACCESS:          0  HIT:          0  MISS:          0  HIT %:       -nan  MISS %:       -nan   MPKI: 0
PSCL3 PREFETCH  REQUESTED:          0  ISSUED:          0  USEFUL:          0  USELESS:          0
PSCL3 USEFUL LOAD PREFETCHES:          0 PREFETCH ISSUED TO LOWER LEVEL:          0  ACCURACY: -nan
PSCL3 TIMELY PREFETCHES:          0 LATE PREFETCHES: 0 DROPPED PREFETCHES: 0
PSCL3 COMMIT LATE PREFETCHES: 0 NORMAL LATE: 0 MISSED OPPORTUNITY: 0 UNCOVERED: 0
PSCL3 PREFETCHES SAME FILL-ORIGIN LEVEL: 0 DIFFERENT FILL-ORIGIN LEVEL: 0

PSCL2 SPEC fills:          0  NON-SPEC fills:          0
PSCL2 Test counter :          0
PSCL2 Leapfrog:          0
PSCL2 MSHR merge:          0
PSCL2 TOTAL     ACCESS:          0  HIT:          0  MISS:          0  HIT %:       -nan  MISS %:       -nan   MPKI: 0
PSCL2 PREFETCH  REQUESTED:          0  ISSUED:          0  USEFUL:          0  USELESS:          0
PSCL2 USEFUL LOAD PREFETCHES:          0 PREFETCH ISSUED TO LOWER LEVEL:          0  ACCURACY: -nan
PSCL2 TIMELY PREFETCHES:          0 LATE PREFETCHES: 0 DROPPED PREFETCHES: 0
PSCL2 COMMIT LATE PREFETCHES: 0 NORMAL LATE: 0 MISSED OPPORTUNITY: 0 UNCOVERED: 0
PSCL2 PREFETCHES SAME FILL-ORIGIN LEVEL: 0 DIFFERENT FILL-ORIGIN LEVEL: 0

LLC SPEC fills:          0  NON-SPEC fills:    1100732
LLC Test counter :          0
LLC Leapfrog:          0
LLC MSHR merge:          0
LLC TOTAL     ACCESS:   20820812  HIT:   12685397  MISS:    8135415  HIT %:    60.9265  MISS %:    39.0735   MPKI: 40.6771
LLC LOAD      TOTAL       ACCESS:   10282505  HIT:    6559898  MISS:    3722607  HIT %:    63.7967  MISS %:    36.2033   MPKI: 18.613
LLC LOAD      NON_SPEC    ACCESS:    3040432  HIT:    1939700  MISS:    1100732  HIT %:    63.7969  MISS %:    36.2031   MPKI: 5.50366
LLC LOAD      SPEC        ACCESS:    7242073  HIT:    4620198  MISS:    2621875  HIT %:    63.7966  MISS %:    36.2034   MPKI: 13.1094
LLC PREFETCH  NON_SPEC    ACCESS:    1517107  HIT:     184512  MISS:    1332595  HIT %:    12.1621  MISS %:    87.8379   MPKI: 6.66297
LLC WRITEBACK NON_SPEC    ACCESS:      41452  HIT:      41447  MISS:          5  HIT %:    99.9879  MISS %:  0.0120621   MPKI: 2.5e-05
LLC CLEAN_EVICTION NON_SPEC    ACCESS:    8880281  HIT:    5810420  MISS:    3069861  HIT %:    65.4306  MISS %:    34.5694   MPKI: 15.3493
LLC COMMIT LOAD NON_SPEC    ACCESS:      94013  HIT:      85771  MISS:       8242  HIT %:    91.2331  MISS %:    8.76687   MPKI: 0.04121
LLC LOAD TRANSLATION NON_SPEC    ACCESS:       5454  HIT:       3349  MISS:       2105  HIT %:    61.4045  MISS %:    38.5955   MPKI: 0.010525
LLC PREFETCH  REQUESTED:          0  ISSUED:          0  USEFUL:      76736  USELESS:    1255840
LLC USEFUL LOAD PREFETCHES:      76736 PREFETCH ISSUED TO LOWER LEVEL:    1332596  ACCURACY: 5.75838
LLC TIMELY PREFETCHES:      76736 LATE PREFETCHES: 0 DROPPED PREFETCHES: 0
LLC COMMIT LATE PREFETCHES: 0 NORMAL LATE: 0 MISSED OPPORTUNITY: 0 UNCOVERED: 3722607
LLC PREFETCHES SAME FILL-ORIGIN LEVEL: 0 DIFFERENT FILL-ORIGIN LEVEL: 0
LLC AVERAGE MISS LATENCY: 100.68 cycles
LLC AVERAGE MISS LATENCY LOAD: 157.7 cycles
LLC AVERAGE MISS LATENCY PREFETCH: 173.062 cycles
LLC AVERAGE MSHR OCCUPANCY: 0.840163
LLC MSHR FULL: 0
LLC RQ	ACCESS:   10382068	FORWARD:          0	MERGED:          0	TO_CACHE:   10381971
LLC WQ	ACCESS:    8921733	FORWARD:         99	MERGED:          0	TO_CACHE:    8921733
LLC PQ	ACCESS:    1517110	FORWARD:          0	MERGED:          0	TO_CACHE:    1517108

LLC Dense regions hint to LLC: 0

RAW hits: 22188
Loads Generated: 57764201
Loads sent to L1D: 57742013
Stores Generated: 246717
Stores sent to L1D: 246717
Major fault: 0 Minor fault: 20918
Allocated PAGES: 20918
Total Load insts: 70972872
Total Non-spec loads: 11172137
Percentage of speculative loads: 84.2586

LeapFrogging counter: 302492
Commit hits: 29159400 miss: 17747264
Commit hit %: 62.1647 miss %: 37.8353
Commits not translated: 0
Loads retired: 15331111
Stores retired: 246717
Cache fills: 15331113
L1D response latency: 66.6112 cycles
Load retirement latency: 132.505 cycles
OOO test counter: 0
Discarded buffer inserts: 29159400 hits: 1050 hit %: 0.0036009
Filter prediction accuracy: -nan
Speculative prefetch buffer size: 0
CPU 0 L1D PC-based stride prefetcher final stats
Degree: 3

DRAM Statistics
 CHANNEL 0
 RQ ROW_BUFFER_HIT:     478308  ROW_BUFFER_MISS:    4586638
 DBUS_CONGESTED:       1648
 WQ ROW_BUFFER_HIT:    1609084  ROW_BUFFER_MISS:    2944603  FULL:          0

 AVG_CONGESTED_CYCLE: 4
 All warmup complete: 2
Channel 0 Bank busy for read cycles: 0
Channel 0 Bank busy for write cycles: 0
Channel 0
Rank 0
0banks busy for read cycles: 109956116
0banks busy for write cycles: 956765
1banks busy for read cycles: 308753231
1banks busy for write cycles: 161644043
2banks busy for read cycles: 106442591
2banks busy for write cycles: 114413262
3banks busy for read cycles: 38129670
3banks busy for write cycles: 59078850
4banks busy for read cycles: 14439533
4banks busy for write cycles: 29136626
5banks busy for read cycles: 2886611
5banks busy for write cycles: 15988826
6banks busy for read cycles: 518025
6banks busy for write cycles: 10051801
7banks busy for read cycles: 82604
7banks busy for write cycles: 7861234
8banks busy for read cycles: 9284
8banks busy for write cycles: 8159870

CPU 0 Branch Prediction Accuracy: 88.1493% MPKI: 24.7463 Average ROB Occupancy at Mispredict: 17.4728
Branch types
NOT_BRANCH: 158236162 79.1181%
BRANCH_DIRECT_JUMP: 0 0%
BRANCH_INDIRECT: 0 0%
BRANCH_CONDITIONAL: 41763494 20.8817%
BRANCH_DIRECT_CALL: 0 0%
BRANCH_INDIRECT_CALL: 0 0%
BRANCH_RETURN: 0 0%
BRANCH_OTHER: 0 0%

DRAM PAGES: 1048576
Allocated PAGES: 20918
