
*** ChampSim Multicore Out-of-Order Simulator ***

Warmup Instructions: 50000000
Simulation Instructions: 200000000
Number of CPUs: 1
LLC sets: 2048
LLC ways: 16
L0D sets: 16
L0D ways: 2
ROB size: 352
LQ size: 128
SQ size: 72
Secure Berti: OFF
Berti: OFF
Berti Fill: OFF
On commit prefetching: OFF
Hit-based filter: ON
Time-guarding: ON
Free-slotting: ON
Leap-frogging: ON
Train prefetcher on L0D bypass: OFF
No translation penalty for prefetchers: OFF
Prefetch to L0D only: OFF
Prefetch to L1D only: OFF
Clean evictions: ON
Commit loads: ON
Commit write: ON
Fill commit loads to L2C, LLC: ON
DRAM IO FREQUENCY: 6400
ROB SIZE: 352
Off-chip DRAM Size: 4096 MB Channels: 1 Width: 64-bit Data Rate: 6400 MT/s
CPU 0 runs /home/sumon/secure_berti/GhostMinion/../../traces/spec/602.gcc_s-1850B.champsimtrace.xz
.xz
BTB has LRU replacement policy
ITLB has LRU replacement policy
DTLB has LRU replacement policy
STLB has LRU replacement policy
L1I has LRU replacement policy
L0D has LRU replacement policy
L1D has LRU replacement policy
L2C has LRU replacement policy
LLC has LRU replacement policy
Heartbeat CPU 0 instructions: 10000002 cycles: 5476600 heartbeat IPC: 1.82595 cumulative IPC: 1.82595 (Simulation time: 0 hr 0 min 36 sec) 
Heartbeat CPU 0 instructions: 20000000 cycles: 10955206 heartbeat IPC: 1.82528 cumulative IPC: 1.82562 (Simulation time: 0 hr 1 min 11 sec) 
Heartbeat CPU 0 instructions: 30000000 cycles: 16429733 heartbeat IPC: 1.82664 cumulative IPC: 1.82596 (Simulation time: 0 hr 1 min 48 sec) 
Heartbeat CPU 0 instructions: 40000000 cycles: 21904671 heartbeat IPC: 1.8265 cumulative IPC: 1.82609 (Simulation time: 0 hr 2 min 23 sec) 
Heartbeat CPU 0 instructions: 50000000 cycles: 27383248 heartbeat IPC: 1.82529 cumulative IPC: 1.82593 (Simulation time: 0 hr 2 min 57 sec) 

Warmup complete CPU 0 instructions: 50000004 cycles: 27383249 (Simulation time: 0 hr 2 min 57 sec) 

Heartbeat CPU 0 instructions: 60000003 cycles: 70769423 heartbeat IPC: 0.230488 cumulative IPC: 0.230488 (Simulation time: 0 hr 4 min 1 sec) 
Heartbeat CPU 0 instructions: 70000002 cycles: 113892842 heartbeat IPC: 0.231893 cumulative IPC: 0.231188 (Simulation time: 0 hr 5 min 4 sec) 
Heartbeat CPU 0 instructions: 80000003 cycles: 157055338 heartbeat IPC: 0.231683 cumulative IPC: 0.231353 (Simulation time: 0 hr 6 min 7 sec) 
Heartbeat CPU 0 instructions: 90000001 cycles: 200195499 heartbeat IPC: 0.231803 cumulative IPC: 0.231465 (Simulation time: 0 hr 7 min 10 sec) 
Heartbeat CPU 0 instructions: 100000000 cycles: 243378956 heartbeat IPC: 0.23157 cumulative IPC: 0.231486 (Simulation time: 0 hr 8 min 13 sec) 
Heartbeat CPU 0 instructions: 110000000 cycles: 286567073 heartbeat IPC: 0.231545 cumulative IPC: 0.231496 (Simulation time: 0 hr 9 min 16 sec) 
Heartbeat CPU 0 instructions: 120000003 cycles: 329709196 heartbeat IPC: 0.231792 cumulative IPC: 0.231538 (Simulation time: 0 hr 10 min 19 sec) 
Heartbeat CPU 0 instructions: 130000003 cycles: 372879202 heartbeat IPC: 0.231642 cumulative IPC: 0.231551 (Simulation time: 0 hr 11 min 22 sec) 
Heartbeat CPU 0 instructions: 140000000 cycles: 415999769 heartbeat IPC: 0.231908 cumulative IPC: 0.231591 (Simulation time: 0 hr 12 min 24 sec) 
Heartbeat CPU 0 instructions: 150000000 cycles: 459141889 heartbeat IPC: 0.231792 cumulative IPC: 0.231611 (Simulation time: 0 hr 13 min 27 sec) 
Heartbeat CPU 0 instructions: 160000000 cycles: 502304742 heartbeat IPC: 0.231681 cumulative IPC: 0.231617 (Simulation time: 0 hr 14 min 29 sec) 
Heartbeat CPU 0 instructions: 170000003 cycles: 545492801 heartbeat IPC: 0.231546 cumulative IPC: 0.231611 (Simulation time: 0 hr 15 min 31 sec) 
Heartbeat CPU 0 instructions: 180000000 cycles: 588632571 heartbeat IPC: 0.231805 cumulative IPC: 0.231626 (Simulation time: 0 hr 16 min 31 sec) 
Heartbeat CPU 0 instructions: 190000002 cycles: 631865785 heartbeat IPC: 0.231304 cumulative IPC: 0.231603 (Simulation time: 0 hr 17 min 31 sec) 
Heartbeat CPU 0 instructions: 200000000 cycles: 674995160 heartbeat IPC: 0.23186 cumulative IPC: 0.23162 (Simulation time: 0 hr 18 min 31 sec) 
Heartbeat CPU 0 instructions: 210000002 cycles: 718149074 heartbeat IPC: 0.231729 cumulative IPC: 0.231627 (Simulation time: 0 hr 19 min 29 sec) 
Heartbeat CPU 0 instructions: 220000000 cycles: 761355074 heartbeat IPC: 0.231449 cumulative IPC: 0.231617 (Simulation time: 0 hr 20 min 27 sec) 
Heartbeat CPU 0 instructions: 230000003 cycles: 804566326 heartbeat IPC: 0.231421 cumulative IPC: 0.231606 (Simulation time: 0 hr 21 min 26 sec) 
Heartbeat CPU 0 instructions: 240000000 cycles: 847763877 heartbeat IPC: 0.231495 cumulative IPC: 0.2316 (Simulation time: 0 hr 22 min 23 sec) 
Heartbeat CPU 0 instructions: 250000000 cycles: 890976142 heartbeat IPC: 0.231416 cumulative IPC: 0.231591 (Simulation time: 0 hr 23 min 20 sec) 
Finished CPU 0 instructions: 200000000 cycles: 863592894 cumulative IPC: 0.231591 (Simulation time: 0 hr 23 min 20 sec) 
 Instruction ID: 250000382

ChampSim completed all CPUs

Region of Interest Statistics

CPU 0 cumulative IPC: 0.231591 instructions: 200000000 cycles: 863592894
ITLB SPEC fills:          0  NON-SPEC fills:          0
ITLB Test counter :          0
ITLB Leapfrog:          0
ITLB MSHR merge:          0
ITLB TOTAL     ACCESS:   45819259  HIT:   45819259  MISS:          0  HIT %:        100  MISS %:          0   MPKI: 0
ITLB LOAD TRANSLATION NON_SPEC    ACCESS:   45819259  HIT:   45819259  MISS:          0  HIT %:        100  MISS %:          0   MPKI: 0
ITLB PREFETCH  REQUESTED:          0  ISSUED:          0  USEFUL:          0  USELESS:          0
ITLB USEFUL LOAD PREFETCHES:          0 PREFETCH ISSUED TO LOWER LEVEL:          0  ACCURACY: -nan
ITLB TIMELY PREFETCHES:          0 LATE PREFETCHES: 0 DROPPED PREFETCHES: 0
ITLB COMMIT LATE PREFETCHES: 0 MISSED OPPORTUNITY: 0 LATE IN PQ: 0 UNCOVERED: 0
ITLB COMMIT LATE MSHR PREFETCHES: 0
ITLB MPKI TOTAL: 0 MSHR LATE: 0 PQ LATE: 0 COMMIT LATE: 0 MISSED OPPORTUNITY: 0 UNCOVERED: 0
ITLB PREFETCHES SAME FILL-ORIGIN LEVEL: 0 DIFFERENT FILL-ORIGIN LEVEL: 0
ITLB AVERAGE MISS LATENCY: -nan cycles
ITLB AVERAGE MISS LATENCY LOAD: -nan cycles
ITLB AVERAGE MISS LATENCY PREFETCH: -nan cycles
ITLB AVERAGE MSHR OCCUPANCY: 0
ITLB MSHR FULL: 0
ITLB RQ	ACCESS:   49537340	FORWARD:          0	MERGED:    3718080	TO_CACHE:   45819260

DTLB SPEC fills:          0  NON-SPEC fills:          0
DTLB Test counter :          0
DTLB Leapfrog:          0
DTLB MSHR merge:          0
DTLB TOTAL     ACCESS:   56127731  HIT:   56061586  MISS:      66145  HIT %:    99.8822  MISS %:   0.117847   MPKI: 0.330725
DTLB LOAD TRANSLATION NON_SPEC    ACCESS:   56127731  HIT:   56061586  MISS:      66145  HIT %:    99.8822  MISS %:   0.117847   MPKI: 0.330725
DTLB PREFETCH  REQUESTED:          0  ISSUED:          0  USEFUL:          0  USELESS:          0
DTLB USEFUL LOAD PREFETCHES:          0 PREFETCH ISSUED TO LOWER LEVEL:          0  ACCURACY: -nan
DTLB TIMELY PREFETCHES:          0 LATE PREFETCHES: 0 DROPPED PREFETCHES: 0
DTLB COMMIT LATE PREFETCHES: 0 MISSED OPPORTUNITY: 0 LATE IN PQ: 0 UNCOVERED: 0
DTLB COMMIT LATE MSHR PREFETCHES: 0
DTLB MPKI TOTAL: 0 MSHR LATE: 0 PQ LATE: 0 COMMIT LATE: 0 MISSED OPPORTUNITY: 0 UNCOVERED: 0
DTLB PREFETCHES SAME FILL-ORIGIN LEVEL: 0 DIFFERENT FILL-ORIGIN LEVEL: 0
DTLB AVERAGE MISS LATENCY: 183.409 cycles
DTLB AVERAGE MISS LATENCY LOAD: -nan cycles
DTLB AVERAGE MISS LATENCY PREFETCH: -nan cycles
DTLB AVERAGE MSHR OCCUPANCY: 0.00226039
DTLB MSHR FULL: 0
DTLB RQ	ACCESS:   59724907	FORWARD:          0	MERGED:    3594338	TO_CACHE:   56130569

STLB SPEC fills:          0  NON-SPEC fills:          0
STLB Test counter :          0
STLB Leapfrog:          0
STLB MSHR merge:          0
STLB TOTAL     ACCESS:      66145  HIT:       5075  MISS:      61070  HIT %:    7.67254  MISS %:    92.3275   MPKI: 0.30535
STLB LOAD TRANSLATION NON_SPEC    ACCESS:      66145  HIT:       5075  MISS:      61070  HIT %:    7.67254  MISS %:    92.3275   MPKI: 0.30535
STLB PREFETCH  REQUESTED:          0  ISSUED:          0  USEFUL:          0  USELESS:          0
STLB USEFUL LOAD PREFETCHES:          0 PREFETCH ISSUED TO LOWER LEVEL:          0  ACCURACY: -nan
STLB TIMELY PREFETCHES:          0 LATE PREFETCHES: 0 DROPPED PREFETCHES: 0
STLB COMMIT LATE PREFETCHES: 0 MISSED OPPORTUNITY: 0 LATE IN PQ: 0 UNCOVERED: 0
STLB COMMIT LATE MSHR PREFETCHES: 0
STLB MPKI TOTAL: 0 MSHR LATE: 0 PQ LATE: 0 COMMIT LATE: 0 MISSED OPPORTUNITY: 0 UNCOVERED: 0
STLB PREFETCHES SAME FILL-ORIGIN LEVEL: 0 DIFFERENT FILL-ORIGIN LEVEL: 0
STLB AVERAGE MISS LATENCY: 188.902 cycles
STLB AVERAGE MISS LATENCY LOAD: -nan cycles
STLB AVERAGE MISS LATENCY PREFETCH: -nan cycles
STLB AVERAGE MSHR OCCUPANCY: 0.0010734
STLB MSHR FULL: 0
STLB RQ	ACCESS:      66145	FORWARD:          0	MERGED:          0	TO_CACHE:      66145

STLB Hit, L1D data hit: 0
STLB Hit, L2C data hit: 0
STLB Hit, LLC data hit: 0
STLB Hit, LLC data miss: 0
STLB STLB hints to L2: 0
L0D SPEC fills:   17866043  NON-SPEC fills:          0
L0D TimeGuard Request with older TS:     184970 Restricted eviction:      15677 read:     822686
L0D Test counter :          0
L0D Leapfrog:          0
L0D MSHR merge:    2928330
L0D TOTAL     ACCESS:   37385566  HIT:    6539027  MISS:   30846539  HIT %:    17.4908  MISS %:    82.5092   MPKI: 154.233
L0D LOAD      TOTAL       ACCESS:   37385566  HIT:    6539027  MISS:   30846539  HIT %:    17.4908  MISS %:    82.5092   MPKI: 154.233
L0D LOAD      NON_SPEC    ACCESS:   13092021  HIT:     127202  MISS:   12964819  HIT %:   0.971599  MISS %:    99.0284   MPKI: 64.8241
L0D LOAD      SPEC        ACCESS:   24293545  HIT:    6411825  MISS:   17881720  HIT %:    26.3931  MISS %:    73.6069   MPKI: 89.4086
L0D PREFETCH  REQUESTED:          0  ISSUED:          0  USEFUL:          0  USELESS:          0
L0D USEFUL LOAD PREFETCHES:          0 PREFETCH ISSUED TO LOWER LEVEL:          0  ACCURACY: -nan
L0D TIMELY PREFETCHES:          0 LATE PREFETCHES: 0 DROPPED PREFETCHES: 0
L0D COMMIT LATE PREFETCHES: 0 MISSED OPPORTUNITY: 0 LATE IN PQ: 0 UNCOVERED: 0
L0D COMMIT LATE MSHR PREFETCHES: 0
L0D MPKI TOTAL: 168.874 MSHR LATE: 0 PQ LATE: 0 COMMIT LATE: 0 MISSED OPPORTUNITY: 0 UNCOVERED: 0
L0D PREFETCHES SAME FILL-ORIGIN LEVEL: 0 DIFFERENT FILL-ORIGIN LEVEL: 0
L0D AVERAGE MISS LATENCY: 23.6084 cycles
L0D AVERAGE MISS LATENCY LOAD: 23.6084 cycles
L0D AVERAGE MISS LATENCY PREFETCH: -nan cycles
L0D AVERAGE MSHR OCCUPANCY: 0.7518
L0D MSHR FULL: 0
L0D RQ	ACCESS:   55558339	FORWARD:          0	MERGED:   15244445	TO_CACHE:   40313894
L0D WQ	ACCESS:   19411013	FORWARD:          0	MERGED:          0	TO_CACHE:   19411013

L1D SPEC fills:          0  NON-SPEC fills:    1119114
L1D Test counter :    3145438
L1D Leapfrog:          0
L1D MSHR merge:       1607
L1D TOTAL     ACCESS:   60998271  HIT:   51950040  MISS:    9048231  HIT %:    85.1664  MISS %:    14.8336   MPKI: 45.2412
L1D LOAD      TOTAL       ACCESS:   30844932  HIT:   25741722  MISS:    5103210  HIT %:    83.4553  MISS %:    16.5447   MPKI: 25.516
L1D LOAD      NON_SPEC    ACCESS:   12964772  HIT:   11845658  MISS:    1119114  HIT %:     91.368  MISS %:    8.63196   MPKI: 5.59557
L1D LOAD      SPEC        ACCESS:   17880160  HIT:   13896064  MISS:    3984096  HIT %:    77.7178  MISS %:    22.2822   MPKI: 19.9205
L1D RFO       NON_SPEC    ACCESS:   19402120  HIT:   19400512  MISS:       1608  HIT %:    99.9917  MISS %: 0.00828775   MPKI: 0.00804
L1D COMMIT LOAD NON_SPEC    ACCESS:    5133657  HIT:    5126679  MISS:       6978  HIT %:    99.8641  MISS %:   0.135926   MPKI: 0.03489
L1D COMMIT WRITE NON_SPEC    ACCESS:    5617562  HIT:    1681127  MISS:    3936435  HIT %:    29.9263  MISS %:    70.0737   MPKI: 19.6822
L1D PREFETCH  REQUESTED:          0  ISSUED:          0  USEFUL:          0  USELESS:          0
L1D USEFUL LOAD PREFETCHES:          0 PREFETCH ISSUED TO LOWER LEVEL:          0  ACCURACY: -nan
L1D TIMELY PREFETCHES:          0 LATE PREFETCHES: 0 DROPPED PREFETCHES: 0
L1D COMMIT LATE PREFETCHES: 0 MISSED OPPORTUNITY: 0 LATE IN PQ: 0 UNCOVERED: 0
L1D COMMIT LATE MSHR PREFETCHES: 0
L1D MPKI TOTAL: 25.5241 MSHR LATE: 0 PQ LATE: 0 COMMIT LATE: 0 MISSED OPPORTUNITY: 0 UNCOVERED: 0
L1D PREFETCHES SAME FILL-ORIGIN LEVEL: 0 DIFFERENT FILL-ORIGIN LEVEL: 0
L1D AVERAGE MISS LATENCY: 63.4793 cycles
L1D AVERAGE MISS LATENCY LOAD: 112.424 cycles
L1D AVERAGE MISS LATENCY PREFETCH: -nan cycles
L1D AVERAGE MSHR OCCUPANCY: 0.146434
L1D MSHR FULL: 0
L1D RQ	ACCESS:   38010977	FORWARD:          0	MERGED:    2027260	TO_CACHE:   35980685
L1D WQ	ACCESS:   25028611	FORWARD:       3032	MERGED:       8909	TO_CACHE:   25019702

L1D UNIQUE REGIONS ACCESSED: 0
L1D REGIONS CONFLICTS: 0
L1D Cross Page Prefetch Requests: 0
L1D Same Page Prefetch Requests: 0
L1D ROI Sum of L1D PQ occupancy: 0
L1D PREFETCHES PUSHED FROM L2C: 0
L1I SPEC fills:          0  NON-SPEC fills:          0
L1I Test counter :          0
L1I Leapfrog:          0
L1I MSHR merge:          0
L1I TOTAL     ACCESS:   49537338  HIT:   49537338  MISS:          0  HIT %:        100  MISS %:          0   MPKI: 0
L1I LOAD      TOTAL       ACCESS:   49537338  HIT:   49537338  MISS:          0  HIT %:        100  MISS %:          0   MPKI: 0
L1I LOAD      NON_SPEC    ACCESS:   49537338  HIT:   49537338  MISS:          0  HIT %:        100  MISS %:          0   MPKI: 0
L1I PREFETCH  REQUESTED:          0  ISSUED:          0  USEFUL:          0  USELESS:          0
L1I USEFUL LOAD PREFETCHES:          0 PREFETCH ISSUED TO LOWER LEVEL:          0  ACCURACY: -nan
L1I TIMELY PREFETCHES:          0 LATE PREFETCHES: 0 DROPPED PREFETCHES: 0
L1I COMMIT LATE PREFETCHES: 0 MISSED OPPORTUNITY: 0 LATE IN PQ: 0 UNCOVERED: 0
L1I COMMIT LATE MSHR PREFETCHES: 0
L1I MPKI TOTAL: 0 MSHR LATE: 0 PQ LATE: 0 COMMIT LATE: 0 MISSED OPPORTUNITY: 0 UNCOVERED: 0
L1I PREFETCHES SAME FILL-ORIGIN LEVEL: 0 DIFFERENT FILL-ORIGIN LEVEL: 0
L1I AVERAGE MISS LATENCY: -nan cycles
L1I AVERAGE MISS LATENCY LOAD: -nan cycles
L1I AVERAGE MISS LATENCY PREFETCH: -nan cycles
L1I AVERAGE MSHR OCCUPANCY: 0
L1I MSHR FULL: 0
L1I RQ	ACCESS:   79004291	FORWARD:          0	MERGED:   29466951	TO_CACHE:   49537340

BTB SPEC fills:          0  NON-SPEC fills:          0
BTB Test counter :          0
BTB Leapfrog:          0
BTB MSHR merge:          0
BTB TOTAL     ACCESS:   32765955  HIT:   32765926  MISS:         29  HIT %:    99.9999  MISS %: 8.85065e-05   MPKI: 0.000145
BTB BRANCH_DIRECT_JUMP	ACCESS:    4318197  HIT:    4318188  MISS:          9
BTB BRANCH_INDIRECT	ACCESS:          0  HIT:          0  MISS:          0
BTB BRANCH_CONDITIONAL	ACCESS:   24127035  HIT:   24127021  MISS:         14
BTB BRANCH_DIRECT_CALL	ACCESS:    2160361  HIT:    2160358  MISS:          3
BTB BRANCH_INDIRECT_CALL	ACCESS:          0  HIT:          0  MISS:          0
BTB BRANCH_RETURN	ACCESS:    2160362  HIT:    2160359  MISS:          3
BTB BRANCH_OTHER ACCESS:          0  HIT:          0  MISS:          0

L2C SPEC fills:          0  NON-SPEC fills:    1101205
L2C Test counter :    3049478
L2C Leapfrog:          0
L2C MSHR merge:          0
L2C TOTAL     ACCESS:    8566456  HIT:    2374189  MISS:    6192267  HIT %:     27.715  MISS %:     72.285   MPKI: 30.9613
L2C LOAD      TOTAL       ACCESS:    5103009  HIT:    1462846  MISS:    3640163  HIT %:    28.6663  MISS %:    71.3337   MPKI: 18.2008
L2C LOAD      NON_SPEC    ACCESS:    1119113  HIT:      17908  MISS:    1101205  HIT %:     1.6002  MISS %:    98.3998   MPKI: 5.50603
L2C LOAD      SPEC        ACCESS:    3983896  HIT:    1444938  MISS:    2538958  HIT %:    36.2695  MISS %:    63.7305   MPKI: 12.6948
L2C RFO       NON_SPEC    ACCESS:       1606  HIT:          1  MISS:       1605  HIT %:  0.0622665  MISS %:    99.9377   MPKI: 0.008025
L2C WRITEBACK NON_SPEC    ACCESS:       4481  HIT:       4481  MISS:          0  HIT %:        100  MISS %:          0   MPKI: 0
L2C CLEAN_EVICTION NON_SPEC    ACCESS:    3145438  HIT:     608126  MISS:    2537312  HIT %:    19.3336  MISS %:    80.6664   MPKI: 12.6866
L2C COMMIT LOAD NON_SPEC    ACCESS:       6978  HIT:       5153  MISS:       1825  HIT %:    73.8464  MISS %:    26.1536   MPKI: 0.009125
L2C LOAD TRANSLATION NON_SPEC    ACCESS:     304944  HIT:     293582  MISS:      11362  HIT %:    96.2741  MISS %:    3.72593   MPKI: 0.05681
L2C PREFETCH  REQUESTED:          0  ISSUED:          0  USEFUL:          0  USELESS:          0
L2C USEFUL LOAD PREFETCHES:          0 PREFETCH ISSUED TO LOWER LEVEL:          0  ACCURACY: -nan
L2C TIMELY PREFETCHES:          0 LATE PREFETCHES: 0 DROPPED PREFETCHES: 0
L2C COMMIT LATE PREFETCHES: 0 MISSED OPPORTUNITY: 0 LATE IN PQ: 0 UNCOVERED: 0
L2C COMMIT LATE MSHR PREFETCHES: 0
L2C MPKI TOTAL: 18.2008 MSHR LATE: 0 PQ LATE: 0 COMMIT LATE: 0 MISSED OPPORTUNITY: 0 UNCOVERED: 0
L2C PREFETCHES SAME FILL-ORIGIN LEVEL: 0 DIFFERENT FILL-ORIGIN LEVEL: 0
L2C AVERAGE MISS LATENCY: 83.2854 cycles
L2C AVERAGE MISS LATENCY LOAD: 140.953 cycles
L2C AVERAGE MISS LATENCY PREFETCH: -nan cycles
L2C AVERAGE MSHR OCCUPANCY: 0.0755173
L2C MSHR FULL: 0
L2C RQ	ACCESS:    5416740	FORWARD:          0	MERGED:          0	TO_CACHE:    5416537
L2C WQ	ACCESS:    3149919	FORWARD:        203	MERGED:          0	TO_CACHE:    3149919

L2C Instructions Evicting Data 0
L2C Translations Evicting Data 11341
L2C Data Evicting Data 1101106
L2C Instructions Evicting Instructions 0
L2C Translations Evicting Instructions 0
L2C Data Evicting Instructions 0
L2C Instructions Evicting Translations 0
L2C Translations Evicting Translations 21
L2C Data Evicting Translations 3529
L2C Dense regions hint from L2: 0
PSCL5 SPEC fills:          0  NON-SPEC fills:          0
PSCL5 Test counter :          0
PSCL5 Leapfrog:          0
PSCL5 MSHR merge:          0
PSCL5 TOTAL     ACCESS:          0  HIT:          0  MISS:          0  HIT %:       -nan  MISS %:       -nan   MPKI: 0
PSCL5 PREFETCH  REQUESTED:          0  ISSUED:          0  USEFUL:          0  USELESS:          0
PSCL5 USEFUL LOAD PREFETCHES:          0 PREFETCH ISSUED TO LOWER LEVEL:          0  ACCURACY: -nan
PSCL5 TIMELY PREFETCHES:          0 LATE PREFETCHES: 0 DROPPED PREFETCHES: 0
PSCL5 COMMIT LATE PREFETCHES: 0 MISSED OPPORTUNITY: 0 LATE IN PQ: 0 UNCOVERED: 0
PSCL5 COMMIT LATE MSHR PREFETCHES: 0
PSCL5 MPKI TOTAL: 0 MSHR LATE: 0 PQ LATE: 0 COMMIT LATE: 0 MISSED OPPORTUNITY: 0 UNCOVERED: 0
PSCL5 PREFETCHES SAME FILL-ORIGIN LEVEL: 0 DIFFERENT FILL-ORIGIN LEVEL: 0

PSCL4 SPEC fills:          0  NON-SPEC fills:          0
PSCL4 Test counter :          0
PSCL4 Leapfrog:          0
PSCL4 MSHR merge:          0
PSCL4 TOTAL     ACCESS:          0  HIT:          0  MISS:          0  HIT %:       -nan  MISS %:       -nan   MPKI: 0
PSCL4 PREFETCH  REQUESTED:          0  ISSUED:          0  USEFUL:          0  USELESS:          0
PSCL4 USEFUL LOAD PREFETCHES:          0 PREFETCH ISSUED TO LOWER LEVEL:          0  ACCURACY: -nan
PSCL4 TIMELY PREFETCHES:          0 LATE PREFETCHES: 0 DROPPED PREFETCHES: 0
PSCL4 COMMIT LATE PREFETCHES: 0 MISSED OPPORTUNITY: 0 LATE IN PQ: 0 UNCOVERED: 0
PSCL4 COMMIT LATE MSHR PREFETCHES: 0
PSCL4 MPKI TOTAL: 0 MSHR LATE: 0 PQ LATE: 0 COMMIT LATE: 0 MISSED OPPORTUNITY: 0 UNCOVERED: 0
PSCL4 PREFETCHES SAME FILL-ORIGIN LEVEL: 0 DIFFERENT FILL-ORIGIN LEVEL: 0

PSCL3 SPEC fills:          0  NON-SPEC fills:          0
PSCL3 Test counter :          0
PSCL3 Leapfrog:          0
PSCL3 MSHR merge:          0
PSCL3 TOTAL     ACCESS:          0  HIT:          0  MISS:          0  HIT %:       -nan  MISS %:       -nan   MPKI: 0
PSCL3 PREFETCH  REQUESTED:          0  ISSUED:          0  USEFUL:          0  USELESS:          0
PSCL3 USEFUL LOAD PREFETCHES:          0 PREFETCH ISSUED TO LOWER LEVEL:          0  ACCURACY: -nan
PSCL3 TIMELY PREFETCHES:          0 LATE PREFETCHES: 0 DROPPED PREFETCHES: 0
PSCL3 COMMIT LATE PREFETCHES: 0 MISSED OPPORTUNITY: 0 LATE IN PQ: 0 UNCOVERED: 0
PSCL3 COMMIT LATE MSHR PREFETCHES: 0
PSCL3 MPKI TOTAL: 0 MSHR LATE: 0 PQ LATE: 0 COMMIT LATE: 0 MISSED OPPORTUNITY: 0 UNCOVERED: 0
PSCL3 PREFETCHES SAME FILL-ORIGIN LEVEL: 0 DIFFERENT FILL-ORIGIN LEVEL: 0

PSCL2 SPEC fills:          0  NON-SPEC fills:          0
PSCL2 Test counter :          0
PSCL2 Leapfrog:          0
PSCL2 MSHR merge:          0
PSCL2 TOTAL     ACCESS:          0  HIT:          0  MISS:          0  HIT %:       -nan  MISS %:       -nan   MPKI: 0
PSCL2 PREFETCH  REQUESTED:          0  ISSUED:          0  USEFUL:          0  USELESS:          0
PSCL2 USEFUL LOAD PREFETCHES:          0 PREFETCH ISSUED TO LOWER LEVEL:          0  ACCURACY: -nan
PSCL2 TIMELY PREFETCHES:          0 LATE PREFETCHES: 0 DROPPED PREFETCHES: 0
PSCL2 COMMIT LATE PREFETCHES: 0 MISSED OPPORTUNITY: 0 LATE IN PQ: 0 UNCOVERED: 0
PSCL2 COMMIT LATE MSHR PREFETCHES: 0
PSCL2 MPKI TOTAL: 0 MSHR LATE: 0 PQ LATE: 0 COMMIT LATE: 0 MISSED OPPORTUNITY: 0 UNCOVERED: 0
PSCL2 PREFETCHES SAME FILL-ORIGIN LEVEL: 0 DIFFERENT FILL-ORIGIN LEVEL: 0

LLC SPEC fills:          0  NON-SPEC fills:    1100488
LLC Test counter :    2971443
LLC Leapfrog:          0
LLC MSHR merge:          0
LLC TOTAL     ACCESS:    6706046  HIT:     682475  MISS:    6023571  HIT %:     10.177  MISS %:     89.823   MPKI: 30.1179
LLC LOAD      TOTAL       ACCESS:    3640157  HIT:      86064  MISS:    3554093  HIT %:    2.36429  MISS %:    97.6357   MPKI: 17.7705
LLC LOAD      NON_SPEC    ACCESS:    1101205  HIT:        717  MISS:    1100488  HIT %:  0.0651105  MISS %:    99.9349   MPKI: 5.50244
LLC LOAD      SPEC        ACCESS:    2538952  HIT:      85347  MISS:    2453605  HIT %:    3.36151  MISS %:    96.6385   MPKI: 12.268
LLC RFO       NON_SPEC    ACCESS:       1605  HIT:          0  MISS:       1605  HIT %:          0  MISS %:        100   MPKI: 0.008025
LLC WRITEBACK NON_SPEC    ACCESS:       1619  HIT:       1619  MISS:          0  HIT %:        100  MISS %:          0   MPKI: 0
LLC CLEAN_EVICTION NON_SPEC    ACCESS:    3049478  HIT:     593782  MISS:    2455696  HIT %:    19.4716  MISS %:    80.5284   MPKI: 12.2785
LLC COMMIT LOAD NON_SPEC    ACCESS:       1825  HIT:        123  MISS:       1702  HIT %:    6.73973  MISS %:    93.2603   MPKI: 0.00851
LLC LOAD TRANSLATION NON_SPEC    ACCESS:      11362  HIT:        887  MISS:      10475  HIT %:    7.80672  MISS %:    92.1933   MPKI: 0.052375
LLC PREFETCH  REQUESTED:          0  ISSUED:          0  USEFUL:          0  USELESS:          0
LLC USEFUL LOAD PREFETCHES:          0 PREFETCH ISSUED TO LOWER LEVEL:          0  ACCURACY: -nan
LLC TIMELY PREFETCHES:          0 LATE PREFETCHES: 0 DROPPED PREFETCHES: 0
LLC COMMIT LATE PREFETCHES: 0 MISSED OPPORTUNITY: 0 LATE IN PQ: 0 UNCOVERED: 0
LLC COMMIT LATE MSHR PREFETCHES: 0
LLC MPKI TOTAL: 17.7705 MSHR LATE: 0 PQ LATE: 0 COMMIT LATE: 0 MISSED OPPORTUNITY: 0 UNCOVERED: 0
LLC PREFETCHES SAME FILL-ORIGIN LEVEL: 0 DIFFERENT FILL-ORIGIN LEVEL: 0
LLC AVERAGE MISS LATENCY: 71.1996 cycles
LLC AVERAGE MISS LATENCY LOAD: 120.055 cycles
LLC AVERAGE MISS LATENCY PREFETCH: -nan cycles
LLC AVERAGE MSHR OCCUPANCY: 0.0395497
LLC MSHR FULL: 0
LLC RQ	ACCESS:    3654955	FORWARD:          0	MERGED:          0	TO_CACHE:    3654949
LLC WQ	ACCESS:    3051097	FORWARD:          6	MERGED:          0	TO_CACHE:    3051097

LLC Dense regions hint to LLC: 0

RAW hits: 37768
Loads Generated: 55596107
Loads sent to L1D: 55558339
Stores Generated: 19411013
Stores sent to L1D: 19411013
Major fault: 0 Minor fault: 76297
Allocated PAGES: 76297
Total Load insts: 69440900
Total Non-spec loads: 15712620
Percentage of speculative loads: 77.3727

LeapFrogging counter: 0
Commit hits: 17777127 miss: 24654802
Commit hit %: 41.8956 miss %: 58.1044
Commits not translated: 0
Loads retired: 5103210
Stores retired: 19411013
Cache fills: 5103210
L1D response latency: 112.424 cycles
Load retirement latency: 143.423 cycles
OOO test counter: 0
Discarded buffer inserts: 17777127 hits: 14717 hit %: 0.0827862

DRAM Statistics
 CHANNEL 0
 RQ ROW_BUFFER_HIT:    1313003  ROW_BUFFER_MISS:    2254872
 DBUS_CONGESTED:        964
 WQ ROW_BUFFER_HIT:     577162  ROW_BUFFER_MISS:    2395888  FULL:          0

 AVG_CONGESTED_CYCLE: 9
 All warmup complete: 2
Channel 0 Bank busy for read cycles: 0
Channel 0 Bank busy for write cycles: 0
Channel 0
Rank 0
0banks busy for read cycles: 142012422
0banks busy for write cycles: 760640
1banks busy for read cycles: 385691904
1banks busy for write cycles: 138282740
2banks busy for read cycles: 9079278
2banks busy for write cycles: 75381385
3banks busy for read cycles: 12797
3banks busy for write cycles: 39743471
4banks busy for read cycles: 223
4banks busy for write cycles: 22586326
5banks busy for read cycles: 0
5banks busy for write cycles: 15337444
6banks busy for read cycles: 0
6banks busy for write cycles: 12142350
7banks busy for read cycles: 0
7banks busy for write cycles: 10415121
8banks busy for read cycles: 0
8banks busy for write cycles: 12146794

CPU 0 Branch Prediction Accuracy: 99.9621% MPKI: 0.097185 Average ROB Occupancy at Mispredict: 309.675
Branch types
NOT_BRANCH: 148719234 74.3596%
BRANCH_DIRECT_JUMP: 4318197 2.1591%
BRANCH_INDIRECT: 0 0%
BRANCH_CONDITIONAL: 42641844 21.3209%
BRANCH_DIRECT_CALL: 2160361 1.08018%
BRANCH_INDIRECT_CALL: 0 0%
BRANCH_RETURN: 2160362 1.08018%
BRANCH_OTHER: 0 0%

DRAM PAGES: 1048576
Allocated PAGES: 76297
