
*** ChampSim Multicore Out-of-Order Simulator ***

Warmup Instructions: 50000000
Simulation Instructions: 200000000
Number of CPUs: 1
LLC sets: 2048
LLC ways: 16
L0D sets: 16
L0D ways: 2
ROB size: 352
LQ size: 128
SQ size: 72
Secure Berti: OFF
Berti: OFF
Berti Fill: OFF
On commit prefetching: OFF
Hit-based filter: ON
Time-guarding: ON
Free-slotting: ON
Leap-frogging: ON
Train prefetcher on L0D bypass: OFF
No translation penalty for prefetchers: OFF
Prefetch to L0D only: OFF
Prefetch to L1D only: OFF
Clean evictions: ON
Commit loads: ON
Commit write: ON
Fill commit loads to L2C, LLC: ON
DRAM IO FREQUENCY: 6400
ROB SIZE: 352
Off-chip DRAM Size: 4096 MB Channels: 1 Width: 64-bit Data Rate: 6400 MT/s
CPU 0 runs /home/sumon/secure_berti/GhostMinion/../../traces/spec/603.bwaves_s-2931B.champsimtrace.xz
.xz
BTB has LRU replacement policy
ITLB has LRU replacement policy
DTLB has LRU replacement policy
STLB has LRU replacement policy
L1I has LRU replacement policy
L0D has LRU replacement policy
L1D has LRU replacement policy
L2C has LRU replacement policy
LLC has LRU replacement policy
Heartbeat CPU 0 instructions: 10000003 cycles: 3166915 heartbeat IPC: 3.15765 cumulative IPC: 3.15765 (Simulation time: 0 hr 0 min 31 sec) 
Heartbeat CPU 0 instructions: 20000003 cycles: 6333322 heartbeat IPC: 3.15815 cumulative IPC: 3.1579 (Simulation time: 0 hr 1 min 2 sec) 
Heartbeat CPU 0 instructions: 30000003 cycles: 9499899 heartbeat IPC: 3.15798 cumulative IPC: 3.15793 (Simulation time: 0 hr 1 min 33 sec) 
Heartbeat CPU 0 instructions: 40000002 cycles: 12666707 heartbeat IPC: 3.15775 cumulative IPC: 3.15788 (Simulation time: 0 hr 2 min 4 sec) 
Heartbeat CPU 0 instructions: 50000003 cycles: 15833404 heartbeat IPC: 3.15786 cumulative IPC: 3.15788 (Simulation time: 0 hr 2 min 35 sec) 

Warmup complete CPU 0 instructions: 50000003 cycles: 15833404 (Simulation time: 0 hr 2 min 35 sec) 

Heartbeat CPU 0 instructions: 60000003 cycles: 28902833 heartbeat IPC: 0.765144 cumulative IPC: 0.765144 (Simulation time: 0 hr 3 min 22 sec) 
Heartbeat CPU 0 instructions: 70000002 cycles: 42530176 heartbeat IPC: 0.733819 cumulative IPC: 0.749154 (Simulation time: 0 hr 4 min 11 sec) 
Heartbeat CPU 0 instructions: 80000003 cycles: 56204287 heartbeat IPC: 0.731309 cumulative IPC: 0.74311 (Simulation time: 0 hr 5 min 0 sec) 
Heartbeat CPU 0 instructions: 90000000 cycles: 69813383 heartbeat IPC: 0.734802 cumulative IPC: 0.741015 (Simulation time: 0 hr 5 min 49 sec) 
Heartbeat CPU 0 instructions: 100000002 cycles: 83340438 heartbeat IPC: 0.739259 cumulative IPC: 0.740664 (Simulation time: 0 hr 6 min 38 sec) 
Heartbeat CPU 0 instructions: 110000000 cycles: 97170645 heartbeat IPC: 0.723055 cumulative IPC: 0.737669 (Simulation time: 0 hr 7 min 29 sec) 
Heartbeat CPU 0 instructions: 120000000 cycles: 111370566 heartbeat IPC: 0.704229 cumulative IPC: 0.732699 (Simulation time: 0 hr 8 min 21 sec) 
Heartbeat CPU 0 instructions: 130000002 cycles: 125686830 heartbeat IPC: 0.698506 cumulative IPC: 0.728243 (Simulation time: 0 hr 9 min 13 sec) 
Heartbeat CPU 0 instructions: 140000002 cycles: 139928507 heartbeat IPC: 0.702164 cumulative IPC: 0.72525 (Simulation time: 0 hr 10 min 5 sec) 
Heartbeat CPU 0 instructions: 150000003 cycles: 154124370 heartbeat IPC: 0.704431 cumulative IPC: 0.723113 (Simulation time: 0 hr 10 min 57 sec) 
Heartbeat CPU 0 instructions: 160000001 cycles: 168348421 heartbeat IPC: 0.703034 cumulative IPC: 0.72124 (Simulation time: 0 hr 11 min 50 sec) 
Heartbeat CPU 0 instructions: 170000001 cycles: 182544087 heartbeat IPC: 0.70444 cumulative IPC: 0.71981 (Simulation time: 0 hr 12 min 43 sec) 
Heartbeat CPU 0 instructions: 180000000 cycles: 196791725 heartbeat IPC: 0.701871 cumulative IPC: 0.718397 (Simulation time: 0 hr 13 min 35 sec) 
Heartbeat CPU 0 instructions: 190000000 cycles: 210958764 heartbeat IPC: 0.705864 cumulative IPC: 0.717487 (Simulation time: 0 hr 14 min 27 sec) 
Heartbeat CPU 0 instructions: 200000000 cycles: 225146305 heartbeat IPC: 0.704844 cumulative IPC: 0.71663 (Simulation time: 0 hr 15 min 15 sec) 
Heartbeat CPU 0 instructions: 210000002 cycles: 239353881 heartbeat IPC: 0.70385 cumulative IPC: 0.715818 (Simulation time: 0 hr 16 min 1 sec) 
Heartbeat CPU 0 instructions: 220000000 cycles: 253568882 heartbeat IPC: 0.703482 cumulative IPC: 0.71508 (Simulation time: 0 hr 16 min 45 sec) 
Heartbeat CPU 0 instructions: 230000000 cycles: 267874908 heartbeat IPC: 0.699006 cumulative IPC: 0.714168 (Simulation time: 0 hr 17 min 28 sec) 
Heartbeat CPU 0 instructions: 240000000 cycles: 282021925 heartbeat IPC: 0.706863 cumulative IPC: 0.71378 (Simulation time: 0 hr 18 min 9 sec) 
Heartbeat CPU 0 instructions: 250000001 cycles: 296190286 heartbeat IPC: 0.705798 cumulative IPC: 0.713376 (Simulation time: 0 hr 18 min 50 sec) 
Finished CPU 0 instructions: 200000002 cycles: 280356883 cumulative IPC: 0.713376 (Simulation time: 0 hr 18 min 50 sec) 
 Instruction ID: 250000236

ChampSim completed all CPUs

Region of Interest Statistics

CPU 0 cumulative IPC: 0.713376 instructions: 200000002 cycles: 280356883
ITLB SPEC fills:          0  NON-SPEC fills:          0
ITLB Test counter :          0
ITLB Leapfrog:          0
ITLB MSHR merge:          0
ITLB TOTAL     ACCESS:   25353747  HIT:   25353747  MISS:          0  HIT %:        100  MISS %:          0   MPKI: 0
ITLB LOAD TRANSLATION NON_SPEC    ACCESS:   25353747  HIT:   25353747  MISS:          0  HIT %:        100  MISS %:          0   MPKI: 0
ITLB PREFETCH  REQUESTED:          0  ISSUED:          0  USEFUL:          0  USELESS:          0
ITLB USEFUL LOAD PREFETCHES:          0 PREFETCH ISSUED TO LOWER LEVEL:          0  ACCURACY: -nan
ITLB TIMELY PREFETCHES:          0 LATE PREFETCHES: 0 DROPPED PREFETCHES: 0
ITLB COMMIT LATE PREFETCHES: 0 MISSED OPPORTUNITY: 0 LATE IN PQ: 0 UNCOVERED: 0
ITLB COMMIT LATE MSHR PREFETCHES: 0
ITLB MPKI TOTAL: 0 MSHR LATE: 0 PQ LATE: 0 COMMIT LATE: 0 MISSED OPPORTUNITY: 0 UNCOVERED: 0
ITLB PREFETCHES SAME FILL-ORIGIN LEVEL: 0 DIFFERENT FILL-ORIGIN LEVEL: 0
ITLB AVERAGE MISS LATENCY: -nan cycles
ITLB AVERAGE MISS LATENCY LOAD: -nan cycles
ITLB AVERAGE MISS LATENCY PREFETCH: -nan cycles
ITLB AVERAGE MSHR OCCUPANCY: 0
ITLB MSHR FULL: 0
ITLB RQ	ACCESS:   29219134	FORWARD:          0	MERGED:    3865387	TO_CACHE:   25353747

DTLB SPEC fills:          0  NON-SPEC fills:          0
DTLB Test counter :          0
DTLB Leapfrog:          0
DTLB MSHR merge:          0
DTLB TOTAL     ACCESS:   46318726  HIT:   46014827  MISS:     303899  HIT %:    99.3439  MISS %:   0.656104   MPKI: 1.51949
DTLB LOAD TRANSLATION NON_SPEC    ACCESS:   46318726  HIT:   46014827  MISS:     303899  HIT %:    99.3439  MISS %:   0.656104   MPKI: 1.51949
DTLB PREFETCH  REQUESTED:          0  ISSUED:          0  USEFUL:          0  USELESS:          0
DTLB USEFUL LOAD PREFETCHES:          0 PREFETCH ISSUED TO LOWER LEVEL:          0  ACCURACY: -nan
DTLB TIMELY PREFETCHES:          0 LATE PREFETCHES: 0 DROPPED PREFETCHES: 0
DTLB COMMIT LATE PREFETCHES: 0 MISSED OPPORTUNITY: 0 LATE IN PQ: 0 UNCOVERED: 0
DTLB COMMIT LATE MSHR PREFETCHES: 0
DTLB MPKI TOTAL: 0 MSHR LATE: 0 PQ LATE: 0 COMMIT LATE: 0 MISSED OPPORTUNITY: 0 UNCOVERED: 0
DTLB PREFETCHES SAME FILL-ORIGIN LEVEL: 0 DIFFERENT FILL-ORIGIN LEVEL: 0
DTLB AVERAGE MISS LATENCY: 76.4539 cycles
DTLB AVERAGE MISS LATENCY LOAD: -nan cycles
DTLB AVERAGE MISS LATENCY PREFETCH: -nan cycles
DTLB AVERAGE MSHR OCCUPANCY: 0.0707266
DTLB MSHR FULL: 2.80423e-07
DTLB RQ	ACCESS:   71903207	FORWARD:          0	MERGED:   25544728	TO_CACHE:   46358479

STLB SPEC fills:          0  NON-SPEC fills:          0
STLB Test counter :          0
STLB Leapfrog:          0
STLB MSHR merge:          0
STLB TOTAL     ACCESS:     303899  HIT:     261295  MISS:      42604  HIT %:    85.9809  MISS %:    14.0191   MPKI: 0.21302
STLB LOAD TRANSLATION NON_SPEC    ACCESS:     303899  HIT:     261295  MISS:      42604  HIT %:    85.9809  MISS %:    14.0191   MPKI: 0.21302
STLB PREFETCH  REQUESTED:          0  ISSUED:          0  USEFUL:          0  USELESS:          0
STLB USEFUL LOAD PREFETCHES:          0 PREFETCH ISSUED TO LOWER LEVEL:          0  ACCURACY: -nan
STLB TIMELY PREFETCHES:          0 LATE PREFETCHES: 0 DROPPED PREFETCHES: 0
STLB COMMIT LATE PREFETCHES: 0 MISSED OPPORTUNITY: 0 LATE IN PQ: 0 UNCOVERED: 0
STLB COMMIT LATE MSHR PREFETCHES: 0
STLB MPKI TOTAL: 0 MSHR LATE: 0 PQ LATE: 0 COMMIT LATE: 0 MISSED OPPORTUNITY: 0 UNCOVERED: 0
STLB PREFETCHES SAME FILL-ORIGIN LEVEL: 0 DIFFERENT FILL-ORIGIN LEVEL: 0
STLB AVERAGE MISS LATENCY: 480.075 cycles
STLB AVERAGE MISS LATENCY LOAD: -nan cycles
STLB AVERAGE MISS LATENCY PREFETCH: -nan cycles
STLB AVERAGE MSHR OCCUPANCY: 0.256105
STLB MSHR FULL: 0
STLB RQ	ACCESS:     303899	FORWARD:          0	MERGED:          0	TO_CACHE:     303899

STLB Hit, L1D data hit: 0
STLB Hit, L2C data hit: 0
STLB Hit, LLC data hit: 0
STLB Hit, LLC data miss: 0
STLB STLB hints to L2: 0
L0D SPEC fills:   23386126  NON-SPEC fills:          0
L0D TimeGuard Request with older TS:    1255693 Restricted eviction:    2315871 read:     696968
L0D Test counter :          0
L0D Leapfrog:          0
L0D MSHR merge:    2131847
L0D TOTAL     ACCESS:   33122300  HIT:    5668894  MISS:   27453406  HIT %:     17.115  MISS %:     82.885   MPKI: 137.267
L0D LOAD      TOTAL       ACCESS:   33122300  HIT:    5668894  MISS:   27453406  HIT %:     17.115  MISS %:     82.885   MPKI: 137.267
L0D LOAD      NON_SPEC    ACCESS:    2879761  HIT:    1128152  MISS:    1751609  HIT %:    39.1752  MISS %:    60.8248   MPKI: 8.75804
L0D LOAD      SPEC        ACCESS:   30242539  HIT:    4540742  MISS:   25701797  HIT %:    15.0144  MISS %:    84.9856   MPKI: 128.509
L0D PREFETCH  REQUESTED:          0  ISSUED:          0  USEFUL:          0  USELESS:          0
L0D USEFUL LOAD PREFETCHES:          0 PREFETCH ISSUED TO LOWER LEVEL:          0  ACCURACY: -nan
L0D TIMELY PREFETCHES:          0 LATE PREFETCHES: 0 DROPPED PREFETCHES: 0
L0D COMMIT LATE PREFETCHES: 0 MISSED OPPORTUNITY: 0 LATE IN PQ: 0 UNCOVERED: 0
L0D COMMIT LATE MSHR PREFETCHES: 0
L0D MPKI TOTAL: 147.926 MSHR LATE: 0 PQ LATE: 0 COMMIT LATE: 0 MISSED OPPORTUNITY: 0 UNCOVERED: 0
L0D PREFETCHES SAME FILL-ORIGIN LEVEL: 0 DIFFERENT FILL-ORIGIN LEVEL: 0
L0D AVERAGE MISS LATENCY: 21.9271 cycles
L0D AVERAGE MISS LATENCY LOAD: 21.9271 cycles
L0D AVERAGE MISS LATENCY PREFETCH: -nan cycles
L0D AVERAGE MSHR OCCUPANCY: 2.41746
L0D MSHR FULL: 0.00571077
L0D RQ	ACCESS:   45708525	FORWARD:          0	MERGED:   10454378	TO_CACHE:   35254147
L0D WQ	ACCESS:   36649060	FORWARD:          0	MERGED:          0	TO_CACHE:   36649060

L1D SPEC fills:          0  NON-SPEC fills:      25016
L1D Test counter :    1678357
L1D Leapfrog:          0
L1D MSHR merge:      55098
L1D TOTAL     ACCESS:   63437543  HIT:   58036714  MISS:    5400829  HIT %:    91.4864  MISS %:    8.51362   MPKI: 27.0041
L1D LOAD      TOTAL       ACCESS:   27398307  HIT:   25275837  MISS:    2122470  HIT %:    92.2533  MISS %:    7.74672   MPKI: 10.6123
L1D LOAD      NON_SPEC    ACCESS:    1751396  HIT:    1726380  MISS:      25016  HIT %:    98.5717  MISS %:    1.42835   MPKI: 0.12508
L1D LOAD      SPEC        ACCESS:   25646911  HIT:   23549457  MISS:    2097454  HIT %:    91.8218  MISS %:    8.17819   MPKI: 10.4873
L1D RFO       NON_SPEC    ACCESS:   33409574  HIT:   32218198  MISS:    1191376  HIT %:     96.434  MISS %:    3.56597   MPKI: 5.95688
L1D COMMIT LOAD NON_SPEC    ACCESS:     591284  HIT:     500985  MISS:      90299  HIT %:    84.7283  MISS %:    15.2717   MPKI: 0.451495
L1D COMMIT WRITE NON_SPEC    ACCESS:    2038378  HIT:      41694  MISS:    1996684  HIT %:    2.04545  MISS %:    97.9546   MPKI: 9.98342
L1D PREFETCH  REQUESTED:          0  ISSUED:          0  USEFUL:          0  USELESS:          0
L1D USEFUL LOAD PREFETCHES:          0 PREFETCH ISSUED TO LOWER LEVEL:          0  ACCURACY: -nan
L1D TIMELY PREFETCHES:          0 LATE PREFETCHES: 0 DROPPED PREFETCHES: 0
L1D COMMIT LATE PREFETCHES: 0 MISSED OPPORTUNITY: 0 LATE IN PQ: 0 UNCOVERED: 0
L1D COMMIT LATE MSHR PREFETCHES: 0
L1D MPKI TOTAL: 10.8878 MSHR LATE: 0 PQ LATE: 0 COMMIT LATE: 0 MISSED OPPORTUNITY: 0 UNCOVERED: 0
L1D PREFETCHES SAME FILL-ORIGIN LEVEL: 0 DIFFERENT FILL-ORIGIN LEVEL: 0
L1D AVERAGE MISS LATENCY: 191.886 cycles
L1D AVERAGE MISS LATENCY LOAD: 210.219 cycles
L1D AVERAGE MISS LATENCY PREFETCH: -nan cycles
L1D AVERAGE MSHR OCCUPANCY: 3.58943
L1D MSHR FULL: 0
L1D RQ	ACCESS:   28075479	FORWARD:          0	MERGED:      30469	TO_CACHE:   28045010
L1D WQ	ACCESS:   38687444	FORWARD:          0	MERGED:      54278	TO_CACHE:   38633166

L1D UNIQUE REGIONS ACCESSED: 0
L1D REGIONS CONFLICTS: 0
L1D Cross Page Prefetch Requests: 0
L1D Same Page Prefetch Requests: 0
L1D ROI Sum of L1D PQ occupancy: 0
L1D PREFETCHES PUSHED FROM L2C: 0
L1I SPEC fills:          0  NON-SPEC fills:          0
L1I Test counter :          0
L1I Leapfrog:          0
L1I MSHR merge:          0
L1I TOTAL     ACCESS:   29219133  HIT:   29219133  MISS:          0  HIT %:        100  MISS %:          0   MPKI: 0
L1I LOAD      TOTAL       ACCESS:   29219133  HIT:   29219133  MISS:          0  HIT %:        100  MISS %:          0   MPKI: 0
L1I LOAD      NON_SPEC    ACCESS:   29219133  HIT:   29219133  MISS:          0  HIT %:        100  MISS %:          0   MPKI: 0
L1I PREFETCH  REQUESTED:          0  ISSUED:          0  USEFUL:          0  USELESS:          0
L1I USEFUL LOAD PREFETCHES:          0 PREFETCH ISSUED TO LOWER LEVEL:          0  ACCURACY: -nan
L1I TIMELY PREFETCHES:          0 LATE PREFETCHES: 0 DROPPED PREFETCHES: 0
L1I COMMIT LATE PREFETCHES: 0 MISSED OPPORTUNITY: 0 LATE IN PQ: 0 UNCOVERED: 0
L1I COMMIT LATE MSHR PREFETCHES: 0
L1I MPKI TOTAL: 0 MSHR LATE: 0 PQ LATE: 0 COMMIT LATE: 0 MISSED OPPORTUNITY: 0 UNCOVERED: 0
L1I PREFETCHES SAME FILL-ORIGIN LEVEL: 0 DIFFERENT FILL-ORIGIN LEVEL: 0
L1I AVERAGE MISS LATENCY: -nan cycles
L1I AVERAGE MISS LATENCY LOAD: -nan cycles
L1I AVERAGE MISS LATENCY PREFETCH: -nan cycles
L1I AVERAGE MSHR OCCUPANCY: 0
L1I MSHR FULL: 0
L1I RQ	ACCESS:   44616519	FORWARD:          0	MERGED:   15397385	TO_CACHE:   29219134

BTB SPEC fills:          0  NON-SPEC fills:          0
BTB Test counter :          0
BTB Leapfrog:          0
BTB MSHR merge:          0
BTB TOTAL     ACCESS:    1687996  HIT:    1687991  MISS:          5  HIT %:    99.9997  MISS %: 0.000296209   MPKI: 2.5e-05
BTB BRANCH_DIRECT_JUMP	ACCESS:          0  HIT:          0  MISS:          0
BTB BRANCH_INDIRECT	ACCESS:          0  HIT:          0  MISS:          0
BTB BRANCH_CONDITIONAL	ACCESS:    1687996  HIT:    1687991  MISS:          5
BTB BRANCH_DIRECT_CALL	ACCESS:          0  HIT:          0  MISS:          0
BTB BRANCH_INDIRECT_CALL	ACCESS:          0  HIT:          0  MISS:          0
BTB BRANCH_RETURN	ACCESS:          0  HIT:          0  MISS:          0
BTB BRANCH_OTHER ACCESS:          0  HIT:          0  MISS:          0

L2C SPEC fills:          0  NON-SPEC fills:      16731
L2C Test counter :    1663186
L2C Leapfrog:          0
L2C MSHR merge:          0
L2C TOTAL     ACCESS:    6481820  HIT:    1870151  MISS:    4611669  HIT %:    28.8523  MISS %:    71.1477   MPKI: 23.0583
L2C LOAD      TOTAL       ACCESS:    2117279  HIT:     399345  MISS:    1717934  HIT %:    18.8612  MISS %:    81.1388   MPKI: 8.58967
L2C LOAD      NON_SPEC    ACCESS:      24950  HIT:       8219  MISS:      16731  HIT %:    32.9419  MISS %:    67.0581   MPKI: 0.083655
L2C LOAD      SPEC        ACCESS:    2092329  HIT:     391126  MISS:    1701203  HIT %:    18.6933  MISS %:    81.3067   MPKI: 8.50601
L2C RFO       NON_SPEC    ACCESS:    1191265  HIT:        496  MISS:    1190769  HIT %:  0.0416364  MISS %:    99.9584   MPKI: 5.95384
L2C WRITEBACK NON_SPEC    ACCESS:    1191673  HIT:    1191417  MISS:        256  HIT %:    99.9785  MISS %:  0.0214824   MPKI: 0.00128
L2C CLEAN_EVICTION NON_SPEC    ACCESS:    1678357  HIT:      50103  MISS:    1628254  HIT %:    2.98524  MISS %:    97.0148   MPKI: 8.14127
L2C COMMIT LOAD NON_SPEC    ACCESS:      90299  HIT:      21200  MISS:      69099  HIT %:    23.4776  MISS %:    76.5224   MPKI: 0.345495
L2C LOAD TRANSLATION NON_SPEC    ACCESS:     212947  HIT:     207590  MISS:       5357  HIT %:    97.4844  MISS %:    2.51565   MPKI: 0.026785
L2C PREFETCH  REQUESTED:          0  ISSUED:          0  USEFUL:          0  USELESS:          0
L2C USEFUL LOAD PREFETCHES:          0 PREFETCH ISSUED TO LOWER LEVEL:          0  ACCURACY: -nan
L2C TIMELY PREFETCHES:          0 LATE PREFETCHES: 0 DROPPED PREFETCHES: 0
L2C COMMIT LATE PREFETCHES: 0 MISSED OPPORTUNITY: 0 LATE IN PQ: 0 UNCOVERED: 0
L2C COMMIT LATE MSHR PREFETCHES: 0
L2C MPKI TOTAL: 8.58967 MSHR LATE: 0 PQ LATE: 0 COMMIT LATE: 0 MISSED OPPORTUNITY: 0 UNCOVERED: 0
L2C PREFETCHES SAME FILL-ORIGIN LEVEL: 0 DIFFERENT FILL-ORIGIN LEVEL: 0
L2C AVERAGE MISS LATENCY: 215.674 cycles
L2C AVERAGE MISS LATENCY LOAD: 245.926 cycles
L2C AVERAGE MISS LATENCY PREFETCH: -nan cycles
L2C AVERAGE MSHR OCCUPANCY: 3.47843
L2C MSHR FULL: 0
L2C RQ	ACCESS:    3617094	FORWARD:          0	MERGED:          0	TO_CACHE:    3611791
L2C WQ	ACCESS:    2870030	FORWARD:       5303	MERGED:          0	TO_CACHE:    2870030

L2C Instructions Evicting Data 0
L2C Translations Evicting Data 5356
L2C Data Evicting Data 1274197
L2C Instructions Evicting Instructions 0
L2C Translations Evicting Instructions 0
L2C Data Evicting Instructions 0
L2C Instructions Evicting Translations 0
L2C Translations Evicting Translations 1
L2C Data Evicting Translations 2402
L2C Dense regions hint from L2: 0
PSCL5 SPEC fills:          0  NON-SPEC fills:          0
PSCL5 Test counter :          0
PSCL5 Leapfrog:          0
PSCL5 MSHR merge:          0
PSCL5 TOTAL     ACCESS:          0  HIT:          0  MISS:          0  HIT %:       -nan  MISS %:       -nan   MPKI: 0
PSCL5 PREFETCH  REQUESTED:          0  ISSUED:          0  USEFUL:          0  USELESS:          0
PSCL5 USEFUL LOAD PREFETCHES:          0 PREFETCH ISSUED TO LOWER LEVEL:          0  ACCURACY: -nan
PSCL5 TIMELY PREFETCHES:          0 LATE PREFETCHES: 0 DROPPED PREFETCHES: 0
PSCL5 COMMIT LATE PREFETCHES: 0 MISSED OPPORTUNITY: 0 LATE IN PQ: 0 UNCOVERED: 0
PSCL5 COMMIT LATE MSHR PREFETCHES: 0
PSCL5 MPKI TOTAL: 0 MSHR LATE: 0 PQ LATE: 0 COMMIT LATE: 0 MISSED OPPORTUNITY: 0 UNCOVERED: 0
PSCL5 PREFETCHES SAME FILL-ORIGIN LEVEL: 0 DIFFERENT FILL-ORIGIN LEVEL: 0

PSCL4 SPEC fills:          0  NON-SPEC fills:          0
PSCL4 Test counter :          0
PSCL4 Leapfrog:          0
PSCL4 MSHR merge:          0
PSCL4 TOTAL     ACCESS:          0  HIT:          0  MISS:          0  HIT %:       -nan  MISS %:       -nan   MPKI: 0
PSCL4 PREFETCH  REQUESTED:          0  ISSUED:          0  USEFUL:          0  USELESS:          0
PSCL4 USEFUL LOAD PREFETCHES:          0 PREFETCH ISSUED TO LOWER LEVEL:          0  ACCURACY: -nan
PSCL4 TIMELY PREFETCHES:          0 LATE PREFETCHES: 0 DROPPED PREFETCHES: 0
PSCL4 COMMIT LATE PREFETCHES: 0 MISSED OPPORTUNITY: 0 LATE IN PQ: 0 UNCOVERED: 0
PSCL4 COMMIT LATE MSHR PREFETCHES: 0
PSCL4 MPKI TOTAL: 0 MSHR LATE: 0 PQ LATE: 0 COMMIT LATE: 0 MISSED OPPORTUNITY: 0 UNCOVERED: 0
PSCL4 PREFETCHES SAME FILL-ORIGIN LEVEL: 0 DIFFERENT FILL-ORIGIN LEVEL: 0

PSCL3 SPEC fills:          0  NON-SPEC fills:          0
PSCL3 Test counter :          0
PSCL3 Leapfrog:          0
PSCL3 MSHR merge:          0
PSCL3 TOTAL     ACCESS:          0  HIT:          0  MISS:          0  HIT %:       -nan  MISS %:       -nan   MPKI: 0
PSCL3 PREFETCH  REQUESTED:          0  ISSUED:          0  USEFUL:          0  USELESS:          0
PSCL3 USEFUL LOAD PREFETCHES:          0 PREFETCH ISSUED TO LOWER LEVEL:          0  ACCURACY: -nan
PSCL3 TIMELY PREFETCHES:          0 LATE PREFETCHES: 0 DROPPED PREFETCHES: 0
PSCL3 COMMIT LATE PREFETCHES: 0 MISSED OPPORTUNITY: 0 LATE IN PQ: 0 UNCOVERED: 0
PSCL3 COMMIT LATE MSHR PREFETCHES: 0
PSCL3 MPKI TOTAL: 0 MSHR LATE: 0 PQ LATE: 0 COMMIT LATE: 0 MISSED OPPORTUNITY: 0 UNCOVERED: 0
PSCL3 PREFETCHES SAME FILL-ORIGIN LEVEL: 0 DIFFERENT FILL-ORIGIN LEVEL: 0

PSCL2 SPEC fills:          0  NON-SPEC fills:          0
PSCL2 Test counter :          0
PSCL2 Leapfrog:          0
PSCL2 MSHR merge:          0
PSCL2 TOTAL     ACCESS:          0  HIT:          0  MISS:          0  HIT %:       -nan  MISS %:       -nan   MPKI: 0
PSCL2 PREFETCH  REQUESTED:          0  ISSUED:          0  USEFUL:          0  USELESS:          0
PSCL2 USEFUL LOAD PREFETCHES:          0 PREFETCH ISSUED TO LOWER LEVEL:          0  ACCURACY: -nan
PSCL2 TIMELY PREFETCHES:          0 LATE PREFETCHES: 0 DROPPED PREFETCHES: 0
PSCL2 COMMIT LATE PREFETCHES: 0 MISSED OPPORTUNITY: 0 LATE IN PQ: 0 UNCOVERED: 0
PSCL2 COMMIT LATE MSHR PREFETCHES: 0
PSCL2 MPKI TOTAL: 0 MSHR LATE: 0 PQ LATE: 0 COMMIT LATE: 0 MISSED OPPORTUNITY: 0 UNCOVERED: 0
PSCL2 PREFETCHES SAME FILL-ORIGIN LEVEL: 0 DIFFERENT FILL-ORIGIN LEVEL: 0

LLC SPEC fills:          0  NON-SPEC fills:      16416
LLC Test counter :    1485434
LLC Leapfrog:          0
LLC MSHR merge:          0
LLC TOTAL     ACCESS:    5837319  HIT:    1583601  MISS:    4253718  HIT %:    27.1289  MISS %:    72.8711   MPKI: 21.2686
LLC LOAD      TOTAL       ACCESS:    1717924  HIT:     178712  MISS:    1539212  HIT %:    10.4028  MISS %:    89.5972   MPKI: 7.69606
LLC LOAD      NON_SPEC    ACCESS:      16731  HIT:        315  MISS:      16416  HIT %:    1.88273  MISS %:    98.1173   MPKI: 0.08208
LLC LOAD      SPEC        ACCESS:    1701193  HIT:     178397  MISS:    1522796  HIT %:    10.4866  MISS %:    89.5134   MPKI: 7.61398
LLC RFO       NON_SPEC    ACCESS:    1190769  HIT:          0  MISS:    1190769  HIT %:          0  MISS %:        100   MPKI: 5.95384
LLC WRITEBACK NON_SPEC    ACCESS:    1190984  HIT:    1190839  MISS:        145  HIT %:    99.9878  MISS %:  0.0121748   MPKI: 0.000725
LLC CLEAN_EVICTION NON_SPEC    ACCESS:    1663186  HIT:     213917  MISS:    1449269  HIT %:    12.8619  MISS %:    87.1381   MPKI: 7.24634
LLC COMMIT LOAD NON_SPEC    ACCESS:      69099  HIT:        120  MISS:      68979  HIT %:   0.173664  MISS %:    99.8263   MPKI: 0.344895
LLC LOAD TRANSLATION NON_SPEC    ACCESS:       5357  HIT:         13  MISS:       5344  HIT %:   0.242673  MISS %:    99.7573   MPKI: 0.02672
LLC PREFETCH  REQUESTED:          0  ISSUED:          0  USEFUL:          0  USELESS:          0
LLC USEFUL LOAD PREFETCHES:          0 PREFETCH ISSUED TO LOWER LEVEL:          0  ACCURACY: -nan
LLC TIMELY PREFETCHES:          0 LATE PREFETCHES: 0 DROPPED PREFETCHES: 0
LLC COMMIT LATE PREFETCHES: 0 MISSED OPPORTUNITY: 0 LATE IN PQ: 0 UNCOVERED: 0
LLC COMMIT LATE MSHR PREFETCHES: 0
LLC MPKI TOTAL: 7.69606 MSHR LATE: 0 PQ LATE: 0 COMMIT LATE: 0 MISSED OPPORTUNITY: 0 UNCOVERED: 0
LLC PREFETCHES SAME FILL-ORIGIN LEVEL: 0 DIFFERENT FILL-ORIGIN LEVEL: 0
LLC AVERAGE MISS LATENCY: 215.98 cycles
LLC AVERAGE MISS LATENCY LOAD: 250.462 cycles
LLC AVERAGE MISS LATENCY PREFETCH: -nan cycles
LLC AVERAGE MSHR OCCUPANCY: 3.18691
LLC MSHR FULL: 0
LLC RQ	ACCESS:    2983160	FORWARD:          0	MERGED:          0	TO_CACHE:    2983150
LLC WQ	ACCESS:    2854171	FORWARD:         10	MERGED:          0	TO_CACHE:    2854171

LLC Dense regions hint to LLC: 0

RAW hits: 12937438
Loads Generated: 58645965
Loads sent to L1D: 45708525
Stores Generated: 36649052
Stores sent to L1D: 36649060
Major fault: 0 Minor fault: 48769
Allocated PAGES: 48769
Total Load insts: 56748319
Total Non-spec loads: 3947187
Percentage of speculative loads: 93.0444

LeapFrogging counter: 79390
Commit hits: 22182934 miss: 20301509
Commit hit %: 52.2143 miss %: 47.7857
Commits not translated: 0
Loads retired: 2122470
Stores retired: 36649060
Cache fills: 2122470
L1D response latency: 210.219 cycles
Load retirement latency: 292.828 cycles
OOO test counter: 0
Discarded buffer inserts: 22182934 hits: 70732 hit %: 0.318858

DRAM Statistics
 CHANNEL 0
 RQ ROW_BUFFER_HIT:    1315545  ROW_BUFFER_MISS:    1488759
 DBUS_CONGESTED:       4752
 WQ ROW_BUFFER_HIT:     951592  ROW_BUFFER_MISS:    1725608  FULL:          0

 AVG_CONGESTED_CYCLE: 5
 All warmup complete: 2
Channel 0 Bank busy for read cycles: 0
Channel 0 Bank busy for write cycles: 0
Channel 0
Rank 0
0banks busy for read cycles: 1596611
0banks busy for write cycles: 188
1banks busy for read cycles: 140206319
1banks busy for write cycles: 448112
2banks busy for read cycles: 48316065
2banks busy for write cycles: 453367
3banks busy for read cycles: 19947426
3banks busy for write cycles: 457540
4banks busy for read cycles: 219259
4banks busy for write cycles: 710475
5banks busy for read cycles: 117
5banks busy for write cycles: 4437190
6banks busy for read cycles: 0
6banks busy for write cycles: 19707837
7banks busy for read cycles: 0
7banks busy for write cycles: 28527131
8banks busy for read cycles: 0
8banks busy for write cycles: 15329247

CPU 0 Branch Prediction Accuracy: 99.9697% MPKI: 0.00256 Average ROB Occupancy at Mispredict: 288.135
Branch types
NOT_BRANCH: 198311846 99.1559%
BRANCH_DIRECT_JUMP: 0 0%
BRANCH_INDIRECT: 0 0%
BRANCH_CONDITIONAL: 1688005 0.844002%
BRANCH_DIRECT_CALL: 0 0%
BRANCH_INDIRECT_CALL: 0 0%
BRANCH_RETURN: 0 0%
BRANCH_OTHER: 0 0%

DRAM PAGES: 1048576
Allocated PAGES: 48769
