
*** ChampSim Multicore Out-of-Order Simulator ***

Warmup Instructions: 50000000
Simulation Instructions: 200000000
Number of CPUs: 1
LLC sets: 2048
LLC ways: 16
L0D sets: 16
L0D ways: 2
ROB size: 352
LQ size: 128
SQ size: 72
Secure Berti: OFF
Berti: OFF
Berti Fill: OFF
On commit prefetching: OFF
Hit-based filter: ON
Time-guarding: ON
Free-slotting: ON
Leap-frogging: ON
Train prefetcher on L0D bypass: OFF
No translation penalty for prefetchers: OFF
Prefetch to L0D only: OFF
Prefetch to L1D only: OFF
Clean evictions: ON
Commit loads: ON
Commit write: ON
Fill commit loads to L2C, LLC: ON
DRAM IO FREQUENCY: 6400
ROB SIZE: 352
Off-chip DRAM Size: 4096 MB Channels: 1 Width: 64-bit Data Rate: 6400 MT/s
CPU 0 runs /home/sumon/secure_berti/GhostMinion/../../traces/spec/603.bwaves_s-891B.champsimtrace.xz
.xz
BTB has LRU replacement policy
ITLB has LRU replacement policy
DTLB has LRU replacement policy
STLB has LRU replacement policy
L1I has LRU replacement policy
L0D has LRU replacement policy
L1D has LRU replacement policy
L2C has LRU replacement policy
LLC has LRU replacement policy
Heartbeat CPU 0 instructions: 10000003 cycles: 2808317 heartbeat IPC: 3.56085 cumulative IPC: 3.56085 (Simulation time: 0 hr 0 min 25 sec) 
Heartbeat CPU 0 instructions: 20000003 cycles: 5616620 heartbeat IPC: 3.56087 cumulative IPC: 3.56086 (Simulation time: 0 hr 0 min 51 sec) 
Heartbeat CPU 0 instructions: 30000003 cycles: 8425116 heartbeat IPC: 3.56062 cumulative IPC: 3.56078 (Simulation time: 0 hr 1 min 17 sec) 
Heartbeat CPU 0 instructions: 40000000 cycles: 11233478 heartbeat IPC: 3.56079 cumulative IPC: 3.56079 (Simulation time: 0 hr 1 min 42 sec) 
Heartbeat CPU 0 instructions: 50000002 cycles: 14177590 heartbeat IPC: 3.39661 cumulative IPC: 3.52669 (Simulation time: 0 hr 2 min 2 sec) 

Warmup complete CPU 0 instructions: 50000002 cycles: 14177590 (Simulation time: 0 hr 2 min 2 sec) 

Heartbeat CPU 0 instructions: 60000003 cycles: 30845595 heartbeat IPC: 0.599952 cumulative IPC: 0.599952 (Simulation time: 0 hr 2 min 38 sec) 
Heartbeat CPU 0 instructions: 70000001 cycles: 47512493 heartbeat IPC: 0.599992 cumulative IPC: 0.599972 (Simulation time: 0 hr 3 min 14 sec) 
Heartbeat CPU 0 instructions: 80000002 cycles: 64187237 heartbeat IPC: 0.599709 cumulative IPC: 0.599884 (Simulation time: 0 hr 3 min 48 sec) 
Heartbeat CPU 0 instructions: 90000001 cycles: 80844156 heartbeat IPC: 0.600351 cumulative IPC: 0.600001 (Simulation time: 0 hr 4 min 22 sec) 
Heartbeat CPU 0 instructions: 100000002 cycles: 97515698 heartbeat IPC: 0.599825 cumulative IPC: 0.599966 (Simulation time: 0 hr 4 min 56 sec) 
Heartbeat CPU 0 instructions: 110000000 cycles: 114179640 heartbeat IPC: 0.600098 cumulative IPC: 0.599988 (Simulation time: 0 hr 5 min 30 sec) 
Heartbeat CPU 0 instructions: 120000001 cycles: 130848866 heartbeat IPC: 0.599908 cumulative IPC: 0.599976 (Simulation time: 0 hr 6 min 4 sec) 
Heartbeat CPU 0 instructions: 130000002 cycles: 147531337 heartbeat IPC: 0.599432 cumulative IPC: 0.599908 (Simulation time: 0 hr 6 min 38 sec) 
Heartbeat CPU 0 instructions: 140000003 cycles: 164212995 heartbeat IPC: 0.599461 cumulative IPC: 0.599858 (Simulation time: 0 hr 7 min 12 sec) 
Heartbeat CPU 0 instructions: 150000001 cycles: 180888466 heartbeat IPC: 0.599683 cumulative IPC: 0.599841 (Simulation time: 0 hr 7 min 47 sec) 
Heartbeat CPU 0 instructions: 160000002 cycles: 197557304 heartbeat IPC: 0.599922 cumulative IPC: 0.599848 (Simulation time: 0 hr 8 min 22 sec) 
Heartbeat CPU 0 instructions: 170000000 cycles: 214227925 heartbeat IPC: 0.599858 cumulative IPC: 0.599849 (Simulation time: 0 hr 8 min 56 sec) 
Heartbeat CPU 0 instructions: 180000001 cycles: 230923118 heartbeat IPC: 0.598975 cumulative IPC: 0.599782 (Simulation time: 0 hr 9 min 30 sec) 
Heartbeat CPU 0 instructions: 190000003 cycles: 257208704 heartbeat IPC: 0.380437 cumulative IPC: 0.576058 (Simulation time: 0 hr 10 min 9 sec) 
Heartbeat CPU 0 instructions: 200000003 cycles: 294303257 heartbeat IPC: 0.269581 cumulative IPC: 0.535474 (Simulation time: 0 hr 10 min 54 sec) 
Heartbeat CPU 0 instructions: 210000003 cycles: 331421881 heartbeat IPC: 0.269407 cumulative IPC: 0.504343 (Simulation time: 0 hr 11 min 39 sec) 
Heartbeat CPU 0 instructions: 220000000 cycles: 368508212 heartbeat IPC: 0.269641 cumulative IPC: 0.479778 (Simulation time: 0 hr 12 min 25 sec) 
Heartbeat CPU 0 instructions: 230000000 cycles: 405644653 heartbeat IPC: 0.269277 cumulative IPC: 0.459809 (Simulation time: 0 hr 13 min 11 sec) 
Heartbeat CPU 0 instructions: 240000002 cycles: 442798847 heartbeat IPC: 0.269149 cumulative IPC: 0.443282 (Simulation time: 0 hr 13 min 58 sec) 
Heartbeat CPU 0 instructions: 250000002 cycles: 479882822 heartbeat IPC: 0.269658 cumulative IPC: 0.429456 (Simulation time: 0 hr 14 min 43 sec) 
Finished CPU 0 instructions: 200000000 cycles: 465705232 cumulative IPC: 0.429456 (Simulation time: 0 hr 14 min 43 sec) 
 Instruction ID: 250000334

ChampSim completed all CPUs

Region of Interest Statistics

CPU 0 cumulative IPC: 0.429456 instructions: 200000000 cycles: 465705232
ITLB SPEC fills:          0  NON-SPEC fills:          0
ITLB Test counter :          0
ITLB Leapfrog:          0
ITLB MSHR merge:          0
ITLB TOTAL     ACCESS:   35154263  HIT:   35154262  MISS:          1  HIT %:        100  MISS %: 2.84461e-06   MPKI: 5e-06
ITLB LOAD TRANSLATION NON_SPEC    ACCESS:   35154263  HIT:   35154262  MISS:          1  HIT %:        100  MISS %: 2.84461e-06   MPKI: 5e-06
ITLB PREFETCH  REQUESTED:          0  ISSUED:          0  USEFUL:          0  USELESS:          0
ITLB USEFUL LOAD PREFETCHES:          0 PREFETCH ISSUED TO LOWER LEVEL:          0  ACCURACY: -nan
ITLB TIMELY PREFETCHES:          0 LATE PREFETCHES: 0 DROPPED PREFETCHES: 0
ITLB COMMIT LATE PREFETCHES: 0 MISSED OPPORTUNITY: 0 LATE IN PQ: 0 UNCOVERED: 0
ITLB COMMIT LATE MSHR PREFETCHES: 0
ITLB MPKI TOTAL: 0 MSHR LATE: 0 PQ LATE: 0 COMMIT LATE: 0 MISSED OPPORTUNITY: 0 UNCOVERED: 0
ITLB PREFETCHES SAME FILL-ORIGIN LEVEL: 0 DIFFERENT FILL-ORIGIN LEVEL: 0
ITLB AVERAGE MISS LATENCY: 1055 cycles
ITLB AVERAGE MISS LATENCY LOAD: -nan cycles
ITLB AVERAGE MISS LATENCY PREFETCH: -nan cycles
ITLB AVERAGE MSHR OCCUPANCY: 2.84461e-08
ITLB MSHR FULL: 0
ITLB RQ	ACCESS:   36663222	FORWARD:          0	MERGED:    1508959	TO_CACHE:   35154263

DTLB SPEC fills:          0  NON-SPEC fills:          0
DTLB Test counter :          0
DTLB Leapfrog:          0
DTLB MSHR merge:          0
DTLB TOTAL     ACCESS:   20541288  HIT:   20480634  MISS:      60654  HIT %:    99.7047  MISS %:   0.295278   MPKI: 0.30327
DTLB LOAD TRANSLATION NON_SPEC    ACCESS:   20541288  HIT:   20480634  MISS:      60654  HIT %:    99.7047  MISS %:   0.295278   MPKI: 0.30327
DTLB PREFETCH  REQUESTED:          0  ISSUED:          0  USEFUL:          0  USELESS:          0
DTLB USEFUL LOAD PREFETCHES:          0 PREFETCH ISSUED TO LOWER LEVEL:          0  ACCURACY: -nan
DTLB TIMELY PREFETCHES:          0 LATE PREFETCHES: 0 DROPPED PREFETCHES: 0
DTLB COMMIT LATE PREFETCHES: 0 MISSED OPPORTUNITY: 0 LATE IN PQ: 0 UNCOVERED: 0
DTLB COMMIT LATE MSHR PREFETCHES: 0
DTLB MPKI TOTAL: 0 MSHR LATE: 0 PQ LATE: 0 COMMIT LATE: 0 MISSED OPPORTUNITY: 0 UNCOVERED: 0
DTLB PREFETCHES SAME FILL-ORIGIN LEVEL: 0 DIFFERENT FILL-ORIGIN LEVEL: 0
DTLB AVERAGE MISS LATENCY: 162.118 cycles
DTLB AVERAGE MISS LATENCY LOAD: -nan cycles
DTLB AVERAGE MISS LATENCY PREFETCH: -nan cycles
DTLB AVERAGE MSHR OCCUPANCY: 0.00638853
DTLB MSHR FULL: 0
DTLB RQ	ACCESS:   22655527	FORWARD:          0	MERGED:    2073339	TO_CACHE:   20582188

STLB SPEC fills:          0  NON-SPEC fills:          0
STLB Test counter :          0
STLB Leapfrog:          0
STLB MSHR merge:          0
STLB TOTAL     ACCESS:      60655  HIT:        337  MISS:      60318  HIT %:   0.555601  MISS %:    99.4444   MPKI: 0.30159
STLB LOAD TRANSLATION NON_SPEC    ACCESS:      60655  HIT:        337  MISS:      60318  HIT %:   0.555601  MISS %:    99.4444   MPKI: 0.30159
STLB PREFETCH  REQUESTED:          0  ISSUED:          0  USEFUL:          0  USELESS:          0
STLB USEFUL LOAD PREFETCHES:          0 PREFETCH ISSUED TO LOWER LEVEL:          0  ACCURACY: -nan
STLB TIMELY PREFETCHES:          0 LATE PREFETCHES: 0 DROPPED PREFETCHES: 0
STLB COMMIT LATE PREFETCHES: 0 MISSED OPPORTUNITY: 0 LATE IN PQ: 0 UNCOVERED: 0
STLB COMMIT LATE MSHR PREFETCHES: 0
STLB MPKI TOTAL: 0 MSHR LATE: 0 PQ LATE: 0 COMMIT LATE: 0 MISSED OPPORTUNITY: 0 UNCOVERED: 0
STLB PREFETCHES SAME FILL-ORIGIN LEVEL: 0 DIFFERENT FILL-ORIGIN LEVEL: 0
STLB AVERAGE MISS LATENCY: 153.985 cycles
STLB AVERAGE MISS LATENCY LOAD: -nan cycles
STLB AVERAGE MISS LATENCY PREFETCH: -nan cycles
STLB AVERAGE MSHR OCCUPANCY: 1.64867e-05
STLB MSHR FULL: 0
STLB RQ	ACCESS:      60655	FORWARD:          0	MERGED:          0	TO_CACHE:      60655

STLB Hit, L1D data hit: 0
STLB Hit, L2C data hit: 0
STLB Hit, LLC data hit: 0
STLB Hit, LLC data miss: 0
STLB STLB hints to L2: 0
L0D SPEC fills:    7444881  NON-SPEC fills:          0
L0D TimeGuard Request with older TS:      23982 Restricted eviction:       3709 read:          0
L0D Test counter :          0
L0D Leapfrog:          0
L0D MSHR merge:    7536209
L0D TOTAL     ACCESS:   11743495  HIT:    2550040  MISS:    9193455  HIT %:    21.7145  MISS %:    78.2855   MPKI: 45.9673
L0D LOAD      TOTAL       ACCESS:   11743495  HIT:    2550040  MISS:    9193455  HIT %:    21.7145  MISS %:    78.2855   MPKI: 45.9673
L0D LOAD      NON_SPEC    ACCESS:    1851727  HIT:     106862  MISS:    1744865  HIT %:    5.77094  MISS %:    94.2291   MPKI: 8.72433
L0D LOAD      SPEC        ACCESS:    9891768  HIT:    2443178  MISS:    7448590  HIT %:    24.6991  MISS %:    75.3009   MPKI: 37.243
L0D PREFETCH  REQUESTED:          0  ISSUED:          0  USEFUL:          0  USELESS:          0
L0D USEFUL LOAD PREFETCHES:          0 PREFETCH ISSUED TO LOWER LEVEL:          0  ACCURACY: -nan
L0D TIMELY PREFETCHES:          0 LATE PREFETCHES: 0 DROPPED PREFETCHES: 0
L0D COMMIT LATE PREFETCHES: 0 MISSED OPPORTUNITY: 0 LATE IN PQ: 0 UNCOVERED: 0
L0D COMMIT LATE MSHR PREFETCHES: 0
L0D MPKI TOTAL: 83.6483 MSHR LATE: 0 PQ LATE: 0 COMMIT LATE: 0 MISSED OPPORTUNITY: 0 UNCOVERED: 0
L0D PREFETCHES SAME FILL-ORIGIN LEVEL: 0 DIFFERENT FILL-ORIGIN LEVEL: 0
L0D AVERAGE MISS LATENCY: 92.9073 cycles
L0D AVERAGE MISS LATENCY LOAD: 92.9073 cycles
L0D AVERAGE MISS LATENCY PREFETCH: -nan cycles
L0D AVERAGE MSHR OCCUPANCY: 1.28485
L0D MSHR FULL: 0
L0D RQ	ACCESS:   35804820	FORWARD:          0	MERGED:   16525115	TO_CACHE:   19279705
L0D WQ	ACCESS:    3375822	FORWARD:          0	MERGED:          0	TO_CACHE:    3375822

L1D SPEC fills:          0  NON-SPEC fills:     440368
L1D Test counter :    3419833
L1D Leapfrog:          0
L1D MSHR merge:       2511
L1D TOTAL     ACCESS:   24415061  HIT:   16901296  MISS:    7513765  HIT %:    69.2249  MISS %:    30.7751   MPKI: 37.5688
L1D LOAD      TOTAL       ACCESS:    9190944  HIT:    5106022  MISS:    4084922  HIT %:    55.5549  MISS %:    44.4451   MPKI: 20.4246
L1D LOAD      NON_SPEC    ACCESS:    1742372  HIT:    1302004  MISS:     440368  HIT %:    74.7259  MISS %:    25.2741   MPKI: 2.20184
L1D LOAD      SPEC        ACCESS:    7448572  HIT:    3804018  MISS:    3644554  HIT %:    51.0704  MISS %:    48.9296   MPKI: 18.2228
L1D RFO       NON_SPEC    ACCESS:    3375823  HIT:    3375821  MISS:          2  HIT %:    99.9999  MISS %: 5.92448e-05   MPKI: 1e-05
L1D COMMIT LOAD NON_SPEC    ACCESS:    8111127  HIT:    8108547  MISS:       2580  HIT %:    99.9682  MISS %:  0.0318082   MPKI: 0.0129
L1D COMMIT WRITE NON_SPEC    ACCESS:    3737167  HIT:     310906  MISS:    3426261  HIT %:     8.3193  MISS %:    91.6807   MPKI: 17.1313
L1D PREFETCH  REQUESTED:          0  ISSUED:          0  USEFUL:          0  USELESS:          0
L1D USEFUL LOAD PREFETCHES:          0 PREFETCH ISSUED TO LOWER LEVEL:          0  ACCURACY: -nan
L1D TIMELY PREFETCHES:          0 LATE PREFETCHES: 0 DROPPED PREFETCHES: 0
L1D COMMIT LATE PREFETCHES: 0 MISSED OPPORTUNITY: 0 LATE IN PQ: 0 UNCOVERED: 0
L1D COMMIT LATE MSHR PREFETCHES: 0
L1D MPKI TOTAL: 20.4372 MSHR LATE: 0 PQ LATE: 0 COMMIT LATE: 0 MISSED OPPORTUNITY: 0 UNCOVERED: 0
L1D PREFETCHES SAME FILL-ORIGIN LEVEL: 0 DIFFERENT FILL-ORIGIN LEVEL: 0
L1D AVERAGE MISS LATENCY: 107.553 cycles
L1D AVERAGE MISS LATENCY LOAD: 197.604 cycles
L1D AVERAGE MISS LATENCY PREFETCH: -nan cycles
L1D AVERAGE MSHR OCCUPANCY: 0.620338
L1D MSHR FULL: 0
L1D RQ	ACCESS:   30579082	FORWARD:          0	MERGED:   13269349	TO_CACHE:   17309733
L1D WQ	ACCESS:    7112990	FORWARD:          0	MERGED:          0	TO_CACHE:    7112990

L1D UNIQUE REGIONS ACCESSED: 0
L1D REGIONS CONFLICTS: 0
L1D Cross Page Prefetch Requests: 0
L1D Same Page Prefetch Requests: 0
L1D ROI Sum of L1D PQ occupancy: 0
L1D PREFETCHES PUSHED FROM L2C: 0
L1I SPEC fills:          0  NON-SPEC fills:          0
L1I Test counter :          0
L1I Leapfrog:          0
L1I MSHR merge:          1
L1I TOTAL     ACCESS:   36663221  HIT:   36663214  MISS:          7  HIT %:        100  MISS %: 1.90927e-05   MPKI: 3.5e-05
L1I LOAD      TOTAL       ACCESS:   36663221  HIT:   36663214  MISS:          7  HIT %:        100  MISS %: 1.90927e-05   MPKI: 3.5e-05
L1I LOAD      NON_SPEC    ACCESS:   36663221  HIT:   36663214  MISS:          7  HIT %:        100  MISS %: 1.90927e-05   MPKI: 3.5e-05
L1I PREFETCH  REQUESTED:          0  ISSUED:          0  USEFUL:          0  USELESS:          0
L1I USEFUL LOAD PREFETCHES:          0 PREFETCH ISSUED TO LOWER LEVEL:          0  ACCURACY: -nan
L1I TIMELY PREFETCHES:          0 LATE PREFETCHES: 0 DROPPED PREFETCHES: 0
L1I COMMIT LATE PREFETCHES: 0 MISSED OPPORTUNITY: 0 LATE IN PQ: 0 UNCOVERED: 0
L1I COMMIT LATE MSHR PREFETCHES: 0
L1I MPKI TOTAL: 4e-05 MSHR LATE: 0 PQ LATE: 0 COMMIT LATE: 0 MISSED OPPORTUNITY: 0 UNCOVERED: 0
L1I PREFETCHES SAME FILL-ORIGIN LEVEL: 0 DIFFERENT FILL-ORIGIN LEVEL: 0
L1I AVERAGE MISS LATENCY: 214.143 cycles
L1I AVERAGE MISS LATENCY LOAD: 214.143 cycles
L1I AVERAGE MISS LATENCY PREFETCH: -nan cycles
L1I AVERAGE MSHR OCCUPANCY: 1.36376e-07
L1I MSHR FULL: 0
L1I RQ	ACCESS:   45764271	FORWARD:          0	MERGED:    9101049	TO_CACHE:   36663222

BTB SPEC fills:          0  NON-SPEC fills:          0
BTB Test counter :          0
BTB Leapfrog:          0
BTB MSHR merge:          0
BTB TOTAL     ACCESS:   30088229  HIT:   30088218  MISS:         11  HIT %:        100  MISS %: 3.65591e-05   MPKI: 5.5e-05
BTB BRANCH_DIRECT_JUMP	ACCESS:    1387299  HIT:    1387297  MISS:          2
BTB BRANCH_INDIRECT	ACCESS:          0  HIT:          0  MISS:          0
BTB BRANCH_CONDITIONAL	ACCESS:   28700930  HIT:   28700921  MISS:          9
BTB BRANCH_DIRECT_CALL	ACCESS:          0  HIT:          0  MISS:          0
BTB BRANCH_INDIRECT_CALL	ACCESS:          0  HIT:          0  MISS:          0
BTB BRANCH_RETURN	ACCESS:          0  HIT:          0  MISS:          0
BTB BRANCH_OTHER ACCESS:          0  HIT:          0  MISS:          0

L2C SPEC fills:          0  NON-SPEC fills:     439800
L2C Test counter :    3421348
L2C Leapfrog:          0
L2C MSHR merge:          0
L2C TOTAL     ACCESS:    7808855  HIT:     301692  MISS:    7507163  HIT %:    3.86346  MISS %:    96.1365   MPKI: 37.5358
L2C LOAD      TOTAL       ACCESS:    4084929  HIT:       7214  MISS:    4077715  HIT %:     0.1766  MISS %:    99.8234   MPKI: 20.3886
L2C LOAD      NON_SPEC    ACCESS:     440375  HIT:        568  MISS:     439807  HIT %:   0.128981  MISS %:     99.871   MPKI: 2.19903
L2C LOAD      SPEC        ACCESS:    3644554  HIT:       6646  MISS:    3637908  HIT %:   0.182354  MISS %:    99.8176   MPKI: 18.1895
L2C RFO       NON_SPEC    ACCESS:          2  HIT:          0  MISS:          2  HIT %:          0  MISS %:        100   MPKI: 1e-05
L2C WRITEBACK NON_SPEC    ACCESS:          2  HIT:          1  MISS:          1  HIT %:         50  MISS %:         50   MPKI: 5e-06
L2C CLEAN_EVICTION NON_SPEC    ACCESS:    3419833  HIT:        466  MISS:    3419367  HIT %:  0.0136264  MISS %:    99.9864   MPKI: 17.0968
L2C COMMIT LOAD NON_SPEC    ACCESS:       2580  HIT:         65  MISS:       2515  HIT %:    2.51938  MISS %:    97.4806   MPKI: 0.012575
L2C LOAD TRANSLATION NON_SPEC    ACCESS:     301509  HIT:     293946  MISS:       7563  HIT %:    97.4916  MISS %:    2.50838   MPKI: 0.037815
L2C PREFETCH  REQUESTED:          0  ISSUED:          0  USEFUL:          0  USELESS:          0
L2C USEFUL LOAD PREFETCHES:          0 PREFETCH ISSUED TO LOWER LEVEL:          0  ACCURACY: -nan
L2C TIMELY PREFETCHES:          0 LATE PREFETCHES: 0 DROPPED PREFETCHES: 0
L2C COMMIT LATE PREFETCHES: 0 MISSED OPPORTUNITY: 0 LATE IN PQ: 0 UNCOVERED: 0
L2C COMMIT LATE MSHR PREFETCHES: 0
L2C MPKI TOTAL: 20.3886 MSHR LATE: 0 PQ LATE: 0 COMMIT LATE: 0 MISSED OPPORTUNITY: 0 UNCOVERED: 0
L2C PREFETCHES SAME FILL-ORIGIN LEVEL: 0 DIFFERENT FILL-ORIGIN LEVEL: 0
L2C AVERAGE MISS LATENCY: 101.613 cycles
L2C AVERAGE MISS LATENCY LOAD: 186.457 cycles
L2C AVERAGE MISS LATENCY PREFETCH: -nan cycles
L2C AVERAGE MSHR OCCUPANCY: 0.713582
L2C MSHR FULL: 0
L2C RQ	ACCESS:    4389020	FORWARD:          0	MERGED:          0	TO_CACHE:    4389020
L2C WQ	ACCESS:    3419835	FORWARD:          0	MERGED:          0	TO_CACHE:    3419835

L2C Instructions Evicting Data 7
L2C Translations Evicting Data 7563
L2C Data Evicting Data 441670
L2C Instructions Evicting Instructions 0
L2C Translations Evicting Instructions 0
L2C Data Evicting Instructions 2
L2C Instructions Evicting Translations 0
L2C Translations Evicting Translations 0
L2C Data Evicting Translations 645
L2C Dense regions hint from L2: 0
PSCL5 SPEC fills:          0  NON-SPEC fills:          0
PSCL5 Test counter :          0
PSCL5 Leapfrog:          0
PSCL5 MSHR merge:          0
PSCL5 TOTAL     ACCESS:          0  HIT:          0  MISS:          0  HIT %:       -nan  MISS %:       -nan   MPKI: 0
PSCL5 PREFETCH  REQUESTED:          0  ISSUED:          0  USEFUL:          0  USELESS:          0
PSCL5 USEFUL LOAD PREFETCHES:          0 PREFETCH ISSUED TO LOWER LEVEL:          0  ACCURACY: -nan
PSCL5 TIMELY PREFETCHES:          0 LATE PREFETCHES: 0 DROPPED PREFETCHES: 0
PSCL5 COMMIT LATE PREFETCHES: 0 MISSED OPPORTUNITY: 0 LATE IN PQ: 0 UNCOVERED: 0
PSCL5 COMMIT LATE MSHR PREFETCHES: 0
PSCL5 MPKI TOTAL: 0 MSHR LATE: 0 PQ LATE: 0 COMMIT LATE: 0 MISSED OPPORTUNITY: 0 UNCOVERED: 0
PSCL5 PREFETCHES SAME FILL-ORIGIN LEVEL: 0 DIFFERENT FILL-ORIGIN LEVEL: 0

PSCL4 SPEC fills:          0  NON-SPEC fills:          0
PSCL4 Test counter :          0
PSCL4 Leapfrog:          0
PSCL4 MSHR merge:          0
PSCL4 TOTAL     ACCESS:          0  HIT:          0  MISS:          0  HIT %:       -nan  MISS %:       -nan   MPKI: 0
PSCL4 PREFETCH  REQUESTED:          0  ISSUED:          0  USEFUL:          0  USELESS:          0
PSCL4 USEFUL LOAD PREFETCHES:          0 PREFETCH ISSUED TO LOWER LEVEL:          0  ACCURACY: -nan
PSCL4 TIMELY PREFETCHES:          0 LATE PREFETCHES: 0 DROPPED PREFETCHES: 0
PSCL4 COMMIT LATE PREFETCHES: 0 MISSED OPPORTUNITY: 0 LATE IN PQ: 0 UNCOVERED: 0
PSCL4 COMMIT LATE MSHR PREFETCHES: 0
PSCL4 MPKI TOTAL: 0 MSHR LATE: 0 PQ LATE: 0 COMMIT LATE: 0 MISSED OPPORTUNITY: 0 UNCOVERED: 0
PSCL4 PREFETCHES SAME FILL-ORIGIN LEVEL: 0 DIFFERENT FILL-ORIGIN LEVEL: 0

PSCL3 SPEC fills:          0  NON-SPEC fills:          0
PSCL3 Test counter :          0
PSCL3 Leapfrog:          0
PSCL3 MSHR merge:          0
PSCL3 TOTAL     ACCESS:          0  HIT:          0  MISS:          0  HIT %:       -nan  MISS %:       -nan   MPKI: 0
PSCL3 PREFETCH  REQUESTED:          0  ISSUED:          0  USEFUL:          0  USELESS:          0
PSCL3 USEFUL LOAD PREFETCHES:          0 PREFETCH ISSUED TO LOWER LEVEL:          0  ACCURACY: -nan
PSCL3 TIMELY PREFETCHES:          0 LATE PREFETCHES: 0 DROPPED PREFETCHES: 0
PSCL3 COMMIT LATE PREFETCHES: 0 MISSED OPPORTUNITY: 0 LATE IN PQ: 0 UNCOVERED: 0
PSCL3 COMMIT LATE MSHR PREFETCHES: 0
PSCL3 MPKI TOTAL: 0 MSHR LATE: 0 PQ LATE: 0 COMMIT LATE: 0 MISSED OPPORTUNITY: 0 UNCOVERED: 0
PSCL3 PREFETCHES SAME FILL-ORIGIN LEVEL: 0 DIFFERENT FILL-ORIGIN LEVEL: 0

PSCL2 SPEC fills:          0  NON-SPEC fills:          0
PSCL2 Test counter :          0
PSCL2 Leapfrog:          0
PSCL2 MSHR merge:          0
PSCL2 TOTAL     ACCESS:          0  HIT:          0  MISS:          0  HIT %:       -nan  MISS %:       -nan   MPKI: 0
PSCL2 PREFETCH  REQUESTED:          0  ISSUED:          0  USEFUL:          0  USELESS:          0
PSCL2 USEFUL LOAD PREFETCHES:          0 PREFETCH ISSUED TO LOWER LEVEL:          0  ACCURACY: -nan
PSCL2 TIMELY PREFETCHES:          0 LATE PREFETCHES: 0 DROPPED PREFETCHES: 0
PSCL2 COMMIT LATE PREFETCHES: 0 MISSED OPPORTUNITY: 0 LATE IN PQ: 0 UNCOVERED: 0
PSCL2 COMMIT LATE MSHR PREFETCHES: 0
PSCL2 MPKI TOTAL: 0 MSHR LATE: 0 PQ LATE: 0 COMMIT LATE: 0 MISSED OPPORTUNITY: 0 UNCOVERED: 0
PSCL2 PREFETCHES SAME FILL-ORIGIN LEVEL: 0 DIFFERENT FILL-ORIGIN LEVEL: 0

LLC SPEC fills:          0  NON-SPEC fills:     439697
LLC Test counter :    3425709
LLC Leapfrog:          0
LLC MSHR merge:          0
LLC TOTAL     ACCESS:    7509144  HIT:       3015  MISS:    7506129  HIT %:   0.040151  MISS %:    99.9598   MPKI: 37.5306
LLC LOAD      TOTAL       ACCESS:    4077715  HIT:       1313  MISS:    4076402  HIT %:  0.0321994  MISS %:    99.9678   MPKI: 20.382
LLC LOAD      NON_SPEC    ACCESS:     439807  HIT:        103  MISS:     439704  HIT %:  0.0234194  MISS %:    99.9766   MPKI: 2.19852
LLC LOAD      SPEC        ACCESS:    3637908  HIT:       1210  MISS:    3636698  HIT %:  0.0332609  MISS %:    99.9667   MPKI: 18.1835
LLC RFO       NON_SPEC    ACCESS:          2  HIT:          0  MISS:          2  HIT %:          0  MISS %:        100   MPKI: 1e-05
LLC WRITEBACK NON_SPEC    ACCESS:          2  HIT:          1  MISS:          1  HIT %:         50  MISS %:         50   MPKI: 5e-06
LLC CLEAN_EVICTION NON_SPEC    ACCESS:    3421347  HIT:       1697  MISS:    3419650  HIT %:  0.0496003  MISS %:    99.9504   MPKI: 17.0983
LLC COMMIT LOAD NON_SPEC    ACCESS:       2515  HIT:          4  MISS:       2511  HIT %:   0.159046  MISS %:     99.841   MPKI: 0.012555
LLC LOAD TRANSLATION NON_SPEC    ACCESS:       7563  HIT:          0  MISS:       7563  HIT %:          0  MISS %:        100   MPKI: 0.037815
LLC PREFETCH  REQUESTED:          0  ISSUED:          0  USEFUL:          0  USELESS:          0
LLC USEFUL LOAD PREFETCHES:          0 PREFETCH ISSUED TO LOWER LEVEL:          0  ACCURACY: -nan
LLC TIMELY PREFETCHES:          0 LATE PREFETCHES: 0 DROPPED PREFETCHES: 0
LLC COMMIT LATE PREFETCHES: 0 MISSED OPPORTUNITY: 0 LATE IN PQ: 0 UNCOVERED: 0
LLC COMMIT LATE MSHR PREFETCHES: 0
LLC MPKI TOTAL: 20.382 MSHR LATE: 0 PQ LATE: 0 COMMIT LATE: 0 MISSED OPPORTUNITY: 0 UNCOVERED: 0
LLC PREFETCHES SAME FILL-ORIGIN LEVEL: 0 DIFFERENT FILL-ORIGIN LEVEL: 0
LLC AVERAGE MISS LATENCY: 89.6369 cycles
LLC AVERAGE MISS LATENCY LOAD: 164.513 cycles
LLC AVERAGE MISS LATENCY PREFETCH: -nan cycles
LLC AVERAGE MSHR OCCUPANCY: 0.68391
LLC MSHR FULL: 0
LLC RQ	ACCESS:    4087795	FORWARD:          0	MERGED:          0	TO_CACHE:    4087795
LLC WQ	ACCESS:    3421350	FORWARD:          0	MERGED:          0	TO_CACHE:    3421350

LLC Dense regions hint to LLC: 0

RAW hits: 1
Loads Generated: 35804823
Loads sent to L1D: 35804820
Stores Generated: 3375822
Stores sent to L1D: 3375822
Major fault: 0 Minor fault: 62153
Allocated PAGES: 62153
Total Load insts: 43892572
Total Non-spec loads: 2103003
Percentage of speculative loads: 95.2087

LeapFrogging counter: 0
Commit hits: 7427259 miss: 26525822
Commit hit %: 21.8751 miss %: 78.1249
Commits not translated: 0
Loads retired: 4084920
Stores retired: 3375822
Cache fills: 4084922
L1D response latency: 197.604 cycles
Load retirement latency: 241.096 cycles
OOO test counter: 0
Discarded buffer inserts: 7427259 hits: 214899 hit %: 2.89338

DRAM Statistics
 CHANNEL 0
 RQ ROW_BUFFER_HIT:       2080  ROW_BUFFER_MISS:    4084398
 DBUS_CONGESTED:          0
 WQ ROW_BUFFER_HIT:    2721811  ROW_BUFFER_MISS:     703852  FULL:          0

 AVG_CONGESTED_CYCLE: -
 All warmup complete: 2
Channel 0 Bank busy for read cycles: 0
Channel 0 Bank busy for write cycles: 0
Channel 0
Rank 0
0banks busy for read cycles: 1886465
0banks busy for write cycles: 0
1banks busy for read cycles: 95347084
1banks busy for write cycles: 1883974
2banks busy for read cycles: 153779649
2banks busy for write cycles: 1883707
3banks busy for read cycles: 69952652
3banks busy for write cycles: 1883586
4banks busy for read cycles: 94
4banks busy for write cycles: 1884488
5banks busy for read cycles: 0
5banks busy for write cycles: 1906892
6banks busy for read cycles: 0
6banks busy for write cycles: 2268599
7banks busy for read cycles: 0
7banks busy for write cycles: 9905862
8banks busy for read cycles: 0
8banks busy for write cycles: 123122181

CPU 0 Branch Prediction Accuracy: 99.8669% MPKI: 0.223155 Average ROB Occupancy at Mispredict: 301.17
Branch types
NOT_BRANCH: 166478582 83.2393%
BRANCH_DIRECT_JUMP: 1387299 0.69365%
BRANCH_INDIRECT: 0 0%
BRANCH_CONDITIONAL: 32134381 16.0672%
BRANCH_DIRECT_CALL: 0 0%
BRANCH_INDIRECT_CALL: 0 0%
BRANCH_RETURN: 0 0%
BRANCH_OTHER: 0 0%

DRAM PAGES: 1048576
Allocated PAGES: 62153
