
*** ChampSim Multicore Out-of-Order Simulator ***

Warmup Instructions: 50000000
Simulation Instructions: 200000000
Number of CPUs: 1
LLC sets: 2048
LLC ways: 16
L0D sets: 16
L0D ways: 2
ROB size: 352
LQ size: 128
SQ size: 72
Secure Berti: OFF
Berti: OFF
Berti Fill: OFF
On commit prefetching: OFF
Hit-based filter: ON
Time-guarding: ON
Free-slotting: ON
Leap-frogging: ON
Train prefetcher on L0D bypass: OFF
No translation penalty for prefetchers: OFF
Prefetch to L0D only: OFF
Prefetch to L1D only: OFF
Clean evictions: ON
Commit loads: ON
Commit write: ON
Fill commit loads to L2C, LLC: ON
DRAM IO FREQUENCY: 6400
ROB SIZE: 352
Off-chip DRAM Size: 4096 MB Channels: 1 Width: 64-bit Data Rate: 6400 MT/s
CPU 0 runs /home/sumon/secure_berti/GhostMinion/../../traces/spec/605.mcf_s-1644B.champsimtrace.xz
.xz
BTB has LRU replacement policy
ITLB has LRU replacement policy
DTLB has LRU replacement policy
STLB has LRU replacement policy
L1I has LRU replacement policy
L0D has LRU replacement policy
L1D has LRU replacement policy
L2C has LRU replacement policy
LLC has LRU replacement policy
Heartbeat CPU 0 instructions: 10000003 cycles: 14332208 heartbeat IPC: 0.697729 cumulative IPC: 0.697729 (Simulation time: 0 hr 1 min 4 sec) 
Heartbeat CPU 0 instructions: 20000001 cycles: 28658902 heartbeat IPC: 0.697998 cumulative IPC: 0.697863 (Simulation time: 0 hr 2 min 8 sec) 
Heartbeat CPU 0 instructions: 30000002 cycles: 42985634 heartbeat IPC: 0.697996 cumulative IPC: 0.697908 (Simulation time: 0 hr 3 min 9 sec) 
Heartbeat CPU 0 instructions: 40000001 cycles: 57305021 heartbeat IPC: 0.698354 cumulative IPC: 0.698019 (Simulation time: 0 hr 4 min 7 sec) 
Heartbeat CPU 0 instructions: 50000000 cycles: 71628618 heartbeat IPC: 0.698149 cumulative IPC: 0.698045 (Simulation time: 0 hr 5 min 4 sec) 

Warmup complete CPU 0 instructions: 50000004 cycles: 71628619 (Simulation time: 0 hr 5 min 4 sec) 

Heartbeat CPU 0 instructions: 60000001 cycles: 143319629 heartbeat IPC: 0.139488 cumulative IPC: 0.139487 (Simulation time: 0 hr 6 min 38 sec) 
Heartbeat CPU 0 instructions: 70000001 cycles: 215164424 heartbeat IPC: 0.139189 cumulative IPC: 0.139338 (Simulation time: 0 hr 8 min 13 sec) 
Heartbeat CPU 0 instructions: 80000000 cycles: 287435370 heartbeat IPC: 0.138368 cumulative IPC: 0.139013 (Simulation time: 0 hr 9 min 48 sec) 
Heartbeat CPU 0 instructions: 90000000 cycles: 359591468 heartbeat IPC: 0.138588 cumulative IPC: 0.138907 (Simulation time: 0 hr 11 min 24 sec) 
Heartbeat CPU 0 instructions: 100000003 cycles: 432796038 heartbeat IPC: 0.136604 cumulative IPC: 0.13844 (Simulation time: 0 hr 12 min 59 sec) 
Heartbeat CPU 0 instructions: 110000000 cycles: 506207169 heartbeat IPC: 0.136219 cumulative IPC: 0.138065 (Simulation time: 0 hr 14 min 34 sec) 
Heartbeat CPU 0 instructions: 120000001 cycles: 579864746 heartbeat IPC: 0.135763 cumulative IPC: 0.137731 (Simulation time: 0 hr 16 min 5 sec) 
Heartbeat CPU 0 instructions: 130000000 cycles: 653142148 heartbeat IPC: 0.136468 cumulative IPC: 0.137572 (Simulation time: 0 hr 17 min 33 sec) 
Heartbeat CPU 0 instructions: 140000003 cycles: 724868432 heartbeat IPC: 0.139419 cumulative IPC: 0.137775 (Simulation time: 0 hr 19 min 0 sec) 
Heartbeat CPU 0 instructions: 150000000 cycles: 793923819 heartbeat IPC: 0.144811 cumulative IPC: 0.138448 (Simulation time: 0 hr 20 min 24 sec) 
Heartbeat CPU 0 instructions: 160000002 cycles: 861447884 heartbeat IPC: 0.148095 cumulative IPC: 0.139272 (Simulation time: 0 hr 21 min 49 sec) 
Heartbeat CPU 0 instructions: 170000002 cycles: 930502632 heartbeat IPC: 0.144813 cumulative IPC: 0.139718 (Simulation time: 0 hr 23 min 9 sec) 
Heartbeat CPU 0 instructions: 180000002 cycles: 999800241 heartbeat IPC: 0.144305 cumulative IPC: 0.14006 (Simulation time: 0 hr 24 min 30 sec) 
Heartbeat CPU 0 instructions: 190000000 cycles: 1068786905 heartbeat IPC: 0.144956 cumulative IPC: 0.140399 (Simulation time: 0 hr 25 min 51 sec) 
Heartbeat CPU 0 instructions: 200000001 cycles: 1138945900 heartbeat IPC: 0.142533 cumulative IPC: 0.140539 (Simulation time: 0 hr 27 min 11 sec) 
Heartbeat CPU 0 instructions: 210000003 cycles: 1209057332 heartbeat IPC: 0.14263 cumulative IPC: 0.140668 (Simulation time: 0 hr 28 min 32 sec) 
Heartbeat CPU 0 instructions: 220000000 cycles: 1278974881 heartbeat IPC: 0.143026 cumulative IPC: 0.140805 (Simulation time: 0 hr 29 min 52 sec) 
Heartbeat CPU 0 instructions: 230000003 cycles: 1348773252 heartbeat IPC: 0.14327 cumulative IPC: 0.140939 (Simulation time: 0 hr 31 min 12 sec) 
Heartbeat CPU 0 instructions: 240000000 cycles: 1418949499 heartbeat IPC: 0.142498 cumulative IPC: 0.141021 (Simulation time: 0 hr 32 min 32 sec) 
Heartbeat CPU 0 instructions: 250000000 cycles: 1489234681 heartbeat IPC: 0.142277 cumulative IPC: 0.141083 (Simulation time: 0 hr 33 min 52 sec) 
Finished CPU 0 instructions: 200000000 cycles: 1417606064 cumulative IPC: 0.141083 (Simulation time: 0 hr 33 min 52 sec) 
 Instruction ID: 250000247

ChampSim completed all CPUs

Region of Interest Statistics

CPU 0 cumulative IPC: 0.141083 instructions: 200000000 cycles: 1417606064
ITLB SPEC fills:          0  NON-SPEC fills:          0
ITLB Test counter :          0
ITLB Leapfrog:          0
ITLB MSHR merge:          0
ITLB TOTAL     ACCESS:   34551340  HIT:   34551340  MISS:          0  HIT %:        100  MISS %:          0   MPKI: 0
ITLB LOAD TRANSLATION NON_SPEC    ACCESS:   34551340  HIT:   34551340  MISS:          0  HIT %:        100  MISS %:          0   MPKI: 0
ITLB PREFETCH  REQUESTED:          0  ISSUED:          0  USEFUL:          0  USELESS:          0
ITLB USEFUL LOAD PREFETCHES:          0 PREFETCH ISSUED TO LOWER LEVEL:          0  ACCURACY: -nan
ITLB TIMELY PREFETCHES:          0 LATE PREFETCHES: 0 DROPPED PREFETCHES: 0
ITLB COMMIT LATE PREFETCHES: 0 MISSED OPPORTUNITY: 0 LATE IN PQ: 0 UNCOVERED: 0
ITLB COMMIT LATE MSHR PREFETCHES: 0
ITLB MPKI TOTAL: 0 MSHR LATE: 0 PQ LATE: 0 COMMIT LATE: 0 MISSED OPPORTUNITY: 0 UNCOVERED: 0
ITLB PREFETCHES SAME FILL-ORIGIN LEVEL: 0 DIFFERENT FILL-ORIGIN LEVEL: 0
ITLB AVERAGE MISS LATENCY: -nan cycles
ITLB AVERAGE MISS LATENCY LOAD: -nan cycles
ITLB AVERAGE MISS LATENCY PREFETCH: -nan cycles
ITLB AVERAGE MSHR OCCUPANCY: 0
ITLB MSHR FULL: 0
ITLB RQ	ACCESS:   34554244	FORWARD:          0	MERGED:       2905	TO_CACHE:   34551339

DTLB SPEC fills:          0  NON-SPEC fills:          0
DTLB Test counter :          0
DTLB Leapfrog:          0
DTLB MSHR merge:          0
DTLB TOTAL     ACCESS:   85280693  HIT:   79642168  MISS:    5638525  HIT %:    93.3883  MISS %:    6.61173   MPKI: 28.1926
DTLB LOAD TRANSLATION NON_SPEC    ACCESS:   85280693  HIT:   79642168  MISS:    5638525  HIT %:    93.3883  MISS %:    6.61173   MPKI: 28.1926
DTLB PREFETCH  REQUESTED:          0  ISSUED:          0  USEFUL:          0  USELESS:          0
DTLB USEFUL LOAD PREFETCHES:          0 PREFETCH ISSUED TO LOWER LEVEL:          0  ACCURACY: -nan
DTLB TIMELY PREFETCHES:          0 LATE PREFETCHES: 0 DROPPED PREFETCHES: 0
DTLB COMMIT LATE PREFETCHES: 0 MISSED OPPORTUNITY: 0 LATE IN PQ: 0 UNCOVERED: 0
DTLB COMMIT LATE MSHR PREFETCHES: 0
DTLB MPKI TOTAL: 0 MSHR LATE: 0 PQ LATE: 0 COMMIT LATE: 0 MISSED OPPORTUNITY: 0 UNCOVERED: 0
DTLB PREFETCHES SAME FILL-ORIGIN LEVEL: 0 DIFFERENT FILL-ORIGIN LEVEL: 0
DTLB AVERAGE MISS LATENCY: 686.725 cycles
DTLB AVERAGE MISS LATENCY LOAD: -nan cycles
DTLB AVERAGE MISS LATENCY PREFETCH: -nan cycles
DTLB AVERAGE MSHR OCCUPANCY: 2.49713
DTLB MSHR FULL: 1.86977e-05
DTLB RQ	ACCESS:  133378566	FORWARD:          0	MERGED:   20745391	TO_CACHE:  112633175

STLB SPEC fills:          0  NON-SPEC fills:          0
STLB Test counter :          0
STLB Leapfrog:          0
STLB MSHR merge:          0
STLB TOTAL     ACCESS:    5638525  HIT:     812640  MISS:    4825885  HIT %:    14.4123  MISS %:    85.5877   MPKI: 24.1294
STLB LOAD TRANSLATION NON_SPEC    ACCESS:    5638525  HIT:     812640  MISS:    4825885  HIT %:    14.4123  MISS %:    85.5877   MPKI: 24.1294
STLB PREFETCH  REQUESTED:          0  ISSUED:          0  USEFUL:          0  USELESS:          0
STLB USEFUL LOAD PREFETCHES:          0 PREFETCH ISSUED TO LOWER LEVEL:          0  ACCURACY: -nan
STLB TIMELY PREFETCHES:          0 LATE PREFETCHES: 0 DROPPED PREFETCHES: 0
STLB COMMIT LATE PREFETCHES: 0 MISSED OPPORTUNITY: 0 LATE IN PQ: 0 UNCOVERED: 0
STLB COMMIT LATE MSHR PREFETCHES: 0
STLB MPKI TOTAL: 0 MSHR LATE: 0 PQ LATE: 0 COMMIT LATE: 0 MISSED OPPORTUNITY: 0 UNCOVERED: 0
STLB PREFETCHES SAME FILL-ORIGIN LEVEL: 0 DIFFERENT FILL-ORIGIN LEVEL: 0
STLB AVERAGE MISS LATENCY: 791.793 cycles
STLB AVERAGE MISS LATENCY LOAD: -nan cycles
STLB AVERAGE MISS LATENCY PREFETCH: -nan cycles
STLB AVERAGE MSHR OCCUPANCY: 2.12486
STLB MSHR FULL: 0
STLB RQ	ACCESS:    5638528	FORWARD:          0	MERGED:          0	TO_CACHE:    5638528

STLB Hit, L1D data hit: 0
STLB Hit, L2C data hit: 0
STLB Hit, LLC data hit: 0
STLB Hit, LLC data miss: 0
STLB STLB hints to L2: 0
L0D SPEC fills:   22099666  NON-SPEC fills:          0
L0D TimeGuard Request with older TS:    1727788 Restricted eviction:     171812 read:    3514690
L0D Test counter :          0
L0D Leapfrog:          0
L0D MSHR merge:    3217612
L0D TOTAL     ACCESS:   60187853  HIT:   13501056  MISS:   46686797  HIT %:    22.4315  MISS %:    77.5685   MPKI: 233.434
L0D LOAD      TOTAL       ACCESS:   60187853  HIT:   13501056  MISS:   46686797  HIT %:    22.4315  MISS %:    77.5685   MPKI: 233.434
L0D LOAD      NON_SPEC    ACCESS:   30336448  HIT:    5921049  MISS:   24415399  HIT %:    19.5179  MISS %:    80.4821   MPKI: 122.077
L0D LOAD      SPEC        ACCESS:   29851405  HIT:    7580007  MISS:   22271398  HIT %:    25.3925  MISS %:    74.6075   MPKI: 111.357
L0D PREFETCH  REQUESTED:          0  ISSUED:          0  USEFUL:          0  USELESS:          0
L0D USEFUL LOAD PREFETCHES:          0 PREFETCH ISSUED TO LOWER LEVEL:          0  ACCURACY: -nan
L0D TIMELY PREFETCHES:          0 LATE PREFETCHES: 0 DROPPED PREFETCHES: 0
L0D COMMIT LATE PREFETCHES: 0 MISSED OPPORTUNITY: 0 LATE IN PQ: 0 UNCOVERED: 0
L0D COMMIT LATE MSHR PREFETCHES: 0
L0D MPKI TOTAL: 249.522 MSHR LATE: 0 PQ LATE: 0 COMMIT LATE: 0 MISSED OPPORTUNITY: 0 UNCOVERED: 0
L0D PREFETCHES SAME FILL-ORIGIN LEVEL: 0 DIFFERENT FILL-ORIGIN LEVEL: 0
L0D AVERAGE MISS LATENCY: 45.0722 cycles
L0D AVERAGE MISS LATENCY LOAD: 45.0722 cycles
L0D AVERAGE MISS LATENCY PREFETCH: -nan cycles
L0D AVERAGE MSHR OCCUPANCY: 1.63289
L0D MSHR FULL: 2.0503e-07
L0D RQ	ACCESS:   77162455	FORWARD:          0	MERGED:   13756991	TO_CACHE:   63405464
L0D WQ	ACCESS:   69973102	FORWARD:          0	MERGED:          0	TO_CACHE:   69973102

L1D SPEC fills:          0  NON-SPEC fills:     746925
L1D Test counter :    7628955
L1D Leapfrog:          0
L1D MSHR merge:      19260
L1D TOTAL     ACCESS:   93529697  HIT:   66589618  MISS:   26940079  HIT %:    71.1962  MISS %:    28.8038   MPKI: 134.7
L1D LOAD      TOTAL       ACCESS:   46667537  HIT:   36926641  MISS:    9740896  HIT %:     79.127  MISS %:     20.873   MPKI: 48.7045
L1D LOAD      NON_SPEC    ACCESS:   24404287  HIT:   23657362  MISS:     746925  HIT %:    96.9394  MISS %:    3.06063   MPKI: 3.73462
L1D LOAD      SPEC        ACCESS:   22263250  HIT:   13269279  MISS:    8993971  HIT %:    59.6017  MISS %:    40.3983   MPKI: 44.9699
L1D RFO       NON_SPEC    ACCESS:   32169165  HIT:   23421020  MISS:    8748145  HIT %:    72.8058  MISS %:    27.1942   MPKI: 43.7407
L1D COMMIT LOAD NON_SPEC    ACCESS:    5212103  HIT:    5120195  MISS:      91908  HIT %:    98.2366  MISS %:    1.76336   MPKI: 0.45954
L1D COMMIT WRITE NON_SPEC    ACCESS:    9480892  HIT:    1121762  MISS:    8359130  HIT %:    11.8318  MISS %:    88.1682   MPKI: 41.7957
L1D PREFETCH  REQUESTED:          0  ISSUED:          0  USEFUL:          0  USELESS:          0
L1D USEFUL LOAD PREFETCHES:          0 PREFETCH ISSUED TO LOWER LEVEL:          0  ACCURACY: -nan
L1D TIMELY PREFETCHES:          0 LATE PREFETCHES: 0 DROPPED PREFETCHES: 0
L1D COMMIT LATE PREFETCHES: 0 MISSED OPPORTUNITY: 0 LATE IN PQ: 0 UNCOVERED: 0
L1D COMMIT LATE MSHR PREFETCHES: 0
L1D MPKI TOTAL: 48.8008 MSHR LATE: 0 PQ LATE: 0 COMMIT LATE: 0 MISSED OPPORTUNITY: 0 UNCOVERED: 0
L1D PREFETCHES SAME FILL-ORIGIN LEVEL: 0 DIFFERENT FILL-ORIGIN LEVEL: 0
L1D AVERAGE MISS LATENCY: 167.386 cycles
L1D AVERAGE MISS LATENCY LOAD: 191.44 cycles
L1D AVERAGE MISS LATENCY PREFETCH: -nan cycles
L1D AVERAGE MSHR OCCUPANCY: 3.16542
L1D MSHR FULL: 1.18863e-05
L1D RQ	ACCESS:   55143542	FORWARD:          0	MERGED:    3231837	TO_CACHE:   51908061
L1D WQ	ACCESS:   79454014	FORWARD:       3644	MERGED:    7037287	TO_CACHE:   72416727

L1D UNIQUE REGIONS ACCESSED: 0
L1D REGIONS CONFLICTS: 0
L1D Cross Page Prefetch Requests: 0
L1D Same Page Prefetch Requests: 0
L1D ROI Sum of L1D PQ occupancy: 0
L1D PREFETCHES PUSHED FROM L2C: 0
L1I SPEC fills:          0  NON-SPEC fills:          0
L1I Test counter :          0
L1I Leapfrog:          0
L1I MSHR merge:          0
L1I TOTAL     ACCESS:   34554245  HIT:   34554245  MISS:          0  HIT %:        100  MISS %:          0   MPKI: 0
L1I LOAD      TOTAL       ACCESS:   34554245  HIT:   34554245  MISS:          0  HIT %:        100  MISS %:          0   MPKI: 0
L1I LOAD      NON_SPEC    ACCESS:   34554245  HIT:   34554245  MISS:          0  HIT %:        100  MISS %:          0   MPKI: 0
L1I PREFETCH  REQUESTED:          0  ISSUED:          0  USEFUL:          0  USELESS:          0
L1I USEFUL LOAD PREFETCHES:          0 PREFETCH ISSUED TO LOWER LEVEL:          0  ACCURACY: -nan
L1I TIMELY PREFETCHES:          0 LATE PREFETCHES: 0 DROPPED PREFETCHES: 0
L1I COMMIT LATE PREFETCHES: 0 MISSED OPPORTUNITY: 0 LATE IN PQ: 0 UNCOVERED: 0
L1I COMMIT LATE MSHR PREFETCHES: 0
L1I MPKI TOTAL: 0 MSHR LATE: 0 PQ LATE: 0 COMMIT LATE: 0 MISSED OPPORTUNITY: 0 UNCOVERED: 0
L1I PREFETCHES SAME FILL-ORIGIN LEVEL: 0 DIFFERENT FILL-ORIGIN LEVEL: 0
L1I AVERAGE MISS LATENCY: -nan cycles
L1I AVERAGE MISS LATENCY LOAD: -nan cycles
L1I AVERAGE MISS LATENCY PREFETCH: -nan cycles
L1I AVERAGE MSHR OCCUPANCY: 0
L1I MSHR FULL: 0
L1I RQ	ACCESS:   58263668	FORWARD:          0	MERGED:   23709424	TO_CACHE:   34554244

BTB SPEC fills:          0  NON-SPEC fills:          0
BTB Test counter :          0
BTB Leapfrog:          0
BTB MSHR merge:          0
BTB TOTAL     ACCESS:   20480052  HIT:   20480047  MISS:          5  HIT %:        100  MISS %: 2.4414e-05   MPKI: 2.5e-05
BTB BRANCH_DIRECT_JUMP	ACCESS:    2986818  HIT:    2986817  MISS:          1
BTB BRANCH_INDIRECT	ACCESS:          0  HIT:          0  MISS:          0
BTB BRANCH_CONDITIONAL	ACCESS:    8746602  HIT:    8746600  MISS:          2
BTB BRANCH_DIRECT_CALL	ACCESS:    4373316  HIT:    4373315  MISS:          1
BTB BRANCH_INDIRECT_CALL	ACCESS:          0  HIT:          0  MISS:          0
BTB BRANCH_RETURN	ACCESS:    4373316  HIT:    4373315  MISS:          1
BTB BRANCH_OTHER ACCESS:          0  HIT:          0  MISS:          0

L2C SPEC fills:          0  NON-SPEC fills:     580487
L2C Test counter :    7550816
L2C Leapfrog:          0
L2C MSHR merge:          0
L2C TOTAL     ACCESS:   59839146  HIT:   30649555  MISS:   29189591  HIT %:    51.2199  MISS %:    48.7801   MPKI: 145.948
L2C LOAD      TOTAL       ACCESS:    9740752  HIT:    1023618  MISS:    8717134  HIT %:    10.5086  MISS %:    89.4914   MPKI: 43.5857
L2C LOAD      NON_SPEC    ACCESS:     746898  HIT:     166411  MISS:     580487  HIT %:    22.2803  MISS %:    77.7197   MPKI: 2.90244
L2C LOAD      SPEC        ACCESS:    8993854  HIT:     857207  MISS:    8136647  HIT %:    9.53103  MISS %:     90.469   MPKI: 40.6832
L2C RFO       NON_SPEC    ACCESS:    8747975  HIT:       2580  MISS:    8745395  HIT %:  0.0294925  MISS %:    99.9705   MPKI: 43.727
L2C WRITEBACK NON_SPEC    ACCESS:    9500280  HIT:    9499969  MISS:        311  HIT %:    99.9967  MISS %: 0.00327359   MPKI: 0.001555
L2C CLEAN_EVICTION NON_SPEC    ACCESS:    7628955  HIT:      87728  MISS:    7541227  HIT %:    1.14993  MISS %:    98.8501   MPKI: 37.7061
L2C COMMIT LOAD NON_SPEC    ACCESS:      91908  HIT:      24060  MISS:      67848  HIT %:    26.1784  MISS %:    73.8216   MPKI: 0.33924
L2C LOAD TRANSLATION NON_SPEC    ACCESS:   24129276  HIT:   20011600  MISS:    4117676  HIT %:    82.9349  MISS %:    17.0651   MPKI: 20.5884
L2C PREFETCH  REQUESTED:          0  ISSUED:          0  USEFUL:          0  USELESS:          0
L2C USEFUL LOAD PREFETCHES:          0 PREFETCH ISSUED TO LOWER LEVEL:          0  ACCURACY: -nan
L2C TIMELY PREFETCHES:          0 LATE PREFETCHES: 0 DROPPED PREFETCHES: 0
L2C COMMIT LATE PREFETCHES: 0 MISSED OPPORTUNITY: 0 LATE IN PQ: 0 UNCOVERED: 0
L2C COMMIT LATE MSHR PREFETCHES: 0
L2C MPKI TOTAL: 43.5857 MSHR LATE: 0 PQ LATE: 0 COMMIT LATE: 0 MISSED OPPORTUNITY: 0 UNCOVERED: 0
L2C PREFETCHES SAME FILL-ORIGIN LEVEL: 0 DIFFERENT FILL-ORIGIN LEVEL: 0
L2C AVERAGE MISS LATENCY: 181.412 cycles
L2C AVERAGE MISS LATENCY LOAD: 201.133 cycles
L2C AVERAGE MISS LATENCY PREFETCH: -nan cycles
L2C AVERAGE MSHR OCCUPANCY: 2.96124
L2C MSHR FULL: 0
L2C RQ	ACCESS:   42710228	FORWARD:          0	MERGED:          0	TO_CACHE:   42709915
L2C WQ	ACCESS:   17129235	FORWARD:        313	MERGED:          0	TO_CACHE:   17129235

L2C Instructions Evicting Data 0
L2C Translations Evicting Data 3310937
L2C Data Evicting Data 7555675
L2C Instructions Evicting Instructions 0
L2C Translations Evicting Instructions 0
L2C Data Evicting Instructions 0
L2C Instructions Evicting Translations 0
L2C Translations Evicting Translations 806739
L2C Data Evicting Translations 1838055
L2C Dense regions hint from L2: 0
PSCL5 SPEC fills:          0  NON-SPEC fills:          0
PSCL5 Test counter :          0
PSCL5 Leapfrog:          0
PSCL5 MSHR merge:          0
PSCL5 TOTAL     ACCESS:          0  HIT:          0  MISS:          0  HIT %:       -nan  MISS %:       -nan   MPKI: 0
PSCL5 PREFETCH  REQUESTED:          0  ISSUED:          0  USEFUL:          0  USELESS:          0
PSCL5 USEFUL LOAD PREFETCHES:          0 PREFETCH ISSUED TO LOWER LEVEL:          0  ACCURACY: -nan
PSCL5 TIMELY PREFETCHES:          0 LATE PREFETCHES: 0 DROPPED PREFETCHES: 0
PSCL5 COMMIT LATE PREFETCHES: 0 MISSED OPPORTUNITY: 0 LATE IN PQ: 0 UNCOVERED: 0
PSCL5 COMMIT LATE MSHR PREFETCHES: 0
PSCL5 MPKI TOTAL: 0 MSHR LATE: 0 PQ LATE: 0 COMMIT LATE: 0 MISSED OPPORTUNITY: 0 UNCOVERED: 0
PSCL5 PREFETCHES SAME FILL-ORIGIN LEVEL: 0 DIFFERENT FILL-ORIGIN LEVEL: 0

PSCL4 SPEC fills:          0  NON-SPEC fills:          0
PSCL4 Test counter :          0
PSCL4 Leapfrog:          0
PSCL4 MSHR merge:          0
PSCL4 TOTAL     ACCESS:          0  HIT:          0  MISS:          0  HIT %:       -nan  MISS %:       -nan   MPKI: 0
PSCL4 PREFETCH  REQUESTED:          0  ISSUED:          0  USEFUL:          0  USELESS:          0
PSCL4 USEFUL LOAD PREFETCHES:          0 PREFETCH ISSUED TO LOWER LEVEL:          0  ACCURACY: -nan
PSCL4 TIMELY PREFETCHES:          0 LATE PREFETCHES: 0 DROPPED PREFETCHES: 0
PSCL4 COMMIT LATE PREFETCHES: 0 MISSED OPPORTUNITY: 0 LATE IN PQ: 0 UNCOVERED: 0
PSCL4 COMMIT LATE MSHR PREFETCHES: 0
PSCL4 MPKI TOTAL: 0 MSHR LATE: 0 PQ LATE: 0 COMMIT LATE: 0 MISSED OPPORTUNITY: 0 UNCOVERED: 0
PSCL4 PREFETCHES SAME FILL-ORIGIN LEVEL: 0 DIFFERENT FILL-ORIGIN LEVEL: 0

PSCL3 SPEC fills:          0  NON-SPEC fills:          0
PSCL3 Test counter :          0
PSCL3 Leapfrog:          0
PSCL3 MSHR merge:          0
PSCL3 TOTAL     ACCESS:          0  HIT:          0  MISS:          0  HIT %:       -nan  MISS %:       -nan   MPKI: 0
PSCL3 PREFETCH  REQUESTED:          0  ISSUED:          0  USEFUL:          0  USELESS:          0
PSCL3 USEFUL LOAD PREFETCHES:          0 PREFETCH ISSUED TO LOWER LEVEL:          0  ACCURACY: -nan
PSCL3 TIMELY PREFETCHES:          0 LATE PREFETCHES: 0 DROPPED PREFETCHES: 0
PSCL3 COMMIT LATE PREFETCHES: 0 MISSED OPPORTUNITY: 0 LATE IN PQ: 0 UNCOVERED: 0
PSCL3 COMMIT LATE MSHR PREFETCHES: 0
PSCL3 MPKI TOTAL: 0 MSHR LATE: 0 PQ LATE: 0 COMMIT LATE: 0 MISSED OPPORTUNITY: 0 UNCOVERED: 0
PSCL3 PREFETCHES SAME FILL-ORIGIN LEVEL: 0 DIFFERENT FILL-ORIGIN LEVEL: 0

PSCL2 SPEC fills:          0  NON-SPEC fills:          0
PSCL2 Test counter :          0
PSCL2 Leapfrog:          0
PSCL2 MSHR merge:          0
PSCL2 TOTAL     ACCESS:          0  HIT:          0  MISS:          0  HIT %:       -nan  MISS %:       -nan   MPKI: 0
PSCL2 PREFETCH  REQUESTED:          0  ISSUED:          0  USEFUL:          0  USELESS:          0
PSCL2 USEFUL LOAD PREFETCHES:          0 PREFETCH ISSUED TO LOWER LEVEL:          0  ACCURACY: -nan
PSCL2 TIMELY PREFETCHES:          0 LATE PREFETCHES: 0 DROPPED PREFETCHES: 0
PSCL2 COMMIT LATE PREFETCHES: 0 MISSED OPPORTUNITY: 0 LATE IN PQ: 0 UNCOVERED: 0
PSCL2 COMMIT LATE MSHR PREFETCHES: 0
PSCL2 MPKI TOTAL: 0 MSHR LATE: 0 PQ LATE: 0 COMMIT LATE: 0 MISSED OPPORTUNITY: 0 UNCOVERED: 0
PSCL2 PREFETCHES SAME FILL-ORIGIN LEVEL: 0 DIFFERENT FILL-ORIGIN LEVEL: 0

LLC SPEC fills:          0  NON-SPEC fills:     187185
LLC Test counter :    5900012
LLC Leapfrog:          0
LLC MSHR merge:          0
LLC TOTAL     ACCESS:   38530251  HIT:   14402714  MISS:   24127537  HIT %:    37.3803  MISS %:    62.6197   MPKI: 120.638
LLC LOAD      TOTAL       ACCESS:    8717058  HIT:    2335196  MISS:    6381862  HIT %:    26.7888  MISS %:    73.2112   MPKI: 31.9093
LLC LOAD      NON_SPEC    ACCESS:     580473  HIT:     393288  MISS:     187185  HIT %:     67.753  MISS %:     32.247   MPKI: 0.935925
LLC LOAD      SPEC        ACCESS:    8136585  HIT:    1941908  MISS:    6194677  HIT %:    23.8664  MISS %:    76.1336   MPKI: 30.9734
LLC RFO       NON_SPEC    ACCESS:    8745395  HIT:      48166  MISS:    8697229  HIT %:   0.550758  MISS %:    99.4492   MPKI: 43.4861
LLC WRITEBACK NON_SPEC    ACCESS:    9331461  HIT:    9331311  MISS:        150  HIT %:    99.9984  MISS %: 0.00160747   MPKI: 0.00075
LLC CLEAN_EVICTION NON_SPEC    ACCESS:    7550816  HIT:    1661764  MISS:    5889052  HIT %:    22.0077  MISS %:    77.9923   MPKI: 29.4453
LLC COMMIT LOAD NON_SPEC    ACCESS:      67845  HIT:      39780  MISS:      28065  HIT %:    58.6337  MISS %:    41.3663   MPKI: 0.140325
LLC LOAD TRANSLATION NON_SPEC    ACCESS:    4117676  HIT:     986497  MISS:    3131179  HIT %:    23.9576  MISS %:    76.0424   MPKI: 15.6559
LLC PREFETCH  REQUESTED:          0  ISSUED:          0  USEFUL:          0  USELESS:          0
LLC USEFUL LOAD PREFETCHES:          0 PREFETCH ISSUED TO LOWER LEVEL:          0  ACCURACY: -nan
LLC TIMELY PREFETCHES:          0 LATE PREFETCHES: 0 DROPPED PREFETCHES: 0
LLC COMMIT LATE PREFETCHES: 0 MISSED OPPORTUNITY: 0 LATE IN PQ: 0 UNCOVERED: 0
LLC COMMIT LATE MSHR PREFETCHES: 0
LLC MPKI TOTAL: 31.9093 MSHR LATE: 0 PQ LATE: 0 COMMIT LATE: 0 MISSED OPPORTUNITY: 0 UNCOVERED: 0
LLC PREFETCHES SAME FILL-ORIGIN LEVEL: 0 DIFFERENT FILL-ORIGIN LEVEL: 0
LLC AVERAGE MISS LATENCY: 195.51 cycles
LLC AVERAGE MISS LATENCY LOAD: 245.097 cycles
LLC AVERAGE MISS LATENCY PREFETCH: -nan cycles
LLC AVERAGE MSHR OCCUPANCY: 2.75834
LLC MSHR FULL: 0
LLC RQ	ACCESS:   21648054	FORWARD:          0	MERGED:          0	TO_CACHE:   21647975
LLC WQ	ACCESS:   16882277	FORWARD:         79	MERGED:          0	TO_CACHE:   16882277

LLC Dense regions hint to LLC: 0

RAW hits: 5930631
Loads Generated: 83093085
Loads sent to L1D: 77162455
Stores Generated: 69973136
Stores sent to L1D: 69973102
Major fault: 0 Minor fault: 318411
Allocated PAGES: 318411
Total Load insts: 96426828
Total Non-spec loads: 40196998
Percentage of speculative loads: 58.3135

LeapFrogging counter: 175
Commit hits: 20646746 miss: 25975323
Commit hit %: 44.2853 miss %: 55.7147
Commits not translated: 0
Loads retired: 9740892
Stores retired: 69973102
Cache fills: 9740896
L1D response latency: 191.44 cycles
Load retirement latency: 486.983 cycles
OOO test counter: 0
Discarded buffer inserts: 20646746 hits: 16367 hit %: 0.0792716

DRAM Statistics
 CHANNEL 0
 RQ ROW_BUFFER_HIT:     243584  ROW_BUFFER_MISS:   17992677
 DBUS_CONGESTED:        322
 WQ ROW_BUFFER_HIT:    3500598  ROW_BUFFER_MISS:   11286667  FULL:        218

 AVG_CONGESTED_CYCLE: 4
 All warmup complete: 2
Channel 0 Bank busy for read cycles: 0
Channel 0 Bank busy for write cycles: 0
Channel 0
Rank 0
0banks busy for read cycles: 2398597
0banks busy for write cycles: 21
1banks busy for read cycles: 186275285
1banks busy for write cycles: 2579309
2banks busy for read cycles: 226550491
2banks busy for write cycles: 2609302
3banks busy for read cycles: 263750425
3banks busy for write cycles: 2825582
4banks busy for read cycles: 170541499
4banks busy for write cycles: 6945492
5banks busy for read cycles: 86630460
5banks busy for write cycles: 14935189
6banks busy for read cycles: 32939645
6banks busy for write cycles: 36728594
7banks busy for read cycles: 7994395
7banks busy for write cycles: 114352195
8banks busy for read cycles: 1033303
8banks busy for write cycles: 258516281

CPU 0 Branch Prediction Accuracy: 95.2594% MPKI: 5.89096 Average ROB Occupancy at Mispredict: 119.342
Branch types
NOT_BRANCH: 175146465 87.5732%
BRANCH_DIRECT_JUMP: 2986818 1.49341%
BRANCH_INDIRECT: 0 0%
BRANCH_CONDITIONAL: 13119949 6.55997%
BRANCH_DIRECT_CALL: 4373316 2.18666%
BRANCH_INDIRECT_CALL: 0 0%
BRANCH_RETURN: 4373316 2.18666%
BRANCH_OTHER: 0 0%

DRAM PAGES: 1048576
Allocated PAGES: 318411
