
*** ChampSim Multicore Out-of-Order Simulator ***

Warmup Instructions: 50000000
Simulation Instructions: 200000000
Number of CPUs: 1
LLC sets: 2048
LLC ways: 16
L0D sets: 16
L0D ways: 2
ROB size: 352
LQ size: 128
SQ size: 72
Secure Berti: OFF
Berti: OFF
Berti Fill: OFF
On commit prefetching: OFF
Hit-based filter: ON
Time-guarding: ON
Free-slotting: ON
Leap-frogging: ON
Train prefetcher on L0D bypass: OFF
No translation penalty for prefetchers: OFF
Prefetch to L0D only: OFF
Prefetch to L1D only: OFF
Clean evictions: ON
Commit loads: ON
Commit write: ON
Fill commit loads to L2C, LLC: ON
DRAM IO FREQUENCY: 6400
ROB SIZE: 352
Off-chip DRAM Size: 4096 MB Channels: 1 Width: 64-bit Data Rate: 6400 MT/s
CPU 0 runs /home/sumon/secure_berti/GhostMinion/../../traces/spec/605.mcf_s-782B.champsimtrace.xz
.xz
BTB has LRU replacement policy
ITLB has LRU replacement policy
DTLB has LRU replacement policy
STLB has LRU replacement policy
L1I has LRU replacement policy
L0D has LRU replacement policy
L1D has LRU replacement policy
L2C has LRU replacement policy
LLC has LRU replacement policy
Heartbeat CPU 0 instructions: 10000001 cycles: 4904230 heartbeat IPC: 2.03906 cumulative IPC: 2.03906 (Simulation time: 0 hr 0 min 44 sec) 
Heartbeat CPU 0 instructions: 20000000 cycles: 9606356 heartbeat IPC: 2.1267 cumulative IPC: 2.08195 (Simulation time: 0 hr 1 min 28 sec) 
Heartbeat CPU 0 instructions: 30000000 cycles: 14309201 heartbeat IPC: 2.12637 cumulative IPC: 2.09655 (Simulation time: 0 hr 2 min 12 sec) 
Heartbeat CPU 0 instructions: 40000002 cycles: 18955391 heartbeat IPC: 2.1523 cumulative IPC: 2.11022 (Simulation time: 0 hr 2 min 55 sec) 
Heartbeat CPU 0 instructions: 50000000 cycles: 23714178 heartbeat IPC: 2.10138 cumulative IPC: 2.10844 (Simulation time: 0 hr 3 min 35 sec) 

Warmup complete CPU 0 instructions: 50000001 cycles: 23714179 (Simulation time: 0 hr 3 min 35 sec) 

Heartbeat CPU 0 instructions: 60000000 cycles: 96979855 heartbeat IPC: 0.13649 cumulative IPC: 0.13649 (Simulation time: 0 hr 4 min 45 sec) 
Heartbeat CPU 0 instructions: 70000002 cycles: 169066892 heartbeat IPC: 0.138721 cumulative IPC: 0.137596 (Simulation time: 0 hr 5 min 53 sec) 
Heartbeat CPU 0 instructions: 80000002 cycles: 240880620 heartbeat IPC: 0.139249 cumulative IPC: 0.138143 (Simulation time: 0 hr 7 min 2 sec) 
Heartbeat CPU 0 instructions: 90000000 cycles: 317086749 heartbeat IPC: 0.131223 cumulative IPC: 0.136345 (Simulation time: 0 hr 8 min 13 sec) 
Heartbeat CPU 0 instructions: 100000001 cycles: 394521934 heartbeat IPC: 0.12914 cumulative IPC: 0.134841 (Simulation time: 0 hr 9 min 23 sec) 
Heartbeat CPU 0 instructions: 110000000 cycles: 473803429 heartbeat IPC: 0.126133 cumulative IPC: 0.133307 (Simulation time: 0 hr 10 min 34 sec) 
Heartbeat CPU 0 instructions: 120000000 cycles: 549182599 heartbeat IPC: 0.132663 cumulative IPC: 0.133214 (Simulation time: 0 hr 11 min 43 sec) 
Heartbeat CPU 0 instructions: 130000000 cycles: 625324033 heartbeat IPC: 0.131335 cumulative IPC: 0.132977 (Simulation time: 0 hr 12 min 54 sec) 
Heartbeat CPU 0 instructions: 140000001 cycles: 698752458 heartbeat IPC: 0.136187 cumulative IPC: 0.133326 (Simulation time: 0 hr 14 min 3 sec) 
Heartbeat CPU 0 instructions: 150000000 cycles: 773319325 heartbeat IPC: 0.134108 cumulative IPC: 0.133404 (Simulation time: 0 hr 15 min 12 sec) 
Heartbeat CPU 0 instructions: 160000002 cycles: 849623587 heartbeat IPC: 0.131054 cumulative IPC: 0.133187 (Simulation time: 0 hr 16 min 20 sec) 
Heartbeat CPU 0 instructions: 170000001 cycles: 927579179 heartbeat IPC: 0.128278 cumulative IPC: 0.132763 (Simulation time: 0 hr 17 min 28 sec) 
Heartbeat CPU 0 instructions: 180000002 cycles: 1004560079 heartbeat IPC: 0.129902 cumulative IPC: 0.132539 (Simulation time: 0 hr 18 min 35 sec) 
Heartbeat CPU 0 instructions: 190000003 cycles: 1087982685 heartbeat IPC: 0.119872 cumulative IPC: 0.131546 (Simulation time: 0 hr 19 min 41 sec) 
Heartbeat CPU 0 instructions: 200000002 cycles: 1171455327 heartbeat IPC: 0.1198 cumulative IPC: 0.130691 (Simulation time: 0 hr 20 min 48 sec) 
Heartbeat CPU 0 instructions: 210000003 cycles: 1253207720 heartbeat IPC: 0.122321 cumulative IPC: 0.130135 (Simulation time: 0 hr 21 min 53 sec) 
Heartbeat CPU 0 instructions: 220000000 cycles: 1333237104 heartbeat IPC: 0.124954 cumulative IPC: 0.129818 (Simulation time: 0 hr 22 min 56 sec) 
Heartbeat CPU 0 instructions: 230000001 cycles: 1413275613 heartbeat IPC: 0.12494 cumulative IPC: 0.129537 (Simulation time: 0 hr 24 min 0 sec) 
Heartbeat CPU 0 instructions: 240000003 cycles: 1491436914 heartbeat IPC: 0.127941 cumulative IPC: 0.129452 (Simulation time: 0 hr 25 min 2 sec) 
Heartbeat CPU 0 instructions: 250000002 cycles: 1567527460 heartbeat IPC: 0.131422 cumulative IPC: 0.129549 (Simulation time: 0 hr 26 min 4 sec) 
Finished CPU 0 instructions: 200000001 cycles: 1543813281 cumulative IPC: 0.129549 (Simulation time: 0 hr 26 min 4 sec) 
 Instruction ID: 250000129

ChampSim completed all CPUs

Region of Interest Statistics

CPU 0 cumulative IPC: 0.129549 instructions: 200000001 cycles: 1543813281
ITLB SPEC fills:          0  NON-SPEC fills:          0
ITLB Test counter :          0
ITLB Leapfrog:          0
ITLB MSHR merge:          0
ITLB TOTAL     ACCESS:   32891785  HIT:   32891785  MISS:          0  HIT %:        100  MISS %:          0   MPKI: 0
ITLB LOAD TRANSLATION NON_SPEC    ACCESS:   32891785  HIT:   32891785  MISS:          0  HIT %:        100  MISS %:          0   MPKI: 0
ITLB PREFETCH  REQUESTED:          0  ISSUED:          0  USEFUL:          0  USELESS:          0
ITLB USEFUL LOAD PREFETCHES:          0 PREFETCH ISSUED TO LOWER LEVEL:          0  ACCURACY: -nan
ITLB TIMELY PREFETCHES:          0 LATE PREFETCHES: 0 DROPPED PREFETCHES: 0
ITLB COMMIT LATE PREFETCHES: 0 MISSED OPPORTUNITY: 0 LATE IN PQ: 0 UNCOVERED: 0
ITLB COMMIT LATE MSHR PREFETCHES: 0
ITLB MPKI TOTAL: 0 MSHR LATE: 0 PQ LATE: 0 COMMIT LATE: 0 MISSED OPPORTUNITY: 0 UNCOVERED: 0
ITLB PREFETCHES SAME FILL-ORIGIN LEVEL: 0 DIFFERENT FILL-ORIGIN LEVEL: 0
ITLB AVERAGE MISS LATENCY: -nan cycles
ITLB AVERAGE MISS LATENCY LOAD: -nan cycles
ITLB AVERAGE MISS LATENCY PREFETCH: -nan cycles
ITLB AVERAGE MSHR OCCUPANCY: 0
ITLB MSHR FULL: 0
ITLB RQ	ACCESS:   33250854	FORWARD:          0	MERGED:     359069	TO_CACHE:   32891785

DTLB SPEC fills:          0  NON-SPEC fills:          0
DTLB Test counter :          0
DTLB Leapfrog:          0
DTLB MSHR merge:          0
DTLB TOTAL     ACCESS:   46172336  HIT:   28548034  MISS:   17624302  HIT %:    61.8293  MISS %:    38.1707   MPKI: 88.1215
DTLB LOAD TRANSLATION NON_SPEC    ACCESS:   46172336  HIT:   28548034  MISS:   17624302  HIT %:    61.8293  MISS %:    38.1707   MPKI: 88.1215
DTLB PREFETCH  REQUESTED:          0  ISSUED:          0  USEFUL:          0  USELESS:          0
DTLB USEFUL LOAD PREFETCHES:          0 PREFETCH ISSUED TO LOWER LEVEL:          0  ACCURACY: -nan
DTLB TIMELY PREFETCHES:          0 LATE PREFETCHES: 0 DROPPED PREFETCHES: 0
DTLB COMMIT LATE PREFETCHES: 0 MISSED OPPORTUNITY: 0 LATE IN PQ: 0 UNCOVERED: 0
DTLB COMMIT LATE MSHR PREFETCHES: 0
DTLB MPKI TOTAL: 0 MSHR LATE: 0 PQ LATE: 0 COMMIT LATE: 0 MISSED OPPORTUNITY: 0 UNCOVERED: 0
DTLB PREFETCHES SAME FILL-ORIGIN LEVEL: 0 DIFFERENT FILL-ORIGIN LEVEL: 0
DTLB AVERAGE MISS LATENCY: 11.5672 cycles
DTLB AVERAGE MISS LATENCY LOAD: -nan cycles
DTLB AVERAGE MISS LATENCY PREFETCH: -nan cycles
DTLB AVERAGE MSHR OCCUPANCY: 0.248175
DTLB MSHR FULL: 0
DTLB RQ	ACCESS:   51828451	FORWARD:          0	MERGED:    5241815	TO_CACHE:   46586636

STLB SPEC fills:          0  NON-SPEC fills:          0
STLB Test counter :          0
STLB Leapfrog:          0
STLB MSHR merge:          0
STLB TOTAL     ACCESS:   17624302  HIT:   17386482  MISS:     237820  HIT %:    98.6506  MISS %:    1.34939   MPKI: 1.1891
STLB LOAD TRANSLATION NON_SPEC    ACCESS:   17624302  HIT:   17386482  MISS:     237820  HIT %:    98.6506  MISS %:    1.34939   MPKI: 1.1891
STLB PREFETCH  REQUESTED:          0  ISSUED:          0  USEFUL:          0  USELESS:          0
STLB USEFUL LOAD PREFETCHES:          0 PREFETCH ISSUED TO LOWER LEVEL:          0  ACCURACY: -nan
STLB TIMELY PREFETCHES:          0 LATE PREFETCHES: 0 DROPPED PREFETCHES: 0
STLB COMMIT LATE PREFETCHES: 0 MISSED OPPORTUNITY: 0 LATE IN PQ: 0 UNCOVERED: 0
STLB COMMIT LATE MSHR PREFETCHES: 0
STLB MPKI TOTAL: 0 MSHR LATE: 0 PQ LATE: 0 COMMIT LATE: 0 MISSED OPPORTUNITY: 0 UNCOVERED: 0
STLB PREFETCHES SAME FILL-ORIGIN LEVEL: 0 DIFFERENT FILL-ORIGIN LEVEL: 0
STLB AVERAGE MISS LATENCY: 184.994 cycles
STLB AVERAGE MISS LATENCY LOAD: -nan cycles
STLB AVERAGE MISS LATENCY PREFETCH: -nan cycles
STLB AVERAGE MSHR OCCUPANCY: 0.0166348
STLB MSHR FULL: 0
STLB RQ	ACCESS:   17624302	FORWARD:          0	MERGED:          0	TO_CACHE:   17624302

STLB Hit, L1D data hit: 0
STLB Hit, L2C data hit: 0
STLB Hit, LLC data hit: 0
STLB Hit, LLC data miss: 0
STLB STLB hints to L2: 0
L0D SPEC fills:   30063279  NON-SPEC fills:          0
L0D TimeGuard Request with older TS:    1115162 Restricted eviction:     665401 read:     127032
L0D Test counter :          0
L0D Leapfrog:          0
L0D MSHR merge:    6638235
L0D TOTAL     ACCESS:   41611772  HIT:    1058419  MISS:   40553353  HIT %:    2.54356  MISS %:    97.4564   MPKI: 202.767
L0D LOAD      TOTAL       ACCESS:   41611772  HIT:    1058419  MISS:   40553353  HIT %:    2.54356  MISS %:    97.4564   MPKI: 202.767
L0D LOAD      NON_SPEC    ACCESS:   10085275  HIT:     260596  MISS:    9824679  HIT %:    2.58393  MISS %:    97.4161   MPKI: 49.1234
L0D LOAD      SPEC        ACCESS:   31526497  HIT:     797823  MISS:   30728674  HIT %:    2.53064  MISS %:    97.4694   MPKI: 153.643
L0D PREFETCH  REQUESTED:          0  ISSUED:          0  USEFUL:          0  USELESS:          0
L0D USEFUL LOAD PREFETCHES:          0 PREFETCH ISSUED TO LOWER LEVEL:          0  ACCURACY: -nan
L0D TIMELY PREFETCHES:          0 LATE PREFETCHES: 0 DROPPED PREFETCHES: 0
L0D COMMIT LATE PREFETCHES: 0 MISSED OPPORTUNITY: 0 LATE IN PQ: 0 UNCOVERED: 0
L0D COMMIT LATE MSHR PREFETCHES: 0
L0D MPKI TOTAL: 235.958 MSHR LATE: 0 PQ LATE: 0 COMMIT LATE: 0 MISSED OPPORTUNITY: 0 UNCOVERED: 0
L0D PREFETCHES SAME FILL-ORIGIN LEVEL: 0 DIFFERENT FILL-ORIGIN LEVEL: 0
L0D AVERAGE MISS LATENCY: 95.6627 cycles
L0D AVERAGE MISS LATENCY LOAD: 95.6627 cycles
L0D AVERAGE MISS LATENCY PREFETCH: -nan cycles
L0D AVERAGE MSHR OCCUPANCY: 5.87752
L0D MSHR FULL: 0.596883
L0D RQ	ACCESS:   71282637	FORWARD:          0	MERGED:   23032635	TO_CACHE:   48250002
L0D WQ	ACCESS:    3578449	FORWARD:          0	MERGED:          0	TO_CACHE:    3578449

L1D SPEC fills:          0  NON-SPEC fills:    7284973
L1D Test counter :   20363833
L1D Leapfrog:          0
L1D MSHR merge:      16614
L1D TOTAL     ACCESS:   81936886  HIT:   27303584  MISS:   54633302  HIT %:    33.3227  MISS %:    66.6773   MPKI: 273.167
L1D LOAD      TOTAL       ACCESS:   40536738  HIT:    9582029  MISS:   30954709  HIT %:    23.6379  MISS %:    76.3621   MPKI: 154.774
L1D LOAD      NON_SPEC    ACCESS:    9822275  HIT:    2537302  MISS:    7284973  HIT %:    25.8321  MISS %:    74.1679   MPKI: 36.4249
L1D LOAD      SPEC        ACCESS:   30714463  HIT:    7044727  MISS:   23669736  HIT %:    22.9362  MISS %:    77.0638   MPKI: 118.349
L1D RFO       NON_SPEC    ACCESS:    3277626  HIT:    3216840  MISS:      60786  HIT %:    98.1454  MISS %:    1.85457   MPKI: 0.30393
L1D COMMIT LOAD NON_SPEC    ACCESS:   15603909  HIT:   14471539  MISS:    1132370  HIT %:     92.743  MISS %:    7.25696   MPKI: 5.66185
L1D COMMIT WRITE NON_SPEC    ACCESS:   22518613  HIT:      33176  MISS:   22485437  HIT %:   0.147327  MISS %:    99.8527   MPKI: 112.427
L1D PREFETCH  REQUESTED:          0  ISSUED:          0  USEFUL:          0  USELESS:          0
L1D USEFUL LOAD PREFETCHES:          0 PREFETCH ISSUED TO LOWER LEVEL:          0  ACCURACY: -nan
L1D TIMELY PREFETCHES:          0 LATE PREFETCHES: 0 DROPPED PREFETCHES: 0
L1D COMMIT LATE PREFETCHES: 0 MISSED OPPORTUNITY: 0 LATE IN PQ: 0 UNCOVERED: 0
L1D COMMIT LATE MSHR PREFETCHES: 0
L1D MPKI TOTAL: 154.857 MSHR LATE: 0 PQ LATE: 0 COMMIT LATE: 0 MISSED OPPORTUNITY: 0 UNCOVERED: 0
L1D PREFETCHES SAME FILL-ORIGIN LEVEL: 0 DIFFERENT FILL-ORIGIN LEVEL: 0
L1D AVERAGE MISS LATENCY: 64.4897 cycles
L1D AVERAGE MISS LATENCY LOAD: 110.088 cycles
L1D AVERAGE MISS LATENCY PREFETCH: -nan cycles
L1D AVERAGE MSHR OCCUPANCY: 2.24102
L1D MSHR FULL: 1.20956e-05
L1D RQ	ACCESS:   69420374	FORWARD:          0	MERGED:   13186890	TO_CACHE:   56218137
L1D WQ	ACCESS:   26105087	FORWARD:      15347	MERGED:     157104	TO_CACHE:   25947983

L1D UNIQUE REGIONS ACCESSED: 0
L1D REGIONS CONFLICTS: 0
L1D Cross Page Prefetch Requests: 0
L1D Same Page Prefetch Requests: 0
L1D ROI Sum of L1D PQ occupancy: 0
L1D PREFETCHES PUSHED FROM L2C: 0
L1I SPEC fills:          0  NON-SPEC fills:          0
L1I Test counter :          0
L1I Leapfrog:          0
L1I MSHR merge:          0
L1I TOTAL     ACCESS:   33250853  HIT:   33250853  MISS:          0  HIT %:        100  MISS %:          0   MPKI: 0
L1I LOAD      TOTAL       ACCESS:   33250853  HIT:   33250853  MISS:          0  HIT %:        100  MISS %:          0   MPKI: 0
L1I LOAD      NON_SPEC    ACCESS:   33250853  HIT:   33250853  MISS:          0  HIT %:        100  MISS %:          0   MPKI: 0
L1I PREFETCH  REQUESTED:          0  ISSUED:          0  USEFUL:          0  USELESS:          0
L1I USEFUL LOAD PREFETCHES:          0 PREFETCH ISSUED TO LOWER LEVEL:          0  ACCURACY: -nan
L1I TIMELY PREFETCHES:          0 LATE PREFETCHES: 0 DROPPED PREFETCHES: 0
L1I COMMIT LATE PREFETCHES: 0 MISSED OPPORTUNITY: 0 LATE IN PQ: 0 UNCOVERED: 0
L1I COMMIT LATE MSHR PREFETCHES: 0
L1I MPKI TOTAL: 0 MSHR LATE: 0 PQ LATE: 0 COMMIT LATE: 0 MISSED OPPORTUNITY: 0 UNCOVERED: 0
L1I PREFETCHES SAME FILL-ORIGIN LEVEL: 0 DIFFERENT FILL-ORIGIN LEVEL: 0
L1I AVERAGE MISS LATENCY: -nan cycles
L1I AVERAGE MISS LATENCY LOAD: -nan cycles
L1I AVERAGE MISS LATENCY PREFETCH: -nan cycles
L1I AVERAGE MSHR OCCUPANCY: 0
L1I MSHR FULL: 0
L1I RQ	ACCESS:   43844234	FORWARD:          0	MERGED:   10593380	TO_CACHE:   33250854

BTB SPEC fills:          0  NON-SPEC fills:          0
BTB Test counter :          0
BTB Leapfrog:          0
BTB MSHR merge:          0
BTB TOTAL     ACCESS:   60210745  HIT:   60015900  MISS:     194845  HIT %:    99.6764  MISS %:   0.323605   MPKI: 0.974225
BTB BRANCH_DIRECT_JUMP	ACCESS:    7722186  HIT:    7722149  MISS:         37
BTB BRANCH_INDIRECT	ACCESS:          0  HIT:          0  MISS:          0
BTB BRANCH_CONDITIONAL	ACCESS:   51083203  HIT:   51083121  MISS:         82
BTB BRANCH_DIRECT_CALL	ACCESS:     648845  HIT:     648827  MISS:         18
BTB BRANCH_INDIRECT_CALL	ACCESS:      53834  HIT:      53826  MISS:          8
BTB BRANCH_RETURN	ACCESS:     702677  HIT:     507977  MISS:     194700
BTB BRANCH_OTHER ACCESS:          0  HIT:          0  MISS:          0

L2C SPEC fills:          0  NON-SPEC fills:    6276075
L2C Test counter :   20337090
L2C Leapfrog:          0
L2C MSHR merge:          0
L2C TOTAL     ACCESS:   53935134  HIT:    4933835  MISS:   49001299  HIT %:    9.14772  MISS %:    90.8523   MPKI: 245.006
L2C LOAD      TOTAL       ACCESS:   30954508  HIT:    3364651  MISS:   27589857  HIT %:    10.8697  MISS %:    89.1303   MPKI: 137.949
L2C LOAD      NON_SPEC    ACCESS:    7284967  HIT:    1008892  MISS:    6276075  HIT %:     13.849  MISS %:     86.151   MPKI: 31.3804
L2C LOAD      SPEC        ACCESS:   23669541  HIT:    2355759  MISS:   21313782  HIT %:     9.9527  MISS %:    90.0473   MPKI: 106.569
L2C RFO       NON_SPEC    ACCESS:      60759  HIT:       7229  MISS:      53530  HIT %:    11.8978  MISS %:    88.1022   MPKI: 0.26765
L2C WRITEBACK NON_SPEC    ACCESS:     235007  HIT:     235007  MISS:          0  HIT %:        100  MISS %:          0   MPKI: 0
L2C CLEAN_EVICTION NON_SPEC    ACCESS:   20363833  HIT:      43080  MISS:   20320753  HIT %:   0.211552  MISS %:    99.7884   MPKI: 101.604
L2C COMMIT LOAD NON_SPEC    ACCESS:    1132370  HIT:     180585  MISS:     951785  HIT %:    15.9475  MISS %:    84.0525   MPKI: 4.75892
L2C LOAD TRANSLATION NON_SPEC    ACCESS:    1188657  HIT:    1103283  MISS:      85374  HIT %:    92.8176  MISS %:    7.18239   MPKI: 0.42687
L2C PREFETCH  REQUESTED:          0  ISSUED:          0  USEFUL:          0  USELESS:          0
L2C USEFUL LOAD PREFETCHES:          0 PREFETCH ISSUED TO LOWER LEVEL:          0  ACCURACY: -nan
L2C TIMELY PREFETCHES:          0 LATE PREFETCHES: 0 DROPPED PREFETCHES: 0
L2C COMMIT LATE PREFETCHES: 0 MISSED OPPORTUNITY: 0 LATE IN PQ: 0 UNCOVERED: 0
L2C COMMIT LATE MSHR PREFETCHES: 0
L2C MPKI TOTAL: 137.949 MSHR LATE: 0 PQ LATE: 0 COMMIT LATE: 0 MISSED OPPORTUNITY: 0 UNCOVERED: 0
L2C PREFETCHES SAME FILL-ORIGIN LEVEL: 0 DIFFERENT FILL-ORIGIN LEVEL: 0
L2C AVERAGE MISS LATENCY: 64.1374 cycles
L2C AVERAGE MISS LATENCY LOAD: 109.99 cycles
L2C AVERAGE MISS LATENCY PREFETCH: -nan cycles
L2C AVERAGE MSHR OCCUPANCY: 2.52106
L2C MSHR FULL: 0
L2C RQ	ACCESS:   33336520	FORWARD:          0	MERGED:          0	TO_CACHE:   33336293
L2C WQ	ACCESS:   20598841	FORWARD:        227	MERGED:          1	TO_CACHE:   20598840

L2C Instructions Evicting Data 0
L2C Translations Evicting Data 85172
L2C Data Evicting Data 7258409
L2C Instructions Evicting Instructions 0
L2C Translations Evicting Instructions 0
L2C Data Evicting Instructions 0
L2C Instructions Evicting Translations 0
L2C Translations Evicting Translations 202
L2C Data Evicting Translations 22981
L2C Dense regions hint from L2: 0
PSCL5 SPEC fills:          0  NON-SPEC fills:          0
PSCL5 Test counter :          0
PSCL5 Leapfrog:          0
PSCL5 MSHR merge:          0
PSCL5 TOTAL     ACCESS:          0  HIT:          0  MISS:          0  HIT %:       -nan  MISS %:       -nan   MPKI: 0
PSCL5 PREFETCH  REQUESTED:          0  ISSUED:          0  USEFUL:          0  USELESS:          0
PSCL5 USEFUL LOAD PREFETCHES:          0 PREFETCH ISSUED TO LOWER LEVEL:          0  ACCURACY: -nan
PSCL5 TIMELY PREFETCHES:          0 LATE PREFETCHES: 0 DROPPED PREFETCHES: 0
PSCL5 COMMIT LATE PREFETCHES: 0 MISSED OPPORTUNITY: 0 LATE IN PQ: 0 UNCOVERED: 0
PSCL5 COMMIT LATE MSHR PREFETCHES: 0
PSCL5 MPKI TOTAL: 0 MSHR LATE: 0 PQ LATE: 0 COMMIT LATE: 0 MISSED OPPORTUNITY: 0 UNCOVERED: 0
PSCL5 PREFETCHES SAME FILL-ORIGIN LEVEL: 0 DIFFERENT FILL-ORIGIN LEVEL: 0

PSCL4 SPEC fills:          0  NON-SPEC fills:          0
PSCL4 Test counter :          0
PSCL4 Leapfrog:          0
PSCL4 MSHR merge:          0
PSCL4 TOTAL     ACCESS:          0  HIT:          0  MISS:          0  HIT %:       -nan  MISS %:       -nan   MPKI: 0
PSCL4 PREFETCH  REQUESTED:          0  ISSUED:          0  USEFUL:          0  USELESS:          0
PSCL4 USEFUL LOAD PREFETCHES:          0 PREFETCH ISSUED TO LOWER LEVEL:          0  ACCURACY: -nan
PSCL4 TIMELY PREFETCHES:          0 LATE PREFETCHES: 0 DROPPED PREFETCHES: 0
PSCL4 COMMIT LATE PREFETCHES: 0 MISSED OPPORTUNITY: 0 LATE IN PQ: 0 UNCOVERED: 0
PSCL4 COMMIT LATE MSHR PREFETCHES: 0
PSCL4 MPKI TOTAL: 0 MSHR LATE: 0 PQ LATE: 0 COMMIT LATE: 0 MISSED OPPORTUNITY: 0 UNCOVERED: 0
PSCL4 PREFETCHES SAME FILL-ORIGIN LEVEL: 0 DIFFERENT FILL-ORIGIN LEVEL: 0

PSCL3 SPEC fills:          0  NON-SPEC fills:          0
PSCL3 Test counter :          0
PSCL3 Leapfrog:          0
PSCL3 MSHR merge:          0
PSCL3 TOTAL     ACCESS:          0  HIT:          0  MISS:          0  HIT %:       -nan  MISS %:       -nan   MPKI: 0
PSCL3 PREFETCH  REQUESTED:          0  ISSUED:          0  USEFUL:          0  USELESS:          0
PSCL3 USEFUL LOAD PREFETCHES:          0 PREFETCH ISSUED TO LOWER LEVEL:          0  ACCURACY: -nan
PSCL3 TIMELY PREFETCHES:          0 LATE PREFETCHES: 0 DROPPED PREFETCHES: 0
PSCL3 COMMIT LATE PREFETCHES: 0 MISSED OPPORTUNITY: 0 LATE IN PQ: 0 UNCOVERED: 0
PSCL3 COMMIT LATE MSHR PREFETCHES: 0
PSCL3 MPKI TOTAL: 0 MSHR LATE: 0 PQ LATE: 0 COMMIT LATE: 0 MISSED OPPORTUNITY: 0 UNCOVERED: 0
PSCL3 PREFETCHES SAME FILL-ORIGIN LEVEL: 0 DIFFERENT FILL-ORIGIN LEVEL: 0

PSCL2 SPEC fills:          0  NON-SPEC fills:          0
PSCL2 Test counter :          0
PSCL2 Leapfrog:          0
PSCL2 MSHR merge:          0
PSCL2 TOTAL     ACCESS:          0  HIT:          0  MISS:          0  HIT %:       -nan  MISS %:       -nan   MPKI: 0
PSCL2 PREFETCH  REQUESTED:          0  ISSUED:          0  USEFUL:          0  USELESS:          0
PSCL2 USEFUL LOAD PREFETCHES:          0 PREFETCH ISSUED TO LOWER LEVEL:          0  ACCURACY: -nan
PSCL2 TIMELY PREFETCHES:          0 LATE PREFETCHES: 0 DROPPED PREFETCHES: 0
PSCL2 COMMIT LATE PREFETCHES: 0 MISSED OPPORTUNITY: 0 LATE IN PQ: 0 UNCOVERED: 0
PSCL2 COMMIT LATE MSHR PREFETCHES: 0
PSCL2 MPKI TOTAL: 0 MSHR LATE: 0 PQ LATE: 0 COMMIT LATE: 0 MISSED OPPORTUNITY: 0 UNCOVERED: 0
PSCL2 PREFETCHES SAME FILL-ORIGIN LEVEL: 0 DIFFERENT FILL-ORIGIN LEVEL: 0

LLC SPEC fills:          0  NON-SPEC fills:    2463228
LLC Test counter :   13356555
LLC Leapfrog:          0
LLC MSHR merge:          0
LLC TOTAL     ACCESS:   49234955  HIT:   20323380  MISS:   28911575  HIT %:    41.2784  MISS %:    58.7216   MPKI: 144.558
LLC LOAD      TOTAL       ACCESS:   27589576  HIT:   12122709  MISS:   15466867  HIT %:    43.9395  MISS %:    56.0605   MPKI: 77.3343
LLC LOAD      NON_SPEC    ACCESS:    6276006  HIT:    3812778  MISS:    2463228  HIT %:    60.7517  MISS %:    39.2483   MPKI: 12.3161
LLC LOAD      SPEC        ACCESS:   21313570  HIT:    8309931  MISS:   13003639  HIT %:    38.9889  MISS %:    61.0111   MPKI: 65.0182
LLC RFO       NON_SPEC    ACCESS:      53530  HIT:      45420  MISS:       8110  HIT %:    84.8496  MISS %:    15.1504   MPKI: 0.04055
LLC WRITEBACK NON_SPEC    ACCESS:     217928  HIT:     217796  MISS:        132  HIT %:    99.9394  MISS %:  0.0605705   MPKI: 0.00066
LLC CLEAN_EVICTION NON_SPEC    ACCESS:   20337090  HIT:    7300651  MISS:   13036439  HIT %:    35.8982  MISS %:    64.1018   MPKI: 65.1822
LLC COMMIT LOAD NON_SPEC    ACCESS:     951457  HIT:     594412  MISS:     357045  HIT %:    62.4739  MISS %:    37.5261   MPKI: 1.78522
LLC LOAD TRANSLATION NON_SPEC    ACCESS:      85374  HIT:      42392  MISS:      42982  HIT %:    49.6545  MISS %:    50.3455   MPKI: 0.21491
LLC PREFETCH  REQUESTED:          0  ISSUED:          0  USEFUL:          0  USELESS:          0
LLC USEFUL LOAD PREFETCHES:          0 PREFETCH ISSUED TO LOWER LEVEL:          0  ACCURACY: -nan
LLC TIMELY PREFETCHES:          0 LATE PREFETCHES: 0 DROPPED PREFETCHES: 0
LLC COMMIT LATE PREFETCHES: 0 MISSED OPPORTUNITY: 0 LATE IN PQ: 0 UNCOVERED: 0
LLC COMMIT LATE MSHR PREFETCHES: 0
LLC MPKI TOTAL: 77.3343 MSHR LATE: 0 PQ LATE: 0 COMMIT LATE: 0 MISSED OPPORTUNITY: 0 UNCOVERED: 0
LLC PREFETCHES SAME FILL-ORIGIN LEVEL: 0 DIFFERENT FILL-ORIGIN LEVEL: 0
LLC AVERAGE MISS LATENCY: 85.2019 cycles
LLC AVERAGE MISS LATENCY LOAD: 154.424 cycles
LLC AVERAGE MISS LATENCY PREFETCH: -nan cycles
LLC AVERAGE MSHR OCCUPANCY: 1.94954
LLC MSHR FULL: 0
LLC RQ	ACCESS:   28680545	FORWARD:          0	MERGED:          0	TO_CACHE:   28679936
LLC WQ	ACCESS:   20555018	FORWARD:        609	MERGED:          0	TO_CACHE:   20555018

LLC Dense regions hint to LLC: 0

RAW hits: 469867
Loads Generated: 71752506
Loads sent to L1D: 71282637
Stores Generated: 3578449
Stores sent to L1D: 3578449
Major fault: 0 Minor fault: 219750
Allocated PAGES: 219750
Total Load insts: 89108453
Total Non-spec loads: 10674618
Percentage of speculative loads: 88.0206

LeapFrogging counter: 33737630
Commit hits: 29373794 miss: 31794064
Commit hit %: 48.0216 miss %: 51.9784
Commits not translated: 0
Loads retired: 30954709
Stores retired: 3578449
Cache fills: 30954709
L1D response latency: 110.088 cycles
Load retirement latency: 306.98 cycles
OOO test counter: 0
Discarded buffer inserts: 29373794 hits: 25116 hit %: 0.0855048

DRAM Statistics
 CHANNEL 0
 RQ ROW_BUFFER_HIT:    1782800  ROW_BUFFER_MISS:   14089545
 DBUS_CONGESTED:       6628
 WQ ROW_BUFFER_HIT:    4354152  ROW_BUFFER_MISS:    9106552  FULL:       3088

 AVG_CONGESTED_CYCLE: 4
 All warmup complete: 2
Channel 0 Bank busy for read cycles: 0
Channel 0 Bank busy for write cycles: 0
Channel 0
Rank 0
0banks busy for read cycles: 79846951
0banks busy for write cycles: 168921
1banks busy for read cycles: 402089580
1banks busy for write cycles: 30024767
2banks busy for read cycles: 202361451
2banks busy for write cycles: 36947297
3banks busy for read cycles: 114478004
3banks busy for write cycles: 45079608
4banks busy for read cycles: 69995155
4banks busy for write cycles: 52918454
5banks busy for read cycles: 47472793
5banks busy for write cycles: 61492014
6banks busy for read cycles: 33983967
6banks busy for write cycles: 74895431
7banks busy for read cycles: 23723473
7banks busy for write cycles: 103503318
8banks busy for read cycles: 21033963
8banks busy for write cycles: 143798135

CPU 0 Branch Prediction Accuracy: 96.9705% MPKI: 9.2675 Average ROB Occupancy at Mispredict: 60.4519
Branch types
NOT_BRANCH: 138818916 69.4095%
BRANCH_DIRECT_JUMP: 7722186 3.86109%
BRANCH_INDIRECT: 0 0%
BRANCH_CONDITIONAL: 52053293 26.0266%
BRANCH_DIRECT_CALL: 648845 0.324422%
BRANCH_INDIRECT_CALL: 53834 0.026917%
BRANCH_RETURN: 702677 0.351338%
BRANCH_OTHER: 0 0%

DRAM PAGES: 1048576
Allocated PAGES: 219750
