
*** ChampSim Multicore Out-of-Order Simulator ***

Warmup Instructions: 50000000
Simulation Instructions: 200000000
Number of CPUs: 1
LLC sets: 2048
LLC ways: 16
L0D sets: 16
L0D ways: 2
ROB size: 352
LQ size: 128
SQ size: 72
Secure Berti: OFF
Berti: OFF
Berti Fill: OFF
On commit prefetching: OFF
Hit-based filter: ON
Time-guarding: ON
Free-slotting: ON
Leap-frogging: ON
Train prefetcher on L0D bypass: OFF
No translation penalty for prefetchers: OFF
Prefetch to L0D only: OFF
Prefetch to L1D only: OFF
Clean evictions: ON
Commit loads: ON
Commit write: ON
Fill commit loads to L2C, LLC: ON
DRAM IO FREQUENCY: 6400
ROB SIZE: 352
Off-chip DRAM Size: 4096 MB Channels: 1 Width: 64-bit Data Rate: 6400 MT/s
CPU 0 runs /home/sumon/secure_berti/GhostMinion/../../traces/spec/605.mcf_s-484B.champsimtrace.xz
.xz
BTB has LRU replacement policy
ITLB has LRU replacement policy
DTLB has LRU replacement policy
STLB has LRU replacement policy
L1I has LRU replacement policy
L0D has LRU replacement policy
L1D has LRU replacement policy
L2C has LRU replacement policy
LLC has LRU replacement policy
Heartbeat CPU 0 instructions: 10000001 cycles: 5825935 heartbeat IPC: 1.71646 cumulative IPC: 1.71646 (Simulation time: 0 hr 0 min 38 sec) 
Heartbeat CPU 0 instructions: 20000000 cycles: 11576345 heartbeat IPC: 1.73901 cumulative IPC: 1.72766 (Simulation time: 0 hr 1 min 17 sec) 
Heartbeat CPU 0 instructions: 30000001 cycles: 17125941 heartbeat IPC: 1.80193 cumulative IPC: 1.75173 (Simulation time: 0 hr 1 min 57 sec) 
Heartbeat CPU 0 instructions: 40000000 cycles: 22918793 heartbeat IPC: 1.72627 cumulative IPC: 1.74529 (Simulation time: 0 hr 2 min 35 sec) 
Heartbeat CPU 0 instructions: 50000000 cycles: 28626239 heartbeat IPC: 1.7521 cumulative IPC: 1.74665 (Simulation time: 0 hr 3 min 15 sec) 

Warmup complete CPU 0 instructions: 50000004 cycles: 28626240 (Simulation time: 0 hr 3 min 15 sec) 

Heartbeat CPU 0 instructions: 60000003 cycles: 59934571 heartbeat IPC: 0.319404 cumulative IPC: 0.319404 (Simulation time: 0 hr 4 min 18 sec) 
Heartbeat CPU 0 instructions: 70000003 cycles: 103588529 heartbeat IPC: 0.229074 cumulative IPC: 0.266801 (Simulation time: 0 hr 5 min 34 sec) 
Heartbeat CPU 0 instructions: 80000000 cycles: 142356755 heartbeat IPC: 0.257943 cumulative IPC: 0.263781 (Simulation time: 0 hr 6 min 44 sec) 
Heartbeat CPU 0 instructions: 90000000 cycles: 180440788 heartbeat IPC: 0.262577 cumulative IPC: 0.263479 (Simulation time: 0 hr 7 min 54 sec) 
Heartbeat CPU 0 instructions: 100000000 cycles: 212309785 heartbeat IPC: 0.313785 cumulative IPC: 0.272207 (Simulation time: 0 hr 8 min 59 sec) 
Heartbeat CPU 0 instructions: 110000000 cycles: 246252370 heartbeat IPC: 0.294615 cumulative IPC: 0.275702 (Simulation time: 0 hr 10 min 6 sec) 
Heartbeat CPU 0 instructions: 120000001 cycles: 272386379 heartbeat IPC: 0.382643 cumulative IPC: 0.287168 (Simulation time: 0 hr 11 min 7 sec) 
Heartbeat CPU 0 instructions: 130000000 cycles: 299379646 heartbeat IPC: 0.370463 cumulative IPC: 0.295472 (Simulation time: 0 hr 12 min 9 sec) 
Heartbeat CPU 0 instructions: 140000001 cycles: 332806863 heartbeat IPC: 0.299157 cumulative IPC: 0.295877 (Simulation time: 0 hr 13 min 20 sec) 
Heartbeat CPU 0 instructions: 150000001 cycles: 359558882 heartbeat IPC: 0.373804 cumulative IPC: 0.302176 (Simulation time: 0 hr 14 min 23 sec) 
Heartbeat CPU 0 instructions: 160000000 cycles: 388559275 heartbeat IPC: 0.344823 cumulative IPC: 0.305612 (Simulation time: 0 hr 15 min 23 sec) 
Heartbeat CPU 0 instructions: 170000000 cycles: 423559022 heartbeat IPC: 0.285716 cumulative IPC: 0.303849 (Simulation time: 0 hr 16 min 24 sec) 
Heartbeat CPU 0 instructions: 180000000 cycles: 455782993 heartbeat IPC: 0.310328 cumulative IPC: 0.304338 (Simulation time: 0 hr 17 min 22 sec) 
Heartbeat CPU 0 instructions: 190000000 cycles: 487981860 heartbeat IPC: 0.31057 cumulative IPC: 0.304775 (Simulation time: 0 hr 18 min 13 sec) 
Heartbeat CPU 0 instructions: 200000003 cycles: 533987992 heartbeat IPC: 0.217362 cumulative IPC: 0.296817 (Simulation time: 0 hr 19 min 15 sec) 
Heartbeat CPU 0 instructions: 210000002 cycles: 577550854 heartbeat IPC: 0.229553 cumulative IPC: 0.291479 (Simulation time: 0 hr 20 min 13 sec) 
Heartbeat CPU 0 instructions: 220000000 cycles: 608279498 heartbeat IPC: 0.325429 cumulative IPC: 0.293279 (Simulation time: 0 hr 21 min 2 sec) 
Heartbeat CPU 0 instructions: 230000002 cycles: 637138872 heartbeat IPC: 0.346508 cumulative IPC: 0.295803 (Simulation time: 0 hr 21 min 49 sec) 
Heartbeat CPU 0 instructions: 240000000 cycles: 668323287 heartbeat IPC: 0.320673 cumulative IPC: 0.297016 (Simulation time: 0 hr 22 min 38 sec) 
Heartbeat CPU 0 instructions: 250000001 cycles: 706595449 heartbeat IPC: 0.261287 cumulative IPC: 0.294999 (Simulation time: 0 hr 23 min 31 sec) 
Finished CPU 0 instructions: 200000001 cycles: 677969211 cumulative IPC: 0.294999 (Simulation time: 0 hr 23 min 31 sec) 
 Instruction ID: 250000298

ChampSim completed all CPUs

Region of Interest Statistics

CPU 0 cumulative IPC: 0.294999 instructions: 200000001 cycles: 677969211
ITLB SPEC fills:          0  NON-SPEC fills:          0
ITLB Test counter :          0
ITLB Leapfrog:          0
ITLB MSHR merge:          0
ITLB TOTAL     ACCESS:   33042023  HIT:   33042023  MISS:          0  HIT %:        100  MISS %:          0   MPKI: 0
ITLB LOAD TRANSLATION NON_SPEC    ACCESS:   33042023  HIT:   33042023  MISS:          0  HIT %:        100  MISS %:          0   MPKI: 0
ITLB PREFETCH  REQUESTED:          0  ISSUED:          0  USEFUL:          0  USELESS:          0
ITLB USEFUL LOAD PREFETCHES:          0 PREFETCH ISSUED TO LOWER LEVEL:          0  ACCURACY: -nan
ITLB TIMELY PREFETCHES:          0 LATE PREFETCHES: 0 DROPPED PREFETCHES: 0
ITLB COMMIT LATE PREFETCHES: 0 MISSED OPPORTUNITY: 0 LATE IN PQ: 0 UNCOVERED: 0
ITLB COMMIT LATE MSHR PREFETCHES: 0
ITLB MPKI TOTAL: 0 MSHR LATE: 0 PQ LATE: 0 COMMIT LATE: 0 MISSED OPPORTUNITY: 0 UNCOVERED: 0
ITLB PREFETCHES SAME FILL-ORIGIN LEVEL: 0 DIFFERENT FILL-ORIGIN LEVEL: 0
ITLB AVERAGE MISS LATENCY: -nan cycles
ITLB AVERAGE MISS LATENCY LOAD: -nan cycles
ITLB AVERAGE MISS LATENCY PREFETCH: -nan cycles
ITLB AVERAGE MSHR OCCUPANCY: 0
ITLB MSHR FULL: 0
ITLB RQ	ACCESS:   43390677	FORWARD:          0	MERGED:   10348655	TO_CACHE:   33042022

DTLB SPEC fills:          0  NON-SPEC fills:          0
DTLB Test counter :          0
DTLB Leapfrog:          0
DTLB MSHR merge:          0
DTLB TOTAL     ACCESS:   56293565  HIT:   55815627  MISS:     477938  HIT %:     99.151  MISS %:    0.84901   MPKI: 2.38969
DTLB LOAD TRANSLATION NON_SPEC    ACCESS:   56293565  HIT:   55815627  MISS:     477938  HIT %:     99.151  MISS %:    0.84901   MPKI: 2.38969
DTLB PREFETCH  REQUESTED:          0  ISSUED:          0  USEFUL:          0  USELESS:          0
DTLB USEFUL LOAD PREFETCHES:          0 PREFETCH ISSUED TO LOWER LEVEL:          0  ACCURACY: -nan
DTLB TIMELY PREFETCHES:          0 LATE PREFETCHES: 0 DROPPED PREFETCHES: 0
DTLB COMMIT LATE PREFETCHES: 0 MISSED OPPORTUNITY: 0 LATE IN PQ: 0 UNCOVERED: 0
DTLB COMMIT LATE MSHR PREFETCHES: 0
DTLB MPKI TOTAL: 0 MSHR LATE: 0 PQ LATE: 0 COMMIT LATE: 0 MISSED OPPORTUNITY: 0 UNCOVERED: 0
DTLB PREFETCHES SAME FILL-ORIGIN LEVEL: 0 DIFFERENT FILL-ORIGIN LEVEL: 0
DTLB AVERAGE MISS LATENCY: 48.9815 cycles
DTLB AVERAGE MISS LATENCY LOAD: -nan cycles
DTLB AVERAGE MISS LATENCY PREFETCH: -nan cycles
DTLB AVERAGE MSHR OCCUPANCY: 0.0158659
DTLB MSHR FULL: 0
DTLB RQ	ACCESS:   97575058	FORWARD:          0	MERGED:   41226459	TO_CACHE:   56348599

STLB SPEC fills:          0  NON-SPEC fills:          0
STLB Test counter :          0
STLB Leapfrog:          0
STLB MSHR merge:          0
STLB TOTAL     ACCESS:     477938  HIT:     331939  MISS:     145999  HIT %:    69.4523  MISS %:    30.5477   MPKI: 0.729995
STLB LOAD TRANSLATION NON_SPEC    ACCESS:     477938  HIT:     331939  MISS:     145999  HIT %:    69.4523  MISS %:    30.5477   MPKI: 0.729995
STLB PREFETCH  REQUESTED:          0  ISSUED:          0  USEFUL:          0  USELESS:          0
STLB USEFUL LOAD PREFETCHES:          0 PREFETCH ISSUED TO LOWER LEVEL:          0  ACCURACY: -nan
STLB TIMELY PREFETCHES:          0 LATE PREFETCHES: 0 DROPPED PREFETCHES: 0
STLB COMMIT LATE PREFETCHES: 0 MISSED OPPORTUNITY: 0 LATE IN PQ: 0 UNCOVERED: 0
STLB COMMIT LATE MSHR PREFETCHES: 0
STLB MPKI TOTAL: 0 MSHR LATE: 0 PQ LATE: 0 COMMIT LATE: 0 MISSED OPPORTUNITY: 0 UNCOVERED: 0
STLB PREFETCHES SAME FILL-ORIGIN LEVEL: 0 DIFFERENT FILL-ORIGIN LEVEL: 0
STLB AVERAGE MISS LATENCY: 130.863 cycles
STLB AVERAGE MISS LATENCY LOAD: -nan cycles
STLB AVERAGE MISS LATENCY PREFETCH: -nan cycles
STLB AVERAGE MSHR OCCUPANCY: 0.00809938
STLB MSHR FULL: 0
STLB RQ	ACCESS:     477938	FORWARD:          0	MERGED:          0	TO_CACHE:     477938

STLB Hit, L1D data hit: 0
STLB Hit, L2C data hit: 0
STLB Hit, LLC data hit: 0
STLB Hit, LLC data miss: 0
STLB STLB hints to L2: 0
L0D SPEC fills:   26875562  NON-SPEC fills:          0
L0D TimeGuard Request with older TS:     371833 Restricted eviction:      96975 read:     660101
L0D Test counter :          0
L0D Leapfrog:          0
L0D MSHR merge:    2013082
L0D TOTAL     ACCESS:   38218787  HIT:    4450675  MISS:   33768112  HIT %:    11.6453  MISS %:    88.3547   MPKI: 168.841
L0D LOAD      TOTAL       ACCESS:   38218787  HIT:    4450675  MISS:   33768112  HIT %:    11.6453  MISS %:    88.3547   MPKI: 168.841
L0D LOAD      NON_SPEC    ACCESS:    7177817  HIT:     382242  MISS:    6795575  HIT %:    5.32532  MISS %:    94.6747   MPKI: 33.9779
L0D LOAD      SPEC        ACCESS:   31040970  HIT:    4068433  MISS:   26972537  HIT %:    13.1067  MISS %:    86.8933   MPKI: 134.863
L0D PREFETCH  REQUESTED:          0  ISSUED:          0  USEFUL:          0  USELESS:          0
L0D USEFUL LOAD PREFETCHES:          0 PREFETCH ISSUED TO LOWER LEVEL:          0  ACCURACY: -nan
L0D TIMELY PREFETCHES:          0 LATE PREFETCHES: 0 DROPPED PREFETCHES: 0
L0D COMMIT LATE PREFETCHES: 0 MISSED OPPORTUNITY: 0 LATE IN PQ: 0 UNCOVERED: 0
L0D COMMIT LATE MSHR PREFETCHES: 0
L0D MPKI TOTAL: 178.906 MSHR LATE: 0 PQ LATE: 0 COMMIT LATE: 0 MISSED OPPORTUNITY: 0 UNCOVERED: 0
L0D PREFETCHES SAME FILL-ORIGIN LEVEL: 0 DIFFERENT FILL-ORIGIN LEVEL: 0
L0D AVERAGE MISS LATENCY: 37.0909 cycles
L0D AVERAGE MISS LATENCY LOAD: 37.0909 cycles
L0D AVERAGE MISS LATENCY PREFETCH: -nan cycles
L0D AVERAGE MSHR OCCUPANCY: 1.43815
L0D MSHR FULL: 0.0146151
L0D RQ	ACCESS:   62778549	FORWARD:          0	MERGED:   22546679	TO_CACHE:   40231870
L0D WQ	ACCESS:   57343188	FORWARD:          0	MERGED:          0	TO_CACHE:   57343188

L1D SPEC fills:          0  NON-SPEC fills:    1072079
L1D Test counter :    3813397
L1D Leapfrog:          0
L1D MSHR merge:       5336
L1D TOTAL     ACCESS:   93809045  HIT:   84437308  MISS:    9371737  HIT %:    90.0098  MISS %:    9.99023   MPKI: 46.8587
L1D LOAD      TOTAL       ACCESS:   33762776  HIT:   28759270  MISS:    5003506  HIT %:    85.1804  MISS %:    14.8196   MPKI: 25.0175
L1D LOAD      NON_SPEC    ACCESS:    6794323  HIT:    5722244  MISS:    1072079  HIT %:     84.221  MISS %:     15.779   MPKI: 5.36039
L1D LOAD      SPEC        ACCESS:   26968453  HIT:   23037026  MISS:    3931427  HIT %:    85.4221  MISS %:    14.5779   MPKI: 19.6571
L1D RFO       NON_SPEC    ACCESS:   55208617  HIT:   54715414  MISS:     493203  HIT %:    99.1067  MISS %:   0.893344   MPKI: 2.46601
L1D COMMIT LOAD NON_SPEC    ACCESS:     933632  HIT:     871002  MISS:      62630  HIT %:    93.2918  MISS %:    6.70821   MPKI: 0.31315
L1D COMMIT WRITE NON_SPEC    ACCESS:    3904020  HIT:      91622  MISS:    3812398  HIT %:    2.34686  MISS %:    97.6531   MPKI: 19.062
L1D PREFETCH  REQUESTED:          0  ISSUED:          0  USEFUL:          0  USELESS:          0
L1D USEFUL LOAD PREFETCHES:          0 PREFETCH ISSUED TO LOWER LEVEL:          0  ACCURACY: -nan
L1D TIMELY PREFETCHES:          0 LATE PREFETCHES: 0 DROPPED PREFETCHES: 0
L1D COMMIT LATE PREFETCHES: 0 MISSED OPPORTUNITY: 0 LATE IN PQ: 0 UNCOVERED: 0
L1D COMMIT LATE MSHR PREFETCHES: 0
L1D MPKI TOTAL: 25.0442 MSHR LATE: 0 PQ LATE: 0 COMMIT LATE: 0 MISSED OPPORTUNITY: 0 UNCOVERED: 0
L1D PREFETCHES SAME FILL-ORIGIN LEVEL: 0 DIFFERENT FILL-ORIGIN LEVEL: 0
L1D AVERAGE MISS LATENCY: 129.627 cycles
L1D AVERAGE MISS LATENCY LOAD: 215.065 cycles
L1D AVERAGE MISS LATENCY PREFETCH: -nan cycles
L1D AVERAGE MSHR OCCUPANCY: 0.83254
L1D MSHR FULL: 0
L1D RQ	ACCESS:   34902411	FORWARD:          0	MERGED:     186036	TO_CACHE:   34716254
L1D WQ	ACCESS:   61247213	FORWARD:        121	MERGED:     657663	TO_CACHE:   60589550

L1D UNIQUE REGIONS ACCESSED: 0
L1D REGIONS CONFLICTS: 0
L1D Cross Page Prefetch Requests: 0
L1D Same Page Prefetch Requests: 0
L1D ROI Sum of L1D PQ occupancy: 0
L1D PREFETCHES PUSHED FROM L2C: 0
L1I SPEC fills:          0  NON-SPEC fills:          0
L1I Test counter :          0
L1I Leapfrog:          0
L1I MSHR merge:          0
L1I TOTAL     ACCESS:   43390678  HIT:   43390678  MISS:          0  HIT %:        100  MISS %:          0   MPKI: 0
L1I LOAD      TOTAL       ACCESS:   43390678  HIT:   43390678  MISS:          0  HIT %:        100  MISS %:          0   MPKI: 0
L1I LOAD      NON_SPEC    ACCESS:   43390678  HIT:   43390678  MISS:          0  HIT %:        100  MISS %:          0   MPKI: 0
L1I PREFETCH  REQUESTED:          0  ISSUED:          0  USEFUL:          0  USELESS:          0
L1I USEFUL LOAD PREFETCHES:          0 PREFETCH ISSUED TO LOWER LEVEL:          0  ACCURACY: -nan
L1I TIMELY PREFETCHES:          0 LATE PREFETCHES: 0 DROPPED PREFETCHES: 0
L1I COMMIT LATE PREFETCHES: 0 MISSED OPPORTUNITY: 0 LATE IN PQ: 0 UNCOVERED: 0
L1I COMMIT LATE MSHR PREFETCHES: 0
L1I MPKI TOTAL: 0 MSHR LATE: 0 PQ LATE: 0 COMMIT LATE: 0 MISSED OPPORTUNITY: 0 UNCOVERED: 0
L1I PREFETCHES SAME FILL-ORIGIN LEVEL: 0 DIFFERENT FILL-ORIGIN LEVEL: 0
L1I AVERAGE MISS LATENCY: -nan cycles
L1I AVERAGE MISS LATENCY LOAD: -nan cycles
L1I AVERAGE MISS LATENCY PREFETCH: -nan cycles
L1I AVERAGE MSHR OCCUPANCY: 0
L1I MSHR FULL: 0
L1I RQ	ACCESS:   58942553	FORWARD:          0	MERGED:   15551876	TO_CACHE:   43390677

BTB SPEC fills:          0  NON-SPEC fills:          0
BTB Test counter :          0
BTB Leapfrog:          0
BTB MSHR merge:          0
BTB TOTAL     ACCESS:   19468364  HIT:   19468330  MISS:         34  HIT %:    99.9998  MISS %: 0.000174642   MPKI: 0.00017
BTB BRANCH_DIRECT_JUMP	ACCESS:     976614  HIT:     976608  MISS:          6
BTB BRANCH_INDIRECT	ACCESS:          0  HIT:          0  MISS:          0
BTB BRANCH_CONDITIONAL	ACCESS:   18491562  HIT:   18491538  MISS:         24
BTB BRANCH_DIRECT_CALL	ACCESS:         94  HIT:         92  MISS:          2
BTB BRANCH_INDIRECT_CALL	ACCESS:          0  HIT:          0  MISS:          0
BTB BRANCH_RETURN	ACCESS:         94  HIT:         92  MISS:          2
BTB BRANCH_OTHER ACCESS:          0  HIT:          0  MISS:          0

L2C SPEC fills:          0  NON-SPEC fills:    1050772
L2C Test counter :    3755568
L2C Leapfrog:          0
L2C MSHR merge:          0
L2C TOTAL     ACCESS:   10835161  HIT:    1643847  MISS:    9191314  HIT %:    15.1714  MISS %:    84.8286   MPKI: 45.9566
L2C LOAD      TOTAL       ACCESS:    5003439  HIT:     111449  MISS:    4891990  HIT %:    2.22745  MISS %:    97.7726   MPKI: 24.4599
L2C LOAD      NON_SPEC    ACCESS:    1072077  HIT:      21305  MISS:    1050772  HIT %:    1.98726  MISS %:    98.0127   MPKI: 5.25386
L2C LOAD      SPEC        ACCESS:    3931362  HIT:      90144  MISS:    3841218  HIT %:    2.29295  MISS %:    97.7071   MPKI: 19.2061
L2C RFO       NON_SPEC    ACCESS:     493182  HIT:       3535  MISS:     489647  HIT %:   0.716774  MISS %:    99.2832   MPKI: 2.44823
L2C WRITEBACK NON_SPEC    ACCESS:     732615  HIT:     731555  MISS:       1060  HIT %:    99.8553  MISS %:   0.144687   MPKI: 0.0053
L2C CLEAN_EVICTION NON_SPEC    ACCESS:    3813397  HIT:      89082  MISS:    3724315  HIT %:    2.33603  MISS %:     97.664   MPKI: 18.6216
L2C COMMIT LOAD NON_SPEC    ACCESS:      62630  HIT:        258  MISS:      62372  HIT %:   0.411943  MISS %:    99.5881   MPKI: 0.31186
L2C LOAD TRANSLATION NON_SPEC    ACCESS:     729898  HIT:     707968  MISS:      21930  HIT %:    96.9955  MISS %:    3.00453   MPKI: 0.10965
L2C PREFETCH  REQUESTED:          0  ISSUED:          0  USEFUL:          0  USELESS:          0
L2C USEFUL LOAD PREFETCHES:          0 PREFETCH ISSUED TO LOWER LEVEL:          0  ACCURACY: -nan
L2C TIMELY PREFETCHES:          0 LATE PREFETCHES: 0 DROPPED PREFETCHES: 0
L2C COMMIT LATE PREFETCHES: 0 MISSED OPPORTUNITY: 0 LATE IN PQ: 0 UNCOVERED: 0
L2C COMMIT LATE MSHR PREFETCHES: 0
L2C MPKI TOTAL: 24.4599 MSHR LATE: 0 PQ LATE: 0 COMMIT LATE: 0 MISSED OPPORTUNITY: 0 UNCOVERED: 0
L2C PREFETCHES SAME FILL-ORIGIN LEVEL: 0 DIFFERENT FILL-ORIGIN LEVEL: 0
L2C AVERAGE MISS LATENCY: 125.373 cycles
L2C AVERAGE MISS LATENCY LOAD: 207.758 cycles
L2C AVERAGE MISS LATENCY PREFETCH: -nan cycles
L2C AVERAGE MSHR OCCUPANCY: 1.97684
L2C MSHR FULL: 0
L2C RQ	ACCESS:    6289237	FORWARD:          0	MERGED:          0	TO_CACHE:    6289149
L2C WQ	ACCESS:    4546012	FORWARD:         88	MERGED:          0	TO_CACHE:    4546012

L2C Instructions Evicting Data 0
L2C Translations Evicting Data 21874
L2C Data Evicting Data 1595976
L2C Instructions Evicting Instructions 0
L2C Translations Evicting Instructions 0
L2C Data Evicting Instructions 0
L2C Instructions Evicting Translations 0
L2C Translations Evicting Translations 56
L2C Data Evicting Translations 6815
L2C Dense regions hint from L2: 0
PSCL5 SPEC fills:          0  NON-SPEC fills:          0
PSCL5 Test counter :          0
PSCL5 Leapfrog:          0
PSCL5 MSHR merge:          0
PSCL5 TOTAL     ACCESS:          0  HIT:          0  MISS:          0  HIT %:       -nan  MISS %:       -nan   MPKI: 0
PSCL5 PREFETCH  REQUESTED:          0  ISSUED:          0  USEFUL:          0  USELESS:          0
PSCL5 USEFUL LOAD PREFETCHES:          0 PREFETCH ISSUED TO LOWER LEVEL:          0  ACCURACY: -nan
PSCL5 TIMELY PREFETCHES:          0 LATE PREFETCHES: 0 DROPPED PREFETCHES: 0
PSCL5 COMMIT LATE PREFETCHES: 0 MISSED OPPORTUNITY: 0 LATE IN PQ: 0 UNCOVERED: 0
PSCL5 COMMIT LATE MSHR PREFETCHES: 0
PSCL5 MPKI TOTAL: 0 MSHR LATE: 0 PQ LATE: 0 COMMIT LATE: 0 MISSED OPPORTUNITY: 0 UNCOVERED: 0
PSCL5 PREFETCHES SAME FILL-ORIGIN LEVEL: 0 DIFFERENT FILL-ORIGIN LEVEL: 0

PSCL4 SPEC fills:          0  NON-SPEC fills:          0
PSCL4 Test counter :          0
PSCL4 Leapfrog:          0
PSCL4 MSHR merge:          0
PSCL4 TOTAL     ACCESS:          0  HIT:          0  MISS:          0  HIT %:       -nan  MISS %:       -nan   MPKI: 0
PSCL4 PREFETCH  REQUESTED:          0  ISSUED:          0  USEFUL:          0  USELESS:          0
PSCL4 USEFUL LOAD PREFETCHES:          0 PREFETCH ISSUED TO LOWER LEVEL:          0  ACCURACY: -nan
PSCL4 TIMELY PREFETCHES:          0 LATE PREFETCHES: 0 DROPPED PREFETCHES: 0
PSCL4 COMMIT LATE PREFETCHES: 0 MISSED OPPORTUNITY: 0 LATE IN PQ: 0 UNCOVERED: 0
PSCL4 COMMIT LATE MSHR PREFETCHES: 0
PSCL4 MPKI TOTAL: 0 MSHR LATE: 0 PQ LATE: 0 COMMIT LATE: 0 MISSED OPPORTUNITY: 0 UNCOVERED: 0
PSCL4 PREFETCHES SAME FILL-ORIGIN LEVEL: 0 DIFFERENT FILL-ORIGIN LEVEL: 0

PSCL3 SPEC fills:          0  NON-SPEC fills:          0
PSCL3 Test counter :          0
PSCL3 Leapfrog:          0
PSCL3 MSHR merge:          0
PSCL3 TOTAL     ACCESS:          0  HIT:          0  MISS:          0  HIT %:       -nan  MISS %:       -nan   MPKI: 0
PSCL3 PREFETCH  REQUESTED:          0  ISSUED:          0  USEFUL:          0  USELESS:          0
PSCL3 USEFUL LOAD PREFETCHES:          0 PREFETCH ISSUED TO LOWER LEVEL:          0  ACCURACY: -nan
PSCL3 TIMELY PREFETCHES:          0 LATE PREFETCHES: 0 DROPPED PREFETCHES: 0
PSCL3 COMMIT LATE PREFETCHES: 0 MISSED OPPORTUNITY: 0 LATE IN PQ: 0 UNCOVERED: 0
PSCL3 COMMIT LATE MSHR PREFETCHES: 0
PSCL3 MPKI TOTAL: 0 MSHR LATE: 0 PQ LATE: 0 COMMIT LATE: 0 MISSED OPPORTUNITY: 0 UNCOVERED: 0
PSCL3 PREFETCHES SAME FILL-ORIGIN LEVEL: 0 DIFFERENT FILL-ORIGIN LEVEL: 0

PSCL2 SPEC fills:          0  NON-SPEC fills:          0
PSCL2 Test counter :          0
PSCL2 Leapfrog:          0
PSCL2 MSHR merge:          0
PSCL2 TOTAL     ACCESS:          0  HIT:          0  MISS:          0  HIT %:       -nan  MISS %:       -nan   MPKI: 0
PSCL2 PREFETCH  REQUESTED:          0  ISSUED:          0  USEFUL:          0  USELESS:          0
PSCL2 USEFUL LOAD PREFETCHES:          0 PREFETCH ISSUED TO LOWER LEVEL:          0  ACCURACY: -nan
PSCL2 TIMELY PREFETCHES:          0 LATE PREFETCHES: 0 DROPPED PREFETCHES: 0
PSCL2 COMMIT LATE PREFETCHES: 0 MISSED OPPORTUNITY: 0 LATE IN PQ: 0 UNCOVERED: 0
PSCL2 COMMIT LATE MSHR PREFETCHES: 0
PSCL2 MPKI TOTAL: 0 MSHR LATE: 0 PQ LATE: 0 COMMIT LATE: 0 MISSED OPPORTUNITY: 0 UNCOVERED: 0
PSCL2 PREFETCHES SAME FILL-ORIGIN LEVEL: 0 DIFFERENT FILL-ORIGIN LEVEL: 0

LLC SPEC fills:          0  NON-SPEC fills:    1048871
LLC Test counter :    3754396
LLC Leapfrog:          0
LLC MSHR merge:          0
LLC TOTAL     ACCESS:    9942453  HIT:     767087  MISS:    9175366  HIT %:    7.71527  MISS %:    92.2847   MPKI: 45.8768
LLC LOAD      TOTAL       ACCESS:    4891990  HIT:       8299  MISS:    4883691  HIT %:   0.169645  MISS %:    99.8304   MPKI: 24.4185
LLC LOAD      NON_SPEC    ACCESS:    1050772  HIT:       1901  MISS:    1048871  HIT %:   0.180915  MISS %:    99.8191   MPKI: 5.24435
LLC LOAD      SPEC        ACCESS:    3841218  HIT:       6398  MISS:    3834820  HIT %:   0.166562  MISS %:    99.8334   MPKI: 19.1741
LLC RFO       NON_SPEC    ACCESS:     489647  HIT:         80  MISS:     489567  HIT %:  0.0163383  MISS %:    99.9837   MPKI: 2.44783
LLC WRITEBACK NON_SPEC    ACCESS:     720946  HIT:     720289  MISS:        657  HIT %:    99.9089  MISS %:  0.0911303   MPKI: 0.003285
LLC CLEAN_EVICTION NON_SPEC    ACCESS:    3755568  HIT:      37047  MISS:    3718521  HIT %:   0.986455  MISS %:    99.0135   MPKI: 18.5926
LLC COMMIT LOAD NON_SPEC    ACCESS:      62372  HIT:         47  MISS:      62325  HIT %:  0.0753543  MISS %:    99.9246   MPKI: 0.311625
LLC LOAD TRANSLATION NON_SPEC    ACCESS:      21930  HIT:       1325  MISS:      20605  HIT %:    6.04195  MISS %:     93.958   MPKI: 0.103025
LLC PREFETCH  REQUESTED:          0  ISSUED:          0  USEFUL:          0  USELESS:          0
LLC USEFUL LOAD PREFETCHES:          0 PREFETCH ISSUED TO LOWER LEVEL:          0  ACCURACY: -nan
LLC TIMELY PREFETCHES:          0 LATE PREFETCHES: 0 DROPPED PREFETCHES: 0
LLC COMMIT LATE PREFETCHES: 0 MISSED OPPORTUNITY: 0 LATE IN PQ: 0 UNCOVERED: 0
LLC COMMIT LATE MSHR PREFETCHES: 0
LLC MPKI TOTAL: 24.4185 MSHR LATE: 0 PQ LATE: 0 COMMIT LATE: 0 MISSED OPPORTUNITY: 0 UNCOVERED: 0
LLC PREFETCHES SAME FILL-ORIGIN LEVEL: 0 DIFFERENT FILL-ORIGIN LEVEL: 0
LLC AVERAGE MISS LATENCY: 111.439 cycles
LLC AVERAGE MISS LATENCY LOAD: 185.059 cycles
LLC AVERAGE MISS LATENCY PREFETCH: -nan cycles
LLC AVERAGE MSHR OCCUPANCY: 1.73989
LLC MSHR FULL: 0
LLC RQ	ACCESS:    5465939	FORWARD:          0	MERGED:          0	TO_CACHE:    5465939
LLC WQ	ACCESS:    4476514	FORWARD:          0	MERGED:          0	TO_CACHE:    4476514

LLC Dense regions hint to LLC: 0

RAW hits: 1388971
Loads Generated: 64167520
Loads sent to L1D: 62778549
Stores Generated: 57343183
Stores sent to L1D: 57343188
Major fault: 0 Minor fault: 60491
Allocated PAGES: 60491
Total Load insts: 78208019
Total Non-spec loads: 10379667
Percentage of speculative loads: 86.7281

LeapFrogging counter: 306439
Commit hits: 26577161 miss: 27558015
Commit hit %: 49.0941 miss %: 50.9059
Commits not translated: 0
Loads retired: 5003506
Stores retired: 57343188
Cache fills: 5003506
L1D response latency: 215.065 cycles
Load retirement latency: 365.89 cycles
OOO test counter: 0
Discarded buffer inserts: 26577161 hits: 9947 hit %: 0.0374269

DRAM Statistics
 CHANNEL 0
 RQ ROW_BUFFER_HIT:    1370808  ROW_BUFFER_MISS:    4085379
 DBUS_CONGESTED:       1900
 WQ ROW_BUFFER_HIT:    1076284  ROW_BUFFER_MISS:    3397216  FULL:     168738

 AVG_CONGESTED_CYCLE: 5
 All warmup complete: 2
Channel 0 Bank busy for read cycles: 0
Channel 0 Bank busy for write cycles: 0
Channel 0
Rank 0
0banks busy for read cycles: 60988470
0banks busy for write cycles: 287171
1banks busy for read cycles: 203215756
1banks busy for write cycles: 49338484
2banks busy for read cycles: 85755844
2banks busy for write cycles: 42716737
3banks busy for read cycles: 47493094
3banks busy for write cycles: 32309403
4banks busy for read cycles: 27174754
4banks busy for write cycles: 21171529
5banks busy for read cycles: 10950087
5banks busy for write cycles: 12302050
6banks busy for read cycles: 2440503
6banks busy for write cycles: 7282599
7banks busy for read cycles: 238727
7banks busy for write cycles: 11512241
8banks busy for read cycles: 3636
8banks busy for write cycles: 62788127

CPU 0 Branch Prediction Accuracy: 99.1376% MPKI: 0.85602 Average ROB Occupancy at Mispredict: 249.339
Branch types
NOT_BRANCH: 180147860 90.0739%
BRANCH_DIRECT_JUMP: 976614 0.488307%
BRANCH_INDIRECT: 0 0%
BRANCH_CONDITIONAL: 18875250 9.43762%
BRANCH_DIRECT_CALL: 94 4.7e-05%
BRANCH_INDIRECT_CALL: 0 0%
BRANCH_RETURN: 94 4.7e-05%
BRANCH_OTHER: 0 0%

DRAM PAGES: 1048576
Allocated PAGES: 60491
