
*** ChampSim Multicore Out-of-Order Simulator ***

Warmup Instructions: 50000000
Simulation Instructions: 200000000
Number of CPUs: 1
LLC sets: 2048
LLC ways: 16
L0D sets: 16
L0D ways: 2
ROB size: 352
LQ size: 128
SQ size: 72
Secure Berti: OFF
Berti: OFF
Berti Fill: OFF
On commit prefetching: OFF
Hit-based filter: ON
Time-guarding: ON
Free-slotting: ON
Leap-frogging: ON
Train prefetcher on L0D bypass: OFF
No translation penalty for prefetchers: OFF
Prefetch to L0D only: OFF
Prefetch to L1D only: OFF
Clean evictions: ON
Commit loads: ON
Commit write: ON
Fill commit loads to L2C, LLC: ON
DRAM IO FREQUENCY: 6400
ROB SIZE: 352
Off-chip DRAM Size: 4096 MB Channels: 1 Width: 64-bit Data Rate: 6400 MT/s
CPU 0 runs /home/sumon/secure_berti/GhostMinion/../../traces/spec/605.mcf_s-1152B.champsimtrace.xz
.xz
BTB has LRU replacement policy
ITLB has LRU replacement policy
DTLB has LRU replacement policy
STLB has LRU replacement policy
L1I has LRU replacement policy
L0D has LRU replacement policy
L1D has LRU replacement policy
L2C has LRU replacement policy
LLC has LRU replacement policy
Heartbeat CPU 0 instructions: 10000001 cycles: 5578425 heartbeat IPC: 1.79262 cumulative IPC: 1.79262 (Simulation time: 0 hr 0 min 40 sec) 
Heartbeat CPU 0 instructions: 20000000 cycles: 11111622 heartbeat IPC: 1.80727 cumulative IPC: 1.79992 (Simulation time: 0 hr 1 min 21 sec) 
Heartbeat CPU 0 instructions: 30000000 cycles: 16668224 heartbeat IPC: 1.79966 cumulative IPC: 1.79983 (Simulation time: 0 hr 2 min 3 sec) 
Heartbeat CPU 0 instructions: 40000001 cycles: 22241683 heartbeat IPC: 1.79422 cumulative IPC: 1.79843 (Simulation time: 0 hr 2 min 43 sec) 
Heartbeat CPU 0 instructions: 50000001 cycles: 27801283 heartbeat IPC: 1.79869 cumulative IPC: 1.79848 (Simulation time: 0 hr 3 min 26 sec) 

Warmup complete CPU 0 instructions: 50000001 cycles: 27801283 (Simulation time: 0 hr 3 min 26 sec) 

Heartbeat CPU 0 instructions: 60000001 cycles: 67694949 heartbeat IPC: 0.250666 cumulative IPC: 0.250666 (Simulation time: 0 hr 4 min 20 sec) 
Heartbeat CPU 0 instructions: 70000000 cycles: 108147551 heartbeat IPC: 0.247203 cumulative IPC: 0.248923 (Simulation time: 0 hr 5 min 15 sec) 
Heartbeat CPU 0 instructions: 80000001 cycles: 147984982 heartbeat IPC: 0.25102 cumulative IPC: 0.249618 (Simulation time: 0 hr 6 min 11 sec) 
Heartbeat CPU 0 instructions: 90000003 cycles: 188157307 heartbeat IPC: 0.248928 cumulative IPC: 0.249445 (Simulation time: 0 hr 7 min 8 sec) 
Heartbeat CPU 0 instructions: 100000001 cycles: 228675102 heartbeat IPC: 0.246805 cumulative IPC: 0.248912 (Simulation time: 0 hr 8 min 3 sec) 
Heartbeat CPU 0 instructions: 110000000 cycles: 269221464 heartbeat IPC: 0.246631 cumulative IPC: 0.248529 (Simulation time: 0 hr 8 min 58 sec) 
Heartbeat CPU 0 instructions: 120000002 cycles: 309982810 heartbeat IPC: 0.245331 cumulative IPC: 0.248067 (Simulation time: 0 hr 9 min 56 sec) 
Heartbeat CPU 0 instructions: 130000002 cycles: 351537015 heartbeat IPC: 0.24065 cumulative IPC: 0.247115 (Simulation time: 0 hr 10 min 54 sec) 
Heartbeat CPU 0 instructions: 140000003 cycles: 393948575 heartbeat IPC: 0.235785 cumulative IPC: 0.245803 (Simulation time: 0 hr 11 min 53 sec) 
Heartbeat CPU 0 instructions: 150000001 cycles: 437059673 heartbeat IPC: 0.231959 cumulative IPC: 0.244344 (Simulation time: 0 hr 12 min 53 sec) 
Heartbeat CPU 0 instructions: 160000000 cycles: 481274551 heartbeat IPC: 0.226168 cumulative IPC: 0.242572 (Simulation time: 0 hr 13 min 56 sec) 
Heartbeat CPU 0 instructions: 170000001 cycles: 527002824 heartbeat IPC: 0.218683 cumulative IPC: 0.240384 (Simulation time: 0 hr 14 min 59 sec) 
Heartbeat CPU 0 instructions: 180000003 cycles: 573352517 heartbeat IPC: 0.215751 cumulative IPC: 0.238291 (Simulation time: 0 hr 15 min 56 sec) 
Heartbeat CPU 0 instructions: 190000002 cycles: 620446885 heartbeat IPC: 0.21234 cumulative IPC: 0.236229 (Simulation time: 0 hr 16 min 50 sec) 
Heartbeat CPU 0 instructions: 200000001 cycles: 667986528 heartbeat IPC: 0.210351 cumulative IPC: 0.234307 (Simulation time: 0 hr 17 min 42 sec) 
Heartbeat CPU 0 instructions: 210000002 cycles: 715049567 heartbeat IPC: 0.212481 cumulative IPC: 0.232813 (Simulation time: 0 hr 18 min 32 sec) 
Heartbeat CPU 0 instructions: 220000000 cycles: 760883054 heartbeat IPC: 0.218181 cumulative IPC: 0.231898 (Simulation time: 0 hr 19 min 19 sec) 
Heartbeat CPU 0 instructions: 230000002 cycles: 806522925 heartbeat IPC: 0.219107 cumulative IPC: 0.231148 (Simulation time: 0 hr 20 min 7 sec) 
Heartbeat CPU 0 instructions: 240000000 cycles: 855645450 heartbeat IPC: 0.203573 cumulative IPC: 0.229512 (Simulation time: 0 hr 20 min 53 sec) 
Heartbeat CPU 0 instructions: 250000001 cycles: 901736414 heartbeat IPC: 0.216962 cumulative IPC: 0.22885 (Simulation time: 0 hr 21 min 38 sec) 
Finished CPU 0 instructions: 200000000 cycles: 873935131 cumulative IPC: 0.22885 (Simulation time: 0 hr 21 min 38 sec) 
 Instruction ID: 250000117

ChampSim completed all CPUs

Region of Interest Statistics

CPU 0 cumulative IPC: 0.22885 instructions: 200000000 cycles: 873935131
ITLB SPEC fills:          0  NON-SPEC fills:          0
ITLB Test counter :          0
ITLB Leapfrog:          0
ITLB MSHR merge:          0
ITLB TOTAL     ACCESS:   34754518  HIT:   34754518  MISS:          0  HIT %:        100  MISS %:          0   MPKI: 0
ITLB LOAD TRANSLATION NON_SPEC    ACCESS:   34754518  HIT:   34754518  MISS:          0  HIT %:        100  MISS %:          0   MPKI: 0
ITLB PREFETCH  REQUESTED:          0  ISSUED:          0  USEFUL:          0  USELESS:          0
ITLB USEFUL LOAD PREFETCHES:          0 PREFETCH ISSUED TO LOWER LEVEL:          0  ACCURACY: -nan
ITLB TIMELY PREFETCHES:          0 LATE PREFETCHES: 0 DROPPED PREFETCHES: 0
ITLB COMMIT LATE PREFETCHES: 0 MISSED OPPORTUNITY: 0 LATE IN PQ: 0 UNCOVERED: 0
ITLB COMMIT LATE MSHR PREFETCHES: 0
ITLB MPKI TOTAL: 0 MSHR LATE: 0 PQ LATE: 0 COMMIT LATE: 0 MISSED OPPORTUNITY: 0 UNCOVERED: 0
ITLB PREFETCHES SAME FILL-ORIGIN LEVEL: 0 DIFFERENT FILL-ORIGIN LEVEL: 0
ITLB AVERAGE MISS LATENCY: -nan cycles
ITLB AVERAGE MISS LATENCY LOAD: -nan cycles
ITLB AVERAGE MISS LATENCY PREFETCH: -nan cycles
ITLB AVERAGE MSHR OCCUPANCY: 0
ITLB MSHR FULL: 0
ITLB RQ	ACCESS:   36216545	FORWARD:          0	MERGED:    1462028	TO_CACHE:   34754517

DTLB SPEC fills:          0  NON-SPEC fills:          0
DTLB Test counter :          0
DTLB Leapfrog:          0
DTLB MSHR merge:          0
DTLB TOTAL     ACCESS:   59685203  HIT:   52375575  MISS:    7309628  HIT %:     87.753  MISS %:     12.247   MPKI: 36.5481
DTLB LOAD TRANSLATION NON_SPEC    ACCESS:   59685203  HIT:   52375575  MISS:    7309628  HIT %:     87.753  MISS %:     12.247   MPKI: 36.5481
DTLB PREFETCH  REQUESTED:          0  ISSUED:          0  USEFUL:          0  USELESS:          0
DTLB USEFUL LOAD PREFETCHES:          0 PREFETCH ISSUED TO LOWER LEVEL:          0  ACCURACY: -nan
DTLB TIMELY PREFETCHES:          0 LATE PREFETCHES: 0 DROPPED PREFETCHES: 0
DTLB COMMIT LATE PREFETCHES: 0 MISSED OPPORTUNITY: 0 LATE IN PQ: 0 UNCOVERED: 0
DTLB COMMIT LATE MSHR PREFETCHES: 0
DTLB MPKI TOTAL: 0 MSHR LATE: 0 PQ LATE: 0 COMMIT LATE: 0 MISSED OPPORTUNITY: 0 UNCOVERED: 0
DTLB PREFETCHES SAME FILL-ORIGIN LEVEL: 0 DIFFERENT FILL-ORIGIN LEVEL: 0
DTLB AVERAGE MISS LATENCY: 11.3358 cycles
DTLB AVERAGE MISS LATENCY LOAD: -nan cycles
DTLB AVERAGE MISS LATENCY PREFETCH: -nan cycles
DTLB AVERAGE MSHR OCCUPANCY: 0.0792924
DTLB MSHR FULL: 0
DTLB RQ	ACCESS:   72807512	FORWARD:          0	MERGED:   12631811	TO_CACHE:   60175701

STLB SPEC fills:          0  NON-SPEC fills:          0
STLB Test counter :          0
STLB Leapfrog:          0
STLB MSHR merge:          0
STLB TOTAL     ACCESS:    7309628  HIT:    7209912  MISS:      99716  HIT %:    98.6358  MISS %:    1.36417   MPKI: 0.49858
STLB LOAD TRANSLATION NON_SPEC    ACCESS:    7309628  HIT:    7209912  MISS:      99716  HIT %:    98.6358  MISS %:    1.36417   MPKI: 0.49858
STLB PREFETCH  REQUESTED:          0  ISSUED:          0  USEFUL:          0  USELESS:          0
STLB USEFUL LOAD PREFETCHES:          0 PREFETCH ISSUED TO LOWER LEVEL:          0  ACCURACY: -nan
STLB TIMELY PREFETCHES:          0 LATE PREFETCHES: 0 DROPPED PREFETCHES: 0
STLB COMMIT LATE PREFETCHES: 0 MISSED OPPORTUNITY: 0 LATE IN PQ: 0 UNCOVERED: 0
STLB COMMIT LATE MSHR PREFETCHES: 0
STLB MPKI TOTAL: 0 MSHR LATE: 0 PQ LATE: 0 COMMIT LATE: 0 MISSED OPPORTUNITY: 0 UNCOVERED: 0
STLB PREFETCHES SAME FILL-ORIGIN LEVEL: 0 DIFFERENT FILL-ORIGIN LEVEL: 0
STLB AVERAGE MISS LATENCY: 166.543 cycles
STLB AVERAGE MISS LATENCY LOAD: -nan cycles
STLB AVERAGE MISS LATENCY PREFETCH: -nan cycles
STLB AVERAGE MSHR OCCUPANCY: 0.0179291
STLB MSHR FULL: 0
STLB RQ	ACCESS:    7309628	FORWARD:          0	MERGED:          0	TO_CACHE:    7309628

STLB Hit, L1D data hit: 0
STLB Hit, L2C data hit: 0
STLB Hit, LLC data hit: 0
STLB Hit, LLC data miss: 0
STLB STLB hints to L2: 0
L0D SPEC fills:   33770741  NON-SPEC fills:          0
L0D TimeGuard Request with older TS:     460300 Restricted eviction:     254220 read:     228451
L0D Test counter :          0
L0D Leapfrog:          0
L0D MSHR merge:    2752833
L0D TOTAL     ACCESS:   52251745  HIT:    3020216  MISS:   49231529  HIT %:    5.78012  MISS %:    94.2199   MPKI: 246.158
L0D LOAD      TOTAL       ACCESS:   52251745  HIT:    3020216  MISS:   49231529  HIT %:    5.78012  MISS %:    94.2199   MPKI: 246.158
L0D LOAD      NON_SPEC    ACCESS:   15781314  HIT:     574744  MISS:   15206570  HIT %:    3.64193  MISS %:    96.3581   MPKI: 76.0328
L0D LOAD      SPEC        ACCESS:   36470431  HIT:    2445472  MISS:   34024959  HIT %:    6.70536  MISS %:    93.2946   MPKI: 170.125
L0D PREFETCH  REQUESTED:          0  ISSUED:          0  USEFUL:          0  USELESS:          0
L0D USEFUL LOAD PREFETCHES:          0 PREFETCH ISSUED TO LOWER LEVEL:          0  ACCURACY: -nan
L0D TIMELY PREFETCHES:          0 LATE PREFETCHES: 0 DROPPED PREFETCHES: 0
L0D COMMIT LATE PREFETCHES: 0 MISSED OPPORTUNITY: 0 LATE IN PQ: 0 UNCOVERED: 0
L0D COMMIT LATE MSHR PREFETCHES: 0
L0D MPKI TOTAL: 259.922 MSHR LATE: 0 PQ LATE: 0 COMMIT LATE: 0 MISSED OPPORTUNITY: 0 UNCOVERED: 0
L0D PREFETCHES SAME FILL-ORIGIN LEVEL: 0 DIFFERENT FILL-ORIGIN LEVEL: 0
L0D AVERAGE MISS LATENCY: 31.189 cycles
L0D AVERAGE MISS LATENCY LOAD: 31.189 cycles
L0D AVERAGE MISS LATENCY PREFETCH: -nan cycles
L0D AVERAGE MSHR OCCUPANCY: 2.88344
L0D MSHR FULL: 0.244626
L0D RQ	ACCESS:   68382619	FORWARD:          0	MERGED:   13378040	TO_CACHE:   55004579
L0D WQ	ACCESS:   17802933	FORWARD:          0	MERGED:          0	TO_CACHE:   17802933

L1D SPEC fills:          0  NON-SPEC fills:    3461477
L1D Test counter :    8344995
L1D Leapfrog:          0
L1D MSHR merge:       6517
L1D TOTAL     ACCESS:   81618461  HIT:   57703522  MISS:   23914939  HIT %:    70.6991  MISS %:    29.3009   MPKI: 119.575
L1D LOAD      TOTAL       ACCESS:   49225012  HIT:   35844682  MISS:   13380330  HIT %:     72.818  MISS %:     27.182   MPKI: 66.9017
L1D LOAD      NON_SPEC    ACCESS:   15205718  HIT:   11744241  MISS:    3461477  HIT %:    77.2357  MISS %:    22.7643   MPKI: 17.3074
L1D LOAD      SPEC        ACCESS:   34019294  HIT:   24100441  MISS:    9918853  HIT %:    70.8434  MISS %:    29.1566   MPKI: 49.5943
L1D RFO       NON_SPEC    ACCESS:   16582289  HIT:   15972798  MISS:     609491  HIT %:    96.3244  MISS %:    3.67555   MPKI: 3.04745
L1D COMMIT LOAD NON_SPEC    ACCESS:    6276816  HIT:    5867248  MISS:     409568  HIT %:    93.4749  MISS %:    6.52509   MPKI: 2.04784
L1D COMMIT WRITE NON_SPEC    ACCESS:    9534344  HIT:      18794  MISS:    9515550  HIT %:   0.197119  MISS %:    99.8029   MPKI: 47.5778
L1D PREFETCH  REQUESTED:          0  ISSUED:          0  USEFUL:          0  USELESS:          0
L1D USEFUL LOAD PREFETCHES:          0 PREFETCH ISSUED TO LOWER LEVEL:          0  ACCURACY: -nan
L1D TIMELY PREFETCHES:          0 LATE PREFETCHES: 0 DROPPED PREFETCHES: 0
L1D COMMIT LATE PREFETCHES: 0 MISSED OPPORTUNITY: 0 LATE IN PQ: 0 UNCOVERED: 0
L1D COMMIT LATE MSHR PREFETCHES: 0
L1D MPKI TOTAL: 66.9342 MSHR LATE: 0 PQ LATE: 0 COMMIT LATE: 0 MISSED OPPORTUNITY: 0 UNCOVERED: 0
L1D PREFETCHES SAME FILL-ORIGIN LEVEL: 0 DIFFERENT FILL-ORIGIN LEVEL: 0
L1D AVERAGE MISS LATENCY: 53.1238 cycles
L1D AVERAGE MISS LATENCY LOAD: 91.024 cycles
L1D AVERAGE MISS LATENCY PREFETCH: -nan cycles
L1D AVERAGE MSHR OCCUPANCY: 0.860782
L1D MSHR FULL: 5.22257e-06
L1D RQ	ACCESS:   60655294	FORWARD:          0	MERGED:    5118497	TO_CACHE:   55527961
L1D WQ	ACCESS:   27338153	FORWARD:       8836	MERGED:     137485	TO_CACHE:   27200668

L1D UNIQUE REGIONS ACCESSED: 0
L1D REGIONS CONFLICTS: 0
L1D Cross Page Prefetch Requests: 0
L1D Same Page Prefetch Requests: 0
L1D ROI Sum of L1D PQ occupancy: 0
L1D PREFETCHES PUSHED FROM L2C: 0
L1I SPEC fills:          0  NON-SPEC fills:          0
L1I Test counter :          0
L1I Leapfrog:          0
L1I MSHR merge:          0
L1I TOTAL     ACCESS:   36216546  HIT:   36216544  MISS:          2  HIT %:        100  MISS %: 5.52234e-06   MPKI: 1e-05
L1I LOAD      TOTAL       ACCESS:   36216546  HIT:   36216544  MISS:          2  HIT %:        100  MISS %: 5.52234e-06   MPKI: 1e-05
L1I LOAD      NON_SPEC    ACCESS:   36216546  HIT:   36216544  MISS:          2  HIT %:        100  MISS %: 5.52234e-06   MPKI: 1e-05
L1I PREFETCH  REQUESTED:          0  ISSUED:          0  USEFUL:          0  USELESS:          0
L1I USEFUL LOAD PREFETCHES:          0 PREFETCH ISSUED TO LOWER LEVEL:          0  ACCURACY: -nan
L1I TIMELY PREFETCHES:          0 LATE PREFETCHES: 0 DROPPED PREFETCHES: 0
L1I COMMIT LATE PREFETCHES: 0 MISSED OPPORTUNITY: 0 LATE IN PQ: 0 UNCOVERED: 0
L1I COMMIT LATE MSHR PREFETCHES: 0
L1I MPKI TOTAL: 1e-05 MSHR LATE: 0 PQ LATE: 0 COMMIT LATE: 0 MISSED OPPORTUNITY: 0 UNCOVERED: 0
L1I PREFETCHES SAME FILL-ORIGIN LEVEL: 0 DIFFERENT FILL-ORIGIN LEVEL: 0
L1I AVERAGE MISS LATENCY: 214 cycles
L1I AVERAGE MISS LATENCY LOAD: 214 cycles
L1I AVERAGE MISS LATENCY PREFETCH: -nan cycles
L1I AVERAGE MSHR OCCUPANCY: 2.76117e-08
L1I MSHR FULL: 0
L1I RQ	ACCESS:   55450142	FORWARD:          0	MERGED:   19233597	TO_CACHE:   36216545

BTB SPEC fills:          0  NON-SPEC fills:          0
BTB Test counter :          0
BTB Leapfrog:          0
BTB MSHR merge:          0
BTB TOTAL     ACCESS:   49743916  HIT:   48131262  MISS:    1612654  HIT %:    96.7581  MISS %:    3.24191   MPKI: 8.06327
BTB BRANCH_DIRECT_JUMP	ACCESS:    5836928  HIT:    5836891  MISS:         37
BTB BRANCH_INDIRECT	ACCESS:          0  HIT:          0  MISS:          0
BTB BRANCH_CONDITIONAL	ACCESS:   36112465  HIT:   36112386  MISS:         79
BTB BRANCH_DIRECT_CALL	ACCESS:    3647058  HIT:    3647040  MISS:         18
BTB BRANCH_INDIRECT_CALL	ACCESS:     250202  HIT:     250194  MISS:          8
BTB BRANCH_RETURN	ACCESS:    3897263  HIT:    2284751  MISS:    1612512
BTB BRANCH_OTHER ACCESS:          0  HIT:          0  MISS:          0

L2C SPEC fills:          0  NON-SPEC fills:    2563093
L2C Test counter :    8254122
L2C Leapfrog:          0
L2C MSHR merge:          0
L2C TOTAL     ACCESS:   23919983  HIT:    3903304  MISS:   20016679  HIT %:    16.3182  MISS %:    83.6818   MPKI: 100.083
L2C LOAD      TOTAL       ACCESS:   13380132  HIT:    2251385  MISS:   11128747  HIT %:    16.8263  MISS %:    83.1737   MPKI: 55.6437
L2C LOAD      NON_SPEC    ACCESS:    3461461  HIT:     898366  MISS:    2563095  HIT %:    25.9534  MISS %:    74.0466   MPKI: 12.8155
L2C LOAD      SPEC        ACCESS:    9918671  HIT:    1353019  MISS:    8565652  HIT %:    13.6411  MISS %:    86.3589   MPKI: 42.8283
L2C RFO       NON_SPEC    ACCESS:     609416  HIT:     317189  MISS:     292227  HIT %:     52.048  MISS %:     47.952   MPKI: 1.46114
L2C WRITEBACK NON_SPEC    ACCESS:     677676  HIT:     677676  MISS:          0  HIT %:        100  MISS %:          0   MPKI: 0
L2C CLEAN_EVICTION NON_SPEC    ACCESS:    8344995  HIT:     112849  MISS:    8232146  HIT %:     1.3523  MISS %:    98.6477   MPKI: 41.1607
L2C COMMIT LOAD NON_SPEC    ACCESS:     409568  HIT:      82299  MISS:     327269  HIT %:    20.0941  MISS %:    79.9059   MPKI: 1.63634
L2C LOAD TRANSLATION NON_SPEC    ACCESS:     498196  HIT:     461906  MISS:      36290  HIT %:    92.7157  MISS %:    7.28428   MPKI: 0.18145
L2C PREFETCH  REQUESTED:          0  ISSUED:          0  USEFUL:          0  USELESS:          0
L2C USEFUL LOAD PREFETCHES:          0 PREFETCH ISSUED TO LOWER LEVEL:          0  ACCURACY: -nan
L2C TIMELY PREFETCHES:          0 LATE PREFETCHES: 0 DROPPED PREFETCHES: 0
L2C COMMIT LATE PREFETCHES: 0 MISSED OPPORTUNITY: 0 LATE IN PQ: 0 UNCOVERED: 0
L2C COMMIT LATE MSHR PREFETCHES: 0
L2C MPKI TOTAL: 55.6437 MSHR LATE: 0 PQ LATE: 0 COMMIT LATE: 0 MISSED OPPORTUNITY: 0 UNCOVERED: 0
L2C PREFETCHES SAME FILL-ORIGIN LEVEL: 0 DIFFERENT FILL-ORIGIN LEVEL: 0
L2C AVERAGE MISS LATENCY: 54.7748 cycles
L2C AVERAGE MISS LATENCY LOAD: 94.8339 cycles
L2C AVERAGE MISS LATENCY PREFETCH: -nan cycles
L2C AVERAGE MSHR OCCUPANCY: 2.06138
L2C MSHR FULL: 0
L2C RQ	ACCESS:   14897587	FORWARD:          0	MERGED:          0	TO_CACHE:   14897312
L2C WQ	ACCESS:    9022671	FORWARD:        275	MERGED:          0	TO_CACHE:    9022671

L2C Instructions Evicting Data 2
L2C Translations Evicting Data 36193
L2C Data Evicting Data 3172321
L2C Instructions Evicting Instructions 0
L2C Translations Evicting Instructions 0
L2C Data Evicting Instructions 0
L2C Instructions Evicting Translations 0
L2C Translations Evicting Translations 97
L2C Data Evicting Translations 10268
L2C Dense regions hint from L2: 0
PSCL5 SPEC fills:          0  NON-SPEC fills:          0
PSCL5 Test counter :          0
PSCL5 Leapfrog:          0
PSCL5 MSHR merge:          0
PSCL5 TOTAL     ACCESS:          0  HIT:          0  MISS:          0  HIT %:       -nan  MISS %:       -nan   MPKI: 0
PSCL5 PREFETCH  REQUESTED:          0  ISSUED:          0  USEFUL:          0  USELESS:          0
PSCL5 USEFUL LOAD PREFETCHES:          0 PREFETCH ISSUED TO LOWER LEVEL:          0  ACCURACY: -nan
PSCL5 TIMELY PREFETCHES:          0 LATE PREFETCHES: 0 DROPPED PREFETCHES: 0
PSCL5 COMMIT LATE PREFETCHES: 0 MISSED OPPORTUNITY: 0 LATE IN PQ: 0 UNCOVERED: 0
PSCL5 COMMIT LATE MSHR PREFETCHES: 0
PSCL5 MPKI TOTAL: 0 MSHR LATE: 0 PQ LATE: 0 COMMIT LATE: 0 MISSED OPPORTUNITY: 0 UNCOVERED: 0
PSCL5 PREFETCHES SAME FILL-ORIGIN LEVEL: 0 DIFFERENT FILL-ORIGIN LEVEL: 0

PSCL4 SPEC fills:          0  NON-SPEC fills:          0
PSCL4 Test counter :          0
PSCL4 Leapfrog:          0
PSCL4 MSHR merge:          0
PSCL4 TOTAL     ACCESS:          0  HIT:          0  MISS:          0  HIT %:       -nan  MISS %:       -nan   MPKI: 0
PSCL4 PREFETCH  REQUESTED:          0  ISSUED:          0  USEFUL:          0  USELESS:          0
PSCL4 USEFUL LOAD PREFETCHES:          0 PREFETCH ISSUED TO LOWER LEVEL:          0  ACCURACY: -nan
PSCL4 TIMELY PREFETCHES:          0 LATE PREFETCHES: 0 DROPPED PREFETCHES: 0
PSCL4 COMMIT LATE PREFETCHES: 0 MISSED OPPORTUNITY: 0 LATE IN PQ: 0 UNCOVERED: 0
PSCL4 COMMIT LATE MSHR PREFETCHES: 0
PSCL4 MPKI TOTAL: 0 MSHR LATE: 0 PQ LATE: 0 COMMIT LATE: 0 MISSED OPPORTUNITY: 0 UNCOVERED: 0
PSCL4 PREFETCHES SAME FILL-ORIGIN LEVEL: 0 DIFFERENT FILL-ORIGIN LEVEL: 0

PSCL3 SPEC fills:          0  NON-SPEC fills:          0
PSCL3 Test counter :          0
PSCL3 Leapfrog:          0
PSCL3 MSHR merge:          0
PSCL3 TOTAL     ACCESS:          0  HIT:          0  MISS:          0  HIT %:       -nan  MISS %:       -nan   MPKI: 0
PSCL3 PREFETCH  REQUESTED:          0  ISSUED:          0  USEFUL:          0  USELESS:          0
PSCL3 USEFUL LOAD PREFETCHES:          0 PREFETCH ISSUED TO LOWER LEVEL:          0  ACCURACY: -nan
PSCL3 TIMELY PREFETCHES:          0 LATE PREFETCHES: 0 DROPPED PREFETCHES: 0
PSCL3 COMMIT LATE PREFETCHES: 0 MISSED OPPORTUNITY: 0 LATE IN PQ: 0 UNCOVERED: 0
PSCL3 COMMIT LATE MSHR PREFETCHES: 0
PSCL3 MPKI TOTAL: 0 MSHR LATE: 0 PQ LATE: 0 COMMIT LATE: 0 MISSED OPPORTUNITY: 0 UNCOVERED: 0
PSCL3 PREFETCHES SAME FILL-ORIGIN LEVEL: 0 DIFFERENT FILL-ORIGIN LEVEL: 0

PSCL2 SPEC fills:          0  NON-SPEC fills:          0
PSCL2 Test counter :          0
PSCL2 Leapfrog:          0
PSCL2 MSHR merge:          0
PSCL2 TOTAL     ACCESS:          0  HIT:          0  MISS:          0  HIT %:       -nan  MISS %:       -nan   MPKI: 0
PSCL2 PREFETCH  REQUESTED:          0  ISSUED:          0  USEFUL:          0  USELESS:          0
PSCL2 USEFUL LOAD PREFETCHES:          0 PREFETCH ISSUED TO LOWER LEVEL:          0  ACCURACY: -nan
PSCL2 TIMELY PREFETCHES:          0 LATE PREFETCHES: 0 DROPPED PREFETCHES: 0
PSCL2 COMMIT LATE PREFETCHES: 0 MISSED OPPORTUNITY: 0 LATE IN PQ: 0 UNCOVERED: 0
PSCL2 COMMIT LATE MSHR PREFETCHES: 0
PSCL2 MPKI TOTAL: 0 MSHR LATE: 0 PQ LATE: 0 COMMIT LATE: 0 MISSED OPPORTUNITY: 0 UNCOVERED: 0
PSCL2 PREFETCHES SAME FILL-ORIGIN LEVEL: 0 DIFFERENT FILL-ORIGIN LEVEL: 0

LLC SPEC fills:          0  NON-SPEC fills:     608787
LLC Test counter :    4948792
LLC Leapfrog:          0
LLC MSHR merge:          0
LLC TOTAL     ACCESS:   20417643  HIT:   10009980  MISS:   10407663  HIT %:    49.0261  MISS %:    50.9739   MPKI: 52.0383
LLC LOAD      TOTAL       ACCESS:   11128651  HIT:    5693318  MISS:    5435333  HIT %:    51.1591  MISS %:    48.8409   MPKI: 27.1767
LLC LOAD      NON_SPEC    ACCESS:    2563074  HIT:    1954285  MISS:     608789  HIT %:    76.2477  MISS %:    23.7523   MPKI: 3.04394
LLC LOAD      SPEC        ACCESS:    8565577  HIT:    3739033  MISS:    4826544  HIT %:    43.6519  MISS %:    56.3481   MPKI: 24.1327
LLC RFO       NON_SPEC    ACCESS:     292221  HIT:     286272  MISS:       5949  HIT %:    97.9642  MISS %:    2.03579   MPKI: 0.029745
LLC WRITEBACK NON_SPEC    ACCESS:     379164  HIT:     374172  MISS:       4992  HIT %:    98.6834  MISS %:    1.31658   MPKI: 0.02496
LLC CLEAN_EVICTION NON_SPEC    ACCESS:    8254122  HIT:    3410976  MISS:    4843146  HIT %:    41.3245  MISS %:    58.6755   MPKI: 24.2157
LLC COMMIT LOAD NON_SPEC    ACCESS:     327195  HIT:     223984  MISS:     103211  HIT %:    68.4558  MISS %:    31.5442   MPKI: 0.516055
LLC LOAD TRANSLATION NON_SPEC    ACCESS:      36290  HIT:      21258  MISS:      15032  HIT %:    58.5781  MISS %:    41.4219   MPKI: 0.07516
LLC PREFETCH  REQUESTED:          0  ISSUED:          0  USEFUL:          0  USELESS:          0
LLC USEFUL LOAD PREFETCHES:          0 PREFETCH ISSUED TO LOWER LEVEL:          0  ACCURACY: -nan
LLC TIMELY PREFETCHES:          0 LATE PREFETCHES: 0 DROPPED PREFETCHES: 0
LLC COMMIT LATE PREFETCHES: 0 MISSED OPPORTUNITY: 0 LATE IN PQ: 0 UNCOVERED: 0
LLC COMMIT LATE MSHR PREFETCHES: 0
LLC MPKI TOTAL: 27.1767 MSHR LATE: 0 PQ LATE: 0 COMMIT LATE: 0 MISSED OPPORTUNITY: 0 UNCOVERED: 0
LLC PREFETCHES SAME FILL-ORIGIN LEVEL: 0 DIFFERENT FILL-ORIGIN LEVEL: 0
LLC AVERAGE MISS LATENCY: 78.3958 cycles
LLC AVERAGE MISS LATENCY LOAD: 146.24 cycles
LLC AVERAGE MISS LATENCY PREFETCH: -nan cycles
LLC AVERAGE MSHR OCCUPANCY: 1.60831
LLC MSHR FULL: 0
LLC RQ	ACCESS:   11784533	FORWARD:          0	MERGED:          0	TO_CACHE:   11784357
LLC WQ	ACCESS:    8633286	FORWARD:        176	MERGED:          0	TO_CACHE:    8633286

LLC Dense regions hint to LLC: 0

RAW hits: 2270362
Loads Generated: 70652983
Loads sent to L1D: 68382619
Stores Generated: 17802933
Stores sent to L1D: 17802933
Major fault: 0 Minor fault: 80635
Allocated PAGES: 80635
Total Load insts: 84736001
Total Non-spec loads: 17423557
Percentage of speculative loads: 79.4378

LeapFrogging counter: 8540801
Commit hits: 33493750 miss: 19016284
Commit hit %: 63.7854 miss %: 36.2146
Commits not translated: 0
Loads retired: 13380330
Stores retired: 17802933
Cache fills: 13380330
L1D response latency: 91.024 cycles
Load retirement latency: 231.397 cycles
OOO test counter: 0
Discarded buffer inserts: 33493750 hits: 32363 hit %: 0.096624

DRAM Statistics
 CHANNEL 0
 RQ ROW_BUFFER_HIT:     789384  ROW_BUFFER_MISS:    4769516
 DBUS_CONGESTED:       3423
 WQ ROW_BUFFER_HIT:    1228703  ROW_BUFFER_MISS:    3756470  FULL:        804

 AVG_CONGESTED_CYCLE: 4
 All warmup complete: 2
Channel 0 Bank busy for read cycles: 0
Channel 0 Bank busy for write cycles: 0
Channel 0
Rank 0
0banks busy for read cycles: 302121820
0banks busy for write cycles: 276735
1banks busy for read cycles: 147312279
1banks busy for write cycles: 43766547
2banks busy for read cycles: 70696569
2banks busy for write cycles: 28898021
3banks busy for read cycles: 39159802
3banks busy for write cycles: 30654067
4banks busy for read cycles: 23844594
4banks busy for write cycles: 31236392
5banks busy for read cycles: 15958374
5banks busy for write cycles: 29546538
6banks busy for read cycles: 11263574
6banks busy for write cycles: 27814233
7banks busy for read cycles: 7668132
7banks busy for write cycles: 27550820
8banks busy for read cycles: 6606849
8banks busy for write cycles: 29559786

CPU 0 Branch Prediction Accuracy: 94.5902% MPKI: 13.9808 Average ROB Occupancy at Mispredict: 27.4328
Branch types
NOT_BRANCH: 148312419 74.1562%
BRANCH_DIRECT_JUMP: 5836928 2.91846%
BRANCH_INDIRECT: 0 0%
BRANCH_CONDITIONAL: 38055866 19.0279%
BRANCH_DIRECT_CALL: 3647058 1.82353%
BRANCH_INDIRECT_CALL: 250202 0.125101%
BRANCH_RETURN: 3897263 1.94863%
BRANCH_OTHER: 0 0%

DRAM PAGES: 1048576
Allocated PAGES: 80635
