
*** ChampSim Multicore Out-of-Order Simulator ***

Warmup Instructions: 50000000
Simulation Instructions: 200000000
Number of CPUs: 1
LLC sets: 2048
LLC ways: 16
L0D sets: 16
L0D ways: 2
ROB size: 352
LQ size: 128
SQ size: 72
Secure Berti: OFF
Berti: OFF
Berti Fill: OFF
On commit prefetching: OFF
Hit-based filter: ON
Time-guarding: ON
Free-slotting: ON
Leap-frogging: ON
Train prefetcher on L0D bypass: OFF
No translation penalty for prefetchers: OFF
Prefetch to L0D only: OFF
Prefetch to L1D only: OFF
Clean evictions: ON
Commit loads: ON
Commit write: ON
Fill commit loads to L2C, LLC: ON
DRAM IO FREQUENCY: 6400
ROB SIZE: 352
Off-chip DRAM Size: 4096 MB Channels: 1 Width: 64-bit Data Rate: 6400 MT/s
CPU 0 runs /home/sumon/secure_berti/GhostMinion/../../traces/spec/607.cactuBSSN_s-2421B.champsimtrace.xz
.xz
BTB has LRU replacement policy
ITLB has LRU replacement policy
DTLB has LRU replacement policy
STLB has LRU replacement policy
L1I has LRU replacement policy
L0D has LRU replacement policy
L1D has LRU replacement policy
L2C has LRU replacement policy
LLC has LRU replacement policy
Heartbeat CPU 0 instructions: 10000002 cycles: 4437474 heartbeat IPC: 2.25353 cumulative IPC: 2.25353 (Simulation time: 0 hr 0 min 41 sec) 
Heartbeat CPU 0 instructions: 20000001 cycles: 8871270 heartbeat IPC: 2.2554 cumulative IPC: 2.25447 (Simulation time: 0 hr 1 min 21 sec) 
Heartbeat CPU 0 instructions: 30000002 cycles: 13309424 heartbeat IPC: 2.25319 cumulative IPC: 2.25404 (Simulation time: 0 hr 2 min 1 sec) 
Heartbeat CPU 0 instructions: 40000001 cycles: 17744438 heartbeat IPC: 2.25478 cumulative IPC: 2.25423 (Simulation time: 0 hr 2 min 40 sec) 
Heartbeat CPU 0 instructions: 50000003 cycles: 22181152 heartbeat IPC: 2.25392 cumulative IPC: 2.25417 (Simulation time: 0 hr 3 min 18 sec) 

Warmup complete CPU 0 instructions: 50000003 cycles: 22181152 (Simulation time: 0 hr 3 min 18 sec) 

Heartbeat CPU 0 instructions: 60000002 cycles: 41415368 heartbeat IPC: 0.519907 cumulative IPC: 0.519907 (Simulation time: 0 hr 4 min 0 sec) 
Heartbeat CPU 0 instructions: 70000001 cycles: 60669343 heartbeat IPC: 0.519373 cumulative IPC: 0.51964 (Simulation time: 0 hr 4 min 41 sec) 
Heartbeat CPU 0 instructions: 80000001 cycles: 79763740 heartbeat IPC: 0.523714 cumulative IPC: 0.520991 (Simulation time: 0 hr 5 min 22 sec) 
Heartbeat CPU 0 instructions: 90000000 cycles: 99075945 heartbeat IPC: 0.517807 cumulative IPC: 0.520191 (Simulation time: 0 hr 6 min 3 sec) 
Heartbeat CPU 0 instructions: 100000000 cycles: 118242341 heartbeat IPC: 0.521747 cumulative IPC: 0.520502 (Simulation time: 0 hr 6 min 44 sec) 
Heartbeat CPU 0 instructions: 110000000 cycles: 137131125 heartbeat IPC: 0.529415 cumulative IPC: 0.521966 (Simulation time: 0 hr 7 min 25 sec) 
Heartbeat CPU 0 instructions: 120000000 cycles: 156071540 heartbeat IPC: 0.527972 cumulative IPC: 0.522816 (Simulation time: 0 hr 8 min 6 sec) 
Heartbeat CPU 0 instructions: 130000002 cycles: 175063434 heartbeat IPC: 0.526541 cumulative IPC: 0.523278 (Simulation time: 0 hr 8 min 48 sec) 
Heartbeat CPU 0 instructions: 140000002 cycles: 194131583 heartbeat IPC: 0.524435 cumulative IPC: 0.523407 (Simulation time: 0 hr 9 min 29 sec) 
Heartbeat CPU 0 instructions: 150000001 cycles: 213542365 heartbeat IPC: 0.515178 cumulative IPC: 0.522572 (Simulation time: 0 hr 10 min 10 sec) 
Heartbeat CPU 0 instructions: 160000002 cycles: 232498035 heartbeat IPC: 0.527547 cumulative IPC: 0.52302 (Simulation time: 0 hr 10 min 51 sec) 
Heartbeat CPU 0 instructions: 170000002 cycles: 251943824 heartbeat IPC: 0.51425 cumulative IPC: 0.522278 (Simulation time: 0 hr 11 min 33 sec) 
Heartbeat CPU 0 instructions: 180000001 cycles: 270767186 heartbeat IPC: 0.531255 cumulative IPC: 0.522958 (Simulation time: 0 hr 12 min 13 sec) 
Heartbeat CPU 0 instructions: 190000000 cycles: 289732458 heartbeat IPC: 0.527279 cumulative IPC: 0.523264 (Simulation time: 0 hr 12 min 54 sec) 
Heartbeat CPU 0 instructions: 200000001 cycles: 308704630 heartbeat IPC: 0.527088 cumulative IPC: 0.523517 (Simulation time: 0 hr 13 min 36 sec) 
Heartbeat CPU 0 instructions: 210000003 cycles: 327665591 heartbeat IPC: 0.5274 cumulative IPC: 0.523758 (Simulation time: 0 hr 14 min 17 sec) 
Heartbeat CPU 0 instructions: 220000000 cycles: 347077118 heartbeat IPC: 0.515158 cumulative IPC: 0.523244 (Simulation time: 0 hr 14 min 58 sec) 
Heartbeat CPU 0 instructions: 230000003 cycles: 366150944 heartbeat IPC: 0.524279 cumulative IPC: 0.523302 (Simulation time: 0 hr 15 min 38 sec) 
Heartbeat CPU 0 instructions: 240000000 cycles: 385010807 heartbeat IPC: 0.530226 cumulative IPC: 0.523662 (Simulation time: 0 hr 16 min 17 sec) 
Heartbeat CPU 0 instructions: 250000002 cycles: 404051199 heartbeat IPC: 0.525199 cumulative IPC: 0.523738 (Simulation time: 0 hr 16 min 56 sec) 
Finished CPU 0 instructions: 200000003 cycles: 381870048 cumulative IPC: 0.523738 (Simulation time: 0 hr 16 min 56 sec) 
 Instruction ID: 250000183

ChampSim completed all CPUs

Region of Interest Statistics

CPU 0 cumulative IPC: 0.523738 instructions: 200000003 cycles: 381870048
ITLB SPEC fills:          0  NON-SPEC fills:          0
ITLB Test counter :          0
ITLB Leapfrog:          0
ITLB MSHR merge:          0
ITLB TOTAL     ACCESS:   26906539  HIT:   26906489  MISS:         50  HIT %:    99.9998  MISS %: 0.000185828   MPKI: 0.00025
ITLB LOAD TRANSLATION NON_SPEC    ACCESS:   26906539  HIT:   26906489  MISS:         50  HIT %:    99.9998  MISS %: 0.000185828   MPKI: 0.00025
ITLB PREFETCH  REQUESTED:          0  ISSUED:          0  USEFUL:          0  USELESS:          0
ITLB USEFUL LOAD PREFETCHES:          0 PREFETCH ISSUED TO LOWER LEVEL:          0  ACCURACY: -nan
ITLB TIMELY PREFETCHES:          0 LATE PREFETCHES: 0 DROPPED PREFETCHES: 0
ITLB COMMIT LATE PREFETCHES: 0 MISSED OPPORTUNITY: 0 LATE IN PQ: 0 UNCOVERED: 0
ITLB COMMIT LATE MSHR PREFETCHES: 0
ITLB MPKI TOTAL: 0 MSHR LATE: 0 PQ LATE: 0 COMMIT LATE: 0 MISSED OPPORTUNITY: 0 UNCOVERED: 0
ITLB PREFETCHES SAME FILL-ORIGIN LEVEL: 0 DIFFERENT FILL-ORIGIN LEVEL: 0
ITLB AVERAGE MISS LATENCY: 451.18 cycles
ITLB AVERAGE MISS LATENCY LOAD: -nan cycles
ITLB AVERAGE MISS LATENCY PREFETCH: -nan cycles
ITLB AVERAGE MSHR OCCUPANCY: 3.34491e-07
ITLB MSHR FULL: 0
ITLB RQ	ACCESS:   35204182	FORWARD:          0	MERGED:    8297635	TO_CACHE:   26906547

DTLB SPEC fills:          0  NON-SPEC fills:          0
DTLB Test counter :          0
DTLB Leapfrog:          0
DTLB MSHR merge:          0
DTLB TOTAL     ACCESS:   44085782  HIT:   29079261  MISS:   15006521  HIT %:    65.9606  MISS %:    34.0394   MPKI: 75.0326
DTLB LOAD TRANSLATION NON_SPEC    ACCESS:   44085782  HIT:   29079261  MISS:   15006521  HIT %:    65.9606  MISS %:    34.0394   MPKI: 75.0326
DTLB PREFETCH  REQUESTED:          0  ISSUED:          0  USEFUL:          0  USELESS:          0
DTLB USEFUL LOAD PREFETCHES:          0 PREFETCH ISSUED TO LOWER LEVEL:          0  ACCURACY: -nan
DTLB TIMELY PREFETCHES:          0 LATE PREFETCHES: 0 DROPPED PREFETCHES: 0
DTLB COMMIT LATE PREFETCHES: 0 MISSED OPPORTUNITY: 0 LATE IN PQ: 0 UNCOVERED: 0
DTLB COMMIT LATE MSHR PREFETCHES: 0
DTLB MPKI TOTAL: 0 MSHR LATE: 0 PQ LATE: 0 COMMIT LATE: 0 MISSED OPPORTUNITY: 0 UNCOVERED: 0
DTLB PREFETCHES SAME FILL-ORIGIN LEVEL: 0 DIFFERENT FILL-ORIGIN LEVEL: 0
DTLB AVERAGE MISS LATENCY: 10.0471 cycles
DTLB AVERAGE MISS LATENCY LOAD: -nan cycles
DTLB AVERAGE MISS LATENCY PREFETCH: -nan cycles
DTLB AVERAGE MSHR OCCUPANCY: 1.24244
DTLB MSHR FULL: 0.0450314
DTLB RQ	ACCESS:   62984461	FORWARD:          0	MERGED:   17743685	TO_CACHE:   45240776

STLB SPEC fills:          0  NON-SPEC fills:          0
STLB Test counter :          0
STLB Leapfrog:          0
STLB MSHR merge:          0
STLB TOTAL     ACCESS:   15006572  HIT:   14982020  MISS:      24552  HIT %:    99.8364  MISS %:   0.163608   MPKI: 0.12276
STLB LOAD TRANSLATION NON_SPEC    ACCESS:   15006572  HIT:   14982020  MISS:      24552  HIT %:    99.8364  MISS %:   0.163608   MPKI: 0.12276
STLB PREFETCH  REQUESTED:          0  ISSUED:          0  USEFUL:          0  USELESS:          0
STLB USEFUL LOAD PREFETCHES:          0 PREFETCH ISSUED TO LOWER LEVEL:          0  ACCURACY: -nan
STLB TIMELY PREFETCHES:          0 LATE PREFETCHES: 0 DROPPED PREFETCHES: 0
STLB COMMIT LATE PREFETCHES: 0 MISSED OPPORTUNITY: 0 LATE IN PQ: 0 UNCOVERED: 0
STLB COMMIT LATE MSHR PREFETCHES: 0
STLB MPKI TOTAL: 0 MSHR LATE: 0 PQ LATE: 0 COMMIT LATE: 0 MISSED OPPORTUNITY: 0 UNCOVERED: 0
STLB PREFETCHES SAME FILL-ORIGIN LEVEL: 0 DIFFERENT FILL-ORIGIN LEVEL: 0
STLB AVERAGE MISS LATENCY: 421.85 cycles
STLB AVERAGE MISS LATENCY LOAD: -nan cycles
STLB AVERAGE MISS LATENCY PREFETCH: -nan cycles
STLB AVERAGE MSHR OCCUPANCY: 0.0100545
STLB MSHR FULL: 0
STLB RQ	ACCESS:   15006574	FORWARD:          0	MERGED:          0	TO_CACHE:   15006574

STLB Hit, L1D data hit: 0
STLB Hit, L2C data hit: 0
STLB Hit, LLC data hit: 0
STLB Hit, LLC data miss: 0
STLB STLB hints to L2: 0
L0D SPEC fills:   31519969  NON-SPEC fills:          0
L0D TimeGuard Request with older TS:     507828 Restricted eviction:    1144739 read:     158451
L0D Test counter :          0
L0D Leapfrog:          0
L0D MSHR merge:    2675967
L0D TOTAL     ACCESS:   37523383  HIT:    3785520  MISS:   33737863  HIT %:    10.0884  MISS %:    89.9116   MPKI: 168.689
L0D LOAD      TOTAL       ACCESS:   37523383  HIT:    3785520  MISS:   33737863  HIT %:    10.0884  MISS %:    89.9116   MPKI: 168.689
L0D LOAD      NON_SPEC    ACCESS:    1133159  HIT:      60000  MISS:    1073159  HIT %:    5.29493  MISS %:    94.7051   MPKI: 5.36579
L0D LOAD      SPEC        ACCESS:   36390224  HIT:    3725520  MISS:   32664704  HIT %:    10.2377  MISS %:    89.7623   MPKI: 163.324
L0D PREFETCH  REQUESTED:          0  ISSUED:          0  USEFUL:          0  USELESS:          0
L0D USEFUL LOAD PREFETCHES:          0 PREFETCH ISSUED TO LOWER LEVEL:          0  ACCURACY: -nan
L0D TIMELY PREFETCHES:          0 LATE PREFETCHES: 0 DROPPED PREFETCHES: 0
L0D COMMIT LATE PREFETCHES: 0 MISSED OPPORTUNITY: 0 LATE IN PQ: 0 UNCOVERED: 0
L0D COMMIT LATE MSHR PREFETCHES: 0
L0D MPKI TOTAL: 182.069 MSHR LATE: 0 PQ LATE: 0 COMMIT LATE: 0 MISSED OPPORTUNITY: 0 UNCOVERED: 0
L0D PREFETCHES SAME FILL-ORIGIN LEVEL: 0 DIFFERENT FILL-ORIGIN LEVEL: 0
L0D AVERAGE MISS LATENCY: 29.9798 cycles
L0D AVERAGE MISS LATENCY LOAD: 29.9798 cycles
L0D AVERAGE MISS LATENCY PREFETCH: -nan cycles
L0D AVERAGE MSHR OCCUPANCY: 6.01066
L0D MSHR FULL: 0.643482
L0D RQ	ACCESS:   57206783	FORWARD:          0	MERGED:   17007436	TO_CACHE:   40199347
L0D WQ	ACCESS:   22785114	FORWARD:          0	MERGED:          0	TO_CACHE:   22785114

L1D SPEC fills:          0  NON-SPEC fills:     429196
L1D Test counter :    2292435
L1D Leapfrog:          0
L1D MSHR merge:      54748
L1D TOTAL     ACCESS:   79830172  HIT:   35698765  MISS:   44131407  HIT %:    44.7184  MISS %:    55.2816   MPKI: 220.657
L1D LOAD      TOTAL       ACCESS:   33683112  HIT:   12180395  MISS:   21502717  HIT %:    36.1617  MISS %:    63.8383   MPKI: 107.514
L1D LOAD      NON_SPEC    ACCESS:    1070073  HIT:     640877  MISS:     429196  HIT %:     59.891  MISS %:     40.109   MPKI: 2.14598
L1D LOAD      SPEC        ACCESS:   32613039  HIT:   11539518  MISS:   21073521  HIT %:    35.3831  MISS %:    64.6169   MPKI: 105.368
L1D RFO       NON_SPEC    ACCESS:   22603296  HIT:   20989945  MISS:    1613351  HIT %:    92.8623  MISS %:    7.13768   MPKI: 8.06675
L1D COMMIT LOAD NON_SPEC    ACCESS:    3215553  HIT:    2479110  MISS:     736443  HIT %:    77.0975  MISS %:    22.9025   MPKI: 3.68221
L1D COMMIT WRITE NON_SPEC    ACCESS:   20328211  HIT:      49315  MISS:   20278896  HIT %:   0.242594  MISS %:    99.7574   MPKI: 101.394
L1D PREFETCH  REQUESTED:          0  ISSUED:          0  USEFUL:          0  USELESS:          0
L1D USEFUL LOAD PREFETCHES:          0 PREFETCH ISSUED TO LOWER LEVEL:          0  ACCURACY: -nan
L1D TIMELY PREFETCHES:          0 LATE PREFETCHES: 0 DROPPED PREFETCHES: 0
L1D COMMIT LATE PREFETCHES: 0 MISSED OPPORTUNITY: 0 LATE IN PQ: 0 UNCOVERED: 0
L1D COMMIT LATE MSHR PREFETCHES: 0
L1D MPKI TOTAL: 107.787 MSHR LATE: 0 PQ LATE: 0 COMMIT LATE: 0 MISSED OPPORTUNITY: 0 UNCOVERED: 0
L1D PREFETCHES SAME FILL-ORIGIN LEVEL: 0 DIFFERENT FILL-ORIGIN LEVEL: 0
L1D AVERAGE MISS LATENCY: 16.19 cycles
L1D AVERAGE MISS LATENCY LOAD: 29.0986 cycles
L1D AVERAGE MISS LATENCY PREFETCH: -nan cycles
L1D AVERAGE MSHR OCCUPANCY: 2.49941
L1D MSHR FULL: 0.0366355
L1D RQ	ACCESS:   42433041	FORWARD:          0	MERGED:    5452627	TO_CACHE:   36980412
L1D WQ	ACCESS:   43113324	FORWARD:          2	MERGED:      29506	TO_CACHE:   43083818

L1D UNIQUE REGIONS ACCESSED: 0
L1D REGIONS CONFLICTS: 0
L1D Cross Page Prefetch Requests: 0
L1D Same Page Prefetch Requests: 0
L1D ROI Sum of L1D PQ occupancy: 0
L1D PREFETCHES PUSHED FROM L2C: 0
L1I SPEC fills:          0  NON-SPEC fills:          0
L1I Test counter :          0
L1I Leapfrog:          0
L1I MSHR merge:      24722
L1I TOTAL     ACCESS:   35179460  HIT:   35129803  MISS:      49657  HIT %:    99.8588  MISS %:   0.141153   MPKI: 0.248285
L1I LOAD      TOTAL       ACCESS:   35179460  HIT:   35129803  MISS:      49657  HIT %:    99.8588  MISS %:   0.141153   MPKI: 0.248285
L1I LOAD      NON_SPEC    ACCESS:   35179460  HIT:   35129803  MISS:      49657  HIT %:    99.8588  MISS %:   0.141153   MPKI: 0.248285
L1I PREFETCH  REQUESTED:          0  ISSUED:          0  USEFUL:          0  USELESS:          0
L1I USEFUL LOAD PREFETCHES:          0 PREFETCH ISSUED TO LOWER LEVEL:          0  ACCURACY: -nan
L1I TIMELY PREFETCHES:          0 LATE PREFETCHES: 0 DROPPED PREFETCHES: 0
L1I COMMIT LATE PREFETCHES: 0 MISSED OPPORTUNITY: 0 LATE IN PQ: 0 UNCOVERED: 0
L1I COMMIT LATE MSHR PREFETCHES: 0
L1I MPKI TOTAL: 0.371895 MSHR LATE: 0 PQ LATE: 0 COMMIT LATE: 0 MISSED OPPORTUNITY: 0 UNCOVERED: 0
L1I PREFETCHES SAME FILL-ORIGIN LEVEL: 0 DIFFERENT FILL-ORIGIN LEVEL: 0
L1I AVERAGE MISS LATENCY: 17.4485 cycles
L1I AVERAGE MISS LATENCY LOAD: 17.4485 cycles
L1I AVERAGE MISS LATENCY PREFETCH: -nan cycles
L1I AVERAGE MSHR OCCUPANCY: 0.00191193
L1I MSHR FULL: 0
L1I RQ	ACCESS:   52248832	FORWARD:          0	MERGED:   17044650	TO_CACHE:   35204182

BTB SPEC fills:          0  NON-SPEC fills:          0
BTB Test counter :          0
BTB Leapfrog:          0
BTB MSHR merge:          0
BTB TOTAL     ACCESS:     207305  HIT:     204093  MISS:       3212  HIT %:    98.4506  MISS %:    1.54941   MPKI: 0.01606
BTB BRANCH_DIRECT_JUMP	ACCESS:      61458  HIT:      61423  MISS:         35
BTB BRANCH_INDIRECT	ACCESS:      58898  HIT:      58820  MISS:         78
BTB BRANCH_CONDITIONAL	ACCESS:      74915  HIT:      74516  MISS:        399
BTB BRANCH_DIRECT_CALL	ACCESS:       6013  HIT:       5388  MISS:        625
BTB BRANCH_INDIRECT_CALL	ACCESS:          3  HIT:          0  MISS:          3
BTB BRANCH_RETURN	ACCESS:       6018  HIT:       3946  MISS:       2072
BTB BRANCH_OTHER ACCESS:          0  HIT:          0  MISS:          0

L2C SPEC fills:          0  NON-SPEC fills:      37068
L2C Test counter :    1969906
L2C Leapfrog:          0
L2C MSHR merge:          0
L2C TOTAL     ACCESS:   27565449  HIT:   23269678  MISS:    4295771  HIT %:    84.4161  MISS %:    15.5839   MPKI: 21.4789
L2C LOAD      TOTAL       ACCESS:   21189373  HIT:   19035701  MISS:    2153672  HIT %:    89.8361  MISS %:    10.1639   MPKI: 10.7684
L2C LOAD      NON_SPEC    ACCESS:     452639  HIT:     414730  MISS:      37909  HIT %:    91.6249  MISS %:    8.37511   MPKI: 0.189545
L2C LOAD      SPEC        ACCESS:   20736734  HIT:   18620971  MISS:    2115763  HIT %:     89.797  MISS %:     10.203   MPKI: 10.5788
L2C RFO       NON_SPEC    ACCESS:    1609053  HIT:    1607934  MISS:       1119  HIT %:    99.9305  MISS %:   0.069544   MPKI: 0.005595
L2C WRITEBACK NON_SPEC    ACCESS:    1616827  HIT:    1616826  MISS:          1  HIT %:    99.9999  MISS %: 6.18495e-05   MPKI: 5e-06
L2C CLEAN_EVICTION NON_SPEC    ACCESS:    2292423  HIT:     321674  MISS:    1970749  HIT %:    14.0321  MISS %:    85.9679   MPKI: 9.85374
L2C COMMIT LOAD NON_SPEC    ACCESS:     735086  HIT:     592777  MISS:     142309  HIT %:    80.6405  MISS %:    19.3595   MPKI: 0.711545
L2C LOAD TRANSLATION NON_SPEC    ACCESS:     122687  HIT:      94766  MISS:      27921  HIT %:    77.2421  MISS %:    22.7579   MPKI: 0.139605
L2C PREFETCH  REQUESTED:          0  ISSUED:          0  USEFUL:          0  USELESS:          0
L2C USEFUL LOAD PREFETCHES:          0 PREFETCH ISSUED TO LOWER LEVEL:          0  ACCURACY: -nan
L2C TIMELY PREFETCHES:          0 LATE PREFETCHES: 0 DROPPED PREFETCHES: 0
L2C COMMIT LATE PREFETCHES: 0 MISSED OPPORTUNITY: 0 LATE IN PQ: 0 UNCOVERED: 0
L2C COMMIT LATE MSHR PREFETCHES: 0
L2C MPKI TOTAL: 10.7684 MSHR LATE: 0 PQ LATE: 0 COMMIT LATE: 0 MISSED OPPORTUNITY: 0 UNCOVERED: 0
L2C PREFETCHES SAME FILL-ORIGIN LEVEL: 0 DIFFERENT FILL-ORIGIN LEVEL: 0
L2C AVERAGE MISS LATENCY: 101.253 cycles
L2C AVERAGE MISS LATENCY LOAD: 176.684 cycles
L2C AVERAGE MISS LATENCY PREFETCH: -nan cycles
L2C AVERAGE MSHR OCCUPANCY: 0.788603
L2C MSHR FULL: 0
L2C RQ	ACCESS:   24024857	FORWARD:          0	MERGED:          0	TO_CACHE:   23656201
L2C WQ	ACCESS:    3909317	FORWARD:     368656	MERGED:         66	TO_CACHE:    3909251

L2C Instructions Evicting Data 832
L2C Translations Evicting Data 26948
L2C Data Evicting Data 178725
L2C Instructions Evicting Instructions 7
L2C Translations Evicting Instructions 3
L2C Data Evicting Instructions 103
L2C Instructions Evicting Translations 2
L2C Translations Evicting Translations 970
L2C Data Evicting Translations 1668
L2C Dense regions hint from L2: 0
PSCL5 SPEC fills:          0  NON-SPEC fills:          0
PSCL5 Test counter :          0
PSCL5 Leapfrog:          0
PSCL5 MSHR merge:          0
PSCL5 TOTAL     ACCESS:          0  HIT:          0  MISS:          0  HIT %:       -nan  MISS %:       -nan   MPKI: 0
PSCL5 PREFETCH  REQUESTED:          0  ISSUED:          0  USEFUL:          0  USELESS:          0
PSCL5 USEFUL LOAD PREFETCHES:          0 PREFETCH ISSUED TO LOWER LEVEL:          0  ACCURACY: -nan
PSCL5 TIMELY PREFETCHES:          0 LATE PREFETCHES: 0 DROPPED PREFETCHES: 0
PSCL5 COMMIT LATE PREFETCHES: 0 MISSED OPPORTUNITY: 0 LATE IN PQ: 0 UNCOVERED: 0
PSCL5 COMMIT LATE MSHR PREFETCHES: 0
PSCL5 MPKI TOTAL: 0 MSHR LATE: 0 PQ LATE: 0 COMMIT LATE: 0 MISSED OPPORTUNITY: 0 UNCOVERED: 0
PSCL5 PREFETCHES SAME FILL-ORIGIN LEVEL: 0 DIFFERENT FILL-ORIGIN LEVEL: 0

PSCL4 SPEC fills:          0  NON-SPEC fills:          0
PSCL4 Test counter :          0
PSCL4 Leapfrog:          0
PSCL4 MSHR merge:          0
PSCL4 TOTAL     ACCESS:          0  HIT:          0  MISS:          0  HIT %:       -nan  MISS %:       -nan   MPKI: 0
PSCL4 PREFETCH  REQUESTED:          0  ISSUED:          0  USEFUL:          0  USELESS:          0
PSCL4 USEFUL LOAD PREFETCHES:          0 PREFETCH ISSUED TO LOWER LEVEL:          0  ACCURACY: -nan
PSCL4 TIMELY PREFETCHES:          0 LATE PREFETCHES: 0 DROPPED PREFETCHES: 0
PSCL4 COMMIT LATE PREFETCHES: 0 MISSED OPPORTUNITY: 0 LATE IN PQ: 0 UNCOVERED: 0
PSCL4 COMMIT LATE MSHR PREFETCHES: 0
PSCL4 MPKI TOTAL: 0 MSHR LATE: 0 PQ LATE: 0 COMMIT LATE: 0 MISSED OPPORTUNITY: 0 UNCOVERED: 0
PSCL4 PREFETCHES SAME FILL-ORIGIN LEVEL: 0 DIFFERENT FILL-ORIGIN LEVEL: 0

PSCL3 SPEC fills:          0  NON-SPEC fills:          0
PSCL3 Test counter :          0
PSCL3 Leapfrog:          0
PSCL3 MSHR merge:          0
PSCL3 TOTAL     ACCESS:          0  HIT:          0  MISS:          0  HIT %:       -nan  MISS %:       -nan   MPKI: 0
PSCL3 PREFETCH  REQUESTED:          0  ISSUED:          0  USEFUL:          0  USELESS:          0
PSCL3 USEFUL LOAD PREFETCHES:          0 PREFETCH ISSUED TO LOWER LEVEL:          0  ACCURACY: -nan
PSCL3 TIMELY PREFETCHES:          0 LATE PREFETCHES: 0 DROPPED PREFETCHES: 0
PSCL3 COMMIT LATE PREFETCHES: 0 MISSED OPPORTUNITY: 0 LATE IN PQ: 0 UNCOVERED: 0
PSCL3 COMMIT LATE MSHR PREFETCHES: 0
PSCL3 MPKI TOTAL: 0 MSHR LATE: 0 PQ LATE: 0 COMMIT LATE: 0 MISSED OPPORTUNITY: 0 UNCOVERED: 0
PSCL3 PREFETCHES SAME FILL-ORIGIN LEVEL: 0 DIFFERENT FILL-ORIGIN LEVEL: 0

PSCL2 SPEC fills:          0  NON-SPEC fills:          0
PSCL2 Test counter :          0
PSCL2 Leapfrog:          0
PSCL2 MSHR merge:          0
PSCL2 TOTAL     ACCESS:          0  HIT:          0  MISS:          0  HIT %:       -nan  MISS %:       -nan   MPKI: 0
PSCL2 PREFETCH  REQUESTED:          0  ISSUED:          0  USEFUL:          0  USELESS:          0
PSCL2 USEFUL LOAD PREFETCHES:          0 PREFETCH ISSUED TO LOWER LEVEL:          0  ACCURACY: -nan
PSCL2 TIMELY PREFETCHES:          0 LATE PREFETCHES: 0 DROPPED PREFETCHES: 0
PSCL2 COMMIT LATE PREFETCHES: 0 MISSED OPPORTUNITY: 0 LATE IN PQ: 0 UNCOVERED: 0
PSCL2 COMMIT LATE MSHR PREFETCHES: 0
PSCL2 MPKI TOTAL: 0 MSHR LATE: 0 PQ LATE: 0 COMMIT LATE: 0 MISSED OPPORTUNITY: 0 UNCOVERED: 0
PSCL2 PREFETCHES SAME FILL-ORIGIN LEVEL: 0 DIFFERENT FILL-ORIGIN LEVEL: 0

LLC SPEC fills:          0  NON-SPEC fills:      26743
LLC Test counter :    1379764
LLC Leapfrog:          0
LLC MSHR merge:          0
LLC TOTAL     ACCESS:    4397467  HIT:    1365209  MISS:    3032258  HIT %:    31.0453  MISS %:    68.9547   MPKI: 15.1613
LLC LOAD      TOTAL       ACCESS:    2153128  HIT:     624608  MISS:    1528520  HIT %:    29.0093  MISS %:    70.9907   MPKI: 7.6426
LLC LOAD      NON_SPEC    ACCESS:      37900  HIT:      10327  MISS:      27573  HIT %:     27.248  MISS %:     72.752   MPKI: 0.137865
LLC LOAD      SPEC        ACCESS:    2115228  HIT:     614281  MISS:    1500947  HIT %:    29.0409  MISS %:    70.9591   MPKI: 7.50473
LLC RFO       NON_SPEC    ACCESS:       1115  HIT:          7  MISS:       1108  HIT %:   0.627803  MISS %:    99.3722   MPKI: 0.00554
LLC WRITEBACK NON_SPEC    ACCESS:     103131  HIT:     103112  MISS:         19  HIT %:    99.9816  MISS %:  0.0184232   MPKI: 9.5e-05
LLC CLEAN_EVICTION NON_SPEC    ACCESS:    1969906  HIT:     588143  MISS:    1381763  HIT %:    29.8564  MISS %:    70.1436   MPKI: 6.90881
LLC COMMIT LOAD NON_SPEC    ACCESS:     142266  HIT:      25057  MISS:     117209  HIT %:    17.6128  MISS %:    82.3872   MPKI: 0.586045
LLC LOAD TRANSLATION NON_SPEC    ACCESS:      27921  HIT:      24282  MISS:       3639  HIT %:    86.9668  MISS %:    13.0332   MPKI: 0.018195
LLC PREFETCH  REQUESTED:          0  ISSUED:          0  USEFUL:          0  USELESS:          0
LLC USEFUL LOAD PREFETCHES:          0 PREFETCH ISSUED TO LOWER LEVEL:          0  ACCURACY: -nan
LLC TIMELY PREFETCHES:          0 LATE PREFETCHES: 0 DROPPED PREFETCHES: 0
LLC COMMIT LATE PREFETCHES: 0 MISSED OPPORTUNITY: 0 LATE IN PQ: 0 UNCOVERED: 0
LLC COMMIT LATE MSHR PREFETCHES: 0
LLC MPKI TOTAL: 7.6426 MSHR LATE: 0 PQ LATE: 0 COMMIT LATE: 0 MISSED OPPORTUNITY: 0 UNCOVERED: 0
LLC PREFETCHES SAME FILL-ORIGIN LEVEL: 0 DIFFERENT FILL-ORIGIN LEVEL: 0
LLC AVERAGE MISS LATENCY: 126.444 cycles
LLC AVERAGE MISS LATENCY LOAD: 218.62 cycles
LLC AVERAGE MISS LATENCY PREFETCH: -nan cycles
LLC AVERAGE MSHR OCCUPANCY: 3.12774
LLC MSHR FULL: 0
LLC RQ	ACCESS:    2325022	FORWARD:          0	MERGED:          0	TO_CACHE:    2324431
LLC WQ	ACCESS:    2073037	FORWARD:        591	MERGED:          0	TO_CACHE:    2073037

LLC Dense regions hint to LLC: 0

RAW hits: 84986
Loads Generated: 57291776
Loads sent to L1D: 57206783
Stores Generated: 22785115
Stores sent to L1D: 22785114
Major fault: 0 Minor fault: 17275
Allocated PAGES: 17275
Total Load insts: 86487309
Total Non-spec loads: 2215016
Percentage of speculative loads: 97.4389

LeapFrogging counter: 26987281
Commit hits: 31061454 miss: 24943165
Commit hit %: 55.4623 miss %: 44.5377
Commits not translated: 0
Loads retired: 21502712
Stores retired: 22785114
Cache fills: 21502717
L1D response latency: 29.0986 cycles
Load retirement latency: 141.652 cycles
OOO test counter: 0
Discarded buffer inserts: 31061454 hits: 3803172 hit %: 12.244

DRAM Statistics
 CHANNEL 0
 RQ ROW_BUFFER_HIT:     628838  ROW_BUFFER_MISS:    1021638
 DBUS_CONGESTED:        785
 WQ ROW_BUFFER_HIT:     408990  ROW_BUFFER_MISS:    1077778  FULL:         28

 AVG_CONGESTED_CYCLE: 6
 All warmup complete: 2
Channel 0 Bank busy for read cycles: 0
Channel 0 Bank busy for write cycles: 0
Channel 0
Rank 0
0banks busy for read cycles: 196418752
0banks busy for write cycles: 386471
1banks busy for read cycles: 39045716
1banks busy for write cycles: 42815516
2banks busy for read cycles: 7663906
2banks busy for write cycles: 19162436
3banks busy for read cycles: 39632542
3banks busy for write cycles: 17844281
4banks busy for read cycles: 2718941
4banks busy for write cycles: 12616350
5banks busy for read cycles: 114295
5banks busy for write cycles: 2470877
6banks busy for read cycles: 4941
6banks busy for write cycles: 667287
7banks busy for read cycles: 212
7banks busy for write cycles: 213839
8banks busy for read cycles: 0
8banks busy for write cycles: 93687

CPU 0 Branch Prediction Accuracy: 99.5304% MPKI: 0.00654 Average ROB Occupancy at Mispredict: 31.0879
Branch types
NOT_BRANCH: 199721272 99.8606%
BRANCH_DIRECT_JUMP: 61458 0.030729%
BRANCH_INDIRECT: 58898 0.029449%
BRANCH_CONDITIONAL: 146150 0.073075%
BRANCH_DIRECT_CALL: 6013 0.0030065%
BRANCH_INDIRECT_CALL: 3 1.5e-06%
BRANCH_RETURN: 6018 0.003009%
BRANCH_OTHER: 0 0%

DRAM PAGES: 1048576
Allocated PAGES: 17275
