
*** ChampSim Multicore Out-of-Order Simulator ***

Warmup Instructions: 50000000
Simulation Instructions: 200000000
Number of CPUs: 1
LLC sets: 2048
LLC ways: 16
L0D sets: 16
L0D ways: 2
ROB size: 352
LQ size: 128
SQ size: 72
Secure Berti: OFF
Berti: OFF
Berti Fill: OFF
On commit prefetching: OFF
Hit-based filter: ON
Time-guarding: ON
Free-slotting: ON
Leap-frogging: ON
Train prefetcher on L0D bypass: OFF
No translation penalty for prefetchers: OFF
Prefetch to L0D only: OFF
Prefetch to L1D only: OFF
Clean evictions: ON
Commit loads: ON
Commit write: ON
Fill commit loads to L2C, LLC: ON
DRAM IO FREQUENCY: 6400
ROB SIZE: 352
Off-chip DRAM Size: 4096 MB Channels: 1 Width: 64-bit Data Rate: 6400 MT/s
CPU 0 runs /home/sumon/secure_berti/GhostMinion/../../traces/spec/619.lbm_s-3766B.champsimtrace.xz
.xz
BTB has LRU replacement policy
ITLB has LRU replacement policy
DTLB has LRU replacement policy
STLB has LRU replacement policy
L1I has LRU replacement policy
L0D has LRU replacement policy
L1D has LRU replacement policy
L2C has LRU replacement policy
LLC has LRU replacement policy
Heartbeat CPU 0 instructions: 10000000 cycles: 2866569 heartbeat IPC: 3.48849 cumulative IPC: 3.48849 (Simulation time: 0 hr 0 min 28 sec) 
Heartbeat CPU 0 instructions: 20000002 cycles: 5736099 heartbeat IPC: 3.48489 cumulative IPC: 3.48669 (Simulation time: 0 hr 0 min 56 sec) 
Heartbeat CPU 0 instructions: 30000000 cycles: 8602602 heartbeat IPC: 3.48857 cumulative IPC: 3.48732 (Simulation time: 0 hr 1 min 24 sec) 
Heartbeat CPU 0 instructions: 40000003 cycles: 11472168 heartbeat IPC: 3.48485 cumulative IPC: 3.4867 (Simulation time: 0 hr 1 min 52 sec) 
Heartbeat CPU 0 instructions: 50000000 cycles: 14341649 heartbeat IPC: 3.48495 cumulative IPC: 3.48635 (Simulation time: 0 hr 2 min 20 sec) 

Warmup complete CPU 0 instructions: 50000004 cycles: 14341650 (Simulation time: 0 hr 2 min 20 sec) 

Heartbeat CPU 0 instructions: 60000000 cycles: 27596702 heartbeat IPC: 0.754429 cumulative IPC: 0.754429 (Simulation time: 0 hr 3 min 2 sec) 
Heartbeat CPU 0 instructions: 70000000 cycles: 40929581 heartbeat IPC: 0.750026 cumulative IPC: 0.752221 (Simulation time: 0 hr 3 min 43 sec) 
Heartbeat CPU 0 instructions: 80000003 cycles: 54006244 heartbeat IPC: 0.764721 cumulative IPC: 0.756342 (Simulation time: 0 hr 4 min 25 sec) 
Heartbeat CPU 0 instructions: 90000001 cycles: 67398258 heartbeat IPC: 0.746714 cumulative IPC: 0.753912 (Simulation time: 0 hr 5 min 8 sec) 
Heartbeat CPU 0 instructions: 100000003 cycles: 80523167 heartbeat IPC: 0.76191 cumulative IPC: 0.755498 (Simulation time: 0 hr 5 min 52 sec) 
Heartbeat CPU 0 instructions: 110000000 cycles: 94633230 heartbeat IPC: 0.708714 cumulative IPC: 0.747276 (Simulation time: 0 hr 6 min 36 sec) 
Heartbeat CPU 0 instructions: 120000003 cycles: 109133425 heartbeat IPC: 0.689646 cumulative IPC: 0.738461 (Simulation time: 0 hr 7 min 21 sec) 
Heartbeat CPU 0 instructions: 130000000 cycles: 126502411 heartbeat IPC: 0.575739 cumulative IPC: 0.713262 (Simulation time: 0 hr 8 min 10 sec) 
Heartbeat CPU 0 instructions: 140000002 cycles: 146038160 heartbeat IPC: 0.511882 cumulative IPC: 0.683389 (Simulation time: 0 hr 9 min 2 sec) 
Heartbeat CPU 0 instructions: 150000002 cycles: 168566642 heartbeat IPC: 0.443883 cumulative IPC: 0.648403 (Simulation time: 0 hr 9 min 59 sec) 
Heartbeat CPU 0 instructions: 160000003 cycles: 196277479 heartbeat IPC: 0.36087 cumulative IPC: 0.604609 (Simulation time: 0 hr 11 min 4 sec) 
Heartbeat CPU 0 instructions: 170000003 cycles: 229895247 heartbeat IPC: 0.297462 cumulative IPC: 0.556706 (Simulation time: 0 hr 12 min 18 sec) 
Heartbeat CPU 0 instructions: 180000003 cycles: 265844284 heartbeat IPC: 0.278172 cumulative IPC: 0.516893 (Simulation time: 0 hr 13 min 35 sec) 
Heartbeat CPU 0 instructions: 190000001 cycles: 303490364 heartbeat IPC: 0.265632 cumulative IPC: 0.48418 (Simulation time: 0 hr 14 min 54 sec) 
Heartbeat CPU 0 instructions: 200000003 cycles: 338126984 heartbeat IPC: 0.288712 cumulative IPC: 0.46327 (Simulation time: 0 hr 16 min 3 sec) 
Heartbeat CPU 0 instructions: 210000003 cycles: 370457635 heartbeat IPC: 0.309304 cumulative IPC: 0.449292 (Simulation time: 0 hr 17 min 7 sec) 
Heartbeat CPU 0 instructions: 220000000 cycles: 400201337 heartbeat IPC: 0.336206 cumulative IPC: 0.440575 (Simulation time: 0 hr 18 min 5 sec) 
Heartbeat CPU 0 instructions: 230000000 cycles: 429440855 heartbeat IPC: 0.342003 cumulative IPC: 0.433631 (Simulation time: 0 hr 19 min 1 sec) 
Heartbeat CPU 0 instructions: 240000000 cycles: 457311551 heartbeat IPC: 0.3588 cumulative IPC: 0.428923 (Simulation time: 0 hr 19 min 55 sec) 
Heartbeat CPU 0 instructions: 250000000 cycles: 485159346 heartbeat IPC: 0.359095 cumulative IPC: 0.424793 (Simulation time: 0 hr 20 min 48 sec) 
Finished CPU 0 instructions: 200000000 cycles: 470817697 cumulative IPC: 0.424793 (Simulation time: 0 hr 20 min 48 sec) 
 Instruction ID: 250000075

ChampSim completed all CPUs

Region of Interest Statistics

CPU 0 cumulative IPC: 0.424793 instructions: 200000000 cycles: 470817697
ITLB SPEC fills:          0  NON-SPEC fills:          0
ITLB Test counter :          0
ITLB Leapfrog:          0
ITLB MSHR merge:          0
ITLB TOTAL     ACCESS:   26875735  HIT:   26875735  MISS:          0  HIT %:        100  MISS %:          0   MPKI: 0
ITLB LOAD TRANSLATION NON_SPEC    ACCESS:   26875735  HIT:   26875735  MISS:          0  HIT %:        100  MISS %:          0   MPKI: 0
ITLB PREFETCH  REQUESTED:          0  ISSUED:          0  USEFUL:          0  USELESS:          0
ITLB USEFUL LOAD PREFETCHES:          0 PREFETCH ISSUED TO LOWER LEVEL:          0  ACCURACY: -nan
ITLB TIMELY PREFETCHES:          0 LATE PREFETCHES: 0 DROPPED PREFETCHES: 0
ITLB COMMIT LATE PREFETCHES: 0 MISSED OPPORTUNITY: 0 LATE IN PQ: 0 UNCOVERED: 0
ITLB COMMIT LATE MSHR PREFETCHES: 0
ITLB MPKI TOTAL: 0 MSHR LATE: 0 PQ LATE: 0 COMMIT LATE: 0 MISSED OPPORTUNITY: 0 UNCOVERED: 0
ITLB PREFETCHES SAME FILL-ORIGIN LEVEL: 0 DIFFERENT FILL-ORIGIN LEVEL: 0
ITLB AVERAGE MISS LATENCY: -nan cycles
ITLB AVERAGE MISS LATENCY LOAD: -nan cycles
ITLB AVERAGE MISS LATENCY PREFETCH: -nan cycles
ITLB AVERAGE MSHR OCCUPANCY: 0
ITLB MSHR FULL: 0
ITLB RQ	ACCESS:   34783893	FORWARD:          0	MERGED:    7908158	TO_CACHE:   26875735

DTLB SPEC fills:          0  NON-SPEC fills:          0
DTLB Test counter :          0
DTLB Leapfrog:          0
DTLB MSHR merge:          0
DTLB TOTAL     ACCESS:   36672857  HIT:   36447144  MISS:     225713  HIT %:    99.3845  MISS %:   0.615477   MPKI: 1.12857
DTLB LOAD TRANSLATION NON_SPEC    ACCESS:   36672857  HIT:   36447144  MISS:     225713  HIT %:    99.3845  MISS %:   0.615477   MPKI: 1.12857
DTLB PREFETCH  REQUESTED:          0  ISSUED:          0  USEFUL:          0  USELESS:          0
DTLB USEFUL LOAD PREFETCHES:          0 PREFETCH ISSUED TO LOWER LEVEL:          0  ACCURACY: -nan
DTLB TIMELY PREFETCHES:          0 LATE PREFETCHES: 0 DROPPED PREFETCHES: 0
DTLB COMMIT LATE PREFETCHES: 0 MISSED OPPORTUNITY: 0 LATE IN PQ: 0 UNCOVERED: 0
DTLB COMMIT LATE MSHR PREFETCHES: 0
DTLB MPKI TOTAL: 0 MSHR LATE: 0 PQ LATE: 0 COMMIT LATE: 0 MISSED OPPORTUNITY: 0 UNCOVERED: 0
DTLB PREFETCHES SAME FILL-ORIGIN LEVEL: 0 DIFFERENT FILL-ORIGIN LEVEL: 0
DTLB AVERAGE MISS LATENCY: 129.831 cycles
DTLB AVERAGE MISS LATENCY LOAD: -nan cycles
DTLB AVERAGE MISS LATENCY PREFETCH: -nan cycles
DTLB AVERAGE MSHR OCCUPANCY: 0.0747872
DTLB MSHR FULL: 0
DTLB RQ	ACCESS:   59093710	FORWARD:          0	MERGED:   22339857	TO_CACHE:   36753853

STLB SPEC fills:          0  NON-SPEC fills:          0
STLB Test counter :          0
STLB Leapfrog:          0
STLB MSHR merge:          0
STLB TOTAL     ACCESS:     225713  HIT:     103243  MISS:     122470  HIT %:    45.7408  MISS %:    54.2592   MPKI: 0.61235
STLB LOAD TRANSLATION NON_SPEC    ACCESS:     225713  HIT:     103243  MISS:     122470  HIT %:    45.7408  MISS %:    54.2592   MPKI: 0.61235
STLB PREFETCH  REQUESTED:          0  ISSUED:          0  USEFUL:          0  USELESS:          0
STLB USEFUL LOAD PREFETCHES:          0 PREFETCH ISSUED TO LOWER LEVEL:          0  ACCURACY: -nan
STLB TIMELY PREFETCHES:          0 LATE PREFETCHES: 0 DROPPED PREFETCHES: 0
STLB COMMIT LATE PREFETCHES: 0 MISSED OPPORTUNITY: 0 LATE IN PQ: 0 UNCOVERED: 0
STLB COMMIT LATE MSHR PREFETCHES: 0
STLB MPKI TOTAL: 0 MSHR LATE: 0 PQ LATE: 0 COMMIT LATE: 0 MISSED OPPORTUNITY: 0 UNCOVERED: 0
STLB PREFETCHES SAME FILL-ORIGIN LEVEL: 0 DIFFERENT FILL-ORIGIN LEVEL: 0
STLB AVERAGE MISS LATENCY: 222.656 cycles
STLB AVERAGE MISS LATENCY LOAD: -nan cycles
STLB AVERAGE MISS LATENCY PREFETCH: -nan cycles
STLB AVERAGE MSHR OCCUPANCY: 0.14312
STLB MSHR FULL: 0
STLB RQ	ACCESS:     225713	FORWARD:          0	MERGED:          0	TO_CACHE:     225713

STLB Hit, L1D data hit: 0
STLB Hit, L2C data hit: 0
STLB Hit, LLC data hit: 0
STLB Hit, LLC data miss: 0
STLB STLB hints to L2: 0
L0D SPEC fills:   11863832  NON-SPEC fills:          0
L0D TimeGuard Request with older TS:     159430 Restricted eviction:      14722 read:    1292945
L0D Test counter :          0
L0D Leapfrog:          0
L0D MSHR merge:    4446035
L0D TOTAL     ACCESS:   20083817  HIT:    6988797  MISS:   13095020  HIT %:    34.7982  MISS %:    65.2018   MPKI: 65.4751
L0D LOAD      TOTAL       ACCESS:   20083817  HIT:    6988797  MISS:   13095020  HIT %:    34.7982  MISS %:    65.2018   MPKI: 65.4751
L0D LOAD      NON_SPEC    ACCESS:    1781123  HIT:     564657  MISS:    1216466  HIT %:    31.7023  MISS %:    68.2977   MPKI: 6.08233
L0D LOAD      SPEC        ACCESS:   18302694  HIT:    6424140  MISS:   11878554  HIT %:    35.0994  MISS %:    64.9006   MPKI: 59.3928
L0D PREFETCH  REQUESTED:          0  ISSUED:          0  USEFUL:          0  USELESS:          0
L0D USEFUL LOAD PREFETCHES:          0 PREFETCH ISSUED TO LOWER LEVEL:          0  ACCURACY: -nan
L0D TIMELY PREFETCHES:          0 LATE PREFETCHES: 0 DROPPED PREFETCHES: 0
L0D COMMIT LATE PREFETCHES: 0 MISSED OPPORTUNITY: 0 LATE IN PQ: 0 UNCOVERED: 0
L0D COMMIT LATE MSHR PREFETCHES: 0
L0D MPKI TOTAL: 87.7053 MSHR LATE: 0 PQ LATE: 0 COMMIT LATE: 0 MISSED OPPORTUNITY: 0 UNCOVERED: 0
L0D PREFETCHES SAME FILL-ORIGIN LEVEL: 0 DIFFERENT FILL-ORIGIN LEVEL: 0
L0D AVERAGE MISS LATENCY: 96.7018 cycles
L0D AVERAGE MISS LATENCY LOAD: 96.7018 cycles
L0D AVERAGE MISS LATENCY PREFETCH: -nan cycles
L0D AVERAGE MSHR OCCUPANCY: 1.86484
L0D MSHR FULL: 0.051446
L0D RQ	ACCESS:   45408643	FORWARD:          0	MERGED:   20878793	TO_CACHE:   24529850
L0D WQ	ACCESS:   34563860	FORWARD:          0	MERGED:          0	TO_CACHE:   34563860

L1D SPEC fills:          0  NON-SPEC fills:      17517
L1D Test counter :    1951146
L1D Leapfrog:          0
L1D MSHR merge:       3973
L1D TOTAL     ACCESS:   51788911  HIT:   36644623  MISS:   15144288  HIT %:    70.7577  MISS %:    29.2423   MPKI: 75.7214
L1D LOAD      TOTAL       ACCESS:   13091047  HIT:   11073033  MISS:    2018014  HIT %:    84.5848  MISS %:    15.4152   MPKI: 10.0901
L1D LOAD      NON_SPEC    ACCESS:    1214673  HIT:    1197156  MISS:      17517  HIT %:    98.5579  MISS %:    1.44212   MPKI: 0.087585
L1D LOAD      SPEC        ACCESS:   11876374  HIT:    9875877  MISS:    2000497  HIT %:    83.1557  MISS %:    16.8443   MPKI: 10.0025
L1D RFO       NON_SPEC    ACCESS:   34443671  HIT:   23473104  MISS:   10970567  HIT %:    68.1493  MISS %:    31.8507   MPKI: 54.8528
L1D COMMIT LOAD NON_SPEC    ACCESS:    2247807  HIT:    2071982  MISS:     175825  HIT %:    92.1779  MISS %:    7.82207   MPKI: 0.879125
L1D COMMIT WRITE NON_SPEC    ACCESS:    2006386  HIT:      26504  MISS:    1979882  HIT %:    1.32098  MISS %:     98.679   MPKI: 9.89941
L1D PREFETCH  REQUESTED:          0  ISSUED:          0  USEFUL:          0  USELESS:          0
L1D USEFUL LOAD PREFETCHES:          0 PREFETCH ISSUED TO LOWER LEVEL:          0  ACCURACY: -nan
L1D TIMELY PREFETCHES:          0 LATE PREFETCHES: 0 DROPPED PREFETCHES: 0
L1D COMMIT LATE PREFETCHES: 0 MISSED OPPORTUNITY: 0 LATE IN PQ: 0 UNCOVERED: 0
L1D COMMIT LATE MSHR PREFETCHES: 0
L1D MPKI TOTAL: 10.1099 MSHR LATE: 0 PQ LATE: 0 COMMIT LATE: 0 MISSED OPPORTUNITY: 0 UNCOVERED: 0
L1D PREFETCHES SAME FILL-ORIGIN LEVEL: 0 DIFFERENT FILL-ORIGIN LEVEL: 0
L1D AVERAGE MISS LATENCY: 263.486 cycles
L1D AVERAGE MISS LATENCY LOAD: 453.435 cycles
L1D AVERAGE MISS LATENCY PREFETCH: -nan cycles
L1D AVERAGE MSHR OCCUPANCY: 14.9182
L1D MSHR FULL: 0.909086
L1D RQ	ACCESS:   24262589	FORWARD:          0	MERGED:    8919529	TO_CACHE:   15343058
L1D WQ	ACCESS:   36570246	FORWARD:          2	MERGED:      42669	TO_CACHE:   36527577

L1D UNIQUE REGIONS ACCESSED: 0
L1D REGIONS CONFLICTS: 0
L1D Cross Page Prefetch Requests: 0
L1D Same Page Prefetch Requests: 0
L1D ROI Sum of L1D PQ occupancy: 0
L1D PREFETCHES PUSHED FROM L2C: 0
L1I SPEC fills:          0  NON-SPEC fills:          0
L1I Test counter :          0
L1I Leapfrog:          0
L1I MSHR merge:          0
L1I TOTAL     ACCESS:   34783891  HIT:   34783891  MISS:          0  HIT %:        100  MISS %:          0   MPKI: 0
L1I LOAD      TOTAL       ACCESS:   34783891  HIT:   34783891  MISS:          0  HIT %:        100  MISS %:          0   MPKI: 0
L1I LOAD      NON_SPEC    ACCESS:   34783891  HIT:   34783891  MISS:          0  HIT %:        100  MISS %:          0   MPKI: 0
L1I PREFETCH  REQUESTED:          0  ISSUED:          0  USEFUL:          0  USELESS:          0
L1I USEFUL LOAD PREFETCHES:          0 PREFETCH ISSUED TO LOWER LEVEL:          0  ACCURACY: -nan
L1I TIMELY PREFETCHES:          0 LATE PREFETCHES: 0 DROPPED PREFETCHES: 0
L1I COMMIT LATE PREFETCHES: 0 MISSED OPPORTUNITY: 0 LATE IN PQ: 0 UNCOVERED: 0
L1I COMMIT LATE MSHR PREFETCHES: 0
L1I MPKI TOTAL: 0 MSHR LATE: 0 PQ LATE: 0 COMMIT LATE: 0 MISSED OPPORTUNITY: 0 UNCOVERED: 0
L1I PREFETCHES SAME FILL-ORIGIN LEVEL: 0 DIFFERENT FILL-ORIGIN LEVEL: 0
L1I AVERAGE MISS LATENCY: -nan cycles
L1I AVERAGE MISS LATENCY LOAD: -nan cycles
L1I AVERAGE MISS LATENCY PREFETCH: -nan cycles
L1I AVERAGE MSHR OCCUPANCY: 0
L1I MSHR FULL: 0
L1I RQ	ACCESS:   50548694	FORWARD:          0	MERGED:   15764801	TO_CACHE:   34783893

BTB SPEC fills:          0  NON-SPEC fills:          0
BTB Test counter :          0
BTB Leapfrog:          0
BTB MSHR merge:          0
BTB TOTAL     ACCESS:    3122106  HIT:    3122100  MISS:          6  HIT %:    99.9998  MISS %: 0.000192178   MPKI: 3e-05
BTB BRANCH_DIRECT_JUMP	ACCESS:     397756  HIT:     397755  MISS:          1
BTB BRANCH_INDIRECT	ACCESS:          0  HIT:          0  MISS:          0
BTB BRANCH_CONDITIONAL	ACCESS:    2724350  HIT:    2724345  MISS:          5
BTB BRANCH_DIRECT_CALL	ACCESS:          0  HIT:          0  MISS:          0
BTB BRANCH_INDIRECT_CALL	ACCESS:          0  HIT:          0  MISS:          0
BTB BRANCH_RETURN	ACCESS:          0  HIT:          0  MISS:          0
BTB BRANCH_OTHER ACCESS:          0  HIT:          0  MISS:          0

L2C SPEC fills:          0  NON-SPEC fills:      17093
L2C Test counter :    1945115
L2C Leapfrog:          0
L2C MSHR merge:          0
L2C TOTAL     ACCESS:   26698183  HIT:   16808828  MISS:    9889355  HIT %:    62.9587  MISS %:    37.0413   MPKI: 49.4468
L2C LOAD      TOTAL       ACCESS:    2017847  HIT:      42293  MISS:    1975554  HIT %:    2.09595  MISS %:    97.9041   MPKI: 9.87777
L2C LOAD      NON_SPEC    ACCESS:      17517  HIT:        424  MISS:      17093  HIT %:    2.42051  MISS %:    97.5795   MPKI: 0.085465
L2C LOAD      SPEC        ACCESS:    2000330  HIT:      41869  MISS:    1958461  HIT %:     2.0931  MISS %:    97.9069   MPKI: 9.79231
L2C RFO       NON_SPEC    ACCESS:   10970557  HIT:    5016668  MISS:    5953889  HIT %:    45.7285  MISS %:    54.2715   MPKI: 29.7694
L2C WRITEBACK NON_SPEC    ACCESS:   10970579  HIT:   10970099  MISS:        480  HIT %:    99.9956  MISS %: 0.00437534   MPKI: 0.0024
L2C CLEAN_EVICTION NON_SPEC    ACCESS:    1951146  HIT:     182515  MISS:    1768631  HIT %:    9.35425  MISS %:    90.6458   MPKI: 8.84315
L2C COMMIT LOAD NON_SPEC    ACCESS:     175825  HIT:        476  MISS:     175349  HIT %:   0.270724  MISS %:    99.7293   MPKI: 0.876745
L2C LOAD TRANSLATION NON_SPEC    ACCESS:     612229  HIT:     596777  MISS:      15452  HIT %:    97.4761  MISS %:    2.52389   MPKI: 0.07726
L2C PREFETCH  REQUESTED:          0  ISSUED:          0  USEFUL:          0  USELESS:          0
L2C USEFUL LOAD PREFETCHES:          0 PREFETCH ISSUED TO LOWER LEVEL:          0  ACCURACY: -nan
L2C TIMELY PREFETCHES:          0 LATE PREFETCHES: 0 DROPPED PREFETCHES: 0
L2C COMMIT LATE PREFETCHES: 0 MISSED OPPORTUNITY: 0 LATE IN PQ: 0 UNCOVERED: 0
L2C COMMIT LATE MSHR PREFETCHES: 0
L2C MPKI TOTAL: 9.87777 MSHR LATE: 0 PQ LATE: 0 COMMIT LATE: 0 MISSED OPPORTUNITY: 0 UNCOVERED: 0
L2C PREFETCHES SAME FILL-ORIGIN LEVEL: 0 DIFFERENT FILL-ORIGIN LEVEL: 0
L2C AVERAGE MISS LATENCY: 375.84 cycles
L2C AVERAGE MISS LATENCY LOAD: 406.608 cycles
L2C AVERAGE MISS LATENCY PREFETCH: -nan cycles
L2C AVERAGE MSHR OCCUPANCY: 8.44092
L2C MSHR FULL: 0
L2C RQ	ACCESS:   13776642	FORWARD:          0	MERGED:          0	TO_CACHE:   13776464
L2C WQ	ACCESS:   12921725	FORWARD:        178	MERGED:          0	TO_CACHE:   12921725

L2C Instructions Evicting Data 0
L2C Translations Evicting Data 15389
L2C Data Evicting Data 6134590
L2C Instructions Evicting Instructions 0
L2C Translations Evicting Instructions 0
L2C Data Evicting Instructions 0
L2C Instructions Evicting Translations 0
L2C Translations Evicting Translations 63
L2C Data Evicting Translations 11741
L2C Dense regions hint from L2: 0
PSCL5 SPEC fills:          0  NON-SPEC fills:          0
PSCL5 Test counter :          0
PSCL5 Leapfrog:          0
PSCL5 MSHR merge:          0
PSCL5 TOTAL     ACCESS:          0  HIT:          0  MISS:          0  HIT %:       -nan  MISS %:       -nan   MPKI: 0
PSCL5 PREFETCH  REQUESTED:          0  ISSUED:          0  USEFUL:          0  USELESS:          0
PSCL5 USEFUL LOAD PREFETCHES:          0 PREFETCH ISSUED TO LOWER LEVEL:          0  ACCURACY: -nan
PSCL5 TIMELY PREFETCHES:          0 LATE PREFETCHES: 0 DROPPED PREFETCHES: 0
PSCL5 COMMIT LATE PREFETCHES: 0 MISSED OPPORTUNITY: 0 LATE IN PQ: 0 UNCOVERED: 0
PSCL5 COMMIT LATE MSHR PREFETCHES: 0
PSCL5 MPKI TOTAL: 0 MSHR LATE: 0 PQ LATE: 0 COMMIT LATE: 0 MISSED OPPORTUNITY: 0 UNCOVERED: 0
PSCL5 PREFETCHES SAME FILL-ORIGIN LEVEL: 0 DIFFERENT FILL-ORIGIN LEVEL: 0

PSCL4 SPEC fills:          0  NON-SPEC fills:          0
PSCL4 Test counter :          0
PSCL4 Leapfrog:          0
PSCL4 MSHR merge:          0
PSCL4 TOTAL     ACCESS:          0  HIT:          0  MISS:          0  HIT %:       -nan  MISS %:       -nan   MPKI: 0
PSCL4 PREFETCH  REQUESTED:          0  ISSUED:          0  USEFUL:          0  USELESS:          0
PSCL4 USEFUL LOAD PREFETCHES:          0 PREFETCH ISSUED TO LOWER LEVEL:          0  ACCURACY: -nan
PSCL4 TIMELY PREFETCHES:          0 LATE PREFETCHES: 0 DROPPED PREFETCHES: 0
PSCL4 COMMIT LATE PREFETCHES: 0 MISSED OPPORTUNITY: 0 LATE IN PQ: 0 UNCOVERED: 0
PSCL4 COMMIT LATE MSHR PREFETCHES: 0
PSCL4 MPKI TOTAL: 0 MSHR LATE: 0 PQ LATE: 0 COMMIT LATE: 0 MISSED OPPORTUNITY: 0 UNCOVERED: 0
PSCL4 PREFETCHES SAME FILL-ORIGIN LEVEL: 0 DIFFERENT FILL-ORIGIN LEVEL: 0

PSCL3 SPEC fills:          0  NON-SPEC fills:          0
PSCL3 Test counter :          0
PSCL3 Leapfrog:          0
PSCL3 MSHR merge:          0
PSCL3 TOTAL     ACCESS:          0  HIT:          0  MISS:          0  HIT %:       -nan  MISS %:       -nan   MPKI: 0
PSCL3 PREFETCH  REQUESTED:          0  ISSUED:          0  USEFUL:          0  USELESS:          0
PSCL3 USEFUL LOAD PREFETCHES:          0 PREFETCH ISSUED TO LOWER LEVEL:          0  ACCURACY: -nan
PSCL3 TIMELY PREFETCHES:          0 LATE PREFETCHES: 0 DROPPED PREFETCHES: 0
PSCL3 COMMIT LATE PREFETCHES: 0 MISSED OPPORTUNITY: 0 LATE IN PQ: 0 UNCOVERED: 0
PSCL3 COMMIT LATE MSHR PREFETCHES: 0
PSCL3 MPKI TOTAL: 0 MSHR LATE: 0 PQ LATE: 0 COMMIT LATE: 0 MISSED OPPORTUNITY: 0 UNCOVERED: 0
PSCL3 PREFETCHES SAME FILL-ORIGIN LEVEL: 0 DIFFERENT FILL-ORIGIN LEVEL: 0

PSCL2 SPEC fills:          0  NON-SPEC fills:          0
PSCL2 Test counter :          0
PSCL2 Leapfrog:          0
PSCL2 MSHR merge:          0
PSCL2 TOTAL     ACCESS:          0  HIT:          0  MISS:          0  HIT %:       -nan  MISS %:       -nan   MPKI: 0
PSCL2 PREFETCH  REQUESTED:          0  ISSUED:          0  USEFUL:          0  USELESS:          0
PSCL2 USEFUL LOAD PREFETCHES:          0 PREFETCH ISSUED TO LOWER LEVEL:          0  ACCURACY: -nan
PSCL2 TIMELY PREFETCHES:          0 LATE PREFETCHES: 0 DROPPED PREFETCHES: 0
PSCL2 COMMIT LATE PREFETCHES: 0 MISSED OPPORTUNITY: 0 LATE IN PQ: 0 UNCOVERED: 0
PSCL2 COMMIT LATE MSHR PREFETCHES: 0
PSCL2 MPKI TOTAL: 0 MSHR LATE: 0 PQ LATE: 0 COMMIT LATE: 0 MISSED OPPORTUNITY: 0 UNCOVERED: 0
PSCL2 PREFETCHES SAME FILL-ORIGIN LEVEL: 0 DIFFERENT FILL-ORIGIN LEVEL: 0

LLC SPEC fills:          0  NON-SPEC fills:      17065
LLC Test counter :    1945629
LLC Leapfrog:          0
LLC MSHR merge:          0
LLC TOTAL     ACCESS:   16018976  HIT:    6210678  MISS:    9808298  HIT %:    38.7708  MISS %:    61.2292   MPKI: 49.0415
LLC LOAD      TOTAL       ACCESS:    1975550  HIT:       2100  MISS:    1973450  HIT %:     0.1063  MISS %:    99.8937   MPKI: 9.86725
LLC LOAD      NON_SPEC    ACCESS:      17093  HIT:         28  MISS:      17065  HIT %:    0.16381  MISS %:    99.8362   MPKI: 0.085325
LLC LOAD      SPEC        ACCESS:    1958457  HIT:       2072  MISS:    1956385  HIT %:   0.105798  MISS %:    99.8942   MPKI: 9.78192
LLC RFO       NON_SPEC    ACCESS:    5953888  HIT:      77167  MISS:    5876721  HIT %:    1.29608  MISS %:    98.7039   MPKI: 29.3836
LLC WRITEBACK NON_SPEC    ACCESS:    5953622  HIT:    5953290  MISS:        332  HIT %:    99.9944  MISS %: 0.00557644   MPKI: 0.00166
LLC CLEAN_EVICTION NON_SPEC    ACCESS:    1945115  HIT:     178117  MISS:    1766998  HIT %:    9.15714  MISS %:    90.8429   MPKI: 8.83499
LLC COMMIT LOAD NON_SPEC    ACCESS:     175349  HIT:          4  MISS:     175345  HIT %: 0.00228116  MISS %:    99.9977   MPKI: 0.876725
LLC LOAD TRANSLATION NON_SPEC    ACCESS:      15452  HIT:          0  MISS:      15452  HIT %:          0  MISS %:        100   MPKI: 0.07726
LLC PREFETCH  REQUESTED:          0  ISSUED:          0  USEFUL:          0  USELESS:          0
LLC USEFUL LOAD PREFETCHES:          0 PREFETCH ISSUED TO LOWER LEVEL:          0  ACCURACY: -nan
LLC TIMELY PREFETCHES:          0 LATE PREFETCHES: 0 DROPPED PREFETCHES: 0
LLC COMMIT LATE PREFETCHES: 0 MISSED OPPORTUNITY: 0 LATE IN PQ: 0 UNCOVERED: 0
LLC COMMIT LATE MSHR PREFETCHES: 0
LLC MPKI TOTAL: 9.86725 MSHR LATE: 0 PQ LATE: 0 COMMIT LATE: 0 MISSED OPPORTUNITY: 0 UNCOVERED: 0
LLC PREFETCHES SAME FILL-ORIGIN LEVEL: 0 DIFFERENT FILL-ORIGIN LEVEL: 0
LLC AVERAGE MISS LATENCY: 355.55 cycles
LLC AVERAGE MISS LATENCY LOAD: 385.6 cycles
LLC AVERAGE MISS LATENCY PREFETCH: -nan cycles
LLC AVERAGE MSHR OCCUPANCY: 7.86053
LLC MSHR FULL: 0
LLC RQ	ACCESS:    8120247	FORWARD:          0	MERGED:          0	TO_CACHE:    8120242
LLC WQ	ACCESS:    7898737	FORWARD:          5	MERGED:          0	TO_CACHE:    7898737

LLC Dense regions hint to LLC: 0

RAW hits: 4985249
Loads Generated: 50393892
Loads sent to L1D: 45408643
Stores Generated: 34563858
Stores sent to L1D: 34563860
Major fault: 0 Minor fault: 72955
Allocated PAGES: 72955
Total Load insts: 55379914
Total Non-spec loads: 2250534
Percentage of speculative loads: 95.9362

LeapFrogging counter: 13667124
Commit hits: 11704413 miss: 31873035
Commit hit %: 26.8589 miss %: 73.1411
Commits not translated: 0
Loads retired: 2018014
Stores retired: 34563860
Cache fills: 2018014
L1D response latency: 453.435 cycles
Load retirement latency: 752.505 cycles
OOO test counter: 0
Discarded buffer inserts: 11704413 hits: 200498 hit %: 1.71301

DRAM Statistics
 CHANNEL 0
 RQ ROW_BUFFER_HIT:     418092  ROW_BUFFER_MISS:    7622876
 DBUS_CONGESTED:         17
 WQ ROW_BUFFER_HIT:    1891426  ROW_BUFFER_MISS:    5928352  FULL:      58353

 AVG_CONGESTED_CYCLE: 6
 All warmup complete: 2
Channel 0 Bank busy for read cycles: 0
Channel 0 Bank busy for write cycles: 0
Channel 0
Rank 0
0banks busy for read cycles: 30231284
0banks busy for write cycles: 27343
1banks busy for read cycles: 32452438
1banks busy for write cycles: 3303125
2banks busy for read cycles: 14225135
2banks busy for write cycles: 2737096
3banks busy for read cycles: 13396989
3banks busy for write cycles: 2530579
4banks busy for read cycles: 58800845
4banks busy for write cycles: 2482726
5banks busy for read cycles: 51256555
5banks busy for write cycles: 2799203
6banks busy for read cycles: 38689510
6banks busy for write cycles: 3030715
7banks busy for read cycles: 33292285
7banks busy for write cycles: 11523051
8banks busy for read cycles: 26707557
8banks busy for write cycles: 143331262

CPU 0 Branch Prediction Accuracy: 97.656% MPKI: 0.36593 Average ROB Occupancy at Mispredict: 274.348
Branch types
NOT_BRANCH: 196877389 98.4387%
BRANCH_DIRECT_JUMP: 397756 0.198878%
BRANCH_INDIRECT: 0 0%
BRANCH_CONDITIONAL: 2724544 1.36227%
BRANCH_DIRECT_CALL: 0 0%
BRANCH_INDIRECT_CALL: 0 0%
BRANCH_RETURN: 0 0%
BRANCH_OTHER: 0 0%

DRAM PAGES: 1048576
Allocated PAGES: 72955
