
*** ChampSim Multicore Out-of-Order Simulator ***

Warmup Instructions: 50000000
Simulation Instructions: 200000000
Number of CPUs: 1
LLC sets: 2048
LLC ways: 16
L0D sets: 16
L0D ways: 2
ROB size: 352
LQ size: 128
SQ size: 72
Secure Berti: OFF
Berti: OFF
Berti Fill: OFF
On commit prefetching: OFF
Hit-based filter: ON
Time-guarding: ON
Free-slotting: ON
Leap-frogging: ON
Train prefetcher on L0D bypass: OFF
No translation penalty for prefetchers: OFF
Prefetch to L0D only: OFF
Prefetch to L1D only: OFF
Clean evictions: ON
Commit loads: ON
Commit write: ON
Fill commit loads to L2C, LLC: ON
DRAM IO FREQUENCY: 6400
ROB SIZE: 352
Off-chip DRAM Size: 4096 MB Channels: 1 Width: 64-bit Data Rate: 6400 MT/s
CPU 0 runs /home/sumon/secure_berti/GhostMinion/../../traces/spec/619.lbm_s-2677B.champsimtrace.xz
.xz
BTB has LRU replacement policy
ITLB has LRU replacement policy
DTLB has LRU replacement policy
STLB has LRU replacement policy
L1I has LRU replacement policy
L0D has LRU replacement policy
L1D has LRU replacement policy
L2C has LRU replacement policy
LLC has LRU replacement policy
Heartbeat CPU 0 instructions: 10000001 cycles: 3060230 heartbeat IPC: 3.26773 cumulative IPC: 3.26773 (Simulation time: 0 hr 0 min 33 sec) 
Heartbeat CPU 0 instructions: 20000003 cycles: 6109102 heartbeat IPC: 3.2799 cumulative IPC: 3.2738 (Simulation time: 0 hr 1 min 5 sec) 
Heartbeat CPU 0 instructions: 30000000 cycles: 9165800 heartbeat IPC: 3.2715 cumulative IPC: 3.27304 (Simulation time: 0 hr 1 min 37 sec) 
Heartbeat CPU 0 instructions: 40000000 cycles: 12220765 heartbeat IPC: 3.27336 cumulative IPC: 3.27312 (Simulation time: 0 hr 2 min 10 sec) 
Heartbeat CPU 0 instructions: 50000003 cycles: 15282162 heartbeat IPC: 3.26648 cumulative IPC: 3.27179 (Simulation time: 0 hr 2 min 42 sec) 

Warmup complete CPU 0 instructions: 50000003 cycles: 15282162 (Simulation time: 0 hr 2 min 42 sec) 

Heartbeat CPU 0 instructions: 60000001 cycles: 43929130 heartbeat IPC: 0.349077 cumulative IPC: 0.349077 (Simulation time: 0 hr 3 min 42 sec) 
Heartbeat CPU 0 instructions: 70000002 cycles: 72353802 heartbeat IPC: 0.351807 cumulative IPC: 0.350437 (Simulation time: 0 hr 4 min 41 sec) 
Heartbeat CPU 0 instructions: 80000001 cycles: 100606121 heartbeat IPC: 0.353953 cumulative IPC: 0.351601 (Simulation time: 0 hr 5 min 40 sec) 
Heartbeat CPU 0 instructions: 90000000 cycles: 129593729 heartbeat IPC: 0.344975 cumulative IPC: 0.349921 (Simulation time: 0 hr 6 min 41 sec) 
Heartbeat CPU 0 instructions: 100000000 cycles: 158261132 heartbeat IPC: 0.348828 cumulative IPC: 0.349702 (Simulation time: 0 hr 7 min 39 sec) 
Heartbeat CPU 0 instructions: 110000000 cycles: 187279380 heartbeat IPC: 0.344611 cumulative IPC: 0.348843 (Simulation time: 0 hr 8 min 39 sec) 
Heartbeat CPU 0 instructions: 120000000 cycles: 215942057 heartbeat IPC: 0.348886 cumulative IPC: 0.348849 (Simulation time: 0 hr 9 min 39 sec) 
Heartbeat CPU 0 instructions: 130000001 cycles: 244331517 heartbeat IPC: 0.352243 cumulative IPC: 0.34927 (Simulation time: 0 hr 10 min 38 sec) 
Heartbeat CPU 0 instructions: 140000001 cycles: 273091354 heartbeat IPC: 0.347707 cumulative IPC: 0.349095 (Simulation time: 0 hr 11 min 38 sec) 
Heartbeat CPU 0 instructions: 150000002 cycles: 301949629 heartbeat IPC: 0.346521 cumulative IPC: 0.348836 (Simulation time: 0 hr 12 min 36 sec) 
Heartbeat CPU 0 instructions: 160000002 cycles: 330206051 heartbeat IPC: 0.353902 cumulative IPC: 0.349291 (Simulation time: 0 hr 13 min 34 sec) 
Heartbeat CPU 0 instructions: 170000000 cycles: 358312954 heartbeat IPC: 0.355784 cumulative IPC: 0.349823 (Simulation time: 0 hr 14 min 32 sec) 
Heartbeat CPU 0 instructions: 180000000 cycles: 385836919 heartbeat IPC: 0.36332 cumulative IPC: 0.350825 (Simulation time: 0 hr 15 min 29 sec) 
Heartbeat CPU 0 instructions: 190000001 cycles: 414397629 heartbeat IPC: 0.350131 cumulative IPC: 0.350776 (Simulation time: 0 hr 16 min 26 sec) 
Heartbeat CPU 0 instructions: 200000003 cycles: 442453965 heartbeat IPC: 0.356426 cumulative IPC: 0.351147 (Simulation time: 0 hr 17 min 21 sec) 
Heartbeat CPU 0 instructions: 210000000 cycles: 470466959 heartbeat IPC: 0.356977 cumulative IPC: 0.351506 (Simulation time: 0 hr 18 min 16 sec) 
Heartbeat CPU 0 instructions: 220000000 cycles: 499439757 heartbeat IPC: 0.345151 cumulative IPC: 0.351125 (Simulation time: 0 hr 19 min 12 sec) 
Heartbeat CPU 0 instructions: 230000000 cycles: 528681187 heartbeat IPC: 0.341981 cumulative IPC: 0.350604 (Simulation time: 0 hr 20 min 8 sec) 
Heartbeat CPU 0 instructions: 240000002 cycles: 559122998 heartbeat IPC: 0.328496 cumulative IPC: 0.349367 (Simulation time: 0 hr 21 min 4 sec) 
Heartbeat CPU 0 instructions: 250000003 cycles: 588871700 heartbeat IPC: 0.336149 cumulative IPC: 0.348681 (Simulation time: 0 hr 22 min 0 sec) 
Finished CPU 0 instructions: 200000000 cycles: 573589538 cumulative IPC: 0.348681 (Simulation time: 0 hr 22 min 0 sec) 
 Instruction ID: 250000377

ChampSim completed all CPUs

Region of Interest Statistics

CPU 0 cumulative IPC: 0.348681 instructions: 200000000 cycles: 573589538
ITLB SPEC fills:          0  NON-SPEC fills:          0
ITLB Test counter :          0
ITLB Leapfrog:          0
ITLB MSHR merge:          0
ITLB TOTAL     ACCESS:   27156554  HIT:   27156554  MISS:          0  HIT %:        100  MISS %:          0   MPKI: 0
ITLB LOAD TRANSLATION NON_SPEC    ACCESS:   27156554  HIT:   27156554  MISS:          0  HIT %:        100  MISS %:          0   MPKI: 0
ITLB PREFETCH  REQUESTED:          0  ISSUED:          0  USEFUL:          0  USELESS:          0
ITLB USEFUL LOAD PREFETCHES:          0 PREFETCH ISSUED TO LOWER LEVEL:          0  ACCURACY: -nan
ITLB TIMELY PREFETCHES:          0 LATE PREFETCHES: 0 DROPPED PREFETCHES: 0
ITLB COMMIT LATE PREFETCHES: 0 MISSED OPPORTUNITY: 0 LATE IN PQ: 0 UNCOVERED: 0
ITLB COMMIT LATE MSHR PREFETCHES: 0
ITLB MPKI TOTAL: 0 MSHR LATE: 0 PQ LATE: 0 COMMIT LATE: 0 MISSED OPPORTUNITY: 0 UNCOVERED: 0
ITLB PREFETCHES SAME FILL-ORIGIN LEVEL: 0 DIFFERENT FILL-ORIGIN LEVEL: 0
ITLB AVERAGE MISS LATENCY: -nan cycles
ITLB AVERAGE MISS LATENCY LOAD: -nan cycles
ITLB AVERAGE MISS LATENCY PREFETCH: -nan cycles
ITLB AVERAGE MSHR OCCUPANCY: 0
ITLB MSHR FULL: 0
ITLB RQ	ACCESS:   34981360	FORWARD:          0	MERGED:    7824807	TO_CACHE:   27156553

DTLB SPEC fills:          0  NON-SPEC fills:          0
DTLB Test counter :          0
DTLB Leapfrog:          0
DTLB MSHR merge:          0
DTLB TOTAL     ACCESS:   38824486  HIT:   38548439  MISS:     276047  HIT %:     99.289  MISS %:   0.711013   MPKI: 1.38024
DTLB LOAD TRANSLATION NON_SPEC    ACCESS:   38824486  HIT:   38548439  MISS:     276047  HIT %:     99.289  MISS %:   0.711013   MPKI: 1.38024
DTLB PREFETCH  REQUESTED:          0  ISSUED:          0  USEFUL:          0  USELESS:          0
DTLB USEFUL LOAD PREFETCHES:          0 PREFETCH ISSUED TO LOWER LEVEL:          0  ACCURACY: -nan
DTLB TIMELY PREFETCHES:          0 LATE PREFETCHES: 0 DROPPED PREFETCHES: 0
DTLB COMMIT LATE PREFETCHES: 0 MISSED OPPORTUNITY: 0 LATE IN PQ: 0 UNCOVERED: 0
DTLB COMMIT LATE MSHR PREFETCHES: 0
DTLB MPKI TOTAL: 0 MSHR LATE: 0 PQ LATE: 0 COMMIT LATE: 0 MISSED OPPORTUNITY: 0 UNCOVERED: 0
DTLB PREFETCHES SAME FILL-ORIGIN LEVEL: 0 DIFFERENT FILL-ORIGIN LEVEL: 0
DTLB AVERAGE MISS LATENCY: 131.12 cycles
DTLB AVERAGE MISS LATENCY LOAD: -nan cycles
DTLB AVERAGE MISS LATENCY PREFETCH: -nan cycles
DTLB AVERAGE MSHR OCCUPANCY: 0.086995
DTLB MSHR FULL: 0
DTLB RQ	ACCESS:   61658450	FORWARD:          0	MERGED:   22699462	TO_CACHE:   38958988

STLB SPEC fills:          0  NON-SPEC fills:          0
STLB Test counter :          0
STLB Leapfrog:          0
STLB MSHR merge:          0
STLB TOTAL     ACCESS:     276047  HIT:     126263  MISS:     149784  HIT %:    45.7397  MISS %:    54.2603   MPKI: 0.74892
STLB LOAD TRANSLATION NON_SPEC    ACCESS:     276047  HIT:     126263  MISS:     149784  HIT %:    45.7397  MISS %:    54.2603   MPKI: 0.74892
STLB PREFETCH  REQUESTED:          0  ISSUED:          0  USEFUL:          0  USELESS:          0
STLB USEFUL LOAD PREFETCHES:          0 PREFETCH ISSUED TO LOWER LEVEL:          0  ACCURACY: -nan
STLB TIMELY PREFETCHES:          0 LATE PREFETCHES: 0 DROPPED PREFETCHES: 0
STLB COMMIT LATE PREFETCHES: 0 MISSED OPPORTUNITY: 0 LATE IN PQ: 0 UNCOVERED: 0
STLB COMMIT LATE MSHR PREFETCHES: 0
STLB MPKI TOTAL: 0 MSHR LATE: 0 PQ LATE: 0 COMMIT LATE: 0 MISSED OPPORTUNITY: 0 UNCOVERED: 0
STLB PREFETCHES SAME FILL-ORIGIN LEVEL: 0 DIFFERENT FILL-ORIGIN LEVEL: 0
STLB AVERAGE MISS LATENCY: 224.927 cycles
STLB AVERAGE MISS LATENCY LOAD: -nan cycles
STLB AVERAGE MISS LATENCY PREFETCH: -nan cycles
STLB AVERAGE MSHR OCCUPANCY: 0.160049
STLB MSHR FULL: 0
STLB RQ	ACCESS:     276047	FORWARD:          0	MERGED:          0	TO_CACHE:     276047

STLB Hit, L1D data hit: 0
STLB Hit, L2C data hit: 0
STLB Hit, LLC data hit: 0
STLB Hit, LLC data miss: 0
STLB STLB hints to L2: 0
L0D SPEC fills:   11895689  NON-SPEC fills:          0
L0D TimeGuard Request with older TS:     236413 Restricted eviction:      53400 read:    1215358
L0D Test counter :          0
L0D Leapfrog:          0
L0D MSHR merge:    4865002
L0D TOTAL     ACCESS:   19848515  HIT:    6694416  MISS:   13154099  HIT %:    33.7275  MISS %:    66.2725   MPKI: 65.7705
L0D LOAD      TOTAL       ACCESS:   19848515  HIT:    6694416  MISS:   13154099  HIT %:    33.7275  MISS %:    66.2725   MPKI: 65.7705
L0D LOAD      NON_SPEC    ACCESS:    1706254  HIT:     501244  MISS:    1205010  HIT %:    29.3769  MISS %:    70.6231   MPKI: 6.02505
L0D LOAD      SPEC        ACCESS:   18142261  HIT:    6193172  MISS:   11949089  HIT %:    34.1367  MISS %:    65.8633   MPKI: 59.7454
L0D PREFETCH  REQUESTED:          0  ISSUED:          0  USEFUL:          0  USELESS:          0
L0D USEFUL LOAD PREFETCHES:          0 PREFETCH ISSUED TO LOWER LEVEL:          0  ACCURACY: -nan
L0D TIMELY PREFETCHES:          0 LATE PREFETCHES: 0 DROPPED PREFETCHES: 0
L0D COMMIT LATE PREFETCHES: 0 MISSED OPPORTUNITY: 0 LATE IN PQ: 0 UNCOVERED: 0
L0D COMMIT LATE MSHR PREFETCHES: 0
L0D MPKI TOTAL: 90.0955 MSHR LATE: 0 PQ LATE: 0 COMMIT LATE: 0 MISSED OPPORTUNITY: 0 UNCOVERED: 0
L0D PREFETCHES SAME FILL-ORIGIN LEVEL: 0 DIFFERENT FILL-ORIGIN LEVEL: 0
L0D AVERAGE MISS LATENCY: 127.708 cycles
L0D AVERAGE MISS LATENCY LOAD: 127.708 cycles
L0D AVERAGE MISS LATENCY PREFETCH: -nan cycles
L0D AVERAGE MSHR OCCUPANCY: 2.15447
L0D MSHR FULL: 0.0786773
L0D RQ	ACCESS:   47494780	FORWARD:          0	MERGED:   22781267	TO_CACHE:   24713513
L0D WQ	ACCESS:   36944937	FORWARD:          0	MERGED:          0	TO_CACHE:   36944937

L1D SPEC fills:          0  NON-SPEC fills:      21478
L1D Test counter :    2387179
L1D Leapfrog:          0
L1D MSHR merge:       5701
L1D TOTAL     ACCESS:   55025760  HIT:   36465934  MISS:   18559826  HIT %:    66.2707  MISS %:    33.7293   MPKI: 92.7991
L1D LOAD      TOTAL       ACCESS:   13148397  HIT:   10677993  MISS:    2470404  HIT %:    81.2114  MISS %:    18.7886   MPKI: 12.352
L1D LOAD      NON_SPEC    ACCESS:    1202434  HIT:    1180956  MISS:      21478  HIT %:    98.2138  MISS %:    1.78621   MPKI: 0.10739
L1D LOAD      SPEC        ACCESS:   11945963  HIT:    9497037  MISS:    2448926  HIT %:       79.5  MISS %:       20.5   MPKI: 12.2446
L1D RFO       NON_SPEC    ACCESS:   36765424  HIT:   23348388  MISS:   13417036  HIT %:    63.5064  MISS %:    36.4936   MPKI: 67.0852
L1D COMMIT LOAD NON_SPEC    ACCESS:    2656599  HIT:    2398438  MISS:     258161  HIT %:    90.2823  MISS %:    9.71773   MPKI: 1.2908
L1D COMMIT WRITE NON_SPEC    ACCESS:    2455340  HIT:      41115  MISS:    2414225  HIT %:    1.67451  MISS %:    98.3255   MPKI: 12.0711
L1D PREFETCH  REQUESTED:          0  ISSUED:          0  USEFUL:          0  USELESS:          0
L1D USEFUL LOAD PREFETCHES:          0 PREFETCH ISSUED TO LOWER LEVEL:          0  ACCURACY: -nan
L1D TIMELY PREFETCHES:          0 LATE PREFETCHES: 0 DROPPED PREFETCHES: 0
L1D COMMIT LATE PREFETCHES: 0 MISSED OPPORTUNITY: 0 LATE IN PQ: 0 UNCOVERED: 0
L1D COMMIT LATE MSHR PREFETCHES: 0
L1D MPKI TOTAL: 12.3805 MSHR LATE: 0 PQ LATE: 0 COMMIT LATE: 0 MISSED OPPORTUNITY: 0 UNCOVERED: 0
L1D PREFETCHES SAME FILL-ORIGIN LEVEL: 0 DIFFERENT FILL-ORIGIN LEVEL: 0
L1D AVERAGE MISS LATENCY: 278.938 cycles
L1D AVERAGE MISS LATENCY LOAD: 480 cycles
L1D AVERAGE MISS LATENCY PREFETCH: -nan cycles
L1D AVERAGE MSHR OCCUPANCY: 15.2831
L1D MSHR FULL: 0.93642
L1D RQ	ACCESS:   27085895	FORWARD:          0	MERGED:   11274858	TO_CACHE:   15811036
L1D WQ	ACCESS:   39400268	FORWARD:          1	MERGED:      62038	TO_CACHE:   39338230

L1D UNIQUE REGIONS ACCESSED: 0
L1D REGIONS CONFLICTS: 0
L1D Cross Page Prefetch Requests: 0
L1D Same Page Prefetch Requests: 0
L1D ROI Sum of L1D PQ occupancy: 0
L1D PREFETCHES PUSHED FROM L2C: 0
L1I SPEC fills:          0  NON-SPEC fills:          0
L1I Test counter :          0
L1I Leapfrog:          0
L1I MSHR merge:          0
L1I TOTAL     ACCESS:   34981360  HIT:   34981360  MISS:          0  HIT %:        100  MISS %:          0   MPKI: 0
L1I LOAD      TOTAL       ACCESS:   34981360  HIT:   34981360  MISS:          0  HIT %:        100  MISS %:          0   MPKI: 0
L1I LOAD      NON_SPEC    ACCESS:   34981360  HIT:   34981360  MISS:          0  HIT %:        100  MISS %:          0   MPKI: 0
L1I PREFETCH  REQUESTED:          0  ISSUED:          0  USEFUL:          0  USELESS:          0
L1I USEFUL LOAD PREFETCHES:          0 PREFETCH ISSUED TO LOWER LEVEL:          0  ACCURACY: -nan
L1I TIMELY PREFETCHES:          0 LATE PREFETCHES: 0 DROPPED PREFETCHES: 0
L1I COMMIT LATE PREFETCHES: 0 MISSED OPPORTUNITY: 0 LATE IN PQ: 0 UNCOVERED: 0
L1I COMMIT LATE MSHR PREFETCHES: 0
L1I MPKI TOTAL: 0 MSHR LATE: 0 PQ LATE: 0 COMMIT LATE: 0 MISSED OPPORTUNITY: 0 UNCOVERED: 0
L1I PREFETCHES SAME FILL-ORIGIN LEVEL: 0 DIFFERENT FILL-ORIGIN LEVEL: 0
L1I AVERAGE MISS LATENCY: -nan cycles
L1I AVERAGE MISS LATENCY LOAD: -nan cycles
L1I AVERAGE MISS LATENCY PREFETCH: -nan cycles
L1I AVERAGE MSHR OCCUPANCY: 0
L1I MSHR FULL: 0
L1I RQ	ACCESS:   51130129	FORWARD:          0	MERGED:   16148769	TO_CACHE:   34981360

BTB SPEC fills:          0  NON-SPEC fills:          0
BTB Test counter :          0
BTB Leapfrog:          0
BTB MSHR merge:          0
BTB TOTAL     ACCESS:    3609719  HIT:    3609713  MISS:          6  HIT %:    99.9998  MISS %: 0.000166218   MPKI: 3e-05
BTB BRANCH_DIRECT_JUMP	ACCESS:     590927  HIT:     590926  MISS:          1
BTB BRANCH_INDIRECT	ACCESS:          0  HIT:          0  MISS:          0
BTB BRANCH_CONDITIONAL	ACCESS:    3018792  HIT:    3018787  MISS:          5
BTB BRANCH_DIRECT_CALL	ACCESS:          0  HIT:          0  MISS:          0
BTB BRANCH_INDIRECT_CALL	ACCESS:          0  HIT:          0  MISS:          0
BTB BRANCH_RETURN	ACCESS:          0  HIT:          0  MISS:          0
BTB BRANCH_OTHER ACCESS:          0  HIT:          0  MISS:          0

L2C SPEC fills:          0  NON-SPEC fills:      20566
L2C Test counter :    2378617
L2C Leapfrog:          0
L2C MSHR merge:          0
L2C TOTAL     ACCESS:   32698417  HIT:   20600203  MISS:   12098214  HIT %:    63.0006  MISS %:    36.9994   MPKI: 60.4911
L2C LOAD      TOTAL       ACCESS:    2470230  HIT:      47302  MISS:    2422928  HIT %:    1.91488  MISS %:    98.0851   MPKI: 12.1146
L2C LOAD      NON_SPEC    ACCESS:      21477  HIT:        911  MISS:      20566  HIT %:    4.24175  MISS %:    95.7583   MPKI: 0.10283
L2C LOAD      SPEC        ACCESS:    2448753  HIT:      46391  MISS:    2402362  HIT %:    1.89447  MISS %:    98.1055   MPKI: 12.0118
L2C RFO       NON_SPEC    ACCESS:   13417029  HIT:    6138506  MISS:    7278523  HIT %:    45.7516  MISS %:    54.2484   MPKI: 36.3926
L2C WRITEBACK NON_SPEC    ACCESS:   13417044  HIT:   13416525  MISS:        519  HIT %:    99.9961  MISS %: 0.00386821   MPKI: 0.002595
L2C CLEAN_EVICTION NON_SPEC    ACCESS:    2387179  HIT:     267184  MISS:    2119995  HIT %:    11.1925  MISS %:    88.8075   MPKI: 10.6
L2C COMMIT LOAD NON_SPEC    ACCESS:     258161  HIT:        815  MISS:     257346  HIT %:   0.315694  MISS %:    99.6843   MPKI: 1.28673
L2C LOAD TRANSLATION NON_SPEC    ACCESS:     748774  HIT:     729871  MISS:      18903  HIT %:    97.4755  MISS %:    2.52453   MPKI: 0.094515
L2C PREFETCH  REQUESTED:          0  ISSUED:          0  USEFUL:          0  USELESS:          0
L2C USEFUL LOAD PREFETCHES:          0 PREFETCH ISSUED TO LOWER LEVEL:          0  ACCURACY: -nan
L2C TIMELY PREFETCHES:          0 LATE PREFETCHES: 0 DROPPED PREFETCHES: 0
L2C COMMIT LATE PREFETCHES: 0 MISSED OPPORTUNITY: 0 LATE IN PQ: 0 UNCOVERED: 0
L2C COMMIT LATE MSHR PREFETCHES: 0
L2C MPKI TOTAL: 12.1146 MSHR LATE: 0 PQ LATE: 0 COMMIT LATE: 0 MISSED OPPORTUNITY: 0 UNCOVERED: 0
L2C PREFETCHES SAME FILL-ORIGIN LEVEL: 0 DIFFERENT FILL-ORIGIN LEVEL: 0
L2C AVERAGE MISS LATENCY: 398.058 cycles
L2C AVERAGE MISS LATENCY LOAD: 422.195 cycles
L2C AVERAGE MISS LATENCY PREFETCH: -nan cycles
L2C AVERAGE MSHR OCCUPANCY: 9.1252
L2C MSHR FULL: 0
L2C RQ	ACCESS:   16894376	FORWARD:          0	MERGED:          0	TO_CACHE:   16894195
L2C WQ	ACCESS:   15804223	FORWARD:        181	MERGED:          0	TO_CACHE:   15804223

L2C Instructions Evicting Data 0
L2C Translations Evicting Data 18815
L2C Data Evicting Data 7542055
L2C Instructions Evicting Instructions 0
L2C Translations Evicting Instructions 0
L2C Data Evicting Instructions 0
L2C Instructions Evicting Translations 0
L2C Translations Evicting Translations 88
L2C Data Evicting Translations 14380
L2C Dense regions hint from L2: 0
PSCL5 SPEC fills:          0  NON-SPEC fills:          0
PSCL5 Test counter :          0
PSCL5 Leapfrog:          0
PSCL5 MSHR merge:          0
PSCL5 TOTAL     ACCESS:          0  HIT:          0  MISS:          0  HIT %:       -nan  MISS %:       -nan   MPKI: 0
PSCL5 PREFETCH  REQUESTED:          0  ISSUED:          0  USEFUL:          0  USELESS:          0
PSCL5 USEFUL LOAD PREFETCHES:          0 PREFETCH ISSUED TO LOWER LEVEL:          0  ACCURACY: -nan
PSCL5 TIMELY PREFETCHES:          0 LATE PREFETCHES: 0 DROPPED PREFETCHES: 0
PSCL5 COMMIT LATE PREFETCHES: 0 MISSED OPPORTUNITY: 0 LATE IN PQ: 0 UNCOVERED: 0
PSCL5 COMMIT LATE MSHR PREFETCHES: 0
PSCL5 MPKI TOTAL: 0 MSHR LATE: 0 PQ LATE: 0 COMMIT LATE: 0 MISSED OPPORTUNITY: 0 UNCOVERED: 0
PSCL5 PREFETCHES SAME FILL-ORIGIN LEVEL: 0 DIFFERENT FILL-ORIGIN LEVEL: 0

PSCL4 SPEC fills:          0  NON-SPEC fills:          0
PSCL4 Test counter :          0
PSCL4 Leapfrog:          0
PSCL4 MSHR merge:          0
PSCL4 TOTAL     ACCESS:          0  HIT:          0  MISS:          0  HIT %:       -nan  MISS %:       -nan   MPKI: 0
PSCL4 PREFETCH  REQUESTED:          0  ISSUED:          0  USEFUL:          0  USELESS:          0
PSCL4 USEFUL LOAD PREFETCHES:          0 PREFETCH ISSUED TO LOWER LEVEL:          0  ACCURACY: -nan
PSCL4 TIMELY PREFETCHES:          0 LATE PREFETCHES: 0 DROPPED PREFETCHES: 0
PSCL4 COMMIT LATE PREFETCHES: 0 MISSED OPPORTUNITY: 0 LATE IN PQ: 0 UNCOVERED: 0
PSCL4 COMMIT LATE MSHR PREFETCHES: 0
PSCL4 MPKI TOTAL: 0 MSHR LATE: 0 PQ LATE: 0 COMMIT LATE: 0 MISSED OPPORTUNITY: 0 UNCOVERED: 0
PSCL4 PREFETCHES SAME FILL-ORIGIN LEVEL: 0 DIFFERENT FILL-ORIGIN LEVEL: 0

PSCL3 SPEC fills:          0  NON-SPEC fills:          0
PSCL3 Test counter :          0
PSCL3 Leapfrog:          0
PSCL3 MSHR merge:          0
PSCL3 TOTAL     ACCESS:          0  HIT:          0  MISS:          0  HIT %:       -nan  MISS %:       -nan   MPKI: 0
PSCL3 PREFETCH  REQUESTED:          0  ISSUED:          0  USEFUL:          0  USELESS:          0
PSCL3 USEFUL LOAD PREFETCHES:          0 PREFETCH ISSUED TO LOWER LEVEL:          0  ACCURACY: -nan
PSCL3 TIMELY PREFETCHES:          0 LATE PREFETCHES: 0 DROPPED PREFETCHES: 0
PSCL3 COMMIT LATE PREFETCHES: 0 MISSED OPPORTUNITY: 0 LATE IN PQ: 0 UNCOVERED: 0
PSCL3 COMMIT LATE MSHR PREFETCHES: 0
PSCL3 MPKI TOTAL: 0 MSHR LATE: 0 PQ LATE: 0 COMMIT LATE: 0 MISSED OPPORTUNITY: 0 UNCOVERED: 0
PSCL3 PREFETCHES SAME FILL-ORIGIN LEVEL: 0 DIFFERENT FILL-ORIGIN LEVEL: 0

PSCL2 SPEC fills:          0  NON-SPEC fills:          0
PSCL2 Test counter :          0
PSCL2 Leapfrog:          0
PSCL2 MSHR merge:          0
PSCL2 TOTAL     ACCESS:          0  HIT:          0  MISS:          0  HIT %:       -nan  MISS %:       -nan   MPKI: 0
PSCL2 PREFETCH  REQUESTED:          0  ISSUED:          0  USEFUL:          0  USELESS:          0
PSCL2 USEFUL LOAD PREFETCHES:          0 PREFETCH ISSUED TO LOWER LEVEL:          0  ACCURACY: -nan
PSCL2 TIMELY PREFETCHES:          0 LATE PREFETCHES: 0 DROPPED PREFETCHES: 0
PSCL2 COMMIT LATE PREFETCHES: 0 MISSED OPPORTUNITY: 0 LATE IN PQ: 0 UNCOVERED: 0
PSCL2 COMMIT LATE MSHR PREFETCHES: 0
PSCL2 MPKI TOTAL: 0 MSHR LATE: 0 PQ LATE: 0 COMMIT LATE: 0 MISSED OPPORTUNITY: 0 UNCOVERED: 0
PSCL2 PREFETCHES SAME FILL-ORIGIN LEVEL: 0 DIFFERENT FILL-ORIGIN LEVEL: 0

LLC SPEC fills:          0  NON-SPEC fills:      20491
LLC Test counter :    2378371
LLC Leapfrog:          0
LLC MSHR merge:          0
LLC TOTAL     ACCESS:   19634608  HIT:    7631730  MISS:   12002878  HIT %:    38.8688  MISS %:    61.1312   MPKI: 60.0144
LLC LOAD      TOTAL       ACCESS:    2422925  HIT:       2144  MISS:    2420781  HIT %:  0.0884881  MISS %:    99.9115   MPKI: 12.1039
LLC LOAD      NON_SPEC    ACCESS:      20566  HIT:         75  MISS:      20491  HIT %:    0.36468  MISS %:    99.6353   MPKI: 0.102455
LLC LOAD      SPEC        ACCESS:    2402359  HIT:       2069  MISS:    2400290  HIT %:  0.0861237  MISS %:    99.9139   MPKI: 12.0015
LLC RFO       NON_SPEC    ACCESS:    7278521  HIT:      91141  MISS:    7187380  HIT %:    1.25219  MISS %:    98.7478   MPKI: 35.9369
LLC WRITEBACK NON_SPEC    ACCESS:    7278296  HIT:    7277909  MISS:        387  HIT %:    99.9947  MISS %: 0.00531718   MPKI: 0.001935
LLC CLEAN_EVICTION NON_SPEC    ACCESS:    2378617  HIT:     260529  MISS:    2118088  HIT %:     10.953  MISS %:     89.047   MPKI: 10.5904
LLC COMMIT LOAD NON_SPEC    ACCESS:     257346  HIT:          7  MISS:     257339  HIT %: 0.00272007  MISS %:    99.9973   MPKI: 1.28669
LLC LOAD TRANSLATION NON_SPEC    ACCESS:      18903  HIT:          0  MISS:      18903  HIT %:          0  MISS %:        100   MPKI: 0.094515
LLC PREFETCH  REQUESTED:          0  ISSUED:          0  USEFUL:          0  USELESS:          0
LLC USEFUL LOAD PREFETCHES:          0 PREFETCH ISSUED TO LOWER LEVEL:          0  ACCURACY: -nan
LLC TIMELY PREFETCHES:          0 LATE PREFETCHES: 0 DROPPED PREFETCHES: 0
LLC COMMIT LATE PREFETCHES: 0 MISSED OPPORTUNITY: 0 LATE IN PQ: 0 UNCOVERED: 0
LLC COMMIT LATE MSHR PREFETCHES: 0
LLC MPKI TOTAL: 12.1039 MSHR LATE: 0 PQ LATE: 0 COMMIT LATE: 0 MISSED OPPORTUNITY: 0 UNCOVERED: 0
LLC PREFETCHES SAME FILL-ORIGIN LEVEL: 0 DIFFERENT FILL-ORIGIN LEVEL: 0
LLC AVERAGE MISS LATENCY: 377.671 cycles
LLC AVERAGE MISS LATENCY LOAD: 401.074 cycles
LLC AVERAGE MISS LATENCY PREFETCH: -nan cycles
LLC AVERAGE MSHR OCCUPANCY: 8.48975
LLC MSHR FULL: 0
LLC RQ	ACCESS:    9977701	FORWARD:          0	MERGED:          0	TO_CACHE:    9977696
LLC WQ	ACCESS:    9656914	FORWARD:          5	MERGED:          0	TO_CACHE:    9656914

LLC Dense regions hint to LLC: 0

RAW hits: 4736694
Loads Generated: 52231474
Loads sent to L1D: 47494780
Stores Generated: 36944939
Stores sent to L1D: 36944937
Major fault: 0 Minor fault: 96650
Allocated PAGES: 96650
Total Load insts: 59031130
Total Non-spec loads: 2123804
Percentage of speculative loads: 96.4022

LeapFrogging counter: 20718554
Commit hits: 11659529 miss: 34081478
Commit hit %: 25.4903 miss %: 74.5097
Commits not translated: 0
Loads retired: 2470404
Stores retired: 36944937
Cache fills: 2470404
L1D response latency: 480 cycles
Load retirement latency: 842.579 cycles
OOO test counter: 0
Discarded buffer inserts: 11659529 hits: 296195 hit %: 2.54037

DRAM Statistics
 CHANNEL 0
 RQ ROW_BUFFER_HIT:     538929  ROW_BUFFER_MISS:    9345474
 DBUS_CONGESTED:         14
 WQ ROW_BUFFER_HIT:    2261309  ROW_BUFFER_MISS:    7302434  FULL:      92920

 AVG_CONGESTED_CYCLE: 6
 All warmup complete: 2
Channel 0 Bank busy for read cycles: 0
Channel 0 Bank busy for write cycles: 0
Channel 0
Rank 0
0banks busy for read cycles: 45951931
0banks busy for write cycles: 41315
1banks busy for read cycles: 32723963
1banks busy for write cycles: 4714655
2banks busy for read cycles: 16339605
2banks busy for write cycles: 3873341
3banks busy for read cycles: 16013043
3banks busy for write cycles: 3557810
4banks busy for read cycles: 57815196
4banks busy for write cycles: 3509645
5banks busy for read cycles: 57446400
5banks busy for write cycles: 3953959
6banks busy for read cycles: 47376788
6banks busy for write cycles: 4370778
7banks busy for read cycles: 49562831
7banks busy for write cycles: 14687925
8banks busy for read cycles: 39150610
8banks busy for write cycles: 172499744

CPU 0 Branch Prediction Accuracy: 97.0951% MPKI: 0.52429 Average ROB Occupancy at Mispredict: 280.198
Branch types
NOT_BRANCH: 196390261 98.1951%
BRANCH_DIRECT_JUMP: 590927 0.295463%
BRANCH_INDIRECT: 0 0%
BRANCH_CONDITIONAL: 3018804 1.5094%
BRANCH_DIRECT_CALL: 0 0%
BRANCH_INDIRECT_CALL: 0 0%
BRANCH_RETURN: 0 0%
BRANCH_OTHER: 0 0%

DRAM PAGES: 1048576
Allocated PAGES: 96650
