
*** ChampSim Multicore Out-of-Order Simulator ***

Warmup Instructions: 50000000
Simulation Instructions: 200000000
Number of CPUs: 1
LLC sets: 2048
LLC ways: 16
L0D sets: 16
L0D ways: 2
ROB size: 352
LQ size: 128
SQ size: 72
Secure Berti: OFF
Berti: OFF
Berti Fill: OFF
On commit prefetching: OFF
Hit-based filter: ON
Time-guarding: ON
Free-slotting: ON
Leap-frogging: ON
Train prefetcher on L0D bypass: OFF
No translation penalty for prefetchers: OFF
Prefetch to L0D only: OFF
Prefetch to L1D only: OFF
Clean evictions: ON
Commit loads: ON
Commit write: ON
Fill commit loads to L2C, LLC: ON
DRAM IO FREQUENCY: 6400
ROB SIZE: 352
Off-chip DRAM Size: 4096 MB Channels: 1 Width: 64-bit Data Rate: 6400 MT/s
CPU 0 runs /home/sumon/secure_berti/GhostMinion/../../traces/spec/620.omnetpp_s-874B.champsimtrace.xz
.xz
BTB has LRU replacement policy
ITLB has LRU replacement policy
DTLB has LRU replacement policy
STLB has LRU replacement policy
L1I has LRU replacement policy
L0D has LRU replacement policy
L1D has LRU replacement policy
L2C has LRU replacement policy
LLC has LRU replacement policy
Heartbeat CPU 0 instructions: 10000001 cycles: 8126292 heartbeat IPC: 1.23057 cumulative IPC: 1.23057 (Simulation time: 0 hr 0 min 45 sec) 
Heartbeat CPU 0 instructions: 20000000 cycles: 16253939 heartbeat IPC: 1.23037 cumulative IPC: 1.23047 (Simulation time: 0 hr 1 min 31 sec) 
Heartbeat CPU 0 instructions: 30000003 cycles: 24361400 heartbeat IPC: 1.23343 cumulative IPC: 1.23146 (Simulation time: 0 hr 2 min 17 sec) 
Heartbeat CPU 0 instructions: 40000000 cycles: 32493811 heartbeat IPC: 1.22965 cumulative IPC: 1.231 (Simulation time: 0 hr 3 min 3 sec) 
Heartbeat CPU 0 instructions: 50000000 cycles: 40632535 heartbeat IPC: 1.22869 cumulative IPC: 1.23054 (Simulation time: 0 hr 3 min 48 sec) 

Warmup complete CPU 0 instructions: 50000004 cycles: 40632536 (Simulation time: 0 hr 3 min 48 sec) 

Heartbeat CPU 0 instructions: 60000001 cycles: 81276659 heartbeat IPC: 0.246038 cumulative IPC: 0.246038 (Simulation time: 0 hr 4 min 42 sec) 
Heartbeat CPU 0 instructions: 70000001 cycles: 121570876 heartbeat IPC: 0.248175 cumulative IPC: 0.247102 (Simulation time: 0 hr 5 min 38 sec) 
Heartbeat CPU 0 instructions: 80000002 cycles: 162084832 heartbeat IPC: 0.246829 cumulative IPC: 0.247011 (Simulation time: 0 hr 6 min 33 sec) 
Heartbeat CPU 0 instructions: 90000002 cycles: 202007352 heartbeat IPC: 0.250485 cumulative IPC: 0.24787 (Simulation time: 0 hr 7 min 29 sec) 
Heartbeat CPU 0 instructions: 100000000 cycles: 242978572 heartbeat IPC: 0.244074 cumulative IPC: 0.247101 (Simulation time: 0 hr 8 min 25 sec) 
Heartbeat CPU 0 instructions: 110000000 cycles: 283115110 heartbeat IPC: 0.24915 cumulative IPC: 0.24744 (Simulation time: 0 hr 9 min 21 sec) 
Heartbeat CPU 0 instructions: 120000000 cycles: 323600854 heartbeat IPC: 0.247001 cumulative IPC: 0.247377 (Simulation time: 0 hr 10 min 18 sec) 
Heartbeat CPU 0 instructions: 130000000 cycles: 364260951 heartbeat IPC: 0.245941 cumulative IPC: 0.247197 (Simulation time: 0 hr 11 min 15 sec) 
Heartbeat CPU 0 instructions: 140000001 cycles: 404719269 heartbeat IPC: 0.247168 cumulative IPC: 0.247194 (Simulation time: 0 hr 12 min 12 sec) 
Heartbeat CPU 0 instructions: 150000002 cycles: 445346875 heartbeat IPC: 0.246138 cumulative IPC: 0.247088 (Simulation time: 0 hr 13 min 9 sec) 
Heartbeat CPU 0 instructions: 160000000 cycles: 486242985 heartbeat IPC: 0.244522 cumulative IPC: 0.246852 (Simulation time: 0 hr 14 min 7 sec) 
Heartbeat CPU 0 instructions: 170000000 cycles: 526448095 heartbeat IPC: 0.248725 cumulative IPC: 0.247007 (Simulation time: 0 hr 15 min 2 sec) 
Heartbeat CPU 0 instructions: 180000000 cycles: 566940585 heartbeat IPC: 0.246959 cumulative IPC: 0.247004 (Simulation time: 0 hr 15 min 54 sec) 
Heartbeat CPU 0 instructions: 190000003 cycles: 607548233 heartbeat IPC: 0.246259 cumulative IPC: 0.24695 (Simulation time: 0 hr 16 min 44 sec) 
Heartbeat CPU 0 instructions: 200000000 cycles: 647984562 heartbeat IPC: 0.247302 cumulative IPC: 0.246974 (Simulation time: 0 hr 17 min 33 sec) 
Heartbeat CPU 0 instructions: 210000000 cycles: 688597304 heartbeat IPC: 0.246228 cumulative IPC: 0.246927 (Simulation time: 0 hr 18 min 19 sec) 
Heartbeat CPU 0 instructions: 220000000 cycles: 728861410 heartbeat IPC: 0.24836 cumulative IPC: 0.247011 (Simulation time: 0 hr 19 min 5 sec) 
Heartbeat CPU 0 instructions: 230000002 cycles: 769065975 heartbeat IPC: 0.248728 cumulative IPC: 0.247106 (Simulation time: 0 hr 19 min 49 sec) 
Heartbeat CPU 0 instructions: 240000001 cycles: 809790236 heartbeat IPC: 0.245554 cumulative IPC: 0.247023 (Simulation time: 0 hr 20 min 34 sec) 
Heartbeat CPU 0 instructions: 250000000 cycles: 850373774 heartbeat IPC: 0.246405 cumulative IPC: 0.246992 (Simulation time: 0 hr 21 min 18 sec) 
Finished CPU 0 instructions: 200000000 cycles: 809741239 cumulative IPC: 0.246992 (Simulation time: 0 hr 21 min 18 sec) 
 Instruction ID: 250000019

ChampSim completed all CPUs

Region of Interest Statistics

CPU 0 cumulative IPC: 0.246992 instructions: 200000000 cycles: 809741239
ITLB SPEC fills:          0  NON-SPEC fills:          0
ITLB Test counter :          0
ITLB Leapfrog:          0
ITLB MSHR merge:          0
ITLB TOTAL     ACCESS:   32902608  HIT:   32585247  MISS:     317361  HIT %:    99.0355  MISS %:   0.964547   MPKI: 1.58681
ITLB LOAD TRANSLATION NON_SPEC    ACCESS:   32902608  HIT:   32585247  MISS:     317361  HIT %:    99.0355  MISS %:   0.964547   MPKI: 1.58681
ITLB PREFETCH  REQUESTED:          0  ISSUED:          0  USEFUL:          0  USELESS:          0
ITLB USEFUL LOAD PREFETCHES:          0 PREFETCH ISSUED TO LOWER LEVEL:          0  ACCURACY: -nan
ITLB TIMELY PREFETCHES:          0 LATE PREFETCHES: 0 DROPPED PREFETCHES: 0
ITLB COMMIT LATE PREFETCHES: 0 MISSED OPPORTUNITY: 0 LATE IN PQ: 0 UNCOVERED: 0
ITLB COMMIT LATE MSHR PREFETCHES: 0
ITLB MPKI TOTAL: 0 MSHR LATE: 0 PQ LATE: 0 COMMIT LATE: 0 MISSED OPPORTUNITY: 0 UNCOVERED: 0
ITLB PREFETCHES SAME FILL-ORIGIN LEVEL: 0 DIFFERENT FILL-ORIGIN LEVEL: 0
ITLB AVERAGE MISS LATENCY: 10.4161 cycles
ITLB AVERAGE MISS LATENCY LOAD: -nan cycles
ITLB AVERAGE MISS LATENCY PREFETCH: -nan cycles
ITLB AVERAGE MSHR OCCUPANCY: 0.00937914
ITLB MSHR FULL: 0
ITLB RQ	ACCESS:   37061562	FORWARD:          0	MERGED:    4062372	TO_CACHE:   32999190

DTLB SPEC fills:          0  NON-SPEC fills:          0
DTLB Test counter :          0
DTLB Leapfrog:          0
DTLB MSHR merge:          0
DTLB TOTAL     ACCESS:   81617011  HIT:   77805228  MISS:    3811783  HIT %:    95.3297  MISS %:    4.67033   MPKI: 19.0589
DTLB LOAD TRANSLATION NON_SPEC    ACCESS:   81617011  HIT:   77805228  MISS:    3811783  HIT %:    95.3297  MISS %:    4.67033   MPKI: 19.0589
DTLB PREFETCH  REQUESTED:          0  ISSUED:          0  USEFUL:          0  USELESS:          0
DTLB USEFUL LOAD PREFETCHES:          0 PREFETCH ISSUED TO LOWER LEVEL:          0  ACCURACY: -nan
DTLB TIMELY PREFETCHES:          0 LATE PREFETCHES: 0 DROPPED PREFETCHES: 0
DTLB COMMIT LATE PREFETCHES: 0 MISSED OPPORTUNITY: 0 LATE IN PQ: 0 UNCOVERED: 0
DTLB COMMIT LATE MSHR PREFETCHES: 0
DTLB MPKI TOTAL: 0 MSHR LATE: 0 PQ LATE: 0 COMMIT LATE: 0 MISSED OPPORTUNITY: 0 UNCOVERED: 0
DTLB PREFETCHES SAME FILL-ORIGIN LEVEL: 0 DIFFERENT FILL-ORIGIN LEVEL: 0
DTLB AVERAGE MISS LATENCY: 36.9094 cycles
DTLB AVERAGE MISS LATENCY LOAD: -nan cycles
DTLB AVERAGE MISS LATENCY PREFETCH: -nan cycles
DTLB AVERAGE MSHR OCCUPANCY: 0.113054
DTLB MSHR FULL: 2.40394e-05
DTLB RQ	ACCESS:   92226983	FORWARD:          0	MERGED:   10529526	TO_CACHE:   81697457

STLB SPEC fills:          0  NON-SPEC fills:          0
STLB Test counter :          0
STLB Leapfrog:          0
STLB MSHR merge:          0
STLB TOTAL     ACCESS:    4129144  HIT:    3274880  MISS:     854264  HIT %:    79.3114  MISS %:    20.6886   MPKI: 4.27132
STLB LOAD TRANSLATION NON_SPEC    ACCESS:    4129144  HIT:    3274880  MISS:     854264  HIT %:    79.3114  MISS %:    20.6886   MPKI: 4.27132
STLB PREFETCH  REQUESTED:          0  ISSUED:          0  USEFUL:          0  USELESS:          0
STLB USEFUL LOAD PREFETCHES:          0 PREFETCH ISSUED TO LOWER LEVEL:          0  ACCURACY: -nan
STLB TIMELY PREFETCHES:          0 LATE PREFETCHES: 0 DROPPED PREFETCHES: 0
STLB COMMIT LATE PREFETCHES: 0 MISSED OPPORTUNITY: 0 LATE IN PQ: 0 UNCOVERED: 0
STLB COMMIT LATE MSHR PREFETCHES: 0
STLB MPKI TOTAL: 0 MSHR LATE: 0 PQ LATE: 0 COMMIT LATE: 0 MISSED OPPORTUNITY: 0 UNCOVERED: 0
STLB PREFETCHES SAME FILL-ORIGIN LEVEL: 0 DIFFERENT FILL-ORIGIN LEVEL: 0
STLB AVERAGE MISS LATENCY: 124.939 cycles
STLB AVERAGE MISS LATENCY LOAD: -nan cycles
STLB AVERAGE MISS LATENCY PREFETCH: -nan cycles
STLB AVERAGE MSHR OCCUPANCY: 0.105823
STLB MSHR FULL: 0
STLB RQ	ACCESS:    4129144	FORWARD:          0	MERGED:          0	TO_CACHE:    4129144

STLB Hit, L1D data hit: 0
STLB Hit, L2C data hit: 0
STLB Hit, LLC data hit: 0
STLB Hit, LLC data miss: 0
STLB STLB hints to L2: 0
L0D SPEC fills:   22980119  NON-SPEC fills:          0
L0D TimeGuard Request with older TS:     302482 Restricted eviction:     190419 read:     268406
L0D Test counter :          0
L0D Leapfrog:          0
L0D MSHR merge:    1063416
L0D TOTAL     ACCESS:   54045239  HIT:    6551672  MISS:   47493567  HIT %:    12.1226  MISS %:    87.8774   MPKI: 237.468
L0D LOAD      TOTAL       ACCESS:   54045239  HIT:    6551672  MISS:   47493567  HIT %:    12.1226  MISS %:    87.8774   MPKI: 237.468
L0D LOAD      NON_SPEC    ACCESS:   24536383  HIT:     213347  MISS:   24323036  HIT %:   0.869513  MISS %:    99.1305   MPKI: 121.615
L0D LOAD      SPEC        ACCESS:   29508856  HIT:    6338325  MISS:   23170531  HIT %:    21.4794  MISS %:    78.5206   MPKI: 115.853
L0D PREFETCH  REQUESTED:          0  ISSUED:          0  USEFUL:          0  USELESS:          0
L0D USEFUL LOAD PREFETCHES:          0 PREFETCH ISSUED TO LOWER LEVEL:          0  ACCURACY: -nan
L0D TIMELY PREFETCHES:          0 LATE PREFETCHES: 0 DROPPED PREFETCHES: 0
L0D COMMIT LATE PREFETCHES: 0 MISSED OPPORTUNITY: 0 LATE IN PQ: 0 UNCOVERED: 0
L0D COMMIT LATE MSHR PREFETCHES: 0
L0D MPKI TOTAL: 242.785 MSHR LATE: 0 PQ LATE: 0 COMMIT LATE: 0 MISSED OPPORTUNITY: 0 UNCOVERED: 0
L0D PREFETCHES SAME FILL-ORIGIN LEVEL: 0 DIFFERENT FILL-ORIGIN LEVEL: 0
L0D AVERAGE MISS LATENCY: 12.035 cycles
L0D AVERAGE MISS LATENCY LOAD: 12.035 cycles
L0D AVERAGE MISS LATENCY PREFETCH: -nan cycles
L0D AVERAGE MSHR OCCUPANCY: 0.554859
L0D MSHR FULL: 5.9461e-05
L0D RQ	ACCESS:   64232935	FORWARD:          0	MERGED:    9124282	TO_CACHE:   55108653
L0D WQ	ACCESS:   37118330	FORWARD:          0	MERGED:          0	TO_CACHE:   37118330

L1D SPEC fills:          0  NON-SPEC fills:     624830
L1D Test counter :    2219317
L1D Leapfrog:          0
L1D MSHR merge:      17715
L1D TOTAL     ACCESS:   87779305  HIT:   81313943  MISS:    6465362  HIT %:    92.6345  MISS %:    7.36547   MPKI: 32.3268
L1D LOAD      TOTAL       ACCESS:   47475852  HIT:   44157221  MISS:    3318631  HIT %:    93.0099  MISS %:    6.99015   MPKI: 16.5932
L1D LOAD      NON_SPEC    ACCESS:   24315658  HIT:   23690828  MISS:     624830  HIT %:    97.4303  MISS %:    2.56966   MPKI: 3.12415
L1D LOAD      SPEC        ACCESS:   23160194  HIT:   20466393  MISS:    2693801  HIT %:    88.3688  MISS %:    11.6312   MPKI: 13.469
L1D RFO       NON_SPEC    ACCESS:   36057468  HIT:   35576012  MISS:     481456  HIT %:    98.6648  MISS %:    1.33525   MPKI: 2.40728
L1D COMMIT LOAD NON_SPEC    ACCESS:    1540540  HIT:    1526968  MISS:      13572  HIT %:     99.119  MISS %:    0.88099   MPKI: 0.06786
L1D COMMIT WRITE NON_SPEC    ACCESS:    2705445  HIT:      53742  MISS:    2651703  HIT %:    1.98644  MISS %:    98.0136   MPKI: 13.2585
L1D PREFETCH  REQUESTED:          0  ISSUED:          0  USEFUL:          0  USELESS:          0
L1D USEFUL LOAD PREFETCHES:          0 PREFETCH ISSUED TO LOWER LEVEL:          0  ACCURACY: -nan
L1D TIMELY PREFETCHES:          0 LATE PREFETCHES: 0 DROPPED PREFETCHES: 0
L1D COMMIT LATE PREFETCHES: 0 MISSED OPPORTUNITY: 0 LATE IN PQ: 0 UNCOVERED: 0
L1D COMMIT LATE MSHR PREFETCHES: 0
L1D MPKI TOTAL: 16.6817 MSHR LATE: 0 PQ LATE: 0 COMMIT LATE: 0 MISSED OPPORTUNITY: 0 UNCOVERED: 0
L1D PREFETCHES SAME FILL-ORIGIN LEVEL: 0 DIFFERENT FILL-ORIGIN LEVEL: 0
L1D AVERAGE MISS LATENCY: 58.1776 cycles
L1D AVERAGE MISS LATENCY LOAD: 99.5169 cycles
L1D AVERAGE MISS LATENCY PREFETCH: -nan cycles
L1D AVERAGE MSHR OCCUPANCY: 0.237542
L1D MSHR FULL: 0
L1D RQ	ACCESS:   49407066	FORWARD:          0	MERGED:     326678	TO_CACHE:   49035279
L1D WQ	ACCESS:   39825397	FORWARD:      45109	MERGED:     333981	TO_CACHE:   39491416

L1D UNIQUE REGIONS ACCESSED: 0
L1D REGIONS CONFLICTS: 0
L1D Cross Page Prefetch Requests: 0
L1D Same Page Prefetch Requests: 0
L1D ROI Sum of L1D PQ occupancy: 0
L1D PREFETCHES PUSHED FROM L2C: 0
L1I SPEC fills:          0  NON-SPEC fills:          0
L1I Test counter :          0
L1I Leapfrog:          0
L1I MSHR merge:      30122
L1I TOTAL     ACCESS:   37031441  HIT:   36952433  MISS:      79008  HIT %:    99.7866  MISS %:   0.213354   MPKI: 0.39504
L1I LOAD      TOTAL       ACCESS:   37031441  HIT:   36952433  MISS:      79008  HIT %:    99.7866  MISS %:   0.213354   MPKI: 0.39504
L1I LOAD      NON_SPEC    ACCESS:   37031441  HIT:   36952433  MISS:      79008  HIT %:    99.7866  MISS %:   0.213354   MPKI: 0.39504
L1I PREFETCH  REQUESTED:          0  ISSUED:          0  USEFUL:          0  USELESS:          0
L1I USEFUL LOAD PREFETCHES:          0 PREFETCH ISSUED TO LOWER LEVEL:          0  ACCURACY: -nan
L1I TIMELY PREFETCHES:          0 LATE PREFETCHES: 0 DROPPED PREFETCHES: 0
L1I COMMIT LATE PREFETCHES: 0 MISSED OPPORTUNITY: 0 LATE IN PQ: 0 UNCOVERED: 0
L1I COMMIT LATE MSHR PREFETCHES: 0
L1I MPKI TOTAL: 0.54565 MSHR LATE: 0 PQ LATE: 0 COMMIT LATE: 0 MISSED OPPORTUNITY: 0 UNCOVERED: 0
L1I PREFETCHES SAME FILL-ORIGIN LEVEL: 0 DIFFERENT FILL-ORIGIN LEVEL: 0
L1I AVERAGE MISS LATENCY: 26.1692 cycles
L1I AVERAGE MISS LATENCY LOAD: 26.1692 cycles
L1I AVERAGE MISS LATENCY PREFETCH: -nan cycles
L1I AVERAGE MSHR OCCUPANCY: 0.00328532
L1I MSHR FULL: 0
L1I RQ	ACCESS:   56948750	FORWARD:          0	MERGED:   19887188	TO_CACHE:   37061562

BTB SPEC fills:          0  NON-SPEC fills:          0
BTB Test counter :          0
BTB Leapfrog:          0
BTB MSHR merge:          0
BTB TOTAL     ACCESS:   32188164  HIT:   30296058  MISS:    1892106  HIT %:    94.1217  MISS %:    5.87827   MPKI: 9.46053
BTB BRANCH_DIRECT_JUMP	ACCESS:    2276304  HIT:    2276179  MISS:        125
BTB BRANCH_INDIRECT	ACCESS:     671328  HIT:     585871  MISS:      85457
BTB BRANCH_CONDITIONAL	ACCESS:   17350102  HIT:   17349618  MISS:        484
BTB BRANCH_DIRECT_CALL	ACCESS:    3559126  HIT:    3558870  MISS:        256
BTB BRANCH_INDIRECT_CALL	ACCESS:    2386088  HIT:    2378106  MISS:       7982
BTB BRANCH_RETURN	ACCESS:    5945216  HIT:    4147414  MISS:    1797802
BTB BRANCH_OTHER ACCESS:          0  HIT:          0  MISS:          0

L2C SPEC fills:          0  NON-SPEC fills:     375705
L2C Test counter :    1845805
L2C Leapfrog:          0
L2C MSHR merge:          0
L2C TOTAL     ACCESS:   11067274  HIT:    6217163  MISS:    4850111  HIT %:    56.1761  MISS %:    43.8239   MPKI: 24.2506
L2C LOAD      TOTAL       ACCESS:    3397559  HIT:    1165553  MISS:    2232006  HIT %:    34.3056  MISS %:    65.6944   MPKI: 11.16
L2C LOAD      NON_SPEC    ACCESS:     703828  HIT:     315714  MISS:     388114  HIT %:    44.8567  MISS %:    55.1433   MPKI: 1.94057
L2C LOAD      SPEC        ACCESS:    2693731  HIT:     849839  MISS:    1843892  HIT %:    31.5488  MISS %:    68.4512   MPKI: 9.21946
L2C RFO       NON_SPEC    ACCESS:     481371  HIT:     150118  MISS:     331253  HIT %:    31.1855  MISS %:    68.8145   MPKI: 1.65627
L2C WRITEBACK NON_SPEC    ACCESS:     684137  HIT:     683292  MISS:        845  HIT %:    99.8765  MISS %:   0.123513   MPKI: 0.004225
L2C CLEAN_EVICTION NON_SPEC    ACCESS:    2219315  HIT:     387090  MISS:    1832225  HIT %:    17.4419  MISS %:    82.5581   MPKI: 9.16113
L2C COMMIT LOAD NON_SPEC    ACCESS:      13572  HIT:       7515  MISS:       6057  HIT %:    55.3714  MISS %:    44.6286   MPKI: 0.030285
L2C LOAD TRANSLATION NON_SPEC    ACCESS:    4271320  HIT:    3823595  MISS:     447725  HIT %:    89.5179  MISS %:    10.4821   MPKI: 2.23862
L2C PREFETCH  REQUESTED:          0  ISSUED:          0  USEFUL:          0  USELESS:          0
L2C USEFUL LOAD PREFETCHES:          0 PREFETCH ISSUED TO LOWER LEVEL:          0  ACCURACY: -nan
L2C TIMELY PREFETCHES:          0 LATE PREFETCHES: 0 DROPPED PREFETCHES: 0
L2C COMMIT LATE PREFETCHES: 0 MISSED OPPORTUNITY: 0 LATE IN PQ: 0 UNCOVERED: 0
L2C COMMIT LATE MSHR PREFETCHES: 0
L2C MPKI TOTAL: 11.16 MSHR LATE: 0 PQ LATE: 0 COMMIT LATE: 0 MISSED OPPORTUNITY: 0 UNCOVERED: 0
L2C PREFETCHES SAME FILL-ORIGIN LEVEL: 0 DIFFERENT FILL-ORIGIN LEVEL: 0
L2C AVERAGE MISS LATENCY: 75.8917 cycles
L2C AVERAGE MISS LATENCY LOAD: 130.767 cycles
L2C AVERAGE MISS LATENCY PREFETCH: -nan cycles
L2C AVERAGE MSHR OCCUPANCY: 0.330037
L2C MSHR FULL: 0
L2C RQ	ACCESS:    8163987	FORWARD:          0	MERGED:          0	TO_CACHE:    8163822
L2C WQ	ACCESS:    2903454	FORWARD:        165	MERGED:          0	TO_CACHE:    2903454

L2C Instructions Evicting Data 10303
L2C Translations Evicting Data 378088
L2C Data Evicting Data 603273
L2C Instructions Evicting Instructions 629
L2C Translations Evicting Instructions 1561
L2C Data Evicting Instructions 2981
L2C Instructions Evicting Translations 1477
L2C Translations Evicting Translations 68076
L2C Data Evicting Translations 106761
L2C Dense regions hint from L2: 0
PSCL5 SPEC fills:          0  NON-SPEC fills:          0
PSCL5 Test counter :          0
PSCL5 Leapfrog:          0
PSCL5 MSHR merge:          0
PSCL5 TOTAL     ACCESS:          0  HIT:          0  MISS:          0  HIT %:       -nan  MISS %:       -nan   MPKI: 0
PSCL5 PREFETCH  REQUESTED:          0  ISSUED:          0  USEFUL:          0  USELESS:          0
PSCL5 USEFUL LOAD PREFETCHES:          0 PREFETCH ISSUED TO LOWER LEVEL:          0  ACCURACY: -nan
PSCL5 TIMELY PREFETCHES:          0 LATE PREFETCHES: 0 DROPPED PREFETCHES: 0
PSCL5 COMMIT LATE PREFETCHES: 0 MISSED OPPORTUNITY: 0 LATE IN PQ: 0 UNCOVERED: 0
PSCL5 COMMIT LATE MSHR PREFETCHES: 0
PSCL5 MPKI TOTAL: 0 MSHR LATE: 0 PQ LATE: 0 COMMIT LATE: 0 MISSED OPPORTUNITY: 0 UNCOVERED: 0
PSCL5 PREFETCHES SAME FILL-ORIGIN LEVEL: 0 DIFFERENT FILL-ORIGIN LEVEL: 0

PSCL4 SPEC fills:          0  NON-SPEC fills:          0
PSCL4 Test counter :          0
PSCL4 Leapfrog:          0
PSCL4 MSHR merge:          0
PSCL4 TOTAL     ACCESS:          0  HIT:          0  MISS:          0  HIT %:       -nan  MISS %:       -nan   MPKI: 0
PSCL4 PREFETCH  REQUESTED:          0  ISSUED:          0  USEFUL:          0  USELESS:          0
PSCL4 USEFUL LOAD PREFETCHES:          0 PREFETCH ISSUED TO LOWER LEVEL:          0  ACCURACY: -nan
PSCL4 TIMELY PREFETCHES:          0 LATE PREFETCHES: 0 DROPPED PREFETCHES: 0
PSCL4 COMMIT LATE PREFETCHES: 0 MISSED OPPORTUNITY: 0 LATE IN PQ: 0 UNCOVERED: 0
PSCL4 COMMIT LATE MSHR PREFETCHES: 0
PSCL4 MPKI TOTAL: 0 MSHR LATE: 0 PQ LATE: 0 COMMIT LATE: 0 MISSED OPPORTUNITY: 0 UNCOVERED: 0
PSCL4 PREFETCHES SAME FILL-ORIGIN LEVEL: 0 DIFFERENT FILL-ORIGIN LEVEL: 0

PSCL3 SPEC fills:          0  NON-SPEC fills:          0
PSCL3 Test counter :          0
PSCL3 Leapfrog:          0
PSCL3 MSHR merge:          0
PSCL3 TOTAL     ACCESS:          0  HIT:          0  MISS:          0  HIT %:       -nan  MISS %:       -nan   MPKI: 0
PSCL3 PREFETCH  REQUESTED:          0  ISSUED:          0  USEFUL:          0  USELESS:          0
PSCL3 USEFUL LOAD PREFETCHES:          0 PREFETCH ISSUED TO LOWER LEVEL:          0  ACCURACY: -nan
PSCL3 TIMELY PREFETCHES:          0 LATE PREFETCHES: 0 DROPPED PREFETCHES: 0
PSCL3 COMMIT LATE PREFETCHES: 0 MISSED OPPORTUNITY: 0 LATE IN PQ: 0 UNCOVERED: 0
PSCL3 COMMIT LATE MSHR PREFETCHES: 0
PSCL3 MPKI TOTAL: 0 MSHR LATE: 0 PQ LATE: 0 COMMIT LATE: 0 MISSED OPPORTUNITY: 0 UNCOVERED: 0
PSCL3 PREFETCHES SAME FILL-ORIGIN LEVEL: 0 DIFFERENT FILL-ORIGIN LEVEL: 0

PSCL2 SPEC fills:          0  NON-SPEC fills:          0
PSCL2 Test counter :          0
PSCL2 Leapfrog:          0
PSCL2 MSHR merge:          0
PSCL2 TOTAL     ACCESS:          0  HIT:          0  MISS:          0  HIT %:       -nan  MISS %:       -nan   MPKI: 0
PSCL2 PREFETCH  REQUESTED:          0  ISSUED:          0  USEFUL:          0  USELESS:          0
PSCL2 USEFUL LOAD PREFETCHES:          0 PREFETCH ISSUED TO LOWER LEVEL:          0  ACCURACY: -nan
PSCL2 TIMELY PREFETCHES:          0 LATE PREFETCHES: 0 DROPPED PREFETCHES: 0
PSCL2 COMMIT LATE PREFETCHES: 0 MISSED OPPORTUNITY: 0 LATE IN PQ: 0 UNCOVERED: 0
PSCL2 COMMIT LATE MSHR PREFETCHES: 0
PSCL2 MPKI TOTAL: 0 MSHR LATE: 0 PQ LATE: 0 COMMIT LATE: 0 MISSED OPPORTUNITY: 0 UNCOVERED: 0
PSCL2 PREFETCHES SAME FILL-ORIGIN LEVEL: 0 DIFFERENT FILL-ORIGIN LEVEL: 0

LLC SPEC fills:          0  NON-SPEC fills:     249799
LLC Test counter :    1445452
LLC Leapfrog:          0
LLC MSHR merge:          0
LLC TOTAL     ACCESS:    5315665  HIT:    1925543  MISS:    3390122  HIT %:    36.2239  MISS %:    63.7761   MPKI: 16.9506
LLC LOAD      TOTAL       ACCESS:    2231999  HIT:     572784  MISS:    1659215  HIT %:    25.6624  MISS %:    74.3376   MPKI: 8.29608
LLC LOAD      NON_SPEC    ACCESS:     388113  HIT:     134895  MISS:     253218  HIT %:    34.7566  MISS %:    65.2434   MPKI: 1.26609
LLC LOAD      SPEC        ACCESS:    1843886  HIT:     437889  MISS:    1405997  HIT %:    23.7482  MISS %:    76.2518   MPKI: 7.02998
LLC RFO       NON_SPEC    ACCESS:     331250  HIT:     165462  MISS:     165788  HIT %:    49.9508  MISS %:    50.0492   MPKI: 0.82894
LLC WRITEBACK NON_SPEC    ACCESS:     452830  HIT:     451868  MISS:        962  HIT %:    99.7876  MISS %:   0.212442   MPKI: 0.00481
LLC CLEAN_EVICTION NON_SPEC    ACCESS:    1845805  HIT:     424929  MISS:    1420876  HIT %:    23.0213  MISS %:    76.9787   MPKI: 7.10438
LLC COMMIT LOAD NON_SPEC    ACCESS:       6056  HIT:       3412  MISS:       2644  HIT %:    56.3408  MISS %:    43.6592   MPKI: 0.01322
LLC LOAD TRANSLATION NON_SPEC    ACCESS:     447725  HIT:     307088  MISS:     140637  HIT %:    68.5885  MISS %:    31.4115   MPKI: 0.703185
LLC PREFETCH  REQUESTED:          0  ISSUED:          0  USEFUL:          0  USELESS:          0
LLC USEFUL LOAD PREFETCHES:          0 PREFETCH ISSUED TO LOWER LEVEL:          0  ACCURACY: -nan
LLC TIMELY PREFETCHES:          0 LATE PREFETCHES: 0 DROPPED PREFETCHES: 0
LLC COMMIT LATE PREFETCHES: 0 MISSED OPPORTUNITY: 0 LATE IN PQ: 0 UNCOVERED: 0
LLC COMMIT LATE MSHR PREFETCHES: 0
LLC MPKI TOTAL: 8.29608 MSHR LATE: 0 PQ LATE: 0 COMMIT LATE: 0 MISSED OPPORTUNITY: 0 UNCOVERED: 0
LLC PREFETCHES SAME FILL-ORIGIN LEVEL: 0 DIFFERENT FILL-ORIGIN LEVEL: 0
LLC AVERAGE MISS LATENCY: 86.7683 cycles
LLC AVERAGE MISS LATENCY LOAD: 145.55 cycles
LLC AVERAGE MISS LATENCY PREFETCH: -nan cycles
LLC AVERAGE MSHR OCCUPANCY: 0.357156
LLC MSHR FULL: 0
LLC RQ	ACCESS:    3017041	FORWARD:          0	MERGED:          0	TO_CACHE:    3017030
LLC WQ	ACCESS:    2298635	FORWARD:         11	MERGED:          0	TO_CACHE:    2298635

LLC Dense regions hint to LLC: 0

RAW hits: 3215814
Loads Generated: 67448749
Loads sent to L1D: 64232935
Stores Generated: 37118330
Stores sent to L1D: 37118330
Major fault: 0 Minor fault: 47401
Allocated PAGES: 47401
Total Load insts: 79559903
Total Non-spec loads: 28066939
Percentage of speculative loads: 64.7223

LeapFrogging counter: 1332
Commit hits: 22787190 miss: 16854571
Commit hit %: 57.4828 miss %: 42.5172
Commits not translated: 0
Loads retired: 3318629
Stores retired: 37118330
Cache fills: 3318631
L1D response latency: 99.5169 cycles
Load retirement latency: 179.322 cycles
OOO test counter: 0
Discarded buffer inserts: 22787190 hits: 19068 hit %: 0.0836786

DRAM Statistics
 CHANNEL 0
 RQ ROW_BUFFER_HIT:     177371  ROW_BUFFER_MISS:    1790897
 DBUS_CONGESTED:        789
 WQ ROW_BUFFER_HIT:     293442  ROW_BUFFER_MISS:    1394430  FULL:          0

 AVG_CONGESTED_CYCLE: 3
 All warmup complete: 2
Channel 0 Bank busy for read cycles: 0
Channel 0 Bank busy for write cycles: 0
Channel 0
Rank 0
0banks busy for read cycles: 398096924
0banks busy for write cycles: 735823
1banks busy for read cycles: 164848295
1banks busy for write cycles: 120412110
2banks busy for read cycles: 35170553
2banks busy for write cycles: 49111489
3banks busy for read cycles: 9743621
3banks busy for write cycles: 18402413
4banks busy for read cycles: 3172185
4banks busy for write cycles: 6488632
5banks busy for read cycles: 79052
5banks busy for write cycles: 2361807
6banks busy for read cycles: 284
6banks busy for write cycles: 840370
7banks busy for read cycles: 55
7banks busy for write cycles: 234542
8banks busy for read cycles: 0
8banks busy for write cycles: 43085

CPU 0 Branch Prediction Accuracy: 98.2082% MPKI: 3.72743 Average ROB Occupancy at Mispredict: 33.8696
Branch types
NOT_BRANCH: 158393545 79.1968%
BRANCH_DIRECT_JUMP: 2276304 1.13815%
BRANCH_INDIRECT: 671328 0.335664%
BRANCH_CONDITIONAL: 26768026 13.384%
BRANCH_DIRECT_CALL: 3559126 1.77956%
BRANCH_INDIRECT_CALL: 2386088 1.19304%
BRANCH_RETURN: 5945216 2.97261%
BRANCH_OTHER: 0 0%

DRAM PAGES: 1048576
Allocated PAGES: 47401
