
*** ChampSim Multicore Out-of-Order Simulator ***

Warmup Instructions: 50000000
Simulation Instructions: 200000000
Number of CPUs: 1
LLC sets: 2048
LLC ways: 16
L0D sets: 16
L0D ways: 2
ROB size: 352
LQ size: 128
SQ size: 72
Secure Berti: OFF
Berti: OFF
Berti Fill: OFF
On commit prefetching: OFF
Hit-based filter: ON
Time-guarding: ON
Free-slotting: ON
Leap-frogging: ON
Train prefetcher on L0D bypass: OFF
No translation penalty for prefetchers: OFF
Prefetch to L0D only: OFF
Prefetch to L1D only: OFF
Clean evictions: ON
Commit loads: ON
Commit write: ON
Fill commit loads to L2C, LLC: ON
DRAM IO FREQUENCY: 6400
ROB SIZE: 352
Off-chip DRAM Size: 4096 MB Channels: 1 Width: 64-bit Data Rate: 6400 MT/s
CPU 0 runs /home/sumon/secure_berti/GhostMinion/../../traces/spec/620.omnetpp_s-141B.champsimtrace.xz
.xz
BTB has LRU replacement policy
ITLB has LRU replacement policy
DTLB has LRU replacement policy
STLB has LRU replacement policy
L1I has LRU replacement policy
L0D has LRU replacement policy
L1D has LRU replacement policy
L2C has LRU replacement policy
LLC has LRU replacement policy
Heartbeat CPU 0 instructions: 10000000 cycles: 7998223 heartbeat IPC: 1.25028 cumulative IPC: 1.25028 (Simulation time: 0 hr 0 min 49 sec) 
Heartbeat CPU 0 instructions: 20000001 cycles: 16042623 heartbeat IPC: 1.2431 cumulative IPC: 1.24668 (Simulation time: 0 hr 1 min 37 sec) 
Heartbeat CPU 0 instructions: 30000000 cycles: 24103663 heartbeat IPC: 1.24053 cumulative IPC: 1.24462 (Simulation time: 0 hr 2 min 25 sec) 
Heartbeat CPU 0 instructions: 40000000 cycles: 32132353 heartbeat IPC: 1.24553 cumulative IPC: 1.24485 (Simulation time: 0 hr 3 min 10 sec) 
Heartbeat CPU 0 instructions: 50000003 cycles: 40208196 heartbeat IPC: 1.23826 cumulative IPC: 1.24353 (Simulation time: 0 hr 3 min 53 sec) 

Warmup complete CPU 0 instructions: 50000003 cycles: 40208196 (Simulation time: 0 hr 3 min 53 sec) 

Heartbeat CPU 0 instructions: 60000001 cycles: 82433860 heartbeat IPC: 0.236823 cumulative IPC: 0.236823 (Simulation time: 0 hr 4 min 44 sec) 
Heartbeat CPU 0 instructions: 70000000 cycles: 125106087 heartbeat IPC: 0.234344 cumulative IPC: 0.235577 (Simulation time: 0 hr 5 min 36 sec) 
Heartbeat CPU 0 instructions: 80000003 cycles: 167483804 heartbeat IPC: 0.235973 cumulative IPC: 0.235709 (Simulation time: 0 hr 6 min 27 sec) 
Heartbeat CPU 0 instructions: 90000003 cycles: 209981486 heartbeat IPC: 0.235307 cumulative IPC: 0.235608 (Simulation time: 0 hr 7 min 18 sec) 
Heartbeat CPU 0 instructions: 100000003 cycles: 252066171 heartbeat IPC: 0.237616 cumulative IPC: 0.236007 (Simulation time: 0 hr 8 min 10 sec) 
Heartbeat CPU 0 instructions: 110000000 cycles: 294423372 heartbeat IPC: 0.236087 cumulative IPC: 0.236021 (Simulation time: 0 hr 9 min 1 sec) 
Heartbeat CPU 0 instructions: 120000000 cycles: 336544986 heartbeat IPC: 0.237408 cumulative IPC: 0.236218 (Simulation time: 0 hr 9 min 53 sec) 
Heartbeat CPU 0 instructions: 130000000 cycles: 378824953 heartbeat IPC: 0.236519 cumulative IPC: 0.236255 (Simulation time: 0 hr 10 min 45 sec) 
Heartbeat CPU 0 instructions: 140000000 cycles: 421079657 heartbeat IPC: 0.23666 cumulative IPC: 0.2363 (Simulation time: 0 hr 11 min 36 sec) 
Heartbeat CPU 0 instructions: 150000003 cycles: 463742276 heartbeat IPC: 0.234397 cumulative IPC: 0.236109 (Simulation time: 0 hr 12 min 28 sec) 
Heartbeat CPU 0 instructions: 160000001 cycles: 506087152 heartbeat IPC: 0.236156 cumulative IPC: 0.236113 (Simulation time: 0 hr 13 min 19 sec) 
Heartbeat CPU 0 instructions: 170000000 cycles: 548140363 heartbeat IPC: 0.237794 cumulative IPC: 0.236252 (Simulation time: 0 hr 14 min 9 sec) 
Heartbeat CPU 0 instructions: 180000000 cycles: 590232748 heartbeat IPC: 0.237573 cumulative IPC: 0.236353 (Simulation time: 0 hr 14 min 58 sec) 
Heartbeat CPU 0 instructions: 190000000 cycles: 632189008 heartbeat IPC: 0.238343 cumulative IPC: 0.236494 (Simulation time: 0 hr 15 min 46 sec) 
Heartbeat CPU 0 instructions: 200000000 cycles: 675092696 heartbeat IPC: 0.23308 cumulative IPC: 0.236263 (Simulation time: 0 hr 16 min 34 sec) 
Heartbeat CPU 0 instructions: 210000000 cycles: 717536467 heartbeat IPC: 0.235606 cumulative IPC: 0.236222 (Simulation time: 0 hr 17 min 21 sec) 
Heartbeat CPU 0 instructions: 220000000 cycles: 760207426 heartbeat IPC: 0.234351 cumulative IPC: 0.236111 (Simulation time: 0 hr 18 min 8 sec) 
Heartbeat CPU 0 instructions: 230000001 cycles: 802618339 heartbeat IPC: 0.235788 cumulative IPC: 0.236093 (Simulation time: 0 hr 18 min 54 sec) 
Heartbeat CPU 0 instructions: 240000001 cycles: 845046557 heartbeat IPC: 0.235692 cumulative IPC: 0.236072 (Simulation time: 0 hr 19 min 40 sec) 
Heartbeat CPU 0 instructions: 250000000 cycles: 886672678 heartbeat IPC: 0.240234 cumulative IPC: 0.236277 (Simulation time: 0 hr 20 min 25 sec) 
Finished CPU 0 instructions: 200000001 cycles: 846464483 cumulative IPC: 0.236277 (Simulation time: 0 hr 20 min 25 sec) 
 Instruction ID: 250000041

ChampSim completed all CPUs

Region of Interest Statistics

CPU 0 cumulative IPC: 0.236277 instructions: 200000001 cycles: 846464483
ITLB SPEC fills:          0  NON-SPEC fills:          0
ITLB Test counter :          0
ITLB Leapfrog:          0
ITLB MSHR merge:          0
ITLB TOTAL     ACCESS:   33302141  HIT:   32990037  MISS:     312104  HIT %:    99.0628  MISS %:   0.937189   MPKI: 1.56052
ITLB LOAD TRANSLATION NON_SPEC    ACCESS:   33302141  HIT:   32990037  MISS:     312104  HIT %:    99.0628  MISS %:   0.937189   MPKI: 1.56052
ITLB PREFETCH  REQUESTED:          0  ISSUED:          0  USEFUL:          0  USELESS:          0
ITLB USEFUL LOAD PREFETCHES:          0 PREFETCH ISSUED TO LOWER LEVEL:          0  ACCURACY: -nan
ITLB TIMELY PREFETCHES:          0 LATE PREFETCHES: 0 DROPPED PREFETCHES: 0
ITLB COMMIT LATE PREFETCHES: 0 MISSED OPPORTUNITY: 0 LATE IN PQ: 0 UNCOVERED: 0
ITLB COMMIT LATE MSHR PREFETCHES: 0
ITLB MPKI TOTAL: 0 MSHR LATE: 0 PQ LATE: 0 COMMIT LATE: 0 MISSED OPPORTUNITY: 0 UNCOVERED: 0
ITLB PREFETCHES SAME FILL-ORIGIN LEVEL: 0 DIFFERENT FILL-ORIGIN LEVEL: 0
ITLB AVERAGE MISS LATENCY: 10.1778 cycles
ITLB AVERAGE MISS LATENCY LOAD: -nan cycles
ITLB AVERAGE MISS LATENCY PREFETCH: -nan cycles
ITLB AVERAGE MSHR OCCUPANCY: 0.00922651
ITLB MSHR FULL: 0
ITLB RQ	ACCESS:   37446043	FORWARD:          0	MERGED:    4061371	TO_CACHE:   33384672

DTLB SPEC fills:          0  NON-SPEC fills:          0
DTLB Test counter :          0
DTLB Leapfrog:          0
DTLB MSHR merge:          0
DTLB TOTAL     ACCESS:   81637820  HIT:   77473623  MISS:    4164197  HIT %:    94.8992  MISS %:    5.10082   MPKI: 20.821
DTLB LOAD TRANSLATION NON_SPEC    ACCESS:   81637820  HIT:   77473623  MISS:    4164197  HIT %:    94.8992  MISS %:    5.10082   MPKI: 20.821
DTLB PREFETCH  REQUESTED:          0  ISSUED:          0  USEFUL:          0  USELESS:          0
DTLB USEFUL LOAD PREFETCHES:          0 PREFETCH ISSUED TO LOWER LEVEL:          0  ACCURACY: -nan
DTLB TIMELY PREFETCHES:          0 LATE PREFETCHES: 0 DROPPED PREFETCHES: 0
DTLB COMMIT LATE PREFETCHES: 0 MISSED OPPORTUNITY: 0 LATE IN PQ: 0 UNCOVERED: 0
DTLB COMMIT LATE MSHR PREFETCHES: 0
DTLB MPKI TOTAL: 0 MSHR LATE: 0 PQ LATE: 0 COMMIT LATE: 0 MISSED OPPORTUNITY: 0 UNCOVERED: 0
DTLB PREFETCHES SAME FILL-ORIGIN LEVEL: 0 DIFFERENT FILL-ORIGIN LEVEL: 0
DTLB AVERAGE MISS LATENCY: 39.3752 cycles
DTLB AVERAGE MISS LATENCY LOAD: -nan cycles
DTLB AVERAGE MISS LATENCY PREFETCH: -nan cycles
DTLB AVERAGE MSHR OCCUPANCY: 0.131379
DTLB MSHR FULL: 4.27539e-05
DTLB RQ	ACCESS:   92558151	FORWARD:          0	MERGED:   10814537	TO_CACHE:   81743614

STLB SPEC fills:          0  NON-SPEC fills:          0
STLB Test counter :          0
STLB Leapfrog:          0
STLB MSHR merge:          0
STLB TOTAL     ACCESS:    4476301  HIT:    3506435  MISS:     969866  HIT %:    78.3333  MISS %:    21.6667   MPKI: 4.84933
STLB LOAD TRANSLATION NON_SPEC    ACCESS:    4476301  HIT:    3506435  MISS:     969866  HIT %:    78.3333  MISS %:    21.6667   MPKI: 4.84933
STLB PREFETCH  REQUESTED:          0  ISSUED:          0  USEFUL:          0  USELESS:          0
STLB USEFUL LOAD PREFETCHES:          0 PREFETCH ISSUED TO LOWER LEVEL:          0  ACCURACY: -nan
STLB TIMELY PREFETCHES:          0 LATE PREFETCHES: 0 DROPPED PREFETCHES: 0
STLB COMMIT LATE PREFETCHES: 0 MISSED OPPORTUNITY: 0 LATE IN PQ: 0 UNCOVERED: 0
STLB COMMIT LATE MSHR PREFETCHES: 0
STLB MPKI TOTAL: 0 MSHR LATE: 0 PQ LATE: 0 COMMIT LATE: 0 MISSED OPPORTUNITY: 0 UNCOVERED: 0
STLB PREFETCHES SAME FILL-ORIGIN LEVEL: 0 DIFFERENT FILL-ORIGIN LEVEL: 0
STLB AVERAGE MISS LATENCY: 130.674 cycles
STLB AVERAGE MISS LATENCY LOAD: -nan cycles
STLB AVERAGE MISS LATENCY PREFETCH: -nan cycles
STLB AVERAGE MSHR OCCUPANCY: 0.112856
STLB MSHR FULL: 0
STLB RQ	ACCESS:    4476301	FORWARD:          0	MERGED:          0	TO_CACHE:    4476301

STLB Hit, L1D data hit: 0
STLB Hit, L2C data hit: 0
STLB Hit, LLC data hit: 0
STLB Hit, LLC data miss: 0
STLB STLB hints to L2: 0
L0D SPEC fills:   23199441  NON-SPEC fills:          0
L0D TimeGuard Request with older TS:     266279 Restricted eviction:     140327 read:     298582
L0D Test counter :          0
L0D Leapfrog:          0
L0D MSHR merge:    1033963
L0D TOTAL     ACCESS:   54379087  HIT:    6913167  MISS:   47465920  HIT %:    12.7129  MISS %:    87.2871   MPKI: 237.33
L0D LOAD      TOTAL       ACCESS:   54379087  HIT:    6913167  MISS:   47465920  HIT %:    12.7129  MISS %:    87.2871   MPKI: 237.33
L0D LOAD      NON_SPEC    ACCESS:   24337380  HIT:     211217  MISS:   24126163  HIT %:   0.867871  MISS %:    99.1321   MPKI: 120.631
L0D LOAD      SPEC        ACCESS:   30041707  HIT:    6701950  MISS:   23339757  HIT %:    22.3088  MISS %:    77.6912   MPKI: 116.699
L0D PREFETCH  REQUESTED:          0  ISSUED:          0  USEFUL:          0  USELESS:          0
L0D USEFUL LOAD PREFETCHES:          0 PREFETCH ISSUED TO LOWER LEVEL:          0  ACCURACY: -nan
L0D TIMELY PREFETCHES:          0 LATE PREFETCHES: 0 DROPPED PREFETCHES: 0
L0D COMMIT LATE PREFETCHES: 0 MISSED OPPORTUNITY: 0 LATE IN PQ: 0 UNCOVERED: 0
L0D COMMIT LATE MSHR PREFETCHES: 0
L0D MPKI TOTAL: 242.499 MSHR LATE: 0 PQ LATE: 0 COMMIT LATE: 0 MISSED OPPORTUNITY: 0 UNCOVERED: 0
L0D PREFETCHES SAME FILL-ORIGIN LEVEL: 0 DIFFERENT FILL-ORIGIN LEVEL: 0
L0D AVERAGE MISS LATENCY: 12.9493 cycles
L0D AVERAGE MISS LATENCY LOAD: 12.9493 cycles
L0D AVERAGE MISS LATENCY PREFETCH: -nan cycles
L0D AVERAGE MSHR OCCUPANCY: 0.550513
L0D MSHR FULL: 3.19049e-05
L0D RQ	ACCESS:   63414579	FORWARD:          0	MERGED:    8001535	TO_CACHE:   55413044
L0D WQ	ACCESS:   37145107	FORWARD:          0	MERGED:          0	TO_CACHE:   37145107

L1D SPEC fills:          0  NON-SPEC fills:     640165
L1D Test counter :    2364042
L1D Leapfrog:          0
L1D MSHR merge:      25498
L1D TOTAL     ACCESS:   87637520  HIT:   81078980  MISS:    6558540  HIT %:    92.5163  MISS %:    7.48371   MPKI: 32.7927
L1D LOAD      TOTAL       ACCESS:   47440422  HIT:   44058190  MISS:    3382232  HIT %:    92.8706  MISS %:    7.12943   MPKI: 16.9112
L1D LOAD      NON_SPEC    ACCESS:   24117978  HIT:   23477813  MISS:     640165  HIT %:    97.3457  MISS %:    2.65431   MPKI: 3.20082
L1D LOAD      SPEC        ACCESS:   23322444  HIT:   20580377  MISS:    2742067  HIT %:    88.2428  MISS %:    11.7572   MPKI: 13.7103
L1D RFO       NON_SPEC    ACCESS:   35857601  HIT:   35395472  MISS:     462129  HIT %:    98.7112  MISS %:    1.28879   MPKI: 2.31064
L1D COMMIT LOAD NON_SPEC    ACCESS:    1579590  HIT:    1567024  MISS:      12566  HIT %:    99.2045  MISS %:   0.795523   MPKI: 0.06283
L1D COMMIT WRITE NON_SPEC    ACCESS:    2759907  HIT:      58294  MISS:    2701613  HIT %:    2.11217  MISS %:    97.8878   MPKI: 13.5081
L1D PREFETCH  REQUESTED:          0  ISSUED:          0  USEFUL:          0  USELESS:          0
L1D USEFUL LOAD PREFETCHES:          0 PREFETCH ISSUED TO LOWER LEVEL:          0  ACCURACY: -nan
L1D TIMELY PREFETCHES:          0 LATE PREFETCHES: 0 DROPPED PREFETCHES: 0
L1D COMMIT LATE PREFETCHES: 0 MISSED OPPORTUNITY: 0 LATE IN PQ: 0 UNCOVERED: 0
L1D COMMIT LATE MSHR PREFETCHES: 0
L1D MPKI TOTAL: 17.0386 MSHR LATE: 0 PQ LATE: 0 COMMIT LATE: 0 MISSED OPPORTUNITY: 0 UNCOVERED: 0
L1D PREFETCHES SAME FILL-ORIGIN LEVEL: 0 DIFFERENT FILL-ORIGIN LEVEL: 0
L1D AVERAGE MISS LATENCY: 65.9729 cycles
L1D AVERAGE MISS LATENCY LOAD: 110.158 cycles
L1D AVERAGE MISS LATENCY PREFETCH: -nan cycles
L1D AVERAGE MSHR OCCUPANCY: 0.253803
L1D MSHR FULL: 0
L1D RQ	ACCESS:   49413996	FORWARD:          0	MERGED:     317551	TO_CACHE:   49046309
L1D WQ	ACCESS:   39907930	FORWARD:      50136	MERGED:     354484	TO_CACHE:   39553446

L1D UNIQUE REGIONS ACCESSED: 0
L1D REGIONS CONFLICTS: 0
L1D Cross Page Prefetch Requests: 0
L1D Same Page Prefetch Requests: 0
L1D ROI Sum of L1D PQ occupancy: 0
L1D PREFETCHES PUSHED FROM L2C: 0
L1I SPEC fills:          0  NON-SPEC fills:          0
L1I Test counter :          0
L1I Leapfrog:          0
L1I MSHR merge:      37630
L1I TOTAL     ACCESS:   37408414  HIT:   37287476  MISS:     120938  HIT %:    99.6767  MISS %:   0.323291   MPKI: 0.60469
L1I LOAD      TOTAL       ACCESS:   37408414  HIT:   37287476  MISS:     120938  HIT %:    99.6767  MISS %:   0.323291   MPKI: 0.60469
L1I LOAD      NON_SPEC    ACCESS:   37408414  HIT:   37287476  MISS:     120938  HIT %:    99.6767  MISS %:   0.323291   MPKI: 0.60469
L1I PREFETCH  REQUESTED:          0  ISSUED:          0  USEFUL:          0  USELESS:          0
L1I USEFUL LOAD PREFETCHES:          0 PREFETCH ISSUED TO LOWER LEVEL:          0  ACCURACY: -nan
L1I TIMELY PREFETCHES:          0 LATE PREFETCHES: 0 DROPPED PREFETCHES: 0
L1I COMMIT LATE PREFETCHES: 0 MISSED OPPORTUNITY: 0 LATE IN PQ: 0 UNCOVERED: 0
L1I COMMIT LATE MSHR PREFETCHES: 0
L1I MPKI TOTAL: 0.79284 MSHR LATE: 0 PQ LATE: 0 COMMIT LATE: 0 MISSED OPPORTUNITY: 0 UNCOVERED: 0
L1I PREFETCHES SAME FILL-ORIGIN LEVEL: 0 DIFFERENT FILL-ORIGIN LEVEL: 0
L1I AVERAGE MISS LATENCY: 26.7917 cycles
L1I AVERAGE MISS LATENCY LOAD: 26.7917 cycles
L1I AVERAGE MISS LATENCY PREFETCH: -nan cycles
L1I AVERAGE MSHR OCCUPANCY: 0.00490936
L1I MSHR FULL: 0
L1I RQ	ACCESS:   56566353	FORWARD:          0	MERGED:   19120310	TO_CACHE:   37446043

BTB SPEC fills:          0  NON-SPEC fills:          0
BTB Test counter :          0
BTB Leapfrog:          0
BTB MSHR merge:          0
BTB TOTAL     ACCESS:   32873214  HIT:   30947951  MISS:    1925263  HIT %:    94.1434  MISS %:    5.85663   MPKI: 9.62631
BTB BRANCH_DIRECT_JUMP	ACCESS:    2330259  HIT:    2330115  MISS:        144
BTB BRANCH_INDIRECT	ACCESS:     674228  HIT:     571149  MISS:     103079
BTB BRANCH_CONDITIONAL	ACCESS:   17721648  HIT:   17721119  MISS:        529
BTB BRANCH_DIRECT_CALL	ACCESS:    3701835  HIT:    3701543  MISS:        292
BTB BRANCH_INDIRECT_CALL	ACCESS:    2371706  HIT:    2363088  MISS:       8618
BTB BRANCH_RETURN	ACCESS:    6073538  HIT:    4260937  MISS:    1812601
BTB BRANCH_OTHER ACCESS:          0  HIT:          0  MISS:          0

L2C SPEC fills:          0  NON-SPEC fills:     424113
L2C Test counter :    2056550
L2C Leapfrog:          0
L2C MSHR merge:          0
L2C TOTAL     ACCESS:   11854625  HIT:    6366608  MISS:    5488017  HIT %:    53.7057  MISS %:    46.2943   MPKI: 27.4401
L2C LOAD      TOTAL       ACCESS:    3503071  HIT:    1007772  MISS:    2495299  HIT %:    28.7682  MISS %:    71.2318   MPKI: 12.4765
L2C LOAD      NON_SPEC    ACCESS:     761079  HIT:     317818  MISS:     443261  HIT %:    41.7589  MISS %:    58.2411   MPKI: 2.2163
L2C LOAD      SPEC        ACCESS:    2741992  HIT:     689954  MISS:    2052038  HIT %:    25.1625  MISS %:    74.8375   MPKI: 10.2602
L2C RFO       NON_SPEC    ACCESS:     462019  HIT:      82379  MISS:     379640  HIT %:    17.8302  MISS %:    82.1698   MPKI: 1.8982
L2C WRITEBACK NON_SPEC    ACCESS:     663597  HIT:     662344  MISS:       1253  HIT %:    99.8112  MISS %:   0.188819   MPKI: 0.006265
L2C CLEAN_EVICTION NON_SPEC    ACCESS:    2364042  HIT:     322696  MISS:    2041346  HIT %:    13.6502  MISS %:    86.3498   MPKI: 10.2067
L2C COMMIT LOAD NON_SPEC    ACCESS:      12566  HIT:       6930  MISS:       5636  HIT %:    55.1488  MISS %:    44.8512   MPKI: 0.02818
L2C LOAD TRANSLATION NON_SPEC    ACCESS:    4849330  HIT:    4284487  MISS:     564843  HIT %:    88.3521  MISS %:    11.6479   MPKI: 2.82421
L2C PREFETCH  REQUESTED:          0  ISSUED:          0  USEFUL:          0  USELESS:          0
L2C USEFUL LOAD PREFETCHES:          0 PREFETCH ISSUED TO LOWER LEVEL:          0  ACCURACY: -nan
L2C TIMELY PREFETCHES:          0 LATE PREFETCHES: 0 DROPPED PREFETCHES: 0
L2C COMMIT LATE PREFETCHES: 0 MISSED OPPORTUNITY: 0 LATE IN PQ: 0 UNCOVERED: 0
L2C COMMIT LATE MSHR PREFETCHES: 0
L2C MPKI TOTAL: 12.4765 MSHR LATE: 0 PQ LATE: 0 COMMIT LATE: 0 MISSED OPPORTUNITY: 0 UNCOVERED: 0
L2C PREFETCHES SAME FILL-ORIGIN LEVEL: 0 DIFFERENT FILL-ORIGIN LEVEL: 0
L2C AVERAGE MISS LATENCY: 79.1117 cycles
L2C AVERAGE MISS LATENCY LOAD: 133.863 cycles
L2C AVERAGE MISS LATENCY PREFETCH: -nan cycles
L2C AVERAGE MSHR OCCUPANCY: 0.368704
L2C MSHR FULL: 0
L2C RQ	ACCESS:    8827195	FORWARD:          0	MERGED:          0	TO_CACHE:    8826986
L2C WQ	ACCESS:    3027640	FORWARD:        209	MERGED:          1	TO_CACHE:    3027639

L2C Instructions Evicting Data 15682
L2C Translations Evicting Data 472171
L2C Data Evicting Data 670857
L2C Instructions Evicting Instructions 444
L2C Translations Evicting Instructions 3061
L2C Data Evicting Instructions 4527
L2C Instructions Evicting Translations 3022
L2C Translations Evicting Translations 89611
L2C Data Evicting Translations 134005
L2C Dense regions hint from L2: 0
PSCL5 SPEC fills:          0  NON-SPEC fills:          0
PSCL5 Test counter :          0
PSCL5 Leapfrog:          0
PSCL5 MSHR merge:          0
PSCL5 TOTAL     ACCESS:          0  HIT:          0  MISS:          0  HIT %:       -nan  MISS %:       -nan   MPKI: 0
PSCL5 PREFETCH  REQUESTED:          0  ISSUED:          0  USEFUL:          0  USELESS:          0
PSCL5 USEFUL LOAD PREFETCHES:          0 PREFETCH ISSUED TO LOWER LEVEL:          0  ACCURACY: -nan
PSCL5 TIMELY PREFETCHES:          0 LATE PREFETCHES: 0 DROPPED PREFETCHES: 0
PSCL5 COMMIT LATE PREFETCHES: 0 MISSED OPPORTUNITY: 0 LATE IN PQ: 0 UNCOVERED: 0
PSCL5 COMMIT LATE MSHR PREFETCHES: 0
PSCL5 MPKI TOTAL: 0 MSHR LATE: 0 PQ LATE: 0 COMMIT LATE: 0 MISSED OPPORTUNITY: 0 UNCOVERED: 0
PSCL5 PREFETCHES SAME FILL-ORIGIN LEVEL: 0 DIFFERENT FILL-ORIGIN LEVEL: 0

PSCL4 SPEC fills:          0  NON-SPEC fills:          0
PSCL4 Test counter :          0
PSCL4 Leapfrog:          0
PSCL4 MSHR merge:          0
PSCL4 TOTAL     ACCESS:          0  HIT:          0  MISS:          0  HIT %:       -nan  MISS %:       -nan   MPKI: 0
PSCL4 PREFETCH  REQUESTED:          0  ISSUED:          0  USEFUL:          0  USELESS:          0
PSCL4 USEFUL LOAD PREFETCHES:          0 PREFETCH ISSUED TO LOWER LEVEL:          0  ACCURACY: -nan
PSCL4 TIMELY PREFETCHES:          0 LATE PREFETCHES: 0 DROPPED PREFETCHES: 0
PSCL4 COMMIT LATE PREFETCHES: 0 MISSED OPPORTUNITY: 0 LATE IN PQ: 0 UNCOVERED: 0
PSCL4 COMMIT LATE MSHR PREFETCHES: 0
PSCL4 MPKI TOTAL: 0 MSHR LATE: 0 PQ LATE: 0 COMMIT LATE: 0 MISSED OPPORTUNITY: 0 UNCOVERED: 0
PSCL4 PREFETCHES SAME FILL-ORIGIN LEVEL: 0 DIFFERENT FILL-ORIGIN LEVEL: 0

PSCL3 SPEC fills:          0  NON-SPEC fills:          0
PSCL3 Test counter :          0
PSCL3 Leapfrog:          0
PSCL3 MSHR merge:          0
PSCL3 TOTAL     ACCESS:          0  HIT:          0  MISS:          0  HIT %:       -nan  MISS %:       -nan   MPKI: 0
PSCL3 PREFETCH  REQUESTED:          0  ISSUED:          0  USEFUL:          0  USELESS:          0
PSCL3 USEFUL LOAD PREFETCHES:          0 PREFETCH ISSUED TO LOWER LEVEL:          0  ACCURACY: -nan
PSCL3 TIMELY PREFETCHES:          0 LATE PREFETCHES: 0 DROPPED PREFETCHES: 0
PSCL3 COMMIT LATE PREFETCHES: 0 MISSED OPPORTUNITY: 0 LATE IN PQ: 0 UNCOVERED: 0
PSCL3 COMMIT LATE MSHR PREFETCHES: 0
PSCL3 MPKI TOTAL: 0 MSHR LATE: 0 PQ LATE: 0 COMMIT LATE: 0 MISSED OPPORTUNITY: 0 UNCOVERED: 0
PSCL3 PREFETCHES SAME FILL-ORIGIN LEVEL: 0 DIFFERENT FILL-ORIGIN LEVEL: 0

PSCL2 SPEC fills:          0  NON-SPEC fills:          0
PSCL2 Test counter :          0
PSCL2 Leapfrog:          0
PSCL2 MSHR merge:          0
PSCL2 TOTAL     ACCESS:          0  HIT:          0  MISS:          0  HIT %:       -nan  MISS %:       -nan   MPKI: 0
PSCL2 PREFETCH  REQUESTED:          0  ISSUED:          0  USEFUL:          0  USELESS:          0
PSCL2 USEFUL LOAD PREFETCHES:          0 PREFETCH ISSUED TO LOWER LEVEL:          0  ACCURACY: -nan
PSCL2 TIMELY PREFETCHES:          0 LATE PREFETCHES: 0 DROPPED PREFETCHES: 0
PSCL2 COMMIT LATE PREFETCHES: 0 MISSED OPPORTUNITY: 0 LATE IN PQ: 0 UNCOVERED: 0
PSCL2 COMMIT LATE MSHR PREFETCHES: 0
PSCL2 MPKI TOTAL: 0 MSHR LATE: 0 PQ LATE: 0 COMMIT LATE: 0 MISSED OPPORTUNITY: 0 UNCOVERED: 0
PSCL2 PREFETCHES SAME FILL-ORIGIN LEVEL: 0 DIFFERENT FILL-ORIGIN LEVEL: 0

LLC SPEC fills:          0  NON-SPEC fills:     285437
LLC Test counter :    1625594
LLC Leapfrog:          0
LLC MSHR merge:          0
LLC TOTAL     ACCESS:    6015673  HIT:    2113545  MISS:    3902128  HIT %:     35.134  MISS %:     64.866   MPKI: 19.5106
LLC LOAD      TOTAL       ACCESS:    2495293  HIT:     612652  MISS:    1882641  HIT %:    24.5523  MISS %:    75.4477   MPKI: 9.4132
LLC LOAD      NON_SPEC    ACCESS:     443260  HIT:     152211  MISS:     291049  HIT %:     34.339  MISS %:     65.661   MPKI: 1.45524
LLC LOAD      SPEC        ACCESS:    2052033  HIT:     460441  MISS:    1591592  HIT %:    22.4383  MISS %:    77.5617   MPKI: 7.95796
LLC RFO       NON_SPEC    ACCESS:     379638  HIT:     137699  MISS:     241939  HIT %:    36.2711  MISS %:    63.7289   MPKI: 1.20969
LLC WRITEBACK NON_SPEC    ACCESS:     513715  HIT:     512850  MISS:        865  HIT %:    99.8316  MISS %:   0.168381   MPKI: 0.004325
LLC CLEAN_EVICTION NON_SPEC    ACCESS:    2056550  HIT:     457112  MISS:    1599438  HIT %:    22.2271  MISS %:    77.7729   MPKI: 7.99719
LLC COMMIT LOAD NON_SPEC    ACCESS:       5634  HIT:       2947  MISS:       2687  HIT %:    52.3074  MISS %:    47.6926   MPKI: 0.013435
LLC LOAD TRANSLATION NON_SPEC    ACCESS:     564843  HIT:     390285  MISS:     174558  HIT %:    69.0962  MISS %:    30.9038   MPKI: 0.87279
LLC PREFETCH  REQUESTED:          0  ISSUED:          0  USEFUL:          0  USELESS:          0
LLC USEFUL LOAD PREFETCHES:          0 PREFETCH ISSUED TO LOWER LEVEL:          0  ACCURACY: -nan
LLC TIMELY PREFETCHES:          0 LATE PREFETCHES: 0 DROPPED PREFETCHES: 0
LLC COMMIT LATE PREFETCHES: 0 MISSED OPPORTUNITY: 0 LATE IN PQ: 0 UNCOVERED: 0
LLC COMMIT LATE MSHR PREFETCHES: 0
LLC MPKI TOTAL: 9.4132 MSHR LATE: 0 PQ LATE: 0 COMMIT LATE: 0 MISSED OPPORTUNITY: 0 UNCOVERED: 0
LLC PREFETCHES SAME FILL-ORIGIN LEVEL: 0 DIFFERENT FILL-ORIGIN LEVEL: 0
LLC AVERAGE MISS LATENCY: 89.4986 cycles
LLC AVERAGE MISS LATENCY LOAD: 147.457 cycles
LLC AVERAGE MISS LATENCY PREFETCH: -nan cycles
LLC AVERAGE MSHR OCCUPANCY: 0.374639
LLC MSHR FULL: 0
LLC RQ	ACCESS:    3445418	FORWARD:          0	MERGED:          0	TO_CACHE:    3445408
LLC WQ	ACCESS:    2570265	FORWARD:         10	MERGED:          0	TO_CACHE:    2570265

LLC Dense regions hint to LLC: 0

RAW hits: 3457962
Loads Generated: 66872541
Loads sent to L1D: 63414579
Stores Generated: 37145093
Stores sent to L1D: 37145107
Major fault: 0 Minor fault: 53031
Allocated PAGES: 53031
Total Load insts: 78556893
Total Non-spec loads: 27806201
Percentage of speculative loads: 64.6037

LeapFrogging counter: 620
Commit hits: 23013532 miss: 16010014
Commit hit %: 58.9735 miss %: 41.0265
Commits not translated: 0
Loads retired: 3382232
Stores retired: 37145107
Cache fills: 3382232
L1D response latency: 110.158 cycles
Load retirement latency: 197.127 cycles
OOO test counter: 0
Discarded buffer inserts: 23013532 hits: 21592 hit %: 0.0938231

DRAM Statistics
 CHANNEL 0
 RQ ROW_BUFFER_HIT:     165767  ROW_BUFFER_MISS:    2136046
 DBUS_CONGESTED:       1204
 WQ ROW_BUFFER_HIT:     361908  ROW_BUFFER_MISS:    1591892  FULL:          0

 AVG_CONGESTED_CYCLE: 3
 All warmup complete: 2
Channel 0 Bank busy for read cycles: 0
Channel 0 Bank busy for write cycles: 0
Channel 0
Rank 0
0banks busy for read cycles: 375452891
0banks busy for write cycles: 764729
1banks busy for read cycles: 188749452
1banks busy for write cycles: 125019792
2banks busy for read cycles: 45976837
2banks busy for write cycles: 57667895
3banks busy for read cycles: 11041439
3banks busy for write cycles: 24169318
4banks busy for read cycles: 3590082
4banks busy for write cycles: 9217501
5banks busy for read cycles: 101980
5banks busy for write cycles: 3267132
6banks busy for read cycles: 386
6banks busy for write cycles: 1098941
7banks busy for read cycles: 0
7banks busy for write cycles: 290973
8banks busy for read cycles: 0
8banks busy for write cycles: 55136

CPU 0 Branch Prediction Accuracy: 98.172% MPKI: 3.83776 Average ROB Occupancy at Mispredict: 36.8622
Branch types
NOT_BRANCH: 158010836 79.0054%
BRANCH_DIRECT_JUMP: 2330259 1.16513%
BRANCH_INDIRECT: 674228 0.337114%
BRANCH_CONDITIONAL: 26837262 13.4186%
BRANCH_DIRECT_CALL: 3701835 1.85092%
BRANCH_INDIRECT_CALL: 2371706 1.18585%
BRANCH_RETURN: 6073538 3.03677%
BRANCH_OTHER: 0 0%

DRAM PAGES: 1048576
Allocated PAGES: 53031
