
*** ChampSim Multicore Out-of-Order Simulator ***

Warmup Instructions: 50000000
Simulation Instructions: 200000000
Number of CPUs: 1
LLC sets: 2048
LLC ways: 16
L0D sets: 16
L0D ways: 2
ROB size: 352
LQ size: 128
SQ size: 72
Secure Berti: OFF
Berti: OFF
Berti Fill: OFF
On commit prefetching: OFF
Hit-based filter: ON
Time-guarding: ON
Free-slotting: ON
Leap-frogging: ON
Train prefetcher on L0D bypass: OFF
No translation penalty for prefetchers: OFF
Prefetch to L0D only: OFF
Prefetch to L1D only: OFF
Clean evictions: ON
Commit loads: ON
Commit write: ON
Fill commit loads to L2C, LLC: ON
DRAM IO FREQUENCY: 6400
ROB SIZE: 352
Off-chip DRAM Size: 4096 MB Channels: 1 Width: 64-bit Data Rate: 6400 MT/s
CPU 0 runs /home/sumon/secure_berti/GhostMinion/../../traces/spec/621.wrf_s-8065B.champsimtrace.xz
.xz
BTB has LRU replacement policy
ITLB has LRU replacement policy
DTLB has LRU replacement policy
STLB has LRU replacement policy
L1I has LRU replacement policy
L0D has LRU replacement policy
L1D has LRU replacement policy
L2C has LRU replacement policy
LLC has LRU replacement policy
Heartbeat CPU 0 instructions: 10000000 cycles: 3244740 heartbeat IPC: 3.08191 cumulative IPC: 3.08191 (Simulation time: 0 hr 0 min 32 sec) 
Heartbeat CPU 0 instructions: 20000000 cycles: 6407967 heartbeat IPC: 3.16133 cumulative IPC: 3.12111 (Simulation time: 0 hr 0 min 58 sec) 
Heartbeat CPU 0 instructions: 30000000 cycles: 9568239 heartbeat IPC: 3.16428 cumulative IPC: 3.13537 (Simulation time: 0 hr 1 min 25 sec) 
Heartbeat CPU 0 instructions: 40000003 cycles: 12783655 heartbeat IPC: 3.11002 cumulative IPC: 3.129 (Simulation time: 0 hr 1 min 52 sec) 
Heartbeat CPU 0 instructions: 50000000 cycles: 15965818 heartbeat IPC: 3.14252 cumulative IPC: 3.13169 (Simulation time: 0 hr 2 min 20 sec) 

Warmup complete CPU 0 instructions: 50000004 cycles: 15965819 (Simulation time: 0 hr 2 min 20 sec) 

Heartbeat CPU 0 instructions: 60000003 cycles: 26242029 heartbeat IPC: 0.973122 cumulative IPC: 0.973121 (Simulation time: 0 hr 2 min 55 sec) 
Heartbeat CPU 0 instructions: 70000001 cycles: 37279034 heartbeat IPC: 0.906043 cumulative IPC: 0.938385 (Simulation time: 0 hr 3 min 29 sec) 
Heartbeat CPU 0 instructions: 80000001 cycles: 48335077 heartbeat IPC: 0.904483 cumulative IPC: 0.926805 (Simulation time: 0 hr 4 min 6 sec) 
Heartbeat CPU 0 instructions: 90000000 cycles: 59188322 heartbeat IPC: 0.921383 cumulative IPC: 0.925444 (Simulation time: 0 hr 4 min 40 sec) 
Heartbeat CPU 0 instructions: 100000000 cycles: 70365084 heartbeat IPC: 0.894714 cumulative IPC: 0.91913 (Simulation time: 0 hr 5 min 18 sec) 
Heartbeat CPU 0 instructions: 110000000 cycles: 81000861 heartbeat IPC: 0.940223 cumulative IPC: 0.922579 (Simulation time: 0 hr 5 min 53 sec) 
Heartbeat CPU 0 instructions: 120000000 cycles: 96014495 heartbeat IPC: 0.666061 cumulative IPC: 0.874468 (Simulation time: 0 hr 6 min 37 sec) 
Heartbeat CPU 0 instructions: 130000002 cycles: 108256758 heartbeat IPC: 0.816843 cumulative IPC: 0.866824 (Simulation time: 0 hr 7 min 19 sec) 
Heartbeat CPU 0 instructions: 140000001 cycles: 120590180 heartbeat IPC: 0.810805 cumulative IPC: 0.86022 (Simulation time: 0 hr 8 min 0 sec) 
Heartbeat CPU 0 instructions: 150000002 cycles: 135239661 heartbeat IPC: 0.682618 cumulative IPC: 0.838407 (Simulation time: 0 hr 8 min 45 sec) 
Heartbeat CPU 0 instructions: 160000001 cycles: 153554801 heartbeat IPC: 0.545996 cumulative IPC: 0.799483 (Simulation time: 0 hr 9 min 29 sec) 
Heartbeat CPU 0 instructions: 170000003 cycles: 169504492 heartbeat IPC: 0.626972 cumulative IPC: 0.781562 (Simulation time: 0 hr 10 min 16 sec) 
Heartbeat CPU 0 instructions: 180000001 cycles: 178294759 heartbeat IPC: 1.13762 cumulative IPC: 0.800843 (Simulation time: 0 hr 10 min 52 sec) 
Heartbeat CPU 0 instructions: 190000001 cycles: 187572247 heartbeat IPC: 1.07788 cumulative IPC: 0.81582 (Simulation time: 0 hr 11 min 30 sec) 
Heartbeat CPU 0 instructions: 200000003 cycles: 197080550 heartbeat IPC: 1.05171 cumulative IPC: 0.828204 (Simulation time: 0 hr 12 min 7 sec) 
Heartbeat CPU 0 instructions: 210000000 cycles: 206209738 heartbeat IPC: 1.09539 cumulative IPC: 0.841026 (Simulation time: 0 hr 12 min 41 sec) 
Heartbeat CPU 0 instructions: 220000000 cycles: 215045655 heartbeat IPC: 1.13174 cumulative IPC: 0.853929 (Simulation time: 0 hr 13 min 18 sec) 
Heartbeat CPU 0 instructions: 230000000 cycles: 228802914 heartbeat IPC: 0.726889 cumulative IPC: 0.845717 (Simulation time: 0 hr 13 min 59 sec) 
Heartbeat CPU 0 instructions: 240000001 cycles: 256498508 heartbeat IPC: 0.361068 cumulative IPC: 0.789913 (Simulation time: 0 hr 14 min 57 sec) 
Heartbeat CPU 0 instructions: 250000001 cycles: 272293849 heartbeat IPC: 0.633098 cumulative IPC: 0.78025 (Simulation time: 0 hr 15 min 45 sec) 
Finished CPU 0 instructions: 200000001 cycles: 256328031 cumulative IPC: 0.78025 (Simulation time: 0 hr 15 min 45 sec) 
 Instruction ID: 250000315

ChampSim completed all CPUs

Region of Interest Statistics

CPU 0 cumulative IPC: 0.78025 instructions: 200000001 cycles: 256328031
ITLB SPEC fills:          0  NON-SPEC fills:          0
ITLB Test counter :          0
ITLB Leapfrog:          0
ITLB MSHR merge:          0
ITLB TOTAL     ACCESS:   28445964  HIT:   28445829  MISS:        135  HIT %:    99.9995  MISS %: 0.000474584   MPKI: 0.000675
ITLB LOAD TRANSLATION NON_SPEC    ACCESS:   28445964  HIT:   28445829  MISS:        135  HIT %:    99.9995  MISS %: 0.000474584   MPKI: 0.000675
ITLB PREFETCH  REQUESTED:          0  ISSUED:          0  USEFUL:          0  USELESS:          0
ITLB USEFUL LOAD PREFETCHES:          0 PREFETCH ISSUED TO LOWER LEVEL:          0  ACCURACY: -nan
ITLB TIMELY PREFETCHES:          0 LATE PREFETCHES: 0 DROPPED PREFETCHES: 0
ITLB COMMIT LATE PREFETCHES: 0 MISSED OPPORTUNITY: 0 LATE IN PQ: 0 UNCOVERED: 0
ITLB COMMIT LATE MSHR PREFETCHES: 0
ITLB MPKI TOTAL: 0 MSHR LATE: 0 PQ LATE: 0 COMMIT LATE: 0 MISSED OPPORTUNITY: 0 UNCOVERED: 0
ITLB PREFETCHES SAME FILL-ORIGIN LEVEL: 0 DIFFERENT FILL-ORIGIN LEVEL: 0
ITLB AVERAGE MISS LATENCY: 311.2 cycles
ITLB AVERAGE MISS LATENCY LOAD: -nan cycles
ITLB AVERAGE MISS LATENCY PREFETCH: -nan cycles
ITLB AVERAGE MSHR OCCUPANCY: 1.86318e-06
ITLB MSHR FULL: 0
ITLB RQ	ACCESS:   34642629	FORWARD:          0	MERGED:    6196614	TO_CACHE:   28446015

DTLB SPEC fills:          0  NON-SPEC fills:          0
DTLB Test counter :          0
DTLB Leapfrog:          0
DTLB MSHR merge:          0
DTLB TOTAL     ACCESS:   45651702  HIT:   45582319  MISS:      69383  HIT %:     99.848  MISS %:   0.151983   MPKI: 0.346915
DTLB LOAD TRANSLATION NON_SPEC    ACCESS:   45651702  HIT:   45582319  MISS:      69383  HIT %:     99.848  MISS %:   0.151983   MPKI: 0.346915
DTLB PREFETCH  REQUESTED:          0  ISSUED:          0  USEFUL:          0  USELESS:          0
DTLB USEFUL LOAD PREFETCHES:          0 PREFETCH ISSUED TO LOWER LEVEL:          0  ACCURACY: -nan
DTLB TIMELY PREFETCHES:          0 LATE PREFETCHES: 0 DROPPED PREFETCHES: 0
DTLB COMMIT LATE PREFETCHES: 0 MISSED OPPORTUNITY: 0 LATE IN PQ: 0 UNCOVERED: 0
DTLB COMMIT LATE MSHR PREFETCHES: 0
DTLB MPKI TOTAL: 0 MSHR LATE: 0 PQ LATE: 0 COMMIT LATE: 0 MISSED OPPORTUNITY: 0 UNCOVERED: 0
DTLB PREFETCHES SAME FILL-ORIGIN LEVEL: 0 DIFFERENT FILL-ORIGIN LEVEL: 0
DTLB AVERAGE MISS LATENCY: 44.8993 cycles
DTLB AVERAGE MISS LATENCY LOAD: -nan cycles
DTLB AVERAGE MISS LATENCY PREFETCH: -nan cycles
DTLB AVERAGE MSHR OCCUPANCY: 0.00934396
DTLB MSHR FULL: 8.55707e-05
DTLB RQ	ACCESS:   52876686	FORWARD:          0	MERGED:    7175604	TO_CACHE:   45701082

STLB SPEC fills:          0  NON-SPEC fills:          0
STLB Test counter :          0
STLB Leapfrog:          0
STLB MSHR merge:          0
STLB TOTAL     ACCESS:      69518  HIT:      54010  MISS:      15508  HIT %:    77.6921  MISS %:    22.3079   MPKI: 0.07754
STLB LOAD TRANSLATION NON_SPEC    ACCESS:      69518  HIT:      54010  MISS:      15508  HIT %:    77.6921  MISS %:    22.3079   MPKI: 0.07754
STLB PREFETCH  REQUESTED:          0  ISSUED:          0  USEFUL:          0  USELESS:          0
STLB USEFUL LOAD PREFETCHES:          0 PREFETCH ISSUED TO LOWER LEVEL:          0  ACCURACY: -nan
STLB TIMELY PREFETCHES:          0 LATE PREFETCHES: 0 DROPPED PREFETCHES: 0
STLB COMMIT LATE PREFETCHES: 0 MISSED OPPORTUNITY: 0 LATE IN PQ: 0 UNCOVERED: 0
STLB COMMIT LATE MSHR PREFETCHES: 0
STLB MPKI TOTAL: 0 MSHR LATE: 0 PQ LATE: 0 COMMIT LATE: 0 MISSED OPPORTUNITY: 0 UNCOVERED: 0
STLB PREFETCHES SAME FILL-ORIGIN LEVEL: 0 DIFFERENT FILL-ORIGIN LEVEL: 0
STLB AVERAGE MISS LATENCY: 162.763 cycles
STLB AVERAGE MISS LATENCY LOAD: -nan cycles
STLB AVERAGE MISS LATENCY PREFETCH: -nan cycles
STLB AVERAGE MSHR OCCUPANCY: 0.0498144
STLB MSHR FULL: 0
STLB RQ	ACCESS:      69518	FORWARD:          0	MERGED:          0	TO_CACHE:      69518

STLB Hit, L1D data hit: 0
STLB Hit, L2C data hit: 0
STLB Hit, LLC data hit: 0
STLB Hit, LLC data miss: 0
STLB STLB hints to L2: 0
L0D SPEC fills:   25093503  NON-SPEC fills:          0
L0D TimeGuard Request with older TS:     822015 Restricted eviction:     673102 read:    1388317
L0D Test counter :          0
L0D Leapfrog:          0
L0D MSHR merge:    3605235
L0D TOTAL     ACCESS:   40773972  HIT:   10754734  MISS:   30019238  HIT %:    26.3765  MISS %:    73.6235   MPKI: 150.096
L0D LOAD      TOTAL       ACCESS:   40773972  HIT:   10754734  MISS:   30019238  HIT %:    26.3765  MISS %:    73.6235   MPKI: 150.096
L0D LOAD      NON_SPEC    ACCESS:    4980050  HIT:     727099  MISS:    4252951  HIT %:    14.6002  MISS %:    85.3998   MPKI: 21.2648
L0D LOAD      SPEC        ACCESS:   35793922  HIT:   10027635  MISS:   25766287  HIT %:    28.0149  MISS %:    71.9851   MPKI: 128.831
L0D PREFETCH  REQUESTED:          0  ISSUED:          0  USEFUL:          0  USELESS:          0
L0D USEFUL LOAD PREFETCHES:          0 PREFETCH ISSUED TO LOWER LEVEL:          0  ACCURACY: -nan
L0D TIMELY PREFETCHES:          0 LATE PREFETCHES: 0 DROPPED PREFETCHES: 0
L0D COMMIT LATE PREFETCHES: 0 MISSED OPPORTUNITY: 0 LATE IN PQ: 0 UNCOVERED: 0
L0D COMMIT LATE MSHR PREFETCHES: 0
L0D MPKI TOTAL: 168.122 MSHR LATE: 0 PQ LATE: 0 COMMIT LATE: 0 MISSED OPPORTUNITY: 0 UNCOVERED: 0
L0D PREFETCHES SAME FILL-ORIGIN LEVEL: 0 DIFFERENT FILL-ORIGIN LEVEL: 0
L0D AVERAGE MISS LATENCY: 14.5647 cycles
L0D AVERAGE MISS LATENCY LOAD: 14.5647 cycles
L0D AVERAGE MISS LATENCY PREFETCH: -nan cycles
L0D AVERAGE MSHR OCCUPANCY: 2.69167
L0D MSHR FULL: 0.122836
L0D RQ	ACCESS:   60733987	FORWARD:          0	MERGED:   16354780	TO_CACHE:   44379207
L0D WQ	ACCESS:    8497479	FORWARD:          0	MERGED:          0	TO_CACHE:    8497479

L1D SPEC fills:          0  NON-SPEC fills:      98545
L1D Test counter :    1522888
L1D Leapfrog:          0
L1D MSHR merge:      20217
L1D TOTAL     ACCESS:   41349022  HIT:   36662511  MISS:    4686511  HIT %:     88.666  MISS %:     11.334   MPKI: 23.4326
L1D LOAD      TOTAL       ACCESS:   29999022  HIT:   27713331  MISS:    2285691  HIT %:    92.3808  MISS %:    7.61922   MPKI: 11.4285
L1D LOAD      NON_SPEC    ACCESS:    4251541  HIT:    4152996  MISS:      98545  HIT %:    97.6821  MISS %:    2.31787   MPKI: 0.492725
L1D LOAD      SPEC        ACCESS:   25747481  HIT:   23560335  MISS:    2187146  HIT %:    91.5054  MISS %:     8.4946   MPKI: 10.9357
L1D RFO       NON_SPEC    ACCESS:    6784249  HIT:    6500957  MISS:     283292  HIT %:    95.8243  MISS %:    4.17573   MPKI: 1.41646
L1D COMMIT LOAD NON_SPEC    ACCESS:    2250300  HIT:    2120693  MISS:     129607  HIT %:    94.2405  MISS %:    5.75954   MPKI: 0.648035
L1D COMMIT WRITE NON_SPEC    ACCESS:    2315451  HIT:     327530  MISS:    1987921  HIT %:    14.1454  MISS %:    85.8546   MPKI: 9.9396
L1D PREFETCH  REQUESTED:          0  ISSUED:          0  USEFUL:          0  USELESS:          0
L1D USEFUL LOAD PREFETCHES:          0 PREFETCH ISSUED TO LOWER LEVEL:          0  ACCURACY: -nan
L1D TIMELY PREFETCHES:          0 LATE PREFETCHES: 0 DROPPED PREFETCHES: 0
L1D COMMIT LATE PREFETCHES: 0 MISSED OPPORTUNITY: 0 LATE IN PQ: 0 UNCOVERED: 0
L1D COMMIT LATE MSHR PREFETCHES: 0
L1D MPKI TOTAL: 11.5295 MSHR LATE: 0 PQ LATE: 0 COMMIT LATE: 0 MISSED OPPORTUNITY: 0 UNCOVERED: 0
L1D PREFETCHES SAME FILL-ORIGIN LEVEL: 0 DIFFERENT FILL-ORIGIN LEVEL: 0
L1D AVERAGE MISS LATENCY: 77.0839 cycles
L1D AVERAGE MISS LATENCY LOAD: 116.187 cycles
L1D AVERAGE MISS LATENCY PREFETCH: -nan cycles
L1D AVERAGE MSHR OCCUPANCY: 0.682428
L1D MSHR FULL: 0.00344416
L1D RQ	ACCESS:   33890984	FORWARD:          0	MERGED:    1506656	TO_CACHE:   32292534
L1D WQ	ACCESS:   10158161	FORWARD:      91794	MERGED:     111753	TO_CACHE:   10046408

L1D UNIQUE REGIONS ACCESSED: 0
L1D REGIONS CONFLICTS: 0
L1D Cross Page Prefetch Requests: 0
L1D Same Page Prefetch Requests: 0
L1D ROI Sum of L1D PQ occupancy: 0
L1D PREFETCHES PUSHED FROM L2C: 0
L1I SPEC fills:          0  NON-SPEC fills:          0
L1I Test counter :          0
L1I Leapfrog:          0
L1I MSHR merge:       2395
L1I TOTAL     ACCESS:   34640233  HIT:   34635435  MISS:       4798  HIT %:    99.9861  MISS %:  0.0138509   MPKI: 0.02399
L1I LOAD      TOTAL       ACCESS:   34640233  HIT:   34635435  MISS:       4798  HIT %:    99.9861  MISS %:  0.0138509   MPKI: 0.02399
L1I LOAD      NON_SPEC    ACCESS:   34640233  HIT:   34635435  MISS:       4798  HIT %:    99.9861  MISS %:  0.0138509   MPKI: 0.02399
L1I PREFETCH  REQUESTED:          0  ISSUED:          0  USEFUL:          0  USELESS:          0
L1I USEFUL LOAD PREFETCHES:          0 PREFETCH ISSUED TO LOWER LEVEL:          0  ACCURACY: -nan
L1I TIMELY PREFETCHES:          0 LATE PREFETCHES: 0 DROPPED PREFETCHES: 0
L1I COMMIT LATE PREFETCHES: 0 MISSED OPPORTUNITY: 0 LATE IN PQ: 0 UNCOVERED: 0
L1I COMMIT LATE MSHR PREFETCHES: 0
L1I MPKI TOTAL: 0.035965 MSHR LATE: 0 PQ LATE: 0 COMMIT LATE: 0 MISSED OPPORTUNITY: 0 UNCOVERED: 0
L1I PREFETCHES SAME FILL-ORIGIN LEVEL: 0 DIFFERENT FILL-ORIGIN LEVEL: 0
L1I AVERAGE MISS LATENCY: 241.894 cycles
L1I AVERAGE MISS LATENCY LOAD: 241.894 cycles
L1I AVERAGE MISS LATENCY PREFETCH: -nan cycles
L1I AVERAGE MSHR OCCUPANCY: 0.000179634
L1I MSHR FULL: 0
L1I RQ	ACCESS:   51925966	FORWARD:          0	MERGED:   17283337	TO_CACHE:   34642629

BTB SPEC fills:          0  NON-SPEC fills:          0
BTB Test counter :          0
BTB Leapfrog:          0
BTB MSHR merge:          0
BTB TOTAL     ACCESS:    8324265  HIT:    8322682  MISS:       1583  HIT %:     99.981  MISS %:  0.0190167   MPKI: 0.007915
BTB BRANCH_DIRECT_JUMP	ACCESS:     290669  HIT:     290546  MISS:        123
BTB BRANCH_INDIRECT	ACCESS:         14  HIT:          6  MISS:          8
BTB BRANCH_CONDITIONAL	ACCESS:    7471645  HIT:    7470909  MISS:        736
BTB BRANCH_DIRECT_CALL	ACCESS:     280969  HIT:     280663  MISS:        306
BTB BRANCH_INDIRECT_CALL	ACCESS:          0  HIT:          0  MISS:          0
BTB BRANCH_RETURN	ACCESS:     280968  HIT:     280558  MISS:        410
BTB BRANCH_OTHER ACCESS:          0  HIT:          0  MISS:          0

L2C SPEC fills:          0  NON-SPEC fills:      61394
L2C Test counter :    1391455
L2C Leapfrog:          0
L2C MSHR merge:          0
L2C TOTAL     ACCESS:    4618216  HIT:    1483997  MISS:    3134219  HIT %:    32.1336  MISS %:    67.8664   MPKI: 15.6711
L2C LOAD      TOTAL       ACCESS:    2289697  HIT:     792614  MISS:    1497083  HIT %:    34.6165  MISS %:    65.3835   MPKI: 7.48541
L2C LOAD      NON_SPEC    ACCESS:     103329  HIT:      37137  MISS:      66192  HIT %:    35.9405  MISS %:    64.0595   MPKI: 0.33096
L2C LOAD      SPEC        ACCESS:    2186368  HIT:     755477  MISS:    1430891  HIT %:     34.554  MISS %:     65.446   MPKI: 7.15445
L2C RFO       NON_SPEC    ACCESS:     283281  HIT:      56293  MISS:     226988  HIT %:    19.8718  MISS %:    80.1282   MPKI: 1.13494
L2C WRITEBACK NON_SPEC    ACCESS:     315209  HIT:     313275  MISS:       1934  HIT %:    99.3864  MISS %:   0.613561   MPKI: 0.00967
L2C CLEAN_EVICTION NON_SPEC    ACCESS:    1522888  HIT:     155933  MISS:    1366955  HIT %:    10.2393  MISS %:    89.7607   MPKI: 6.83477
L2C COMMIT LOAD NON_SPEC    ACCESS:     129607  HIT:      91185  MISS:      38422  HIT %:     70.355  MISS %:     29.645   MPKI: 0.19211
L2C LOAD TRANSLATION NON_SPEC    ACCESS:      77534  HIT:      74697  MISS:       2837  HIT %:     96.341  MISS %:    3.65904   MPKI: 0.014185
L2C PREFETCH  REQUESTED:          0  ISSUED:          0  USEFUL:          0  USELESS:          0
L2C USEFUL LOAD PREFETCHES:          0 PREFETCH ISSUED TO LOWER LEVEL:          0  ACCURACY: -nan
L2C TIMELY PREFETCHES:          0 LATE PREFETCHES: 0 DROPPED PREFETCHES: 0
L2C COMMIT LATE PREFETCHES: 0 MISSED OPPORTUNITY: 0 LATE IN PQ: 0 UNCOVERED: 0
L2C COMMIT LATE MSHR PREFETCHES: 0
L2C MPKI TOTAL: 7.48541 MSHR LATE: 0 PQ LATE: 0 COMMIT LATE: 0 MISSED OPPORTUNITY: 0 UNCOVERED: 0
L2C PREFETCHES SAME FILL-ORIGIN LEVEL: 0 DIFFERENT FILL-ORIGIN LEVEL: 0
L2C AVERAGE MISS LATENCY: 105.717 cycles
L2C AVERAGE MISS LATENCY LOAD: 160.992 cycles
L2C AVERAGE MISS LATENCY PREFETCH: -nan cycles
L2C AVERAGE MSHR OCCUPANCY: 1.83035
L2C MSHR FULL: 0
L2C RQ	ACCESS:    2780921	FORWARD:          0	MERGED:          0	TO_CACHE:    2780118
L2C WQ	ACCESS:    1838114	FORWARD:        803	MERGED:         17	TO_CACHE:    1838097

L2C Instructions Evicting Data 4779
L2C Translations Evicting Data 2825
L2C Data Evicting Data 325208
L2C Instructions Evicting Instructions 10
L2C Translations Evicting Instructions 10
L2C Data Evicting Instructions 936
L2C Instructions Evicting Translations 9
L2C Translations Evicting Translations 2
L2C Data Evicting Translations 713
L2C Dense regions hint from L2: 0
PSCL5 SPEC fills:          0  NON-SPEC fills:          0
PSCL5 Test counter :          0
PSCL5 Leapfrog:          0
PSCL5 MSHR merge:          0
PSCL5 TOTAL     ACCESS:          0  HIT:          0  MISS:          0  HIT %:       -nan  MISS %:       -nan   MPKI: 0
PSCL5 PREFETCH  REQUESTED:          0  ISSUED:          0  USEFUL:          0  USELESS:          0
PSCL5 USEFUL LOAD PREFETCHES:          0 PREFETCH ISSUED TO LOWER LEVEL:          0  ACCURACY: -nan
PSCL5 TIMELY PREFETCHES:          0 LATE PREFETCHES: 0 DROPPED PREFETCHES: 0
PSCL5 COMMIT LATE PREFETCHES: 0 MISSED OPPORTUNITY: 0 LATE IN PQ: 0 UNCOVERED: 0
PSCL5 COMMIT LATE MSHR PREFETCHES: 0
PSCL5 MPKI TOTAL: 0 MSHR LATE: 0 PQ LATE: 0 COMMIT LATE: 0 MISSED OPPORTUNITY: 0 UNCOVERED: 0
PSCL5 PREFETCHES SAME FILL-ORIGIN LEVEL: 0 DIFFERENT FILL-ORIGIN LEVEL: 0

PSCL4 SPEC fills:          0  NON-SPEC fills:          0
PSCL4 Test counter :          0
PSCL4 Leapfrog:          0
PSCL4 MSHR merge:          0
PSCL4 TOTAL     ACCESS:          0  HIT:          0  MISS:          0  HIT %:       -nan  MISS %:       -nan   MPKI: 0
PSCL4 PREFETCH  REQUESTED:          0  ISSUED:          0  USEFUL:          0  USELESS:          0
PSCL4 USEFUL LOAD PREFETCHES:          0 PREFETCH ISSUED TO LOWER LEVEL:          0  ACCURACY: -nan
PSCL4 TIMELY PREFETCHES:          0 LATE PREFETCHES: 0 DROPPED PREFETCHES: 0
PSCL4 COMMIT LATE PREFETCHES: 0 MISSED OPPORTUNITY: 0 LATE IN PQ: 0 UNCOVERED: 0
PSCL4 COMMIT LATE MSHR PREFETCHES: 0
PSCL4 MPKI TOTAL: 0 MSHR LATE: 0 PQ LATE: 0 COMMIT LATE: 0 MISSED OPPORTUNITY: 0 UNCOVERED: 0
PSCL4 PREFETCHES SAME FILL-ORIGIN LEVEL: 0 DIFFERENT FILL-ORIGIN LEVEL: 0

PSCL3 SPEC fills:          0  NON-SPEC fills:          0
PSCL3 Test counter :          0
PSCL3 Leapfrog:          0
PSCL3 MSHR merge:          0
PSCL3 TOTAL     ACCESS:          0  HIT:          0  MISS:          0  HIT %:       -nan  MISS %:       -nan   MPKI: 0
PSCL3 PREFETCH  REQUESTED:          0  ISSUED:          0  USEFUL:          0  USELESS:          0
PSCL3 USEFUL LOAD PREFETCHES:          0 PREFETCH ISSUED TO LOWER LEVEL:          0  ACCURACY: -nan
PSCL3 TIMELY PREFETCHES:          0 LATE PREFETCHES: 0 DROPPED PREFETCHES: 0
PSCL3 COMMIT LATE PREFETCHES: 0 MISSED OPPORTUNITY: 0 LATE IN PQ: 0 UNCOVERED: 0
PSCL3 COMMIT LATE MSHR PREFETCHES: 0
PSCL3 MPKI TOTAL: 0 MSHR LATE: 0 PQ LATE: 0 COMMIT LATE: 0 MISSED OPPORTUNITY: 0 UNCOVERED: 0
PSCL3 PREFETCHES SAME FILL-ORIGIN LEVEL: 0 DIFFERENT FILL-ORIGIN LEVEL: 0

PSCL2 SPEC fills:          0  NON-SPEC fills:          0
PSCL2 Test counter :          0
PSCL2 Leapfrog:          0
PSCL2 MSHR merge:          0
PSCL2 TOTAL     ACCESS:          0  HIT:          0  MISS:          0  HIT %:       -nan  MISS %:       -nan   MPKI: 0
PSCL2 PREFETCH  REQUESTED:          0  ISSUED:          0  USEFUL:          0  USELESS:          0
PSCL2 USEFUL LOAD PREFETCHES:          0 PREFETCH ISSUED TO LOWER LEVEL:          0  ACCURACY: -nan
PSCL2 TIMELY PREFETCHES:          0 LATE PREFETCHES: 0 DROPPED PREFETCHES: 0
PSCL2 COMMIT LATE PREFETCHES: 0 MISSED OPPORTUNITY: 0 LATE IN PQ: 0 UNCOVERED: 0
PSCL2 COMMIT LATE MSHR PREFETCHES: 0
PSCL2 MPKI TOTAL: 0 MSHR LATE: 0 PQ LATE: 0 COMMIT LATE: 0 MISSED OPPORTUNITY: 0 UNCOVERED: 0
PSCL2 PREFETCHES SAME FILL-ORIGIN LEVEL: 0 DIFFERENT FILL-ORIGIN LEVEL: 0

LLC SPEC fills:          0  NON-SPEC fills:      41327
LLC Test counter :    1007863
LLC Leapfrog:          0
LLC MSHR merge:          0
LLC TOTAL     ACCESS:    3414055  HIT:    1145955  MISS:    2268100  HIT %:    33.5658  MISS %:    66.4342   MPKI: 11.3405
LLC LOAD      TOTAL       ACCESS:    1497081  HIT:     468284  MISS:    1028797  HIT %:    31.2798  MISS %:    68.7202   MPKI: 5.14398
LLC LOAD      NON_SPEC    ACCESS:      66192  HIT:      20067  MISS:      46125  HIT %:    30.3164  MISS %:    69.6836   MPKI: 0.230625
LLC LOAD      SPEC        ACCESS:    1430889  HIT:     448217  MISS:     982672  HIT %:    31.3244  MISS %:    68.6756   MPKI: 4.91336
LLC RFO       NON_SPEC    ACCESS:     226988  HIT:      10707  MISS:     216281  HIT %:    4.71699  MISS %:     95.283   MPKI: 1.0814
LLC WRITEBACK NON_SPEC    ACCESS:     257273  HIT:     256049  MISS:       1224  HIT %:    99.5242  MISS %:   0.475759   MPKI: 0.00612
LLC CLEAN_EVICTION NON_SPEC    ACCESS:    1391454  HIT:     392895  MISS:     998559  HIT %:    28.2363  MISS %:    71.7637   MPKI: 4.99279
LLC COMMIT LOAD NON_SPEC    ACCESS:      38422  HIT:      17798  MISS:      20624  HIT %:    46.3224  MISS %:    53.6776   MPKI: 0.10312
LLC LOAD TRANSLATION NON_SPEC    ACCESS:       2837  HIT:        222  MISS:       2615  HIT %:    7.82517  MISS %:    92.1748   MPKI: 0.013075
LLC PREFETCH  REQUESTED:          0  ISSUED:          0  USEFUL:          0  USELESS:          0
LLC USEFUL LOAD PREFETCHES:          0 PREFETCH ISSUED TO LOWER LEVEL:          0  ACCURACY: -nan
LLC TIMELY PREFETCHES:          0 LATE PREFETCHES: 0 DROPPED PREFETCHES: 0
LLC COMMIT LATE PREFETCHES: 0 MISSED OPPORTUNITY: 0 LATE IN PQ: 0 UNCOVERED: 0
LLC COMMIT LATE MSHR PREFETCHES: 0
LLC MPKI TOTAL: 5.14398 MSHR LATE: 0 PQ LATE: 0 COMMIT LATE: 0 MISSED OPPORTUNITY: 0 UNCOVERED: 0
LLC PREFETCHES SAME FILL-ORIGIN LEVEL: 0 DIFFERENT FILL-ORIGIN LEVEL: 0
LLC AVERAGE MISS LATENCY: 128.33 cycles
LLC AVERAGE MISS LATENCY LOAD: 203.053 cycles
LLC AVERAGE MISS LATENCY PREFETCH: -nan cycles
LLC AVERAGE MSHR OCCUPANCY: 1.61121
LLC MSHR FULL: 0
LLC RQ	ACCESS:    1765329	FORWARD:          0	MERGED:          0	TO_CACHE:    1765327
LLC WQ	ACCESS:    1648728	FORWARD:          2	MERGED:          0	TO_CACHE:    1648728

LLC Dense regions hint to LLC: 0

RAW hits: 315257
Loads Generated: 61049246
Loads sent to L1D: 60733987
Stores Generated: 8497472
Stores sent to L1D: 8497479
Major fault: 0 Minor fault: 8737
Allocated PAGES: 8737
Total Load insts: 76927755
Total Non-spec loads: 5676765
Percentage of speculative loads: 92.6207

LeapFrogging counter: 2044709
Commit hits: 24340676 miss: 31139400
Commit hit %: 43.8728 miss %: 56.1272
Commits not translated: 0
Loads retired: 2285691
Stores retired: 8497479
Cache fills: 2285691
L1D response latency: 116.187 cycles
Load retirement latency: 235.918 cycles
OOO test counter: 0
Discarded buffer inserts: 24340676 hits: 36898 hit %: 0.15159

DRAM Statistics
 CHANNEL 0
 RQ ROW_BUFFER_HIT:     142481  ROW_BUFFER_MISS:    1125740
 DBUS_CONGESTED:        261
 WQ ROW_BUFFER_HIT:     415742  ROW_BUFFER_MISS:     829464  FULL:      46110

 AVG_CONGESTED_CYCLE: 5
 All warmup complete: 2
Channel 0 Bank busy for read cycles: 0
Channel 0 Bank busy for write cycles: 0
Channel 0
Rank 0
0banks busy for read cycles: 91332298
0banks busy for write cycles: 184073
1banks busy for read cycles: 53133444
1banks busy for write cycles: 26234253
2banks busy for read cycles: 23628537
2banks busy for write cycles: 9200789
3banks busy for read cycles: 10643487
3banks busy for write cycles: 4309601
4banks busy for read cycles: 4298160
4banks busy for write cycles: 2782500
5banks busy for read cycles: 2547685
5banks busy for write cycles: 1952776
6banks busy for read cycles: 1122322
6banks busy for write cycles: 1616385
7banks busy for read cycles: 548642
7banks busy for write cycles: 2707795
8banks busy for read cycles: 774456
8banks busy for write cycles: 19310829

CPU 0 Branch Prediction Accuracy: 99.8281% MPKI: 0.09468 Average ROB Occupancy at Mispredict: 205.927
Branch types
NOT_BRANCH: 188986253 94.4931%
BRANCH_DIRECT_JUMP: 290669 0.145334%
BRANCH_INDIRECT: 14 7e-06%
BRANCH_CONDITIONAL: 10161056 5.08053%
BRANCH_DIRECT_CALL: 280969 0.140484%
BRANCH_INDIRECT_CALL: 0 0%
BRANCH_RETURN: 280968 0.140484%
BRANCH_OTHER: 0 0%

DRAM PAGES: 1048576
Allocated PAGES: 8737
