
*** ChampSim Multicore Out-of-Order Simulator ***

Warmup Instructions: 50000000
Simulation Instructions: 200000000
Number of CPUs: 1
LLC sets: 2048
LLC ways: 16
L0D sets: 16
L0D ways: 2
ROB size: 352
LQ size: 128
SQ size: 72
Secure Berti: OFF
Berti: OFF
Berti Fill: OFF
On commit prefetching: OFF
Hit-based filter: ON
Time-guarding: ON
Free-slotting: ON
Leap-frogging: ON
Train prefetcher on L0D bypass: OFF
No translation penalty for prefetchers: OFF
Prefetch to L0D only: OFF
Prefetch to L1D only: OFF
Clean evictions: ON
Commit loads: ON
Commit write: ON
Fill commit loads to L2C, LLC: ON
DRAM IO FREQUENCY: 6400
ROB SIZE: 352
Off-chip DRAM Size: 4096 MB Channels: 1 Width: 64-bit Data Rate: 6400 MT/s
CPU 0 runs /home/sumon/secure_berti/GhostMinion/../../traces/spec/623.xalancbmk_s-10B.champsimtrace.xz
.xz
BTB has LRU replacement policy
ITLB has LRU replacement policy
DTLB has LRU replacement policy
STLB has LRU replacement policy
L1I has LRU replacement policy
L0D has LRU replacement policy
L1D has LRU replacement policy
L2C has LRU replacement policy
LLC has LRU replacement policy
Heartbeat CPU 0 instructions: 10000003 cycles: 5034065 heartbeat IPC: 1.98647 cumulative IPC: 1.98647 (Simulation time: 0 hr 0 min 33 sec) 
Heartbeat CPU 0 instructions: 20000000 cycles: 10144444 heartbeat IPC: 1.9568 cumulative IPC: 1.97152 (Simulation time: 0 hr 1 min 8 sec) 
Heartbeat CPU 0 instructions: 30000001 cycles: 15316901 heartbeat IPC: 1.93332 cumulative IPC: 1.95862 (Simulation time: 0 hr 1 min 42 sec) 
Heartbeat CPU 0 instructions: 40000000 cycles: 20451194 heartbeat IPC: 1.94769 cumulative IPC: 1.95588 (Simulation time: 0 hr 2 min 16 sec) 
Heartbeat CPU 0 instructions: 50000000 cycles: 25843933 heartbeat IPC: 1.85435 cumulative IPC: 1.93469 (Simulation time: 0 hr 2 min 49 sec) 

Warmup complete CPU 0 instructions: 50000002 cycles: 25843938 (Simulation time: 0 hr 2 min 49 sec) 

Heartbeat CPU 0 instructions: 60000002 cycles: 65315552 heartbeat IPC: 0.253347 cumulative IPC: 0.253347 (Simulation time: 0 hr 3 min 45 sec) 
Heartbeat CPU 0 instructions: 70000000 cycles: 103786797 heartbeat IPC: 0.259934 cumulative IPC: 0.256598 (Simulation time: 0 hr 4 min 39 sec) 
Heartbeat CPU 0 instructions: 80000003 cycles: 143165420 heartbeat IPC: 0.253945 cumulative IPC: 0.255708 (Simulation time: 0 hr 5 min 34 sec) 
Heartbeat CPU 0 instructions: 90000002 cycles: 179110100 heartbeat IPC: 0.278205 cumulative IPC: 0.260984 (Simulation time: 0 hr 6 min 26 sec) 
Heartbeat CPU 0 instructions: 100000003 cycles: 218474909 heartbeat IPC: 0.254034 cumulative IPC: 0.259564 (Simulation time: 0 hr 7 min 21 sec) 
Heartbeat CPU 0 instructions: 110000000 cycles: 251499159 heartbeat IPC: 0.302808 cumulative IPC: 0.265892 (Simulation time: 0 hr 8 min 10 sec) 
Heartbeat CPU 0 instructions: 120000001 cycles: 286570748 heartbeat IPC: 0.285131 cumulative IPC: 0.26848 (Simulation time: 0 hr 9 min 1 sec) 
Heartbeat CPU 0 instructions: 130000000 cycles: 328266515 heartbeat IPC: 0.239832 cumulative IPC: 0.264531 (Simulation time: 0 hr 9 min 58 sec) 
Heartbeat CPU 0 instructions: 140000003 cycles: 368435870 heartbeat IPC: 0.248946 cumulative IPC: 0.262703 (Simulation time: 0 hr 10 min 53 sec) 
Heartbeat CPU 0 instructions: 150000003 cycles: 400406508 heartbeat IPC: 0.312787 cumulative IPC: 0.266978 (Simulation time: 0 hr 11 min 41 sec) 
Heartbeat CPU 0 instructions: 160000001 cycles: 441481306 heartbeat IPC: 0.243458 cumulative IPC: 0.264654 (Simulation time: 0 hr 12 min 37 sec) 
Heartbeat CPU 0 instructions: 170000001 cycles: 478327872 heartbeat IPC: 0.271396 cumulative IPC: 0.265203 (Simulation time: 0 hr 13 min 30 sec) 
Heartbeat CPU 0 instructions: 180000002 cycles: 513306915 heartbeat IPC: 0.285885 cumulative IPC: 0.266687 (Simulation time: 0 hr 14 min 20 sec) 
Heartbeat CPU 0 instructions: 190000001 cycles: 548445681 heartbeat IPC: 0.284586 cumulative IPC: 0.26789 (Simulation time: 0 hr 15 min 10 sec) 
Heartbeat CPU 0 instructions: 200000000 cycles: 585252063 heartbeat IPC: 0.271692 cumulative IPC: 0.268141 (Simulation time: 0 hr 16 min 0 sec) 
Heartbeat CPU 0 instructions: 210000002 cycles: 624003770 heartbeat IPC: 0.258053 cumulative IPC: 0.267487 (Simulation time: 0 hr 16 min 51 sec) 
Heartbeat CPU 0 instructions: 220000000 cycles: 662407288 heartbeat IPC: 0.260393 cumulative IPC: 0.267059 (Simulation time: 0 hr 17 min 41 sec) 
Heartbeat CPU 0 instructions: 230000002 cycles: 697525816 heartbeat IPC: 0.28475 cumulative IPC: 0.267984 (Simulation time: 0 hr 18 min 29 sec) 
Heartbeat CPU 0 instructions: 240000002 cycles: 737480811 heartbeat IPC: 0.250282 cumulative IPC: 0.26699 (Simulation time: 0 hr 19 min 21 sec) 
Heartbeat CPU 0 instructions: 250000003 cycles: 776529502 heartbeat IPC: 0.256091 cumulative IPC: 0.266423 (Simulation time: 0 hr 20 min 12 sec) 
Finished CPU 0 instructions: 200000001 cycles: 750685564 cumulative IPC: 0.266423 (Simulation time: 0 hr 20 min 12 sec) 
 Instruction ID: 250000384

ChampSim completed all CPUs

Region of Interest Statistics

CPU 0 cumulative IPC: 0.266423 instructions: 200000001 cycles: 750685564
ITLB SPEC fills:          0  NON-SPEC fills:          0
ITLB Test counter :          0
ITLB Leapfrog:          0
ITLB MSHR merge:          0
ITLB TOTAL     ACCESS:   32922485  HIT:   32790888  MISS:     131597  HIT %:    99.6003  MISS %:   0.399718   MPKI: 0.657985
ITLB LOAD TRANSLATION NON_SPEC    ACCESS:   32922485  HIT:   32790888  MISS:     131597  HIT %:    99.6003  MISS %:   0.399718   MPKI: 0.657985
ITLB PREFETCH  REQUESTED:          0  ISSUED:          0  USEFUL:          0  USELESS:          0
ITLB USEFUL LOAD PREFETCHES:          0 PREFETCH ISSUED TO LOWER LEVEL:          0  ACCURACY: -nan
ITLB TIMELY PREFETCHES:          0 LATE PREFETCHES: 0 DROPPED PREFETCHES: 0
ITLB COMMIT LATE PREFETCHES: 0 MISSED OPPORTUNITY: 0 LATE IN PQ: 0 UNCOVERED: 0
ITLB COMMIT LATE MSHR PREFETCHES: 0
ITLB MPKI TOTAL: 0 MSHR LATE: 0 PQ LATE: 0 COMMIT LATE: 0 MISSED OPPORTUNITY: 0 UNCOVERED: 0
ITLB PREFETCHES SAME FILL-ORIGIN LEVEL: 0 DIFFERENT FILL-ORIGIN LEVEL: 0
ITLB AVERAGE MISS LATENCY: 22.4734 cycles
ITLB AVERAGE MISS LATENCY LOAD: -nan cycles
ITLB AVERAGE MISS LATENCY PREFETCH: -nan cycles
ITLB AVERAGE MSHR OCCUPANCY: 0.00212575
ITLB MSHR FULL: 0
ITLB RQ	ACCESS:   38717718	FORWARD:          0	MERGED:    5761760	TO_CACHE:   32955958

DTLB SPEC fills:          0  NON-SPEC fills:          0
DTLB Test counter :          0
DTLB Leapfrog:          0
DTLB MSHR merge:          0
DTLB TOTAL     ACCESS:   43871312  HIT:   42552552  MISS:    1318760  HIT %:     96.994  MISS %:    3.00597   MPKI: 6.5938
DTLB LOAD TRANSLATION NON_SPEC    ACCESS:   43871312  HIT:   42552552  MISS:    1318760  HIT %:     96.994  MISS %:    3.00597   MPKI: 6.5938
DTLB PREFETCH  REQUESTED:          0  ISSUED:          0  USEFUL:          0  USELESS:          0
DTLB USEFUL LOAD PREFETCHES:          0 PREFETCH ISSUED TO LOWER LEVEL:          0  ACCURACY: -nan
DTLB TIMELY PREFETCHES:          0 LATE PREFETCHES: 0 DROPPED PREFETCHES: 0
DTLB COMMIT LATE PREFETCHES: 0 MISSED OPPORTUNITY: 0 LATE IN PQ: 0 UNCOVERED: 0
DTLB COMMIT LATE MSHR PREFETCHES: 0
DTLB MPKI TOTAL: 0 MSHR LATE: 0 PQ LATE: 0 COMMIT LATE: 0 MISSED OPPORTUNITY: 0 UNCOVERED: 0
DTLB PREFETCHES SAME FILL-ORIGIN LEVEL: 0 DIFFERENT FILL-ORIGIN LEVEL: 0
DTLB AVERAGE MISS LATENCY: 105.03 cycles
DTLB AVERAGE MISS LATENCY LOAD: -nan cycles
DTLB AVERAGE MISS LATENCY PREFETCH: -nan cycles
DTLB AVERAGE MSHR OCCUPANCY: 0.0511522
DTLB MSHR FULL: 0
DTLB RQ	ACCESS:   49058549	FORWARD:          0	MERGED:    4926789	TO_CACHE:   44131760

STLB SPEC fills:          0  NON-SPEC fills:          0
STLB Test counter :          0
STLB Leapfrog:          0
STLB MSHR merge:          0
STLB TOTAL     ACCESS:    1450357  HIT:     486397  MISS:     963960  HIT %:    33.5364  MISS %:    66.4636   MPKI: 4.8198
STLB LOAD TRANSLATION NON_SPEC    ACCESS:    1450357  HIT:     486397  MISS:     963960  HIT %:    33.5364  MISS %:    66.4636   MPKI: 4.8198
STLB PREFETCH  REQUESTED:          0  ISSUED:          0  USEFUL:          0  USELESS:          0
STLB USEFUL LOAD PREFETCHES:          0 PREFETCH ISSUED TO LOWER LEVEL:          0  ACCURACY: -nan
STLB TIMELY PREFETCHES:          0 LATE PREFETCHES: 0 DROPPED PREFETCHES: 0
STLB COMMIT LATE PREFETCHES: 0 MISSED OPPORTUNITY: 0 LATE IN PQ: 0 UNCOVERED: 0
STLB COMMIT LATE MSHR PREFETCHES: 0
STLB MPKI TOTAL: 0 MSHR LATE: 0 PQ LATE: 0 COMMIT LATE: 0 MISSED OPPORTUNITY: 0 UNCOVERED: 0
STLB PREFETCHES SAME FILL-ORIGIN LEVEL: 0 DIFFERENT FILL-ORIGIN LEVEL: 0
STLB AVERAGE MISS LATENCY: 133.167 cycles
STLB AVERAGE MISS LATENCY LOAD: -nan cycles
STLB AVERAGE MISS LATENCY PREFETCH: -nan cycles
STLB AVERAGE MSHR OCCUPANCY: 0.128367
STLB MSHR FULL: 0
STLB RQ	ACCESS:    1450357	FORWARD:          0	MERGED:          0	TO_CACHE:    1450357

STLB Hit, L1D data hit: 0
STLB Hit, L2C data hit: 0
STLB Hit, LLC data hit: 0
STLB Hit, LLC data miss: 0
STLB STLB hints to L2: 0
L0D SPEC fills:   18302962  NON-SPEC fills:          0
L0D TimeGuard Request with older TS:     142281 Restricted eviction:      47467 read:      57129
L0D Test counter :          0
L0D Leapfrog:          0
L0D MSHR merge:    3038102
L0D TOTAL     ACCESS:   36114023  HIT:    7197165  MISS:   28916858  HIT %:     19.929  MISS %:     80.071   MPKI: 144.584
L0D LOAD      TOTAL       ACCESS:   36114023  HIT:    7197165  MISS:   28916858  HIT %:     19.929  MISS %:     80.071   MPKI: 144.584
L0D LOAD      NON_SPEC    ACCESS:   10618144  HIT:      51665  MISS:   10566479  HIT %:   0.486573  MISS %:    99.5134   MPKI: 52.8324
L0D LOAD      SPEC        ACCESS:   25495879  HIT:    7145500  MISS:   18350379  HIT %:    28.0261  MISS %:    71.9739   MPKI: 91.7519
L0D PREFETCH  REQUESTED:          0  ISSUED:          0  USEFUL:          0  USELESS:          0
L0D USEFUL LOAD PREFETCHES:          0 PREFETCH ISSUED TO LOWER LEVEL:          0  ACCURACY: -nan
L0D TIMELY PREFETCHES:          0 LATE PREFETCHES: 0 DROPPED PREFETCHES: 0
L0D COMMIT LATE PREFETCHES: 0 MISSED OPPORTUNITY: 0 LATE IN PQ: 0 UNCOVERED: 0
L0D COMMIT LATE MSHR PREFETCHES: 0
L0D MPKI TOTAL: 159.775 MSHR LATE: 0 PQ LATE: 0 COMMIT LATE: 0 MISSED OPPORTUNITY: 0 UNCOVERED: 0
L0D PREFETCHES SAME FILL-ORIGIN LEVEL: 0 DIFFERENT FILL-ORIGIN LEVEL: 0
L0D AVERAGE MISS LATENCY: 30.8014 cycles
L0D AVERAGE MISS LATENCY LOAD: 30.8014 cycles
L0D AVERAGE MISS LATENCY PREFETCH: -nan cycles
L0D AVERAGE MSHR OCCUPANCY: 0.760041
L0D MSHR FULL: 0.00462634
L0D RQ	ACCESS:   58694505	FORWARD:          0	MERGED:   19542380	TO_CACHE:   39152125
L0D WQ	ACCESS:    9906424	FORWARD:          0	MERGED:          0	TO_CACHE:    9906424

L1D SPEC fills:          0  NON-SPEC fills:    1836017
L1D Test counter :    3085658
L1D Leapfrog:          0
L1D MSHR merge:       6163
L1D TOTAL     ACCESS:   46113846  HIT:   37242228  MISS:    8871618  HIT %:    80.7615  MISS %:    19.2385   MPKI: 44.3581
L1D LOAD      TOTAL       ACCESS:   28910695  HIT:   23566535  MISS:    5344160  HIT %:    81.5149  MISS %:    18.4851   MPKI: 26.7208
L1D LOAD      NON_SPEC    ACCESS:   10563103  HIT:    8727086  MISS:    1836017  HIT %:    82.6186  MISS %:    17.3814   MPKI: 9.18008
L1D LOAD      SPEC        ACCESS:   18347592  HIT:   14839449  MISS:    3508143  HIT %:    80.8795  MISS %:    19.1205   MPKI: 17.5407
L1D RFO       NON_SPEC    ACCESS:    9550069  HIT:    9470461  MISS:      79608  HIT %:    99.1664  MISS %:   0.833586   MPKI: 0.39804
L1D COMMIT LOAD NON_SPEC    ACCESS:    4071024  HIT:    4062079  MISS:       8945  HIT %:    99.7803  MISS %:   0.219724   MPKI: 0.044725
L1D COMMIT WRITE NON_SPEC    ACCESS:    3582058  HIT:     143153  MISS:    3438905  HIT %:    3.99639  MISS %:    96.0036   MPKI: 17.1945
L1D PREFETCH  REQUESTED:          0  ISSUED:          0  USEFUL:          0  USELESS:          0
L1D USEFUL LOAD PREFETCHES:          0 PREFETCH ISSUED TO LOWER LEVEL:          0  ACCURACY: -nan
L1D TIMELY PREFETCHES:          0 LATE PREFETCHES: 0 DROPPED PREFETCHES: 0
L1D COMMIT LATE PREFETCHES: 0 MISSED OPPORTUNITY: 0 LATE IN PQ: 0 UNCOVERED: 0
L1D COMMIT LATE MSHR PREFETCHES: 0
L1D MPKI TOTAL: 26.7516 MSHR LATE: 0 PQ LATE: 0 COMMIT LATE: 0 MISSED OPPORTUNITY: 0 UNCOVERED: 0
L1D PREFETCHES SAME FILL-ORIGIN LEVEL: 0 DIFFERENT FILL-ORIGIN LEVEL: 0
L1D AVERAGE MISS LATENCY: 85.0851 cycles
L1D AVERAGE MISS LATENCY LOAD: 139.138 cycles
L1D AVERAGE MISS LATENCY PREFETCH: -nan cycles
L1D AVERAGE MSHR OCCUPANCY: 0.30468
L1D MSHR FULL: 8.34016e-05
L1D RQ	ACCESS:   37940238	FORWARD:          0	MERGED:    4939099	TO_CACHE:   32994842
L1D WQ	ACCESS:   13480465	FORWARD:       6297	MERGED:     103971	TO_CACHE:   13376494

L1D UNIQUE REGIONS ACCESSED: 0
L1D REGIONS CONFLICTS: 0
L1D Cross Page Prefetch Requests: 0
L1D Same Page Prefetch Requests: 0
L1D ROI Sum of L1D PQ occupancy: 0
L1D PREFETCHES PUSHED FROM L2C: 0
L1I SPEC fills:          0  NON-SPEC fills:          0
L1I Test counter :          0
L1I Leapfrog:          0
L1I MSHR merge:     220211
L1I TOTAL     ACCESS:   38497506  HIT:   37783854  MISS:     713652  HIT %:    98.1462  MISS %:    1.85376   MPKI: 3.56826
L1I LOAD      TOTAL       ACCESS:   38497506  HIT:   37783854  MISS:     713652  HIT %:    98.1462  MISS %:    1.85376   MPKI: 3.56826
L1I LOAD      NON_SPEC    ACCESS:   38497506  HIT:   37783854  MISS:     713652  HIT %:    98.1462  MISS %:    1.85376   MPKI: 3.56826
L1I PREFETCH  REQUESTED:          0  ISSUED:          0  USEFUL:          0  USELESS:          0
L1I USEFUL LOAD PREFETCHES:          0 PREFETCH ISSUED TO LOWER LEVEL:          0  ACCURACY: -nan
L1I TIMELY PREFETCHES:          0 LATE PREFETCHES: 0 DROPPED PREFETCHES: 0
L1I COMMIT LATE PREFETCHES: 0 MISSED OPPORTUNITY: 0 LATE IN PQ: 0 UNCOVERED: 0
L1I COMMIT LATE MSHR PREFETCHES: 0
L1I MPKI TOTAL: 4.66931 MSHR LATE: 0 PQ LATE: 0 COMMIT LATE: 0 MISSED OPPORTUNITY: 0 UNCOVERED: 0
L1I PREFETCHES SAME FILL-ORIGIN LEVEL: 0 DIFFERENT FILL-ORIGIN LEVEL: 0
L1I AVERAGE MISS LATENCY: 40.365 cycles
L1I AVERAGE MISS LATENCY LOAD: 40.365 cycles
L1I AVERAGE MISS LATENCY PREFETCH: -nan cycles
L1I AVERAGE MSHR OCCUPANCY: 0.0267857
L1I MSHR FULL: 0
L1I RQ	ACCESS:   66489174	FORWARD:          0	MERGED:   27771456	TO_CACHE:   38717718

BTB SPEC fills:          0  NON-SPEC fills:          0
BTB Test counter :          0
BTB Leapfrog:          0
BTB MSHR merge:          0
BTB TOTAL     ACCESS:   33166957  HIT:   32847077  MISS:     319880  HIT %:    99.0355  MISS %:   0.964454   MPKI: 1.5994
BTB BRANCH_DIRECT_JUMP	ACCESS:     525801  HIT:     523851  MISS:       1950
BTB BRANCH_INDIRECT	ACCESS:      94835  HIT:      37758  MISS:      57077
BTB BRANCH_CONDITIONAL	ACCESS:   27817701  HIT:   27808168  MISS:       9533
BTB BRANCH_DIRECT_CALL	ACCESS:    1305271  HIT:    1301665  MISS:       3606
BTB BRANCH_INDIRECT_CALL	ACCESS:    1059041  HIT:    1046752  MISS:      12289
BTB BRANCH_RETURN	ACCESS:    2364308  HIT:    2128883  MISS:     235425
BTB BRANCH_OTHER ACCESS:          0  HIT:          0  MISS:          0

L2C SPEC fills:          0  NON-SPEC fills:    1634359
L2C Test counter :    3042967
L2C Leapfrog:          0
L2C MSHR merge:          0
L2C TOTAL     ACCESS:   14152295  HIT:    6013062  MISS:    8139233  HIT %:    42.4882  MISS %:    57.5118   MPKI: 40.6962
L2C LOAD      TOTAL       ACCESS:    6057702  HIT:    1221575  MISS:    4836127  HIT %:    20.1657  MISS %:    79.8343   MPKI: 24.1806
L2C LOAD      NON_SPEC    ACCESS:    2549666  HIT:     792006  MISS:    1757660  HIT %:    31.0631  MISS %:    68.9369   MPKI: 8.7883
L2C LOAD      SPEC        ACCESS:    3508036  HIT:     429569  MISS:    3078467  HIT %:    12.2453  MISS %:    87.7547   MPKI: 15.3923
L2C RFO       NON_SPEC    ACCESS:      79557  HIT:      29107  MISS:      50450  HIT %:    36.5863  MISS %:    63.4137   MPKI: 0.25225
L2C WRITEBACK NON_SPEC    ACCESS:     100633  HIT:     100470  MISS:        163  HIT %:     99.838  MISS %:   0.161975   MPKI: 0.000815
L2C CLEAN_EVICTION NON_SPEC    ACCESS:    3085658  HIT:      67164  MISS:    3018494  HIT %:    2.17665  MISS %:    97.8233   MPKI: 15.0925
L2C COMMIT LOAD NON_SPEC    ACCESS:       8945  HIT:       4943  MISS:       4002  HIT %:    55.2599  MISS %:    44.7401   MPKI: 0.02001
L2C LOAD TRANSLATION NON_SPEC    ACCESS:    4819800  HIT:    4589803  MISS:     229997  HIT %:    95.2281  MISS %:    4.77192   MPKI: 1.14998
L2C PREFETCH  REQUESTED:          0  ISSUED:          0  USEFUL:          0  USELESS:          0
L2C USEFUL LOAD PREFETCHES:          0 PREFETCH ISSUED TO LOWER LEVEL:          0  ACCURACY: -nan
L2C TIMELY PREFETCHES:          0 LATE PREFETCHES: 0 DROPPED PREFETCHES: 0
L2C COMMIT LATE PREFETCHES: 0 MISSED OPPORTUNITY: 0 LATE IN PQ: 0 UNCOVERED: 0
L2C COMMIT LATE MSHR PREFETCHES: 0
L2C MPKI TOTAL: 24.1806 MSHR LATE: 0 PQ LATE: 0 COMMIT LATE: 0 MISSED OPPORTUNITY: 0 UNCOVERED: 0
L2C PREFETCHES SAME FILL-ORIGIN LEVEL: 0 DIFFERENT FILL-ORIGIN LEVEL: 0
L2C AVERAGE MISS LATENCY: 92.2272 cycles
L2C AVERAGE MISS LATENCY LOAD: 143.699 cycles
L2C AVERAGE MISS LATENCY PREFETCH: -nan cycles
L2C AVERAGE MSHR OCCUPANCY: 0.817144
L2C MSHR FULL: 0
L2C RQ	ACCESS:   10966166	FORWARD:          0	MERGED:          0	TO_CACHE:   10966005
L2C WQ	ACCESS:    3186292	FORWARD:        161	MERGED:          1	TO_CACHE:    3186291

L2C Instructions Evicting Data 116580
L2C Translations Evicting Data 212744
L2C Data Evicting Data 1571026
L2C Instructions Evicting Instructions 2926
L2C Translations Evicting Instructions 4636
L2C Data Evicting Instructions 40663
L2C Instructions Evicting Translations 3795
L2C Translations Evicting Translations 12617
L2C Data Evicting Translations 77122
L2C Dense regions hint from L2: 0
PSCL5 SPEC fills:          0  NON-SPEC fills:          0
PSCL5 Test counter :          0
PSCL5 Leapfrog:          0
PSCL5 MSHR merge:          0
PSCL5 TOTAL     ACCESS:          0  HIT:          0  MISS:          0  HIT %:       -nan  MISS %:       -nan   MPKI: 0
PSCL5 PREFETCH  REQUESTED:          0  ISSUED:          0  USEFUL:          0  USELESS:          0
PSCL5 USEFUL LOAD PREFETCHES:          0 PREFETCH ISSUED TO LOWER LEVEL:          0  ACCURACY: -nan
PSCL5 TIMELY PREFETCHES:          0 LATE PREFETCHES: 0 DROPPED PREFETCHES: 0
PSCL5 COMMIT LATE PREFETCHES: 0 MISSED OPPORTUNITY: 0 LATE IN PQ: 0 UNCOVERED: 0
PSCL5 COMMIT LATE MSHR PREFETCHES: 0
PSCL5 MPKI TOTAL: 0 MSHR LATE: 0 PQ LATE: 0 COMMIT LATE: 0 MISSED OPPORTUNITY: 0 UNCOVERED: 0
PSCL5 PREFETCHES SAME FILL-ORIGIN LEVEL: 0 DIFFERENT FILL-ORIGIN LEVEL: 0

PSCL4 SPEC fills:          0  NON-SPEC fills:          0
PSCL4 Test counter :          0
PSCL4 Leapfrog:          0
PSCL4 MSHR merge:          0
PSCL4 TOTAL     ACCESS:          0  HIT:          0  MISS:          0  HIT %:       -nan  MISS %:       -nan   MPKI: 0
PSCL4 PREFETCH  REQUESTED:          0  ISSUED:          0  USEFUL:          0  USELESS:          0
PSCL4 USEFUL LOAD PREFETCHES:          0 PREFETCH ISSUED TO LOWER LEVEL:          0  ACCURACY: -nan
PSCL4 TIMELY PREFETCHES:          0 LATE PREFETCHES: 0 DROPPED PREFETCHES: 0
PSCL4 COMMIT LATE PREFETCHES: 0 MISSED OPPORTUNITY: 0 LATE IN PQ: 0 UNCOVERED: 0
PSCL4 COMMIT LATE MSHR PREFETCHES: 0
PSCL4 MPKI TOTAL: 0 MSHR LATE: 0 PQ LATE: 0 COMMIT LATE: 0 MISSED OPPORTUNITY: 0 UNCOVERED: 0
PSCL4 PREFETCHES SAME FILL-ORIGIN LEVEL: 0 DIFFERENT FILL-ORIGIN LEVEL: 0

PSCL3 SPEC fills:          0  NON-SPEC fills:          0
PSCL3 Test counter :          0
PSCL3 Leapfrog:          0
PSCL3 MSHR merge:          0
PSCL3 TOTAL     ACCESS:          0  HIT:          0  MISS:          0  HIT %:       -nan  MISS %:       -nan   MPKI: 0
PSCL3 PREFETCH  REQUESTED:          0  ISSUED:          0  USEFUL:          0  USELESS:          0
PSCL3 USEFUL LOAD PREFETCHES:          0 PREFETCH ISSUED TO LOWER LEVEL:          0  ACCURACY: -nan
PSCL3 TIMELY PREFETCHES:          0 LATE PREFETCHES: 0 DROPPED PREFETCHES: 0
PSCL3 COMMIT LATE PREFETCHES: 0 MISSED OPPORTUNITY: 0 LATE IN PQ: 0 UNCOVERED: 0
PSCL3 COMMIT LATE MSHR PREFETCHES: 0
PSCL3 MPKI TOTAL: 0 MSHR LATE: 0 PQ LATE: 0 COMMIT LATE: 0 MISSED OPPORTUNITY: 0 UNCOVERED: 0
PSCL3 PREFETCHES SAME FILL-ORIGIN LEVEL: 0 DIFFERENT FILL-ORIGIN LEVEL: 0

PSCL2 SPEC fills:          0  NON-SPEC fills:          0
PSCL2 Test counter :          0
PSCL2 Leapfrog:          0
PSCL2 MSHR merge:          0
PSCL2 TOTAL     ACCESS:          0  HIT:          0  MISS:          0  HIT %:       -nan  MISS %:       -nan   MPKI: 0
PSCL2 PREFETCH  REQUESTED:          0  ISSUED:          0  USEFUL:          0  USELESS:          0
PSCL2 USEFUL LOAD PREFETCHES:          0 PREFETCH ISSUED TO LOWER LEVEL:          0  ACCURACY: -nan
PSCL2 TIMELY PREFETCHES:          0 LATE PREFETCHES: 0 DROPPED PREFETCHES: 0
PSCL2 COMMIT LATE PREFETCHES: 0 MISSED OPPORTUNITY: 0 LATE IN PQ: 0 UNCOVERED: 0
PSCL2 COMMIT LATE MSHR PREFETCHES: 0
PSCL2 MPKI TOTAL: 0 MSHR LATE: 0 PQ LATE: 0 COMMIT LATE: 0 MISSED OPPORTUNITY: 0 UNCOVERED: 0
PSCL2 PREFETCHES SAME FILL-ORIGIN LEVEL: 0 DIFFERENT FILL-ORIGIN LEVEL: 0

LLC SPEC fills:          0  NON-SPEC fills:    1524059
LLC Test counter :    2882268
LLC Leapfrog:          0
LLC MSHR merge:          0
LLC TOTAL     ACCESS:    8221557  HIT:     847266  MISS:    7374291  HIT %:    10.3054  MISS %:    89.6946   MPKI: 36.8715
LLC LOAD      TOTAL       ACCESS:    4836126  HIT:     577789  MISS:    4258337  HIT %:    11.9474  MISS %:    88.0526   MPKI: 21.2917
LLC LOAD      NON_SPEC    ACCESS:    1757660  HIT:     145982  MISS:    1611678  HIT %:    8.30547  MISS %:    91.6945   MPKI: 8.05839
LLC LOAD      SPEC        ACCESS:    3078466  HIT:     431807  MISS:    2646659  HIT %:    14.0267  MISS %:    85.9733   MPKI: 13.2333
LLC RFO       NON_SPEC    ACCESS:      50450  HIT:       5040  MISS:      45410  HIT %:    9.99009  MISS %:    90.0099   MPKI: 0.22705
LLC WRITEBACK NON_SPEC    ACCESS:      58015  HIT:      57923  MISS:         92  HIT %:    99.8414  MISS %:    0.15858   MPKI: 0.00046
LLC CLEAN_EVICTION NON_SPEC    ACCESS:    3042967  HIT:     194978  MISS:    2847989  HIT %:     6.4075  MISS %:    93.5925   MPKI: 14.2399
LLC COMMIT LOAD NON_SPEC    ACCESS:       4002  HIT:       1200  MISS:       2802  HIT %:     29.985  MISS %:     70.015   MPKI: 0.01401
LLC LOAD TRANSLATION NON_SPEC    ACCESS:     229997  HIT:      10336  MISS:     219661  HIT %:    4.49397  MISS %:     95.506   MPKI: 1.0983
LLC PREFETCH  REQUESTED:          0  ISSUED:          0  USEFUL:          0  USELESS:          0
LLC USEFUL LOAD PREFETCHES:          0 PREFETCH ISSUED TO LOWER LEVEL:          0  ACCURACY: -nan
LLC TIMELY PREFETCHES:          0 LATE PREFETCHES: 0 DROPPED PREFETCHES: 0
LLC COMMIT LATE PREFETCHES: 0 MISSED OPPORTUNITY: 0 LATE IN PQ: 0 UNCOVERED: 0
LLC COMMIT LATE MSHR PREFETCHES: 0
LLC MPKI TOTAL: 21.2917 MSHR LATE: 0 PQ LATE: 0 COMMIT LATE: 0 MISSED OPPORTUNITY: 0 UNCOVERED: 0
LLC PREFETCHES SAME FILL-ORIGIN LEVEL: 0 DIFFERENT FILL-ORIGIN LEVEL: 0
LLC AVERAGE MISS LATENCY: 84.7184 cycles
LLC AVERAGE MISS LATENCY LOAD: 135.63 cycles
LLC AVERAGE MISS LATENCY PREFETCH: -nan cycles
LLC AVERAGE MSHR OCCUPANCY: 0.765927
LLC MSHR FULL: 0
LLC RQ	ACCESS:    5120577	FORWARD:          0	MERGED:          0	TO_CACHE:    5120576
LLC WQ	ACCESS:    3100982	FORWARD:          1	MERGED:          0	TO_CACHE:    3100982

LLC Dense regions hint to LLC: 0

RAW hits: 294563
Loads Generated: 58989068
Loads sent to L1D: 58694505
Stores Generated: 9906424
Stores sent to L1D: 9906424
Major fault: 0 Minor fault: 11434
Allocated PAGES: 11434
Total Load insts: 73338088
Total Non-spec loads: 11622984
Percentage of speculative loads: 84.1515

LeapFrogging counter: 6174
Commit hits: 18209205 miss: 29847334
Commit hit %: 37.8912 miss %: 62.1088
Commits not translated: 0
Loads retired: 5344159
Stores retired: 9906424
Cache fills: 5344160
L1D response latency: 139.138 cycles
Load retirement latency: 244.964 cycles
OOO test counter: 0
Discarded buffer inserts: 18209205 hits: 44435 hit %: 0.244025

DRAM Statistics
 CHANNEL 0
 RQ ROW_BUFFER_HIT:    1135606  ROW_BUFFER_MISS:    3390453
 DBUS_CONGESTED:      13050
 WQ ROW_BUFFER_HIT:     754510  ROW_BUFFER_MISS:    2178250  FULL:       1726

 AVG_CONGESTED_CYCLE: 5
 All warmup complete: 2
Channel 0 Bank busy for read cycles: 0
Channel 0 Bank busy for write cycles: 0
Channel 0
Rank 0
0banks busy for read cycles: 130502926
0banks busy for write cycles: 204584
1banks busy for read cycles: 241862133
1banks busy for write cycles: 42708830
2banks busy for read cycles: 86539775
2banks busy for write cycles: 56470959
3banks busy for read cycles: 38451932
3banks busy for write cycles: 60550763
4banks busy for read cycles: 8015659
4banks busy for write cycles: 46221633
5banks busy for read cycles: 399048
5banks busy for write cycles: 24866297
6banks busy for read cycles: 56286
6banks busy for write cycles: 9391772
7banks busy for read cycles: 54125
7banks busy for write cycles: 2953943
8banks busy for read cycles: 47386
8banks busy for write cycles: 1387514

CPU 0 Branch Prediction Accuracy: 99.7326% MPKI: 0.69165 Average ROB Occupancy at Mispredict: 110.181
Branch types
NOT_BRANCH: 148259765 74.1299%
BRANCH_DIRECT_JUMP: 525801 0.2629%
BRANCH_INDIRECT: 94835 0.0474175%
BRANCH_CONDITIONAL: 46390980 23.1955%
BRANCH_DIRECT_CALL: 1305271 0.652635%
BRANCH_INDIRECT_CALL: 1059041 0.52952%
BRANCH_RETURN: 2364308 1.18215%
BRANCH_OTHER: 0 0%

DRAM PAGES: 1048576
Allocated PAGES: 11434
