
*** ChampSim Multicore Out-of-Order Simulator ***

Warmup Instructions: 50000000
Simulation Instructions: 200000000
Number of CPUs: 1
LLC sets: 2048
LLC ways: 16
L0D sets: 16
L0D ways: 2
ROB size: 352
LQ size: 128
SQ size: 72
Secure Berti: OFF
Berti: OFF
Berti Fill: OFF
On commit prefetching: OFF
Hit-based filter: ON
Time-guarding: ON
Free-slotting: ON
Leap-frogging: ON
Train prefetcher on L0D bypass: OFF
No translation penalty for prefetchers: OFF
Prefetch to L0D only: OFF
Prefetch to L1D only: OFF
Clean evictions: ON
Commit loads: ON
Commit write: ON
Fill commit loads to L2C, LLC: ON
DRAM IO FREQUENCY: 6400
ROB SIZE: 352
Off-chip DRAM Size: 4096 MB Channels: 1 Width: 64-bit Data Rate: 6400 MT/s
CPU 0 runs /home/sumon/secure_berti/GhostMinion/../../traces/spec/623.xalancbmk_s-202B.champsimtrace.xz
.xz
BTB has LRU replacement policy
ITLB has LRU replacement policy
DTLB has LRU replacement policy
STLB has LRU replacement policy
L1I has LRU replacement policy
L0D has LRU replacement policy
L1D has LRU replacement policy
L2C has LRU replacement policy
LLC has LRU replacement policy
Heartbeat CPU 0 instructions: 10000001 cycles: 4054097 heartbeat IPC: 2.46664 cumulative IPC: 2.46664 (Simulation time: 0 hr 0 min 31 sec) 
Heartbeat CPU 0 instructions: 20000002 cycles: 8036882 heartbeat IPC: 2.51081 cumulative IPC: 2.48853 (Simulation time: 0 hr 1 min 1 sec) 
Heartbeat CPU 0 instructions: 30000000 cycles: 12037270 heartbeat IPC: 2.49976 cumulative IPC: 2.49226 (Simulation time: 0 hr 1 min 32 sec) 
Heartbeat CPU 0 instructions: 40000002 cycles: 16051231 heartbeat IPC: 2.49131 cumulative IPC: 2.49202 (Simulation time: 0 hr 2 min 2 sec) 
Heartbeat CPU 0 instructions: 50000001 cycles: 20059020 heartbeat IPC: 2.49514 cumulative IPC: 2.49264 (Simulation time: 0 hr 2 min 32 sec) 

Warmup complete CPU 0 instructions: 50000001 cycles: 20059020 (Simulation time: 0 hr 2 min 32 sec) 

Heartbeat CPU 0 instructions: 60000002 cycles: 47004103 heartbeat IPC: 0.371125 cumulative IPC: 0.371125 (Simulation time: 0 hr 3 min 23 sec) 
Heartbeat CPU 0 instructions: 70000002 cycles: 71705935 heartbeat IPC: 0.404828 cumulative IPC: 0.387245 (Simulation time: 0 hr 4 min 12 sec) 
Heartbeat CPU 0 instructions: 80000000 cycles: 101477323 heartbeat IPC: 0.335893 cumulative IPC: 0.368468 (Simulation time: 0 hr 5 min 3 sec) 
Heartbeat CPU 0 instructions: 90000001 cycles: 125834619 heartbeat IPC: 0.410555 cumulative IPC: 0.378159 (Simulation time: 0 hr 5 min 51 sec) 
Heartbeat CPU 0 instructions: 100000001 cycles: 152841863 heartbeat IPC: 0.370271 cumulative IPC: 0.376555 (Simulation time: 0 hr 6 min 41 sec) 
Heartbeat CPU 0 instructions: 110000000 cycles: 179859750 heartbeat IPC: 0.370125 cumulative IPC: 0.375468 (Simulation time: 0 hr 7 min 30 sec) 
Heartbeat CPU 0 instructions: 120000002 cycles: 204570191 heartbeat IPC: 0.404687 cumulative IPC: 0.379381 (Simulation time: 0 hr 8 min 18 sec) 
Heartbeat CPU 0 instructions: 130000002 cycles: 229694689 heartbeat IPC: 0.398018 cumulative IPC: 0.381614 (Simulation time: 0 hr 9 min 7 sec) 
Heartbeat CPU 0 instructions: 140000001 cycles: 259919586 heartbeat IPC: 0.330853 cumulative IPC: 0.375218 (Simulation time: 0 hr 9 min 58 sec) 
Heartbeat CPU 0 instructions: 150000001 cycles: 285636940 heartbeat IPC: 0.388842 cumulative IPC: 0.376537 (Simulation time: 0 hr 10 min 47 sec) 
Heartbeat CPU 0 instructions: 160000000 cycles: 310981250 heartbeat IPC: 0.394566 cumulative IPC: 0.378108 (Simulation time: 0 hr 11 min 35 sec) 
Heartbeat CPU 0 instructions: 170000002 cycles: 333455831 heartbeat IPC: 0.444947 cumulative IPC: 0.382901 (Simulation time: 0 hr 12 min 22 sec) 
Heartbeat CPU 0 instructions: 180000001 cycles: 360777103 heartbeat IPC: 0.366015 cumulative IPC: 0.381547 (Simulation time: 0 hr 13 min 12 sec) 
Heartbeat CPU 0 instructions: 190000002 cycles: 383532129 heartbeat IPC: 0.439463 cumulative IPC: 0.385173 (Simulation time: 0 hr 13 min 58 sec) 
Heartbeat CPU 0 instructions: 200000002 cycles: 411886324 heartbeat IPC: 0.352681 cumulative IPC: 0.382822 (Simulation time: 0 hr 14 min 48 sec) 
Heartbeat CPU 0 instructions: 210000003 cycles: 433267884 heartbeat IPC: 0.467693 cumulative IPC: 0.387213 (Simulation time: 0 hr 15 min 32 sec) 
Heartbeat CPU 0 instructions: 220000000 cycles: 458430117 heartbeat IPC: 0.397421 cumulative IPC: 0.387799 (Simulation time: 0 hr 16 min 18 sec) 
Heartbeat CPU 0 instructions: 230000001 cycles: 482995037 heartbeat IPC: 0.407085 cumulative IPC: 0.388823 (Simulation time: 0 hr 17 min 4 sec) 
Heartbeat CPU 0 instructions: 240000003 cycles: 506598576 heartbeat IPC: 0.423665 cumulative IPC: 0.390513 (Simulation time: 0 hr 17 min 49 sec) 
Heartbeat CPU 0 instructions: 250000001 cycles: 532193375 heartbeat IPC: 0.390704 cumulative IPC: 0.390523 (Simulation time: 0 hr 18 min 35 sec) 
Finished CPU 0 instructions: 200000000 cycles: 512134355 cumulative IPC: 0.390523 (Simulation time: 0 hr 18 min 35 sec) 
 Instruction ID: 250000351

ChampSim completed all CPUs

Region of Interest Statistics

CPU 0 cumulative IPC: 0.390523 instructions: 200000000 cycles: 512134355
ITLB SPEC fills:          0  NON-SPEC fills:          0
ITLB Test counter :          0
ITLB Leapfrog:          0
ITLB MSHR merge:          0
ITLB TOTAL     ACCESS:   31638676  HIT:   31638676  MISS:          0  HIT %:        100  MISS %:          0   MPKI: 0
ITLB LOAD TRANSLATION NON_SPEC    ACCESS:   31638676  HIT:   31638676  MISS:          0  HIT %:        100  MISS %:          0   MPKI: 0
ITLB PREFETCH  REQUESTED:          0  ISSUED:          0  USEFUL:          0  USELESS:          0
ITLB USEFUL LOAD PREFETCHES:          0 PREFETCH ISSUED TO LOWER LEVEL:          0  ACCURACY: -nan
ITLB TIMELY PREFETCHES:          0 LATE PREFETCHES: 0 DROPPED PREFETCHES: 0
ITLB COMMIT LATE PREFETCHES: 0 MISSED OPPORTUNITY: 0 LATE IN PQ: 0 UNCOVERED: 0
ITLB COMMIT LATE MSHR PREFETCHES: 0
ITLB MPKI TOTAL: 0 MSHR LATE: 0 PQ LATE: 0 COMMIT LATE: 0 MISSED OPPORTUNITY: 0 UNCOVERED: 0
ITLB PREFETCHES SAME FILL-ORIGIN LEVEL: 0 DIFFERENT FILL-ORIGIN LEVEL: 0
ITLB AVERAGE MISS LATENCY: -nan cycles
ITLB AVERAGE MISS LATENCY LOAD: -nan cycles
ITLB AVERAGE MISS LATENCY PREFETCH: -nan cycles
ITLB AVERAGE MSHR OCCUPANCY: 0
ITLB MSHR FULL: 0
ITLB RQ	ACCESS:   38834850	FORWARD:          0	MERGED:    7196175	TO_CACHE:   31638675

DTLB SPEC fills:          0  NON-SPEC fills:          0
DTLB Test counter :          0
DTLB Leapfrog:          0
DTLB MSHR merge:          0
DTLB TOTAL     ACCESS:   34677550  HIT:   34589688  MISS:      87862  HIT %:    99.7466  MISS %:   0.253369   MPKI: 0.43931
DTLB LOAD TRANSLATION NON_SPEC    ACCESS:   34677550  HIT:   34589688  MISS:      87862  HIT %:    99.7466  MISS %:   0.253369   MPKI: 0.43931
DTLB PREFETCH  REQUESTED:          0  ISSUED:          0  USEFUL:          0  USELESS:          0
DTLB USEFUL LOAD PREFETCHES:          0 PREFETCH ISSUED TO LOWER LEVEL:          0  ACCURACY: -nan
DTLB TIMELY PREFETCHES:          0 LATE PREFETCHES: 0 DROPPED PREFETCHES: 0
DTLB COMMIT LATE PREFETCHES: 0 MISSED OPPORTUNITY: 0 LATE IN PQ: 0 UNCOVERED: 0
DTLB COMMIT LATE MSHR PREFETCHES: 0
DTLB MPKI TOTAL: 0 MSHR LATE: 0 PQ LATE: 0 COMMIT LATE: 0 MISSED OPPORTUNITY: 0 UNCOVERED: 0
DTLB PREFETCHES SAME FILL-ORIGIN LEVEL: 0 DIFFERENT FILL-ORIGIN LEVEL: 0
DTLB AVERAGE MISS LATENCY: 10.2616 cycles
DTLB AVERAGE MISS LATENCY LOAD: -nan cycles
DTLB AVERAGE MISS LATENCY PREFETCH: -nan cycles
DTLB AVERAGE MSHR OCCUPANCY: 0.00110869
DTLB MSHR FULL: 0
DTLB RQ	ACCESS:   39942250	FORWARD:          0	MERGED:    5264416	TO_CACHE:   34677834

STLB SPEC fills:          0  NON-SPEC fills:          0
STLB Test counter :          0
STLB Leapfrog:          0
STLB MSHR merge:          0
STLB TOTAL     ACCESS:      87862  HIT:      87679  MISS:        183  HIT %:    99.7917  MISS %:   0.208281   MPKI: 0.000915
STLB LOAD TRANSLATION NON_SPEC    ACCESS:      87862  HIT:      87679  MISS:        183  HIT %:    99.7917  MISS %:   0.208281   MPKI: 0.000915
STLB PREFETCH  REQUESTED:          0  ISSUED:          0  USEFUL:          0  USELESS:          0
STLB USEFUL LOAD PREFETCHES:          0 PREFETCH ISSUED TO LOWER LEVEL:          0  ACCURACY: -nan
STLB TIMELY PREFETCHES:          0 LATE PREFETCHES: 0 DROPPED PREFETCHES: 0
STLB COMMIT LATE PREFETCHES: 0 MISSED OPPORTUNITY: 0 LATE IN PQ: 0 UNCOVERED: 0
STLB COMMIT LATE MSHR PREFETCHES: 0
STLB MPKI TOTAL: 0 MSHR LATE: 0 PQ LATE: 0 COMMIT LATE: 0 MISSED OPPORTUNITY: 0 UNCOVERED: 0
STLB PREFETCHES SAME FILL-ORIGIN LEVEL: 0 DIFFERENT FILL-ORIGIN LEVEL: 0
STLB AVERAGE MISS LATENCY: 605.153 cycles
STLB AVERAGE MISS LATENCY LOAD: -nan cycles
STLB AVERAGE MISS LATENCY PREFETCH: -nan cycles
STLB AVERAGE MSHR OCCUPANCY: 0.00106986
STLB MSHR FULL: 0
STLB RQ	ACCESS:      87862	FORWARD:          0	MERGED:          0	TO_CACHE:      87862

STLB Hit, L1D data hit: 0
STLB Hit, L2C data hit: 0
STLB Hit, LLC data hit: 0
STLB Hit, LLC data miss: 0
STLB STLB hints to L2: 0
L0D SPEC fills:   17688810  NON-SPEC fills:          0
L0D TimeGuard Request with older TS:     306223 Restricted eviction:     124820 read:      22047
L0D Test counter :          0
L0D Leapfrog:          0
L0D MSHR merge:    3864023
L0D TOTAL     ACCESS:   32539503  HIT:    7573549  MISS:   24965954  HIT %:    23.2749  MISS %:    76.7251   MPKI: 124.83
L0D LOAD      TOTAL       ACCESS:   32539503  HIT:    7573549  MISS:   24965954  HIT %:    23.2749  MISS %:    76.7251   MPKI: 124.83
L0D LOAD      NON_SPEC    ACCESS:    7157712  HIT:       5388  MISS:    7152324  HIT %:  0.0752755  MISS %:    99.9247   MPKI: 35.7616
L0D LOAD      SPEC        ACCESS:   25381791  HIT:    7568161  MISS:   17813630  HIT %:    29.8173  MISS %:    70.1827   MPKI: 89.0682
L0D PREFETCH  REQUESTED:          0  ISSUED:          0  USEFUL:          0  USELESS:          0
L0D USEFUL LOAD PREFETCHES:          0 PREFETCH ISSUED TO LOWER LEVEL:          0  ACCURACY: -nan
L0D TIMELY PREFETCHES:          0 LATE PREFETCHES: 0 DROPPED PREFETCHES: 0
L0D COMMIT LATE PREFETCHES: 0 MISSED OPPORTUNITY: 0 LATE IN PQ: 0 UNCOVERED: 0
L0D COMMIT LATE MSHR PREFETCHES: 0
L0D MPKI TOTAL: 144.15 MSHR LATE: 0 PQ LATE: 0 COMMIT LATE: 0 MISSED OPPORTUNITY: 0 UNCOVERED: 0
L0D PREFETCHES SAME FILL-ORIGIN LEVEL: 0 DIFFERENT FILL-ORIGIN LEVEL: 0
L0D AVERAGE MISS LATENCY: 29.6119 cycles
L0D AVERAGE MISS LATENCY LOAD: 29.6119 cycles
L0D AVERAGE MISS LATENCY PREFETCH: -nan cycles
L0D AVERAGE MSHR OCCUPANCY: 1.00083
L0D MSHR FULL: 0
L0D RQ	ACCESS:   59779616	FORWARD:          0	MERGED:   23376091	TO_CACHE:   36403525
L0D WQ	ACCESS:    3538725	FORWARD:          0	MERGED:          0	TO_CACHE:    3538725

L1D SPEC fills:          0  NON-SPEC fills:    1473826
L1D Test counter :    3586059
L1D Leapfrog:          0
L1D MSHR merge:       4673
L1D TOTAL     ACCESS:   36646981  HIT:   27982821  MISS:    8664160  HIT %:    76.3578  MISS %:    23.6422   MPKI: 43.3208
L1D LOAD      TOTAL       ACCESS:   24961281  HIT:   19884172  MISS:    5077109  HIT %:    79.6601  MISS %:    20.3399   MPKI: 25.3855
L1D LOAD      NON_SPEC    ACCESS:    7151881  HIT:    5678055  MISS:    1473826  HIT %:    79.3925  MISS %:    20.6075   MPKI: 7.36913
L1D LOAD      SPEC        ACCESS:   17809400  HIT:   14206117  MISS:    3603283  HIT %:    79.7675  MISS %:    20.2325   MPKI: 18.0164
L1D RFO       NON_SPEC    ACCESS:    3538725  HIT:    3538725  MISS:          0  HIT %:        100  MISS %:          0   MPKI: 0
L1D COMMIT LOAD NON_SPEC    ACCESS:    4265213  HIT:    4259148  MISS:       6065  HIT %:    99.8578  MISS %:   0.142197   MPKI: 0.030325
L1D COMMIT WRITE NON_SPEC    ACCESS:    3881762  HIT:     300776  MISS:    3580986  HIT %:    7.74844  MISS %:    92.2516   MPKI: 17.9049
L1D PREFETCH  REQUESTED:          0  ISSUED:          0  USEFUL:          0  USELESS:          0
L1D USEFUL LOAD PREFETCHES:          0 PREFETCH ISSUED TO LOWER LEVEL:          0  ACCURACY: -nan
L1D TIMELY PREFETCHES:          0 LATE PREFETCHES: 0 DROPPED PREFETCHES: 0
L1D COMMIT LATE PREFETCHES: 0 MISSED OPPORTUNITY: 0 LATE IN PQ: 0 UNCOVERED: 0
L1D COMMIT LATE MSHR PREFETCHES: 0
L1D MPKI TOTAL: 25.4089 MSHR LATE: 0 PQ LATE: 0 COMMIT LATE: 0 MISSED OPPORTUNITY: 0 UNCOVERED: 0
L1D PREFETCHES SAME FILL-ORIGIN LEVEL: 0 DIFFERENT FILL-ORIGIN LEVEL: 0
L1D AVERAGE MISS LATENCY: 70.6589 cycles
L1D AVERAGE MISS LATENCY LOAD: 120.455 cycles
L1D AVERAGE MISS LATENCY PREFETCH: -nan cycles
L1D AVERAGE MSHR OCCUPANCY: 0.299081
L1D MSHR FULL: 0
L1D RQ	ACCESS:   34233522	FORWARD:          0	MERGED:    4996563	TO_CACHE:   29236959
L1D WQ	ACCESS:    7420487	FORWARD:          0	MERGED:          0	TO_CACHE:    7420487

L1D UNIQUE REGIONS ACCESSED: 0
L1D REGIONS CONFLICTS: 0
L1D Cross Page Prefetch Requests: 0
L1D Same Page Prefetch Requests: 0
L1D ROI Sum of L1D PQ occupancy: 0
L1D PREFETCHES PUSHED FROM L2C: 0
L1I SPEC fills:          0  NON-SPEC fills:          0
L1I Test counter :          0
L1I Leapfrog:          0
L1I MSHR merge:          0
L1I TOTAL     ACCESS:   38834850  HIT:   38834850  MISS:          0  HIT %:        100  MISS %:          0   MPKI: 0
L1I LOAD      TOTAL       ACCESS:   38834850  HIT:   38834850  MISS:          0  HIT %:        100  MISS %:          0   MPKI: 0
L1I LOAD      NON_SPEC    ACCESS:   38834850  HIT:   38834850  MISS:          0  HIT %:        100  MISS %:          0   MPKI: 0
L1I PREFETCH  REQUESTED:          0  ISSUED:          0  USEFUL:          0  USELESS:          0
L1I USEFUL LOAD PREFETCHES:          0 PREFETCH ISSUED TO LOWER LEVEL:          0  ACCURACY: -nan
L1I TIMELY PREFETCHES:          0 LATE PREFETCHES: 0 DROPPED PREFETCHES: 0
L1I COMMIT LATE PREFETCHES: 0 MISSED OPPORTUNITY: 0 LATE IN PQ: 0 UNCOVERED: 0
L1I COMMIT LATE MSHR PREFETCHES: 0
L1I MPKI TOTAL: 0 MSHR LATE: 0 PQ LATE: 0 COMMIT LATE: 0 MISSED OPPORTUNITY: 0 UNCOVERED: 0
L1I PREFETCHES SAME FILL-ORIGIN LEVEL: 0 DIFFERENT FILL-ORIGIN LEVEL: 0
L1I AVERAGE MISS LATENCY: -nan cycles
L1I AVERAGE MISS LATENCY LOAD: -nan cycles
L1I AVERAGE MISS LATENCY PREFETCH: -nan cycles
L1I AVERAGE MSHR OCCUPANCY: 0
L1I MSHR FULL: 0
L1I RQ	ACCESS:   69568068	FORWARD:          0	MERGED:   30733218	TO_CACHE:   38834850

BTB SPEC fills:          0  NON-SPEC fills:          0
BTB Test counter :          0
BTB Leapfrog:          0
BTB MSHR merge:          0
BTB TOTAL     ACCESS:   34960421  HIT:   34960404  MISS:         17  HIT %:        100  MISS %: 4.86264e-05   MPKI: 8.5e-05
BTB BRANCH_DIRECT_JUMP	ACCESS:        138  HIT:        137  MISS:          1
BTB BRANCH_INDIRECT	ACCESS:          0  HIT:          0  MISS:          0
BTB BRANCH_CONDITIONAL	ACCESS:   31422524  HIT:   31422515  MISS:          9
BTB BRANCH_DIRECT_CALL	ACCESS:     884508  HIT:     884506  MISS:          2
BTB BRANCH_INDIRECT_CALL	ACCESS:     884371  HIT:     884370  MISS:          1
BTB BRANCH_RETURN	ACCESS:    1768880  HIT:    1768876  MISS:          4
BTB BRANCH_OTHER ACCESS:          0  HIT:          0  MISS:          0

L2C SPEC fills:          0  NON-SPEC fills:    1455191
L2C Test counter :    3586027
L2C Leapfrog:          0
L2C MSHR merge:          0
L2C TOTAL     ACCESS:    8670048  HIT:     203076  MISS:    8466972  HIT %:    2.34227  MISS %:    97.6577   MPKI: 42.3349
L2C LOAD      TOTAL       ACCESS:    5076872  HIT:     108498  MISS:    4968374  HIT %:     2.1371  MISS %:    97.8629   MPKI: 24.8419
L2C LOAD      NON_SPEC    ACCESS:    1473825  HIT:      18634  MISS:    1455191  HIT %:    1.26433  MISS %:    98.7357   MPKI: 7.27595
L2C LOAD      SPEC        ACCESS:    3603047  HIT:      89864  MISS:    3513183  HIT %:    2.49411  MISS %:    97.5059   MPKI: 17.5659
L2C WRITEBACK NON_SPEC    ACCESS:        137  HIT:        137  MISS:          0  HIT %:        100  MISS %:          0   MPKI: 0
L2C CLEAN_EVICTION NON_SPEC    ACCESS:    3586059  HIT:      93220  MISS:    3492839  HIT %:    2.59951  MISS %:    97.4005   MPKI: 17.4642
L2C COMMIT LOAD NON_SPEC    ACCESS:       6065  HIT:        879  MISS:       5186  HIT %:     14.493  MISS %:     85.507   MPKI: 0.02593
L2C LOAD TRANSLATION NON_SPEC    ACCESS:        915  HIT:        342  MISS:        573  HIT %:     37.377  MISS %:     62.623   MPKI: 0.002865
L2C PREFETCH  REQUESTED:          0  ISSUED:          0  USEFUL:          0  USELESS:          0
L2C USEFUL LOAD PREFETCHES:          0 PREFETCH ISSUED TO LOWER LEVEL:          0  ACCURACY: -nan
L2C TIMELY PREFETCHES:          0 LATE PREFETCHES: 0 DROPPED PREFETCHES: 0
L2C COMMIT LATE PREFETCHES: 0 MISSED OPPORTUNITY: 0 LATE IN PQ: 0 UNCOVERED: 0
L2C COMMIT LATE MSHR PREFETCHES: 0
L2C MPKI TOTAL: 24.8419 MSHR LATE: 0 PQ LATE: 0 COMMIT LATE: 0 MISSED OPPORTUNITY: 0 UNCOVERED: 0
L2C PREFETCHES SAME FILL-ORIGIN LEVEL: 0 DIFFERENT FILL-ORIGIN LEVEL: 0
L2C AVERAGE MISS LATENCY: 64.8298 cycles
L2C AVERAGE MISS LATENCY LOAD: 110.355 cycles
L2C AVERAGE MISS LATENCY PREFETCH: -nan cycles
L2C AVERAGE MSHR OCCUPANCY: 0.764575
L2C MSHR FULL: 0
L2C RQ	ACCESS:    5084089	FORWARD:          0	MERGED:          0	TO_CACHE:    5083852
L2C WQ	ACCESS:    3586196	FORWARD:        237	MERGED:          0	TO_CACHE:    3586196

L2C Instructions Evicting Data 0
L2C Translations Evicting Data 573
L2C Data Evicting Data 1460169
L2C Instructions Evicting Instructions 0
L2C Translations Evicting Instructions 0
L2C Data Evicting Instructions 0
L2C Instructions Evicting Translations 0
L2C Translations Evicting Translations 0
L2C Data Evicting Translations 208
L2C Dense regions hint from L2: 0
PSCL5 SPEC fills:          0  NON-SPEC fills:          0
PSCL5 Test counter :          0
PSCL5 Leapfrog:          0
PSCL5 MSHR merge:          0
PSCL5 TOTAL     ACCESS:          0  HIT:          0  MISS:          0  HIT %:       -nan  MISS %:       -nan   MPKI: 0
PSCL5 PREFETCH  REQUESTED:          0  ISSUED:          0  USEFUL:          0  USELESS:          0
PSCL5 USEFUL LOAD PREFETCHES:          0 PREFETCH ISSUED TO LOWER LEVEL:          0  ACCURACY: -nan
PSCL5 TIMELY PREFETCHES:          0 LATE PREFETCHES: 0 DROPPED PREFETCHES: 0
PSCL5 COMMIT LATE PREFETCHES: 0 MISSED OPPORTUNITY: 0 LATE IN PQ: 0 UNCOVERED: 0
PSCL5 COMMIT LATE MSHR PREFETCHES: 0
PSCL5 MPKI TOTAL: 0 MSHR LATE: 0 PQ LATE: 0 COMMIT LATE: 0 MISSED OPPORTUNITY: 0 UNCOVERED: 0
PSCL5 PREFETCHES SAME FILL-ORIGIN LEVEL: 0 DIFFERENT FILL-ORIGIN LEVEL: 0

PSCL4 SPEC fills:          0  NON-SPEC fills:          0
PSCL4 Test counter :          0
PSCL4 Leapfrog:          0
PSCL4 MSHR merge:          0
PSCL4 TOTAL     ACCESS:          0  HIT:          0  MISS:          0  HIT %:       -nan  MISS %:       -nan   MPKI: 0
PSCL4 PREFETCH  REQUESTED:          0  ISSUED:          0  USEFUL:          0  USELESS:          0
PSCL4 USEFUL LOAD PREFETCHES:          0 PREFETCH ISSUED TO LOWER LEVEL:          0  ACCURACY: -nan
PSCL4 TIMELY PREFETCHES:          0 LATE PREFETCHES: 0 DROPPED PREFETCHES: 0
PSCL4 COMMIT LATE PREFETCHES: 0 MISSED OPPORTUNITY: 0 LATE IN PQ: 0 UNCOVERED: 0
PSCL4 COMMIT LATE MSHR PREFETCHES: 0
PSCL4 MPKI TOTAL: 0 MSHR LATE: 0 PQ LATE: 0 COMMIT LATE: 0 MISSED OPPORTUNITY: 0 UNCOVERED: 0
PSCL4 PREFETCHES SAME FILL-ORIGIN LEVEL: 0 DIFFERENT FILL-ORIGIN LEVEL: 0

PSCL3 SPEC fills:          0  NON-SPEC fills:          0
PSCL3 Test counter :          0
PSCL3 Leapfrog:          0
PSCL3 MSHR merge:          0
PSCL3 TOTAL     ACCESS:          0  HIT:          0  MISS:          0  HIT %:       -nan  MISS %:       -nan   MPKI: 0
PSCL3 PREFETCH  REQUESTED:          0  ISSUED:          0  USEFUL:          0  USELESS:          0
PSCL3 USEFUL LOAD PREFETCHES:          0 PREFETCH ISSUED TO LOWER LEVEL:          0  ACCURACY: -nan
PSCL3 TIMELY PREFETCHES:          0 LATE PREFETCHES: 0 DROPPED PREFETCHES: 0
PSCL3 COMMIT LATE PREFETCHES: 0 MISSED OPPORTUNITY: 0 LATE IN PQ: 0 UNCOVERED: 0
PSCL3 COMMIT LATE MSHR PREFETCHES: 0
PSCL3 MPKI TOTAL: 0 MSHR LATE: 0 PQ LATE: 0 COMMIT LATE: 0 MISSED OPPORTUNITY: 0 UNCOVERED: 0
PSCL3 PREFETCHES SAME FILL-ORIGIN LEVEL: 0 DIFFERENT FILL-ORIGIN LEVEL: 0

PSCL2 SPEC fills:          0  NON-SPEC fills:          0
PSCL2 Test counter :          0
PSCL2 Leapfrog:          0
PSCL2 MSHR merge:          0
PSCL2 TOTAL     ACCESS:          0  HIT:          0  MISS:          0  HIT %:       -nan  MISS %:       -nan   MPKI: 0
PSCL2 PREFETCH  REQUESTED:          0  ISSUED:          0  USEFUL:          0  USELESS:          0
PSCL2 USEFUL LOAD PREFETCHES:          0 PREFETCH ISSUED TO LOWER LEVEL:          0  ACCURACY: -nan
PSCL2 TIMELY PREFETCHES:          0 LATE PREFETCHES: 0 DROPPED PREFETCHES: 0
PSCL2 COMMIT LATE PREFETCHES: 0 MISSED OPPORTUNITY: 0 LATE IN PQ: 0 UNCOVERED: 0
PSCL2 COMMIT LATE MSHR PREFETCHES: 0
PSCL2 MPKI TOTAL: 0 MSHR LATE: 0 PQ LATE: 0 COMMIT LATE: 0 MISSED OPPORTUNITY: 0 UNCOVERED: 0
PSCL2 PREFETCHES SAME FILL-ORIGIN LEVEL: 0 DIFFERENT FILL-ORIGIN LEVEL: 0

LLC SPEC fills:          0  NON-SPEC fills:    1156906
LLC Test counter :    2870841
LLC Leapfrog:          0
LLC MSHR merge:          0
LLC TOTAL     ACCESS:    8560283  HIT:    2298072  MISS:    6262211  HIT %:    26.8457  MISS %:    73.1543   MPKI: 31.3111
LLC LOAD      TOTAL       ACCESS:    4968374  HIT:    1476999  MISS:    3491375  HIT %:     29.728  MISS %:     70.272   MPKI: 17.4569
LLC LOAD      NON_SPEC    ACCESS:    1455191  HIT:     298285  MISS:    1156906  HIT %:     20.498  MISS %:     79.502   MPKI: 5.78453
LLC LOAD      SPEC        ACCESS:    3513183  HIT:    1178714  MISS:    2334469  HIT %:    33.5512  MISS %:    66.4488   MPKI: 11.6723
LLC WRITEBACK NON_SPEC    ACCESS:        124  HIT:        124  MISS:          0  HIT %:        100  MISS %:          0   MPKI: 0
LLC CLEAN_EVICTION NON_SPEC    ACCESS:    3586026  HIT:     818841  MISS:    2767185  HIT %:    22.8342  MISS %:    77.1658   MPKI: 13.8359
LLC COMMIT LOAD NON_SPEC    ACCESS:       5186  HIT:       1901  MISS:       3285  HIT %:    36.6564  MISS %:    63.3436   MPKI: 0.016425
LLC LOAD TRANSLATION NON_SPEC    ACCESS:        573  HIT:        207  MISS:        366  HIT %:    36.1257  MISS %:    63.8743   MPKI: 0.00183
LLC PREFETCH  REQUESTED:          0  ISSUED:          0  USEFUL:          0  USELESS:          0
LLC USEFUL LOAD PREFETCHES:          0 PREFETCH ISSUED TO LOWER LEVEL:          0  ACCURACY: -nan
LLC TIMELY PREFETCHES:          0 LATE PREFETCHES: 0 DROPPED PREFETCHES: 0
LLC COMMIT LATE PREFETCHES: 0 MISSED OPPORTUNITY: 0 LATE IN PQ: 0 UNCOVERED: 0
LLC COMMIT LATE MSHR PREFETCHES: 0
LLC MPKI TOTAL: 17.4569 MSHR LATE: 0 PQ LATE: 0 COMMIT LATE: 0 MISSED OPPORTUNITY: 0 UNCOVERED: 0
LLC PREFETCHES SAME FILL-ORIGIN LEVEL: 0 DIFFERENT FILL-ORIGIN LEVEL: 0
LLC AVERAGE MISS LATENCY: 68.8649 cycles
LLC AVERAGE MISS LATENCY LOAD: 123.388 cycles
LLC AVERAGE MISS LATENCY PREFETCH: -nan cycles
LLC AVERAGE MSHR OCCUPANCY: 0.576421
LLC MSHR FULL: 0
LLC RQ	ACCESS:    4974133	FORWARD:          0	MERGED:          0	TO_CACHE:    4974133
LLC WQ	ACCESS:    3586151	FORWARD:          0	MERGED:          0	TO_CACHE:    3586151

LLC Dense regions hint to LLC: 0

RAW hits: 295
Loads Generated: 59779911
Loads sent to L1D: 59779616
Stores Generated: 3538724
Stores sent to L1D: 3538725
Major fault: 0 Minor fault: 1485
Allocated PAGES: 1485
Total Load insts: 74725376
Total Non-spec loads: 7583866
Percentage of speculative loads: 89.851

LeapFrogging counter: 0
Commit hits: 17494913 miss: 35061655
Commit hit %: 33.2878 miss %: 66.7122
Commits not translated: 0
Loads retired: 5077109
Stores retired: 3538725
Cache fills: 5077109
L1D response latency: 120.455 cycles
Load retirement latency: 169.189 cycles
OOO test counter: 0
Discarded buffer inserts: 17494913 hits: 31646 hit %: 0.180887

DRAM Statistics
 CHANNEL 0
 RQ ROW_BUFFER_HIT:    1186436  ROW_BUFFER_MISS:    2308588
 DBUS_CONGESTED:       2272
 WQ ROW_BUFFER_HIT:     480932  ROW_BUFFER_MISS:    2389969  FULL:          0

 AVG_CONGESTED_CYCLE: 6
 All warmup complete: 2
Channel 0 Bank busy for read cycles: 0
Channel 0 Bank busy for write cycles: 0
Channel 0
Rank 0
0banks busy for read cycles: 53738929
0banks busy for write cycles: 304494
1banks busy for read cycles: 151279022
1banks busy for write cycles: 41934123
2banks busy for read cycles: 68102997
2banks busy for write cycles: 45004213
3banks busy for read cycles: 25238444
3banks busy for write cycles: 42905553
4banks busy for read cycles: 10610826
4banks busy for write cycles: 36885682
5banks busy for read cycles: 3701
5banks busy for write cycles: 23474569
6banks busy for read cycles: 0
6banks busy for write cycles: 9825430
7banks busy for read cycles: 0
7banks busy for write cycles: 2488423
8banks busy for read cycles: 0
8banks busy for write cycles: 337950

CPU 0 Branch Prediction Accuracy: 99.9949% MPKI: 0.01412 Average ROB Occupancy at Mispredict: 256.36
Branch types
NOT_BRANCH: 144641931 72.321%
BRANCH_DIRECT_JUMP: 138 6.9e-05%
BRANCH_INDIRECT: 0 0%
BRANCH_CONDITIONAL: 51820153 25.9101%
BRANCH_DIRECT_CALL: 884508 0.442254%
BRANCH_INDIRECT_CALL: 884371 0.442186%
BRANCH_RETURN: 1768880 0.88444%
BRANCH_OTHER: 0 0%

DRAM PAGES: 1048576
Allocated PAGES: 1485
