
*** ChampSim Multicore Out-of-Order Simulator ***

Warmup Instructions: 50000000
Simulation Instructions: 200000000
Number of CPUs: 1
LLC sets: 2048
LLC ways: 16
L0D sets: 16
L0D ways: 2
ROB size: 352
LQ size: 128
SQ size: 72
Secure Berti: OFF
Berti: OFF
Berti Fill: OFF
On commit prefetching: OFF
Hit-based filter: ON
Time-guarding: ON
Free-slotting: ON
Leap-frogging: ON
Train prefetcher on L0D bypass: OFF
No translation penalty for prefetchers: OFF
Prefetch to L0D only: OFF
Prefetch to L1D only: OFF
Clean evictions: ON
Commit loads: ON
Commit write: ON
Fill commit loads to L2C, LLC: ON
DRAM IO FREQUENCY: 6400
ROB SIZE: 352
Off-chip DRAM Size: 4096 MB Channels: 1 Width: 64-bit Data Rate: 6400 MT/s
CPU 0 runs /home/sumon/secure_berti/GhostMinion/../../traces/spec/628.pop2_s-17B.champsimtrace.xz
.xz
BTB has LRU replacement policy
ITLB has LRU replacement policy
DTLB has LRU replacement policy
STLB has LRU replacement policy
L1I has LRU replacement policy
L0D has LRU replacement policy
L1D has LRU replacement policy
L2C has LRU replacement policy
LLC has LRU replacement policy
Heartbeat CPU 0 instructions: 10000003 cycles: 3187327 heartbeat IPC: 3.13743 cumulative IPC: 3.13743 (Simulation time: 0 hr 0 min 24 sec) 
Heartbeat CPU 0 instructions: 20000001 cycles: 6372771 heartbeat IPC: 3.13928 cumulative IPC: 3.13835 (Simulation time: 0 hr 0 min 49 sec) 
Heartbeat CPU 0 instructions: 30000003 cycles: 9557366 heartbeat IPC: 3.14012 cumulative IPC: 3.13894 (Simulation time: 0 hr 1 min 13 sec) 
Heartbeat CPU 0 instructions: 40000003 cycles: 12740551 heartbeat IPC: 3.14151 cumulative IPC: 3.13958 (Simulation time: 0 hr 1 min 37 sec) 
Heartbeat CPU 0 instructions: 50000000 cycles: 15924341 heartbeat IPC: 3.14091 cumulative IPC: 3.13985 (Simulation time: 0 hr 2 min 1 sec) 

Warmup complete CPU 0 instructions: 50000004 cycles: 15924342 (Simulation time: 0 hr 2 min 1 sec) 

Heartbeat CPU 0 instructions: 60000000 cycles: 28979758 heartbeat IPC: 0.765966 cumulative IPC: 0.765965 (Simulation time: 0 hr 2 min 34 sec) 
Heartbeat CPU 0 instructions: 70000002 cycles: 41843167 heartbeat IPC: 0.777399 cumulative IPC: 0.77164 (Simulation time: 0 hr 3 min 7 sec) 
Heartbeat CPU 0 instructions: 80000000 cycles: 53820639 heartbeat IPC: 0.834901 cumulative IPC: 0.791634 (Simulation time: 0 hr 3 min 37 sec) 
Heartbeat CPU 0 instructions: 90000003 cycles: 67542177 heartbeat IPC: 0.728782 cumulative IPC: 0.774926 (Simulation time: 0 hr 4 min 7 sec) 
Heartbeat CPU 0 instructions: 100000000 cycles: 79624088 heartbeat IPC: 0.827683 cumulative IPC: 0.784932 (Simulation time: 0 hr 4 min 40 sec) 
Heartbeat CPU 0 instructions: 110000000 cycles: 92257377 heartbeat IPC: 0.79156 cumulative IPC: 0.786029 (Simulation time: 0 hr 5 min 13 sec) 
Heartbeat CPU 0 instructions: 120000000 cycles: 105903341 heartbeat IPC: 0.732817 cumulative IPC: 0.777959 (Simulation time: 0 hr 5 min 44 sec) 
Heartbeat CPU 0 instructions: 130000002 cycles: 119522480 heartbeat IPC: 0.734261 cumulative IPC: 0.772215 (Simulation time: 0 hr 6 min 16 sec) 
Heartbeat CPU 0 instructions: 140000003 cycles: 133568097 heartbeat IPC: 0.711966 cumulative IPC: 0.765022 (Simulation time: 0 hr 6 min 44 sec) 
Heartbeat CPU 0 instructions: 150000000 cycles: 146989174 heartbeat IPC: 0.745096 cumulative IPC: 0.762981 (Simulation time: 0 hr 7 min 10 sec) 
Heartbeat CPU 0 instructions: 160000000 cycles: 161531378 heartbeat IPC: 0.687654 cumulative IPC: 0.755458 (Simulation time: 0 hr 7 min 37 sec) 
Heartbeat CPU 0 instructions: 170000002 cycles: 173220824 heartbeat IPC: 0.855473 cumulative IPC: 0.762891 (Simulation time: 0 hr 8 min 10 sec) 
Heartbeat CPU 0 instructions: 180000003 cycles: 186039767 heartbeat IPC: 0.780096 cumulative IPC: 0.764187 (Simulation time: 0 hr 8 min 45 sec) 
Heartbeat CPU 0 instructions: 190000003 cycles: 199016758 heartbeat IPC: 0.770595 cumulative IPC: 0.764641 (Simulation time: 0 hr 9 min 20 sec) 
Heartbeat CPU 0 instructions: 200000001 cycles: 211965266 heartbeat IPC: 0.77229 cumulative IPC: 0.765146 (Simulation time: 0 hr 9 min 54 sec) 
Heartbeat CPU 0 instructions: 210000000 cycles: 224863324 heartbeat IPC: 0.77531 cumulative IPC: 0.765774 (Simulation time: 0 hr 10 min 28 sec) 
Heartbeat CPU 0 instructions: 220000000 cycles: 237837205 heartbeat IPC: 0.770779 cumulative IPC: 0.766066 (Simulation time: 0 hr 11 min 3 sec) 
Heartbeat CPU 0 instructions: 230000000 cycles: 250947102 heartbeat IPC: 0.762783 cumulative IPC: 0.765883 (Simulation time: 0 hr 11 min 38 sec) 
Heartbeat CPU 0 instructions: 240000002 cycles: 264033668 heartbeat IPC: 0.764143 cumulative IPC: 0.765791 (Simulation time: 0 hr 12 min 12 sec) 
Heartbeat CPU 0 instructions: 250000002 cycles: 276979392 heartbeat IPC: 0.772456 cumulative IPC: 0.766122 (Simulation time: 0 hr 12 min 46 sec) 
Finished CPU 0 instructions: 200000002 cycles: 261055051 cumulative IPC: 0.766122 (Simulation time: 0 hr 12 min 46 sec) 
 Instruction ID: 250000115

ChampSim completed all CPUs

Region of Interest Statistics

CPU 0 cumulative IPC: 0.766122 instructions: 200000002 cycles: 261055051
ITLB SPEC fills:          0  NON-SPEC fills:          0
ITLB Test counter :          0
ITLB Leapfrog:          0
ITLB MSHR merge:          0
ITLB TOTAL     ACCESS:   34426373  HIT:   34421557  MISS:       4816  HIT %:     99.986  MISS %:  0.0139893   MPKI: 0.02408
ITLB LOAD TRANSLATION NON_SPEC    ACCESS:   34426373  HIT:   34421557  MISS:       4816  HIT %:     99.986  MISS %:  0.0139893   MPKI: 0.02408
ITLB PREFETCH  REQUESTED:          0  ISSUED:          0  USEFUL:          0  USELESS:          0
ITLB USEFUL LOAD PREFETCHES:          0 PREFETCH ISSUED TO LOWER LEVEL:          0  ACCURACY: -nan
ITLB TIMELY PREFETCHES:          0 LATE PREFETCHES: 0 DROPPED PREFETCHES: 0
ITLB COMMIT LATE PREFETCHES: 0 MISSED OPPORTUNITY: 0 LATE IN PQ: 0 UNCOVERED: 0
ITLB COMMIT LATE MSHR PREFETCHES: 0
ITLB MPKI TOTAL: 0 MSHR LATE: 0 PQ LATE: 0 COMMIT LATE: 0 MISSED OPPORTUNITY: 0 UNCOVERED: 0
ITLB PREFETCHES SAME FILL-ORIGIN LEVEL: 0 DIFFERENT FILL-ORIGIN LEVEL: 0
ITLB AVERAGE MISS LATENCY: 16.0395 cycles
ITLB AVERAGE MISS LATENCY LOAD: -nan cycles
ITLB AVERAGE MISS LATENCY PREFETCH: -nan cycles
ITLB AVERAGE MSHR OCCUPANCY: 7.24415e-05
ITLB MSHR FULL: 0
ITLB RQ	ACCESS:   39128742	FORWARD:          0	MERGED:    4700973	TO_CACHE:   34427769

DTLB SPEC fills:          0  NON-SPEC fills:          0
DTLB Test counter :          0
DTLB Leapfrog:          0
DTLB MSHR merge:          0
DTLB TOTAL     ACCESS:   44317022  HIT:   44216962  MISS:     100060  HIT %:    99.7742  MISS %:   0.225782   MPKI: 0.5003
DTLB LOAD TRANSLATION NON_SPEC    ACCESS:   44317022  HIT:   44216962  MISS:     100060  HIT %:    99.7742  MISS %:   0.225782   MPKI: 0.5003
DTLB PREFETCH  REQUESTED:          0  ISSUED:          0  USEFUL:          0  USELESS:          0
DTLB USEFUL LOAD PREFETCHES:          0 PREFETCH ISSUED TO LOWER LEVEL:          0  ACCURACY: -nan
DTLB TIMELY PREFETCHES:          0 LATE PREFETCHES: 0 DROPPED PREFETCHES: 0
DTLB COMMIT LATE PREFETCHES: 0 MISSED OPPORTUNITY: 0 LATE IN PQ: 0 UNCOVERED: 0
DTLB COMMIT LATE MSHR PREFETCHES: 0
DTLB MPKI TOTAL: 0 MSHR LATE: 0 PQ LATE: 0 COMMIT LATE: 0 MISSED OPPORTUNITY: 0 UNCOVERED: 0
DTLB PREFETCHES SAME FILL-ORIGIN LEVEL: 0 DIFFERENT FILL-ORIGIN LEVEL: 0
DTLB AVERAGE MISS LATENCY: 28.9969 cycles
DTLB AVERAGE MISS LATENCY LOAD: -nan cycles
DTLB AVERAGE MISS LATENCY PREFETCH: -nan cycles
DTLB AVERAGE MSHR OCCUPANCY: 0.00741514
DTLB MSHR FULL: 4.37799e-05
DTLB RQ	ACCESS:   48498760	FORWARD:          0	MERGED:    4142351	TO_CACHE:   44356409

STLB SPEC fills:          0  NON-SPEC fills:          0
STLB Test counter :          0
STLB Leapfrog:          0
STLB MSHR merge:          0
STLB TOTAL     ACCESS:     104876  HIT:      95239  MISS:       9637  HIT %:    90.8111  MISS %:    9.18895   MPKI: 0.048185
STLB LOAD TRANSLATION NON_SPEC    ACCESS:     104876  HIT:      95239  MISS:       9637  HIT %:    90.8111  MISS %:    9.18895   MPKI: 0.048185
STLB PREFETCH  REQUESTED:          0  ISSUED:          0  USEFUL:          0  USELESS:          0
STLB USEFUL LOAD PREFETCHES:          0 PREFETCH ISSUED TO LOWER LEVEL:          0  ACCURACY: -nan
STLB TIMELY PREFETCHES:          0 LATE PREFETCHES: 0 DROPPED PREFETCHES: 0
STLB COMMIT LATE PREFETCHES: 0 MISSED OPPORTUNITY: 0 LATE IN PQ: 0 UNCOVERED: 0
STLB COMMIT LATE MSHR PREFETCHES: 0
STLB MPKI TOTAL: 0 MSHR LATE: 0 PQ LATE: 0 COMMIT LATE: 0 MISSED OPPORTUNITY: 0 UNCOVERED: 0
STLB PREFETCHES SAME FILL-ORIGIN LEVEL: 0 DIFFERENT FILL-ORIGIN LEVEL: 0
STLB AVERAGE MISS LATENCY: 210.532 cycles
STLB AVERAGE MISS LATENCY LOAD: -nan cycles
STLB AVERAGE MISS LATENCY PREFETCH: -nan cycles
STLB AVERAGE MSHR OCCUPANCY: 0.0301976
STLB MSHR FULL: 0
STLB RQ	ACCESS:     104876	FORWARD:          0	MERGED:          0	TO_CACHE:     104876

STLB Hit, L1D data hit: 0
STLB Hit, L2C data hit: 0
STLB Hit, LLC data hit: 0
STLB Hit, LLC data miss: 0
STLB STLB hints to L2: 0
L0D SPEC fills:   23342348  NON-SPEC fills:          0
L0D TimeGuard Request with older TS:     178321 Restricted eviction:     114792 read:     210268
L0D Test counter :          0
L0D Leapfrog:          0
L0D MSHR merge:    2320584
L0D TOTAL     ACCESS:   32577859  HIT:    4586172  MISS:   27991687  HIT %:    14.0776  MISS %:    85.9224   MPKI: 139.958
L0D LOAD      TOTAL       ACCESS:   32577859  HIT:    4586172  MISS:   27991687  HIT %:    14.0776  MISS %:    85.9224   MPKI: 139.958
L0D LOAD      NON_SPEC    ACCESS:    4679196  HIT:     144521  MISS:    4534675  HIT %:    3.08859  MISS %:    96.9114   MPKI: 22.6734
L0D LOAD      SPEC        ACCESS:   27898663  HIT:    4441651  MISS:   23457012  HIT %:    15.9207  MISS %:    84.0793   MPKI: 117.285
L0D PREFETCH  REQUESTED:          0  ISSUED:          0  USEFUL:          0  USELESS:          0
L0D USEFUL LOAD PREFETCHES:          0 PREFETCH ISSUED TO LOWER LEVEL:          0  ACCURACY: -nan
L0D TIMELY PREFETCHES:          0 LATE PREFETCHES: 0 DROPPED PREFETCHES: 0
L0D COMMIT LATE PREFETCHES: 0 MISSED OPPORTUNITY: 0 LATE IN PQ: 0 UNCOVERED: 0
L0D COMMIT LATE MSHR PREFETCHES: 0
L0D MPKI TOTAL: 151.561 MSHR LATE: 0 PQ LATE: 0 COMMIT LATE: 0 MISSED OPPORTUNITY: 0 UNCOVERED: 0
L0D PREFETCHES SAME FILL-ORIGIN LEVEL: 0 DIFFERENT FILL-ORIGIN LEVEL: 0
L0D AVERAGE MISS LATENCY: 9.00066 cycles
L0D AVERAGE MISS LATENCY LOAD: 9.00066 cycles
L0D AVERAGE MISS LATENCY PREFETCH: -nan cycles
L0D AVERAGE MSHR OCCUPANCY: 1.30943
L0D MSHR FULL: 0.042197
L0D RQ	ACCESS:   40015179	FORWARD:          0	MERGED:    5116736	TO_CACHE:   34898443
L0D WQ	ACCESS:   13600317	FORWARD:          0	MERGED:          0	TO_CACHE:   13600317

L1D SPEC fills:          0  NON-SPEC fills:     160794
L1D Test counter :    1018405
L1D Leapfrog:          0
L1D MSHR merge:       7196
L1D TOTAL     ACCESS:   42795941  HIT:   37897673  MISS:    4898268  HIT %:    88.5544  MISS %:    11.4456   MPKI: 24.4913
L1D LOAD      TOTAL       ACCESS:   27984490  HIT:   25911520  MISS:    2072970  HIT %:    92.5924  MISS %:    7.40757   MPKI: 10.3648
L1D LOAD      NON_SPEC    ACCESS:    4534152  HIT:    4373358  MISS:     160794  HIT %:    96.4537  MISS %:    3.54629   MPKI: 0.80397
L1D LOAD      SPEC        ACCESS:   23450338  HIT:   21538162  MISS:    1912176  HIT %:    91.8458  MISS %:    8.15415   MPKI: 9.56088
L1D RFO       NON_SPEC    ACCESS:   11244290  HIT:   10275897  MISS:     968393  HIT %:    91.3877  MISS %:    8.61231   MPKI: 4.84196
L1D COMMIT LOAD NON_SPEC    ACCESS:    1409921  HIT:    1386485  MISS:      23436  HIT %:    98.3378  MISS %:    1.66222   MPKI: 0.11718
L1D COMMIT WRITE NON_SPEC    ACCESS:    2157240  HIT:     323771  MISS:    1833469  HIT %:    15.0086  MISS %:    84.9914   MPKI: 9.16734
L1D PREFETCH  REQUESTED:          0  ISSUED:          0  USEFUL:          0  USELESS:          0
L1D USEFUL LOAD PREFETCHES:          0 PREFETCH ISSUED TO LOWER LEVEL:          0  ACCURACY: -nan
L1D TIMELY PREFETCHES:          0 LATE PREFETCHES: 0 DROPPED PREFETCHES: 0
L1D COMMIT LATE PREFETCHES: 0 MISSED OPPORTUNITY: 0 LATE IN PQ: 0 UNCOVERED: 0
L1D COMMIT LATE MSHR PREFETCHES: 0
L1D MPKI TOTAL: 10.4008 MSHR LATE: 0 PQ LATE: 0 COMMIT LATE: 0 MISSED OPPORTUNITY: 0 UNCOVERED: 0
L1D PREFETCHES SAME FILL-ORIGIN LEVEL: 0 DIFFERENT FILL-ORIGIN LEVEL: 0
L1D AVERAGE MISS LATENCY: 37.9287 cycles
L1D AVERAGE MISS LATENCY LOAD: 48.8021 cycles
L1D AVERAGE MISS LATENCY PREFETCH: -nan cycles
L1D AVERAGE MSHR OCCUPANCY: 0.793723
L1D MSHR FULL: 0.0155962
L1D RQ	ACCESS:   30257953	FORWARD:          0	MERGED:     846769	TO_CACHE:   29404755
L1D WQ	ACCESS:   15551859	FORWARD:       6429	MERGED:     236540	TO_CACHE:   15315319

L1D UNIQUE REGIONS ACCESSED: 0
L1D REGIONS CONFLICTS: 0
L1D Cross Page Prefetch Requests: 0
L1D Same Page Prefetch Requests: 0
L1D ROI Sum of L1D PQ occupancy: 0
L1D PREFETCHES PUSHED FROM L2C: 0
L1I SPEC fills:          0  NON-SPEC fills:          0
L1I Test counter :          0
L1I Leapfrog:          0
L1I MSHR merge:      48425
L1I TOTAL     ACCESS:   39080317  HIT:   38965513  MISS:     114804  HIT %:    99.7062  MISS %:   0.293764   MPKI: 0.57402
L1I LOAD      TOTAL       ACCESS:   39080317  HIT:   38965513  MISS:     114804  HIT %:    99.7062  MISS %:   0.293764   MPKI: 0.57402
L1I LOAD      NON_SPEC    ACCESS:   39080317  HIT:   38965513  MISS:     114804  HIT %:    99.7062  MISS %:   0.293764   MPKI: 0.57402
L1I PREFETCH  REQUESTED:          0  ISSUED:          0  USEFUL:          0  USELESS:          0
L1I USEFUL LOAD PREFETCHES:          0 PREFETCH ISSUED TO LOWER LEVEL:          0  ACCURACY: -nan
L1I TIMELY PREFETCHES:          0 LATE PREFETCHES: 0 DROPPED PREFETCHES: 0
L1I COMMIT LATE PREFETCHES: 0 MISSED OPPORTUNITY: 0 LATE IN PQ: 0 UNCOVERED: 0
L1I COMMIT LATE MSHR PREFETCHES: 0
L1I MPKI TOTAL: 0.816145 MSHR LATE: 0 PQ LATE: 0 COMMIT LATE: 0 MISSED OPPORTUNITY: 0 UNCOVERED: 0
L1I PREFETCHES SAME FILL-ORIGIN LEVEL: 0 DIFFERENT FILL-ORIGIN LEVEL: 0
L1I AVERAGE MISS LATENCY: 48.976 cycles
L1I AVERAGE MISS LATENCY LOAD: 48.976 cycles
L1I AVERAGE MISS LATENCY PREFETCH: -nan cycles
L1I AVERAGE MSHR OCCUPANCY: 0.00445488
L1I MSHR FULL: 0
L1I RQ	ACCESS:   60993395	FORWARD:          0	MERGED:   21864653	TO_CACHE:   39128742

BTB SPEC fills:          0  NON-SPEC fills:          0
BTB Test counter :          0
BTB Leapfrog:          0
BTB MSHR merge:          0
BTB TOTAL     ACCESS:   29674711  HIT:   29620836  MISS:      53875  HIT %:    99.8184  MISS %:   0.181552   MPKI: 0.269375
BTB BRANCH_DIRECT_JUMP	ACCESS:     633395  HIT:     632983  MISS:        412
BTB BRANCH_INDIRECT	ACCESS:       8917  HIT:       8176  MISS:        741
BTB BRANCH_CONDITIONAL	ACCESS:   27681837  HIT:   27678187  MISS:       3650
BTB BRANCH_DIRECT_CALL	ACCESS:     675281  HIT:     673574  MISS:       1707
BTB BRANCH_INDIRECT_CALL	ACCESS:          0  HIT:          0  MISS:          0
BTB BRANCH_RETURN	ACCESS:     675281  HIT:     627916  MISS:      47365
BTB BRANCH_OTHER ACCESS:          0  HIT:          0  MISS:          0

L2C SPEC fills:          0  NON-SPEC fills:      49856
L2C Test counter :     768087
L2C Leapfrog:          0
L2C MSHR merge:          0
L2C TOTAL     ACCESS:    5233963  HIT:    3182874  MISS:    2051089  HIT %:    60.8119  MISS %:    39.1881   MPKI: 10.2554
L2C LOAD      TOTAL       ACCESS:    2187496  HIT:    1254040  MISS:     933456  HIT %:    57.3276  MISS %:    42.6724   MPKI: 4.66728
L2C LOAD      NON_SPEC    ACCESS:     275582  HIT:     122213  MISS:     153369  HIT %:    44.3472  MISS %:    55.6528   MPKI: 0.766845
L2C LOAD      SPEC        ACCESS:    1911914  HIT:    1131827  MISS:     780087  HIT %:    59.1986  MISS %:    40.8014   MPKI: 3.90043
L2C RFO       NON_SPEC    ACCESS:     968385  HIT:     621678  MISS:     346707  HIT %:    64.1974  MISS %:    35.8026   MPKI: 1.73353
L2C WRITEBACK NON_SPEC    ACCESS:     988102  HIT:     987356  MISS:        746  HIT %:    99.9245  MISS %:  0.0754983   MPKI: 0.00373
L2C CLEAN_EVICTION NON_SPEC    ACCESS:    1018405  HIT:     262268  MISS:     756137  HIT %:    25.7528  MISS %:    74.2472   MPKI: 3.78068
L2C COMMIT LOAD NON_SPEC    ACCESS:      23436  HIT:      15765  MISS:       7671  HIT %:    67.2683  MISS %:    32.7317   MPKI: 0.038355
L2C LOAD TRANSLATION NON_SPEC    ACCESS:      48139  HIT:      41767  MISS:       6372  HIT %:    86.7633  MISS %:    13.2367   MPKI: 0.03186
L2C PREFETCH  REQUESTED:          0  ISSUED:          0  USEFUL:          0  USELESS:          0
L2C USEFUL LOAD PREFETCHES:          0 PREFETCH ISSUED TO LOWER LEVEL:          0  ACCURACY: -nan
L2C TIMELY PREFETCHES:          0 LATE PREFETCHES: 0 DROPPED PREFETCHES: 0
L2C COMMIT LATE PREFETCHES: 0 MISSED OPPORTUNITY: 0 LATE IN PQ: 0 UNCOVERED: 0
L2C COMMIT LATE MSHR PREFETCHES: 0
L2C MPKI TOTAL: 4.66728 MSHR LATE: 0 PQ LATE: 0 COMMIT LATE: 0 MISSED OPPORTUNITY: 0 UNCOVERED: 0
L2C PREFETCHES SAME FILL-ORIGIN LEVEL: 0 DIFFERENT FILL-ORIGIN LEVEL: 0
L2C AVERAGE MISS LATENCY: 74.0297 cycles
L2C AVERAGE MISS LATENCY LOAD: 87.3604 cycles
L2C AVERAGE MISS LATENCY PREFETCH: -nan cycles
L2C AVERAGE MSHR OCCUPANCY: 1.03001
L2C MSHR FULL: 0
L2C RQ	ACCESS:    3227742	FORWARD:          0	MERGED:          0	TO_CACHE:    3227456
L2C WQ	ACCESS:    2006522	FORWARD:        286	MERGED:         15	TO_CACHE:    2006507

L2C Instructions Evicting Data 91959
L2C Translations Evicting Data 5947
L2C Data Evicting Data 374234
L2C Instructions Evicting Instructions 10944
L2C Translations Evicting Instructions 381
L2C Data Evicting Instructions 28024
L2C Instructions Evicting Translations 610
L2C Translations Evicting Translations 44
L2C Data Evicting Translations 1976
L2C Dense regions hint from L2: 0
PSCL5 SPEC fills:          0  NON-SPEC fills:          0
PSCL5 Test counter :          0
PSCL5 Leapfrog:          0
PSCL5 MSHR merge:          0
PSCL5 TOTAL     ACCESS:          0  HIT:          0  MISS:          0  HIT %:       -nan  MISS %:       -nan   MPKI: 0
PSCL5 PREFETCH  REQUESTED:          0  ISSUED:          0  USEFUL:          0  USELESS:          0
PSCL5 USEFUL LOAD PREFETCHES:          0 PREFETCH ISSUED TO LOWER LEVEL:          0  ACCURACY: -nan
PSCL5 TIMELY PREFETCHES:          0 LATE PREFETCHES: 0 DROPPED PREFETCHES: 0
PSCL5 COMMIT LATE PREFETCHES: 0 MISSED OPPORTUNITY: 0 LATE IN PQ: 0 UNCOVERED: 0
PSCL5 COMMIT LATE MSHR PREFETCHES: 0
PSCL5 MPKI TOTAL: 0 MSHR LATE: 0 PQ LATE: 0 COMMIT LATE: 0 MISSED OPPORTUNITY: 0 UNCOVERED: 0
PSCL5 PREFETCHES SAME FILL-ORIGIN LEVEL: 0 DIFFERENT FILL-ORIGIN LEVEL: 0

PSCL4 SPEC fills:          0  NON-SPEC fills:          0
PSCL4 Test counter :          0
PSCL4 Leapfrog:          0
PSCL4 MSHR merge:          0
PSCL4 TOTAL     ACCESS:          0  HIT:          0  MISS:          0  HIT %:       -nan  MISS %:       -nan   MPKI: 0
PSCL4 PREFETCH  REQUESTED:          0  ISSUED:          0  USEFUL:          0  USELESS:          0
PSCL4 USEFUL LOAD PREFETCHES:          0 PREFETCH ISSUED TO LOWER LEVEL:          0  ACCURACY: -nan
PSCL4 TIMELY PREFETCHES:          0 LATE PREFETCHES: 0 DROPPED PREFETCHES: 0
PSCL4 COMMIT LATE PREFETCHES: 0 MISSED OPPORTUNITY: 0 LATE IN PQ: 0 UNCOVERED: 0
PSCL4 COMMIT LATE MSHR PREFETCHES: 0
PSCL4 MPKI TOTAL: 0 MSHR LATE: 0 PQ LATE: 0 COMMIT LATE: 0 MISSED OPPORTUNITY: 0 UNCOVERED: 0
PSCL4 PREFETCHES SAME FILL-ORIGIN LEVEL: 0 DIFFERENT FILL-ORIGIN LEVEL: 0

PSCL3 SPEC fills:          0  NON-SPEC fills:          0
PSCL3 Test counter :          0
PSCL3 Leapfrog:          0
PSCL3 MSHR merge:          0
PSCL3 TOTAL     ACCESS:          0  HIT:          0  MISS:          0  HIT %:       -nan  MISS %:       -nan   MPKI: 0
PSCL3 PREFETCH  REQUESTED:          0  ISSUED:          0  USEFUL:          0  USELESS:          0
PSCL3 USEFUL LOAD PREFETCHES:          0 PREFETCH ISSUED TO LOWER LEVEL:          0  ACCURACY: -nan
PSCL3 TIMELY PREFETCHES:          0 LATE PREFETCHES: 0 DROPPED PREFETCHES: 0
PSCL3 COMMIT LATE PREFETCHES: 0 MISSED OPPORTUNITY: 0 LATE IN PQ: 0 UNCOVERED: 0
PSCL3 COMMIT LATE MSHR PREFETCHES: 0
PSCL3 MPKI TOTAL: 0 MSHR LATE: 0 PQ LATE: 0 COMMIT LATE: 0 MISSED OPPORTUNITY: 0 UNCOVERED: 0
PSCL3 PREFETCHES SAME FILL-ORIGIN LEVEL: 0 DIFFERENT FILL-ORIGIN LEVEL: 0

PSCL2 SPEC fills:          0  NON-SPEC fills:          0
PSCL2 Test counter :          0
PSCL2 Leapfrog:          0
PSCL2 MSHR merge:          0
PSCL2 TOTAL     ACCESS:          0  HIT:          0  MISS:          0  HIT %:       -nan  MISS %:       -nan   MPKI: 0
PSCL2 PREFETCH  REQUESTED:          0  ISSUED:          0  USEFUL:          0  USELESS:          0
PSCL2 USEFUL LOAD PREFETCHES:          0 PREFETCH ISSUED TO LOWER LEVEL:          0  ACCURACY: -nan
PSCL2 TIMELY PREFETCHES:          0 LATE PREFETCHES: 0 DROPPED PREFETCHES: 0
PSCL2 COMMIT LATE PREFETCHES: 0 MISSED OPPORTUNITY: 0 LATE IN PQ: 0 UNCOVERED: 0
PSCL2 COMMIT LATE MSHR PREFETCHES: 0
PSCL2 MPKI TOTAL: 0 MSHR LATE: 0 PQ LATE: 0 COMMIT LATE: 0 MISSED OPPORTUNITY: 0 UNCOVERED: 0
PSCL2 PREFETCHES SAME FILL-ORIGIN LEVEL: 0 DIFFERENT FILL-ORIGIN LEVEL: 0

LLC SPEC fills:          0  NON-SPEC fills:      21224
LLC Test counter :     431424
LLC Leapfrog:          0
LLC MSHR merge:          0
LLC TOTAL     ACCESS:    2419048  HIT:    1348480  MISS:    1070568  HIT %:    55.7442  MISS %:    44.2558   MPKI: 5.35284
LLC LOAD      TOTAL       ACCESS:     933441  HIT:     488450  MISS:     444991  HIT %:    52.3279  MISS %:    47.6721   MPKI: 2.22495
LLC LOAD      NON_SPEC    ACCESS:     153368  HIT:     127649  MISS:      25719  HIT %:    83.2305  MISS %:    16.7695   MPKI: 0.128595
LLC LOAD      SPEC        ACCESS:     780073  HIT:     360801  MISS:     419272  HIT %:    46.2522  MISS %:    53.7478   MPKI: 2.09636
LLC RFO       NON_SPEC    ACCESS:     346706  HIT:     153775  MISS:     192931  HIT %:    44.3531  MISS %:    55.6469   MPKI: 0.964655
LLC WRITEBACK NON_SPEC    ACCESS:     356772  HIT:     351564  MISS:       5208  HIT %:    98.5402  MISS %:    1.45976   MPKI: 0.02604
LLC CLEAN_EVICTION NON_SPEC    ACCESS:     768087  HIT:     346638  MISS:     421449  HIT %:      45.13  MISS %:      54.87   MPKI: 2.10724
LLC COMMIT LOAD NON_SPEC    ACCESS:       7670  HIT:       3503  MISS:       4167  HIT %:    45.6714  MISS %:    54.3286   MPKI: 0.020835
LLC LOAD TRANSLATION NON_SPEC    ACCESS:       6372  HIT:       4550  MISS:       1822  HIT %:    71.4062  MISS %:    28.5938   MPKI: 0.00911
LLC PREFETCH  REQUESTED:          0  ISSUED:          0  USEFUL:          0  USELESS:          0
LLC USEFUL LOAD PREFETCHES:          0 PREFETCH ISSUED TO LOWER LEVEL:          0  ACCURACY: -nan
LLC TIMELY PREFETCHES:          0 LATE PREFETCHES: 0 DROPPED PREFETCHES: 0
LLC COMMIT LATE PREFETCHES: 0 MISSED OPPORTUNITY: 0 LATE IN PQ: 0 UNCOVERED: 0
LLC COMMIT LATE MSHR PREFETCHES: 0
LLC MPKI TOTAL: 2.22495 MSHR LATE: 0 PQ LATE: 0 COMMIT LATE: 0 MISSED OPPORTUNITY: 0 UNCOVERED: 0
LLC PREFETCHES SAME FILL-ORIGIN LEVEL: 0 DIFFERENT FILL-ORIGIN LEVEL: 0
LLC AVERAGE MISS LATENCY: 111.761 cycles
LLC AVERAGE MISS LATENCY LOAD: 135.935 cycles
LLC AVERAGE MISS LATENCY PREFETCH: -nan cycles
LLC AVERAGE MSHR OCCUPANCY: 1.25903
LLC MSHR FULL: 0
LLC RQ	ACCESS:    1294206	FORWARD:          0	MERGED:          0	TO_CACHE:    1294189
LLC WQ	ACCESS:    1124859	FORWARD:         17	MERGED:          0	TO_CACHE:    1124859

LLC Dense regions hint to LLC: 0

RAW hits: 479367
Loads Generated: 40494547
Loads sent to L1D: 40015179
Stores Generated: 13600307
Stores sent to L1D: 13600317
Major fault: 0 Minor fault: 9397
Allocated PAGES: 9397
Total Load insts: 51028325
Total Non-spec loads: 5313909
Percentage of speculative loads: 89.5864

LeapFrogging counter: 927850
Commit hits: 23191864 miss: 11953864
Commit hit %: 65.9877 miss %: 34.0123
Commits not translated: 0
Loads retired: 2072970
Stores retired: 13600317
Cache fills: 2072970
L1D response latency: 48.8021 cycles
Load retirement latency: 95.7949 cycles
OOO test counter: 0
Discarded buffer inserts: 23191864 hits: 65134 hit %: 0.280848

DRAM Statistics
 CHANNEL 0
 RQ ROW_BUFFER_HIT:     192906  ROW_BUFFER_MISS:     450993
 DBUS_CONGESTED:       1285
 WQ ROW_BUFFER_HIT:     139991  ROW_BUFFER_MISS:     490211  FULL:      77412

 AVG_CONGESTED_CYCLE: 5
 All warmup complete: 2
Channel 0 Bank busy for read cycles: 0
Channel 0 Bank busy for write cycles: 0
Channel 0
Rank 0
0banks busy for read cycles: 179775739
0banks busy for write cycles: 120401
1banks busy for read cycles: 18633549
1banks busy for write cycles: 18941290
2banks busy for read cycles: 12444348
2banks busy for write cycles: 7516985
3banks busy for read cycles: 3896352
3banks busy for write cycles: 3591307
4banks busy for read cycles: 2185548
4banks busy for write cycles: 2010956
5banks busy for read cycles: 782376
5banks busy for write cycles: 1315506
6banks busy for read cycles: 589136
6banks busy for write cycles: 1003679
7banks busy for read cycles: 341345
7banks busy for write cycles: 1207307
8banks busy for read cycles: 631599
8banks busy for write cycles: 6067629

CPU 0 Branch Prediction Accuracy: 99.215% MPKI: 1.19675 Average ROB Occupancy at Mispredict: 28.2181
Branch types
NOT_BRANCH: 169508277 84.7541%
BRANCH_DIRECT_JUMP: 633395 0.316697%
BRANCH_INDIRECT: 8917 0.0044585%
BRANCH_CONDITIONAL: 28498600 14.2493%
BRANCH_DIRECT_CALL: 675281 0.33764%
BRANCH_INDIRECT_CALL: 0 0%
BRANCH_RETURN: 675281 0.33764%
BRANCH_OTHER: 0 0%

DRAM PAGES: 1048576
Allocated PAGES: 9397
