
*** ChampSim Multicore Out-of-Order Simulator ***

Warmup Instructions: 50000000
Simulation Instructions: 200000000
Number of CPUs: 1
LLC sets: 2048
LLC ways: 16
L0D sets: 16
L0D ways: 2
ROB size: 352
LQ size: 128
SQ size: 72
Secure Berti: OFF
Berti: OFF
Berti Fill: OFF
On commit prefetching: OFF
Hit-based filter: ON
Time-guarding: ON
Free-slotting: ON
Leap-frogging: ON
Train prefetcher on L0D bypass: OFF
No translation penalty for prefetchers: OFF
Prefetch to L0D only: OFF
Prefetch to L1D only: OFF
Clean evictions: ON
Commit loads: ON
Commit write: ON
Fill commit loads to L2C, LLC: ON
DRAM IO FREQUENCY: 6400
ROB SIZE: 352
Off-chip DRAM Size: 4096 MB Channels: 1 Width: 64-bit Data Rate: 6400 MT/s
CPU 0 runs /home/sumon/secure_berti/GhostMinion/../../traces/spec/649.fotonik3d_s-7084B.champsimtrace.xz
.xz
BTB has LRU replacement policy
ITLB has LRU replacement policy
DTLB has LRU replacement policy
STLB has LRU replacement policy
L1I has LRU replacement policy
L0D has LRU replacement policy
L1D has LRU replacement policy
L2C has LRU replacement policy
LLC has LRU replacement policy
Heartbeat CPU 0 instructions: 10000001 cycles: 3135085 heartbeat IPC: 3.18971 cumulative IPC: 3.18971 (Simulation time: 0 hr 0 min 30 sec) 
Heartbeat CPU 0 instructions: 20000001 cycles: 6271318 heartbeat IPC: 3.18854 cumulative IPC: 3.18912 (Simulation time: 0 hr 1 min 0 sec) 
Heartbeat CPU 0 instructions: 30000001 cycles: 9410183 heartbeat IPC: 3.18586 cumulative IPC: 3.18804 (Simulation time: 0 hr 1 min 30 sec) 
Heartbeat CPU 0 instructions: 40000003 cycles: 12547382 heartbeat IPC: 3.18756 cumulative IPC: 3.18792 (Simulation time: 0 hr 2 min 0 sec) 
Heartbeat CPU 0 instructions: 50000002 cycles: 15686721 heartbeat IPC: 3.18538 cumulative IPC: 3.18741 (Simulation time: 0 hr 2 min 30 sec) 

Warmup complete CPU 0 instructions: 50000002 cycles: 15686721 (Simulation time: 0 hr 2 min 30 sec) 

Heartbeat CPU 0 instructions: 60000002 cycles: 34138509 heartbeat IPC: 0.541953 cumulative IPC: 0.541953 (Simulation time: 0 hr 3 min 18 sec) 
Heartbeat CPU 0 instructions: 70000003 cycles: 52403254 heartbeat IPC: 0.547503 cumulative IPC: 0.544714 (Simulation time: 0 hr 4 min 7 sec) 
Heartbeat CPU 0 instructions: 80000001 cycles: 70270491 heartbeat IPC: 0.559684 cumulative IPC: 0.549614 (Simulation time: 0 hr 4 min 56 sec) 
Heartbeat CPU 0 instructions: 90000002 cycles: 88440929 heartbeat IPC: 0.550345 cumulative IPC: 0.549796 (Simulation time: 0 hr 5 min 46 sec) 
Heartbeat CPU 0 instructions: 100000003 cycles: 106847794 heartbeat IPC: 0.543276 cumulative IPC: 0.54848 (Simulation time: 0 hr 6 min 36 sec) 
Heartbeat CPU 0 instructions: 110000000 cycles: 125301778 heartbeat IPC: 0.541888 cumulative IPC: 0.54737 (Simulation time: 0 hr 7 min 26 sec) 
Heartbeat CPU 0 instructions: 120000000 cycles: 143676698 heartbeat IPC: 0.54422 cumulative IPC: 0.546918 (Simulation time: 0 hr 8 min 18 sec) 
Heartbeat CPU 0 instructions: 130000003 cycles: 161256057 heartbeat IPC: 0.568849 cumulative IPC: 0.549566 (Simulation time: 0 hr 9 min 9 sec) 
Heartbeat CPU 0 instructions: 140000001 cycles: 179024297 heartbeat IPC: 0.562802 cumulative IPC: 0.551006 (Simulation time: 0 hr 10 min 1 sec) 
Heartbeat CPU 0 instructions: 150000000 cycles: 196875674 heartbeat IPC: 0.560181 cumulative IPC: 0.55191 (Simulation time: 0 hr 10 min 54 sec) 
Heartbeat CPU 0 instructions: 160000002 cycles: 215632348 heartbeat IPC: 0.533144 cumulative IPC: 0.55015 (Simulation time: 0 hr 11 min 45 sec) 
Heartbeat CPU 0 instructions: 170000003 cycles: 234468092 heartbeat IPC: 0.530906 cumulative IPC: 0.548493 (Simulation time: 0 hr 12 min 37 sec) 
Heartbeat CPU 0 instructions: 180000001 cycles: 252774616 heartbeat IPC: 0.546253 cumulative IPC: 0.54832 (Simulation time: 0 hr 13 min 28 sec) 
Heartbeat CPU 0 instructions: 190000002 cycles: 270904010 heartbeat IPC: 0.55159 cumulative IPC: 0.548552 (Simulation time: 0 hr 14 min 20 sec) 
Heartbeat CPU 0 instructions: 200000000 cycles: 288761007 heartbeat IPC: 0.560004 cumulative IPC: 0.549301 (Simulation time: 0 hr 15 min 11 sec) 
Heartbeat CPU 0 instructions: 210000002 cycles: 306693943 heartbeat IPC: 0.557633 cumulative IPC: 0.549815 (Simulation time: 0 hr 15 min 58 sec) 
Heartbeat CPU 0 instructions: 220000000 cycles: 324656922 heartbeat IPC: 0.5567 cumulative IPC: 0.550215 (Simulation time: 0 hr 16 min 45 sec) 
Heartbeat CPU 0 instructions: 230000001 cycles: 342691318 heartbeat IPC: 0.554496 cumulative IPC: 0.550451 (Simulation time: 0 hr 17 min 30 sec) 
Heartbeat CPU 0 instructions: 240000002 cycles: 361065879 heartbeat IPC: 0.544231 cumulative IPC: 0.55012 (Simulation time: 0 hr 18 min 14 sec) 
Heartbeat CPU 0 instructions: 250000000 cycles: 380059903 heartbeat IPC: 0.526481 cumulative IPC: 0.548888 (Simulation time: 0 hr 18 min 58 sec) 
Finished CPU 0 instructions: 200000002 cycles: 364373183 cumulative IPC: 0.548888 (Simulation time: 0 hr 18 min 58 sec) 
 Instruction ID: 250000352

ChampSim completed all CPUs

Region of Interest Statistics

CPU 0 cumulative IPC: 0.548888 instructions: 200000002 cycles: 364373183
ITLB SPEC fills:          0  NON-SPEC fills:          0
ITLB Test counter :          0
ITLB Leapfrog:          0
ITLB MSHR merge:          0
ITLB TOTAL     ACCESS:   25109040  HIT:   25109040  MISS:          0  HIT %:        100  MISS %:          0   MPKI: 0
ITLB LOAD TRANSLATION NON_SPEC    ACCESS:   25109040  HIT:   25109040  MISS:          0  HIT %:        100  MISS %:          0   MPKI: 0
ITLB PREFETCH  REQUESTED:          0  ISSUED:          0  USEFUL:          0  USELESS:          0
ITLB USEFUL LOAD PREFETCHES:          0 PREFETCH ISSUED TO LOWER LEVEL:          0  ACCURACY: -nan
ITLB TIMELY PREFETCHES:          0 LATE PREFETCHES: 0 DROPPED PREFETCHES: 0
ITLB COMMIT LATE PREFETCHES: 0 MISSED OPPORTUNITY: 0 LATE IN PQ: 0 UNCOVERED: 0
ITLB COMMIT LATE MSHR PREFETCHES: 0
ITLB MPKI TOTAL: 0 MSHR LATE: 0 PQ LATE: 0 COMMIT LATE: 0 MISSED OPPORTUNITY: 0 UNCOVERED: 0
ITLB PREFETCHES SAME FILL-ORIGIN LEVEL: 0 DIFFERENT FILL-ORIGIN LEVEL: 0
ITLB AVERAGE MISS LATENCY: -nan cycles
ITLB AVERAGE MISS LATENCY LOAD: -nan cycles
ITLB AVERAGE MISS LATENCY PREFETCH: -nan cycles
ITLB AVERAGE MSHR OCCUPANCY: 0
ITLB MSHR FULL: 0
ITLB RQ	ACCESS:   30206648	FORWARD:          0	MERGED:    5097608	TO_CACHE:   25109040

DTLB SPEC fills:          0  NON-SPEC fills:          0
DTLB Test counter :          0
DTLB Leapfrog:          0
DTLB MSHR merge:          0
DTLB TOTAL     ACCESS:   47421834  HIT:   47305121  MISS:     116713  HIT %:    99.7539  MISS %:   0.246117   MPKI: 0.583565
DTLB LOAD TRANSLATION NON_SPEC    ACCESS:   47421834  HIT:   47305121  MISS:     116713  HIT %:    99.7539  MISS %:   0.246117   MPKI: 0.583565
DTLB PREFETCH  REQUESTED:          0  ISSUED:          0  USEFUL:          0  USELESS:          0
DTLB USEFUL LOAD PREFETCHES:          0 PREFETCH ISSUED TO LOWER LEVEL:          0  ACCURACY: -nan
DTLB TIMELY PREFETCHES:          0 LATE PREFETCHES: 0 DROPPED PREFETCHES: 0
DTLB COMMIT LATE PREFETCHES: 0 MISSED OPPORTUNITY: 0 LATE IN PQ: 0 UNCOVERED: 0
DTLB COMMIT LATE MSHR PREFETCHES: 0
DTLB MPKI TOTAL: 0 MSHR LATE: 0 PQ LATE: 0 COMMIT LATE: 0 MISSED OPPORTUNITY: 0 UNCOVERED: 0
DTLB PREFETCHES SAME FILL-ORIGIN LEVEL: 0 DIFFERENT FILL-ORIGIN LEVEL: 0
DTLB AVERAGE MISS LATENCY: 97.294 cycles
DTLB AVERAGE MISS LATENCY LOAD: -nan cycles
DTLB AVERAGE MISS LATENCY PREFETCH: -nan cycles
DTLB AVERAGE MSHR OCCUPANCY: 0.0242777
DTLB MSHR FULL: 0.000151498
DTLB RQ	ACCESS:   57908311	FORWARD:          0	MERGED:   10482600	TO_CACHE:   47425711

STLB SPEC fills:          0  NON-SPEC fills:          0
STLB Test counter :          0
STLB Leapfrog:          0
STLB MSHR merge:          0
STLB TOTAL     ACCESS:     116713  HIT:      62107  MISS:      54606  HIT %:    53.2134  MISS %:    46.7866   MPKI: 0.27303
STLB LOAD TRANSLATION NON_SPEC    ACCESS:     116713  HIT:      62107  MISS:      54606  HIT %:    53.2134  MISS %:    46.7866   MPKI: 0.27303
STLB PREFETCH  REQUESTED:          0  ISSUED:          0  USEFUL:          0  USELESS:          0
STLB USEFUL LOAD PREFETCHES:          0 PREFETCH ISSUED TO LOWER LEVEL:          0  ACCURACY: -nan
STLB TIMELY PREFETCHES:          0 LATE PREFETCHES: 0 DROPPED PREFETCHES: 0
STLB COMMIT LATE PREFETCHES: 0 MISSED OPPORTUNITY: 0 LATE IN PQ: 0 UNCOVERED: 0
STLB COMMIT LATE MSHR PREFETCHES: 0
STLB MPKI TOTAL: 0 MSHR LATE: 0 PQ LATE: 0 COMMIT LATE: 0 MISSED OPPORTUNITY: 0 UNCOVERED: 0
STLB PREFETCHES SAME FILL-ORIGIN LEVEL: 0 DIFFERENT FILL-ORIGIN LEVEL: 0
STLB AVERAGE MISS LATENCY: 188.627 cycles
STLB AVERAGE MISS LATENCY LOAD: -nan cycles
STLB AVERAGE MISS LATENCY PREFETCH: -nan cycles
STLB AVERAGE MSHR OCCUPANCY: 0.06845
STLB MSHR FULL: 0
STLB RQ	ACCESS:     116713	FORWARD:          0	MERGED:          0	TO_CACHE:     116713

STLB Hit, L1D data hit: 0
STLB Hit, L2C data hit: 0
STLB Hit, LLC data hit: 0
STLB Hit, LLC data miss: 0
STLB STLB hints to L2: 0
L0D SPEC fills:   31589193  NON-SPEC fills:          0
L0D TimeGuard Request with older TS:    1990178 Restricted eviction:    2081410 read:    1374254
L0D Test counter :          0
L0D Leapfrog:          0
L0D MSHR merge:    2947970
L0D TOTAL     ACCESS:   45125905  HIT:    9723786  MISS:   35402119  HIT %:    21.5481  MISS %:    78.4519   MPKI: 177.011
L0D LOAD      TOTAL       ACCESS:   45125905  HIT:    9723786  MISS:   35402119  HIT %:    21.5481  MISS %:    78.4519   MPKI: 177.011
L0D LOAD      NON_SPEC    ACCESS:    1864147  HIT:     132113  MISS:    1732034  HIT %:    7.08705  MISS %:     92.913   MPKI: 8.66017
L0D LOAD      SPEC        ACCESS:   43261758  HIT:    9591673  MISS:   33670085  HIT %:    22.1713  MISS %:    77.8287   MPKI: 168.35
L0D PREFETCH  REQUESTED:          0  ISSUED:          0  USEFUL:          0  USELESS:          0
L0D USEFUL LOAD PREFETCHES:          0 PREFETCH ISSUED TO LOWER LEVEL:          0  ACCURACY: -nan
L0D TIMELY PREFETCHES:          0 LATE PREFETCHES: 0 DROPPED PREFETCHES: 0
L0D COMMIT LATE PREFETCHES: 0 MISSED OPPORTUNITY: 0 LATE IN PQ: 0 UNCOVERED: 0
L0D COMMIT LATE MSHR PREFETCHES: 0
L0D MPKI TOTAL: 191.75 MSHR LATE: 0 PQ LATE: 0 COMMIT LATE: 0 MISSED OPPORTUNITY: 0 UNCOVERED: 0
L0D PREFETCHES SAME FILL-ORIGIN LEVEL: 0 DIFFERENT FILL-ORIGIN LEVEL: 0
L0D AVERAGE MISS LATENCY: 25.7007 cycles
L0D AVERAGE MISS LATENCY LOAD: 25.7007 cycles
L0D AVERAGE MISS LATENCY PREFETCH: -nan cycles
L0D AVERAGE MSHR OCCUPANCY: 3.79409
L0D MSHR FULL: 0.142109
L0D RQ	ACCESS:   68339147	FORWARD:          0	MERGED:   20265278	TO_CACHE:   48073869
L0D WQ	ACCESS:    9834442	FORWARD:          0	MERGED:          0	TO_CACHE:    9834442

L1D SPEC fills:          0  NON-SPEC fills:     170667
L1D Test counter :    3089738
L1D Leapfrog:          0
L1D MSHR merge:      70272
L1D TOTAL     ACCESS:   49166927  HIT:   42750011  MISS:    6416916  HIT %:    86.9487  MISS %:    13.0513   MPKI: 32.0846
L1D LOAD      TOTAL       ACCESS:   35331846  HIT:   32030120  MISS:    3301726  HIT %:    90.6551  MISS %:     9.3449   MPKI: 16.5086
L1D LOAD      NON_SPEC    ACCESS:    1731334  HIT:    1560667  MISS:     170667  HIT %:    90.1425  MISS %:    9.85754   MPKI: 0.853335
L1D LOAD      SPEC        ACCESS:   33600512  HIT:   30469453  MISS:    3131059  HIT %:    90.6815  MISS %:    9.31849   MPKI: 15.6553
L1D RFO       NON_SPEC    ACCESS:    9816717  HIT:    9816717  MISS:          0  HIT %:        100  MISS %:          0   MPKI: 0
L1D COMMIT LOAD NON_SPEC    ACCESS:     848412  HIT:     768388  MISS:      80024  HIT %:    90.5678  MISS %:    9.43221   MPKI: 0.40012
L1D COMMIT WRITE NON_SPEC    ACCESS:    3169952  HIT:     134786  MISS:    3035166  HIT %:    4.25199  MISS %:     95.748   MPKI: 15.1758
L1D PREFETCH  REQUESTED:          0  ISSUED:          0  USEFUL:          0  USELESS:          0
L1D USEFUL LOAD PREFETCHES:          0 PREFETCH ISSUED TO LOWER LEVEL:          0  ACCURACY: -nan
L1D TIMELY PREFETCHES:          0 LATE PREFETCHES: 0 DROPPED PREFETCHES: 0
L1D COMMIT LATE PREFETCHES: 0 MISSED OPPORTUNITY: 0 LATE IN PQ: 0 UNCOVERED: 0
L1D COMMIT LATE MSHR PREFETCHES: 0
L1D MPKI TOTAL: 16.86 MSHR LATE: 0 PQ LATE: 0 COMMIT LATE: 0 MISSED OPPORTUNITY: 0 UNCOVERED: 0
L1D PREFETCHES SAME FILL-ORIGIN LEVEL: 0 DIFFERENT FILL-ORIGIN LEVEL: 0
L1D AVERAGE MISS LATENCY: 110.728 cycles
L1D AVERAGE MISS LATENCY LOAD: 209.527 cycles
L1D AVERAGE MISS LATENCY PREFETCH: -nan cycles
L1D AVERAGE MSHR OCCUPANCY: 1.17599
L1D MSHR FULL: 0
L1D RQ	ACCESS:   36394733	FORWARD:          0	MERGED:     132864	TO_CACHE:   36261820
L1D WQ	ACCESS:   13004395	FORWARD:         49	MERGED:       1346	TO_CACHE:   13003049

L1D UNIQUE REGIONS ACCESSED: 0
L1D REGIONS CONFLICTS: 0
L1D Cross Page Prefetch Requests: 0
L1D Same Page Prefetch Requests: 0
L1D ROI Sum of L1D PQ occupancy: 0
L1D PREFETCHES PUSHED FROM L2C: 0
L1I SPEC fills:          0  NON-SPEC fills:          0
L1I Test counter :          0
L1I Leapfrog:          0
L1I MSHR merge:          0
L1I TOTAL     ACCESS:   30206647  HIT:   30206647  MISS:          0  HIT %:        100  MISS %:          0   MPKI: 0
L1I LOAD      TOTAL       ACCESS:   30206647  HIT:   30206647  MISS:          0  HIT %:        100  MISS %:          0   MPKI: 0
L1I LOAD      NON_SPEC    ACCESS:   30206647  HIT:   30206647  MISS:          0  HIT %:        100  MISS %:          0   MPKI: 0
L1I PREFETCH  REQUESTED:          0  ISSUED:          0  USEFUL:          0  USELESS:          0
L1I USEFUL LOAD PREFETCHES:          0 PREFETCH ISSUED TO LOWER LEVEL:          0  ACCURACY: -nan
L1I TIMELY PREFETCHES:          0 LATE PREFETCHES: 0 DROPPED PREFETCHES: 0
L1I COMMIT LATE PREFETCHES: 0 MISSED OPPORTUNITY: 0 LATE IN PQ: 0 UNCOVERED: 0
L1I COMMIT LATE MSHR PREFETCHES: 0
L1I MPKI TOTAL: 0 MSHR LATE: 0 PQ LATE: 0 COMMIT LATE: 0 MISSED OPPORTUNITY: 0 UNCOVERED: 0
L1I PREFETCHES SAME FILL-ORIGIN LEVEL: 0 DIFFERENT FILL-ORIGIN LEVEL: 0
L1I AVERAGE MISS LATENCY: -nan cycles
L1I AVERAGE MISS LATENCY LOAD: -nan cycles
L1I AVERAGE MISS LATENCY PREFETCH: -nan cycles
L1I AVERAGE MSHR OCCUPANCY: 0
L1I MSHR FULL: 0
L1I RQ	ACCESS:   46551337	FORWARD:          0	MERGED:   16344689	TO_CACHE:   30206648

BTB SPEC fills:          0  NON-SPEC fills:          0
BTB Test counter :          0
BTB Leapfrog:          0
BTB MSHR merge:          0
BTB TOTAL     ACCESS:    1347105  HIT:    1347102  MISS:          3  HIT %:    99.9998  MISS %:  0.0002227   MPKI: 1.5e-05
BTB BRANCH_DIRECT_JUMP	ACCESS:          0  HIT:          0  MISS:          0
BTB BRANCH_INDIRECT	ACCESS:          0  HIT:          0  MISS:          0
BTB BRANCH_CONDITIONAL	ACCESS:    1347105  HIT:    1347102  MISS:          3
BTB BRANCH_DIRECT_CALL	ACCESS:          0  HIT:          0  MISS:          0
BTB BRANCH_INDIRECT_CALL	ACCESS:          0  HIT:          0  MISS:          0
BTB BRANCH_RETURN	ACCESS:          0  HIT:          0  MISS:          0
BTB BRANCH_OTHER ACCESS:          0  HIT:          0  MISS:          0

L2C SPEC fills:          0  NON-SPEC fills:     170574
L2C Test counter :    3089367
L2C Leapfrog:          0
L2C MSHR merge:          0
L2C TOTAL     ACCESS:    6824103  HIT:     421241  MISS:    6402862  HIT %:    6.17284  MISS %:    93.8272   MPKI: 32.0143
L2C LOAD      TOTAL       ACCESS:    3301721  HIT:      10631  MISS:    3291090  HIT %:   0.321984  MISS %:     99.678   MPKI: 16.4554
L2C LOAD      NON_SPEC    ACCESS:     170666  HIT:         92  MISS:     170574  HIT %:  0.0539065  MISS %:    99.9461   MPKI: 0.85287
L2C LOAD      SPEC        ACCESS:    3131055  HIT:      10539  MISS:    3120516  HIT %:   0.336596  MISS %:    99.6634   MPKI: 15.6026
L2C WRITEBACK NON_SPEC    ACCESS:      79678  HIT:      79678  MISS:          0  HIT %:        100  MISS %:          0   MPKI: 0
L2C CLEAN_EVICTION NON_SPEC    ACCESS:    3089735  HIT:      64212  MISS:    3025523  HIT %:    2.07824  MISS %:    97.9218   MPKI: 15.1276
L2C COMMIT LOAD NON_SPEC    ACCESS:      80024  HIT:        804  MISS:      79220  HIT %:     1.0047  MISS %:    98.9953   MPKI: 0.3961
L2C LOAD TRANSLATION NON_SPEC    ACCESS:     272945  HIT:     265916  MISS:       7029  HIT %:    97.4248  MISS %:    2.57524   MPKI: 0.035145
L2C PREFETCH  REQUESTED:          0  ISSUED:          0  USEFUL:          0  USELESS:          0
L2C USEFUL LOAD PREFETCHES:          0 PREFETCH ISSUED TO LOWER LEVEL:          0  ACCURACY: -nan
L2C TIMELY PREFETCHES:          0 LATE PREFETCHES: 0 DROPPED PREFETCHES: 0
L2C COMMIT LATE PREFETCHES: 0 MISSED OPPORTUNITY: 0 LATE IN PQ: 0 UNCOVERED: 0
L2C COMMIT LATE MSHR PREFETCHES: 0
L2C MPKI TOTAL: 16.4554 MSHR LATE: 0 PQ LATE: 0 COMMIT LATE: 0 MISSED OPPORTUNITY: 0 UNCOVERED: 0
L2C PREFETCHES SAME FILL-ORIGIN LEVEL: 0 DIFFERENT FILL-ORIGIN LEVEL: 0
L2C AVERAGE MISS LATENCY: 105.236 cycles
L2C AVERAGE MISS LATENCY LOAD: 198.908 cycles
L2C AVERAGE MISS LATENCY PREFETCH: -nan cycles
L2C AVERAGE MSHR OCCUPANCY: 1.52615
L2C MSHR FULL: 0
L2C RQ	ACCESS:    3654695	FORWARD:          0	MERGED:          0	TO_CACHE:    3654690
L2C WQ	ACCESS:    3169416	FORWARD:          5	MERGED:          0	TO_CACHE:    3169416

L2C Instructions Evicting Data 0
L2C Translations Evicting Data 7023
L2C Data Evicting Data 249273
L2C Instructions Evicting Instructions 0
L2C Translations Evicting Instructions 0
L2C Data Evicting Instructions 0
L2C Instructions Evicting Translations 0
L2C Translations Evicting Translations 6
L2C Data Evicting Translations 521
L2C Dense regions hint from L2: 0
PSCL5 SPEC fills:          0  NON-SPEC fills:          0
PSCL5 Test counter :          0
PSCL5 Leapfrog:          0
PSCL5 MSHR merge:          0
PSCL5 TOTAL     ACCESS:          0  HIT:          0  MISS:          0  HIT %:       -nan  MISS %:       -nan   MPKI: 0
PSCL5 PREFETCH  REQUESTED:          0  ISSUED:          0  USEFUL:          0  USELESS:          0
PSCL5 USEFUL LOAD PREFETCHES:          0 PREFETCH ISSUED TO LOWER LEVEL:          0  ACCURACY: -nan
PSCL5 TIMELY PREFETCHES:          0 LATE PREFETCHES: 0 DROPPED PREFETCHES: 0
PSCL5 COMMIT LATE PREFETCHES: 0 MISSED OPPORTUNITY: 0 LATE IN PQ: 0 UNCOVERED: 0
PSCL5 COMMIT LATE MSHR PREFETCHES: 0
PSCL5 MPKI TOTAL: 0 MSHR LATE: 0 PQ LATE: 0 COMMIT LATE: 0 MISSED OPPORTUNITY: 0 UNCOVERED: 0
PSCL5 PREFETCHES SAME FILL-ORIGIN LEVEL: 0 DIFFERENT FILL-ORIGIN LEVEL: 0

PSCL4 SPEC fills:          0  NON-SPEC fills:          0
PSCL4 Test counter :          0
PSCL4 Leapfrog:          0
PSCL4 MSHR merge:          0
PSCL4 TOTAL     ACCESS:          0  HIT:          0  MISS:          0  HIT %:       -nan  MISS %:       -nan   MPKI: 0
PSCL4 PREFETCH  REQUESTED:          0  ISSUED:          0  USEFUL:          0  USELESS:          0
PSCL4 USEFUL LOAD PREFETCHES:          0 PREFETCH ISSUED TO LOWER LEVEL:          0  ACCURACY: -nan
PSCL4 TIMELY PREFETCHES:          0 LATE PREFETCHES: 0 DROPPED PREFETCHES: 0
PSCL4 COMMIT LATE PREFETCHES: 0 MISSED OPPORTUNITY: 0 LATE IN PQ: 0 UNCOVERED: 0
PSCL4 COMMIT LATE MSHR PREFETCHES: 0
PSCL4 MPKI TOTAL: 0 MSHR LATE: 0 PQ LATE: 0 COMMIT LATE: 0 MISSED OPPORTUNITY: 0 UNCOVERED: 0
PSCL4 PREFETCHES SAME FILL-ORIGIN LEVEL: 0 DIFFERENT FILL-ORIGIN LEVEL: 0

PSCL3 SPEC fills:          0  NON-SPEC fills:          0
PSCL3 Test counter :          0
PSCL3 Leapfrog:          0
PSCL3 MSHR merge:          0
PSCL3 TOTAL     ACCESS:          0  HIT:          0  MISS:          0  HIT %:       -nan  MISS %:       -nan   MPKI: 0
PSCL3 PREFETCH  REQUESTED:          0  ISSUED:          0  USEFUL:          0  USELESS:          0
PSCL3 USEFUL LOAD PREFETCHES:          0 PREFETCH ISSUED TO LOWER LEVEL:          0  ACCURACY: -nan
PSCL3 TIMELY PREFETCHES:          0 LATE PREFETCHES: 0 DROPPED PREFETCHES: 0
PSCL3 COMMIT LATE PREFETCHES: 0 MISSED OPPORTUNITY: 0 LATE IN PQ: 0 UNCOVERED: 0
PSCL3 COMMIT LATE MSHR PREFETCHES: 0
PSCL3 MPKI TOTAL: 0 MSHR LATE: 0 PQ LATE: 0 COMMIT LATE: 0 MISSED OPPORTUNITY: 0 UNCOVERED: 0
PSCL3 PREFETCHES SAME FILL-ORIGIN LEVEL: 0 DIFFERENT FILL-ORIGIN LEVEL: 0

PSCL2 SPEC fills:          0  NON-SPEC fills:          0
PSCL2 Test counter :          0
PSCL2 Leapfrog:          0
PSCL2 MSHR merge:          0
PSCL2 TOTAL     ACCESS:          0  HIT:          0  MISS:          0  HIT %:       -nan  MISS %:       -nan   MPKI: 0
PSCL2 PREFETCH  REQUESTED:          0  ISSUED:          0  USEFUL:          0  USELESS:          0
PSCL2 USEFUL LOAD PREFETCHES:          0 PREFETCH ISSUED TO LOWER LEVEL:          0  ACCURACY: -nan
PSCL2 TIMELY PREFETCHES:          0 LATE PREFETCHES: 0 DROPPED PREFETCHES: 0
PSCL2 COMMIT LATE PREFETCHES: 0 MISSED OPPORTUNITY: 0 LATE IN PQ: 0 UNCOVERED: 0
PSCL2 COMMIT LATE MSHR PREFETCHES: 0
PSCL2 MPKI TOTAL: 0 MSHR LATE: 0 PQ LATE: 0 COMMIT LATE: 0 MISSED OPPORTUNITY: 0 UNCOVERED: 0
PSCL2 PREFETCHES SAME FILL-ORIGIN LEVEL: 0 DIFFERENT FILL-ORIGIN LEVEL: 0

LLC SPEC fills:          0  NON-SPEC fills:     170571
LLC Test counter :    3087580
LLC Leapfrog:          0
LLC MSHR merge:          0
LLC TOTAL     ACCESS:    6546300  HIT:     145022  MISS:    6401278  HIT %:    2.21533  MISS %:    97.7847   MPKI: 32.0064
LLC LOAD      TOTAL       ACCESS:    3291090  HIT:        727  MISS:    3290363  HIT %:  0.0220899  MISS %:    99.9779   MPKI: 16.4518
LLC LOAD      NON_SPEC    ACCESS:     170574  HIT:          3  MISS:     170571  HIT %: 0.00175877  MISS %:    99.9982   MPKI: 0.852855
LLC LOAD      SPEC        ACCESS:    3120516  HIT:        724  MISS:    3119792  HIT %:  0.0232013  MISS %:    99.9768   MPKI: 15.599
LLC WRITEBACK NON_SPEC    ACCESS:      79594  HIT:      79594  MISS:          0  HIT %:        100  MISS %:          0   MPKI: 0
LLC CLEAN_EVICTION NON_SPEC    ACCESS:    3089367  HIT:      64634  MISS:    3024733  HIT %:    2.09214  MISS %:    97.9079   MPKI: 15.1237
LLC COMMIT LOAD NON_SPEC    ACCESS:      79220  HIT:         41  MISS:      79179  HIT %:  0.0517546  MISS %:    99.9482   MPKI: 0.395895
LLC LOAD TRANSLATION NON_SPEC    ACCESS:       7029  HIT:         26  MISS:       7003  HIT %:   0.369896  MISS %:    99.6301   MPKI: 0.035015
LLC PREFETCH  REQUESTED:          0  ISSUED:          0  USEFUL:          0  USELESS:          0
LLC USEFUL LOAD PREFETCHES:          0 PREFETCH ISSUED TO LOWER LEVEL:          0  ACCURACY: -nan
LLC TIMELY PREFETCHES:          0 LATE PREFETCHES: 0 DROPPED PREFETCHES: 0
LLC COMMIT LATE PREFETCHES: 0 MISSED OPPORTUNITY: 0 LATE IN PQ: 0 UNCOVERED: 0
LLC COMMIT LATE MSHR PREFETCHES: 0
LLC MPKI TOTAL: 16.4518 MSHR LATE: 0 PQ LATE: 0 COMMIT LATE: 0 MISSED OPPORTUNITY: 0 UNCOVERED: 0
LLC PREFETCHES SAME FILL-ORIGIN LEVEL: 0 DIFFERENT FILL-ORIGIN LEVEL: 0
LLC AVERAGE MISS LATENCY: 93.7367 cycles
LLC AVERAGE MISS LATENCY LOAD: 177.319 cycles
LLC AVERAGE MISS LATENCY PREFETCH: -nan cycles
LLC AVERAGE MSHR OCCUPANCY: 1.40666
LLC MSHR FULL: 0
LLC RQ	ACCESS:    3377339	FORWARD:          0	MERGED:          0	TO_CACHE:    3377339
LLC WQ	ACCESS:    3168961	FORWARD:          0	MERGED:          0	TO_CACHE:    3168961

LLC Dense regions hint to LLC: 0

RAW hits: 2406654
Loads Generated: 70745802
Loads sent to L1D: 68339147
Stores Generated: 9834443
Stores sent to L1D: 9834442
Major fault: 0 Minor fault: 54759
Allocated PAGES: 54759
Total Load insts: 85423102
Total Non-spec loads: 2245996
Percentage of speculative loads: 97.3707

LeapFrogging counter: 4279648
Commit hits: 29711856 miss: 36716831
Commit hit %: 44.7274 miss %: 55.2726
Commits not translated: 0
Loads retired: 3301724
Stores retired: 9834442
Cache fills: 3301726
L1D response latency: 209.527 cycles
Load retirement latency: 278.327 cycles
OOO test counter: 0
Discarded buffer inserts: 29711856 hits: 5712 hit %: 0.0192246

DRAM Statistics
 CHANNEL 0
 RQ ROW_BUFFER_HIT:     491890  ROW_BUFFER_MISS:    2884655
 DBUS_CONGESTED:       5901
 WQ ROW_BUFFER_HIT:    1947777  ROW_BUFFER_MISS:    1219263  FULL:          0

 AVG_CONGESTED_CYCLE: 6
 All warmup complete: 2
Channel 0 Bank busy for read cycles: 0
Channel 0 Bank busy for write cycles: 0
Channel 0
Rank 0
0banks busy for read cycles: 8161975
0banks busy for write cycles: 19898
1banks busy for read cycles: 100836623
1banks busy for write cycles: 3752582
2banks busy for read cycles: 69644280
2banks busy for write cycles: 3295050
3banks busy for read cycles: 41659991
3banks busy for write cycles: 3307927
4banks busy for read cycles: 16349312
4banks busy for write cycles: 3753739
5banks busy for read cycles: 4422705
5banks busy for write cycles: 4418336
6banks busy for read cycles: 678859
6banks busy for write cycles: 5750933
7banks busy for read cycles: 95543
7banks busy for write cycles: 15549171
8banks busy for read cycles: 4716
8banks busy for write cycles: 82671544

CPU 0 Branch Prediction Accuracy: 99.9985% MPKI: 0.000105 Average ROB Occupancy at Mispredict: 330.143
Branch types
NOT_BRANCH: 198619161 99.3096%
BRANCH_DIRECT_JUMP: 0 0%
BRANCH_INDIRECT: 0 0%
BRANCH_CONDITIONAL: 1380807 0.690403%
BRANCH_DIRECT_CALL: 0 0%
BRANCH_INDIRECT_CALL: 0 0%
BRANCH_RETURN: 0 0%
BRANCH_OTHER: 0 0%

DRAM PAGES: 1048576
Allocated PAGES: 54759
