
*** ChampSim Multicore Out-of-Order Simulator ***

Warmup Instructions: 50000000
Simulation Instructions: 200000000
Number of CPUs: 1
LLC sets: 2048
LLC ways: 16
L0D sets: 16
L0D ways: 2
ROB size: 352
LQ size: 128
SQ size: 72
Secure Berti: OFF
Berti: OFF
Berti Fill: OFF
On commit prefetching: OFF
Hit-based filter: ON
Time-guarding: ON
Free-slotting: ON
Leap-frogging: ON
Train prefetcher on L0D bypass: OFF
No translation penalty for prefetchers: OFF
Prefetch to L0D only: OFF
Prefetch to L1D only: OFF
Clean evictions: ON
Commit loads: ON
Commit write: ON
Fill commit loads to L2C, LLC: ON
DRAM IO FREQUENCY: 6400
ROB SIZE: 352
Off-chip DRAM Size: 4096 MB Channels: 1 Width: 64-bit Data Rate: 6400 MT/s
CPU 0 runs /home/sumon/secure_berti/GhostMinion/../../traces/spec/649.fotonik3d_s-10881B.champsimtrace.xz
.xz
BTB has LRU replacement policy
ITLB has LRU replacement policy
DTLB has LRU replacement policy
STLB has LRU replacement policy
L1I has LRU replacement policy
L0D has LRU replacement policy
L1D has LRU replacement policy
L2C has LRU replacement policy
LLC has LRU replacement policy
Heartbeat CPU 0 instructions: 10000000 cycles: 5576597 heartbeat IPC: 1.79321 cumulative IPC: 1.79321 (Simulation time: 0 hr 0 min 47 sec) 
Heartbeat CPU 0 instructions: 20000000 cycles: 11136145 heartbeat IPC: 1.79871 cumulative IPC: 1.79595 (Simulation time: 0 hr 1 min 35 sec) 
Heartbeat CPU 0 instructions: 30000000 cycles: 16695393 heartbeat IPC: 1.7988 cumulative IPC: 1.7969 (Simulation time: 0 hr 2 min 22 sec) 
Heartbeat CPU 0 instructions: 40000002 cycles: 22255631 heartbeat IPC: 1.79848 cumulative IPC: 1.7973 (Simulation time: 0 hr 3 min 9 sec) 
Heartbeat CPU 0 instructions: 50000002 cycles: 27822708 heartbeat IPC: 1.79627 cumulative IPC: 1.79709 (Simulation time: 0 hr 3 min 57 sec) 

Warmup complete CPU 0 instructions: 50000002 cycles: 27822708 (Simulation time: 0 hr 3 min 57 sec) 

Heartbeat CPU 0 instructions: 60000000 cycles: 49486454 heartbeat IPC: 0.461601 cumulative IPC: 0.461601 (Simulation time: 0 hr 5 min 4 sec) 
Heartbeat CPU 0 instructions: 70000002 cycles: 71217638 heartbeat IPC: 0.460168 cumulative IPC: 0.460883 (Simulation time: 0 hr 6 min 12 sec) 
Heartbeat CPU 0 instructions: 80000003 cycles: 92984787 heartbeat IPC: 0.459408 cumulative IPC: 0.46039 (Simulation time: 0 hr 7 min 20 sec) 
Heartbeat CPU 0 instructions: 90000003 cycles: 114740338 heartbeat IPC: 0.459653 cumulative IPC: 0.460206 (Simulation time: 0 hr 8 min 28 sec) 
Heartbeat CPU 0 instructions: 100000003 cycles: 136476232 heartbeat IPC: 0.460068 cumulative IPC: 0.460178 (Simulation time: 0 hr 9 min 36 sec) 
Heartbeat CPU 0 instructions: 110000000 cycles: 158165524 heartbeat IPC: 0.461057 cumulative IPC: 0.460325 (Simulation time: 0 hr 10 min 45 sec) 
Heartbeat CPU 0 instructions: 120000003 cycles: 180064703 heartbeat IPC: 0.456638 cumulative IPC: 0.459794 (Simulation time: 0 hr 11 min 55 sec) 
Heartbeat CPU 0 instructions: 130000001 cycles: 201851822 heartbeat IPC: 0.458987 cumulative IPC: 0.459693 (Simulation time: 0 hr 13 min 4 sec) 
Heartbeat CPU 0 instructions: 140000002 cycles: 223665510 heartbeat IPC: 0.458428 cumulative IPC: 0.459552 (Simulation time: 0 hr 14 min 14 sec) 
Heartbeat CPU 0 instructions: 150000003 cycles: 245448793 heartbeat IPC: 0.459068 cumulative IPC: 0.459504 (Simulation time: 0 hr 15 min 20 sec) 
Heartbeat CPU 0 instructions: 160000001 cycles: 267248017 heartbeat IPC: 0.458732 cumulative IPC: 0.459433 (Simulation time: 0 hr 16 min 20 sec) 
Heartbeat CPU 0 instructions: 170000003 cycles: 289097250 heartbeat IPC: 0.457682 cumulative IPC: 0.459287 (Simulation time: 0 hr 17 min 18 sec) 
Heartbeat CPU 0 instructions: 180000000 cycles: 310826601 heartbeat IPC: 0.460207 cumulative IPC: 0.459358 (Simulation time: 0 hr 18 min 16 sec) 
Heartbeat CPU 0 instructions: 190000002 cycles: 332532591 heartbeat IPC: 0.460702 cumulative IPC: 0.459453 (Simulation time: 0 hr 19 min 13 sec) 
Heartbeat CPU 0 instructions: 200000002 cycles: 354368820 heartbeat IPC: 0.457955 cumulative IPC: 0.459353 (Simulation time: 0 hr 20 min 9 sec) 
Heartbeat CPU 0 instructions: 210000002 cycles: 376128573 heartbeat IPC: 0.459564 cumulative IPC: 0.459366 (Simulation time: 0 hr 21 min 4 sec) 
Heartbeat CPU 0 instructions: 220000000 cycles: 397894956 heartbeat IPC: 0.459424 cumulative IPC: 0.45937 (Simulation time: 0 hr 21 min 59 sec) 
Heartbeat CPU 0 instructions: 230000001 cycles: 419620845 heartbeat IPC: 0.46028 cumulative IPC: 0.45942 (Simulation time: 0 hr 22 min 54 sec) 
Heartbeat CPU 0 instructions: 240000002 cycles: 441456026 heartbeat IPC: 0.457977 cumulative IPC: 0.459344 (Simulation time: 0 hr 23 min 48 sec) 
Heartbeat CPU 0 instructions: 250000000 cycles: 463247806 heartbeat IPC: 0.458889 cumulative IPC: 0.459321 (Simulation time: 0 hr 24 min 43 sec) 
Finished CPU 0 instructions: 200000002 cycles: 435425099 cumulative IPC: 0.459321 (Simulation time: 0 hr 24 min 43 sec) 
 Instruction ID: 250000353

ChampSim completed all CPUs

Region of Interest Statistics

CPU 0 cumulative IPC: 0.459321 instructions: 200000002 cycles: 435425099
ITLB SPEC fills:          0  NON-SPEC fills:          0
ITLB Test counter :          0
ITLB Leapfrog:          0
ITLB MSHR merge:          0
ITLB TOTAL     ACCESS:   28178942  HIT:   28178942  MISS:          0  HIT %:        100  MISS %:          0   MPKI: 0
ITLB LOAD TRANSLATION NON_SPEC    ACCESS:   28178942  HIT:   28178942  MISS:          0  HIT %:        100  MISS %:          0   MPKI: 0
ITLB PREFETCH  REQUESTED:          0  ISSUED:          0  USEFUL:          0  USELESS:          0
ITLB USEFUL LOAD PREFETCHES:          0 PREFETCH ISSUED TO LOWER LEVEL:          0  ACCURACY: -nan
ITLB TIMELY PREFETCHES:          0 LATE PREFETCHES: 0 DROPPED PREFETCHES: 0
ITLB COMMIT LATE PREFETCHES: 0 MISSED OPPORTUNITY: 0 LATE IN PQ: 0 UNCOVERED: 0
ITLB COMMIT LATE MSHR PREFETCHES: 0
ITLB MPKI TOTAL: 0 MSHR LATE: 0 PQ LATE: 0 COMMIT LATE: 0 MISSED OPPORTUNITY: 0 UNCOVERED: 0
ITLB PREFETCHES SAME FILL-ORIGIN LEVEL: 0 DIFFERENT FILL-ORIGIN LEVEL: 0
ITLB AVERAGE MISS LATENCY: -nan cycles
ITLB AVERAGE MISS LATENCY LOAD: -nan cycles
ITLB AVERAGE MISS LATENCY PREFETCH: -nan cycles
ITLB AVERAGE MSHR OCCUPANCY: 0
ITLB MSHR FULL: 0
ITLB RQ	ACCESS:   29796072	FORWARD:          0	MERGED:    1617130	TO_CACHE:   28178942

DTLB SPEC fills:          0  NON-SPEC fills:          0
DTLB Test counter :          0
DTLB Leapfrog:          0
DTLB MSHR merge:          0
DTLB TOTAL     ACCESS:   93774090  HIT:   92745141  MISS:    1028949  HIT %:    98.9027  MISS %:    1.09726   MPKI: 5.14474
DTLB LOAD TRANSLATION NON_SPEC    ACCESS:   93774090  HIT:   92745141  MISS:    1028949  HIT %:    98.9027  MISS %:    1.09726   MPKI: 5.14474
DTLB PREFETCH  REQUESTED:          0  ISSUED:          0  USEFUL:          0  USELESS:          0
DTLB USEFUL LOAD PREFETCHES:          0 PREFETCH ISSUED TO LOWER LEVEL:          0  ACCURACY: -nan
DTLB TIMELY PREFETCHES:          0 LATE PREFETCHES: 0 DROPPED PREFETCHES: 0
DTLB COMMIT LATE PREFETCHES: 0 MISSED OPPORTUNITY: 0 LATE IN PQ: 0 UNCOVERED: 0
DTLB COMMIT LATE MSHR PREFETCHES: 0
DTLB MPKI TOTAL: 0 MSHR LATE: 0 PQ LATE: 0 COMMIT LATE: 0 MISSED OPPORTUNITY: 0 UNCOVERED: 0
DTLB PREFETCHES SAME FILL-ORIGIN LEVEL: 0 DIFFERENT FILL-ORIGIN LEVEL: 0
DTLB AVERAGE MISS LATENCY: 267.802 cycles
DTLB AVERAGE MISS LATENCY LOAD: -nan cycles
DTLB AVERAGE MISS LATENCY PREFETCH: -nan cycles
DTLB AVERAGE MSHR OCCUPANCY: 0.224605
DTLB MSHR FULL: 0.000576986
DTLB RQ	ACCESS:  109261436	FORWARD:          0	MERGED:   15422966	TO_CACHE:   93838470

STLB SPEC fills:          0  NON-SPEC fills:          0
STLB Test counter :          0
STLB Leapfrog:          0
STLB MSHR merge:          0
STLB TOTAL     ACCESS:    1028949  HIT:     349742  MISS:     679207  HIT %:    33.9902  MISS %:    66.0098   MPKI: 3.39603
STLB LOAD TRANSLATION NON_SPEC    ACCESS:    1028949  HIT:     349742  MISS:     679207  HIT %:    33.9902  MISS %:    66.0098   MPKI: 3.39603
STLB PREFETCH  REQUESTED:          0  ISSUED:          0  USEFUL:          0  USELESS:          0
STLB USEFUL LOAD PREFETCHES:          0 PREFETCH ISSUED TO LOWER LEVEL:          0  ACCURACY: -nan
STLB TIMELY PREFETCHES:          0 LATE PREFETCHES: 0 DROPPED PREFETCHES: 0
STLB COMMIT LATE PREFETCHES: 0 MISSED OPPORTUNITY: 0 LATE IN PQ: 0 UNCOVERED: 0
STLB COMMIT LATE MSHR PREFETCHES: 0
STLB MPKI TOTAL: 0 MSHR LATE: 0 PQ LATE: 0 COMMIT LATE: 0 MISSED OPPORTUNITY: 0 UNCOVERED: 0
STLB PREFETCHES SAME FILL-ORIGIN LEVEL: 0 DIFFERENT FILL-ORIGIN LEVEL: 0
STLB AVERAGE MISS LATENCY: 391.341 cycles
STLB AVERAGE MISS LATENCY LOAD: -nan cycles
STLB AVERAGE MISS LATENCY PREFETCH: -nan cycles
STLB AVERAGE MSHR OCCUPANCY: 1.06362
STLB MSHR FULL: 0
STLB RQ	ACCESS:    1028949	FORWARD:          0	MERGED:          0	TO_CACHE:    1028949

STLB Hit, L1D data hit: 0
STLB Hit, L2C data hit: 0
STLB Hit, LLC data hit: 0
STLB Hit, LLC data miss: 0
STLB STLB hints to L2: 0
L0D SPEC fills:   53131431  NON-SPEC fills:          0
L0D TimeGuard Request with older TS:    8477278 Restricted eviction:    5503088 read:    2267165
L0D Test counter :          0
L0D Leapfrog:          0
L0D MSHR merge:    5530950
L0D TOTAL     ACCESS:   90907867  HIT:   28267338  MISS:   62640529  HIT %:    31.0945  MISS %:    68.9055   MPKI: 313.203
L0D LOAD      TOTAL       ACCESS:   90907867  HIT:   28267338  MISS:   62640529  HIT %:    31.0945  MISS %:    68.9055   MPKI: 313.203
L0D LOAD      NON_SPEC    ACCESS:    5501243  HIT:    1495119  MISS:    4006124  HIT %:    27.1778  MISS %:    72.8222   MPKI: 20.0306
L0D LOAD      SPEC        ACCESS:   85406624  HIT:   26772219  MISS:   58634405  HIT %:    31.3468  MISS %:    68.6532   MPKI: 293.172
L0D PREFETCH  REQUESTED:          0  ISSUED:          0  USEFUL:          0  USELESS:          0
L0D USEFUL LOAD PREFETCHES:          0 PREFETCH ISSUED TO LOWER LEVEL:          0  ACCURACY: -nan
L0D TIMELY PREFETCHES:          0 LATE PREFETCHES: 0 DROPPED PREFETCHES: 0
L0D COMMIT LATE PREFETCHES: 0 MISSED OPPORTUNITY: 0 LATE IN PQ: 0 UNCOVERED: 0
L0D COMMIT LATE MSHR PREFETCHES: 0
L0D MPKI TOTAL: 340.857 MSHR LATE: 0 PQ LATE: 0 COMMIT LATE: 0 MISSED OPPORTUNITY: 0 UNCOVERED: 0
L0D PREFETCHES SAME FILL-ORIGIN LEVEL: 0 DIFFERENT FILL-ORIGIN LEVEL: 0
L0D AVERAGE MISS LATENCY: 16.7944 cycles
L0D AVERAGE MISS LATENCY LOAD: 16.7944 cycles
L0D AVERAGE MISS LATENCY PREFETCH: -nan cycles
L0D AVERAGE MSHR OCCUPANCY: 3.56945
L0D MSHR FULL: 0.0897304
L0D RQ	ACCESS:  127605198	FORWARD:          0	MERGED:   31166379	TO_CACHE:   96438819
L0D WQ	ACCESS:   12822617	FORWARD:          0	MERGED:          0	TO_CACHE:   12822617

L1D SPEC fills:          0  NON-SPEC fills:     111184
L1D Test counter :    3660676
L1D Leapfrog:          0
L1D MSHR merge:     181558
L1D TOTAL     ACCESS:   80570050  HIT:   72743210  MISS:    7826840  HIT %:    90.2857  MISS %:    9.71433   MPKI: 39.1342
L1D LOAD      TOTAL       ACCESS:   62458972  HIT:   58431283  MISS:    4027689  HIT %:    93.5515  MISS %:    6.44854   MPKI: 20.1384
L1D LOAD      NON_SPEC    ACCESS:    4003804  HIT:    3892620  MISS:     111184  HIT %:     97.223  MISS %:    2.77696   MPKI: 0.55592
L1D LOAD      SPEC        ACCESS:   58455168  HIT:   54538663  MISS:    3916505  HIT %:       93.3  MISS %:    6.70001   MPKI: 19.5825
L1D RFO       NON_SPEC    ACCESS:   12282234  HIT:   12281522  MISS:        712  HIT %:    99.9942  MISS %: 0.00579699   MPKI: 0.00356
L1D COMMIT LOAD NON_SPEC    ACCESS:    1854686  HIT:    1604363  MISS:     250323  HIT %:    86.5032  MISS %:    13.4968   MPKI: 1.25161
L1D COMMIT WRITE NON_SPEC    ACCESS:    3974158  HIT:     426042  MISS:    3548116  HIT %:    10.7203  MISS %:    89.2797   MPKI: 17.7406
L1D PREFETCH  REQUESTED:          0  ISSUED:          0  USEFUL:          0  USELESS:          0
L1D USEFUL LOAD PREFETCHES:          0 PREFETCH ISSUED TO LOWER LEVEL:          0  ACCURACY: -nan
L1D TIMELY PREFETCHES:          0 LATE PREFETCHES: 0 DROPPED PREFETCHES: 0
L1D COMMIT LATE PREFETCHES: 0 MISSED OPPORTUNITY: 0 LATE IN PQ: 0 UNCOVERED: 0
L1D COMMIT LATE MSHR PREFETCHES: 0
L1D MPKI TOTAL: 21.0462 MSHR LATE: 0 PQ LATE: 0 COMMIT LATE: 0 MISSED OPPORTUNITY: 0 UNCOVERED: 0
L1D PREFETCHES SAME FILL-ORIGIN LEVEL: 0 DIFFERENT FILL-ORIGIN LEVEL: 0
L1D AVERAGE MISS LATENCY: 87.4133 cycles
L1D AVERAGE MISS LATENCY LOAD: 161.212 cycles
L1D AVERAGE MISS LATENCY PREFETCH: -nan cycles
L1D AVERAGE MSHR OCCUPANCY: 1.25105
L1D MSHR FULL: 0
L1D RQ	ACCESS:   64613086	FORWARD:          0	MERGED:      41690	TO_CACHE:   64571385
L1D WQ	ACCESS:   16796775	FORWARD:         11	MERGED:     380248	TO_CACHE:   16416527

L1D UNIQUE REGIONS ACCESSED: 0
L1D REGIONS CONFLICTS: 0
L1D Cross Page Prefetch Requests: 0
L1D Same Page Prefetch Requests: 0
L1D ROI Sum of L1D PQ occupancy: 0
L1D PREFETCHES PUSHED FROM L2C: 0
L1I SPEC fills:          0  NON-SPEC fills:          0
L1I Test counter :          0
L1I Leapfrog:          0
L1I MSHR merge:          0
L1I TOTAL     ACCESS:   29796070  HIT:   29796070  MISS:          0  HIT %:        100  MISS %:          0   MPKI: 0
L1I LOAD      TOTAL       ACCESS:   29796070  HIT:   29796070  MISS:          0  HIT %:        100  MISS %:          0   MPKI: 0
L1I LOAD      NON_SPEC    ACCESS:   29796070  HIT:   29796070  MISS:          0  HIT %:        100  MISS %:          0   MPKI: 0
L1I PREFETCH  REQUESTED:          0  ISSUED:          0  USEFUL:          0  USELESS:          0
L1I USEFUL LOAD PREFETCHES:          0 PREFETCH ISSUED TO LOWER LEVEL:          0  ACCURACY: -nan
L1I TIMELY PREFETCHES:          0 LATE PREFETCHES: 0 DROPPED PREFETCHES: 0
L1I COMMIT LATE PREFETCHES: 0 MISSED OPPORTUNITY: 0 LATE IN PQ: 0 UNCOVERED: 0
L1I COMMIT LATE MSHR PREFETCHES: 0
L1I MPKI TOTAL: 0 MSHR LATE: 0 PQ LATE: 0 COMMIT LATE: 0 MISSED OPPORTUNITY: 0 UNCOVERED: 0
L1I PREFETCHES SAME FILL-ORIGIN LEVEL: 0 DIFFERENT FILL-ORIGIN LEVEL: 0
L1I AVERAGE MISS LATENCY: -nan cycles
L1I AVERAGE MISS LATENCY LOAD: -nan cycles
L1I AVERAGE MISS LATENCY PREFETCH: -nan cycles
L1I AVERAGE MSHR OCCUPANCY: 0
L1I MSHR FULL: 0
L1I RQ	ACCESS:   64987037	FORWARD:          0	MERGED:   35190965	TO_CACHE:   29796072

BTB SPEC fills:          0  NON-SPEC fills:          0
BTB Test counter :          0
BTB Leapfrog:          0
BTB MSHR merge:          0
BTB TOTAL     ACCESS:    2243766  HIT:    2243761  MISS:          5  HIT %:    99.9998  MISS %: 0.00022284   MPKI: 2.5e-05
BTB BRANCH_DIRECT_JUMP	ACCESS:     160245  HIT:     160244  MISS:          1
BTB BRANCH_INDIRECT	ACCESS:          0  HIT:          0  MISS:          0
BTB BRANCH_CONDITIONAL	ACCESS:    2083521  HIT:    2083517  MISS:          4
BTB BRANCH_DIRECT_CALL	ACCESS:          0  HIT:          0  MISS:          0
BTB BRANCH_INDIRECT_CALL	ACCESS:          0  HIT:          0  MISS:          0
BTB BRANCH_RETURN	ACCESS:          0  HIT:          0  MISS:          0
BTB BRANCH_OTHER ACCESS:          0  HIT:          0  MISS:          0

L2C SPEC fills:          0  NON-SPEC fills:     111113
L2C Test counter :    3656096
L2C Leapfrog:          0
L2C MSHR merge:          0
L2C TOTAL     ACCESS:   11366575  HIT:    3577460  MISS:    7789115  HIT %:    31.4735  MISS %:    68.5265   MPKI: 38.9456
L2C LOAD      TOTAL       ACCESS:    4027364  HIT:      63866  MISS:    3963498  HIT %:     1.5858  MISS %:    98.4142   MPKI: 19.8175
L2C LOAD      NON_SPEC    ACCESS:     111184  HIT:         71  MISS:     111113  HIT %:  0.0638581  MISS %:    99.9361   MPKI: 0.555565
L2C LOAD      SPEC        ACCESS:    3916180  HIT:      63795  MISS:    3852385  HIT %:    1.62901  MISS %:     98.371   MPKI: 19.2619
L2C RFO       NON_SPEC    ACCESS:        712  HIT:          0  MISS:        712  HIT %:          0  MISS %:        100   MPKI: 0.00356
L2C WRITEBACK NON_SPEC    ACCESS:      32466  HIT:      32455  MISS:         11  HIT %:    99.9661  MISS %:  0.0338816   MPKI: 5.5e-05
L2C CLEAN_EVICTION NON_SPEC    ACCESS:    3660673  HIT:     161260  MISS:    3499413  HIT %:     4.4052  MISS %:    95.5948   MPKI: 17.4971
L2C COMMIT LOAD NON_SPEC    ACCESS:     250323  HIT:      11003  MISS:     239320  HIT %:    4.39552  MISS %:    95.6045   MPKI: 1.1966
L2C LOAD TRANSLATION NON_SPEC    ACCESS:    3395037  HIT:    3308876  MISS:      86161  HIT %:    97.4621  MISS %:    2.53785   MPKI: 0.430805
L2C PREFETCH  REQUESTED:          0  ISSUED:          0  USEFUL:          0  USELESS:          0
L2C USEFUL LOAD PREFETCHES:          0 PREFETCH ISSUED TO LOWER LEVEL:          0  ACCURACY: -nan
L2C TIMELY PREFETCHES:          0 LATE PREFETCHES: 0 DROPPED PREFETCHES: 0
L2C COMMIT LATE PREFETCHES: 0 MISSED OPPORTUNITY: 0 LATE IN PQ: 0 UNCOVERED: 0
L2C COMMIT LATE MSHR PREFETCHES: 0
L2C MPKI TOTAL: 19.8175 MSHR LATE: 0 PQ LATE: 0 COMMIT LATE: 0 MISSED OPPORTUNITY: 0 UNCOVERED: 0
L2C PREFETCHES SAME FILL-ORIGIN LEVEL: 0 DIFFERENT FILL-ORIGIN LEVEL: 0
L2C AVERAGE MISS LATENCY: 83.068 cycles
L2C AVERAGE MISS LATENCY LOAD: 151.545 cycles
L2C AVERAGE MISS LATENCY PREFETCH: -nan cycles
L2C AVERAGE MSHR OCCUPANCY: 1.77046
L2C MSHR FULL: 0
L2C RQ	ACCESS:    7673761	FORWARD:          0	MERGED:          0	TO_CACHE:    7673436
L2C WQ	ACCESS:    3693142	FORWARD:        325	MERGED:          3	TO_CACHE:    3693139

L2C Instructions Evicting Data 0
L2C Translations Evicting Data 84771
L2C Data Evicting Data 343553
L2C Instructions Evicting Instructions 0
L2C Translations Evicting Instructions 0
L2C Data Evicting Instructions 0
L2C Instructions Evicting Translations 0
L2C Translations Evicting Translations 1390
L2C Data Evicting Translations 7592
L2C Dense regions hint from L2: 0
PSCL5 SPEC fills:          0  NON-SPEC fills:          0
PSCL5 Test counter :          0
PSCL5 Leapfrog:          0
PSCL5 MSHR merge:          0
PSCL5 TOTAL     ACCESS:          0  HIT:          0  MISS:          0  HIT %:       -nan  MISS %:       -nan   MPKI: 0
PSCL5 PREFETCH  REQUESTED:          0  ISSUED:          0  USEFUL:          0  USELESS:          0
PSCL5 USEFUL LOAD PREFETCHES:          0 PREFETCH ISSUED TO LOWER LEVEL:          0  ACCURACY: -nan
PSCL5 TIMELY PREFETCHES:          0 LATE PREFETCHES: 0 DROPPED PREFETCHES: 0
PSCL5 COMMIT LATE PREFETCHES: 0 MISSED OPPORTUNITY: 0 LATE IN PQ: 0 UNCOVERED: 0
PSCL5 COMMIT LATE MSHR PREFETCHES: 0
PSCL5 MPKI TOTAL: 0 MSHR LATE: 0 PQ LATE: 0 COMMIT LATE: 0 MISSED OPPORTUNITY: 0 UNCOVERED: 0
PSCL5 PREFETCHES SAME FILL-ORIGIN LEVEL: 0 DIFFERENT FILL-ORIGIN LEVEL: 0

PSCL4 SPEC fills:          0  NON-SPEC fills:          0
PSCL4 Test counter :          0
PSCL4 Leapfrog:          0
PSCL4 MSHR merge:          0
PSCL4 TOTAL     ACCESS:          0  HIT:          0  MISS:          0  HIT %:       -nan  MISS %:       -nan   MPKI: 0
PSCL4 PREFETCH  REQUESTED:          0  ISSUED:          0  USEFUL:          0  USELESS:          0
PSCL4 USEFUL LOAD PREFETCHES:          0 PREFETCH ISSUED TO LOWER LEVEL:          0  ACCURACY: -nan
PSCL4 TIMELY PREFETCHES:          0 LATE PREFETCHES: 0 DROPPED PREFETCHES: 0
PSCL4 COMMIT LATE PREFETCHES: 0 MISSED OPPORTUNITY: 0 LATE IN PQ: 0 UNCOVERED: 0
PSCL4 COMMIT LATE MSHR PREFETCHES: 0
PSCL4 MPKI TOTAL: 0 MSHR LATE: 0 PQ LATE: 0 COMMIT LATE: 0 MISSED OPPORTUNITY: 0 UNCOVERED: 0
PSCL4 PREFETCHES SAME FILL-ORIGIN LEVEL: 0 DIFFERENT FILL-ORIGIN LEVEL: 0

PSCL3 SPEC fills:          0  NON-SPEC fills:          0
PSCL3 Test counter :          0
PSCL3 Leapfrog:          0
PSCL3 MSHR merge:          0
PSCL3 TOTAL     ACCESS:          0  HIT:          0  MISS:          0  HIT %:       -nan  MISS %:       -nan   MPKI: 0
PSCL3 PREFETCH  REQUESTED:          0  ISSUED:          0  USEFUL:          0  USELESS:          0
PSCL3 USEFUL LOAD PREFETCHES:          0 PREFETCH ISSUED TO LOWER LEVEL:          0  ACCURACY: -nan
PSCL3 TIMELY PREFETCHES:          0 LATE PREFETCHES: 0 DROPPED PREFETCHES: 0
PSCL3 COMMIT LATE PREFETCHES: 0 MISSED OPPORTUNITY: 0 LATE IN PQ: 0 UNCOVERED: 0
PSCL3 COMMIT LATE MSHR PREFETCHES: 0
PSCL3 MPKI TOTAL: 0 MSHR LATE: 0 PQ LATE: 0 COMMIT LATE: 0 MISSED OPPORTUNITY: 0 UNCOVERED: 0
PSCL3 PREFETCHES SAME FILL-ORIGIN LEVEL: 0 DIFFERENT FILL-ORIGIN LEVEL: 0

PSCL2 SPEC fills:          0  NON-SPEC fills:          0
PSCL2 Test counter :          0
PSCL2 Leapfrog:          0
PSCL2 MSHR merge:          0
PSCL2 TOTAL     ACCESS:          0  HIT:          0  MISS:          0  HIT %:       -nan  MISS %:       -nan   MPKI: 0
PSCL2 PREFETCH  REQUESTED:          0  ISSUED:          0  USEFUL:          0  USELESS:          0
PSCL2 USEFUL LOAD PREFETCHES:          0 PREFETCH ISSUED TO LOWER LEVEL:          0  ACCURACY: -nan
PSCL2 TIMELY PREFETCHES:          0 LATE PREFETCHES: 0 DROPPED PREFETCHES: 0
PSCL2 COMMIT LATE PREFETCHES: 0 MISSED OPPORTUNITY: 0 LATE IN PQ: 0 UNCOVERED: 0
PSCL2 COMMIT LATE MSHR PREFETCHES: 0
PSCL2 MPKI TOTAL: 0 MSHR LATE: 0 PQ LATE: 0 COMMIT LATE: 0 MISSED OPPORTUNITY: 0 UNCOVERED: 0
PSCL2 PREFETCHES SAME FILL-ORIGIN LEVEL: 0 DIFFERENT FILL-ORIGIN LEVEL: 0

LLC SPEC fills:          0  NON-SPEC fills:      68168
LLC Test counter :    3063677
LLC Leapfrog:          0
LLC MSHR merge:          0
LLC TOTAL     ACCESS:    7979121  HIT:    1706608  MISS:    6272513  HIT %:    21.3884  MISS %:    78.6116   MPKI: 31.3626
LLC LOAD      TOTAL       ACCESS:    3963495  HIT:     838369  MISS:    3125126  HIT %:    21.1523  MISS %:    78.8477   MPKI: 15.6256
LLC LOAD      NON_SPEC    ACCESS:     111113  HIT:      42945  MISS:      68168  HIT %:    38.6498  MISS %:    61.3502   MPKI: 0.34084
LLC LOAD      SPEC        ACCESS:    3852382  HIT:     795424  MISS:    3056958  HIT %:    20.6476  MISS %:    79.3524   MPKI: 15.2848
LLC RFO       NON_SPEC    ACCESS:        712  HIT:          0  MISS:        712  HIT %:          0  MISS %:        100   MPKI: 0.00356
LLC WRITEBACK NON_SPEC    ACCESS:      33337  HIT:      33327  MISS:         10  HIT %:      99.97  MISS %:  0.0299967   MPKI: 5e-05
LLC CLEAN_EVICTION NON_SPEC    ACCESS:    3656096  HIT:     718680  MISS:    2937416  HIT %:     19.657  MISS %:     80.343   MPKI: 14.6871
LLC COMMIT LOAD NON_SPEC    ACCESS:     239320  HIT:      96444  MISS:     142876  HIT %:    40.2992  MISS %:    59.7008   MPKI: 0.71438
LLC LOAD TRANSLATION NON_SPEC    ACCESS:      86161  HIT:      19788  MISS:      66373  HIT %:    22.9663  MISS %:    77.0337   MPKI: 0.331865
LLC PREFETCH  REQUESTED:          0  ISSUED:          0  USEFUL:          0  USELESS:          0
LLC USEFUL LOAD PREFETCHES:          0 PREFETCH ISSUED TO LOWER LEVEL:          0  ACCURACY: -nan
LLC TIMELY PREFETCHES:          0 LATE PREFETCHES: 0 DROPPED PREFETCHES: 0
LLC COMMIT LATE PREFETCHES: 0 MISSED OPPORTUNITY: 0 LATE IN PQ: 0 UNCOVERED: 0
LLC COMMIT LATE MSHR PREFETCHES: 0
LLC MPKI TOTAL: 15.6256 MSHR LATE: 0 PQ LATE: 0 COMMIT LATE: 0 MISSED OPPORTUNITY: 0 UNCOVERED: 0
LLC PREFETCHES SAME FILL-ORIGIN LEVEL: 0 DIFFERENT FILL-ORIGIN LEVEL: 0
LLC AVERAGE MISS LATENCY: 84.7693 cycles
LLC AVERAGE MISS LATENCY LOAD: 158.511 cycles
LLC AVERAGE MISS LATENCY PREFETCH: -nan cycles
LLC AVERAGE MSHR OCCUPANCY: 1.29217
LLC MSHR FULL: 0
LLC RQ	ACCESS:    4289691	FORWARD:          0	MERGED:          0	TO_CACHE:    4289688
LLC WQ	ACCESS:    3689433	FORWARD:          3	MERGED:          0	TO_CACHE:    3689433

LLC Dense regions hint to LLC: 0

RAW hits: 436313
Loads Generated: 128041519
Loads sent to L1D: 127605198
Stores Generated: 12822620
Stores sent to L1D: 12822617
Major fault: 0 Minor fault: 641201
Allocated PAGES: 641201
Total Load insts: 159468837
Total Non-spec loads: 7102271
Percentage of speculative loads: 95.5463

LeapFrogging counter: 6707994
Commit hits: 45302355 miss: 76545607
Commit hit %: 37.1794 miss %: 62.8206
Commits not translated: 0
Loads retired: 4027689
Stores retired: 12822617
Cache fills: 4027689
L1D response latency: 161.212 cycles
Load retirement latency: 402.295 cycles
OOO test counter: 0
Discarded buffer inserts: 45302355 hits: 24812 hit %: 0.0547698

DRAM Statistics
 CHANNEL 0
 RQ ROW_BUFFER_HIT:     838428  ROW_BUFFER_MISS:    2496619
 DBUS_CONGESTED:      30776
 WQ ROW_BUFFER_HIT:    1200708  ROW_BUFFER_MISS:    1900707  FULL:          0

 AVG_CONGESTED_CYCLE: 5
 All warmup complete: 2
Channel 0 Bank busy for read cycles: 0
Channel 0 Bank busy for write cycles: 0
Channel 0
Rank 0
0banks busy for read cycles: 7196068
0banks busy for write cycles: 31591
1banks busy for read cycles: 174429940
1banks busy for write cycles: 6643826
2banks busy for read cycles: 71488571
2banks busy for write cycles: 9797661
3banks busy for read cycles: 22855961
3banks busy for write cycles: 14829636
4banks busy for read cycles: 6169750
4banks busy for write cycles: 21842331
5banks busy for read cycles: 1076352
5banks busy for write cycles: 29176351
6banks busy for read cycles: 85986
6banks busy for write cycles: 32322334
7banks busy for read cycles: 3497
7banks busy for write cycles: 25822674
8banks busy for read cycles: 0
8banks busy for write cycles: 11652571

CPU 0 Branch Prediction Accuracy: 99.9931% MPKI: 0.00083 Average ROB Occupancy at Mispredict: 343.175
Branch types
NOT_BRANCH: 197595958 98.798%
BRANCH_DIRECT_JUMP: 160245 0.0801225%
BRANCH_INDIRECT: 0 0%
BRANCH_CONDITIONAL: 2243766 1.12188%
BRANCH_DIRECT_CALL: 0 0%
BRANCH_INDIRECT_CALL: 0 0%
BRANCH_RETURN: 0 0%
BRANCH_OTHER: 0 0%

DRAM PAGES: 1048576
Allocated PAGES: 641201
