
*** ChampSim Multicore Out-of-Order Simulator ***

Warmup Instructions: 50000000
Simulation Instructions: 200000000
Number of CPUs: 1
LLC sets: 2048
LLC ways: 16
L0D sets: 16
L0D ways: 2
ROB size: 352
LQ size: 128
SQ size: 72
Secure Berti: OFF
Berti: OFF
Berti Fill: OFF
On commit prefetching: OFF
Hit-based filter: ON
Time-guarding: ON
Free-slotting: ON
Leap-frogging: ON
Train prefetcher on L0D bypass: OFF
No translation penalty for prefetchers: OFF
Prefetch to L0D only: OFF
Prefetch to L1D only: OFF
Clean evictions: ON
Commit loads: ON
Commit write: ON
Fill commit loads to L2C, LLC: ON
DRAM IO FREQUENCY: 6400
ROB SIZE: 352
Off-chip DRAM Size: 4096 MB Channels: 1 Width: 64-bit Data Rate: 6400 MT/s
CPU 0 runs /home/sumon/secure_berti/GhostMinion/../../traces/spec/654.roms_s-294B.champsimtrace.xz
.xz
BTB has LRU replacement policy
ITLB has LRU replacement policy
DTLB has LRU replacement policy
STLB has LRU replacement policy
L1I has LRU replacement policy
L0D has LRU replacement policy
L1D has LRU replacement policy
L2C has LRU replacement policy
LLC has LRU replacement policy
Heartbeat CPU 0 instructions: 10000001 cycles: 3489877 heartbeat IPC: 2.86543 cumulative IPC: 2.86543 (Simulation time: 0 hr 0 min 32 sec) 
Heartbeat CPU 0 instructions: 20000000 cycles: 6979162 heartbeat IPC: 2.86592 cumulative IPC: 2.86567 (Simulation time: 0 hr 1 min 4 sec) 
Heartbeat CPU 0 instructions: 30000003 cycles: 10468241 heartbeat IPC: 2.86609 cumulative IPC: 2.86581 (Simulation time: 0 hr 1 min 37 sec) 
Heartbeat CPU 0 instructions: 40000001 cycles: 13956988 heartbeat IPC: 2.86636 cumulative IPC: 2.86595 (Simulation time: 0 hr 2 min 9 sec) 
Heartbeat CPU 0 instructions: 50000002 cycles: 17446110 heartbeat IPC: 2.86605 cumulative IPC: 2.86597 (Simulation time: 0 hr 2 min 40 sec) 

Warmup complete CPU 0 instructions: 50000002 cycles: 17446110 (Simulation time: 0 hr 2 min 40 sec) 

Heartbeat CPU 0 instructions: 60000002 cycles: 32371712 heartbeat IPC: 0.66999 cumulative IPC: 0.66999 (Simulation time: 0 hr 3 min 29 sec) 
Heartbeat CPU 0 instructions: 70000000 cycles: 47304667 heartbeat IPC: 0.66966 cumulative IPC: 0.669825 (Simulation time: 0 hr 4 min 18 sec) 
Heartbeat CPU 0 instructions: 80000001 cycles: 62305919 heartbeat IPC: 0.666611 cumulative IPC: 0.66875 (Simulation time: 0 hr 5 min 8 sec) 
Heartbeat CPU 0 instructions: 90000002 cycles: 77343235 heartbeat IPC: 0.665012 cumulative IPC: 0.667812 (Simulation time: 0 hr 5 min 59 sec) 
Heartbeat CPU 0 instructions: 100000001 cycles: 92349285 heartbeat IPC: 0.666398 cumulative IPC: 0.667528 (Simulation time: 0 hr 6 min 50 sec) 
Heartbeat CPU 0 instructions: 110000000 cycles: 107336391 heartbeat IPC: 0.66724 cumulative IPC: 0.66748 (Simulation time: 0 hr 7 min 40 sec) 
Heartbeat CPU 0 instructions: 120000002 cycles: 122312141 heartbeat IPC: 0.667746 cumulative IPC: 0.667518 (Simulation time: 0 hr 8 min 32 sec) 
Heartbeat CPU 0 instructions: 130000001 cycles: 137301655 heartbeat IPC: 0.667133 cumulative IPC: 0.66747 (Simulation time: 0 hr 9 min 24 sec) 
Heartbeat CPU 0 instructions: 140000000 cycles: 152310101 heartbeat IPC: 0.666291 cumulative IPC: 0.667339 (Simulation time: 0 hr 10 min 19 sec) 
Heartbeat CPU 0 instructions: 150000001 cycles: 167261930 heartbeat IPC: 0.668815 cumulative IPC: 0.667486 (Simulation time: 0 hr 11 min 15 sec) 
Heartbeat CPU 0 instructions: 160000000 cycles: 182237845 heartbeat IPC: 0.667739 cumulative IPC: 0.667509 (Simulation time: 0 hr 12 min 11 sec) 
Heartbeat CPU 0 instructions: 170000003 cycles: 197205697 heartbeat IPC: 0.668099 cumulative IPC: 0.667558 (Simulation time: 0 hr 13 min 6 sec) 
Heartbeat CPU 0 instructions: 180000003 cycles: 212187990 heartbeat IPC: 0.667455 cumulative IPC: 0.66755 (Simulation time: 0 hr 14 min 1 sec) 
Heartbeat CPU 0 instructions: 190000002 cycles: 227167750 heartbeat IPC: 0.667567 cumulative IPC: 0.667552 (Simulation time: 0 hr 14 min 57 sec) 
Heartbeat CPU 0 instructions: 200000001 cycles: 242193849 heartbeat IPC: 0.665509 cumulative IPC: 0.667415 (Simulation time: 0 hr 15 min 48 sec) 
Heartbeat CPU 0 instructions: 210000002 cycles: 257223666 heartbeat IPC: 0.665344 cumulative IPC: 0.667285 (Simulation time: 0 hr 16 min 32 sec) 
Heartbeat CPU 0 instructions: 220000000 cycles: 272229434 heartbeat IPC: 0.66641 cumulative IPC: 0.667234 (Simulation time: 0 hr 17 min 15 sec) 
Heartbeat CPU 0 instructions: 230000001 cycles: 287184423 heartbeat IPC: 0.668673 cumulative IPC: 0.667313 (Simulation time: 0 hr 17 min 59 sec) 
Heartbeat CPU 0 instructions: 240000002 cycles: 302161916 heartbeat IPC: 0.667669 cumulative IPC: 0.667332 (Simulation time: 0 hr 18 min 42 sec) 
Heartbeat CPU 0 instructions: 250000000 cycles: 317109859 heartbeat IPC: 0.668988 cumulative IPC: 0.667415 (Simulation time: 0 hr 19 min 24 sec) 
Finished CPU 0 instructions: 200000002 cycles: 299663750 cumulative IPC: 0.667415 (Simulation time: 0 hr 19 min 24 sec) 
 Instruction ID: 250000264

ChampSim completed all CPUs

Region of Interest Statistics

CPU 0 cumulative IPC: 0.667415 instructions: 200000002 cycles: 299663750
ITLB SPEC fills:          0  NON-SPEC fills:          0
ITLB Test counter :          0
ITLB Leapfrog:          0
ITLB MSHR merge:          0
ITLB TOTAL     ACCESS:   29743339  HIT:   29743339  MISS:          0  HIT %:        100  MISS %:          0   MPKI: 0
ITLB LOAD TRANSLATION NON_SPEC    ACCESS:   29743339  HIT:   29743339  MISS:          0  HIT %:        100  MISS %:          0   MPKI: 0
ITLB PREFETCH  REQUESTED:          0  ISSUED:          0  USEFUL:          0  USELESS:          0
ITLB USEFUL LOAD PREFETCHES:          0 PREFETCH ISSUED TO LOWER LEVEL:          0  ACCURACY: -nan
ITLB TIMELY PREFETCHES:          0 LATE PREFETCHES: 0 DROPPED PREFETCHES: 0
ITLB COMMIT LATE PREFETCHES: 0 MISSED OPPORTUNITY: 0 LATE IN PQ: 0 UNCOVERED: 0
ITLB COMMIT LATE MSHR PREFETCHES: 0
ITLB MPKI TOTAL: 0 MSHR LATE: 0 PQ LATE: 0 COMMIT LATE: 0 MISSED OPPORTUNITY: 0 UNCOVERED: 0
ITLB PREFETCHES SAME FILL-ORIGIN LEVEL: 0 DIFFERENT FILL-ORIGIN LEVEL: 0
ITLB AVERAGE MISS LATENCY: -nan cycles
ITLB AVERAGE MISS LATENCY LOAD: -nan cycles
ITLB AVERAGE MISS LATENCY PREFETCH: -nan cycles
ITLB AVERAGE MSHR OCCUPANCY: 0
ITLB MSHR FULL: 0
ITLB RQ	ACCESS:   36056060	FORWARD:          0	MERGED:    6312722	TO_CACHE:   29743338

DTLB SPEC fills:          0  NON-SPEC fills:          0
DTLB Test counter :          0
DTLB Leapfrog:          0
DTLB MSHR merge:          0
DTLB TOTAL     ACCESS:   53228460  HIT:   53143851  MISS:      84609  HIT %:     99.841  MISS %:   0.158954   MPKI: 0.423045
DTLB LOAD TRANSLATION NON_SPEC    ACCESS:   53228460  HIT:   53143851  MISS:      84609  HIT %:     99.841  MISS %:   0.158954   MPKI: 0.423045
DTLB PREFETCH  REQUESTED:          0  ISSUED:          0  USEFUL:          0  USELESS:          0
DTLB USEFUL LOAD PREFETCHES:          0 PREFETCH ISSUED TO LOWER LEVEL:          0  ACCURACY: -nan
DTLB TIMELY PREFETCHES:          0 LATE PREFETCHES: 0 DROPPED PREFETCHES: 0
DTLB COMMIT LATE PREFETCHES: 0 MISSED OPPORTUNITY: 0 LATE IN PQ: 0 UNCOVERED: 0
DTLB COMMIT LATE MSHR PREFETCHES: 0
DTLB MPKI TOTAL: 0 MSHR LATE: 0 PQ LATE: 0 COMMIT LATE: 0 MISSED OPPORTUNITY: 0 UNCOVERED: 0
DTLB PREFETCHES SAME FILL-ORIGIN LEVEL: 0 DIFFERENT FILL-ORIGIN LEVEL: 0
DTLB AVERAGE MISS LATENCY: 422.829 cycles
DTLB AVERAGE MISS LATENCY LOAD: -nan cycles
DTLB AVERAGE MISS LATENCY PREFETCH: -nan cycles
DTLB AVERAGE MSHR OCCUPANCY: 0.019718
DTLB MSHR FULL: 2.17888e-06
DTLB RQ	ACCESS:   58471650	FORWARD:          0	MERGED:    5233418	TO_CACHE:   53238232

STLB SPEC fills:          0  NON-SPEC fills:          0
STLB Test counter :          0
STLB Leapfrog:          0
STLB MSHR merge:          0
STLB TOTAL     ACCESS:      84609  HIT:      18853  MISS:      65756  HIT %:    22.2825  MISS %:    77.7175   MPKI: 0.32878
STLB LOAD TRANSLATION NON_SPEC    ACCESS:      84609  HIT:      18853  MISS:      65756  HIT %:    22.2825  MISS %:    77.7175   MPKI: 0.32878
STLB PREFETCH  REQUESTED:          0  ISSUED:          0  USEFUL:          0  USELESS:          0
STLB USEFUL LOAD PREFETCHES:          0 PREFETCH ISSUED TO LOWER LEVEL:          0  ACCURACY: -nan
STLB TIMELY PREFETCHES:          0 LATE PREFETCHES: 0 DROPPED PREFETCHES: 0
STLB COMMIT LATE PREFETCHES: 0 MISSED OPPORTUNITY: 0 LATE IN PQ: 0 UNCOVERED: 0
STLB COMMIT LATE MSHR PREFETCHES: 0
STLB MPKI TOTAL: 0 MSHR LATE: 0 PQ LATE: 0 COMMIT LATE: 0 MISSED OPPORTUNITY: 0 UNCOVERED: 0
STLB PREFETCHES SAME FILL-ORIGIN LEVEL: 0 DIFFERENT FILL-ORIGIN LEVEL: 0
STLB AVERAGE MISS LATENCY: 532.191 cycles
STLB AVERAGE MISS LATENCY LOAD: -nan cycles
STLB AVERAGE MISS LATENCY PREFETCH: -nan cycles
STLB AVERAGE MSHR OCCUPANCY: 1.25615
STLB MSHR FULL: 0
STLB RQ	ACCESS:      84609	FORWARD:          0	MERGED:          0	TO_CACHE:      84609

STLB Hit, L1D data hit: 0
STLB Hit, L2C data hit: 0
STLB Hit, LLC data hit: 0
STLB Hit, LLC data miss: 0
STLB STLB hints to L2: 0
L0D SPEC fills:   27331240  NON-SPEC fills:          0
L0D TimeGuard Request with older TS:    1896722 Restricted eviction:    2176476 read:     545013
L0D Test counter :          0
L0D Leapfrog:          0
L0D MSHR merge:    5255428
L0D TOTAL     ACCESS:   46415529  HIT:   11145744  MISS:   35269785  HIT %:     24.013  MISS %:     75.987   MPKI: 176.349
L0D LOAD      TOTAL       ACCESS:   46415529  HIT:   11145744  MISS:   35269785  HIT %:     24.013  MISS %:     75.987   MPKI: 176.349
L0D LOAD      NON_SPEC    ACCESS:    6108719  HIT:     346649  MISS:    5762070  HIT %:    5.67466  MISS %:    94.3253   MPKI: 28.8103
L0D LOAD      SPEC        ACCESS:   40306810  HIT:   10799095  MISS:   29507715  HIT %:    26.7922  MISS %:    73.2078   MPKI: 147.539
L0D PREFETCH  REQUESTED:          0  ISSUED:          0  USEFUL:          0  USELESS:          0
L0D USEFUL LOAD PREFETCHES:          0 PREFETCH ISSUED TO LOWER LEVEL:          0  ACCURACY: -nan
L0D TIMELY PREFETCHES:          0 LATE PREFETCHES: 0 DROPPED PREFETCHES: 0
L0D COMMIT LATE PREFETCHES: 0 MISSED OPPORTUNITY: 0 LATE IN PQ: 0 UNCOVERED: 0
L0D COMMIT LATE MSHR PREFETCHES: 0
L0D MPKI TOTAL: 202.626 MSHR LATE: 0 PQ LATE: 0 COMMIT LATE: 0 MISSED OPPORTUNITY: 0 UNCOVERED: 0
L0D PREFETCHES SAME FILL-ORIGIN LEVEL: 0 DIFFERENT FILL-ORIGIN LEVEL: 0
L0D AVERAGE MISS LATENCY: 18.5399 cycles
L0D AVERAGE MISS LATENCY LOAD: 18.5399 cycles
L0D AVERAGE MISS LATENCY PREFETCH: -nan cycles
L0D AVERAGE MSHR OCCUPANCY: 2.32252
L0D MSHR FULL: 0.00133405
L0D RQ	ACCESS:   76447338	FORWARD:          0	MERGED:   24776379	TO_CACHE:   51670959
L0D WQ	ACCESS:    6800691	FORWARD:          0	MERGED:          0	TO_CACHE:    6800691

L1D SPEC fills:          0  NON-SPEC fills:      84892
L1D Test counter :    2465551
L1D Leapfrog:          0
L1D MSHR merge:      60006
L1D TOTAL     ACCESS:   47566232  HIT:   42383528  MISS:    5182704  HIT %:    89.1042  MISS %:    10.8958   MPKI: 25.9135
L1D LOAD      TOTAL       ACCESS:   35209779  HIT:   32546090  MISS:    2663689  HIT %:    92.4348  MISS %:     7.5652   MPKI: 13.3184
L1D LOAD      NON_SPEC    ACCESS:    5761885  HIT:    5676993  MISS:      84892  HIT %:    98.5267  MISS %:    1.47334   MPKI: 0.42446
L1D LOAD      SPEC        ACCESS:   29447894  HIT:   26869097  MISS:    2578797  HIT %:    91.2428  MISS %:    8.75715   MPKI: 12.894
L1D RFO       NON_SPEC    ACCESS:    6694573  HIT:    6674936  MISS:      19637  HIT %:    99.7067  MISS %:   0.293327   MPKI: 0.098185
L1D COMMIT LOAD NON_SPEC    ACCESS:    2642688  HIT:    2562831  MISS:      79857  HIT %:    96.9782  MISS %:    3.02181   MPKI: 0.399285
L1D COMMIT WRITE NON_SPEC    ACCESS:    3019192  HIT:     599671  MISS:    2419521  HIT %:     19.862  MISS %:     80.138   MPKI: 12.0976
L1D PREFETCH  REQUESTED:          0  ISSUED:          0  USEFUL:          0  USELESS:          0
L1D USEFUL LOAD PREFETCHES:          0 PREFETCH ISSUED TO LOWER LEVEL:          0  ACCURACY: -nan
L1D TIMELY PREFETCHES:          0 LATE PREFETCHES: 0 DROPPED PREFETCHES: 0
L1D COMMIT LATE PREFETCHES: 0 MISSED OPPORTUNITY: 0 LATE IN PQ: 0 UNCOVERED: 0
L1D COMMIT LATE MSHR PREFETCHES: 0
L1D MPKI TOTAL: 13.6185 MSHR LATE: 0 PQ LATE: 0 COMMIT LATE: 0 MISSED OPPORTUNITY: 0 UNCOVERED: 0
L1D PREFETCHES SAME FILL-ORIGIN LEVEL: 0 DIFFERENT FILL-ORIGIN LEVEL: 0
L1D AVERAGE MISS LATENCY: 93.4461 cycles
L1D AVERAGE MISS LATENCY LOAD: 175.987 cycles
L1D AVERAGE MISS LATENCY PREFETCH: -nan cycles
L1D AVERAGE MSHR OCCUPANCY: 0.751007
L1D MSHR FULL: 0.0012539
L1D RQ	ACCESS:   38374649	FORWARD:          0	MERGED:     438550	TO_CACHE:   37936099
L1D WQ	ACCESS:    9812854	FORWARD:          0	MERGED:       1784	TO_CACHE:    9811070

L1D UNIQUE REGIONS ACCESSED: 0
L1D REGIONS CONFLICTS: 0
L1D Cross Page Prefetch Requests: 0
L1D Same Page Prefetch Requests: 0
L1D ROI Sum of L1D PQ occupancy: 0
L1D PREFETCHES PUSHED FROM L2C: 0
L1I SPEC fills:          0  NON-SPEC fills:          0
L1I Test counter :          0
L1I Leapfrog:          0
L1I MSHR merge:          0
L1I TOTAL     ACCESS:   36056061  HIT:   36056061  MISS:          0  HIT %:        100  MISS %:          0   MPKI: 0
L1I LOAD      TOTAL       ACCESS:   36056061  HIT:   36056061  MISS:          0  HIT %:        100  MISS %:          0   MPKI: 0
L1I LOAD      NON_SPEC    ACCESS:   36056061  HIT:   36056061  MISS:          0  HIT %:        100  MISS %:          0   MPKI: 0
L1I PREFETCH  REQUESTED:          0  ISSUED:          0  USEFUL:          0  USELESS:          0
L1I USEFUL LOAD PREFETCHES:          0 PREFETCH ISSUED TO LOWER LEVEL:          0  ACCURACY: -nan
L1I TIMELY PREFETCHES:          0 LATE PREFETCHES: 0 DROPPED PREFETCHES: 0
L1I COMMIT LATE PREFETCHES: 0 MISSED OPPORTUNITY: 0 LATE IN PQ: 0 UNCOVERED: 0
L1I COMMIT LATE MSHR PREFETCHES: 0
L1I MPKI TOTAL: 0 MSHR LATE: 0 PQ LATE: 0 COMMIT LATE: 0 MISSED OPPORTUNITY: 0 UNCOVERED: 0
L1I PREFETCHES SAME FILL-ORIGIN LEVEL: 0 DIFFERENT FILL-ORIGIN LEVEL: 0
L1I AVERAGE MISS LATENCY: -nan cycles
L1I AVERAGE MISS LATENCY LOAD: -nan cycles
L1I AVERAGE MISS LATENCY PREFETCH: -nan cycles
L1I AVERAGE MSHR OCCUPANCY: 0
L1I MSHR FULL: 0
L1I RQ	ACCESS:   57831569	FORWARD:          0	MERGED:   21775509	TO_CACHE:   36056060

BTB SPEC fills:          0  NON-SPEC fills:          0
BTB Test counter :          0
BTB Leapfrog:          0
BTB MSHR merge:          0
BTB TOTAL     ACCESS:   10024830  HIT:   10024819  MISS:         11  HIT %:    99.9999  MISS %: 0.000109728   MPKI: 5.5e-05
BTB BRANCH_DIRECT_JUMP	ACCESS:        162  HIT:        161  MISS:          1
BTB BRANCH_INDIRECT	ACCESS:          0  HIT:          0  MISS:          0
BTB BRANCH_CONDITIONAL	ACCESS:   10024344  HIT:   10024336  MISS:          8
BTB BRANCH_DIRECT_CALL	ACCESS:        162  HIT:        161  MISS:          1
BTB BRANCH_INDIRECT_CALL	ACCESS:          0  HIT:          0  MISS:          0
BTB BRANCH_RETURN	ACCESS:        162  HIT:        161  MISS:          1
BTB BRANCH_OTHER ACCESS:          0  HIT:          0  MISS:          0

L2C SPEC fills:          0  NON-SPEC fills:      71822
L2C Test counter :    2460396
L2C Leapfrog:          0
L2C MSHR merge:          0
L2C TOTAL     ACCESS:    5584151  HIT:     382944  MISS:    5201207  HIT %:    6.85769  MISS %:    93.1423   MPKI: 26.006
L2C LOAD      TOTAL       ACCESS:    2663587  HIT:      34675  MISS:    2628912  HIT %:    1.30182  MISS %:    98.6982   MPKI: 13.1446
L2C LOAD      NON_SPEC    ACCESS:      84816  HIT:      12994  MISS:      71822  HIT %:    15.3202  MISS %:    84.6798   MPKI: 0.35911
L2C LOAD      SPEC        ACCESS:    2578771  HIT:      21681  MISS:    2557090  HIT %:   0.840749  MISS %:    99.1593   MPKI: 12.7854
L2C RFO       NON_SPEC    ACCESS:      19628  HIT:         89  MISS:      19539  HIT %:   0.453434  MISS %:    99.5466   MPKI: 0.097695
L2C WRITEBACK NON_SPEC    ACCESS:      27008  HIT:       8185  MISS:      18823  HIT %:    30.3058  MISS %:    69.6942   MPKI: 0.094115
L2C CLEAN_EVICTION NON_SPEC    ACCESS:    2465550  HIT:      65171  MISS:    2400379  HIT %:    2.64326  MISS %:    97.3567   MPKI: 12.0019
L2C COMMIT LOAD NON_SPEC    ACCESS:      79857  HIT:       1139  MISS:      78718  HIT %:     1.4263  MISS %:    98.5737   MPKI: 0.39359
L2C LOAD TRANSLATION NON_SPEC    ACCESS:     328521  HIT:     273685  MISS:      54836  HIT %:    83.3082  MISS %:    16.6918   MPKI: 0.27418
L2C PREFETCH  REQUESTED:          0  ISSUED:          0  USEFUL:          0  USELESS:          0
L2C USEFUL LOAD PREFETCHES:          0 PREFETCH ISSUED TO LOWER LEVEL:          0  ACCURACY: -nan
L2C TIMELY PREFETCHES:          0 LATE PREFETCHES: 0 DROPPED PREFETCHES: 0
L2C COMMIT LATE PREFETCHES: 0 MISSED OPPORTUNITY: 0 LATE IN PQ: 0 UNCOVERED: 0
L2C COMMIT LATE MSHR PREFETCHES: 0
L2C MPKI TOTAL: 13.1446 MSHR LATE: 0 PQ LATE: 0 COMMIT LATE: 0 MISSED OPPORTUNITY: 0 UNCOVERED: 0
L2C PREFETCHES SAME FILL-ORIGIN LEVEL: 0 DIFFERENT FILL-ORIGIN LEVEL: 0
L2C AVERAGE MISS LATENCY: 88.0031 cycles
L2C AVERAGE MISS LATENCY LOAD: 166.994 cycles
L2C AVERAGE MISS LATENCY PREFETCH: -nan cycles
L2C AVERAGE MSHR OCCUPANCY: 1.67522
L2C MSHR FULL: 0
L2C RQ	ACCESS:    3091706	FORWARD:          0	MERGED:          0	TO_CACHE:    3091595
L2C WQ	ACCESS:    2492559	FORWARD:        111	MERGED:          1	TO_CACHE:    2492558

L2C Instructions Evicting Data 0
L2C Translations Evicting Data 53905
L2C Data Evicting Data 166609
L2C Instructions Evicting Instructions 0
L2C Translations Evicting Instructions 0
L2C Data Evicting Instructions 0
L2C Instructions Evicting Translations 0
L2C Translations Evicting Translations 931
L2C Data Evicting Translations 3470
L2C Dense regions hint from L2: 0
PSCL5 SPEC fills:          0  NON-SPEC fills:          0
PSCL5 Test counter :          0
PSCL5 Leapfrog:          0
PSCL5 MSHR merge:          0
PSCL5 TOTAL     ACCESS:          0  HIT:          0  MISS:          0  HIT %:       -nan  MISS %:       -nan   MPKI: 0
PSCL5 PREFETCH  REQUESTED:          0  ISSUED:          0  USEFUL:          0  USELESS:          0
PSCL5 USEFUL LOAD PREFETCHES:          0 PREFETCH ISSUED TO LOWER LEVEL:          0  ACCURACY: -nan
PSCL5 TIMELY PREFETCHES:          0 LATE PREFETCHES: 0 DROPPED PREFETCHES: 0
PSCL5 COMMIT LATE PREFETCHES: 0 MISSED OPPORTUNITY: 0 LATE IN PQ: 0 UNCOVERED: 0
PSCL5 COMMIT LATE MSHR PREFETCHES: 0
PSCL5 MPKI TOTAL: 0 MSHR LATE: 0 PQ LATE: 0 COMMIT LATE: 0 MISSED OPPORTUNITY: 0 UNCOVERED: 0
PSCL5 PREFETCHES SAME FILL-ORIGIN LEVEL: 0 DIFFERENT FILL-ORIGIN LEVEL: 0

PSCL4 SPEC fills:          0  NON-SPEC fills:          0
PSCL4 Test counter :          0
PSCL4 Leapfrog:          0
PSCL4 MSHR merge:          0
PSCL4 TOTAL     ACCESS:          0  HIT:          0  MISS:          0  HIT %:       -nan  MISS %:       -nan   MPKI: 0
PSCL4 PREFETCH  REQUESTED:          0  ISSUED:          0  USEFUL:          0  USELESS:          0
PSCL4 USEFUL LOAD PREFETCHES:          0 PREFETCH ISSUED TO LOWER LEVEL:          0  ACCURACY: -nan
PSCL4 TIMELY PREFETCHES:          0 LATE PREFETCHES: 0 DROPPED PREFETCHES: 0
PSCL4 COMMIT LATE PREFETCHES: 0 MISSED OPPORTUNITY: 0 LATE IN PQ: 0 UNCOVERED: 0
PSCL4 COMMIT LATE MSHR PREFETCHES: 0
PSCL4 MPKI TOTAL: 0 MSHR LATE: 0 PQ LATE: 0 COMMIT LATE: 0 MISSED OPPORTUNITY: 0 UNCOVERED: 0
PSCL4 PREFETCHES SAME FILL-ORIGIN LEVEL: 0 DIFFERENT FILL-ORIGIN LEVEL: 0

PSCL3 SPEC fills:          0  NON-SPEC fills:          0
PSCL3 Test counter :          0
PSCL3 Leapfrog:          0
PSCL3 MSHR merge:          0
PSCL3 TOTAL     ACCESS:          0  HIT:          0  MISS:          0  HIT %:       -nan  MISS %:       -nan   MPKI: 0
PSCL3 PREFETCH  REQUESTED:          0  ISSUED:          0  USEFUL:          0  USELESS:          0
PSCL3 USEFUL LOAD PREFETCHES:          0 PREFETCH ISSUED TO LOWER LEVEL:          0  ACCURACY: -nan
PSCL3 TIMELY PREFETCHES:          0 LATE PREFETCHES: 0 DROPPED PREFETCHES: 0
PSCL3 COMMIT LATE PREFETCHES: 0 MISSED OPPORTUNITY: 0 LATE IN PQ: 0 UNCOVERED: 0
PSCL3 COMMIT LATE MSHR PREFETCHES: 0
PSCL3 MPKI TOTAL: 0 MSHR LATE: 0 PQ LATE: 0 COMMIT LATE: 0 MISSED OPPORTUNITY: 0 UNCOVERED: 0
PSCL3 PREFETCHES SAME FILL-ORIGIN LEVEL: 0 DIFFERENT FILL-ORIGIN LEVEL: 0

PSCL2 SPEC fills:          0  NON-SPEC fills:          0
PSCL2 Test counter :          0
PSCL2 Leapfrog:          0
PSCL2 MSHR merge:          0
PSCL2 TOTAL     ACCESS:          0  HIT:          0  MISS:          0  HIT %:       -nan  MISS %:       -nan   MPKI: 0
PSCL2 PREFETCH  REQUESTED:          0  ISSUED:          0  USEFUL:          0  USELESS:          0
PSCL2 USEFUL LOAD PREFETCHES:          0 PREFETCH ISSUED TO LOWER LEVEL:          0  ACCURACY: -nan
PSCL2 TIMELY PREFETCHES:          0 LATE PREFETCHES: 0 DROPPED PREFETCHES: 0
PSCL2 COMMIT LATE PREFETCHES: 0 MISSED OPPORTUNITY: 0 LATE IN PQ: 0 UNCOVERED: 0
PSCL2 COMMIT LATE MSHR PREFETCHES: 0
PSCL2 MPKI TOTAL: 0 MSHR LATE: 0 PQ LATE: 0 COMMIT LATE: 0 MISSED OPPORTUNITY: 0 UNCOVERED: 0
PSCL2 PREFETCHES SAME FILL-ORIGIN LEVEL: 0 DIFFERENT FILL-ORIGIN LEVEL: 0

LLC SPEC fills:          0  NON-SPEC fills:      67863
LLC Test counter :    2084340
LLC Leapfrog:          0
LLC MSHR merge:          0
LLC TOTAL     ACCESS:    5264339  HIT:     979069  MISS:    4285270  HIT %:    18.5981  MISS %:    81.4019   MPKI: 21.4263
LLC LOAD      TOTAL       ACCESS:    2628911  HIT:     438030  MISS:    2190881  HIT %:     16.662  MISS %:     83.338   MPKI: 10.9544
LLC LOAD      NON_SPEC    ACCESS:      71821  HIT:       3958  MISS:      67863  HIT %:    5.51092  MISS %:    94.4891   MPKI: 0.339315
LLC LOAD      SPEC        ACCESS:    2557090  HIT:     434072  MISS:    2123018  HIT %:    16.9752  MISS %:    83.0248   MPKI: 10.6151
LLC RFO       NON_SPEC    ACCESS:      19539  HIT:        164  MISS:      19375  HIT %:   0.839347  MISS %:    99.1607   MPKI: 0.096875
LLC WRITEBACK NON_SPEC    ACCESS:      21939  HIT:      21454  MISS:        485  HIT %:    97.7893  MISS %:    2.21068   MPKI: 0.002425
LLC CLEAN_EVICTION NON_SPEC    ACCESS:    2460396  HIT:     421974  MISS:    2038422  HIT %:    17.1507  MISS %:    82.8493   MPKI: 10.1921
LLC COMMIT LOAD NON_SPEC    ACCESS:      78718  HIT:      59151  MISS:      19567  HIT %:    75.1429  MISS %:    24.8571   MPKI: 0.097835
LLC LOAD TRANSLATION NON_SPEC    ACCESS:      54836  HIT:      38296  MISS:      16540  HIT %:    69.8373  MISS %:    30.1627   MPKI: 0.0827
LLC PREFETCH  REQUESTED:          0  ISSUED:          0  USEFUL:          0  USELESS:          0
LLC USEFUL LOAD PREFETCHES:          0 PREFETCH ISSUED TO LOWER LEVEL:          0  ACCURACY: -nan
LLC TIMELY PREFETCHES:          0 LATE PREFETCHES: 0 DROPPED PREFETCHES: 0
LLC COMMIT LATE PREFETCHES: 0 MISSED OPPORTUNITY: 0 LATE IN PQ: 0 UNCOVERED: 0
LLC COMMIT LATE MSHR PREFETCHES: 0
LLC MPKI TOTAL: 10.9544 MSHR LATE: 0 PQ LATE: 0 COMMIT LATE: 0 MISSED OPPORTUNITY: 0 UNCOVERED: 0
LLC PREFETCHES SAME FILL-ORIGIN LEVEL: 0 DIFFERENT FILL-ORIGIN LEVEL: 0
LLC AVERAGE MISS LATENCY: 92.3746 cycles
LLC AVERAGE MISS LATENCY LOAD: 174.298 cycles
LLC AVERAGE MISS LATENCY PREFETCH: -nan cycles
LLC AVERAGE MSHR OCCUPANCY: 1.21243
LLC MSHR FULL: 0
LLC RQ	ACCESS:    2782006	FORWARD:          0	MERGED:          0	TO_CACHE:    2782005
LLC WQ	ACCESS:    2482335	FORWARD:          1	MERGED:          0	TO_CACHE:    2482335

LLC Dense regions hint to LLC: 0

RAW hits: 420
Loads Generated: 76447765
Loads sent to L1D: 76447338
Stores Generated: 6800691
Stores sent to L1D: 6800691
Major fault: 0 Minor fault: 82777
Allocated PAGES: 82777
Total Load insts: 95559916
Total Non-spec loads: 7175807
Percentage of speculative loads: 92.4908

LeapFrogging counter: 1825
Commit hits: 25885133 miss: 44341788
Commit hit %: 36.8593 miss %: 63.1407
Commits not translated: 0
Loads retired: 2663689
Stores retired: 6800691
Cache fills: 2663689
L1D response latency: 175.987 cycles
Load retirement latency: 246.277 cycles
OOO test counter: 0
Discarded buffer inserts: 25885133 hits: 64186 hit %: 0.247965

DRAM Statistics
 CHANNEL 0
 RQ ROW_BUFFER_HIT:     947343  ROW_BUFFER_MISS:    1299020
 DBUS_CONGESTED:       6645
 WQ ROW_BUFFER_HIT:     770176  ROW_BUFFER_MISS:    1335214  FULL:      85807

 AVG_CONGESTED_CYCLE: 5
 All warmup complete: 2
Channel 0 Bank busy for read cycles: 0
Channel 0 Bank busy for write cycles: 0
Channel 0
Rank 0
0banks busy for read cycles: 3074735
0banks busy for write cycles: 68168
1banks busy for read cycles: 109270782
1banks busy for write cycles: 10554263
2banks busy for read cycles: 63879124
2banks busy for write cycles: 28590214
3banks busy for read cycles: 947473
3banks busy for write cycles: 38328403
4banks busy for read cycles: 309978
4banks busy for write cycles: 28931663
5banks busy for read cycles: 28358
5banks busy for write cycles: 11485567
6banks busy for read cycles: 16493
6banks busy for write cycles: 2295316
7banks busy for read cycles: 19464
7banks busy for write cycles: 475141
8banks busy for read cycles: 121180
8banks busy for write cycles: 1267429

CPU 0 Branch Prediction Accuracy: 99.9315% MPKI: 0.03438 Average ROB Occupancy at Mispredict: 304.056
Branch types
NOT_BRANCH: 189955278 94.9776%
BRANCH_DIRECT_JUMP: 162 8.1e-05%
BRANCH_INDIRECT: 0 0%
BRANCH_CONDITIONAL: 10044120 5.02206%
BRANCH_DIRECT_CALL: 162 8.1e-05%
BRANCH_INDIRECT_CALL: 0 0%
BRANCH_RETURN: 162 8.1e-05%
BRANCH_OTHER: 0 0%

DRAM PAGES: 1048576
Allocated PAGES: 82777
