
*** ChampSim Multicore Out-of-Order Simulator ***

Warmup Instructions: 50000000
Simulation Instructions: 200000000
Number of CPUs: 1
LLC sets: 2048
LLC ways: 16
L0D sets: 16
L0D ways: 2
ROB size: 352
LQ size: 128
SQ size: 72
Secure Berti: OFF
Berti: OFF
Berti Fill: OFF
On commit prefetching: OFF
Hit-based filter: ON
Time-guarding: ON
Free-slotting: ON
Leap-frogging: ON
Train prefetcher on L0D bypass: OFF
No translation penalty for prefetchers: OFF
Prefetch to L0D only: OFF
Prefetch to L1D only: OFF
Clean evictions: ON
Commit loads: ON
Commit write: ON
Fill commit loads to L2C, LLC: ON
DRAM IO FREQUENCY: 6400
ROB SIZE: 352
Off-chip DRAM Size: 4096 MB Channels: 1 Width: 64-bit Data Rate: 6400 MT/s
CPU 0 runs /home/sumon/secure_berti/GhostMinion/../../traces/spec/654.roms_s-293B.champsimtrace.xz
.xz
BTB has LRU replacement policy
ITLB has LRU replacement policy
DTLB has LRU replacement policy
STLB has LRU replacement policy
L1I has LRU replacement policy
L0D has LRU replacement policy
L1D has LRU replacement policy
L2C has LRU replacement policy
LLC has LRU replacement policy
Heartbeat CPU 0 instructions: 10000001 cycles: 3409308 heartbeat IPC: 2.93315 cumulative IPC: 2.93315 (Simulation time: 0 hr 0 min 29 sec) 
Heartbeat CPU 0 instructions: 20000003 cycles: 6891128 heartbeat IPC: 2.87206 cumulative IPC: 2.90228 (Simulation time: 0 hr 0 min 59 sec) 
Heartbeat CPU 0 instructions: 30000000 cycles: 10299183 heartbeat IPC: 2.93422 cumulative IPC: 2.91285 (Simulation time: 0 hr 1 min 29 sec) 
Heartbeat CPU 0 instructions: 40000003 cycles: 13781916 heartbeat IPC: 2.87131 cumulative IPC: 2.90235 (Simulation time: 0 hr 1 min 59 sec) 
Heartbeat CPU 0 instructions: 50000003 cycles: 17190156 heartbeat IPC: 2.93407 cumulative IPC: 2.90864 (Simulation time: 0 hr 2 min 29 sec) 

Warmup complete CPU 0 instructions: 50000003 cycles: 17190156 (Simulation time: 0 hr 2 min 29 sec) 

Heartbeat CPU 0 instructions: 60000002 cycles: 28015311 heartbeat IPC: 0.923774 cumulative IPC: 0.923774 (Simulation time: 0 hr 3 min 10 sec) 
Heartbeat CPU 0 instructions: 70000003 cycles: 38029884 heartbeat IPC: 0.998545 cumulative IPC: 0.959705 (Simulation time: 0 hr 3 min 51 sec) 
Heartbeat CPU 0 instructions: 80000002 cycles: 48676779 heartbeat IPC: 0.939241 cumulative IPC: 0.952786 (Simulation time: 0 hr 4 min 34 sec) 
Heartbeat CPU 0 instructions: 90000002 cycles: 58933692 heartbeat IPC: 0.974952 cumulative IPC: 0.958232 (Simulation time: 0 hr 5 min 17 sec) 
Heartbeat CPU 0 instructions: 100000002 cycles: 69413524 heartbeat IPC: 0.954214 cumulative IPC: 0.957426 (Simulation time: 0 hr 6 min 0 sec) 
Heartbeat CPU 0 instructions: 110000000 cycles: 79782433 heartbeat IPC: 0.964421 cumulative IPC: 0.958585 (Simulation time: 0 hr 6 min 43 sec) 
Heartbeat CPU 0 instructions: 120000000 cycles: 89901713 heartbeat IPC: 0.988213 cumulative IPC: 0.962708 (Simulation time: 0 hr 7 min 26 sec) 
Heartbeat CPU 0 instructions: 130000000 cycles: 101646415 heartbeat IPC: 0.851448 cumulative IPC: 0.947236 (Simulation time: 0 hr 8 min 13 sec) 
Heartbeat CPU 0 instructions: 140000003 cycles: 116525583 heartbeat IPC: 0.672081 cumulative IPC: 0.906021 (Simulation time: 0 hr 9 min 9 sec) 
Heartbeat CPU 0 instructions: 150000000 cycles: 131420668 heartbeat IPC: 0.671362 cumulative IPC: 0.875423 (Simulation time: 0 hr 10 min 6 sec) 
Heartbeat CPU 0 instructions: 160000000 cycles: 146287210 heartbeat IPC: 0.672651 cumulative IPC: 0.852072 (Simulation time: 0 hr 11 min 3 sec) 
Heartbeat CPU 0 instructions: 170000002 cycles: 161218563 heartbeat IPC: 0.669732 cumulative IPC: 0.833169 (Simulation time: 0 hr 12 min 0 sec) 
Heartbeat CPU 0 instructions: 180000000 cycles: 176093836 heartbeat IPC: 0.672256 cumulative IPC: 0.818106 (Simulation time: 0 hr 12 min 56 sec) 
Heartbeat CPU 0 instructions: 190000002 cycles: 190986086 heartbeat IPC: 0.67149 cumulative IPC: 0.805542 (Simulation time: 0 hr 13 min 52 sec) 
Heartbeat CPU 0 instructions: 200000001 cycles: 205896618 heartbeat IPC: 0.670667 cumulative IPC: 0.794885 (Simulation time: 0 hr 14 min 47 sec) 
Heartbeat CPU 0 instructions: 210000000 cycles: 220779652 heartbeat IPC: 0.671906 cumulative IPC: 0.785895 (Simulation time: 0 hr 15 min 41 sec) 
Heartbeat CPU 0 instructions: 220000000 cycles: 235689997 heartbeat IPC: 0.670675 cumulative IPC: 0.778033 (Simulation time: 0 hr 16 min 29 sec) 
Heartbeat CPU 0 instructions: 230000000 cycles: 250642610 heartbeat IPC: 0.668779 cumulative IPC: 0.771035 (Simulation time: 0 hr 17 min 15 sec) 
Heartbeat CPU 0 instructions: 240000000 cycles: 265535220 heartbeat IPC: 0.671474 cumulative IPC: 0.765065 (Simulation time: 0 hr 17 min 58 sec) 
Heartbeat CPU 0 instructions: 250000002 cycles: 280409553 heartbeat IPC: 0.672299 cumulative IPC: 0.759822 (Simulation time: 0 hr 18 min 41 sec) 
Finished CPU 0 instructions: 200000003 cycles: 263219398 cumulative IPC: 0.759822 (Simulation time: 0 hr 18 min 41 sec) 
 Instruction ID: 250000335

ChampSim completed all CPUs

Region of Interest Statistics

CPU 0 cumulative IPC: 0.759822 instructions: 200000003 cycles: 263219398
ITLB SPEC fills:          0  NON-SPEC fills:          0
ITLB Test counter :          0
ITLB Leapfrog:          0
ITLB MSHR merge:          0
ITLB TOTAL     ACCESS:   29113081  HIT:   29113065  MISS:         16  HIT %:    99.9999  MISS %: 5.49581e-05   MPKI: 8e-05
ITLB LOAD TRANSLATION NON_SPEC    ACCESS:   29113081  HIT:   29113065  MISS:         16  HIT %:    99.9999  MISS %: 5.49581e-05   MPKI: 8e-05
ITLB PREFETCH  REQUESTED:          0  ISSUED:          0  USEFUL:          0  USELESS:          0
ITLB USEFUL LOAD PREFETCHES:          0 PREFETCH ISSUED TO LOWER LEVEL:          0  ACCURACY: -nan
ITLB TIMELY PREFETCHES:          0 LATE PREFETCHES: 0 DROPPED PREFETCHES: 0
ITLB COMMIT LATE PREFETCHES: 0 MISSED OPPORTUNITY: 0 LATE IN PQ: 0 UNCOVERED: 0
ITLB COMMIT LATE MSHR PREFETCHES: 0
ITLB MPKI TOTAL: 0 MSHR LATE: 0 PQ LATE: 0 COMMIT LATE: 0 MISSED OPPORTUNITY: 0 UNCOVERED: 0
ITLB PREFETCHES SAME FILL-ORIGIN LEVEL: 0 DIFFERENT FILL-ORIGIN LEVEL: 0
ITLB AVERAGE MISS LATENCY: 307.625 cycles
ITLB AVERAGE MISS LATENCY LOAD: -nan cycles
ITLB AVERAGE MISS LATENCY PREFETCH: -nan cycles
ITLB AVERAGE MSHR OCCUPANCY: 1.03046e-07
ITLB MSHR FULL: 0
ITLB RQ	ACCESS:   35894466	FORWARD:          0	MERGED:    6781383	TO_CACHE:   29113083

DTLB SPEC fills:          0  NON-SPEC fills:          0
DTLB Test counter :          0
DTLB Leapfrog:          0
DTLB MSHR merge:          0
DTLB TOTAL     ACCESS:   54711170  HIT:   54637594  MISS:      73576  HIT %:    99.8655  MISS %:   0.134481   MPKI: 0.36788
DTLB LOAD TRANSLATION NON_SPEC    ACCESS:   54711170  HIT:   54637594  MISS:      73576  HIT %:    99.8655  MISS %:   0.134481   MPKI: 0.36788
DTLB PREFETCH  REQUESTED:          0  ISSUED:          0  USEFUL:          0  USELESS:          0
DTLB USEFUL LOAD PREFETCHES:          0 PREFETCH ISSUED TO LOWER LEVEL:          0  ACCURACY: -nan
DTLB TIMELY PREFETCHES:          0 LATE PREFETCHES: 0 DROPPED PREFETCHES: 0
DTLB COMMIT LATE PREFETCHES: 0 MISSED OPPORTUNITY: 0 LATE IN PQ: 0 UNCOVERED: 0
DTLB COMMIT LATE MSHR PREFETCHES: 0
DTLB MPKI TOTAL: 0 MSHR LATE: 0 PQ LATE: 0 COMMIT LATE: 0 MISSED OPPORTUNITY: 0 UNCOVERED: 0
DTLB PREFETCHES SAME FILL-ORIGIN LEVEL: 0 DIFFERENT FILL-ORIGIN LEVEL: 0
DTLB AVERAGE MISS LATENCY: 350.711 cycles
DTLB AVERAGE MISS LATENCY LOAD: -nan cycles
DTLB AVERAGE MISS LATENCY PREFETCH: -nan cycles
DTLB AVERAGE MSHR OCCUPANCY: 0.0182962
DTLB MSHR FULL: 1.46111e-07
DTLB RQ	ACCESS:   63298001	FORWARD:          0	MERGED:    8544927	TO_CACHE:   54753074

STLB SPEC fills:          0  NON-SPEC fills:          0
STLB Test counter :          0
STLB Leapfrog:          0
STLB MSHR merge:          0
STLB TOTAL     ACCESS:      73592  HIT:      25752  MISS:      47840  HIT %:    34.9929  MISS %:    65.0071   MPKI: 0.2392
STLB LOAD TRANSLATION NON_SPEC    ACCESS:      73592  HIT:      25752  MISS:      47840  HIT %:    34.9929  MISS %:    65.0071   MPKI: 0.2392
STLB PREFETCH  REQUESTED:          0  ISSUED:          0  USEFUL:          0  USELESS:          0
STLB USEFUL LOAD PREFETCHES:          0 PREFETCH ISSUED TO LOWER LEVEL:          0  ACCURACY: -nan
STLB TIMELY PREFETCHES:          0 LATE PREFETCHES: 0 DROPPED PREFETCHES: 0
STLB COMMIT LATE PREFETCHES: 0 MISSED OPPORTUNITY: 0 LATE IN PQ: 0 UNCOVERED: 0
STLB COMMIT LATE MSHR PREFETCHES: 0
STLB MPKI TOTAL: 0 MSHR LATE: 0 PQ LATE: 0 COMMIT LATE: 0 MISSED OPPORTUNITY: 0 UNCOVERED: 0
STLB PREFETCHES SAME FILL-ORIGIN LEVEL: 0 DIFFERENT FILL-ORIGIN LEVEL: 0
STLB AVERAGE MISS LATENCY: 525.365 cycles
STLB AVERAGE MISS LATENCY LOAD: -nan cycles
STLB AVERAGE MISS LATENCY PREFETCH: -nan cycles
STLB AVERAGE MSHR OCCUPANCY: 0.939572
STLB MSHR FULL: 0
STLB RQ	ACCESS:      73592	FORWARD:          0	MERGED:          0	TO_CACHE:      73592

STLB Hit, L1D data hit: 0
STLB Hit, L2C data hit: 0
STLB Hit, LLC data hit: 0
STLB Hit, LLC data miss: 0
STLB STLB hints to L2: 0
L0D SPEC fills:   27121433  NON-SPEC fills:          0
L0D TimeGuard Request with older TS:    1874726 Restricted eviction:    1399255 read:    2605364
L0D Test counter :          0
L0D Leapfrog:          0
L0D MSHR merge:    4924290
L0D TOTAL     ACCESS:   46965244  HIT:   12926688  MISS:   34038556  HIT %:    27.5239  MISS %:    72.4761   MPKI: 170.193
L0D LOAD      TOTAL       ACCESS:   46965244  HIT:   12926688  MISS:   34038556  HIT %:    27.5239  MISS %:    72.4761   MPKI: 170.193
L0D LOAD      NON_SPEC    ACCESS:    6106170  HIT:     588300  MISS:    5517870  HIT %:    9.63452  MISS %:    90.3655   MPKI: 27.5893
L0D LOAD      SPEC        ACCESS:   40859074  HIT:   12338388  MISS:   28520686  HIT %:    30.1974  MISS %:    69.8026   MPKI: 142.603
L0D PREFETCH  REQUESTED:          0  ISSUED:          0  USEFUL:          0  USELESS:          0
L0D USEFUL LOAD PREFETCHES:          0 PREFETCH ISSUED TO LOWER LEVEL:          0  ACCURACY: -nan
L0D TIMELY PREFETCHES:          0 LATE PREFETCHES: 0 DROPPED PREFETCHES: 0
L0D COMMIT LATE PREFETCHES: 0 MISSED OPPORTUNITY: 0 LATE IN PQ: 0 UNCOVERED: 0
L0D COMMIT LATE MSHR PREFETCHES: 0
L0D MPKI TOTAL: 194.814 MSHR LATE: 0 PQ LATE: 0 COMMIT LATE: 0 MISSED OPPORTUNITY: 0 UNCOVERED: 0
L0D PREFETCHES SAME FILL-ORIGIN LEVEL: 0 DIFFERENT FILL-ORIGIN LEVEL: 0
L0D AVERAGE MISS LATENCY: 14.7732 cycles
L0D AVERAGE MISS LATENCY LOAD: 14.7732 cycles
L0D AVERAGE MISS LATENCY PREFETCH: -nan cycles
L0D AVERAGE MSHR OCCUPANCY: 1.99738
L0D MSHR FULL: 0.00135686
L0D RQ	ACCESS:   72859479	FORWARD:          0	MERGED:   20969939	TO_CACHE:   51889540
L0D WQ	ACCESS:   11408461	FORWARD:          0	MERGED:          0	TO_CACHE:   11408461

L1D SPEC fills:          0  NON-SPEC fills:      38251
L1D Test counter :    1904937
L1D Leapfrog:          0
L1D MSHR merge:      45110
L1D TOTAL     ACCESS:   49056676  HIT:   44601112  MISS:    4455564  HIT %:    90.9175  MISS %:    9.08248   MPKI: 22.2778
L1D LOAD      TOTAL       ACCESS:   33993447  HIT:   31934185  MISS:    2059262  HIT %:    93.9422  MISS %:    6.05782   MPKI: 10.2963
L1D LOAD      NON_SPEC    ACCESS:    5517659  HIT:    5479408  MISS:      38251  HIT %:    99.3068  MISS %:   0.693247   MPKI: 0.191255
L1D LOAD      SPEC        ACCESS:   28475788  HIT:   26454777  MISS:    2021011  HIT %:    92.9027  MISS %:     7.0973   MPKI: 10.1051
L1D RFO       NON_SPEC    ACCESS:   10656166  HIT:   10252936  MISS:     403230  HIT %:     96.216  MISS %:    3.78401   MPKI: 2.01615
L1D COMMIT LOAD NON_SPEC    ACCESS:    2002623  HIT:    1942509  MISS:      60114  HIT %:    96.9982  MISS %:    3.00176   MPKI: 0.30057
L1D COMMIT WRITE NON_SPEC    ACCESS:    2404440  HIT:     471482  MISS:    1932958  HIT %:    19.6088  MISS %:    80.3912   MPKI: 9.66479
L1D PREFETCH  REQUESTED:          0  ISSUED:          0  USEFUL:          0  USELESS:          0
L1D USEFUL LOAD PREFETCHES:          0 PREFETCH ISSUED TO LOWER LEVEL:          0  ACCURACY: -nan
L1D TIMELY PREFETCHES:          0 LATE PREFETCHES: 0 DROPPED PREFETCHES: 0
L1D COMMIT LATE PREFETCHES: 0 MISSED OPPORTUNITY: 0 LATE IN PQ: 0 UNCOVERED: 0
L1D COMMIT LATE MSHR PREFETCHES: 0
L1D MPKI TOTAL: 10.5219 MSHR LATE: 0 PQ LATE: 0 COMMIT LATE: 0 MISSED OPPORTUNITY: 0 UNCOVERED: 0
L1D PREFETCHES SAME FILL-ORIGIN LEVEL: 0 DIFFERENT FILL-ORIGIN LEVEL: 0
L1D AVERAGE MISS LATENCY: 92.8922 cycles
L1D AVERAGE MISS LATENCY LOAD: 157.836 cycles
L1D AVERAGE MISS LATENCY PREFETCH: -nan cycles
L1D AVERAGE MSHR OCCUPANCY: 0.998648
L1D MSHR FULL: 0.00400867
L1D RQ	ACCESS:   36471687	FORWARD:          0	MERGED:     415566	TO_CACHE:   36056073
L1D WQ	ACCESS:   13805389	FORWARD:         48	MERGED:       1146	TO_CACHE:   13804243

L1D UNIQUE REGIONS ACCESSED: 0
L1D REGIONS CONFLICTS: 0
L1D Cross Page Prefetch Requests: 0
L1D Same Page Prefetch Requests: 0
L1D ROI Sum of L1D PQ occupancy: 0
L1D PREFETCHES PUSHED FROM L2C: 0
L1I SPEC fills:          0  NON-SPEC fills:          0
L1I Test counter :          0
L1I Leapfrog:          0
L1I MSHR merge:         51
L1I TOTAL     ACCESS:   35894416  HIT:   35894243  MISS:        173  HIT %:    99.9995  MISS %: 0.000481969   MPKI: 0.000865
L1I LOAD      TOTAL       ACCESS:   35894416  HIT:   35894243  MISS:        173  HIT %:    99.9995  MISS %: 0.000481969   MPKI: 0.000865
L1I LOAD      NON_SPEC    ACCESS:   35894416  HIT:   35894243  MISS:        173  HIT %:    99.9995  MISS %: 0.000481969   MPKI: 0.000865
L1I PREFETCH  REQUESTED:          0  ISSUED:          0  USEFUL:          0  USELESS:          0
L1I USEFUL LOAD PREFETCHES:          0 PREFETCH ISSUED TO LOWER LEVEL:          0  ACCURACY: -nan
L1I TIMELY PREFETCHES:          0 LATE PREFETCHES: 0 DROPPED PREFETCHES: 0
L1I COMMIT LATE PREFETCHES: 0 MISSED OPPORTUNITY: 0 LATE IN PQ: 0 UNCOVERED: 0
L1I COMMIT LATE MSHR PREFETCHES: 0
L1I MPKI TOTAL: 0.00112 MSHR LATE: 0 PQ LATE: 0 COMMIT LATE: 0 MISSED OPPORTUNITY: 0 UNCOVERED: 0
L1I PREFETCHES SAME FILL-ORIGIN LEVEL: 0 DIFFERENT FILL-ORIGIN LEVEL: 0
L1I AVERAGE MISS LATENCY: 224.838 cycles
L1I AVERAGE MISS LATENCY LOAD: 224.838 cycles
L1I AVERAGE MISS LATENCY PREFETCH: -nan cycles
L1I AVERAGE MSHR OCCUPANCY: 4.15106e-06
L1I MSHR FULL: 0
L1I RQ	ACCESS:   53644654	FORWARD:          0	MERGED:   17750188	TO_CACHE:   35894466

BTB SPEC fills:          0  NON-SPEC fills:          0
BTB Test counter :          0
BTB Leapfrog:          0
BTB MSHR merge:          0
BTB TOTAL     ACCESS:    7097439  HIT:    7097307  MISS:        132  HIT %:    99.9981  MISS %: 0.00185983   MPKI: 0.00066
BTB BRANCH_DIRECT_JUMP	ACCESS:        147  HIT:        134  MISS:         13
BTB BRANCH_INDIRECT	ACCESS:          0  HIT:          0  MISS:          0
BTB BRANCH_CONDITIONAL	ACCESS:    7097034  HIT:    7096975  MISS:         59
BTB BRANCH_DIRECT_CALL	ACCESS:        129  HIT:         99  MISS:         30
BTB BRANCH_INDIRECT_CALL	ACCESS:          0  HIT:          0  MISS:          0
BTB BRANCH_RETURN	ACCESS:        129  HIT:         99  MISS:         30
BTB BRANCH_OTHER ACCESS:          0  HIT:          0  MISS:          0

L2C SPEC fills:          0  NON-SPEC fills:      30196
L2C Test counter :    1887492
L2C Leapfrog:          0
L2C MSHR merge:          0
L2C TOTAL     ACCESS:    5074820  HIT:     726617  MISS:    4348203  HIT %:    14.3181  MISS %:    85.6819   MPKI: 21.741
L2C LOAD      TOTAL       ACCESS:    2059277  HIT:      84037  MISS:    1975240  HIT %:     4.0809  MISS %:    95.9191   MPKI: 9.8762
L2C LOAD      NON_SPEC    ACCESS:      38379  HIT:       8010  MISS:      30369  HIT %:    20.8708  MISS %:    79.1292   MPKI: 0.151845
L2C LOAD      SPEC        ACCESS:    2020898  HIT:      76027  MISS:    1944871  HIT %:    3.76204  MISS %:     96.238   MPKI: 9.72435
L2C RFO       NON_SPEC    ACCESS:     403225  HIT:       1279  MISS:     401946  HIT %:   0.317193  MISS %:    99.6828   MPKI: 2.00973
L2C WRITEBACK NON_SPEC    ACCESS:     408337  HIT:     396631  MISS:      11706  HIT %:    97.1333  MISS %:    2.86675   MPKI: 0.05853
L2C CLEAN_EVICTION NON_SPEC    ACCESS:    1904937  HIT:      41678  MISS:    1863259  HIT %:    2.18789  MISS %:    97.8121   MPKI: 9.31629
L2C COMMIT LOAD NON_SPEC    ACCESS:      60114  HIT:       3860  MISS:      56254  HIT %:    6.42113  MISS %:    93.5789   MPKI: 0.28127
L2C LOAD TRANSLATION NON_SPEC    ACCESS:     238930  HIT:     199132  MISS:      39798  HIT %:    83.3432  MISS %:    16.6568   MPKI: 0.19899
L2C PREFETCH  REQUESTED:          0  ISSUED:          0  USEFUL:          0  USELESS:          0
L2C USEFUL LOAD PREFETCHES:          0 PREFETCH ISSUED TO LOWER LEVEL:          0  ACCURACY: -nan
L2C TIMELY PREFETCHES:          0 LATE PREFETCHES: 0 DROPPED PREFETCHES: 0
L2C COMMIT LATE PREFETCHES: 0 MISSED OPPORTUNITY: 0 LATE IN PQ: 0 UNCOVERED: 0
L2C COMMIT LATE MSHR PREFETCHES: 0
L2C MPKI TOTAL: 9.8762 MSHR LATE: 0 PQ LATE: 0 COMMIT LATE: 0 MISSED OPPORTUNITY: 0 UNCOVERED: 0
L2C PREFETCHES SAME FILL-ORIGIN LEVEL: 0 DIFFERENT FILL-ORIGIN LEVEL: 0
L2C AVERAGE MISS LATENCY: 89.2985 cycles
L2C AVERAGE MISS LATENCY LOAD: 152.916 cycles
L2C AVERAGE MISS LATENCY PREFETCH: -nan cycles
L2C AVERAGE MSHR OCCUPANCY: 1.69891
L2C MSHR FULL: 0
L2C RQ	ACCESS:    2761708	FORWARD:          0	MERGED:          0	TO_CACHE:    2761545
L2C WQ	ACCESS:    2313274	FORWARD:        163	MERGED:          0	TO_CACHE:    2313274

L2C Instructions Evicting Data 173
L2C Translations Evicting Data 39104
L2C Data Evicting Data 483600
L2C Instructions Evicting Instructions 0
L2C Translations Evicting Instructions 2
L2C Data Evicting Instructions 3
L2C Instructions Evicting Translations 0
L2C Translations Evicting Translations 692
L2C Data Evicting Translations 4793
L2C Dense regions hint from L2: 0
PSCL5 SPEC fills:          0  NON-SPEC fills:          0
PSCL5 Test counter :          0
PSCL5 Leapfrog:          0
PSCL5 MSHR merge:          0
PSCL5 TOTAL     ACCESS:          0  HIT:          0  MISS:          0  HIT %:       -nan  MISS %:       -nan   MPKI: 0
PSCL5 PREFETCH  REQUESTED:          0  ISSUED:          0  USEFUL:          0  USELESS:          0
PSCL5 USEFUL LOAD PREFETCHES:          0 PREFETCH ISSUED TO LOWER LEVEL:          0  ACCURACY: -nan
PSCL5 TIMELY PREFETCHES:          0 LATE PREFETCHES: 0 DROPPED PREFETCHES: 0
PSCL5 COMMIT LATE PREFETCHES: 0 MISSED OPPORTUNITY: 0 LATE IN PQ: 0 UNCOVERED: 0
PSCL5 COMMIT LATE MSHR PREFETCHES: 0
PSCL5 MPKI TOTAL: 0 MSHR LATE: 0 PQ LATE: 0 COMMIT LATE: 0 MISSED OPPORTUNITY: 0 UNCOVERED: 0
PSCL5 PREFETCHES SAME FILL-ORIGIN LEVEL: 0 DIFFERENT FILL-ORIGIN LEVEL: 0

PSCL4 SPEC fills:          0  NON-SPEC fills:          0
PSCL4 Test counter :          0
PSCL4 Leapfrog:          0
PSCL4 MSHR merge:          0
PSCL4 TOTAL     ACCESS:          0  HIT:          0  MISS:          0  HIT %:       -nan  MISS %:       -nan   MPKI: 0
PSCL4 PREFETCH  REQUESTED:          0  ISSUED:          0  USEFUL:          0  USELESS:          0
PSCL4 USEFUL LOAD PREFETCHES:          0 PREFETCH ISSUED TO LOWER LEVEL:          0  ACCURACY: -nan
PSCL4 TIMELY PREFETCHES:          0 LATE PREFETCHES: 0 DROPPED PREFETCHES: 0
PSCL4 COMMIT LATE PREFETCHES: 0 MISSED OPPORTUNITY: 0 LATE IN PQ: 0 UNCOVERED: 0
PSCL4 COMMIT LATE MSHR PREFETCHES: 0
PSCL4 MPKI TOTAL: 0 MSHR LATE: 0 PQ LATE: 0 COMMIT LATE: 0 MISSED OPPORTUNITY: 0 UNCOVERED: 0
PSCL4 PREFETCHES SAME FILL-ORIGIN LEVEL: 0 DIFFERENT FILL-ORIGIN LEVEL: 0

PSCL3 SPEC fills:          0  NON-SPEC fills:          0
PSCL3 Test counter :          0
PSCL3 Leapfrog:          0
PSCL3 MSHR merge:          0
PSCL3 TOTAL     ACCESS:          0  HIT:          0  MISS:          0  HIT %:       -nan  MISS %:       -nan   MPKI: 0
PSCL3 PREFETCH  REQUESTED:          0  ISSUED:          0  USEFUL:          0  USELESS:          0
PSCL3 USEFUL LOAD PREFETCHES:          0 PREFETCH ISSUED TO LOWER LEVEL:          0  ACCURACY: -nan
PSCL3 TIMELY PREFETCHES:          0 LATE PREFETCHES: 0 DROPPED PREFETCHES: 0
PSCL3 COMMIT LATE PREFETCHES: 0 MISSED OPPORTUNITY: 0 LATE IN PQ: 0 UNCOVERED: 0
PSCL3 COMMIT LATE MSHR PREFETCHES: 0
PSCL3 MPKI TOTAL: 0 MSHR LATE: 0 PQ LATE: 0 COMMIT LATE: 0 MISSED OPPORTUNITY: 0 UNCOVERED: 0
PSCL3 PREFETCHES SAME FILL-ORIGIN LEVEL: 0 DIFFERENT FILL-ORIGIN LEVEL: 0

PSCL2 SPEC fills:          0  NON-SPEC fills:          0
PSCL2 Test counter :          0
PSCL2 Leapfrog:          0
PSCL2 MSHR merge:          0
PSCL2 TOTAL     ACCESS:          0  HIT:          0  MISS:          0  HIT %:       -nan  MISS %:       -nan   MPKI: 0
PSCL2 PREFETCH  REQUESTED:          0  ISSUED:          0  USEFUL:          0  USELESS:          0
PSCL2 USEFUL LOAD PREFETCHES:          0 PREFETCH ISSUED TO LOWER LEVEL:          0  ACCURACY: -nan
PSCL2 TIMELY PREFETCHES:          0 LATE PREFETCHES: 0 DROPPED PREFETCHES: 0
PSCL2 COMMIT LATE PREFETCHES: 0 MISSED OPPORTUNITY: 0 LATE IN PQ: 0 UNCOVERED: 0
PSCL2 COMMIT LATE MSHR PREFETCHES: 0
PSCL2 MPKI TOTAL: 0 MSHR LATE: 0 PQ LATE: 0 COMMIT LATE: 0 MISSED OPPORTUNITY: 0 UNCOVERED: 0
PSCL2 PREFETCHES SAME FILL-ORIGIN LEVEL: 0 DIFFERENT FILL-ORIGIN LEVEL: 0

LLC SPEC fills:          0  NON-SPEC fills:      17787
LLC Test counter :    1498803
LLC Leapfrog:          0
LLC MSHR merge:          0
LLC TOTAL     ACCESS:    4770238  HIT:    1471435  MISS:    3298803  HIT %:    30.8462  MISS %:    69.1538   MPKI: 16.494
LLC LOAD      TOTAL       ACCESS:    1975239  HIT:     489026  MISS:    1486213  HIT %:    24.7578  MISS %:    75.2422   MPKI: 7.43106
LLC LOAD      NON_SPEC    ACCESS:      30369  HIT:      12409  MISS:      17960  HIT %:    40.8607  MISS %:    59.1393   MPKI: 0.0898
LLC LOAD      SPEC        ACCESS:    1944870  HIT:     476617  MISS:    1468253  HIT %:    24.5064  MISS %:    75.4936   MPKI: 7.34126
LLC RFO       NON_SPEC    ACCESS:     401946  HIT:     115519  MISS:     286427  HIT %:    28.7399  MISS %:    71.2601   MPKI: 1.43213
LLC WRITEBACK NON_SPEC    ACCESS:     409509  HIT:     409251  MISS:        258  HIT %:     99.937  MISS %:  0.0630023   MPKI: 0.00129
LLC CLEAN_EVICTION NON_SPEC    ACCESS:    1887492  HIT:     388196  MISS:    1499296  HIT %:    20.5668  MISS %:    79.4332   MPKI: 7.49648
LLC COMMIT LOAD NON_SPEC    ACCESS:      56254  HIT:      46127  MISS:      10127  HIT %:    81.9977  MISS %:    18.0023   MPKI: 0.050635
LLC LOAD TRANSLATION NON_SPEC    ACCESS:      39798  HIT:      23316  MISS:      16482  HIT %:    58.5859  MISS %:    41.4141   MPKI: 0.08241
LLC PREFETCH  REQUESTED:          0  ISSUED:          0  USEFUL:          0  USELESS:          0
LLC USEFUL LOAD PREFETCHES:          0 PREFETCH ISSUED TO LOWER LEVEL:          0  ACCURACY: -nan
LLC TIMELY PREFETCHES:          0 LATE PREFETCHES: 0 DROPPED PREFETCHES: 0
LLC COMMIT LATE PREFETCHES: 0 MISSED OPPORTUNITY: 0 LATE IN PQ: 0 UNCOVERED: 0
LLC COMMIT LATE MSHR PREFETCHES: 0
LLC MPKI TOTAL: 7.43106 MSHR LATE: 0 PQ LATE: 0 COMMIT LATE: 0 MISSED OPPORTUNITY: 0 UNCOVERED: 0
LLC PREFETCHES SAME FILL-ORIGIN LEVEL: 0 DIFFERENT FILL-ORIGIN LEVEL: 0
LLC AVERAGE MISS LATENCY: 100.228 cycles
LLC AVERAGE MISS LATENCY LOAD: 174.58 cycles
LLC AVERAGE MISS LATENCY PREFETCH: -nan cycles
LLC AVERAGE MSHR OCCUPANCY: 1.33479
LLC MSHR FULL: 0
LLC RQ	ACCESS:    2473237	FORWARD:          0	MERGED:          0	TO_CACHE:    2473236
LLC WQ	ACCESS:    2297001	FORWARD:          1	MERGED:          0	TO_CACHE:    2297001

LLC Dense regions hint to LLC: 0

RAW hits: 835824
Loads Generated: 73695312
Loads sent to L1D: 72859479
Stores Generated: 11408451
Stores sent to L1D: 11408461
Major fault: 0 Minor fault: 53394
Allocated PAGES: 53394
Total Load insts: 88782926
Total Non-spec loads: 7655103
Percentage of speculative loads: 91.3777

LeapFrogging counter: 2301
Commit hits: 25508042 miss: 40866830
Commit hit %: 38.4303 miss %: 61.5697
Commits not translated: 0
Loads retired: 2059262
Stores retired: 11408461
Cache fills: 2059262
L1D response latency: 157.836 cycles
Load retirement latency: 226.651 cycles
OOO test counter: 0
Discarded buffer inserts: 25508042 hits: 18994 hit %: 0.0744628

DRAM Statistics
 CHANNEL 0
 RQ ROW_BUFFER_HIT:     611171  ROW_BUFFER_MISS:    1187963
 DBUS_CONGESTED:       3806
 WQ ROW_BUFFER_HIT:     669153  ROW_BUFFER_MISS:    1134560  FULL:      73129

 AVG_CONGESTED_CYCLE: 5
 All warmup complete: 2
Channel 0 Bank busy for read cycles: 0
Channel 0 Bank busy for write cycles: 0
Channel 0
Rank 0
0banks busy for read cycles: 9872768
0banks busy for write cycles: 111625
1banks busy for read cycles: 94166747
1banks busy for write cycles: 14432772
2banks busy for read cycles: 51322530
2banks busy for write cycles: 24405983
3banks busy for read cycles: 1313797
3banks busy for write cycles: 27988938
4banks busy for read cycles: 927585
4banks busy for write cycles: 20285242
5banks busy for read cycles: 329087
5banks busy for write cycles: 7762845
6banks busy for read cycles: 159394
6banks busy for write cycles: 1933222
7banks busy for read cycles: 136537
7banks busy for write cycles: 1346621
8banks busy for read cycles: 221027
8banks busy for write cycles: 6502679

CPU 0 Branch Prediction Accuracy: 99.9104% MPKI: 0.03179 Average ROB Occupancy at Mispredict: 259.688
Branch types
NOT_BRANCH: 192901062 96.4505%
BRANCH_DIRECT_JUMP: 147 7.35e-05%
BRANCH_INDIRECT: 0 0%
BRANCH_CONDITIONAL: 7098487 3.54924%
BRANCH_DIRECT_CALL: 129 6.45e-05%
BRANCH_INDIRECT_CALL: 0 0%
BRANCH_RETURN: 129 6.45e-05%
BRANCH_OTHER: 0 0%

DRAM PAGES: 1048576
Allocated PAGES: 53394
