
*** ChampSim Multicore Out-of-Order Simulator ***

Warmup Instructions: 50000000
Simulation Instructions: 200000000
Number of CPUs: 1
LLC sets: 2048
LLC ways: 16
L0D sets: 16
L0D ways: 2
ROB size: 352
LQ size: 128
SQ size: 72
Secure Berti: OFF
Berti: OFF
Berti Fill: OFF
On commit prefetching: OFF
Hit-based filter: ON
Time-guarding: ON
Free-slotting: ON
Leap-frogging: ON
Train prefetcher on L0D bypass: OFF
No translation penalty for prefetchers: OFF
Prefetch to L0D only: OFF
Prefetch to L1D only: OFF
Clean evictions: ON
Commit loads: ON
Commit write: ON
Fill commit loads to L2C, LLC: ON
DRAM IO FREQUENCY: 6400
ROB SIZE: 352
Off-chip DRAM Size: 4096 MB Channels: 1 Width: 64-bit Data Rate: 6400 MT/s
CPU 0 runs /home/sumon/secure_berti/GhostMinion/../../traces/spec/654.roms_s-1390B.champsimtrace.xz
.xz
BTB has LRU replacement policy
ITLB has LRU replacement policy
DTLB has LRU replacement policy
STLB has LRU replacement policy
L1I has LRU replacement policy
L0D has LRU replacement policy
L1D has LRU replacement policy
L2C has LRU replacement policy
LLC has LRU replacement policy
Heartbeat CPU 0 instructions: 10000001 cycles: 4225977 heartbeat IPC: 2.36632 cumulative IPC: 2.36632 (Simulation time: 0 hr 0 min 39 sec) 
Heartbeat CPU 0 instructions: 20000000 cycles: 7868869 heartbeat IPC: 2.74507 cumulative IPC: 2.54166 (Simulation time: 0 hr 1 min 7 sec) 
Heartbeat CPU 0 instructions: 30000001 cycles: 11285596 heartbeat IPC: 2.92678 cumulative IPC: 2.65826 (Simulation time: 0 hr 1 min 32 sec) 
Heartbeat CPU 0 instructions: 40000002 cycles: 15350690 heartbeat IPC: 2.45997 cumulative IPC: 2.60575 (Simulation time: 0 hr 2 min 7 sec) 
Heartbeat CPU 0 instructions: 50000000 cycles: 19997000 heartbeat IPC: 2.15225 cumulative IPC: 2.50038 (Simulation time: 0 hr 2 min 45 sec) 

Warmup complete CPU 0 instructions: 50000004 cycles: 19997001 (Simulation time: 0 hr 2 min 45 sec) 

Heartbeat CPU 0 instructions: 60000001 cycles: 37418631 heartbeat IPC: 0.573999 cumulative IPC: 0.573999 (Simulation time: 0 hr 3 min 24 sec) 
Heartbeat CPU 0 instructions: 70000002 cycles: 53546680 heartbeat IPC: 0.620038 cumulative IPC: 0.596131 (Simulation time: 0 hr 4 min 2 sec) 
Heartbeat CPU 0 instructions: 80000002 cycles: 69693407 heartbeat IPC: 0.619321 cumulative IPC: 0.603665 (Simulation time: 0 hr 4 min 41 sec) 
Heartbeat CPU 0 instructions: 90000001 cycles: 93750084 heartbeat IPC: 0.415685 cumulative IPC: 0.54235 (Simulation time: 0 hr 5 min 35 sec) 
Heartbeat CPU 0 instructions: 100000001 cycles: 119850398 heartbeat IPC: 0.383137 cumulative IPC: 0.500734 (Simulation time: 0 hr 6 min 29 sec) 
Heartbeat CPU 0 instructions: 110000000 cycles: 144159049 heartbeat IPC: 0.411376 cumulative IPC: 0.483239 (Simulation time: 0 hr 7 min 21 sec) 
Heartbeat CPU 0 instructions: 120000001 cycles: 163026428 heartbeat IPC: 0.530015 cumulative IPC: 0.48941 (Simulation time: 0 hr 8 min 6 sec) 
Heartbeat CPU 0 instructions: 130000000 cycles: 181779326 heartbeat IPC: 0.533251 cumulative IPC: 0.494492 (Simulation time: 0 hr 8 min 53 sec) 
Heartbeat CPU 0 instructions: 140000001 cycles: 219068080 heartbeat IPC: 0.268177 cumulative IPC: 0.4521 (Simulation time: 0 hr 10 min 5 sec) 
Heartbeat CPU 0 instructions: 150000000 cycles: 246921675 heartbeat IPC: 0.35902 cumulative IPC: 0.440675 (Simulation time: 0 hr 11 min 6 sec) 
Heartbeat CPU 0 instructions: 160000003 cycles: 279584669 heartbeat IPC: 0.306157 cumulative IPC: 0.423749 (Simulation time: 0 hr 12 min 21 sec) 
Heartbeat CPU 0 instructions: 170000000 cycles: 310751339 heartbeat IPC: 0.320855 cumulative IPC: 0.41272 (Simulation time: 0 hr 13 min 35 sec) 
Heartbeat CPU 0 instructions: 180000003 cycles: 341281714 heartbeat IPC: 0.327543 cumulative IPC: 0.404626 (Simulation time: 0 hr 14 min 48 sec) 
Heartbeat CPU 0 instructions: 190000002 cycles: 367862864 heartbeat IPC: 0.376206 cumulative IPC: 0.402454 (Simulation time: 0 hr 15 min 43 sec) 
Heartbeat CPU 0 instructions: 200000003 cycles: 398272355 heartbeat IPC: 0.328845 cumulative IPC: 0.396537 (Simulation time: 0 hr 16 min 30 sec) 
Heartbeat CPU 0 instructions: 210000001 cycles: 425197498 heartbeat IPC: 0.3714 cumulative IPC: 0.394866 (Simulation time: 0 hr 17 min 30 sec) 
Heartbeat CPU 0 instructions: 220000000 cycles: 455514037 heartbeat IPC: 0.329853 cumulative IPC: 0.390341 (Simulation time: 0 hr 18 min 22 sec) 
Heartbeat CPU 0 instructions: 230000002 cycles: 493274514 heartbeat IPC: 0.264827 cumulative IPC: 0.380327 (Simulation time: 0 hr 19 min 11 sec) 
Heartbeat CPU 0 instructions: 240000002 cycles: 525645008 heartbeat IPC: 0.308923 cumulative IPC: 0.375755 (Simulation time: 0 hr 20 min 5 sec) 
Heartbeat CPU 0 instructions: 250000003 cycles: 556352928 heartbeat IPC: 0.325649 cumulative IPC: 0.372887 (Simulation time: 0 hr 21 min 3 sec) 
Finished CPU 0 instructions: 200000003 cycles: 536355928 cumulative IPC: 0.372887 (Simulation time: 0 hr 21 min 3 sec) 
 Instruction ID: 250000376

ChampSim completed all CPUs

Region of Interest Statistics

CPU 0 cumulative IPC: 0.372887 instructions: 200000003 cycles: 536355928
ITLB SPEC fills:          0  NON-SPEC fills:          0
ITLB Test counter :          0
ITLB Leapfrog:          0
ITLB MSHR merge:          0
ITLB TOTAL     ACCESS:   31958980  HIT:   31958973  MISS:          7  HIT %:        100  MISS %: 2.19031e-05   MPKI: 3.5e-05
ITLB LOAD TRANSLATION NON_SPEC    ACCESS:   31958980  HIT:   31958973  MISS:          7  HIT %:        100  MISS %: 2.19031e-05   MPKI: 3.5e-05
ITLB PREFETCH  REQUESTED:          0  ISSUED:          0  USEFUL:          0  USELESS:          0
ITLB USEFUL LOAD PREFETCHES:          0 PREFETCH ISSUED TO LOWER LEVEL:          0  ACCURACY: -nan
ITLB TIMELY PREFETCHES:          0 LATE PREFETCHES: 0 DROPPED PREFETCHES: 0
ITLB COMMIT LATE PREFETCHES: 0 MISSED OPPORTUNITY: 0 LATE IN PQ: 0 UNCOVERED: 0
ITLB COMMIT LATE MSHR PREFETCHES: 0
ITLB MPKI TOTAL: 0 MSHR LATE: 0 PQ LATE: 0 COMMIT LATE: 0 MISSED OPPORTUNITY: 0 UNCOVERED: 0
ITLB PREFETCHES SAME FILL-ORIGIN LEVEL: 0 DIFFERENT FILL-ORIGIN LEVEL: 0
ITLB AVERAGE MISS LATENCY: 696.857 cycles
ITLB AVERAGE MISS LATENCY LOAD: -nan cycles
ITLB AVERAGE MISS LATENCY PREFETCH: -nan cycles
ITLB AVERAGE MSHR OCCUPANCY: 3.12901e-08
ITLB MSHR FULL: 0
ITLB RQ	ACCESS:   37687993	FORWARD:          0	MERGED:    5729012	TO_CACHE:   31958981

DTLB SPEC fills:          0  NON-SPEC fills:          0
DTLB Test counter :          0
DTLB Leapfrog:          0
DTLB MSHR merge:          0
DTLB TOTAL     ACCESS:   52607057  HIT:   52436358  MISS:     170699  HIT %:    99.6755  MISS %:   0.324479   MPKI: 0.853495
DTLB LOAD TRANSLATION NON_SPEC    ACCESS:   52607057  HIT:   52436358  MISS:     170699  HIT %:    99.6755  MISS %:   0.324479   MPKI: 0.853495
DTLB PREFETCH  REQUESTED:          0  ISSUED:          0  USEFUL:          0  USELESS:          0
DTLB USEFUL LOAD PREFETCHES:          0 PREFETCH ISSUED TO LOWER LEVEL:          0  ACCURACY: -nan
DTLB TIMELY PREFETCHES:          0 LATE PREFETCHES: 0 DROPPED PREFETCHES: 0
DTLB COMMIT LATE PREFETCHES: 0 MISSED OPPORTUNITY: 0 LATE IN PQ: 0 UNCOVERED: 0
DTLB COMMIT LATE MSHR PREFETCHES: 0
DTLB MPKI TOTAL: 0 MSHR LATE: 0 PQ LATE: 0 COMMIT LATE: 0 MISSED OPPORTUNITY: 0 UNCOVERED: 0
DTLB PREFETCHES SAME FILL-ORIGIN LEVEL: 0 DIFFERENT FILL-ORIGIN LEVEL: 0
DTLB AVERAGE MISS LATENCY: 152.115 cycles
DTLB AVERAGE MISS LATENCY LOAD: -nan cycles
DTLB AVERAGE MISS LATENCY PREFETCH: -nan cycles
DTLB AVERAGE MSHR OCCUPANCY: 0.114254
DTLB MSHR FULL: 0.0101785
DTLB RQ	ACCESS:   62732401	FORWARD:          0	MERGED:   10040521	TO_CACHE:   52691880

STLB SPEC fills:          0  NON-SPEC fills:          0
STLB Test counter :          0
STLB Leapfrog:          0
STLB MSHR merge:          0
STLB TOTAL     ACCESS:     170706  HIT:      55384  MISS:     115322  HIT %:    32.4441  MISS %:    67.5559   MPKI: 0.57661
STLB LOAD TRANSLATION NON_SPEC    ACCESS:     170706  HIT:      55384  MISS:     115322  HIT %:    32.4441  MISS %:    67.5559   MPKI: 0.57661
STLB PREFETCH  REQUESTED:          0  ISSUED:          0  USEFUL:          0  USELESS:          0
STLB USEFUL LOAD PREFETCHES:          0 PREFETCH ISSUED TO LOWER LEVEL:          0  ACCURACY: -nan
STLB TIMELY PREFETCHES:          0 LATE PREFETCHES: 0 DROPPED PREFETCHES: 0
STLB COMMIT LATE PREFETCHES: 0 MISSED OPPORTUNITY: 0 LATE IN PQ: 0 UNCOVERED: 0
STLB COMMIT LATE MSHR PREFETCHES: 0
STLB MPKI TOTAL: 0 MSHR LATE: 0 PQ LATE: 0 COMMIT LATE: 0 MISSED OPPORTUNITY: 0 UNCOVERED: 0
STLB PREFETCHES SAME FILL-ORIGIN LEVEL: 0 DIFFERENT FILL-ORIGIN LEVEL: 0
STLB AVERAGE MISS LATENCY: 211.687 cycles
STLB AVERAGE MISS LATENCY LOAD: -nan cycles
STLB AVERAGE MISS LATENCY PREFETCH: -nan cycles
STLB AVERAGE MSHR OCCUPANCY: 0.355846
STLB MSHR FULL: 0
STLB RQ	ACCESS:     170706	FORWARD:          0	MERGED:          0	TO_CACHE:     170706

STLB Hit, L1D data hit: 0
STLB Hit, L2C data hit: 0
STLB Hit, LLC data hit: 0
STLB Hit, LLC data miss: 0
STLB STLB hints to L2: 0
L0D SPEC fills:   25129623  NON-SPEC fills:          0
L0D TimeGuard Request with older TS:    2665464 Restricted eviction:    1549073 read:    1032593
L0D Test counter :          0
L0D Leapfrog:          0
L0D MSHR merge:    7947832
L0D TOTAL     ACCESS:   42465616  HIT:   11749352  MISS:   30716264  HIT %:    27.6679  MISS %:    72.3321   MPKI: 153.581
L0D LOAD      TOTAL       ACCESS:   42465616  HIT:   11749352  MISS:   30716264  HIT %:    27.6679  MISS %:    72.3321   MPKI: 153.581
L0D LOAD      NON_SPEC    ACCESS:    4351663  HIT:     313962  MISS:    4037701  HIT %:    7.21476  MISS %:    92.7852   MPKI: 20.1885
L0D LOAD      SPEC        ACCESS:   38113953  HIT:   11435390  MISS:   26678563  HIT %:    30.0032  MISS %:    69.9968   MPKI: 133.393
L0D PREFETCH  REQUESTED:          0  ISSUED:          0  USEFUL:          0  USELESS:          0
L0D USEFUL LOAD PREFETCHES:          0 PREFETCH ISSUED TO LOWER LEVEL:          0  ACCURACY: -nan
L0D TIMELY PREFETCHES:          0 LATE PREFETCHES: 0 DROPPED PREFETCHES: 0
L0D COMMIT LATE PREFETCHES: 0 MISSED OPPORTUNITY: 0 LATE IN PQ: 0 UNCOVERED: 0
L0D COMMIT LATE MSHR PREFETCHES: 0
L0D MPKI TOTAL: 193.32 MSHR LATE: 0 PQ LATE: 0 COMMIT LATE: 0 MISSED OPPORTUNITY: 0 UNCOVERED: 0
L0D PREFETCHES SAME FILL-ORIGIN LEVEL: 0 DIFFERENT FILL-ORIGIN LEVEL: 0
L0D AVERAGE MISS LATENCY: 40.4619 cycles
L0D AVERAGE MISS LATENCY LOAD: 40.4619 cycles
L0D AVERAGE MISS LATENCY PREFETCH: -nan cycles
L0D AVERAGE MSHR OCCUPANCY: 3.16438
L0D MSHR FULL: 0.090699
L0D RQ	ACCESS:   76274160	FORWARD:          0	MERGED:   25860713	TO_CACHE:   50413447
L0D WQ	ACCESS:   12318954	FORWARD:          0	MERGED:          0	TO_CACHE:   12318954

L1D SPEC fills:          0  NON-SPEC fills:     317019
L1D Test counter :    3737072
L1D Leapfrog:          0
L1D MSHR merge:     184058
L1D TOTAL     ACCESS:   50360629  HIT:   40398010  MISS:    9962619  HIT %:    80.2174  MISS %:    19.7826   MPKI: 49.8131
L1D LOAD      TOTAL       ACCESS:   30532206  HIT:   25890459  MISS:    4641747  HIT %:    84.7972  MISS %:    15.2028   MPKI: 23.2087
L1D LOAD      NON_SPEC    ACCESS:    4026174  HIT:    3709155  MISS:     317019  HIT %:     92.126  MISS %:    7.87395   MPKI: 1.58509
L1D LOAD      SPEC        ACCESS:   26506032  HIT:   22181304  MISS:    4324728  HIT %:     83.684  MISS %:     16.316   MPKI: 21.6236
L1D RFO       NON_SPEC    ACCESS:    8625244  HIT:    7492489  MISS:    1132755  HIT %:     86.867  MISS %:     13.133   MPKI: 5.66377
L1D COMMIT LOAD NON_SPEC    ACCESS:    6001376  HIT:    5713149  MISS:     288227  HIT %:    95.1973  MISS %:    4.80268   MPKI: 1.44113
L1D COMMIT WRITE NON_SPEC    ACCESS:    5201803  HIT:    1301913  MISS:    3899890  HIT %:    25.0281  MISS %:    74.9719   MPKI: 19.4994
L1D PREFETCH  REQUESTED:          0  ISSUED:          0  USEFUL:          0  USELESS:          0
L1D USEFUL LOAD PREFETCHES:          0 PREFETCH ISSUED TO LOWER LEVEL:          0  ACCURACY: -nan
L1D TIMELY PREFETCHES:          0 LATE PREFETCHES: 0 DROPPED PREFETCHES: 0
L1D COMMIT LATE PREFETCHES: 0 MISSED OPPORTUNITY: 0 LATE IN PQ: 0 UNCOVERED: 0
L1D COMMIT LATE MSHR PREFETCHES: 0
L1D MPKI TOTAL: 24.129 MSHR LATE: 0 PQ LATE: 0 COMMIT LATE: 0 MISSED OPPORTUNITY: 0 UNCOVERED: 0
L1D PREFETCHES SAME FILL-ORIGIN LEVEL: 0 DIFFERENT FILL-ORIGIN LEVEL: 0
L1D AVERAGE MISS LATENCY: 139.29 cycles
L1D AVERAGE MISS LATENCY LOAD: 224.159 cycles
L1D AVERAGE MISS LATENCY PREFETCH: -nan cycles
L1D AVERAGE MSHR OCCUPANCY: 1.8369
L1D MSHR FULL: 0.00094075
L1D RQ	ACCESS:   40979318	FORWARD:          0	MERGED:    3974137	TO_CACHE:   36867261
L1D WQ	ACCESS:   17521841	FORWARD:     137920	MERGED:     114135	TO_CACHE:   17407706

L1D UNIQUE REGIONS ACCESSED: 0
L1D REGIONS CONFLICTS: 0
L1D Cross Page Prefetch Requests: 0
L1D Same Page Prefetch Requests: 0
L1D ROI Sum of L1D PQ occupancy: 0
L1D PREFETCHES PUSHED FROM L2C: 0
L1I SPEC fills:          0  NON-SPEC fills:          0
L1I Test counter :          0
L1I Leapfrog:          0
L1I MSHR merge:        348
L1I TOTAL     ACCESS:   37687645  HIT:   37686875  MISS:        770  HIT %:     99.998  MISS %: 0.00204311   MPKI: 0.00385
L1I LOAD      TOTAL       ACCESS:   37687645  HIT:   37686875  MISS:        770  HIT %:     99.998  MISS %: 0.00204311   MPKI: 0.00385
L1I LOAD      NON_SPEC    ACCESS:   37687645  HIT:   37686875  MISS:        770  HIT %:     99.998  MISS %: 0.00204311   MPKI: 0.00385
L1I PREFETCH  REQUESTED:          0  ISSUED:          0  USEFUL:          0  USELESS:          0
L1I USEFUL LOAD PREFETCHES:          0 PREFETCH ISSUED TO LOWER LEVEL:          0  ACCURACY: -nan
L1I TIMELY PREFETCHES:          0 LATE PREFETCHES: 0 DROPPED PREFETCHES: 0
L1I COMMIT LATE PREFETCHES: 0 MISSED OPPORTUNITY: 0 LATE IN PQ: 0 UNCOVERED: 0
L1I COMMIT LATE MSHR PREFETCHES: 0
L1I MPKI TOTAL: 0.00559 MSHR LATE: 0 PQ LATE: 0 COMMIT LATE: 0 MISSED OPPORTUNITY: 0 UNCOVERED: 0
L1I PREFETCHES SAME FILL-ORIGIN LEVEL: 0 DIFFERENT FILL-ORIGIN LEVEL: 0
L1I AVERAGE MISS LATENCY: 268.748 cycles
L1I AVERAGE MISS LATENCY LOAD: 268.748 cycles
L1I AVERAGE MISS LATENCY PREFETCH: -nan cycles
L1I AVERAGE MSHR OCCUPANCY: 2.38007e-05
L1I MSHR FULL: 0
L1I RQ	ACCESS:   54589080	FORWARD:          0	MERGED:   16901087	TO_CACHE:   37687993

BTB SPEC fills:          0  NON-SPEC fills:          0
BTB Test counter :          0
BTB Leapfrog:          0
BTB MSHR merge:          0
BTB TOTAL     ACCESS:    7433879  HIT:    7433570  MISS:        309  HIT %:    99.9958  MISS %: 0.00415665   MPKI: 0.001545
BTB BRANCH_DIRECT_JUMP	ACCESS:       1193  HIT:       1166  MISS:         27
BTB BRANCH_INDIRECT	ACCESS:          0  HIT:          0  MISS:          0
BTB BRANCH_CONDITIONAL	ACCESS:    7432412  HIT:    7432255  MISS:        157
BTB BRANCH_DIRECT_CALL	ACCESS:        137  HIT:         76  MISS:         61
BTB BRANCH_INDIRECT_CALL	ACCESS:          0  HIT:          0  MISS:          0
BTB BRANCH_RETURN	ACCESS:        137  HIT:         73  MISS:         64
BTB BRANCH_OTHER ACCESS:          0  HIT:          0  MISS:          0

L2C SPEC fills:          0  NON-SPEC fills:     263641
L2C Test counter :    3719489
L2C Leapfrog:          0
L2C MSHR merge:          0
L2C TOTAL     ACCESS:   11545448  HIT:    2575916  MISS:    8969532  HIT %:    22.3111  MISS %:    77.6889   MPKI: 44.8477
L2C LOAD      TOTAL       ACCESS:    4641001  HIT:     551958  MISS:    4089043  HIT %:    11.8931  MISS %:    88.1069   MPKI: 20.4452
L2C LOAD      NON_SPEC    ACCESS:     317690  HIT:      53279  MISS:     264411  HIT %:    16.7708  MISS %:    83.2292   MPKI: 1.32205
L2C LOAD      SPEC        ACCESS:    4323311  HIT:     498679  MISS:    3824632  HIT %:    11.5347  MISS %:    88.4653   MPKI: 19.1232
L2C RFO       NON_SPEC    ACCESS:    1132753  HIT:         31  MISS:    1132722  HIT %:  0.0027367  MISS %:    99.9973   MPKI: 5.66361
L2C WRITEBACK NON_SPEC    ACCESS:    1169857  HIT:    1169834  MISS:         23  HIT %:     99.998  MISS %: 0.00196605   MPKI: 0.000115
L2C CLEAN_EVICTION NON_SPEC    ACCESS:    3737072  HIT:     204440  MISS:    3532632  HIT %:    5.47059  MISS %:    94.5294   MPKI: 17.6632
L2C COMMIT LOAD NON_SPEC    ACCESS:     288227  HIT:      97344  MISS:     190883  HIT %:    33.7734  MISS %:    66.2266   MPKI: 0.954415
L2C LOAD TRANSLATION NON_SPEC    ACCESS:     576538  HIT:     552309  MISS:      24229  HIT %:    95.7975  MISS %:     4.2025   MPKI: 0.121145
L2C PREFETCH  REQUESTED:          0  ISSUED:          0  USEFUL:          0  USELESS:          0
L2C USEFUL LOAD PREFETCHES:          0 PREFETCH ISSUED TO LOWER LEVEL:          0  ACCURACY: -nan
L2C TIMELY PREFETCHES:          0 LATE PREFETCHES: 0 DROPPED PREFETCHES: 0
L2C COMMIT LATE PREFETCHES: 0 MISSED OPPORTUNITY: 0 LATE IN PQ: 0 UNCOVERED: 0
L2C COMMIT LATE MSHR PREFETCHES: 0
L2C MPKI TOTAL: 20.4452 MSHR LATE: 0 PQ LATE: 0 COMMIT LATE: 0 MISSED OPPORTUNITY: 0 UNCOVERED: 0
L2C PREFETCHES SAME FILL-ORIGIN LEVEL: 0 DIFFERENT FILL-ORIGIN LEVEL: 0
L2C AVERAGE MISS LATENCY: 147.17 cycles
L2C AVERAGE MISS LATENCY LOAD: 241.65 cycles
L2C AVERAGE MISS LATENCY PREFETCH: -nan cycles
L2C AVERAGE MSHR OCCUPANCY: 1.78129
L2C MSHR FULL: 0
L2C RQ	ACCESS:    6640039	FORWARD:          0	MERGED:          0	TO_CACHE:    6638521
L2C WQ	ACCESS:    4906947	FORWARD:       1518	MERGED:         18	TO_CACHE:    4906929

L2C Instructions Evicting Data 770
L2C Translations Evicting Data 24107
L2C Data Evicting Data 1579264
L2C Instructions Evicting Instructions 0
L2C Translations Evicting Instructions 4
L2C Data Evicting Instructions 225
L2C Instructions Evicting Translations 0
L2C Translations Evicting Translations 118
L2C Data Evicting Translations 7757
L2C Dense regions hint from L2: 0
PSCL5 SPEC fills:          0  NON-SPEC fills:          0
PSCL5 Test counter :          0
PSCL5 Leapfrog:          0
PSCL5 MSHR merge:          0
PSCL5 TOTAL     ACCESS:          0  HIT:          0  MISS:          0  HIT %:       -nan  MISS %:       -nan   MPKI: 0
PSCL5 PREFETCH  REQUESTED:          0  ISSUED:          0  USEFUL:          0  USELESS:          0
PSCL5 USEFUL LOAD PREFETCHES:          0 PREFETCH ISSUED TO LOWER LEVEL:          0  ACCURACY: -nan
PSCL5 TIMELY PREFETCHES:          0 LATE PREFETCHES: 0 DROPPED PREFETCHES: 0
PSCL5 COMMIT LATE PREFETCHES: 0 MISSED OPPORTUNITY: 0 LATE IN PQ: 0 UNCOVERED: 0
PSCL5 COMMIT LATE MSHR PREFETCHES: 0
PSCL5 MPKI TOTAL: 0 MSHR LATE: 0 PQ LATE: 0 COMMIT LATE: 0 MISSED OPPORTUNITY: 0 UNCOVERED: 0
PSCL5 PREFETCHES SAME FILL-ORIGIN LEVEL: 0 DIFFERENT FILL-ORIGIN LEVEL: 0

PSCL4 SPEC fills:          0  NON-SPEC fills:          0
PSCL4 Test counter :          0
PSCL4 Leapfrog:          0
PSCL4 MSHR merge:          0
PSCL4 TOTAL     ACCESS:          0  HIT:          0  MISS:          0  HIT %:       -nan  MISS %:       -nan   MPKI: 0
PSCL4 PREFETCH  REQUESTED:          0  ISSUED:          0  USEFUL:          0  USELESS:          0
PSCL4 USEFUL LOAD PREFETCHES:          0 PREFETCH ISSUED TO LOWER LEVEL:          0  ACCURACY: -nan
PSCL4 TIMELY PREFETCHES:          0 LATE PREFETCHES: 0 DROPPED PREFETCHES: 0
PSCL4 COMMIT LATE PREFETCHES: 0 MISSED OPPORTUNITY: 0 LATE IN PQ: 0 UNCOVERED: 0
PSCL4 COMMIT LATE MSHR PREFETCHES: 0
PSCL4 MPKI TOTAL: 0 MSHR LATE: 0 PQ LATE: 0 COMMIT LATE: 0 MISSED OPPORTUNITY: 0 UNCOVERED: 0
PSCL4 PREFETCHES SAME FILL-ORIGIN LEVEL: 0 DIFFERENT FILL-ORIGIN LEVEL: 0

PSCL3 SPEC fills:          0  NON-SPEC fills:          0
PSCL3 Test counter :          0
PSCL3 Leapfrog:          0
PSCL3 MSHR merge:          0
PSCL3 TOTAL     ACCESS:          0  HIT:          0  MISS:          0  HIT %:       -nan  MISS %:       -nan   MPKI: 0
PSCL3 PREFETCH  REQUESTED:          0  ISSUED:          0  USEFUL:          0  USELESS:          0
PSCL3 USEFUL LOAD PREFETCHES:          0 PREFETCH ISSUED TO LOWER LEVEL:          0  ACCURACY: -nan
PSCL3 TIMELY PREFETCHES:          0 LATE PREFETCHES: 0 DROPPED PREFETCHES: 0
PSCL3 COMMIT LATE PREFETCHES: 0 MISSED OPPORTUNITY: 0 LATE IN PQ: 0 UNCOVERED: 0
PSCL3 COMMIT LATE MSHR PREFETCHES: 0
PSCL3 MPKI TOTAL: 0 MSHR LATE: 0 PQ LATE: 0 COMMIT LATE: 0 MISSED OPPORTUNITY: 0 UNCOVERED: 0
PSCL3 PREFETCHES SAME FILL-ORIGIN LEVEL: 0 DIFFERENT FILL-ORIGIN LEVEL: 0

PSCL2 SPEC fills:          0  NON-SPEC fills:          0
PSCL2 Test counter :          0
PSCL2 Leapfrog:          0
PSCL2 MSHR merge:          0
PSCL2 TOTAL     ACCESS:          0  HIT:          0  MISS:          0  HIT %:       -nan  MISS %:       -nan   MPKI: 0
PSCL2 PREFETCH  REQUESTED:          0  ISSUED:          0  USEFUL:          0  USELESS:          0
PSCL2 USEFUL LOAD PREFETCHES:          0 PREFETCH ISSUED TO LOWER LEVEL:          0  ACCURACY: -nan
PSCL2 TIMELY PREFETCHES:          0 LATE PREFETCHES: 0 DROPPED PREFETCHES: 0
PSCL2 COMMIT LATE PREFETCHES: 0 MISSED OPPORTUNITY: 0 LATE IN PQ: 0 UNCOVERED: 0
PSCL2 COMMIT LATE MSHR PREFETCHES: 0
PSCL2 MPKI TOTAL: 0 MSHR LATE: 0 PQ LATE: 0 COMMIT LATE: 0 MISSED OPPORTUNITY: 0 UNCOVERED: 0
PSCL2 PREFETCHES SAME FILL-ORIGIN LEVEL: 0 DIFFERENT FILL-ORIGIN LEVEL: 0

LLC SPEC fills:          0  NON-SPEC fills:     263578
LLC Test counter :    3716495
LLC Leapfrog:          0
LLC MSHR merge:          0
LLC TOTAL     ACCESS:   10325741  HIT:    1360193  MISS:    8965548  HIT %:    13.1728  MISS %:    86.8272   MPKI: 44.8277
LLC LOAD      TOTAL       ACCESS:    4089043  HIT:       2289  MISS:    4086754  HIT %:  0.0559789  MISS %:     99.944   MPKI: 20.4338
LLC LOAD      NON_SPEC    ACCESS:     264411  HIT:         63  MISS:     264348  HIT %:  0.0238265  MISS %:    99.9762   MPKI: 1.32174
LLC LOAD      SPEC        ACCESS:    3824632  HIT:       2226  MISS:    3822406  HIT %:  0.0582017  MISS %:    99.9418   MPKI: 19.112
LLC RFO       NON_SPEC    ACCESS:    1132722  HIT:         15  MISS:    1132707  HIT %: 0.00132424  MISS %:    99.9987   MPKI: 5.66353
LLC WRITEBACK NON_SPEC    ACCESS:    1169375  HIT:    1169351  MISS:         24  HIT %:    99.9979  MISS %: 0.00205238   MPKI: 0.00012
LLC CLEAN_EVICTION NON_SPEC    ACCESS:    3719489  HIT:     188433  MISS:    3531056  HIT %:     5.0661  MISS %:    94.9339   MPKI: 17.6553
LLC COMMIT LOAD NON_SPEC    ACCESS:     190883  HIT:         97  MISS:     190786  HIT %:  0.0508165  MISS %:    99.9492   MPKI: 0.95393
LLC LOAD TRANSLATION NON_SPEC    ACCESS:      24229  HIT:          8  MISS:      24221  HIT %:  0.0330183  MISS %:     99.967   MPKI: 0.121105
LLC PREFETCH  REQUESTED:          0  ISSUED:          0  USEFUL:          0  USELESS:          0
LLC USEFUL LOAD PREFETCHES:          0 PREFETCH ISSUED TO LOWER LEVEL:          0  ACCURACY: -nan
LLC TIMELY PREFETCHES:          0 LATE PREFETCHES: 0 DROPPED PREFETCHES: 0
LLC COMMIT LATE PREFETCHES: 0 MISSED OPPORTUNITY: 0 LATE IN PQ: 0 UNCOVERED: 0
LLC COMMIT LATE MSHR PREFETCHES: 0
LLC MPKI TOTAL: 20.4338 MSHR LATE: 0 PQ LATE: 0 COMMIT LATE: 0 MISSED OPPORTUNITY: 0 UNCOVERED: 0
LLC PREFETCHES SAME FILL-ORIGIN LEVEL: 0 DIFFERENT FILL-ORIGIN LEVEL: 0
LLC AVERAGE MISS LATENCY: 132.831 cycles
LLC AVERAGE MISS LATENCY LOAD: 220.099 cycles
LLC AVERAGE MISS LATENCY PREFETCH: -nan cycles
LLC AVERAGE MSHR OCCUPANCY: 1.71857
LLC MSHR FULL: 0
LLC RQ	ACCESS:    5436879	FORWARD:          0	MERGED:          0	TO_CACHE:    5436879
LLC WQ	ACCESS:    4888864	FORWARD:          0	MERGED:          0	TO_CACHE:    4888864

LLC Dense regions hint to LLC: 0

RAW hits: 2128943
Loads Generated: 78403122
Loads sent to L1D: 76274160
Stores Generated: 12318964
Stores sent to L1D: 12318954
Major fault: 0 Minor fault: 55185
Allocated PAGES: 55185
Total Load insts: 113385614
Total Non-spec loads: 5079635
Percentage of speculative loads: 95.52

LeapFrogging counter: 557139
Commit hits: 22976915 miss: 48851551
Commit hit %: 31.9886 miss %: 68.0114
Commits not translated: 0
Loads retired: 4641747
Stores retired: 12318954
Cache fills: 4641747
L1D response latency: 224.159 cycles
Load retirement latency: 322.341 cycles
OOO test counter: 0
Discarded buffer inserts: 22976915 hits: 66553 hit %: 0.289652

DRAM Statistics
 CHANNEL 0
 RQ ROW_BUFFER_HIT:     560936  ROW_BUFFER_MISS:    4873532
 DBUS_CONGESTED:       2534
 WQ ROW_BUFFER_HIT:    2295807  ROW_BUFFER_MISS:    2594430  FULL:       4155

 AVG_CONGESTED_CYCLE: 5
 All warmup complete: 2
Channel 0 Bank busy for read cycles: 0
Channel 0 Bank busy for write cycles: 0
Channel 0
Rank 0
0banks busy for read cycles: 3663162
0banks busy for write cycles: 21602
1banks busy for read cycles: 150197419
1banks busy for write cycles: 4018884
2banks busy for read cycles: 121184426
2banks busy for write cycles: 4225836
3banks busy for read cycles: 70192397
3banks busy for write cycles: 3706972
4banks busy for read cycles: 25872621
4banks busy for write cycles: 2833663
5banks busy for read cycles: 3326091
5banks busy for write cycles: 1768393
6banks busy for read cycles: 4837722
6banks busy for write cycles: 1875840
7banks busy for read cycles: 1617390
7banks busy for write cycles: 10530250
8banks busy for read cycles: 399409
8banks busy for write cycles: 126083852

CPU 0 Branch Prediction Accuracy: 99.7722% MPKI: 0.08495 Average ROB Occupancy at Mispredict: 315.16
Branch types
NOT_BRANCH: 192541502 96.2707%
BRANCH_DIRECT_JUMP: 1193 0.0005965%
BRANCH_INDIRECT: 0 0%
BRANCH_CONDITIONAL: 7457358 3.72868%
BRANCH_DIRECT_CALL: 137 6.85e-05%
BRANCH_INDIRECT_CALL: 0 0%
BRANCH_RETURN: 137 6.85e-05%
BRANCH_OTHER: 0 0%

DRAM PAGES: 1048576
Allocated PAGES: 55185
