
*** ChampSim Multicore Out-of-Order Simulator ***

Warmup Instructions: 50000000
Simulation Instructions: 200000000
Number of CPUs: 1
LLC sets: 2048
LLC ways: 16
L0D sets: 16
L0D ways: 2
ROB size: 352
LQ size: 128
SQ size: 72
Secure Berti: OFF
Berti: OFF
Berti Fill: OFF
On commit prefetching: ON
Hit-based filter: ON
Time-guarding: ON
Free-slotting: ON
Leap-frogging: ON
Train prefetcher on L0D bypass: OFF
No translation penalty for prefetchers: OFF
Prefetch to L0D only: OFF
Prefetch to L1D only: OFF
Clean evictions: ON
Commit loads: ON
Commit write: ON
Fill commit loads to L2C, LLC: ON
DRAM IO FREQUENCY: 6400
ROB SIZE: 352
Off-chip DRAM Size: 4096 MB Channels: 1 Width: 64-bit Data Rate: 6400 MT/s
CPU 0 runs /home/sumon/secure_berti/GhostMinion/../../traces/spec/600.perlbench_s-570B.champsimtrace.xz
.xz
BTB has LRU replacement policy
ITLB has LRU replacement policy
DTLB has LRU replacement policy
STLB has LRU replacement policy
L1I has LRU replacement policy
L0D has LRU replacement policy
L1D has LRU replacement policy
Bingo PHT WAYS: 16 and PHT_SIZE: 16384
L2C has LRU replacement policy
LLC has LRU replacement policy
Heartbeat CPU 0 instructions: 10000003 cycles: 3770975 heartbeat IPC: 2.65183 cumulative IPC: 2.65183 (Simulation time: 0 hr 0 min 33 sec) 
Heartbeat CPU 0 instructions: 20000000 cycles: 7477596 heartbeat IPC: 2.69787 cumulative IPC: 2.67466 (Simulation time: 0 hr 1 min 7 sec) 
Heartbeat CPU 0 instructions: 30000000 cycles: 11409153 heartbeat IPC: 2.54352 cumulative IPC: 2.62947 (Simulation time: 0 hr 1 min 42 sec) 
Heartbeat CPU 0 instructions: 40000002 cycles: 15305796 heartbeat IPC: 2.56631 cumulative IPC: 2.61339 (Simulation time: 0 hr 2 min 15 sec) 
Heartbeat CPU 0 instructions: 50000002 cycles: 18984453 heartbeat IPC: 2.71838 cumulative IPC: 2.63373 (Simulation time: 0 hr 2 min 50 sec) 

Warmup complete CPU 0 instructions: 50000002 cycles: 18984453 (Simulation time: 0 hr 2 min 50 sec) 

Heartbeat CPU 0 instructions: 60000000 cycles: 31919592 heartbeat IPC: 0.773088 cumulative IPC: 0.773088 (Simulation time: 0 hr 3 min 29 sec) 
Heartbeat CPU 0 instructions: 70000000 cycles: 51962831 heartbeat IPC: 0.498921 cumulative IPC: 0.606458 (Simulation time: 0 hr 4 min 13 sec) 
Heartbeat CPU 0 instructions: 80000002 cycles: 73199850 heartbeat IPC: 0.470876 cumulative IPC: 0.553348 (Simulation time: 0 hr 4 min 59 sec) 
Heartbeat CPU 0 instructions: 90000003 cycles: 97955082 heartbeat IPC: 0.403955 cumulative IPC: 0.506517 (Simulation time: 0 hr 5 min 49 sec) 
Heartbeat CPU 0 instructions: 100000002 cycles: 111716645 heartbeat IPC: 0.726662 cumulative IPC: 0.539187 (Simulation time: 0 hr 6 min 33 sec) 
Heartbeat CPU 0 instructions: 110000000 cycles: 125343283 heartbeat IPC: 0.733857 cumulative IPC: 0.564128 (Simulation time: 0 hr 7 min 18 sec) 
Heartbeat CPU 0 instructions: 120000003 cycles: 139610188 heartbeat IPC: 0.700923 cumulative IPC: 0.580307 (Simulation time: 0 hr 8 min 5 sec) 
Heartbeat CPU 0 instructions: 130000000 cycles: 153665986 heartbeat IPC: 0.71145 cumulative IPC: 0.593994 (Simulation time: 0 hr 8 min 51 sec) 
Heartbeat CPU 0 instructions: 140000003 cycles: 178682216 heartbeat IPC: 0.399741 cumulative IPC: 0.563565 (Simulation time: 0 hr 9 min 43 sec) 
Heartbeat CPU 0 instructions: 150000001 cycles: 202254957 heartbeat IPC: 0.424219 cumulative IPC: 0.545642 (Simulation time: 0 hr 10 min 36 sec) 
Heartbeat CPU 0 instructions: 160000001 cycles: 221491103 heartbeat IPC: 0.519855 cumulative IPC: 0.543192 (Simulation time: 0 hr 11 min 27 sec) 
Heartbeat CPU 0 instructions: 170000001 cycles: 236270791 heartbeat IPC: 0.676604 cumulative IPC: 0.552267 (Simulation time: 0 hr 12 min 14 sec) 
Heartbeat CPU 0 instructions: 180000000 cycles: 254434811 heartbeat IPC: 0.550539 cumulative IPC: 0.552133 (Simulation time: 0 hr 13 min 3 sec) 
Heartbeat CPU 0 instructions: 190000001 cycles: 279579072 heartbeat IPC: 0.397705 cumulative IPC: 0.537233 (Simulation time: 0 hr 13 min 56 sec) 
Heartbeat CPU 0 instructions: 200000001 cycles: 303519537 heartbeat IPC: 0.417703 cumulative IPC: 0.527176 (Simulation time: 0 hr 14 min 48 sec) 
Heartbeat CPU 0 instructions: 210000000 cycles: 321933406 heartbeat IPC: 0.543069 cumulative IPC: 0.528142 (Simulation time: 0 hr 15 min 33 sec) 
Heartbeat CPU 0 instructions: 220000000 cycles: 336465308 heartbeat IPC: 0.688141 cumulative IPC: 0.535465 (Simulation time: 0 hr 16 min 14 sec) 
Heartbeat CPU 0 instructions: 230000000 cycles: 349898642 heartbeat IPC: 0.744417 cumulative IPC: 0.543948 (Simulation time: 0 hr 16 min 52 sec) 
Heartbeat CPU 0 instructions: 240000002 cycles: 364138332 heartbeat IPC: 0.702263 cumulative IPC: 0.550479 (Simulation time: 0 hr 17 min 30 sec) 
Heartbeat CPU 0 instructions: 250000003 cycles: 378894408 heartbeat IPC: 0.677687 cumulative IPC: 0.555695 (Simulation time: 0 hr 18 min 7 sec) 
Finished CPU 0 instructions: 200000001 cycles: 359909955 cumulative IPC: 0.555695 (Simulation time: 0 hr 18 min 7 sec) 
 Instruction ID: 250000017

ChampSim completed all CPUs

Region of Interest Statistics

CPU 0 cumulative IPC: 0.555695 instructions: 200000001 cycles: 359909955
ITLB SPEC fills:          0  NON-SPEC fills:          0
ITLB Test counter :          0
ITLB Leapfrog:          0
ITLB MSHR merge:          0
ITLB TOTAL     ACCESS:   31177039  HIT:   31118168  MISS:      58871  HIT %:    99.8112  MISS %:   0.188828   MPKI: 0.294355
ITLB LOAD TRANSLATION NON_SPEC    ACCESS:   31177039  HIT:   31118168  MISS:      58871  HIT %:    99.8112  MISS %:   0.188828   MPKI: 0.294355
ITLB PREFETCH  REQUESTED:          0  ISSUED:          0  USEFUL:          0  USELESS:          0
ITLB USEFUL LOAD PREFETCHES:          0 PREFETCH ISSUED TO LOWER LEVEL:          0  ACCURACY: -nan
ITLB TIMELY PREFETCHES:          0 LATE PREFETCHES: 0 DROPPED PREFETCHES: 0
ITLB COMMIT LATE PREFETCHES: 0 MISSED OPPORTUNITY: 0 LATE IN PQ: 0 UNCOVERED: 0
ITLB COMMIT LATE MSHR PREFETCHES: 0
ITLB MPKI TOTAL: 0 MSHR LATE: 0 PQ LATE: 0 COMMIT LATE: 0 MISSED OPPORTUNITY: 0 UNCOVERED: 0
ITLB PREFETCHES SAME FILL-ORIGIN LEVEL: 0 DIFFERENT FILL-ORIGIN LEVEL: 0
ITLB AVERAGE MISS LATENCY: 11.0413 cycles
ITLB AVERAGE MISS LATENCY LOAD: -nan cycles
ITLB AVERAGE MISS LATENCY PREFETCH: -nan cycles
ITLB AVERAGE MSHR OCCUPANCY: 0.00103899
ITLB MSHR FULL: 0
ITLB RQ	ACCESS:   35143744	FORWARD:          0	MERGED:    3945154	TO_CACHE:   31198590

DTLB SPEC fills:          0  NON-SPEC fills:          0
DTLB Test counter :          0
DTLB Leapfrog:          0
DTLB MSHR merge:          0
DTLB TOTAL     ACCESS:   57179833  HIT:   56642057  MISS:     537776  HIT %:    99.0595  MISS %:   0.940499   MPKI: 2.68888
DTLB LOAD TRANSLATION NON_SPEC    ACCESS:   57179833  HIT:   56642057  MISS:     537776  HIT %:    99.0595  MISS %:   0.940499   MPKI: 2.68888
DTLB PREFETCH  REQUESTED:          0  ISSUED:          0  USEFUL:          0  USELESS:          0
DTLB USEFUL LOAD PREFETCHES:          0 PREFETCH ISSUED TO LOWER LEVEL:          0  ACCURACY: -nan
DTLB TIMELY PREFETCHES:          0 LATE PREFETCHES: 0 DROPPED PREFETCHES: 0
DTLB COMMIT LATE PREFETCHES: 0 MISSED OPPORTUNITY: 0 LATE IN PQ: 0 UNCOVERED: 0
DTLB COMMIT LATE MSHR PREFETCHES: 0
DTLB MPKI TOTAL: 0 MSHR LATE: 0 PQ LATE: 0 COMMIT LATE: 0 MISSED OPPORTUNITY: 0 UNCOVERED: 0
DTLB PREFETCHES SAME FILL-ORIGIN LEVEL: 0 DIFFERENT FILL-ORIGIN LEVEL: 0
DTLB AVERAGE MISS LATENCY: 15.6448 cycles
DTLB AVERAGE MISS LATENCY LOAD: -nan cycles
DTLB AVERAGE MISS LATENCY PREFETCH: -nan cycles
DTLB AVERAGE MSHR OCCUPANCY: 0.0136728
DTLB MSHR FULL: 1.48608e-06
DTLB RQ	ACCESS:   79035892	FORWARD:          0	MERGED:   21838530	TO_CACHE:   57197362

STLB SPEC fills:          0  NON-SPEC fills:          0
STLB Test counter :          0
STLB Leapfrog:          0
STLB MSHR merge:          0
STLB TOTAL     ACCESS:     596647  HIT:     572938  MISS:      23709  HIT %:    96.0263  MISS %:    3.97371   MPKI: 0.118545
STLB LOAD TRANSLATION NON_SPEC    ACCESS:     596647  HIT:     572938  MISS:      23709  HIT %:    96.0263  MISS %:    3.97371   MPKI: 0.118545
STLB PREFETCH  REQUESTED:          0  ISSUED:          0  USEFUL:          0  USELESS:          0
STLB USEFUL LOAD PREFETCHES:          0 PREFETCH ISSUED TO LOWER LEVEL:          0  ACCURACY: -nan
STLB TIMELY PREFETCHES:          0 LATE PREFETCHES: 0 DROPPED PREFETCHES: 0
STLB COMMIT LATE PREFETCHES: 0 MISSED OPPORTUNITY: 0 LATE IN PQ: 0 UNCOVERED: 0
STLB COMMIT LATE MSHR PREFETCHES: 0
STLB MPKI TOTAL: 0 MSHR LATE: 0 PQ LATE: 0 COMMIT LATE: 0 MISSED OPPORTUNITY: 0 UNCOVERED: 0
STLB PREFETCHES SAME FILL-ORIGIN LEVEL: 0 DIFFERENT FILL-ORIGIN LEVEL: 0
STLB AVERAGE MISS LATENCY: 155.146 cycles
STLB AVERAGE MISS LATENCY LOAD: -nan cycles
STLB AVERAGE MISS LATENCY PREFETCH: -nan cycles
STLB AVERAGE MSHR OCCUPANCY: 0.00656167
STLB MSHR FULL: 0
STLB RQ	ACCESS:     596647	FORWARD:          0	MERGED:          0	TO_CACHE:     596647

STLB Hit, L1D data hit: 0
STLB Hit, L2C data hit: 0
STLB Hit, LLC data hit: 0
STLB Hit, LLC data miss: 0
STLB STLB hints to L2: 0
L0D SPEC fills:   22348120  NON-SPEC fills:          0
L0D TimeGuard Request with older TS:      58002 Restricted eviction:      52933 read:      37384
L0D Test counter :          0
L0D Leapfrog:          0
L0D MSHR merge:     626846
L0D TOTAL     ACCESS:   38668413  HIT:    3363067  MISS:   35305346  HIT %:    8.69719  MISS %:    91.3028   MPKI: 176.527
L0D LOAD      TOTAL       ACCESS:   38668413  HIT:    3363067  MISS:   35305346  HIT %:    8.69719  MISS %:    91.3028   MPKI: 176.527
L0D LOAD      NON_SPEC    ACCESS:   13052592  HIT:     148294  MISS:   12904298  HIT %:    1.13613  MISS %:    98.8639   MPKI: 64.5215
L0D LOAD      SPEC        ACCESS:   25615821  HIT:    3214773  MISS:   22401048  HIT %:      12.55  MISS %:      87.45   MPKI: 112.005
L0D PREFETCH  REQUESTED:          0  ISSUED:          0  USEFUL:          0  USELESS:          0
L0D USEFUL LOAD PREFETCHES:          0 PREFETCH ISSUED TO LOWER LEVEL:          0  ACCURACY: -nan
L0D TIMELY PREFETCHES:          0 LATE PREFETCHES: 0 DROPPED PREFETCHES: 0
L0D COMMIT LATE PREFETCHES: 0 MISSED OPPORTUNITY: 0 LATE IN PQ: 0 UNCOVERED: 0
L0D COMMIT LATE MSHR PREFETCHES: 0
L0D MPKI TOTAL: 179.661 MSHR LATE: 0 PQ LATE: 0 COMMIT LATE: 0 MISSED OPPORTUNITY: 0 UNCOVERED: 0
L0D PREFETCHES SAME FILL-ORIGIN LEVEL: 0 DIFFERENT FILL-ORIGIN LEVEL: 0
L0D AVERAGE MISS LATENCY: 5.88327 cycles
L0D AVERAGE MISS LATENCY LOAD: 5.88327 cycles
L0D AVERAGE MISS LATENCY PREFETCH: -nan cycles
L0D AVERAGE MSHR OCCUPANCY: 0.582452
L0D MSHR FULL: 5.90399e-06
L0D RQ	ACCESS:   46804560	FORWARD:          0	MERGED:    7509306	TO_CACHE:   39295254
L0D WQ	ACCESS:   39740638	FORWARD:          0	MERGED:          0	TO_CACHE:   39740638

L1D SPEC fills:          0  NON-SPEC fills:     228793
L1D Test counter :          0
L1D Leapfrog:          0
L1D MSHR merge:       2514
L1D TOTAL     ACCESS:   75102808  HIT:   74178909  MISS:     923899  HIT %:    98.7698  MISS %:    1.23018   MPKI: 4.61949
L1D LOAD      TOTAL       ACCESS:   35302832  HIT:   34748868  MISS:     553964  HIT %:    98.4308  MISS %:    1.56918   MPKI: 2.76982
L1D LOAD      NON_SPEC    ACCESS:   12902541  HIT:   12673748  MISS:     228793  HIT %:    98.2268  MISS %:    1.77324   MPKI: 1.14396
L1D LOAD      SPEC        ACCESS:   22400291  HIT:   22075120  MISS:     325171  HIT %:    98.5484  MISS %:    1.45164   MPKI: 1.62585
L1D RFO       NON_SPEC    ACCESS:   39253056  HIT:   39205094  MISS:      47962  HIT %:    99.8778  MISS %:   0.122187   MPKI: 0.23981
L1D COMMIT LOAD NON_SPEC    ACCESS:     212379  HIT:     210719  MISS:       1660  HIT %:    99.2184  MISS %:   0.781622   MPKI: 0.0083
L1D COMMIT WRITE NON_SPEC    ACCESS:     334541  HIT:      14228  MISS:     320313  HIT %:    4.25299  MISS %:     95.747   MPKI: 1.60156
L1D PREFETCH  REQUESTED:          0  ISSUED:          0  USEFUL:          0  USELESS:          0
L1D USEFUL LOAD PREFETCHES:          0 PREFETCH ISSUED TO LOWER LEVEL:          0  ACCURACY: -nan
L1D TIMELY PREFETCHES:          0 LATE PREFETCHES: 0 DROPPED PREFETCHES: 0
L1D COMMIT LATE PREFETCHES: 0 MISSED OPPORTUNITY: 0 LATE IN PQ: 0 UNCOVERED: 0
L1D COMMIT LATE MSHR PREFETCHES: 0
L1D MPKI TOTAL: 2.78239 MSHR LATE: 0 PQ LATE: 0 COMMIT LATE: 0 MISSED OPPORTUNITY: 0 UNCOVERED: 0
L1D PREFETCHES SAME FILL-ORIGIN LEVEL: 0 DIFFERENT FILL-ORIGIN LEVEL: 0
L1D AVERAGE MISS LATENCY: 30.3055 cycles
L1D AVERAGE MISS LATENCY LOAD: 46.4138 cycles
L1D AVERAGE MISS LATENCY PREFETCH: -nan cycles
L1D AVERAGE MSHR OCCUPANCY: 0.0172491
L1D MSHR FULL: 1.50909e-05
L1D RQ	ACCESS:   35586618	FORWARD:          0	MERGED:      59062	TO_CACHE:   35517819
L1D WQ	ACCESS:   40075227	FORWARD:       9737	MERGED:     395922	TO_CACHE:   39679305

L1D UNIQUE REGIONS ACCESSED: 0
L1D REGIONS CONFLICTS: 0
L1D Cross Page Prefetch Requests: 0
L1D Same Page Prefetch Requests: 0
L1D ROI Sum of L1D PQ occupancy: 0
L1D PREFETCHES PUSHED FROM L2C: 0
L1I SPEC fills:          0  NON-SPEC fills:          0
L1I Test counter :          0
L1I Leapfrog:          0
L1I MSHR merge:     220911
L1I TOTAL     ACCESS:   34922833  HIT:   34048482  MISS:     874351  HIT %:    97.4963  MISS %:    2.50367   MPKI: 4.37175
L1I LOAD      TOTAL       ACCESS:   34922833  HIT:   34048482  MISS:     874351  HIT %:    97.4963  MISS %:    2.50367   MPKI: 4.37175
L1I LOAD      NON_SPEC    ACCESS:   34922833  HIT:   34048482  MISS:     874351  HIT %:    97.4963  MISS %:    2.50367   MPKI: 4.37175
L1I PREFETCH  REQUESTED:          0  ISSUED:          0  USEFUL:          0  USELESS:          0
L1I USEFUL LOAD PREFETCHES:          0 PREFETCH ISSUED TO LOWER LEVEL:          0  ACCURACY: -nan
L1I TIMELY PREFETCHES:          0 LATE PREFETCHES: 0 DROPPED PREFETCHES: 0
L1I COMMIT LATE PREFETCHES: 0 MISSED OPPORTUNITY: 0 LATE IN PQ: 0 UNCOVERED: 0
L1I COMMIT LATE MSHR PREFETCHES: 0
L1I MPKI TOTAL: 5.47631 MSHR LATE: 0 PQ LATE: 0 COMMIT LATE: 0 MISSED OPPORTUNITY: 0 UNCOVERED: 0
L1I PREFETCHES SAME FILL-ORIGIN LEVEL: 0 DIFFERENT FILL-ORIGIN LEVEL: 0
L1I AVERAGE MISS LATENCY: 18.9098 cycles
L1I AVERAGE MISS LATENCY LOAD: 18.9098 cycles
L1I AVERAGE MISS LATENCY PREFETCH: -nan cycles
L1I AVERAGE MSHR OCCUPANCY: 0.0331402
L1I MSHR FULL: 0
L1I RQ	ACCESS:   55987582	FORWARD:          0	MERGED:   20843838	TO_CACHE:   35143744

BTB SPEC fills:          0  NON-SPEC fills:          0
BTB Test counter :          0
BTB Leapfrog:          0
BTB MSHR merge:          0
BTB TOTAL     ACCESS:   25984963  HIT:   24489037  MISS:    1495926  HIT %:    94.2431  MISS %:    5.75689   MPKI: 7.47963
BTB BRANCH_DIRECT_JUMP	ACCESS:    4141047  HIT:    4130444  MISS:      10603
BTB BRANCH_INDIRECT	ACCESS:    1274734  HIT:     405661  MISS:     869073
BTB BRANCH_CONDITIONAL	ACCESS:   16683297  HIT:   16654181  MISS:      29116
BTB BRANCH_DIRECT_CALL	ACCESS:    1551808  HIT:    1544398  MISS:       7410
BTB BRANCH_INDIRECT_CALL	ACCESS:     391135  HIT:      53393  MISS:     337742
BTB BRANCH_RETURN	ACCESS:    1942942  HIT:    1700960  MISS:     241982
BTB BRANCH_OTHER ACCESS:          0  HIT:          0  MISS:          0

L2C SPEC fills:          0  NON-SPEC fills:      60767
L2C Test counter :          0
L2C Leapfrog:          0
L2C MSHR merge:       6157
L2C TOTAL     ACCESS:    2511255  HIT:    1852639  MISS:     658616  HIT %:    73.7734  MISS %:    26.2266   MPKI: 3.29308
L2C LOAD      TOTAL       ACCESS:    1428300  HIT:    1236345  MISS:     191955  HIT %:    86.5606  MISS %:    13.4394   MPKI: 0.959775
L2C LOAD      NON_SPEC    ACCESS:    1103143  HIT:     989182  MISS:     113961  HIT %:    89.6694  MISS %:    10.3306   MPKI: 0.569805
L2C LOAD      SPEC        ACCESS:     325157  HIT:     247163  MISS:      77994  HIT %:    76.0134  MISS %:    23.9866   MPKI: 0.38997
L2C RFO       NON_SPEC    ACCESS:      47953  HIT:      36319  MISS:      11634  HIT %:    75.7387  MISS %:    24.2613   MPKI: 0.05817
L2C PREFETCH  NON_SPEC    ACCESS:     701191  HIT:     334519  MISS:     366672  HIT %:    47.7073  MISS %:    52.2927   MPKI: 1.83336
L2C WRITEBACK NON_SPEC    ACCESS:      75691  HIT:      75318  MISS:        373  HIT %:    99.5072  MISS %:   0.492793   MPKI: 0.001865
L2C CLEAN_EVICTION NON_SPEC    ACCESS:     137969  HIT:      63485  MISS:      74484  HIT %:     46.014  MISS %:     53.986   MPKI: 0.37242
L2C COMMIT LOAD NON_SPEC    ACCESS:       1660  HIT:       1475  MISS:        185  HIT %:    88.8554  MISS %:    11.1446   MPKI: 0.000925
L2C LOAD TRANSLATION NON_SPEC    ACCESS:     118491  HIT:     105178  MISS:      13313  HIT %:    88.7645  MISS %:    11.2355   MPKI: 0.066565
L2C PREFETCH  REQUESTED:     709291  ISSUED:     709291  USEFUL:     121763  USELESS:     242934
L2C USEFUL LOAD PREFETCHES:     121763 PREFETCH ISSUED TO LOWER LEVEL:     373356  ACCURACY: 32.6131
L2C TIMELY PREFETCHES:     121763 LATE PREFETCHES: 6684 DROPPED PREFETCHES: 0
L2C COMMIT LATE PREFETCHES: 0 MISSED OPPORTUNITY: 0 LATE IN PQ: 0 UNCOVERED: 0
L2C COMMIT LATE MSHR PREFETCHES: 0
L2C MPKI TOTAL: 0.959775 MSHR LATE: 0.03342 PQ LATE: 0 COMMIT LATE: 0 MISSED OPPORTUNITY: 0 UNCOVERED: 0
L2C PREFETCHES SAME FILL-ORIGIN LEVEL: 373356 DIFFERENT FILL-ORIGIN LEVEL: 0
L2C AVERAGE MISS LATENCY: 131.08 cycles
L2C AVERAGE MISS LATENCY LOAD: 119.815 cycles
L2C AVERAGE MISS LATENCY PREFETCH: 164.081 cycles
L2C AVERAGE MSHR OCCUPANCY: 0.564774
L2C MSHR FULL: 0.000133408
L2C RQ	ACCESS:    1596428	FORWARD:          0	MERGED:          0	TO_CACHE:    1596404
L2C WQ	ACCESS:     213660	FORWARD:         25	MERGED:          0	TO_CACHE:     213660
L2C PQ	ACCESS:     709291	FORWARD:          0	MERGED:          0	TO_CACHE:     709290

L2C Instructions Evicting Data 46050
L2C Translations Evicting Data 11746
L2C Data Evicting Data 389108
L2C Instructions Evicting Instructions 5688
L2C Translations Evicting Instructions 1288
L2C Data Evicting Instructions 39212
L2C Instructions Evicting Translations 1317
L2C Translations Evicting Translations 238
L2C Data Evicting Translations 9988
L2C Dense regions hint from L2: 0
PSCL5 SPEC fills:          0  NON-SPEC fills:          0
PSCL5 Test counter :          0
PSCL5 Leapfrog:          0
PSCL5 MSHR merge:          0
PSCL5 TOTAL     ACCESS:          0  HIT:          0  MISS:          0  HIT %:       -nan  MISS %:       -nan   MPKI: 0
PSCL5 PREFETCH  REQUESTED:          0  ISSUED:          0  USEFUL:          0  USELESS:          0
PSCL5 USEFUL LOAD PREFETCHES:          0 PREFETCH ISSUED TO LOWER LEVEL:          0  ACCURACY: -nan
PSCL5 TIMELY PREFETCHES:          0 LATE PREFETCHES: 0 DROPPED PREFETCHES: 0
PSCL5 COMMIT LATE PREFETCHES: 0 MISSED OPPORTUNITY: 0 LATE IN PQ: 0 UNCOVERED: 0
PSCL5 COMMIT LATE MSHR PREFETCHES: 0
PSCL5 MPKI TOTAL: 0 MSHR LATE: 0 PQ LATE: 0 COMMIT LATE: 0 MISSED OPPORTUNITY: 0 UNCOVERED: 0
PSCL5 PREFETCHES SAME FILL-ORIGIN LEVEL: 0 DIFFERENT FILL-ORIGIN LEVEL: 0

PSCL4 SPEC fills:          0  NON-SPEC fills:          0
PSCL4 Test counter :          0
PSCL4 Leapfrog:          0
PSCL4 MSHR merge:          0
PSCL4 TOTAL     ACCESS:          0  HIT:          0  MISS:          0  HIT %:       -nan  MISS %:       -nan   MPKI: 0
PSCL4 PREFETCH  REQUESTED:          0  ISSUED:          0  USEFUL:          0  USELESS:          0
PSCL4 USEFUL LOAD PREFETCHES:          0 PREFETCH ISSUED TO LOWER LEVEL:          0  ACCURACY: -nan
PSCL4 TIMELY PREFETCHES:          0 LATE PREFETCHES: 0 DROPPED PREFETCHES: 0
PSCL4 COMMIT LATE PREFETCHES: 0 MISSED OPPORTUNITY: 0 LATE IN PQ: 0 UNCOVERED: 0
PSCL4 COMMIT LATE MSHR PREFETCHES: 0
PSCL4 MPKI TOTAL: 0 MSHR LATE: 0 PQ LATE: 0 COMMIT LATE: 0 MISSED OPPORTUNITY: 0 UNCOVERED: 0
PSCL4 PREFETCHES SAME FILL-ORIGIN LEVEL: 0 DIFFERENT FILL-ORIGIN LEVEL: 0

PSCL3 SPEC fills:          0  NON-SPEC fills:          0
PSCL3 Test counter :          0
PSCL3 Leapfrog:          0
PSCL3 MSHR merge:          0
PSCL3 TOTAL     ACCESS:          0  HIT:          0  MISS:          0  HIT %:       -nan  MISS %:       -nan   MPKI: 0
PSCL3 PREFETCH  REQUESTED:          0  ISSUED:          0  USEFUL:          0  USELESS:          0
PSCL3 USEFUL LOAD PREFETCHES:          0 PREFETCH ISSUED TO LOWER LEVEL:          0  ACCURACY: -nan
PSCL3 TIMELY PREFETCHES:          0 LATE PREFETCHES: 0 DROPPED PREFETCHES: 0
PSCL3 COMMIT LATE PREFETCHES: 0 MISSED OPPORTUNITY: 0 LATE IN PQ: 0 UNCOVERED: 0
PSCL3 COMMIT LATE MSHR PREFETCHES: 0
PSCL3 MPKI TOTAL: 0 MSHR LATE: 0 PQ LATE: 0 COMMIT LATE: 0 MISSED OPPORTUNITY: 0 UNCOVERED: 0
PSCL3 PREFETCHES SAME FILL-ORIGIN LEVEL: 0 DIFFERENT FILL-ORIGIN LEVEL: 0

PSCL2 SPEC fills:          0  NON-SPEC fills:          0
PSCL2 Test counter :          0
PSCL2 Leapfrog:          0
PSCL2 MSHR merge:          0
PSCL2 TOTAL     ACCESS:          0  HIT:          0  MISS:          0  HIT %:       -nan  MISS %:       -nan   MPKI: 0
PSCL2 PREFETCH  REQUESTED:          0  ISSUED:          0  USEFUL:          0  USELESS:          0
PSCL2 USEFUL LOAD PREFETCHES:          0 PREFETCH ISSUED TO LOWER LEVEL:          0  ACCURACY: -nan
PSCL2 TIMELY PREFETCHES:          0 LATE PREFETCHES: 0 DROPPED PREFETCHES: 0
PSCL2 COMMIT LATE PREFETCHES: 0 MISSED OPPORTUNITY: 0 LATE IN PQ: 0 UNCOVERED: 0
PSCL2 COMMIT LATE MSHR PREFETCHES: 0
PSCL2 MPKI TOTAL: 0 MSHR LATE: 0 PQ LATE: 0 COMMIT LATE: 0 MISSED OPPORTUNITY: 0 UNCOVERED: 0
PSCL2 PREFETCHES SAME FILL-ORIGIN LEVEL: 0 DIFFERENT FILL-ORIGIN LEVEL: 0

LLC SPEC fills:          0  NON-SPEC fills:      46084
LLC Test counter :          0
LLC Leapfrog:          0
LLC MSHR merge:          0
LLC TOTAL     ACCESS:     705374  HIT:     216381  MISS:     488993  HIT %:    30.6761  MISS %:    69.3239   MPKI: 2.44496
LLC LOAD      TOTAL       ACCESS:     185796  HIT:      67801  MISS:     117995  HIT %:    36.4922  MISS %:    63.5078   MPKI: 0.589975
LLC LOAD      NON_SPEC    ACCESS:     110087  HIT:      46620  MISS:      63467  HIT %:    42.3483  MISS %:    57.6517   MPKI: 0.317335
LLC LOAD      SPEC        ACCESS:      75709  HIT:      21181  MISS:      54528  HIT %:    27.9769  MISS %:    72.0231   MPKI: 0.27264
LLC RFO       NON_SPEC    ACCESS:      11124  HIT:       3467  MISS:       7657  HIT %:    31.1668  MISS %:    68.8332   MPKI: 0.038285
LLC PREFETCH  NON_SPEC    ACCESS:     373350  HIT:      73413  MISS:     299937  HIT %:    19.6633  MISS %:    80.3367   MPKI: 1.49968
LLC WRITEBACK NON_SPEC    ACCESS:      28241  HIT:      27719  MISS:        522  HIT %:    98.1516  MISS %:    1.84838   MPKI: 0.00261
LLC CLEAN_EVICTION NON_SPEC    ACCESS:      93382  HIT:      37435  MISS:      55947  HIT %:     40.088  MISS %:     59.912   MPKI: 0.279735
LLC COMMIT LOAD NON_SPEC    ACCESS:        168  HIT:        103  MISS:         65  HIT %:    61.3095  MISS %:    38.6905   MPKI: 0.000325
LLC LOAD TRANSLATION NON_SPEC    ACCESS:      13313  HIT:       6443  MISS:       6870  HIT %:    48.3963  MISS %:    51.6037   MPKI: 0.03435
LLC PREFETCH  REQUESTED:          0  ISSUED:          0  USEFUL:       8005  USELESS:     271397
LLC USEFUL LOAD PREFETCHES:       8005 PREFETCH ISSUED TO LOWER LEVEL:     299937  ACCURACY: 2.66889
LLC TIMELY PREFETCHES:       8005 LATE PREFETCHES: 0 DROPPED PREFETCHES: 0
LLC COMMIT LATE PREFETCHES: 0 MISSED OPPORTUNITY: 0 LATE IN PQ: 0 UNCOVERED: 0
LLC COMMIT LATE MSHR PREFETCHES: 0
LLC MPKI TOTAL: 0.589975 MSHR LATE: 0 PQ LATE: 0 COMMIT LATE: 0 MISSED OPPORTUNITY: 0 UNCOVERED: 0
LLC PREFETCHES SAME FILL-ORIGIN LEVEL: 0 DIFFERENT FILL-ORIGIN LEVEL: 0
LLC AVERAGE MISS LATENCY: 142.631 cycles
LLC AVERAGE MISS LATENCY LOAD: 147.482 cycles
LLC AVERAGE MISS LATENCY PREFETCH: 166.58 cycles
LLC AVERAGE MSHR OCCUPANCY: 0.852068
LLC MSHR FULL: 0
LLC RQ	ACCESS:     210403	FORWARD:          0	MERGED:          0	TO_CACHE:     210401
LLC WQ	ACCESS:     121623	FORWARD:          8	MERGED:          0	TO_CACHE:     121623
LLC PQ	ACCESS:     373356	FORWARD:          0	MERGED:          0	TO_CACHE:     373350

LLC Dense regions hint to LLC: 0

RAW hits: 3026675
Loads Generated: 49831234
Loads sent to L1D: 46804560
Stores Generated: 39740622
Stores sent to L1D: 39740638
Major fault: 0 Minor fault: 5924
Allocated PAGES: 5924
Total Load insts: 55961012
Total Non-spec loads: 13970720
Percentage of speculative loads: 75.0349

LeapFrogging counter: 275
Commit hits: 22321140 miss: 11403569
Commit hit %: 66.1863 miss %: 33.8137
Commits not translated: 0
Loads retired: 553964
Stores retired: 39740638
Cache fills: 553964
L1D response latency: 46.4138 cycles
Load retirement latency: 80.4463 cycles
OOO test counter: 0
Discarded buffer inserts: 22321140 hits: 5350 hit %: 0.0239683
Filter prediction accuracy: 99.9612
[Bingo] PHT Access: 169570
[Bingo] PHT Hit PC+Addr: 64850
[Bingo] PHT Hit PC+Offs: 71199
[Bingo] PHT Miss: 33521
[Bingo] Prefetch PC+Addr: 0
[Bingo] Prefetch PC+Offs: 0
[Bingo] Useful PC+Addr: 0
[Bingo] Useful PC+Offs: 0
[Bingo] Useless PC+Addr: 0
[Bingo] Useless PC+Offs: 0
[Bingo] L1 Prefetch per Region: 0
[Bingo] L2 Prefetch per Region: 6.24672
[Bingo] L3 Prefetch per Region: 0
[Bingo] No Prefetch per Region: 25.7533
[Bingo] Number of Voters Mean: 4.6413
[Bingo] Number of Voters SD: 3.82352
PHT read accesses: 1622815
PHT write accesses: 77740
AT read accesses: 47484984
AT write accesses: 47545919
FT read accesses: 4627709
FT write accesses: 169570
PS read accesses: 289861
PS write accesses: 136049
PHT tag read accesses: 3707601
PHT tag write accesses: 142590
AT tag read accesses: 810172189
AT tag write accesses: 47562720
FT tag read accesses: 54351728
FT tag write accesses: 2526040
PS tag read accesses: 802354042
PS tag write accesses: 425232

DRAM Statistics
 CHANNEL 0
 RQ ROW_BUFFER_HIT:     185827  ROW_BUFFER_MISS:     246693
 DBUS_CONGESTED:        100
 WQ ROW_BUFFER_HIT:      12249  ROW_BUFFER_MISS:      75157  FULL:          0

 AVG_CONGESTED_CYCLE: 4
 All warmup complete: 2
Channel 0 Bank busy for read cycles: 0
Channel 0 Bank busy for write cycles: 0
Channel 0
Rank 0
0banks busy for read cycles: 329668846
0banks busy for write cycles: 30443
1banks busy for read cycles: 14613690
1banks busy for write cycles: 4087314
2banks busy for read cycles: 2931580
2banks busy for write cycles: 1445078
3banks busy for read cycles: 1184975
3banks busy for write cycles: 853304
4banks busy for read cycles: 740398
4banks busy for write cycles: 573240
5banks busy for read cycles: 588801
5banks busy for write cycles: 399331
6banks busy for read cycles: 590044
6banks busy for write cycles: 275091
7banks busy for read cycles: 805584
7banks busy for write cycles: 150673
8banks busy for read cycles: 898301
8banks busy for write cycles: 73263

CPU 0 Branch Prediction Accuracy: 99.0693% MPKI: 1.53431 Average ROB Occupancy at Mispredict: 49.9213
Branch types
NOT_BRANCH: 167028092 83.514%
BRANCH_DIRECT_JUMP: 4141047 2.07052%
BRANCH_INDIRECT: 1274734 0.637367%
BRANCH_CONDITIONAL: 23669876 11.8349%
BRANCH_DIRECT_CALL: 1551808 0.775904%
BRANCH_INDIRECT_CALL: 391135 0.195567%
BRANCH_RETURN: 1942942 0.971471%
BRANCH_OTHER: 0 0%

DRAM PAGES: 1048576
Allocated PAGES: 5924
