
*** ChampSim Multicore Out-of-Order Simulator ***

Warmup Instructions: 50000000
Simulation Instructions: 200000000
Number of CPUs: 1
LLC sets: 2048
LLC ways: 16
L0D sets: 16
L0D ways: 2
ROB size: 352
LQ size: 128
SQ size: 72
Secure Berti: OFF
Berti: OFF
Berti Fill: OFF
On commit prefetching: ON
Hit-based filter: ON
Time-guarding: ON
Free-slotting: ON
Leap-frogging: ON
Train prefetcher on L0D bypass: OFF
No translation penalty for prefetchers: OFF
Prefetch to L0D only: OFF
Prefetch to L1D only: OFF
Clean evictions: ON
Commit loads: ON
Commit write: ON
Fill commit loads to L2C, LLC: ON
DRAM IO FREQUENCY: 6400
ROB SIZE: 352
Off-chip DRAM Size: 4096 MB Channels: 1 Width: 64-bit Data Rate: 6400 MT/s
CPU 0 runs /home/sumon/secure_berti/GhostMinion/../../traces/spec/602.gcc_s-734B.champsimtrace.xz
.xz
BTB has LRU replacement policy
ITLB has LRU replacement policy
DTLB has LRU replacement policy
STLB has LRU replacement policy
L1I has LRU replacement policy
L0D has LRU replacement policy
L1D has LRU replacement policy
Bingo PHT WAYS: 16 and PHT_SIZE: 16384
L2C has LRU replacement policy
LLC has LRU replacement policy
Heartbeat CPU 0 instructions: 10000002 cycles: 6659172 heartbeat IPC: 1.50169 cumulative IPC: 1.50169 (Simulation time: 0 hr 0 min 34 sec) 
Heartbeat CPU 0 instructions: 20000000 cycles: 13300978 heartbeat IPC: 1.50561 cumulative IPC: 1.50365 (Simulation time: 0 hr 1 min 8 sec) 
Heartbeat CPU 0 instructions: 30000000 cycles: 19957508 heartbeat IPC: 1.50228 cumulative IPC: 1.50319 (Simulation time: 0 hr 1 min 43 sec) 
Heartbeat CPU 0 instructions: 40000002 cycles: 26641579 heartbeat IPC: 1.49609 cumulative IPC: 1.50141 (Simulation time: 0 hr 2 min 17 sec) 
Heartbeat CPU 0 instructions: 50000000 cycles: 33300594 heartbeat IPC: 1.50172 cumulative IPC: 1.50147 (Simulation time: 0 hr 2 min 52 sec) 

Warmup complete CPU 0 instructions: 50000001 cycles: 33300595 (Simulation time: 0 hr 2 min 52 sec) 

Heartbeat CPU 0 instructions: 60000000 cycles: 54350102 heartbeat IPC: 0.47507 cumulative IPC: 0.47507 (Simulation time: 0 hr 3 min 49 sec) 
Heartbeat CPU 0 instructions: 70000002 cycles: 76418203 heartbeat IPC: 0.453143 cumulative IPC: 0.463848 (Simulation time: 0 hr 4 min 48 sec) 
Heartbeat CPU 0 instructions: 80000000 cycles: 97389785 heartbeat IPC: 0.476836 cumulative IPC: 0.468098 (Simulation time: 0 hr 5 min 51 sec) 
Heartbeat CPU 0 instructions: 90000000 cycles: 118506637 heartbeat IPC: 0.473555 cumulative IPC: 0.46945 (Simulation time: 0 hr 6 min 55 sec) 
Heartbeat CPU 0 instructions: 100000000 cycles: 145982558 heartbeat IPC: 0.363955 cumulative IPC: 0.443727 (Simulation time: 0 hr 7 min 59 sec) 
Heartbeat CPU 0 instructions: 110000000 cycles: 166931168 heartbeat IPC: 0.477359 cumulative IPC: 0.448999 (Simulation time: 0 hr 9 min 5 sec) 
Heartbeat CPU 0 instructions: 120000000 cycles: 188051213 heartbeat IPC: 0.473484 cumulative IPC: 0.452341 (Simulation time: 0 hr 10 min 12 sec) 
Heartbeat CPU 0 instructions: 130000001 cycles: 211452993 heartbeat IPC: 0.427318 cumulative IPC: 0.449054 (Simulation time: 0 hr 11 min 20 sec) 
Heartbeat CPU 0 instructions: 140000001 cycles: 232617653 heartbeat IPC: 0.472486 cumulative IPC: 0.451542 (Simulation time: 0 hr 12 min 28 sec) 
Heartbeat CPU 0 instructions: 150000000 cycles: 253982653 heartbeat IPC: 0.468055 cumulative IPC: 0.453141 (Simulation time: 0 hr 13 min 37 sec) 
Heartbeat CPU 0 instructions: 160000003 cycles: 275605555 heartbeat IPC: 0.462473 cumulative IPC: 0.453973 (Simulation time: 0 hr 14 min 42 sec) 
Heartbeat CPU 0 instructions: 170000000 cycles: 296574050 heartbeat IPC: 0.476906 cumulative IPC: 0.4558 (Simulation time: 0 hr 15 min 44 sec) 
Heartbeat CPU 0 instructions: 180000000 cycles: 317804761 heartbeat IPC: 0.471016 cumulative IPC: 0.456935 (Simulation time: 0 hr 16 min 41 sec) 
Heartbeat CPU 0 instructions: 190000002 cycles: 340188151 heartbeat IPC: 0.44676 cumulative IPC: 0.456193 (Simulation time: 0 hr 17 min 38 sec) 
Heartbeat CPU 0 instructions: 200000001 cycles: 361600450 heartbeat IPC: 0.467021 cumulative IPC: 0.456899 (Simulation time: 0 hr 18 min 30 sec) 
Heartbeat CPU 0 instructions: 210000000 cycles: 382583216 heartbeat IPC: 0.476582 cumulative IPC: 0.458082 (Simulation time: 0 hr 19 min 19 sec) 
Heartbeat CPU 0 instructions: 220000000 cycles: 403843354 heartbeat IPC: 0.470364 cumulative IPC: 0.458786 (Simulation time: 0 hr 20 min 5 sec) 
Heartbeat CPU 0 instructions: 230000002 cycles: 424824433 heartbeat IPC: 0.47662 cumulative IPC: 0.459742 (Simulation time: 0 hr 20 min 51 sec) 
Heartbeat CPU 0 instructions: 240000001 cycles: 445891045 heartbeat IPC: 0.474685 cumulative IPC: 0.460505 (Simulation time: 0 hr 21 min 37 sec) 
Heartbeat CPU 0 instructions: 250000002 cycles: 467757039 heartbeat IPC: 0.457331 cumulative IPC: 0.460345 (Simulation time: 0 hr 22 min 22 sec) 
Finished CPU 0 instructions: 200000001 cycles: 434456444 cumulative IPC: 0.460345 (Simulation time: 0 hr 22 min 22 sec) 
 Instruction ID: 250000360

ChampSim completed all CPUs

Region of Interest Statistics

CPU 0 cumulative IPC: 0.460345 instructions: 200000001 cycles: 434456444
ITLB SPEC fills:          0  NON-SPEC fills:          0
ITLB Test counter :          0
ITLB Leapfrog:          0
ITLB MSHR merge:          0
ITLB TOTAL     ACCESS:   44920446  HIT:   44920436  MISS:         10  HIT %:        100  MISS %: 2.22616e-05   MPKI: 5e-05
ITLB LOAD TRANSLATION NON_SPEC    ACCESS:   44920446  HIT:   44920436  MISS:         10  HIT %:        100  MISS %: 2.22616e-05   MPKI: 5e-05
ITLB PREFETCH  REQUESTED:          0  ISSUED:          0  USEFUL:          0  USELESS:          0
ITLB USEFUL LOAD PREFETCHES:          0 PREFETCH ISSUED TO LOWER LEVEL:          0  ACCURACY: -nan
ITLB TIMELY PREFETCHES:          0 LATE PREFETCHES: 0 DROPPED PREFETCHES: 0
ITLB COMMIT LATE PREFETCHES: 0 MISSED OPPORTUNITY: 0 LATE IN PQ: 0 UNCOVERED: 0
ITLB COMMIT LATE MSHR PREFETCHES: 0
ITLB MPKI TOTAL: 0 MSHR LATE: 0 PQ LATE: 0 COMMIT LATE: 0 MISSED OPPORTUNITY: 0 UNCOVERED: 0
ITLB PREFETCHES SAME FILL-ORIGIN LEVEL: 0 DIFFERENT FILL-ORIGIN LEVEL: 0
ITLB AVERAGE MISS LATENCY: 345.9 cycles
ITLB AVERAGE MISS LATENCY LOAD: -nan cycles
ITLB AVERAGE MISS LATENCY PREFETCH: -nan cycles
ITLB AVERAGE MSHR OCCUPANCY: 8.90463e-08
ITLB MSHR FULL: 0
ITLB RQ	ACCESS:   49718194	FORWARD:          0	MERGED:    4797743	TO_CACHE:   44920451

DTLB SPEC fills:          0  NON-SPEC fills:          0
DTLB Test counter :          0
DTLB Leapfrog:          0
DTLB MSHR merge:          0
DTLB TOTAL     ACCESS:   60393824  HIT:   60185474  MISS:     208350  HIT %:     99.655  MISS %:   0.344986   MPKI: 1.04175
DTLB LOAD TRANSLATION NON_SPEC    ACCESS:   60393824  HIT:   60185474  MISS:     208350  HIT %:     99.655  MISS %:   0.344986   MPKI: 1.04175
DTLB PREFETCH  REQUESTED:          0  ISSUED:          0  USEFUL:          0  USELESS:          0
DTLB USEFUL LOAD PREFETCHES:          0 PREFETCH ISSUED TO LOWER LEVEL:          0  ACCURACY: -nan
DTLB TIMELY PREFETCHES:          0 LATE PREFETCHES: 0 DROPPED PREFETCHES: 0
DTLB COMMIT LATE PREFETCHES: 0 MISSED OPPORTUNITY: 0 LATE IN PQ: 0 UNCOVERED: 0
DTLB COMMIT LATE MSHR PREFETCHES: 0
DTLB MPKI TOTAL: 0 MSHR LATE: 0 PQ LATE: 0 COMMIT LATE: 0 MISSED OPPORTUNITY: 0 UNCOVERED: 0
DTLB PREFETCHES SAME FILL-ORIGIN LEVEL: 0 DIFFERENT FILL-ORIGIN LEVEL: 0
DTLB AVERAGE MISS LATENCY: 46.2049 cycles
DTLB AVERAGE MISS LATENCY LOAD: -nan cycles
DTLB AVERAGE MISS LATENCY PREFETCH: -nan cycles
DTLB AVERAGE MSHR OCCUPANCY: 0.00422162
DTLB MSHR FULL: 0
DTLB RQ	ACCESS:   63446805	FORWARD:          0	MERGED:    3049645	TO_CACHE:   60397160

STLB SPEC fills:          0  NON-SPEC fills:          0
STLB Test counter :          0
STLB Leapfrog:          0
STLB MSHR merge:          0
STLB TOTAL     ACCESS:     208360  HIT:     155748  MISS:      52612  HIT %:    74.7495  MISS %:    25.2505   MPKI: 0.26306
STLB LOAD TRANSLATION NON_SPEC    ACCESS:     208360  HIT:     155748  MISS:      52612  HIT %:    74.7495  MISS %:    25.2505   MPKI: 0.26306
STLB PREFETCH  REQUESTED:          0  ISSUED:          0  USEFUL:          0  USELESS:          0
STLB USEFUL LOAD PREFETCHES:          0 PREFETCH ISSUED TO LOWER LEVEL:          0  ACCURACY: -nan
STLB TIMELY PREFETCHES:          0 LATE PREFETCHES: 0 DROPPED PREFETCHES: 0
STLB COMMIT LATE PREFETCHES: 0 MISSED OPPORTUNITY: 0 LATE IN PQ: 0 UNCOVERED: 0
STLB COMMIT LATE MSHR PREFETCHES: 0
STLB MPKI TOTAL: 0 MSHR LATE: 0 PQ LATE: 0 COMMIT LATE: 0 MISSED OPPORTUNITY: 0 UNCOVERED: 0
STLB PREFETCHES SAME FILL-ORIGIN LEVEL: 0 DIFFERENT FILL-ORIGIN LEVEL: 0
STLB AVERAGE MISS LATENCY: 147.39 cycles
STLB AVERAGE MISS LATENCY LOAD: -nan cycles
STLB AVERAGE MISS LATENCY PREFETCH: -nan cycles
STLB AVERAGE MSHR OCCUPANCY: 0.0145277
STLB MSHR FULL: 0
STLB RQ	ACCESS:     208360	FORWARD:          0	MERGED:          0	TO_CACHE:     208360

STLB Hit, L1D data hit: 0
STLB Hit, L2C data hit: 0
STLB Hit, LLC data hit: 0
STLB Hit, LLC data miss: 0
STLB STLB hints to L2: 0
L0D SPEC fills:   18227076  NON-SPEC fills:          0
L0D TimeGuard Request with older TS:     228075 Restricted eviction:      15089 read:     783677
L0D Test counter :          0
L0D Leapfrog:          0
L0D MSHR merge:    2155326
L0D TOTAL     ACCESS:   39351682  HIT:    6066698  MISS:   33284984  HIT %:    15.4166  MISS %:    84.5834   MPKI: 166.425
L0D LOAD      TOTAL       ACCESS:   39351682  HIT:    6066698  MISS:   33284984  HIT %:    15.4166  MISS %:    84.5834   MPKI: 166.425
L0D LOAD      NON_SPEC    ACCESS:   15254949  HIT:     212130  MISS:   15042819  HIT %:    1.39057  MISS %:    98.6094   MPKI: 75.2141
L0D LOAD      SPEC        ACCESS:   24096733  HIT:    5854568  MISS:   18242165  HIT %:    24.2961  MISS %:    75.7039   MPKI: 91.2108
L0D PREFETCH  REQUESTED:          0  ISSUED:          0  USEFUL:          0  USELESS:          0
L0D USEFUL LOAD PREFETCHES:          0 PREFETCH ISSUED TO LOWER LEVEL:          0  ACCURACY: -nan
L0D TIMELY PREFETCHES:          0 LATE PREFETCHES: 0 DROPPED PREFETCHES: 0
L0D COMMIT LATE PREFETCHES: 0 MISSED OPPORTUNITY: 0 LATE IN PQ: 0 UNCOVERED: 0
L0D COMMIT LATE MSHR PREFETCHES: 0
L0D MPKI TOTAL: 177.202 MSHR LATE: 0 PQ LATE: 0 COMMIT LATE: 0 MISSED OPPORTUNITY: 0 UNCOVERED: 0
L0D PREFETCHES SAME FILL-ORIGIN LEVEL: 0 DIFFERENT FILL-ORIGIN LEVEL: 0
L0D AVERAGE MISS LATENCY: 6.85706 cycles
L0D AVERAGE MISS LATENCY LOAD: 6.85706 cycles
L0D AVERAGE MISS LATENCY PREFETCH: -nan cycles
L0D AVERAGE MSHR OCCUPANCY: 0.70918
L0D MSHR FULL: 0
L0D RQ	ACCESS:   52869438	FORWARD:          0	MERGED:   11362430	TO_CACHE:   41507008
L0D WQ	ACCESS:   21939797	FORWARD:          0	MERGED:          0	TO_CACHE:   21939797

L1D SPEC fills:          0  NON-SPEC fills:     336998
L1D Test counter :          0
L1D Leapfrog:          0
L1D MSHR merge:       1625
L1D TOTAL     ACCESS:   62026742  HIT:   55164103  MISS:    6862639  HIT %:     88.936  MISS %:     11.064   MPKI: 34.3132
L1D LOAD      TOTAL       ACCESS:   33283359  HIT:   29654839  MISS:    3628520  HIT %:    89.0981  MISS %:    10.9019   MPKI: 18.1426
L1D LOAD      NON_SPEC    ACCESS:   15042640  HIT:   14705642  MISS:     336998  HIT %:    97.7597  MISS %:    2.24028   MPKI: 1.68499
L1D LOAD      SPEC        ACCESS:   18240719  HIT:   14949197  MISS:    3291522  HIT %:    81.9551  MISS %:    18.0449   MPKI: 16.4576
L1D RFO       NON_SPEC    ACCESS:   21908092  HIT:   21904781  MISS:       3311  HIT %:    99.9849  MISS %:  0.0151131   MPKI: 0.016555
L1D COMMIT LOAD NON_SPEC    ACCESS:    2705625  HIT:    2699949  MISS:       5676  HIT %:    99.7902  MISS %:   0.209785   MPKI: 0.02838
L1D COMMIT WRITE NON_SPEC    ACCESS:    4129666  HIT:     904534  MISS:    3225132  HIT %:    21.9033  MISS %:    78.0967   MPKI: 16.1257
L1D PREFETCH  REQUESTED:          0  ISSUED:          0  USEFUL:          0  USELESS:          0
L1D USEFUL LOAD PREFETCHES:          0 PREFETCH ISSUED TO LOWER LEVEL:          0  ACCURACY: -nan
L1D TIMELY PREFETCHES:          0 LATE PREFETCHES: 0 DROPPED PREFETCHES: 0
L1D COMMIT LATE PREFETCHES: 0 MISSED OPPORTUNITY: 0 LATE IN PQ: 0 UNCOVERED: 0
L1D COMMIT LATE MSHR PREFETCHES: 0
L1D MPKI TOTAL: 18.1507 MSHR LATE: 0 PQ LATE: 0 COMMIT LATE: 0 MISSED OPPORTUNITY: 0 UNCOVERED: 0
L1D PREFETCHES SAME FILL-ORIGIN LEVEL: 0 DIFFERENT FILL-ORIGIN LEVEL: 0
L1D AVERAGE MISS LATENCY: 8.92683 cycles
L1D AVERAGE MISS LATENCY LOAD: 16.7658 cycles
L1D AVERAGE MISS LATENCY PREFETCH: -nan cycles
L1D AVERAGE MSHR OCCUPANCY: 0.0450621
L1D MSHR FULL: 0
L1D RQ	ACCESS:   37708039	FORWARD:          0	MERGED:    1690321	TO_CACHE:   35991191
L1D WQ	ACCESS:   26096880	FORWARD:      26527	MERGED:      54310	TO_CACHE:   26042570

L1D UNIQUE REGIONS ACCESSED: 0
L1D REGIONS CONFLICTS: 0
L1D Cross Page Prefetch Requests: 0
L1D Same Page Prefetch Requests: 0
L1D ROI Sum of L1D PQ occupancy: 0
L1D PREFETCHES PUSHED FROM L2C: 0
L1I SPEC fills:          0  NON-SPEC fills:          0
L1I Test counter :          0
L1I Leapfrog:          0
L1I MSHR merge:         10
L1I TOTAL     ACCESS:   49718182  HIT:   49718093  MISS:         89  HIT %:    99.9998  MISS %: 0.000179009   MPKI: 0.000445
L1I LOAD      TOTAL       ACCESS:   49718182  HIT:   49718093  MISS:         89  HIT %:    99.9998  MISS %: 0.000179009   MPKI: 0.000445
L1I LOAD      NON_SPEC    ACCESS:   49718182  HIT:   49718093  MISS:         89  HIT %:    99.9998  MISS %: 0.000179009   MPKI: 0.000445
L1I PREFETCH  REQUESTED:          0  ISSUED:          0  USEFUL:          0  USELESS:          0
L1I USEFUL LOAD PREFETCHES:          0 PREFETCH ISSUED TO LOWER LEVEL:          0  ACCURACY: -nan
L1I TIMELY PREFETCHES:          0 LATE PREFETCHES: 0 DROPPED PREFETCHES: 0
L1I COMMIT LATE PREFETCHES: 0 MISSED OPPORTUNITY: 0 LATE IN PQ: 0 UNCOVERED: 0
L1I COMMIT LATE MSHR PREFETCHES: 0
L1I MPKI TOTAL: 0.000495 MSHR LATE: 0 PQ LATE: 0 COMMIT LATE: 0 MISSED OPPORTUNITY: 0 UNCOVERED: 0
L1I PREFETCHES SAME FILL-ORIGIN LEVEL: 0 DIFFERENT FILL-ORIGIN LEVEL: 0
L1I AVERAGE MISS LATENCY: 201.798 cycles
L1I AVERAGE MISS LATENCY LOAD: 201.798 cycles
L1I AVERAGE MISS LATENCY PREFETCH: -nan cycles
L1I AVERAGE MSHR OCCUPANCY: 7.44194e-07
L1I MSHR FULL: 0
L1I RQ	ACCESS:   80034919	FORWARD:          0	MERGED:   30316725	TO_CACHE:   49718194

BTB SPEC fills:          0  NON-SPEC fills:          0
BTB Test counter :          0
BTB Leapfrog:          0
BTB MSHR merge:          0
BTB TOTAL     ACCESS:   37936625  HIT:   37889779  MISS:      46846  HIT %:    99.8765  MISS %:   0.123485   MPKI: 0.23423
BTB BRANCH_DIRECT_JUMP	ACCESS:    4848253  HIT:    4848175  MISS:         78
BTB BRANCH_INDIRECT	ACCESS:          0  HIT:          0  MISS:          0
BTB BRANCH_CONDITIONAL	ACCESS:   28192639  HIT:   28192467  MISS:        172
BTB BRANCH_DIRECT_CALL	ACCESS:    2447841  HIT:    2447798  MISS:         43
BTB BRANCH_INDIRECT_CALL	ACCESS:         26  HIT:         25  MISS:          1
BTB BRANCH_RETURN	ACCESS:    2447866  HIT:    2401314  MISS:      46552
BTB BRANCH_OTHER ACCESS:          0  HIT:          0  MISS:          0

L2C SPEC fills:          0  NON-SPEC fills:      48969
L2C Test counter :          0
L2C Leapfrog:          0
L2C MSHR merge:      31730
L2C TOTAL     ACCESS:    7334553  HIT:    5106780  MISS:    2227773  HIT %:    69.6263  MISS %:    30.3737   MPKI: 11.1389
L2C LOAD      TOTAL       ACCESS:    3628607  HIT:    3473502  MISS:     155105  HIT %:    95.7255  MISS %:    4.27451   MPKI: 0.775525
L2C LOAD      NON_SPEC    ACCESS:     337087  HIT:     288029  MISS:      49058  HIT %:    85.4465  MISS %:    14.5535   MPKI: 0.24529
L2C LOAD      SPEC        ACCESS:    3291520  HIT:    3185473  MISS:     106047  HIT %:    96.7782  MISS %:    3.22182   MPKI: 0.530235
L2C RFO       NON_SPEC    ACCESS:       3311  HIT:       1634  MISS:       1677  HIT %:    49.3506  MISS %:    50.6494   MPKI: 0.008385
L2C PREFETCH  NON_SPEC    ACCESS:    2486721  HIT:     538746  MISS:    1947975  HIT %:    21.6649  MISS %:    78.3351   MPKI: 9.73987
L2C WRITEBACK NON_SPEC    ACCESS:      16232  HIT:      16210  MISS:         22  HIT %:    99.8645  MISS %:   0.135535   MPKI: 0.00011
L2C CLEAN_EVICTION NON_SPEC    ACCESS:     930985  HIT:     828960  MISS:     102025  HIT %:    89.0412  MISS %:    10.9588   MPKI: 0.510125
L2C COMMIT LOAD NON_SPEC    ACCESS:       5676  HIT:       5609  MISS:         67  HIT %:    98.8196  MISS %:    1.18041   MPKI: 0.000335
L2C LOAD TRANSLATION NON_SPEC    ACCESS:     263021  HIT:     242119  MISS:      20902  HIT %:    92.0531  MISS %:    7.94689   MPKI: 0.10451
L2C PREFETCH  REQUESTED:    2519376  ISSUED:    2519376  USEFUL:    1757698  USELESS:     190064
L2C USEFUL LOAD PREFETCHES:    1757698 PREFETCH ISSUED TO LOWER LEVEL:    1979839  ACCURACY: 88.7798
L2C TIMELY PREFETCHES:    1757698 LATE PREFETCHES: 31864 DROPPED PREFETCHES: 0
L2C COMMIT LATE PREFETCHES: 0 MISSED OPPORTUNITY: 0 LATE IN PQ: 0 UNCOVERED: 0
L2C COMMIT LATE MSHR PREFETCHES: 0
L2C MPKI TOTAL: 0.775525 MSHR LATE: 0.15932 PQ LATE: 0 COMMIT LATE: 0 MISSED OPPORTUNITY: 0 UNCOVERED: 0
L2C PREFETCHES SAME FILL-ORIGIN LEVEL: 1979839 DIFFERENT FILL-ORIGIN LEVEL: 0
L2C AVERAGE MISS LATENCY: 161.137 cycles
L2C AVERAGE MISS LATENCY LOAD: 128.214 cycles
L2C AVERAGE MISS LATENCY PREFETCH: 171.964 cycles
L2C AVERAGE MSHR OCCUPANCY: 0.848946
L2C MSHR FULL: 4.61466e-06
L2C RQ	ACCESS:    3900617	FORWARD:          0	MERGED:          0	TO_CACHE:    3900615
L2C WQ	ACCESS:     947217	FORWARD:          2	MERGED:          0	TO_CACHE:     947217
L2C PQ	ACCESS:    2519376	FORWARD:          0	MERGED:         16	TO_CACHE:    2519360

L2C Instructions Evicting Data 86
L2C Translations Evicting Data 20634
L2C Data Evicting Data 1979048
L2C Instructions Evicting Instructions 0
L2C Translations Evicting Instructions 2
L2C Data Evicting Instructions 79
L2C Instructions Evicting Translations 3
L2C Translations Evicting Translations 266
L2C Data Evicting Translations 19561
L2C Dense regions hint from L2: 0
PSCL5 SPEC fills:          0  NON-SPEC fills:          0
PSCL5 Test counter :          0
PSCL5 Leapfrog:          0
PSCL5 MSHR merge:          0
PSCL5 TOTAL     ACCESS:          0  HIT:          0  MISS:          0  HIT %:       -nan  MISS %:       -nan   MPKI: 0
PSCL5 PREFETCH  REQUESTED:          0  ISSUED:          0  USEFUL:          0  USELESS:          0
PSCL5 USEFUL LOAD PREFETCHES:          0 PREFETCH ISSUED TO LOWER LEVEL:          0  ACCURACY: -nan
PSCL5 TIMELY PREFETCHES:          0 LATE PREFETCHES: 0 DROPPED PREFETCHES: 0
PSCL5 COMMIT LATE PREFETCHES: 0 MISSED OPPORTUNITY: 0 LATE IN PQ: 0 UNCOVERED: 0
PSCL5 COMMIT LATE MSHR PREFETCHES: 0
PSCL5 MPKI TOTAL: 0 MSHR LATE: 0 PQ LATE: 0 COMMIT LATE: 0 MISSED OPPORTUNITY: 0 UNCOVERED: 0
PSCL5 PREFETCHES SAME FILL-ORIGIN LEVEL: 0 DIFFERENT FILL-ORIGIN LEVEL: 0

PSCL4 SPEC fills:          0  NON-SPEC fills:          0
PSCL4 Test counter :          0
PSCL4 Leapfrog:          0
PSCL4 MSHR merge:          0
PSCL4 TOTAL     ACCESS:          0  HIT:          0  MISS:          0  HIT %:       -nan  MISS %:       -nan   MPKI: 0
PSCL4 PREFETCH  REQUESTED:          0  ISSUED:          0  USEFUL:          0  USELESS:          0
PSCL4 USEFUL LOAD PREFETCHES:          0 PREFETCH ISSUED TO LOWER LEVEL:          0  ACCURACY: -nan
PSCL4 TIMELY PREFETCHES:          0 LATE PREFETCHES: 0 DROPPED PREFETCHES: 0
PSCL4 COMMIT LATE PREFETCHES: 0 MISSED OPPORTUNITY: 0 LATE IN PQ: 0 UNCOVERED: 0
PSCL4 COMMIT LATE MSHR PREFETCHES: 0
PSCL4 MPKI TOTAL: 0 MSHR LATE: 0 PQ LATE: 0 COMMIT LATE: 0 MISSED OPPORTUNITY: 0 UNCOVERED: 0
PSCL4 PREFETCHES SAME FILL-ORIGIN LEVEL: 0 DIFFERENT FILL-ORIGIN LEVEL: 0

PSCL3 SPEC fills:          0  NON-SPEC fills:          0
PSCL3 Test counter :          0
PSCL3 Leapfrog:          0
PSCL3 MSHR merge:          0
PSCL3 TOTAL     ACCESS:          0  HIT:          0  MISS:          0  HIT %:       -nan  MISS %:       -nan   MPKI: 0
PSCL3 PREFETCH  REQUESTED:          0  ISSUED:          0  USEFUL:          0  USELESS:          0
PSCL3 USEFUL LOAD PREFETCHES:          0 PREFETCH ISSUED TO LOWER LEVEL:          0  ACCURACY: -nan
PSCL3 TIMELY PREFETCHES:          0 LATE PREFETCHES: 0 DROPPED PREFETCHES: 0
PSCL3 COMMIT LATE PREFETCHES: 0 MISSED OPPORTUNITY: 0 LATE IN PQ: 0 UNCOVERED: 0
PSCL3 COMMIT LATE MSHR PREFETCHES: 0
PSCL3 MPKI TOTAL: 0 MSHR LATE: 0 PQ LATE: 0 COMMIT LATE: 0 MISSED OPPORTUNITY: 0 UNCOVERED: 0
PSCL3 PREFETCHES SAME FILL-ORIGIN LEVEL: 0 DIFFERENT FILL-ORIGIN LEVEL: 0

PSCL2 SPEC fills:          0  NON-SPEC fills:          0
PSCL2 Test counter :          0
PSCL2 Leapfrog:          0
PSCL2 MSHR merge:          0
PSCL2 TOTAL     ACCESS:          0  HIT:          0  MISS:          0  HIT %:       -nan  MISS %:       -nan   MPKI: 0
PSCL2 PREFETCH  REQUESTED:          0  ISSUED:          0  USEFUL:          0  USELESS:          0
PSCL2 USEFUL LOAD PREFETCHES:          0 PREFETCH ISSUED TO LOWER LEVEL:          0  ACCURACY: -nan
PSCL2 TIMELY PREFETCHES:          0 LATE PREFETCHES: 0 DROPPED PREFETCHES: 0
PSCL2 COMMIT LATE PREFETCHES: 0 MISSED OPPORTUNITY: 0 LATE IN PQ: 0 UNCOVERED: 0
PSCL2 COMMIT LATE MSHR PREFETCHES: 0
PSCL2 MPKI TOTAL: 0 MSHR LATE: 0 PQ LATE: 0 COMMIT LATE: 0 MISSED OPPORTUNITY: 0 UNCOVERED: 0
PSCL2 PREFETCHES SAME FILL-ORIGIN LEVEL: 0 DIFFERENT FILL-ORIGIN LEVEL: 0

LLC SPEC fills:          0  NON-SPEC fills:      35186
LLC Test counter :          0
LLC Leapfrog:          0
LLC MSHR merge:          0
LLC TOTAL     ACCESS:    2463396  HIT:     320548  MISS:    2142848  HIT %:    13.0124  MISS %:    86.9876   MPKI: 10.7142
LLC LOAD      TOTAL       ACCESS:     123373  HIT:      15516  MISS:     107857  HIT %:    12.5765  MISS %:    87.4235   MPKI: 0.539285
LLC LOAD      NON_SPEC    ACCESS:      40980  HIT:       5705  MISS:      35275  HIT %:    13.9214  MISS %:    86.0786   MPKI: 0.176375
LLC LOAD      SPEC        ACCESS:      82393  HIT:       9811  MISS:      72582  HIT %:    11.9076  MISS %:    88.0924   MPKI: 0.36291
LLC RFO       NON_SPEC    ACCESS:       1554  HIT:         79  MISS:       1475  HIT %:    5.08366  MISS %:    94.9163   MPKI: 0.007375
LLC PREFETCH  NON_SPEC    ACCESS:    1979833  HIT:      38691  MISS:    1941142  HIT %:    1.95426  MISS %:    98.0457   MPKI: 9.70571
LLC WRITEBACK NON_SPEC    ACCESS:       9304  HIT:       8210  MISS:       1094  HIT %:    88.2416  MISS %:    11.7584   MPKI: 0.00547
LLC CLEAN_EVICTION NON_SPEC    ACCESS:     328374  HIT:     256019  MISS:      72355  HIT %:    77.9657  MISS %:    22.0343   MPKI: 0.361775
LLC COMMIT LOAD NON_SPEC    ACCESS:         56  HIT:         32  MISS:         24  HIT %:    57.1429  MISS %:    42.8571   MPKI: 0.00012
LLC LOAD TRANSLATION NON_SPEC    ACCESS:      20902  HIT:       2001  MISS:      18901  HIT %:    9.57325  MISS %:    90.4268   MPKI: 0.094505
LLC PREFETCH  REQUESTED:          0  ISSUED:          0  USEFUL:       2621  USELESS:    1938633
LLC USEFUL LOAD PREFETCHES:       2621 PREFETCH ISSUED TO LOWER LEVEL:    1941142  ACCURACY: 0.135024
LLC TIMELY PREFETCHES:       2621 LATE PREFETCHES: 0 DROPPED PREFETCHES: 0
LLC COMMIT LATE PREFETCHES: 0 MISSED OPPORTUNITY: 0 LATE IN PQ: 0 UNCOVERED: 0
LLC COMMIT LATE MSHR PREFETCHES: 0
LLC MPKI TOTAL: 0.539285 MSHR LATE: 0 PQ LATE: 0 COMMIT LATE: 0 MISSED OPPORTUNITY: 0 UNCOVERED: 0
LLC PREFETCHES SAME FILL-ORIGIN LEVEL: 0 DIFFERENT FILL-ORIGIN LEVEL: 0
LLC AVERAGE MISS LATENCY: 139.508 cycles
LLC AVERAGE MISS LATENCY LOAD: 130.207 cycles
LLC AVERAGE MISS LATENCY PREFETCH: 145.011 cycles
LLC AVERAGE MSHR OCCUPANCY: 0.569599
LLC MSHR FULL: 0
LLC RQ	ACCESS:     145887	FORWARD:          0	MERGED:          0	TO_CACHE:     145885
LLC WQ	ACCESS:     337678	FORWARD:          8	MERGED:          0	TO_CACHE:     337678
LLC PQ	ACCESS:    1979839	FORWARD:          0	MERGED:          0	TO_CACHE:    1979833

LLC Dense regions hint to LLC: 0

RAW hits: 62384
Loads Generated: 52931823
Loads sent to L1D: 52869438
Stores Generated: 21939796
Stores sent to L1D: 21939797
Major fault: 0 Minor fault: 9448
Allocated PAGES: 9448
Total Load insts: 65986191
Total Non-spec loads: 18651567
Percentage of speculative loads: 71.7341

LeapFrogging counter: 0
Commit hits: 18124305 miss: 19465358
Commit hit %: 48.2162 miss %: 51.7838
Commits not translated: 0
Loads retired: 3628520
Stores retired: 21939797
Cache fills: 3628520
L1D response latency: 16.7658 cycles
Load retirement latency: 63.1814 cycles
OOO test counter: 0
Discarded buffer inserts: 18124305 hits: 11408 hit %: 0.0629431
Filter prediction accuracy: 97.6105
[Bingo] PHT Access: 177627
[Bingo] PHT Hit PC+Addr: 39476
[Bingo] PHT Hit PC+Offs: 130784
[Bingo] PHT Miss: 7367
[Bingo] Prefetch PC+Addr: 0
[Bingo] Prefetch PC+Offs: 0
[Bingo] Useful PC+Addr: 0
[Bingo] Useful PC+Offs: 0
[Bingo] Useless PC+Addr: 0
[Bingo] Useless PC+Offs: 0
[Bingo] L1 Prefetch per Region: 0
[Bingo] L2 Prefetch per Region: 16.0952
[Bingo] L3 Prefetch per Region: 0
[Bingo] No Prefetch per Region: 15.9048
[Bingo] Number of Voters Mean: 10.766
[Bingo] Number of Voters SD: 7.60818
PHT read accesses: 2392587
PHT write accesses: 103793
AT read accesses: 51602243
AT write accesses: 51691029
FT read accesses: 2656893
FT write accesses: 177627
PS read accesses: 455971
PS write accesses: 170260
PHT tag read accesses: 5243811
PHT tag write accesses: 143269
AT tag read accesses: 885726925
AT tag write accesses: 51706035
FT tag read accesses: 63427481
FT tag write accesses: 1563762
PS tag read accesses: 852865274
PS tag write accesses: 620638

DRAM Statistics
 CHANNEL 0
 RQ ROW_BUFFER_HIT:    1721387  ROW_BUFFER_MISS:     348011
 DBUS_CONGESTED:        625
 WQ ROW_BUFFER_HIT:      28455  ROW_BUFFER_MISS:     308394  FULL:          0

 AVG_CONGESTED_CYCLE: 1
 All warmup complete: 2
Channel 0 Bank busy for read cycles: 0
Channel 0 Bank busy for write cycles: 0
Channel 0
Rank 0
0banks busy for read cycles: 379588336
0banks busy for write cycles: 82566
1banks busy for read cycles: 16374627
1banks busy for write cycles: 9163863
2banks busy for read cycles: 2293473
2banks busy for write cycles: 3087621
3banks busy for read cycles: 1145761
3banks busy for write cycles: 1662632
4banks busy for read cycles: 936420
4banks busy for write cycles: 1216770
5banks busy for read cycles: 908477
5banks busy for write cycles: 1044976
6banks busy for read cycles: 1100623
6banks busy for write cycles: 1008851
7banks busy for read cycles: 4472439
7banks busy for write cycles: 1011269
8banks busy for read cycles: 8467113
8banks busy for write cycles: 890628

CPU 0 Branch Prediction Accuracy: 99.9023% MPKI: 0.234695 Average ROB Occupancy at Mispredict: 78.8631
Branch types
NOT_BRANCH: 151969688 75.9848%
BRANCH_DIRECT_JUMP: 4848253 2.42413%
BRANCH_INDIRECT: 0 0%
BRANCH_CONDITIONAL: 38286306 19.1432%
BRANCH_DIRECT_CALL: 2447841 1.22392%
BRANCH_INDIRECT_CALL: 26 1.3e-05%
BRANCH_RETURN: 2447866 1.22393%
BRANCH_OTHER: 0 0%

DRAM PAGES: 1048576
Allocated PAGES: 9448
