
*** ChampSim Multicore Out-of-Order Simulator ***

Warmup Instructions: 50000000
Simulation Instructions: 200000000
Number of CPUs: 1
LLC sets: 2048
LLC ways: 16
L0D sets: 16
L0D ways: 2
ROB size: 352
LQ size: 128
SQ size: 72
Secure Berti: OFF
Berti: OFF
Berti Fill: OFF
On commit prefetching: ON
Hit-based filter: ON
Time-guarding: ON
Free-slotting: ON
Leap-frogging: ON
Train prefetcher on L0D bypass: OFF
No translation penalty for prefetchers: OFF
Prefetch to L0D only: OFF
Prefetch to L1D only: OFF
Clean evictions: ON
Commit loads: ON
Commit write: ON
Fill commit loads to L2C, LLC: ON
DRAM IO FREQUENCY: 6400
ROB SIZE: 352
Off-chip DRAM Size: 4096 MB Channels: 1 Width: 64-bit Data Rate: 6400 MT/s
CPU 0 runs /home/sumon/secure_berti/GhostMinion/../../traces/spec/603.bwaves_s-2609B.champsimtrace.xz
.xz
BTB has LRU replacement policy
ITLB has LRU replacement policy
DTLB has LRU replacement policy
STLB has LRU replacement policy
L1I has LRU replacement policy
L0D has LRU replacement policy
L1D has LRU replacement policy
Bingo PHT WAYS: 16 and PHT_SIZE: 16384
L2C has LRU replacement policy
LLC has LRU replacement policy
Heartbeat CPU 0 instructions: 10000002 cycles: 3587237 heartbeat IPC: 2.78766 cumulative IPC: 2.78766 (Simulation time: 0 hr 0 min 35 sec) 
Heartbeat CPU 0 instructions: 20000003 cycles: 7173127 heartbeat IPC: 2.78871 cumulative IPC: 2.78818 (Simulation time: 0 hr 1 min 10 sec) 
Heartbeat CPU 0 instructions: 30000001 cycles: 10759314 heartbeat IPC: 2.78848 cumulative IPC: 2.78828 (Simulation time: 0 hr 1 min 45 sec) 
Heartbeat CPU 0 instructions: 40000002 cycles: 14345832 heartbeat IPC: 2.78822 cumulative IPC: 2.78827 (Simulation time: 0 hr 2 min 20 sec) 
Heartbeat CPU 0 instructions: 50000003 cycles: 17932588 heartbeat IPC: 2.78803 cumulative IPC: 2.78822 (Simulation time: 0 hr 2 min 55 sec) 

Warmup complete CPU 0 instructions: 50000003 cycles: 17932588 (Simulation time: 0 hr 2 min 55 sec) 

Heartbeat CPU 0 instructions: 60000000 cycles: 27958867 heartbeat IPC: 0.997379 cumulative IPC: 0.997379 (Simulation time: 0 hr 3 min 32 sec) 
Heartbeat CPU 0 instructions: 70000000 cycles: 37971962 heartbeat IPC: 0.998692 cumulative IPC: 0.998035 (Simulation time: 0 hr 4 min 9 sec) 
Heartbeat CPU 0 instructions: 80000003 cycles: 48008019 heartbeat IPC: 0.996408 cumulative IPC: 0.997492 (Simulation time: 0 hr 4 min 45 sec) 
Heartbeat CPU 0 instructions: 90000003 cycles: 58021846 heartbeat IPC: 0.998619 cumulative IPC: 0.997774 (Simulation time: 0 hr 5 min 22 sec) 
Heartbeat CPU 0 instructions: 100000001 cycles: 68041990 heartbeat IPC: 0.997989 cumulative IPC: 0.997817 (Simulation time: 0 hr 5 min 58 sec) 
Heartbeat CPU 0 instructions: 110000000 cycles: 78040670 heartbeat IPC: 1.00013 cumulative IPC: 0.998202 (Simulation time: 0 hr 6 min 34 sec) 
Heartbeat CPU 0 instructions: 120000000 cycles: 88047218 heartbeat IPC: 0.999346 cumulative IPC: 0.998365 (Simulation time: 0 hr 7 min 10 sec) 
Heartbeat CPU 0 instructions: 130000003 cycles: 98071507 heartbeat IPC: 0.997577 cumulative IPC: 0.998267 (Simulation time: 0 hr 7 min 46 sec) 
Heartbeat CPU 0 instructions: 140000000 cycles: 108091170 heartbeat IPC: 0.998037 cumulative IPC: 0.998241 (Simulation time: 0 hr 8 min 24 sec) 
Heartbeat CPU 0 instructions: 150000003 cycles: 118093858 heartbeat IPC: 0.999732 cumulative IPC: 0.99839 (Simulation time: 0 hr 9 min 2 sec) 
Heartbeat CPU 0 instructions: 160000000 cycles: 128111887 heartbeat IPC: 0.9982 cumulative IPC: 0.998373 (Simulation time: 0 hr 9 min 39 sec) 
Heartbeat CPU 0 instructions: 170000000 cycles: 138110559 heartbeat IPC: 1.00013 cumulative IPC: 0.998519 (Simulation time: 0 hr 10 min 16 sec) 
Heartbeat CPU 0 instructions: 180000001 cycles: 148133145 heartbeat IPC: 0.997747 cumulative IPC: 0.99846 (Simulation time: 0 hr 10 min 52 sec) 
Heartbeat CPU 0 instructions: 190000000 cycles: 158151283 heartbeat IPC: 0.998189 cumulative IPC: 0.99844 (Simulation time: 0 hr 11 min 28 sec) 
Heartbeat CPU 0 instructions: 200000000 cycles: 168156883 heartbeat IPC: 0.99944 cumulative IPC: 0.998507 (Simulation time: 0 hr 12 min 4 sec) 
Heartbeat CPU 0 instructions: 210000003 cycles: 178157689 heartbeat IPC: 0.99992 cumulative IPC: 0.998595 (Simulation time: 0 hr 12 min 40 sec) 
Heartbeat CPU 0 instructions: 220000000 cycles: 188159955 heartbeat IPC: 0.999773 cumulative IPC: 0.998664 (Simulation time: 0 hr 13 min 16 sec) 
Heartbeat CPU 0 instructions: 230000002 cycles: 198163709 heartbeat IPC: 0.999625 cumulative IPC: 0.998718 (Simulation time: 0 hr 13 min 52 sec) 
Heartbeat CPU 0 instructions: 240000000 cycles: 208165576 heartbeat IPC: 0.999813 cumulative IPC: 0.998775 (Simulation time: 0 hr 14 min 26 sec) 
Heartbeat CPU 0 instructions: 250000002 cycles: 218171387 heartbeat IPC: 0.999419 cumulative IPC: 0.998807 (Simulation time: 0 hr 15 min 1 sec) 
Finished CPU 0 instructions: 200000003 cycles: 200238804 cumulative IPC: 0.998807 (Simulation time: 0 hr 15 min 1 sec) 
 Instruction ID: 250000052

ChampSim completed all CPUs

Region of Interest Statistics

CPU 0 cumulative IPC: 0.998807 instructions: 200000003 cycles: 200238804
ITLB SPEC fills:          0  NON-SPEC fills:          0
ITLB Test counter :          0
ITLB Leapfrog:          0
ITLB MSHR merge:          0
ITLB TOTAL     ACCESS:   25425945  HIT:   25425945  MISS:          0  HIT %:        100  MISS %:          0   MPKI: 0
ITLB LOAD TRANSLATION NON_SPEC    ACCESS:   25425945  HIT:   25425945  MISS:          0  HIT %:        100  MISS %:          0   MPKI: 0
ITLB PREFETCH  REQUESTED:          0  ISSUED:          0  USEFUL:          0  USELESS:          0
ITLB USEFUL LOAD PREFETCHES:          0 PREFETCH ISSUED TO LOWER LEVEL:          0  ACCURACY: -nan
ITLB TIMELY PREFETCHES:          0 LATE PREFETCHES: 0 DROPPED PREFETCHES: 0
ITLB COMMIT LATE PREFETCHES: 0 MISSED OPPORTUNITY: 0 LATE IN PQ: 0 UNCOVERED: 0
ITLB COMMIT LATE MSHR PREFETCHES: 0
ITLB MPKI TOTAL: 0 MSHR LATE: 0 PQ LATE: 0 COMMIT LATE: 0 MISSED OPPORTUNITY: 0 UNCOVERED: 0
ITLB PREFETCHES SAME FILL-ORIGIN LEVEL: 0 DIFFERENT FILL-ORIGIN LEVEL: 0
ITLB AVERAGE MISS LATENCY: -nan cycles
ITLB AVERAGE MISS LATENCY LOAD: -nan cycles
ITLB AVERAGE MISS LATENCY PREFETCH: -nan cycles
ITLB AVERAGE MSHR OCCUPANCY: 0
ITLB MSHR FULL: 0
ITLB RQ	ACCESS:   34464439	FORWARD:          0	MERGED:    9038494	TO_CACHE:   25425945

DTLB SPEC fills:          0  NON-SPEC fills:          0
DTLB Test counter :          0
DTLB Leapfrog:          0
DTLB MSHR merge:          0
DTLB TOTAL     ACCESS:   73671348  HIT:   73530900  MISS:     140448  HIT %:    99.8094  MISS %:   0.190641   MPKI: 0.70224
DTLB LOAD TRANSLATION NON_SPEC    ACCESS:   73671348  HIT:   73530900  MISS:     140448  HIT %:    99.8094  MISS %:   0.190641   MPKI: 0.70224
DTLB PREFETCH  REQUESTED:          0  ISSUED:          0  USEFUL:          0  USELESS:          0
DTLB USEFUL LOAD PREFETCHES:          0 PREFETCH ISSUED TO LOWER LEVEL:          0  ACCURACY: -nan
DTLB TIMELY PREFETCHES:          0 LATE PREFETCHES: 0 DROPPED PREFETCHES: 0
DTLB COMMIT LATE PREFETCHES: 0 MISSED OPPORTUNITY: 0 LATE IN PQ: 0 UNCOVERED: 0
DTLB COMMIT LATE MSHR PREFETCHES: 0
DTLB MPKI TOTAL: 0 MSHR LATE: 0 PQ LATE: 0 COMMIT LATE: 0 MISSED OPPORTUNITY: 0 UNCOVERED: 0
DTLB PREFETCHES SAME FILL-ORIGIN LEVEL: 0 DIFFERENT FILL-ORIGIN LEVEL: 0
DTLB AVERAGE MISS LATENCY: 287.285 cycles
DTLB AVERAGE MISS LATENCY LOAD: -nan cycles
DTLB AVERAGE MISS LATENCY PREFETCH: -nan cycles
DTLB AVERAGE MSHR OCCUPANCY: 0.0216791
DTLB MSHR FULL: 2.14644e-05
DTLB RQ	ACCESS:   86369372	FORWARD:          0	MERGED:   12666103	TO_CACHE:   73703269

STLB SPEC fills:          0  NON-SPEC fills:          0
STLB Test counter :          0
STLB Leapfrog:          0
STLB MSHR merge:          0
STLB TOTAL     ACCESS:     140448  HIT:      81066  MISS:      59382  HIT %:    57.7196  MISS %:    42.2804   MPKI: 0.29691
STLB LOAD TRANSLATION NON_SPEC    ACCESS:     140448  HIT:      81066  MISS:      59382  HIT %:    57.7196  MISS %:    42.2804   MPKI: 0.29691
STLB PREFETCH  REQUESTED:          0  ISSUED:          0  USEFUL:          0  USELESS:          0
STLB USEFUL LOAD PREFETCHES:          0 PREFETCH ISSUED TO LOWER LEVEL:          0  ACCURACY: -nan
STLB TIMELY PREFETCHES:          0 LATE PREFETCHES: 0 DROPPED PREFETCHES: 0
STLB COMMIT LATE PREFETCHES: 0 MISSED OPPORTUNITY: 0 LATE IN PQ: 0 UNCOVERED: 0
STLB COMMIT LATE MSHR PREFETCHES: 0
STLB MPKI TOTAL: 0 MSHR LATE: 0 PQ LATE: 0 COMMIT LATE: 0 MISSED OPPORTUNITY: 0 UNCOVERED: 0
STLB PREFETCHES SAME FILL-ORIGIN LEVEL: 0 DIFFERENT FILL-ORIGIN LEVEL: 0
STLB AVERAGE MISS LATENCY: 657.7 cycles
STLB AVERAGE MISS LATENCY LOAD: -nan cycles
STLB AVERAGE MISS LATENCY PREFETCH: -nan cycles
STLB AVERAGE MSHR OCCUPANCY: 1.1532
STLB MSHR FULL: 0
STLB RQ	ACCESS:     140448	FORWARD:          0	MERGED:          0	TO_CACHE:     140448

STLB Hit, L1D data hit: 0
STLB Hit, L2C data hit: 0
STLB Hit, LLC data hit: 0
STLB Hit, LLC data miss: 0
STLB STLB hints to L2: 0
L0D SPEC fills:   49017139  NON-SPEC fills:          0
L0D TimeGuard Request with older TS:    1635396 Restricted eviction:   11847021 read:     163776
L0D Test counter :          0
L0D Leapfrog:          0
L0D MSHR merge:    2290150
L0D TOTAL     ACCESS:   72812423  HIT:    6268815  MISS:   66543608  HIT %:    8.60954  MISS %:    91.3905   MPKI: 332.718
L0D LOAD      TOTAL       ACCESS:   72812423  HIT:    6268815  MISS:   66543608  HIT %:    8.60954  MISS %:    91.3905   MPKI: 332.718
L0D LOAD      NON_SPEC    ACCESS:    6018382  HIT:     336916  MISS:    5681466  HIT %:    5.59812  MISS %:    94.4019   MPKI: 28.4073
L0D LOAD      SPEC        ACCESS:   66794041  HIT:    5931899  MISS:   60862142  HIT %:    8.88088  MISS %:    91.1191   MPKI: 304.311
L0D PREFETCH  REQUESTED:          0  ISSUED:          0  USEFUL:          0  USELESS:          0
L0D USEFUL LOAD PREFETCHES:          0 PREFETCH ISSUED TO LOWER LEVEL:          0  ACCURACY: -nan
L0D TIMELY PREFETCHES:          0 LATE PREFETCHES: 0 DROPPED PREFETCHES: 0
L0D COMMIT LATE PREFETCHES: 0 MISSED OPPORTUNITY: 0 LATE IN PQ: 0 UNCOVERED: 0
L0D COMMIT LATE MSHR PREFETCHES: 0
L0D MPKI TOTAL: 344.169 MSHR LATE: 0 PQ LATE: 0 COMMIT LATE: 0 MISSED OPPORTUNITY: 0 UNCOVERED: 0
L0D PREFETCHES SAME FILL-ORIGIN LEVEL: 0 DIFFERENT FILL-ORIGIN LEVEL: 0
L0D AVERAGE MISS LATENCY: 6.65311 cycles
L0D AVERAGE MISS LATENCY LOAD: 6.65311 cycles
L0D AVERAGE MISS LATENCY PREFETCH: -nan cycles
L0D AVERAGE MSHR OCCUPANCY: 2.21959
L0D MSHR FULL: 0.0515866
L0D RQ	ACCESS:   85445400	FORWARD:          0	MERGED:   10342843	TO_CACHE:   75102557
L0D WQ	ACCESS:   11266815	FORWARD:          0	MERGED:          0	TO_CACHE:   11266815

L1D SPEC fills:          0  NON-SPEC fills:      47397
L1D Test counter :          0
L1D Leapfrog:          0
L1D MSHR merge:     252602
L1D TOTAL     ACCESS:   81841919  HIT:   73721259  MISS:    8120660  HIT %:    90.0776  MISS %:    9.92237   MPKI: 40.6033
L1D LOAD      TOTAL       ACCESS:   66291005  HIT:   62127299  MISS:    4163706  HIT %:     93.719  MISS %:    6.28095   MPKI: 20.8185
L1D LOAD      NON_SPEC    ACCESS:    5681307  HIT:    5633910  MISS:      47397  HIT %:    99.1657  MISS %:   0.834262   MPKI: 0.236985
L1D LOAD      SPEC        ACCESS:   60609698  HIT:   56493389  MISS:    4116309  HIT %:    93.2085  MISS %:     6.7915   MPKI: 20.5815
L1D RFO       NON_SPEC    ACCESS:   11186349  HIT:   11088901  MISS:      97448  HIT %:    99.1289  MISS %:   0.871133   MPKI: 0.48724
L1D COMMIT LOAD NON_SPEC    ACCESS:    1582304  HIT:     232628  MISS:    1349676  HIT %:    14.7019  MISS %:    85.2981   MPKI: 6.74838
L1D COMMIT WRITE NON_SPEC    ACCESS:    2782261  HIT:     272431  MISS:    2509830  HIT %:    9.79171  MISS %:    90.2083   MPKI: 12.5491
L1D PREFETCH  REQUESTED:          0  ISSUED:          0  USEFUL:          0  USELESS:          0
L1D USEFUL LOAD PREFETCHES:          0 PREFETCH ISSUED TO LOWER LEVEL:          0  ACCURACY: -nan
L1D TIMELY PREFETCHES:          0 LATE PREFETCHES: 0 DROPPED PREFETCHES: 0
L1D COMMIT LATE PREFETCHES: 0 MISSED OPPORTUNITY: 0 LATE IN PQ: 0 UNCOVERED: 0
L1D COMMIT LATE MSHR PREFETCHES: 0
L1D MPKI TOTAL: 22.0815 MSHR LATE: 0 PQ LATE: 0 COMMIT LATE: 0 MISSED OPPORTUNITY: 0 UNCOVERED: 0
L1D PREFETCHES SAME FILL-ORIGIN LEVEL: 0 DIFFERENT FILL-ORIGIN LEVEL: 0
L1D AVERAGE MISS LATENCY: 17.6348 cycles
L1D AVERAGE MISS LATENCY LOAD: 21.4868 cycles
L1D AVERAGE MISS LATENCY PREFETCH: -nan cycles
L1D AVERAGE MSHR OCCUPANCY: 0.507605
L1D MSHR FULL: 5.67749e-06
L1D RQ	ACCESS:   68339836	FORWARD:          0	MERGED:         90	TO_CACHE:   68339746
L1D WQ	ACCESS:   14049075	FORWARD:          0	MERGED:        190	TO_CACHE:   14048885

L1D UNIQUE REGIONS ACCESSED: 0
L1D REGIONS CONFLICTS: 0
L1D Cross Page Prefetch Requests: 0
L1D Same Page Prefetch Requests: 0
L1D ROI Sum of L1D PQ occupancy: 0
L1D PREFETCHES PUSHED FROM L2C: 0
L1I SPEC fills:          0  NON-SPEC fills:          0
L1I Test counter :          0
L1I Leapfrog:          0
L1I MSHR merge:          0
L1I TOTAL     ACCESS:   34464438  HIT:   34464438  MISS:          0  HIT %:        100  MISS %:          0   MPKI: 0
L1I LOAD      TOTAL       ACCESS:   34464438  HIT:   34464438  MISS:          0  HIT %:        100  MISS %:          0   MPKI: 0
L1I LOAD      NON_SPEC    ACCESS:   34464438  HIT:   34464438  MISS:          0  HIT %:        100  MISS %:          0   MPKI: 0
L1I PREFETCH  REQUESTED:          0  ISSUED:          0  USEFUL:          0  USELESS:          0
L1I USEFUL LOAD PREFETCHES:          0 PREFETCH ISSUED TO LOWER LEVEL:          0  ACCURACY: -nan
L1I TIMELY PREFETCHES:          0 LATE PREFETCHES: 0 DROPPED PREFETCHES: 0
L1I COMMIT LATE PREFETCHES: 0 MISSED OPPORTUNITY: 0 LATE IN PQ: 0 UNCOVERED: 0
L1I COMMIT LATE MSHR PREFETCHES: 0
L1I MPKI TOTAL: 0 MSHR LATE: 0 PQ LATE: 0 COMMIT LATE: 0 MISSED OPPORTUNITY: 0 UNCOVERED: 0
L1I PREFETCHES SAME FILL-ORIGIN LEVEL: 0 DIFFERENT FILL-ORIGIN LEVEL: 0
L1I AVERAGE MISS LATENCY: -nan cycles
L1I AVERAGE MISS LATENCY LOAD: -nan cycles
L1I AVERAGE MISS LATENCY PREFETCH: -nan cycles
L1I AVERAGE MSHR OCCUPANCY: 0
L1I MSHR FULL: 0
L1I RQ	ACCESS:   45919519	FORWARD:          0	MERGED:   11455080	TO_CACHE:   34464439

BTB SPEC fills:          0  NON-SPEC fills:          0
BTB Test counter :          0
BTB Leapfrog:          0
BTB MSHR merge:          0
BTB TOTAL     ACCESS:    4834901  HIT:    4834896  MISS:          5  HIT %:    99.9999  MISS %: 0.000103415   MPKI: 2.5e-05
BTB BRANCH_DIRECT_JUMP	ACCESS:          0  HIT:          0  MISS:          0
BTB BRANCH_INDIRECT	ACCESS:          0  HIT:          0  MISS:          0
BTB BRANCH_CONDITIONAL	ACCESS:    4834901  HIT:    4834896  MISS:          5
BTB BRANCH_DIRECT_CALL	ACCESS:          0  HIT:          0  MISS:          0
BTB BRANCH_INDIRECT_CALL	ACCESS:          0  HIT:          0  MISS:          0
BTB BRANCH_RETURN	ACCESS:          0  HIT:          0  MISS:          0
BTB BRANCH_OTHER ACCESS:          0  HIT:          0  MISS:          0

L2C SPEC fills:          0  NON-SPEC fills:       1103
L2C Test counter :          0
L2C Leapfrog:          0
L2C MSHR merge:      18706
L2C TOTAL     ACCESS:    9747273  HIT:    5742395  MISS:    4004878  HIT %:    58.9128  MISS %:    41.0872   MPKI: 20.0244
L2C LOAD      TOTAL       ACCESS:    4163706  HIT:    3968063  MISS:     195643  HIT %:    95.3012  MISS %:    4.69877   MPKI: 0.978215
L2C LOAD      NON_SPEC    ACCESS:      47397  HIT:      46294  MISS:       1103  HIT %:    97.6728  MISS %:    2.32715   MPKI: 0.005515
L2C LOAD      SPEC        ACCESS:    4116309  HIT:    3921769  MISS:     194540  HIT %:    95.2739  MISS %:    4.72608   MPKI: 0.9727
L2C RFO       NON_SPEC    ACCESS:      97448  HIT:          0  MISS:      97448  HIT %:          0  MISS %:        100   MPKI: 0.48724
L2C PREFETCH  NON_SPEC    ACCESS:    3549986  HIT:      15335  MISS:    3534651  HIT %:   0.431974  MISS %:     99.568   MPKI: 17.6733
L2C WRITEBACK NON_SPEC    ACCESS:      97469  HIT:      97469  MISS:          0  HIT %:        100  MISS %:          0   MPKI: 0
L2C CLEAN_EVICTION NON_SPEC    ACCESS:     192189  HIT:      63041  MISS:     129148  HIT %:    32.8016  MISS %:    67.1984   MPKI: 0.64574
L2C COMMIT LOAD NON_SPEC    ACCESS:    1349676  HIT:    1309125  MISS:      40551  HIT %:    96.9955  MISS %:     3.0045   MPKI: 0.202755
L2C LOAD TRANSLATION NON_SPEC    ACCESS:     296799  HIT:     289362  MISS:       7437  HIT %:    97.4943  MISS %:    2.50574   MPKI: 0.037185
L2C PREFETCH  REQUESTED:    3595494  ISSUED:    3595494  USEFUL:    3522716  USELESS:      12064
L2C USEFUL LOAD PREFETCHES:    3522716 PREFETCH ISSUED TO LOWER LEVEL:    3561644  ACCURACY: 98.907
L2C TIMELY PREFETCHES:    3522716 LATE PREFETCHES: 26993 DROPPED PREFETCHES: 0
L2C COMMIT LATE PREFETCHES: 0 MISSED OPPORTUNITY: 0 LATE IN PQ: 0 UNCOVERED: 0
L2C COMMIT LATE MSHR PREFETCHES: 0
L2C MPKI TOTAL: 0.978215 MSHR LATE: 0.134965 PQ LATE: 0 COMMIT LATE: 0 MISSED OPPORTUNITY: 0 UNCOVERED: 0
L2C PREFETCHES SAME FILL-ORIGIN LEVEL: 3561644 DIFFERENT FILL-ORIGIN LEVEL: 0
L2C AVERAGE MISS LATENCY: 194.365 cycles
L2C AVERAGE MISS LATENCY LOAD: 219.487 cycles
L2C AVERAGE MISS LATENCY PREFETCH: 198.633 cycles
L2C AVERAGE MSHR OCCUPANCY: 4.4152
L2C MSHR FULL: 0.0213944
L2C RQ	ACCESS:    5907629	FORWARD:          0	MERGED:          0	TO_CACHE:    5907629
L2C WQ	ACCESS:     289658	FORWARD:          0	MERGED:          0	TO_CACHE:     289658
L2C PQ	ACCESS:    3595494	FORWARD:          0	MERGED:        146	TO_CACHE:    3595348

L2C Instructions Evicting Data 0
L2C Translations Evicting Data 7435
L2C Data Evicting Data 3666594
L2C Instructions Evicting Instructions 0
L2C Translations Evicting Instructions 0
L2C Data Evicting Instructions 0
L2C Instructions Evicting Translations 0
L2C Translations Evicting Translations 2
L2C Data Evicting Translations 7159
L2C Dense regions hint from L2: 0
PSCL5 SPEC fills:          0  NON-SPEC fills:          0
PSCL5 Test counter :          0
PSCL5 Leapfrog:          0
PSCL5 MSHR merge:          0
PSCL5 TOTAL     ACCESS:          0  HIT:          0  MISS:          0  HIT %:       -nan  MISS %:       -nan   MPKI: 0
PSCL5 PREFETCH  REQUESTED:          0  ISSUED:          0  USEFUL:          0  USELESS:          0
PSCL5 USEFUL LOAD PREFETCHES:          0 PREFETCH ISSUED TO LOWER LEVEL:          0  ACCURACY: -nan
PSCL5 TIMELY PREFETCHES:          0 LATE PREFETCHES: 0 DROPPED PREFETCHES: 0
PSCL5 COMMIT LATE PREFETCHES: 0 MISSED OPPORTUNITY: 0 LATE IN PQ: 0 UNCOVERED: 0
PSCL5 COMMIT LATE MSHR PREFETCHES: 0
PSCL5 MPKI TOTAL: 0 MSHR LATE: 0 PQ LATE: 0 COMMIT LATE: 0 MISSED OPPORTUNITY: 0 UNCOVERED: 0
PSCL5 PREFETCHES SAME FILL-ORIGIN LEVEL: 0 DIFFERENT FILL-ORIGIN LEVEL: 0

PSCL4 SPEC fills:          0  NON-SPEC fills:          0
PSCL4 Test counter :          0
PSCL4 Leapfrog:          0
PSCL4 MSHR merge:          0
PSCL4 TOTAL     ACCESS:          0  HIT:          0  MISS:          0  HIT %:       -nan  MISS %:       -nan   MPKI: 0
PSCL4 PREFETCH  REQUESTED:          0  ISSUED:          0  USEFUL:          0  USELESS:          0
PSCL4 USEFUL LOAD PREFETCHES:          0 PREFETCH ISSUED TO LOWER LEVEL:          0  ACCURACY: -nan
PSCL4 TIMELY PREFETCHES:          0 LATE PREFETCHES: 0 DROPPED PREFETCHES: 0
PSCL4 COMMIT LATE PREFETCHES: 0 MISSED OPPORTUNITY: 0 LATE IN PQ: 0 UNCOVERED: 0
PSCL4 COMMIT LATE MSHR PREFETCHES: 0
PSCL4 MPKI TOTAL: 0 MSHR LATE: 0 PQ LATE: 0 COMMIT LATE: 0 MISSED OPPORTUNITY: 0 UNCOVERED: 0
PSCL4 PREFETCHES SAME FILL-ORIGIN LEVEL: 0 DIFFERENT FILL-ORIGIN LEVEL: 0

PSCL3 SPEC fills:          0  NON-SPEC fills:          0
PSCL3 Test counter :          0
PSCL3 Leapfrog:          0
PSCL3 MSHR merge:          0
PSCL3 TOTAL     ACCESS:          0  HIT:          0  MISS:          0  HIT %:       -nan  MISS %:       -nan   MPKI: 0
PSCL3 PREFETCH  REQUESTED:          0  ISSUED:          0  USEFUL:          0  USELESS:          0
PSCL3 USEFUL LOAD PREFETCHES:          0 PREFETCH ISSUED TO LOWER LEVEL:          0  ACCURACY: -nan
PSCL3 TIMELY PREFETCHES:          0 LATE PREFETCHES: 0 DROPPED PREFETCHES: 0
PSCL3 COMMIT LATE PREFETCHES: 0 MISSED OPPORTUNITY: 0 LATE IN PQ: 0 UNCOVERED: 0
PSCL3 COMMIT LATE MSHR PREFETCHES: 0
PSCL3 MPKI TOTAL: 0 MSHR LATE: 0 PQ LATE: 0 COMMIT LATE: 0 MISSED OPPORTUNITY: 0 UNCOVERED: 0
PSCL3 PREFETCHES SAME FILL-ORIGIN LEVEL: 0 DIFFERENT FILL-ORIGIN LEVEL: 0

PSCL2 SPEC fills:          0  NON-SPEC fills:          0
PSCL2 Test counter :          0
PSCL2 Leapfrog:          0
PSCL2 MSHR merge:          0
PSCL2 TOTAL     ACCESS:          0  HIT:          0  MISS:          0  HIT %:       -nan  MISS %:       -nan   MPKI: 0
PSCL2 PREFETCH  REQUESTED:          0  ISSUED:          0  USEFUL:          0  USELESS:          0
PSCL2 USEFUL LOAD PREFETCHES:          0 PREFETCH ISSUED TO LOWER LEVEL:          0  ACCURACY: -nan
PSCL2 TIMELY PREFETCHES:          0 LATE PREFETCHES: 0 DROPPED PREFETCHES: 0
PSCL2 COMMIT LATE PREFETCHES: 0 MISSED OPPORTUNITY: 0 LATE IN PQ: 0 UNCOVERED: 0
PSCL2 COMMIT LATE MSHR PREFETCHES: 0
PSCL2 MPKI TOTAL: 0 MSHR LATE: 0 PQ LATE: 0 COMMIT LATE: 0 MISSED OPPORTUNITY: 0 UNCOVERED: 0
PSCL2 PREFETCHES SAME FILL-ORIGIN LEVEL: 0 DIFFERENT FILL-ORIGIN LEVEL: 0

LLC SPEC fills:          0  NON-SPEC fills:        980
LLC Test counter :          0
LLC Leapfrog:          0
LLC MSHR merge:          0
LLC TOTAL     ACCESS:    4163628  HIT:     179921  MISS:    3983707  HIT %:    4.32126  MISS %:    95.6787   MPKI: 19.9185
LLC LOAD      TOTAL       ACCESS:     176937  HIT:        218  MISS:     176719  HIT %:   0.123208  MISS %:    99.8768   MPKI: 0.883595
LLC LOAD      NON_SPEC    ACCESS:        981  HIT:          1  MISS:        980  HIT %:   0.101937  MISS %:    99.8981   MPKI: 0.0049
LLC LOAD      SPEC        ACCESS:     175956  HIT:        217  MISS:     175739  HIT %:   0.123326  MISS %:    99.8767   MPKI: 0.878695
LLC RFO       NON_SPEC    ACCESS:      97448  HIT:          0  MISS:      97448  HIT %:          0  MISS %:        100   MPKI: 0.48724
LLC PREFETCH  NON_SPEC    ACCESS:    3561605  HIT:       2122  MISS:    3559483  HIT %:  0.0595799  MISS %:    99.9404   MPKI: 17.7974
LLC WRITEBACK NON_SPEC    ACCESS:      97476  HIT:      97476  MISS:          0  HIT %:        100  MISS %:          0   MPKI: 0
LLC CLEAN_EVICTION NON_SPEC    ACCESS:     190461  HIT:      75152  MISS:     115309  HIT %:    39.4579  MISS %:    60.5421   MPKI: 0.576545
LLC COMMIT LOAD NON_SPEC    ACCESS:      32264  HIT:       4953  MISS:      27311  HIT %:    15.3515  MISS %:    84.6485   MPKI: 0.136555
LLC LOAD TRANSLATION NON_SPEC    ACCESS:       7437  HIT:          0  MISS:       7437  HIT %:          0  MISS %:        100   MPKI: 0.037185
LLC PREFETCH  REQUESTED:          0  ISSUED:          0  USEFUL:       5012  USELESS:    3554340
LLC USEFUL LOAD PREFETCHES:       5012 PREFETCH ISSUED TO LOWER LEVEL:    3559483  ACCURACY: 0.140807
LLC TIMELY PREFETCHES:       5012 LATE PREFETCHES: 0 DROPPED PREFETCHES: 0
LLC COMMIT LATE PREFETCHES: 0 MISSED OPPORTUNITY: 0 LATE IN PQ: 0 UNCOVERED: 0
LLC COMMIT LATE MSHR PREFETCHES: 0
LLC MPKI TOTAL: 0.883595 MSHR LATE: 0 PQ LATE: 0 COMMIT LATE: 0 MISSED OPPORTUNITY: 0 UNCOVERED: 0
LLC PREFETCHES SAME FILL-ORIGIN LEVEL: 0 DIFFERENT FILL-ORIGIN LEVEL: 0
LLC AVERAGE MISS LATENCY: 163.797 cycles
LLC AVERAGE MISS LATENCY LOAD: 196.76 cycles
LLC AVERAGE MISS LATENCY PREFETCH: 165.842 cycles
LLC AVERAGE MSHR OCCUPANCY: 7.35488
LLC MSHR FULL: 0
LLC RQ	ACCESS:     314086	FORWARD:          0	MERGED:          0	TO_CACHE:     314086
LLC WQ	ACCESS:     287937	FORWARD:         39	MERGED:          0	TO_CACHE:     287937
LLC PQ	ACCESS:    3561644	FORWARD:          0	MERGED:          0	TO_CACHE:    3561605

LLC Dense regions hint to LLC: 0

RAW hits: 514791
Loads Generated: 85960192
Loads sent to L1D: 85445400
Stores Generated: 11266823
Stores sent to L1D: 11266815
Major fault: 0 Minor fault: 70872
Allocated PAGES: 70872
Total Load insts: 106156196
Total Non-spec loads: 6491802
Percentage of speculative loads: 93.8847

LeapFrogging counter: 1184639
Commit hits: 47662130 miss: 31692087
Commit hit %: 60.0625 miss %: 39.9375
Commits not translated: 0
Loads retired: 4163706
Stores retired: 11266815
Cache fills: 4163706
L1D response latency: 21.4868 cycles
Load retirement latency: 73.8606 cycles
OOO test counter: 0
Discarded buffer inserts: 47662130 hits: 33036 hit %: 0.0693129
Filter prediction accuracy: 99.9657
[Bingo] PHT Access: 117813
[Bingo] PHT Hit PC+Addr: 1638
[Bingo] PHT Hit PC+Offs: 116131
[Bingo] PHT Miss: 44
[Bingo] Prefetch PC+Addr: 0
[Bingo] Prefetch PC+Offs: 0
[Bingo] Useful PC+Addr: 0
[Bingo] Useful PC+Offs: 0
[Bingo] Useless PC+Addr: 0
[Bingo] Useless PC+Offs: 0
[Bingo] L1 Prefetch per Region: 0
[Bingo] L2 Prefetch per Region: 31.6422
[Bingo] L3 Prefetch per Region: 0
[Bingo] No Prefetch per Region: 0.357785
[Bingo] Number of Voters Mean: 15.9917
[Bingo] Number of Voters SD: 7.96357
PHT read accesses: 1864379
PHT write accesses: 117450
AT read accesses: 85286929
AT write accesses: 85399323
FT read accesses: 1473799
FT write accesses: 117813
PS read accesses: 1820349
PS write accesses: 117769
PHT tag read accesses: 5598781
PHT tag write accesses: 119088
AT tag read accesses: 1441927142
AT tag write accesses: 85404379
FT tag read accesses: 77638797
FT tag write accesses: 913619
PS tag read accesses: 1379253853
PS tag write accesses: 1937761

DRAM Statistics
 CHANNEL 0
 RQ ROW_BUFFER_HIT:    3312461  ROW_BUFFER_MISS:     555937
 DBUS_CONGESTED:       1867
 WQ ROW_BUFFER_HIT:      96291  ROW_BUFFER_MISS:     191115  FULL:          0

 AVG_CONGESTED_CYCLE: 5
 All warmup complete: 2
Channel 0 Bank busy for read cycles: 0
Channel 0 Bank busy for write cycles: 0
Channel 0
Rank 0
0banks busy for read cycles: 129749786
0banks busy for write cycles: 87935
1banks busy for read cycles: 17993031
1banks busy for write cycles: 10711603
2banks busy for read cycles: 3093051
2banks busy for write cycles: 3231132
3banks busy for read cycles: 1532860
3banks busy for write cycles: 1500208
4banks busy for read cycles: 1289285
4banks busy for write cycles: 575095
5banks busy for read cycles: 1518621
5banks busy for write cycles: 360162
6banks busy for read cycles: 2018247
6banks busy for write cycles: 282930
7banks busy for read cycles: 6177089
7banks busy for write cycles: 212353
8banks busy for read cycles: 19038111
8banks busy for write cycles: 867306

CPU 0 Branch Prediction Accuracy: 99.9706% MPKI: 0.00733 Average ROB Occupancy at Mispredict: 32.1542
Branch types
NOT_BRANCH: 195007396 97.5037%
BRANCH_DIRECT_JUMP: 0 0%
BRANCH_INDIRECT: 0 0%
BRANCH_CONDITIONAL: 4992275 2.49614%
BRANCH_DIRECT_CALL: 0 0%
BRANCH_INDIRECT_CALL: 0 0%
BRANCH_RETURN: 0 0%
BRANCH_OTHER: 0 0%

DRAM PAGES: 1048576
Allocated PAGES: 70872
