
*** ChampSim Multicore Out-of-Order Simulator ***

Warmup Instructions: 50000000
Simulation Instructions: 200000000
Number of CPUs: 1
LLC sets: 2048
LLC ways: 16
L0D sets: 16
L0D ways: 2
ROB size: 352
LQ size: 128
SQ size: 72
Secure Berti: OFF
Berti: OFF
Berti Fill: OFF
On commit prefetching: ON
Hit-based filter: ON
Time-guarding: ON
Free-slotting: ON
Leap-frogging: ON
Train prefetcher on L0D bypass: OFF
No translation penalty for prefetchers: OFF
Prefetch to L0D only: OFF
Prefetch to L1D only: OFF
Clean evictions: ON
Commit loads: ON
Commit write: ON
Fill commit loads to L2C, LLC: ON
DRAM IO FREQUENCY: 6400
ROB SIZE: 352
Off-chip DRAM Size: 4096 MB Channels: 1 Width: 64-bit Data Rate: 6400 MT/s
CPU 0 runs /home/sumon/secure_berti/GhostMinion/../../traces/spec/605.mcf_s-1152B.champsimtrace.xz
.xz
BTB has LRU replacement policy
ITLB has LRU replacement policy
DTLB has LRU replacement policy
STLB has LRU replacement policy
L1I has LRU replacement policy
L0D has LRU replacement policy
L1D has LRU replacement policy
Bingo PHT WAYS: 16 and PHT_SIZE: 16384
L2C has LRU replacement policy
LLC has LRU replacement policy
Heartbeat CPU 0 instructions: 10000001 cycles: 5575168 heartbeat IPC: 1.79367 cumulative IPC: 1.79367 (Simulation time: 0 hr 0 min 44 sec) 
Heartbeat CPU 0 instructions: 20000000 cycles: 11106048 heartbeat IPC: 1.80803 cumulative IPC: 1.80082 (Simulation time: 0 hr 1 min 30 sec) 
Heartbeat CPU 0 instructions: 30000000 cycles: 16660744 heartbeat IPC: 1.80028 cumulative IPC: 1.80064 (Simulation time: 0 hr 2 min 16 sec) 
Heartbeat CPU 0 instructions: 40000001 cycles: 22231413 heartbeat IPC: 1.79512 cumulative IPC: 1.79926 (Simulation time: 0 hr 3 min 3 sec) 
Heartbeat CPU 0 instructions: 50000001 cycles: 27788296 heartbeat IPC: 1.79957 cumulative IPC: 1.79932 (Simulation time: 0 hr 3 min 51 sec) 

Warmup complete CPU 0 instructions: 50000001 cycles: 27788296 (Simulation time: 0 hr 3 min 51 sec) 

Heartbeat CPU 0 instructions: 60000001 cycles: 61728108 heartbeat IPC: 0.294639 cumulative IPC: 0.294639 (Simulation time: 0 hr 4 min 48 sec) 
Heartbeat CPU 0 instructions: 70000001 cycles: 95998829 heartbeat IPC: 0.291794 cumulative IPC: 0.29321 (Simulation time: 0 hr 5 min 46 sec) 
Heartbeat CPU 0 instructions: 80000001 cycles: 129873055 heartbeat IPC: 0.29521 cumulative IPC: 0.293873 (Simulation time: 0 hr 6 min 47 sec) 
Heartbeat CPU 0 instructions: 90000003 cycles: 163948182 heartbeat IPC: 0.293469 cumulative IPC: 0.293772 (Simulation time: 0 hr 7 min 49 sec) 
Heartbeat CPU 0 instructions: 100000001 cycles: 198151793 heartbeat IPC: 0.292367 cumulative IPC: 0.29349 (Simulation time: 0 hr 8 min 52 sec) 
Heartbeat CPU 0 instructions: 110000000 cycles: 232294227 heartbeat IPC: 0.292891 cumulative IPC: 0.29339 (Simulation time: 0 hr 9 min 56 sec) 
Heartbeat CPU 0 instructions: 120000002 cycles: 266590092 heartbeat IPC: 0.29158 cumulative IPC: 0.29313 (Simulation time: 0 hr 11 min 1 sec) 
Heartbeat CPU 0 instructions: 130000002 cycles: 301247983 heartbeat IPC: 0.288535 cumulative IPC: 0.292548 (Simulation time: 0 hr 12 min 7 sec) 
Heartbeat CPU 0 instructions: 140000003 cycles: 336327653 heartbeat IPC: 0.285065 cumulative IPC: 0.291697 (Simulation time: 0 hr 13 min 14 sec) 
Heartbeat CPU 0 instructions: 150000001 cycles: 371355757 heartbeat IPC: 0.285485 cumulative IPC: 0.291064 (Simulation time: 0 hr 14 min 22 sec) 
Heartbeat CPU 0 instructions: 160000000 cycles: 406629693 heartbeat IPC: 0.283495 cumulative IPC: 0.290359 (Simulation time: 0 hr 15 min 28 sec) 
Heartbeat CPU 0 instructions: 170000001 cycles: 442860419 heartbeat IPC: 0.276009 cumulative IPC: 0.289106 (Simulation time: 0 hr 16 min 31 sec) 
Heartbeat CPU 0 instructions: 180000000 cycles: 479064139 heartbeat IPC: 0.276215 cumulative IPC: 0.288072 (Simulation time: 0 hr 17 min 33 sec) 
Heartbeat CPU 0 instructions: 190000002 cycles: 515606101 heartbeat IPC: 0.273658 cumulative IPC: 0.286992 (Simulation time: 0 hr 18 min 30 sec) 
Heartbeat CPU 0 instructions: 200000001 cycles: 552500382 heartbeat IPC: 0.271045 cumulative IPC: 0.285871 (Simulation time: 0 hr 19 min 22 sec) 
Heartbeat CPU 0 instructions: 210000002 cycles: 589302930 heartbeat IPC: 0.27172 cumulative IPC: 0.284944 (Simulation time: 0 hr 20 min 11 sec) 
Heartbeat CPU 0 instructions: 220000000 cycles: 625426548 heartbeat IPC: 0.276827 cumulative IPC: 0.284453 (Simulation time: 0 hr 21 min 0 sec) 
Heartbeat CPU 0 instructions: 230000002 cycles: 661585426 heartbeat IPC: 0.276557 cumulative IPC: 0.284003 (Simulation time: 0 hr 21 min 47 sec) 
Heartbeat CPU 0 instructions: 240000000 cycles: 701016387 heartbeat IPC: 0.253608 cumulative IPC: 0.282222 (Simulation time: 0 hr 22 min 35 sec) 
Heartbeat CPU 0 instructions: 250000001 cycles: 738393512 heartbeat IPC: 0.267543 cumulative IPC: 0.28145 (Simulation time: 0 hr 23 min 19 sec) 
Finished CPU 0 instructions: 200000000 cycles: 710605216 cumulative IPC: 0.28145 (Simulation time: 0 hr 23 min 19 sec) 
 Instruction ID: 250000117

ChampSim completed all CPUs

Region of Interest Statistics

CPU 0 cumulative IPC: 0.28145 instructions: 200000000 cycles: 710605216
ITLB SPEC fills:          0  NON-SPEC fills:          0
ITLB Test counter :          0
ITLB Leapfrog:          0
ITLB MSHR merge:          0
ITLB TOTAL     ACCESS:   34622938  HIT:   34622938  MISS:          0  HIT %:        100  MISS %:          0   MPKI: 0
ITLB LOAD TRANSLATION NON_SPEC    ACCESS:   34622938  HIT:   34622938  MISS:          0  HIT %:        100  MISS %:          0   MPKI: 0
ITLB PREFETCH  REQUESTED:          0  ISSUED:          0  USEFUL:          0  USELESS:          0
ITLB USEFUL LOAD PREFETCHES:          0 PREFETCH ISSUED TO LOWER LEVEL:          0  ACCURACY: -nan
ITLB TIMELY PREFETCHES:          0 LATE PREFETCHES: 0 DROPPED PREFETCHES: 0
ITLB COMMIT LATE PREFETCHES: 0 MISSED OPPORTUNITY: 0 LATE IN PQ: 0 UNCOVERED: 0
ITLB COMMIT LATE MSHR PREFETCHES: 0
ITLB MPKI TOTAL: 0 MSHR LATE: 0 PQ LATE: 0 COMMIT LATE: 0 MISSED OPPORTUNITY: 0 UNCOVERED: 0
ITLB PREFETCHES SAME FILL-ORIGIN LEVEL: 0 DIFFERENT FILL-ORIGIN LEVEL: 0
ITLB AVERAGE MISS LATENCY: -nan cycles
ITLB AVERAGE MISS LATENCY LOAD: -nan cycles
ITLB AVERAGE MISS LATENCY PREFETCH: -nan cycles
ITLB AVERAGE MSHR OCCUPANCY: 0
ITLB MSHR FULL: 0
ITLB RQ	ACCESS:   36085329	FORWARD:          0	MERGED:    1462392	TO_CACHE:   34622937

DTLB SPEC fills:          0  NON-SPEC fills:          0
DTLB Test counter :          0
DTLB Leapfrog:          0
DTLB MSHR merge:          0
DTLB TOTAL     ACCESS:   59652231  HIT:   52344010  MISS:    7308221  HIT %:    87.7486  MISS %:    12.2514   MPKI: 36.5411
DTLB LOAD TRANSLATION NON_SPEC    ACCESS:   59652231  HIT:   52344010  MISS:    7308221  HIT %:    87.7486  MISS %:    12.2514   MPKI: 36.5411
DTLB PREFETCH  REQUESTED:          0  ISSUED:          0  USEFUL:          0  USELESS:          0
DTLB USEFUL LOAD PREFETCHES:          0 PREFETCH ISSUED TO LOWER LEVEL:          0  ACCURACY: -nan
DTLB TIMELY PREFETCHES:          0 LATE PREFETCHES: 0 DROPPED PREFETCHES: 0
DTLB COMMIT LATE PREFETCHES: 0 MISSED OPPORTUNITY: 0 LATE IN PQ: 0 UNCOVERED: 0
DTLB COMMIT LATE MSHR PREFETCHES: 0
DTLB MPKI TOTAL: 0 MSHR LATE: 0 PQ LATE: 0 COMMIT LATE: 0 MISSED OPPORTUNITY: 0 UNCOVERED: 0
DTLB PREFETCHES SAME FILL-ORIGIN LEVEL: 0 DIFFERENT FILL-ORIGIN LEVEL: 0
DTLB AVERAGE MISS LATENCY: 11.4711 cycles
DTLB AVERAGE MISS LATENCY LOAD: -nan cycles
DTLB AVERAGE MISS LATENCY PREFETCH: -nan cycles
DTLB AVERAGE MSHR OCCUPANCY: 0.11479
DTLB MSHR FULL: 3.32462e-08
DTLB RQ	ACCESS:   72798063	FORWARD:          0	MERGED:   12640811	TO_CACHE:   60157252

STLB SPEC fills:          0  NON-SPEC fills:          0
STLB Test counter :          0
STLB Leapfrog:          0
STLB MSHR merge:          0
STLB TOTAL     ACCESS:    7308221  HIT:    7208510  MISS:      99711  HIT %:    98.6356  MISS %:    1.36437   MPKI: 0.498555
STLB LOAD TRANSLATION NON_SPEC    ACCESS:    7308221  HIT:    7208510  MISS:      99711  HIT %:    98.6356  MISS %:    1.36437   MPKI: 0.498555
STLB PREFETCH  REQUESTED:          0  ISSUED:          0  USEFUL:          0  USELESS:          0
STLB USEFUL LOAD PREFETCHES:          0 PREFETCH ISSUED TO LOWER LEVEL:          0  ACCURACY: -nan
STLB TIMELY PREFETCHES:          0 LATE PREFETCHES: 0 DROPPED PREFETCHES: 0
STLB COMMIT LATE PREFETCHES: 0 MISSED OPPORTUNITY: 0 LATE IN PQ: 0 UNCOVERED: 0
STLB COMMIT LATE MSHR PREFETCHES: 0
STLB MPKI TOTAL: 0 MSHR LATE: 0 PQ LATE: 0 COMMIT LATE: 0 MISSED OPPORTUNITY: 0 UNCOVERED: 0
STLB PREFETCHES SAME FILL-ORIGIN LEVEL: 0 DIFFERENT FILL-ORIGIN LEVEL: 0
STLB AVERAGE MISS LATENCY: 171.496 cycles
STLB AVERAGE MISS LATENCY LOAD: -nan cycles
STLB AVERAGE MISS LATENCY PREFETCH: -nan cycles
STLB AVERAGE MSHR OCCUPANCY: 0.0284194
STLB MSHR FULL: 0
STLB RQ	ACCESS:    7308221	FORWARD:          0	MERGED:          0	TO_CACHE:    7308221

STLB Hit, L1D data hit: 0
STLB Hit, L2C data hit: 0
STLB Hit, LLC data hit: 0
STLB Hit, LLC data miss: 0
STLB STLB hints to L2: 0
L0D SPEC fills:   33920031  NON-SPEC fills:          0
L0D TimeGuard Request with older TS:     457641 Restricted eviction:     267619 read:     227273
L0D Test counter :          0
L0D Leapfrog:          0
L0D MSHR merge:    2390941
L0D TOTAL     ACCESS:   52604188  HIT:    3257666  MISS:   49346522  HIT %:    6.19279  MISS %:    93.8072   MPKI: 246.733
L0D LOAD      TOTAL       ACCESS:   52604188  HIT:    3257666  MISS:   49346522  HIT %:    6.19279  MISS %:    93.8072   MPKI: 246.733
L0D LOAD      NON_SPEC    ACCESS:   15731064  HIT:     572188  MISS:   15158876  HIT %:    3.63731  MISS %:    96.3627   MPKI: 75.7944
L0D LOAD      SPEC        ACCESS:   36873124  HIT:    2685478  MISS:   34187646  HIT %:    7.28302  MISS %:     92.717   MPKI: 170.938
L0D PREFETCH  REQUESTED:          0  ISSUED:          0  USEFUL:          0  USELESS:          0
L0D USEFUL LOAD PREFETCHES:          0 PREFETCH ISSUED TO LOWER LEVEL:          0  ACCURACY: -nan
L0D TIMELY PREFETCHES:          0 LATE PREFETCHES: 0 DROPPED PREFETCHES: 0
L0D COMMIT LATE PREFETCHES: 0 MISSED OPPORTUNITY: 0 LATE IN PQ: 0 UNCOVERED: 0
L0D COMMIT LATE MSHR PREFETCHES: 0
L0D MPKI TOTAL: 258.687 MSHR LATE: 0 PQ LATE: 0 COMMIT LATE: 0 MISSED OPPORTUNITY: 0 UNCOVERED: 0
L0D PREFETCHES SAME FILL-ORIGIN LEVEL: 0 DIFFERENT FILL-ORIGIN LEVEL: 0
L0D AVERAGE MISS LATENCY: 18.8929 cycles
L0D AVERAGE MISS LATENCY LOAD: 18.8929 cycles
L0D AVERAGE MISS LATENCY PREFETCH: -nan cycles
L0D AVERAGE MSHR OCCUPANCY: 1.51756
L0D MSHR FULL: 0.0690553
L0D RQ	ACCESS:   68383939	FORWARD:          0	MERGED:   13388809	TO_CACHE:   54995130
L0D WQ	ACCESS:   17802933	FORWARD:          0	MERGED:          0	TO_CACHE:   17802933

L1D SPEC fills:          0  NON-SPEC fills:    3388574
L1D Test counter :          0
L1D Leapfrog:          0
L1D MSHR merge:       4034
L1D TOTAL     ACCESS:   81545305  HIT:   57557764  MISS:   23987541  HIT %:    70.5838  MISS %:    29.4162   MPKI: 119.938
L1D LOAD      TOTAL       ACCESS:   49342488  HIT:   35961688  MISS:   13380800  HIT %:    72.8818  MISS %:    27.1182   MPKI: 66.904
L1D LOAD      NON_SPEC    ACCESS:   15157965  HIT:   11769391  MISS:    3388574  HIT %:    77.6449  MISS %:    22.3551   MPKI: 16.9429
L1D LOAD      SPEC        ACCESS:   34184523  HIT:   24192297  MISS:    9992226  HIT %:    70.7697  MISS %:    29.2303   MPKI: 49.9611
L1D RFO       NON_SPEC    ACCESS:   16635950  HIT:   16026438  MISS:     609512  HIT %:    96.3362  MISS %:    3.66382   MPKI: 3.04756
L1D COMMIT LOAD NON_SPEC    ACCESS:    5936882  HIT:    5506166  MISS:     430716  HIT %:    92.7451  MISS %:    7.25492   MPKI: 2.15358
L1D COMMIT WRITE NON_SPEC    ACCESS:    9629985  HIT:      63472  MISS:    9566513  HIT %:   0.659108  MISS %:    99.3409   MPKI: 47.8326
L1D PREFETCH  REQUESTED:          0  ISSUED:          0  USEFUL:          0  USELESS:          0
L1D USEFUL LOAD PREFETCHES:          0 PREFETCH ISSUED TO LOWER LEVEL:          0  ACCURACY: -nan
L1D TIMELY PREFETCHES:          0 LATE PREFETCHES: 0 DROPPED PREFETCHES: 0
L1D COMMIT LATE PREFETCHES: 0 MISSED OPPORTUNITY: 0 LATE IN PQ: 0 UNCOVERED: 0
L1D COMMIT LATE MSHR PREFETCHES: 0
L1D MPKI TOTAL: 66.9242 MSHR LATE: 0 PQ LATE: 0 COMMIT LATE: 0 MISSED OPPORTUNITY: 0 UNCOVERED: 0
L1D PREFETCHES SAME FILL-ORIGIN LEVEL: 0 DIFFERENT FILL-ORIGIN LEVEL: 0
L1D AVERAGE MISS LATENCY: 29.3471 cycles
L1D AVERAGE MISS LATENCY LOAD: 49.7797 cycles
L1D AVERAGE MISS LATENCY PREFETCH: -nan cycles
L1D AVERAGE MSHR OCCUPANCY: 0.676923
L1D MSHR FULL: 6.69155e-07
L1D RQ	ACCESS:   60226979	FORWARD:          0	MERGED:    4924201	TO_CACHE:   55293542
L1D WQ	ACCESS:   27434184	FORWARD:       9236	MERGED:     136018	TO_CACHE:   27298166

L1D UNIQUE REGIONS ACCESSED: 0
L1D REGIONS CONFLICTS: 0
L1D Cross Page Prefetch Requests: 0
L1D Same Page Prefetch Requests: 0
L1D ROI Sum of L1D PQ occupancy: 0
L1D PREFETCHES PUSHED FROM L2C: 0
L1I SPEC fills:          0  NON-SPEC fills:          0
L1I Test counter :          0
L1I Leapfrog:          0
L1I MSHR merge:          0
L1I TOTAL     ACCESS:   36085330  HIT:   36085328  MISS:          2  HIT %:        100  MISS %: 5.54242e-06   MPKI: 1e-05
L1I LOAD      TOTAL       ACCESS:   36085330  HIT:   36085328  MISS:          2  HIT %:        100  MISS %: 5.54242e-06   MPKI: 1e-05
L1I LOAD      NON_SPEC    ACCESS:   36085330  HIT:   36085328  MISS:          2  HIT %:        100  MISS %: 5.54242e-06   MPKI: 1e-05
L1I PREFETCH  REQUESTED:          0  ISSUED:          0  USEFUL:          0  USELESS:          0
L1I USEFUL LOAD PREFETCHES:          0 PREFETCH ISSUED TO LOWER LEVEL:          0  ACCURACY: -nan
L1I TIMELY PREFETCHES:          0 LATE PREFETCHES: 0 DROPPED PREFETCHES: 0
L1I COMMIT LATE PREFETCHES: 0 MISSED OPPORTUNITY: 0 LATE IN PQ: 0 UNCOVERED: 0
L1I COMMIT LATE MSHR PREFETCHES: 0
L1I MPKI TOTAL: 1e-05 MSHR LATE: 0 PQ LATE: 0 COMMIT LATE: 0 MISSED OPPORTUNITY: 0 UNCOVERED: 0
L1I PREFETCHES SAME FILL-ORIGIN LEVEL: 0 DIFFERENT FILL-ORIGIN LEVEL: 0
L1I AVERAGE MISS LATENCY: 214 cycles
L1I AVERAGE MISS LATENCY LOAD: 214 cycles
L1I AVERAGE MISS LATENCY PREFETCH: -nan cycles
L1I AVERAGE MSHR OCCUPANCY: 2.77121e-08
L1I MSHR FULL: 0
L1I RQ	ACCESS:   55232555	FORWARD:          0	MERGED:   19147226	TO_CACHE:   36085329

BTB SPEC fills:          0  NON-SPEC fills:          0
BTB Test counter :          0
BTB Leapfrog:          0
BTB MSHR merge:          0
BTB TOTAL     ACCESS:   49743916  HIT:   48131262  MISS:    1612654  HIT %:    96.7581  MISS %:    3.24191   MPKI: 8.06327
BTB BRANCH_DIRECT_JUMP	ACCESS:    5836928  HIT:    5836891  MISS:         37
BTB BRANCH_INDIRECT	ACCESS:          0  HIT:          0  MISS:          0
BTB BRANCH_CONDITIONAL	ACCESS:   36112465  HIT:   36112386  MISS:         79
BTB BRANCH_DIRECT_CALL	ACCESS:    3647058  HIT:    3647040  MISS:         18
BTB BRANCH_INDIRECT_CALL	ACCESS:     250202  HIT:     250194  MISS:          8
BTB BRANCH_RETURN	ACCESS:    3897263  HIT:    2284751  MISS:    1612512
BTB BRANCH_OTHER ACCESS:          0  HIT:          0  MISS:          0

L2C SPEC fills:          0  NON-SPEC fills:    2027015
L2C Test counter :          0
L2C Leapfrog:          0
L2C MSHR merge:     223487
L2C TOTAL     ACCESS:   30353659  HIT:   10380174  MISS:   19973485  HIT %:    34.1974  MISS %:    65.8026   MPKI: 99.8674
L2C LOAD      TOTAL       ACCESS:   13380627  HIT:    6227264  MISS:    7153363  HIT %:    46.5394  MISS %:    53.4606   MPKI: 35.7668
L2C LOAD      NON_SPEC    ACCESS:    3388559  HIT:    1361542  MISS:    2027017  HIT %:    40.1806  MISS %:    59.8194   MPKI: 10.1351
L2C LOAD      SPEC        ACCESS:    9992068  HIT:    4865722  MISS:    5126346  HIT %:    48.6958  MISS %:    51.3042   MPKI: 25.6317
L2C RFO       NON_SPEC    ACCESS:     609433  HIT:     292129  MISS:     317304  HIT %:    47.9346  MISS %:    52.0654   MPKI: 1.58652
L2C PREFETCH  NON_SPEC    ACCESS:    9686699  HIT:    1876119  MISS:    7810580  HIT %:     19.368  MISS %:     80.632   MPKI: 39.0529
L2C WRITEBACK NON_SPEC    ACCESS:     678896  HIT:     678875  MISS:         21  HIT %:    99.9969  MISS %: 0.00309326   MPKI: 0.000105
L2C CLEAN_EVICTION NON_SPEC    ACCESS:    5069117  HIT:     655142  MISS:    4413975  HIT %:    12.9242  MISS %:    87.0758   MPKI: 22.0699
L2C COMMIT LOAD NON_SPEC    ACCESS:     430716  HIT:     190346  MISS:     240370  HIT %:    44.1929  MISS %:    55.8071   MPKI: 1.20185
L2C LOAD TRANSLATION NON_SPEC    ACCESS:     498171  HIT:     460299  MISS:      37872  HIT %:    92.3978  MISS %:    7.60221   MPKI: 0.18936
L2C PREFETCH  REQUESTED:   10160858  ISSUED:   10160858  USEFUL:    4384020  USELESS:    3427071
L2C USEFUL LOAD PREFETCHES:    4384020 PREFETCH ISSUED TO LOWER LEVEL:    8045439  ACCURACY: 54.4907
L2C TIMELY PREFETCHES:    4384020 LATE PREFETCHES: 234859 DROPPED PREFETCHES: 0
L2C COMMIT LATE PREFETCHES: 0 MISSED OPPORTUNITY: 0 LATE IN PQ: 0 UNCOVERED: 0
L2C COMMIT LATE MSHR PREFETCHES: 0
L2C MPKI TOTAL: 35.7668 MSHR LATE: 1.1743 PQ LATE: 0 COMMIT LATE: 0 MISSED OPPORTUNITY: 0 UNCOVERED: 0
L2C PREFETCHES SAME FILL-ORIGIN LEVEL: 8045439 DIFFERENT FILL-ORIGIN LEVEL: 0
L2C AVERAGE MISS LATENCY: 79.747 cycles
L2C AVERAGE MISS LATENCY LOAD: 70.6066 cycles
L2C AVERAGE MISS LATENCY PREFETCH: 135.873 cycles
L2C AVERAGE MSHR OCCUPANCY: 4.4774
L2C MSHR FULL: 0.0100039
L2C RQ	ACCESS:   14919201	FORWARD:          0	MERGED:          0	TO_CACHE:   14918947
L2C WQ	ACCESS:    5748013	FORWARD:        355	MERGED:          0	TO_CACHE:    5748013
L2C PQ	ACCESS:   10160858	FORWARD:          0	MERGED:         28	TO_CACHE:   10160729

L2C Instructions Evicting Data 2
L2C Translations Evicting Data 37811
L2C Data Evicting Data 10369582
L2C Instructions Evicting Instructions 0
L2C Translations Evicting Instructions 0
L2C Data Evicting Instructions 1
L2C Instructions Evicting Translations 0
L2C Translations Evicting Translations 61
L2C Data Evicting Translations 25686
L2C Dense regions hint from L2: 0
PSCL5 SPEC fills:          0  NON-SPEC fills:          0
PSCL5 Test counter :          0
PSCL5 Leapfrog:          0
PSCL5 MSHR merge:          0
PSCL5 TOTAL     ACCESS:          0  HIT:          0  MISS:          0  HIT %:       -nan  MISS %:       -nan   MPKI: 0
PSCL5 PREFETCH  REQUESTED:          0  ISSUED:          0  USEFUL:          0  USELESS:          0
PSCL5 USEFUL LOAD PREFETCHES:          0 PREFETCH ISSUED TO LOWER LEVEL:          0  ACCURACY: -nan
PSCL5 TIMELY PREFETCHES:          0 LATE PREFETCHES: 0 DROPPED PREFETCHES: 0
PSCL5 COMMIT LATE PREFETCHES: 0 MISSED OPPORTUNITY: 0 LATE IN PQ: 0 UNCOVERED: 0
PSCL5 COMMIT LATE MSHR PREFETCHES: 0
PSCL5 MPKI TOTAL: 0 MSHR LATE: 0 PQ LATE: 0 COMMIT LATE: 0 MISSED OPPORTUNITY: 0 UNCOVERED: 0
PSCL5 PREFETCHES SAME FILL-ORIGIN LEVEL: 0 DIFFERENT FILL-ORIGIN LEVEL: 0

PSCL4 SPEC fills:          0  NON-SPEC fills:          0
PSCL4 Test counter :          0
PSCL4 Leapfrog:          0
PSCL4 MSHR merge:          0
PSCL4 TOTAL     ACCESS:          0  HIT:          0  MISS:          0  HIT %:       -nan  MISS %:       -nan   MPKI: 0
PSCL4 PREFETCH  REQUESTED:          0  ISSUED:          0  USEFUL:          0  USELESS:          0
PSCL4 USEFUL LOAD PREFETCHES:          0 PREFETCH ISSUED TO LOWER LEVEL:          0  ACCURACY: -nan
PSCL4 TIMELY PREFETCHES:          0 LATE PREFETCHES: 0 DROPPED PREFETCHES: 0
PSCL4 COMMIT LATE PREFETCHES: 0 MISSED OPPORTUNITY: 0 LATE IN PQ: 0 UNCOVERED: 0
PSCL4 COMMIT LATE MSHR PREFETCHES: 0
PSCL4 MPKI TOTAL: 0 MSHR LATE: 0 PQ LATE: 0 COMMIT LATE: 0 MISSED OPPORTUNITY: 0 UNCOVERED: 0
PSCL4 PREFETCHES SAME FILL-ORIGIN LEVEL: 0 DIFFERENT FILL-ORIGIN LEVEL: 0

PSCL3 SPEC fills:          0  NON-SPEC fills:          0
PSCL3 Test counter :          0
PSCL3 Leapfrog:          0
PSCL3 MSHR merge:          0
PSCL3 TOTAL     ACCESS:          0  HIT:          0  MISS:          0  HIT %:       -nan  MISS %:       -nan   MPKI: 0
PSCL3 PREFETCH  REQUESTED:          0  ISSUED:          0  USEFUL:          0  USELESS:          0
PSCL3 USEFUL LOAD PREFETCHES:          0 PREFETCH ISSUED TO LOWER LEVEL:          0  ACCURACY: -nan
PSCL3 TIMELY PREFETCHES:          0 LATE PREFETCHES: 0 DROPPED PREFETCHES: 0
PSCL3 COMMIT LATE PREFETCHES: 0 MISSED OPPORTUNITY: 0 LATE IN PQ: 0 UNCOVERED: 0
PSCL3 COMMIT LATE MSHR PREFETCHES: 0
PSCL3 MPKI TOTAL: 0 MSHR LATE: 0 PQ LATE: 0 COMMIT LATE: 0 MISSED OPPORTUNITY: 0 UNCOVERED: 0
PSCL3 PREFETCHES SAME FILL-ORIGIN LEVEL: 0 DIFFERENT FILL-ORIGIN LEVEL: 0

PSCL2 SPEC fills:          0  NON-SPEC fills:          0
PSCL2 Test counter :          0
PSCL2 Leapfrog:          0
PSCL2 MSHR merge:          0
PSCL2 TOTAL     ACCESS:          0  HIT:          0  MISS:          0  HIT %:       -nan  MISS %:       -nan   MPKI: 0
PSCL2 PREFETCH  REQUESTED:          0  ISSUED:          0  USEFUL:          0  USELESS:          0
PSCL2 USEFUL LOAD PREFETCHES:          0 PREFETCH ISSUED TO LOWER LEVEL:          0  ACCURACY: -nan
PSCL2 TIMELY PREFETCHES:          0 LATE PREFETCHES: 0 DROPPED PREFETCHES: 0
PSCL2 COMMIT LATE PREFETCHES: 0 MISSED OPPORTUNITY: 0 LATE IN PQ: 0 UNCOVERED: 0
PSCL2 COMMIT LATE MSHR PREFETCHES: 0
PSCL2 MPKI TOTAL: 0 MSHR LATE: 0 PQ LATE: 0 COMMIT LATE: 0 MISSED OPPORTUNITY: 0 UNCOVERED: 0
PSCL2 PREFETCHES SAME FILL-ORIGIN LEVEL: 0 DIFFERENT FILL-ORIGIN LEVEL: 0

LLC SPEC fills:          0  NON-SPEC fills:     332558
LLC Test counter :          0
LLC Leapfrog:          0
LLC MSHR merge:          0
LLC TOTAL     ACCESS:   21023856  HIT:   13042590  MISS:    7981266  HIT %:    62.0371  MISS %:    37.9629   MPKI: 39.9063
LLC LOAD      TOTAL       ACCESS:    6929796  HIT:    5152378  MISS:    1777418  HIT %:    74.3511  MISS %:    25.6489   MPKI: 8.88709
LLC LOAD      NON_SPEC    ACCESS:    2010197  HIT:    1677637  MISS:     332560  HIT %:    83.4563  MISS %:    16.5437   MPKI: 1.6628
LLC LOAD      SPEC        ACCESS:    4919599  HIT:    3474741  MISS:    1444858  HIT %:    70.6306  MISS %:    29.3694   MPKI: 7.22429
LLC RFO       NON_SPEC    ACCESS:     317294  HIT:     311812  MISS:       5482  HIT %:    98.2723  MISS %:    1.72774   MPKI: 0.02741
LLC PREFETCH  NON_SPEC    ACCESS:    8045321  HIT:    3192349  MISS:    4852972  HIT %:    39.6796  MISS %:    60.3204   MPKI: 24.2649
LLC WRITEBACK NON_SPEC    ACCESS:     464287  HIT:     460494  MISS:       3793  HIT %:     99.183  MISS %:   0.816952   MPKI: 0.018965
LLC CLEAN_EVICTION NON_SPEC    ACCESS:    5000323  HIT:    3697286  MISS:    1303037  HIT %:    73.9409  MISS %:    26.0591   MPKI: 6.51518
LLC COMMIT LOAD NON_SPEC    ACCESS:     228963  HIT:     207060  MISS:      21903  HIT %:    90.4338  MISS %:    9.56617   MPKI: 0.109515
LLC LOAD TRANSLATION NON_SPEC    ACCESS:      37872  HIT:      21211  MISS:      16661  HIT %:    56.0071  MISS %:    43.9929   MPKI: 0.083305
LLC PREFETCH  REQUESTED:          0  ISSUED:          0  USEFUL:     266898  USELESS:    4586046
LLC USEFUL LOAD PREFETCHES:     266898 PREFETCH ISSUED TO LOWER LEVEL:    4852972  ACCURACY: 5.49968
LLC TIMELY PREFETCHES:     266898 LATE PREFETCHES: 0 DROPPED PREFETCHES: 0
LLC COMMIT LATE PREFETCHES: 0 MISSED OPPORTUNITY: 0 LATE IN PQ: 0 UNCOVERED: 0
LLC COMMIT LATE MSHR PREFETCHES: 0
LLC MPKI TOTAL: 8.88709 MSHR LATE: 0 PQ LATE: 0 COMMIT LATE: 0 MISSED OPPORTUNITY: 0 UNCOVERED: 0
LLC PREFETCHES SAME FILL-ORIGIN LEVEL: 0 DIFFERENT FILL-ORIGIN LEVEL: 0
LLC AVERAGE MISS LATENCY: 149.009 cycles
LLC AVERAGE MISS LATENCY LOAD: 177.459 cycles
LLC AVERAGE MISS LATENCY PREFETCH: 178.403 cycles
LLC AVERAGE MSHR OCCUPANCY: 3.34859
LLC MSHR FULL: 0
LLC RQ	ACCESS:    7514050	FORWARD:          0	MERGED:          0	TO_CACHE:    7513925
LLC WQ	ACCESS:    5464610	FORWARD:        243	MERGED:          0	TO_CACHE:    5464610
LLC PQ	ACCESS:    8045439	FORWARD:          0	MERGED:          0	TO_CACHE:    8045321

LLC Dense regions hint to LLC: 0

RAW hits: 2269042
Loads Generated: 70652983
Loads sent to L1D: 68383939
Stores Generated: 17802933
Stores sent to L1D: 17802933
Major fault: 0 Minor fault: 80635
Allocated PAGES: 80635
Total Load insts: 84738017
Total Non-spec loads: 17377964
Percentage of speculative loads: 79.4921

LeapFrogging counter: 1971029
Commit hits: 33632607 miss: 18928273
Commit hit %: 63.9879 miss %: 36.0121
Commits not translated: 0
Loads retired: 13380800
Stores retired: 17802933
Cache fills: 13380800
L1D response latency: 49.7797 cycles
Load retirement latency: 165.497 cycles
OOO test counter: 0
Discarded buffer inserts: 33632607 hits: 32577 hit %: 0.0968614
Filter prediction accuracy: 99.7335
[Bingo] PHT Access: 7079194
[Bingo] PHT Hit PC+Addr: 977321
[Bingo] PHT Hit PC+Offs: 6095791
[Bingo] PHT Miss: 6082
[Bingo] Prefetch PC+Addr: 0
[Bingo] Prefetch PC+Offs: 0
[Bingo] Useful PC+Addr: 0
[Bingo] Useful PC+Offs: 0
[Bingo] Useless PC+Addr: 0
[Bingo] Useless PC+Offs: 0
[Bingo] L1 Prefetch per Region: 0
[Bingo] L2 Prefetch per Region: 2.45468
[Bingo] L3 Prefetch per Region: 0
[Bingo] No Prefetch per Region: 29.5453
[Bingo] Number of Voters Mean: 15.8879
[Bingo] Number of Voters SD: 6.30983
PHT read accesses: 105553656
PHT write accesses: 1069387
AT read accesses: 60939920
AT write accesses: 61614457
FT read accesses: 9527506
FT write accesses: 7079194
PS read accesses: 14821169
PS write accesses: 7073112
PHT tag read accesses: 131878028
PHT tag write accesses: 2046708
AT tag read accesses: 1416286416
AT tag write accesses: 62009305
FT tag read accesses: 649681944
FT tag write accesses: 12508586
PS tag read accesses: 1375604097
PS tag write accesses: 21817892

DRAM Statistics
 CHANNEL 0
 RQ ROW_BUFFER_HIT:    3271963  ROW_BUFFER_MISS:    3400379
 DBUS_CONGESTED:       1935
 WQ ROW_BUFFER_HIT:     406725  ROW_BUFFER_MISS:    1620502  FULL:        238

 AVG_CONGESTED_CYCLE: 4
 All warmup complete: 2
Channel 0 Bank busy for read cycles: 0
Channel 0 Bank busy for write cycles: 0
Channel 0
Rank 0
0banks busy for read cycles: 349784963
0banks busy for write cycles: 183208
1banks busy for read cycles: 114528386
1banks busy for write cycles: 27899000
2banks busy for read cycles: 53920082
2banks busy for write cycles: 15067471
3banks busy for read cycles: 23730552
3banks busy for write cycles: 11089903
4banks busy for read cycles: 11515960
4banks busy for write cycles: 9549177
5banks busy for read cycles: 7420013
5banks busy for write cycles: 9282020
6banks busy for read cycles: 6650489
6banks busy for write cycles: 10210977
7banks busy for read cycles: 10121423
7banks busy for write cycles: 12272201
8banks busy for read cycles: 23441588
8banks busy for write cycles: 13937804

CPU 0 Branch Prediction Accuracy: 94.5902% MPKI: 13.9808 Average ROB Occupancy at Mispredict: 25.6129
Branch types
NOT_BRANCH: 148312419 74.1562%
BRANCH_DIRECT_JUMP: 5836928 2.91846%
BRANCH_INDIRECT: 0 0%
BRANCH_CONDITIONAL: 38055866 19.0279%
BRANCH_DIRECT_CALL: 3647058 1.82353%
BRANCH_INDIRECT_CALL: 250202 0.125101%
BRANCH_RETURN: 3897263 1.94863%
BRANCH_OTHER: 0 0%

DRAM PAGES: 1048576
Allocated PAGES: 80635
