
*** ChampSim Multicore Out-of-Order Simulator ***

Warmup Instructions: 50000000
Simulation Instructions: 200000000
Number of CPUs: 1
LLC sets: 2048
LLC ways: 16
L0D sets: 16
L0D ways: 2
ROB size: 352
LQ size: 128
SQ size: 72
Secure Berti: OFF
Berti: OFF
Berti Fill: OFF
On commit prefetching: ON
Hit-based filter: ON
Time-guarding: ON
Free-slotting: ON
Leap-frogging: ON
Train prefetcher on L0D bypass: OFF
No translation penalty for prefetchers: OFF
Prefetch to L0D only: OFF
Prefetch to L1D only: OFF
Clean evictions: ON
Commit loads: ON
Commit write: ON
Fill commit loads to L2C, LLC: ON
DRAM IO FREQUENCY: 6400
ROB SIZE: 352
Off-chip DRAM Size: 4096 MB Channels: 1 Width: 64-bit Data Rate: 6400 MT/s
CPU 0 runs /home/sumon/secure_berti/GhostMinion/../../traces/spec/605.mcf_s-1536B.champsimtrace.xz
.xz
BTB has LRU replacement policy
ITLB has LRU replacement policy
DTLB has LRU replacement policy
STLB has LRU replacement policy
L1I has LRU replacement policy
L0D has LRU replacement policy
L1D has LRU replacement policy
Bingo PHT WAYS: 16 and PHT_SIZE: 16384
L2C has LRU replacement policy
LLC has LRU replacement policy
Heartbeat CPU 0 instructions: 10000003 cycles: 4515412 heartbeat IPC: 2.21464 cumulative IPC: 2.21464 (Simulation time: 0 hr 0 min 39 sec) 
Heartbeat CPU 0 instructions: 20000003 cycles: 9004288 heartbeat IPC: 2.22773 cumulative IPC: 2.22116 (Simulation time: 0 hr 1 min 18 sec) 
Heartbeat CPU 0 instructions: 30000001 cycles: 13524039 heartbeat IPC: 2.21251 cumulative IPC: 2.21827 (Simulation time: 0 hr 1 min 57 sec) 
Heartbeat CPU 0 instructions: 40000002 cycles: 18072657 heartbeat IPC: 2.19847 cumulative IPC: 2.21329 (Simulation time: 0 hr 2 min 37 sec) 
Heartbeat CPU 0 instructions: 50000003 cycles: 22653973 heartbeat IPC: 2.18278 cumulative IPC: 2.20712 (Simulation time: 0 hr 3 min 16 sec) 

Warmup complete CPU 0 instructions: 50000003 cycles: 22653973 (Simulation time: 0 hr 3 min 16 sec) 

Heartbeat CPU 0 instructions: 60000003 cycles: 76536395 heartbeat IPC: 0.185589 cumulative IPC: 0.185589 (Simulation time: 0 hr 4 min 37 sec) 
Heartbeat CPU 0 instructions: 70000003 cycles: 130718139 heartbeat IPC: 0.184564 cumulative IPC: 0.185075 (Simulation time: 0 hr 6 min 3 sec) 
Heartbeat CPU 0 instructions: 80000001 cycles: 184820690 heartbeat IPC: 0.184834 cumulative IPC: 0.184995 (Simulation time: 0 hr 7 min 33 sec) 
Heartbeat CPU 0 instructions: 90000000 cycles: 239122792 heartbeat IPC: 0.184155 cumulative IPC: 0.184784 (Simulation time: 0 hr 9 min 5 sec) 
Heartbeat CPU 0 instructions: 100000002 cycles: 293193026 heartbeat IPC: 0.184945 cumulative IPC: 0.184816 (Simulation time: 0 hr 10 min 38 sec) 
Heartbeat CPU 0 instructions: 110000000 cycles: 347349043 heartbeat IPC: 0.184652 cumulative IPC: 0.184789 (Simulation time: 0 hr 12 min 12 sec) 
Heartbeat CPU 0 instructions: 120000000 cycles: 401765860 heartbeat IPC: 0.183767 cumulative IPC: 0.184642 (Simulation time: 0 hr 13 min 46 sec) 
Heartbeat CPU 0 instructions: 130000003 cycles: 456044107 heartbeat IPC: 0.184236 cumulative IPC: 0.184591 (Simulation time: 0 hr 15 min 16 sec) 
Heartbeat CPU 0 instructions: 140000003 cycles: 510226792 heartbeat IPC: 0.184561 cumulative IPC: 0.184588 (Simulation time: 0 hr 16 min 37 sec) 
Heartbeat CPU 0 instructions: 150000001 cycles: 563858734 heartbeat IPC: 0.186456 cumulative IPC: 0.184773 (Simulation time: 0 hr 17 min 52 sec) 
Heartbeat CPU 0 instructions: 160000000 cycles: 617159789 heartbeat IPC: 0.187614 cumulative IPC: 0.185028 (Simulation time: 0 hr 19 min 2 sec) 
Heartbeat CPU 0 instructions: 170000002 cycles: 670206143 heartbeat IPC: 0.188514 cumulative IPC: 0.185313 (Simulation time: 0 hr 20 min 7 sec) 
Heartbeat CPU 0 instructions: 180000001 cycles: 722628185 heartbeat IPC: 0.190759 cumulative IPC: 0.185721 (Simulation time: 0 hr 21 min 11 sec) 
Heartbeat CPU 0 instructions: 190000000 cycles: 774975192 heartbeat IPC: 0.191033 cumulative IPC: 0.186091 (Simulation time: 0 hr 22 min 15 sec) 
Heartbeat CPU 0 instructions: 200000003 cycles: 827126941 heartbeat IPC: 0.191748 cumulative IPC: 0.186457 (Simulation time: 0 hr 23 min 18 sec) 
Heartbeat CPU 0 instructions: 210000000 cycles: 879160921 heartbeat IPC: 0.192182 cumulative IPC: 0.186805 (Simulation time: 0 hr 24 min 19 sec) 
Heartbeat CPU 0 instructions: 220000000 cycles: 931302985 heartbeat IPC: 0.191784 cumulative IPC: 0.187091 (Simulation time: 0 hr 25 min 20 sec) 
Heartbeat CPU 0 instructions: 230000000 cycles: 983800745 heartbeat IPC: 0.190484 cumulative IPC: 0.187276 (Simulation time: 0 hr 26 min 21 sec) 
Heartbeat CPU 0 instructions: 240000002 cycles: 1036416473 heartbeat IPC: 0.190057 cumulative IPC: 0.187421 (Simulation time: 0 hr 27 min 21 sec) 
Heartbeat CPU 0 instructions: 250000001 cycles: 1089115937 heartbeat IPC: 0.189755 cumulative IPC: 0.187536 (Simulation time: 0 hr 28 min 22 sec) 
Finished CPU 0 instructions: 200000002 cycles: 1066461965 cumulative IPC: 0.187536 (Simulation time: 0 hr 28 min 22 sec) 
 Instruction ID: 250000381

ChampSim completed all CPUs

Region of Interest Statistics

CPU 0 cumulative IPC: 0.187536 instructions: 200000002 cycles: 1066461965
ITLB SPEC fills:          0  NON-SPEC fills:          0
ITLB Test counter :          0
ITLB Leapfrog:          0
ITLB MSHR merge:          0
ITLB TOTAL     ACCESS:   38145170  HIT:   38145170  MISS:          0  HIT %:        100  MISS %:          0   MPKI: 0
ITLB LOAD TRANSLATION NON_SPEC    ACCESS:   38145170  HIT:   38145170  MISS:          0  HIT %:        100  MISS %:          0   MPKI: 0
ITLB PREFETCH  REQUESTED:          0  ISSUED:          0  USEFUL:          0  USELESS:          0
ITLB USEFUL LOAD PREFETCHES:          0 PREFETCH ISSUED TO LOWER LEVEL:          0  ACCURACY: -nan
ITLB TIMELY PREFETCHES:          0 LATE PREFETCHES: 0 DROPPED PREFETCHES: 0
ITLB COMMIT LATE PREFETCHES: 0 MISSED OPPORTUNITY: 0 LATE IN PQ: 0 UNCOVERED: 0
ITLB COMMIT LATE MSHR PREFETCHES: 0
ITLB MPKI TOTAL: 0 MSHR LATE: 0 PQ LATE: 0 COMMIT LATE: 0 MISSED OPPORTUNITY: 0 UNCOVERED: 0
ITLB PREFETCHES SAME FILL-ORIGIN LEVEL: 0 DIFFERENT FILL-ORIGIN LEVEL: 0
ITLB AVERAGE MISS LATENCY: -nan cycles
ITLB AVERAGE MISS LATENCY LOAD: -nan cycles
ITLB AVERAGE MISS LATENCY PREFETCH: -nan cycles
ITLB AVERAGE MSHR OCCUPANCY: 0
ITLB MSHR FULL: 0
ITLB RQ	ACCESS:   39393975	FORWARD:          0	MERGED:    1248805	TO_CACHE:   38145170

DTLB SPEC fills:          0  NON-SPEC fills:          0
DTLB Test counter :          0
DTLB Leapfrog:          0
DTLB MSHR merge:          0
DTLB TOTAL     ACCESS:   33806502  HIT:   28932161  MISS:    4874341  HIT %:    85.5816  MISS %:    14.4184   MPKI: 24.3717
DTLB LOAD TRANSLATION NON_SPEC    ACCESS:   33806502  HIT:   28932161  MISS:    4874341  HIT %:    85.5816  MISS %:    14.4184   MPKI: 24.3717
DTLB PREFETCH  REQUESTED:          0  ISSUED:          0  USEFUL:          0  USELESS:          0
DTLB USEFUL LOAD PREFETCHES:          0 PREFETCH ISSUED TO LOWER LEVEL:          0  ACCURACY: -nan
DTLB TIMELY PREFETCHES:          0 LATE PREFETCHES: 0 DROPPED PREFETCHES: 0
DTLB COMMIT LATE PREFETCHES: 0 MISSED OPPORTUNITY: 0 LATE IN PQ: 0 UNCOVERED: 0
DTLB COMMIT LATE MSHR PREFETCHES: 0
DTLB MPKI TOTAL: 0 MSHR LATE: 0 PQ LATE: 0 COMMIT LATE: 0 MISSED OPPORTUNITY: 0 UNCOVERED: 0
DTLB PREFETCHES SAME FILL-ORIGIN LEVEL: 0 DIFFERENT FILL-ORIGIN LEVEL: 0
DTLB AVERAGE MISS LATENCY: 130.326 cycles
DTLB AVERAGE MISS LATENCY LOAD: -nan cycles
DTLB AVERAGE MISS LATENCY PREFETCH: -nan cycles
DTLB AVERAGE MSHR OCCUPANCY: 0.484104
DTLB MSHR FULL: 0
DTLB RQ	ACCESS:   38803107	FORWARD:          0	MERGED:    4956201	TO_CACHE:   33846906

STLB SPEC fills:          0  NON-SPEC fills:          0
STLB Test counter :          0
STLB Leapfrog:          0
STLB MSHR merge:          0
STLB TOTAL     ACCESS:    4874341  HIT:     229543  MISS:    4644798  HIT %:    4.70921  MISS %:    95.2908   MPKI: 23.224
STLB LOAD TRANSLATION NON_SPEC    ACCESS:    4874341  HIT:     229543  MISS:    4644798  HIT %:    4.70921  MISS %:    95.2908   MPKI: 23.224
STLB PREFETCH  REQUESTED:          0  ISSUED:          0  USEFUL:          0  USELESS:          0
STLB USEFUL LOAD PREFETCHES:          0 PREFETCH ISSUED TO LOWER LEVEL:          0  ACCURACY: -nan
STLB TIMELY PREFETCHES:          0 LATE PREFETCHES: 0 DROPPED PREFETCHES: 0
STLB COMMIT LATE PREFETCHES: 0 MISSED OPPORTUNITY: 0 LATE IN PQ: 0 UNCOVERED: 0
STLB COMMIT LATE MSHR PREFETCHES: 0
STLB MPKI TOTAL: 0 MSHR LATE: 0 PQ LATE: 0 COMMIT LATE: 0 MISSED OPPORTUNITY: 0 UNCOVERED: 0
STLB PREFETCHES SAME FILL-ORIGIN LEVEL: 0 DIFFERENT FILL-ORIGIN LEVEL: 0
STLB AVERAGE MISS LATENCY: 127.303 cycles
STLB AVERAGE MISS LATENCY LOAD: -nan cycles
STLB AVERAGE MISS LATENCY PREFETCH: -nan cycles
STLB AVERAGE MSHR OCCUPANCY: 0.468953
STLB MSHR FULL: 0
STLB RQ	ACCESS:    4874340	FORWARD:          0	MERGED:          0	TO_CACHE:    4874340

STLB Hit, L1D data hit: 0
STLB Hit, L2C data hit: 0
STLB Hit, LLC data hit: 0
STLB Hit, LLC data miss: 0
STLB STLB hints to L2: 0
L0D SPEC fills:   19619969  NON-SPEC fills:          0
L0D TimeGuard Request with older TS:     631015 Restricted eviction:       8011 read:    2484827
L0D Test counter :          0
L0D Leapfrog:          0
L0D MSHR merge:     892161
L0D TOTAL     ACCESS:   29042535  HIT:    1858481  MISS:   27184054  HIT %:    6.39917  MISS %:    93.6008   MPKI: 135.92
L0D LOAD      TOTAL       ACCESS:   29042535  HIT:    1858481  MISS:   27184054  HIT %:    6.39917  MISS %:    93.6008   MPKI: 135.92
L0D LOAD      NON_SPEC    ACCESS:    7888006  HIT:     331932  MISS:    7556074  HIT %:    4.20806  MISS %:    95.7919   MPKI: 37.7804
L0D LOAD      SPEC        ACCESS:   21154529  HIT:    1526549  MISS:   19627980  HIT %:    7.21618  MISS %:    92.7838   MPKI: 98.1399
L0D PREFETCH  REQUESTED:          0  ISSUED:          0  USEFUL:          0  USELESS:          0
L0D USEFUL LOAD PREFETCHES:          0 PREFETCH ISSUED TO LOWER LEVEL:          0  ACCURACY: -nan
L0D TIMELY PREFETCHES:          0 LATE PREFETCHES: 0 DROPPED PREFETCHES: 0
L0D COMMIT LATE PREFETCHES: 0 MISSED OPPORTUNITY: 0 LATE IN PQ: 0 UNCOVERED: 0
L0D COMMIT LATE MSHR PREFETCHES: 0
L0D MPKI TOTAL: 140.381 MSHR LATE: 0 PQ LATE: 0 COMMIT LATE: 0 MISSED OPPORTUNITY: 0 UNCOVERED: 0
L0D PREFETCHES SAME FILL-ORIGIN LEVEL: 0 DIFFERENT FILL-ORIGIN LEVEL: 0
L0D AVERAGE MISS LATENCY: 43.5809 cycles
L0D AVERAGE MISS LATENCY LOAD: 43.5809 cycles
L0D AVERAGE MISS LATENCY PREFETCH: -nan cycles
L0D AVERAGE MSHR OCCUPANCY: 0.874614
L0D MSHR FULL: 0
L0D RQ	ACCESS:   49149997	FORWARD:          0	MERGED:   19215304	TO_CACHE:   29934693
L0D WQ	ACCESS:    8868414	FORWARD:          0	MERGED:          0	TO_CACHE:    8868414

L1D SPEC fills:          0  NON-SPEC fills:    3601063
L1D Test counter :          0
L1D Leapfrog:          0
L1D MSHR merge:        716
L1D TOTAL     ACCESS:   50887977  HIT:   32832988  MISS:   18054989  HIT %:    64.5201  MISS %:    35.4799   MPKI: 90.2749
L1D LOAD      TOTAL       ACCESS:   27183338  HIT:   16628387  MISS:   10554951  HIT %:    61.1712  MISS %:    38.8288   MPKI: 52.7748
L1D LOAD      NON_SPEC    ACCESS:    7556034  HIT:    3954971  MISS:    3601063  HIT %:    52.3419  MISS %:    47.6581   MPKI: 18.0053
L1D LOAD      SPEC        ACCESS:   19627304  HIT:   12673416  MISS:    6953888  HIT %:    64.5703  MISS %:    35.4297   MPKI: 34.7694
L1D RFO       NON_SPEC    ACCESS:    8867579  HIT:    8313232  MISS:     554347  HIT %:    93.7486  MISS %:    6.25139   MPKI: 2.77173
L1D COMMIT LOAD NON_SPEC    ACCESS:    7884513  HIT:    7877840  MISS:       6673  HIT %:    99.9154  MISS %:  0.0846343   MPKI: 0.033365
L1D COMMIT WRITE NON_SPEC    ACCESS:    6952547  HIT:      13529  MISS:    6939018  HIT %:   0.194591  MISS %:    99.8054   MPKI: 34.6951
L1D PREFETCH  REQUESTED:          0  ISSUED:          0  USEFUL:          0  USELESS:          0
L1D USEFUL LOAD PREFETCHES:          0 PREFETCH ISSUED TO LOWER LEVEL:          0  ACCURACY: -nan
L1D TIMELY PREFETCHES:          0 LATE PREFETCHES: 0 DROPPED PREFETCHES: 0
L1D COMMIT LATE PREFETCHES: 0 MISSED OPPORTUNITY: 0 LATE IN PQ: 0 UNCOVERED: 0
L1D COMMIT LATE MSHR PREFETCHES: 0
L1D MPKI TOTAL: 52.7783 MSHR LATE: 0 PQ LATE: 0 COMMIT LATE: 0 MISSED OPPORTUNITY: 0 UNCOVERED: 0
L1D PREFETCHES SAME FILL-ORIGIN LEVEL: 0 DIFFERENT FILL-ORIGIN LEVEL: 0
L1D AVERAGE MISS LATENCY: 58.4278 cycles
L1D AVERAGE MISS LATENCY LOAD: 99.0101 cycles
L1D AVERAGE MISS LATENCY PREFETCH: -nan cycles
L1D AVERAGE MSHR OCCUPANCY: 0.682279
L1D MSHR FULL: 0
L1D RQ	ACCESS:   37961266	FORWARD:          0	MERGED:    2892159	TO_CACHE:   35069107
L1D WQ	ACCESS:   15820960	FORWARD:          0	MERGED:          0	TO_CACHE:   15820960

L1D UNIQUE REGIONS ACCESSED: 0
L1D REGIONS CONFLICTS: 0
L1D Cross Page Prefetch Requests: 0
L1D Same Page Prefetch Requests: 0
L1D ROI Sum of L1D PQ occupancy: 0
L1D PREFETCHES PUSHED FROM L2C: 0
L1I SPEC fills:          0  NON-SPEC fills:          0
L1I Test counter :          0
L1I Leapfrog:          0
L1I MSHR merge:          0
L1I TOTAL     ACCESS:   39393973  HIT:   39393973  MISS:          0  HIT %:        100  MISS %:          0   MPKI: 0
L1I LOAD      TOTAL       ACCESS:   39393973  HIT:   39393973  MISS:          0  HIT %:        100  MISS %:          0   MPKI: 0
L1I LOAD      NON_SPEC    ACCESS:   39393973  HIT:   39393973  MISS:          0  HIT %:        100  MISS %:          0   MPKI: 0
L1I PREFETCH  REQUESTED:          0  ISSUED:          0  USEFUL:          0  USELESS:          0
L1I USEFUL LOAD PREFETCHES:          0 PREFETCH ISSUED TO LOWER LEVEL:          0  ACCURACY: -nan
L1I TIMELY PREFETCHES:          0 LATE PREFETCHES: 0 DROPPED PREFETCHES: 0
L1I COMMIT LATE PREFETCHES: 0 MISSED OPPORTUNITY: 0 LATE IN PQ: 0 UNCOVERED: 0
L1I COMMIT LATE MSHR PREFETCHES: 0
L1I MPKI TOTAL: 0 MSHR LATE: 0 PQ LATE: 0 COMMIT LATE: 0 MISSED OPPORTUNITY: 0 UNCOVERED: 0
L1I PREFETCHES SAME FILL-ORIGIN LEVEL: 0 DIFFERENT FILL-ORIGIN LEVEL: 0
L1I AVERAGE MISS LATENCY: -nan cycles
L1I AVERAGE MISS LATENCY LOAD: -nan cycles
L1I AVERAGE MISS LATENCY PREFETCH: -nan cycles
L1I AVERAGE MSHR OCCUPANCY: 0
L1I MSHR FULL: 0
L1I RQ	ACCESS:   61021893	FORWARD:          0	MERGED:   21627918	TO_CACHE:   39393975

BTB SPEC fills:          0  NON-SPEC fills:          0
BTB Test counter :          0
BTB Leapfrog:          0
BTB MSHR merge:          0
BTB TOTAL     ACCESS:   26649158  HIT:   26649150  MISS:          8  HIT %:        100  MISS %: 3.00197e-05   MPKI: 4e-05
BTB BRANCH_DIRECT_JUMP	ACCESS:    4549688  HIT:    4549686  MISS:          2
BTB BRANCH_INDIRECT	ACCESS:          0  HIT:          0  MISS:          0
BTB BRANCH_CONDITIONAL	ACCESS:   13231060  HIT:   13231056  MISS:          4
BTB BRANCH_DIRECT_CALL	ACCESS:    4434205  HIT:    4434204  MISS:          1
BTB BRANCH_INDIRECT_CALL	ACCESS:          0  HIT:          0  MISS:          0
BTB BRANCH_RETURN	ACCESS:    4434205  HIT:    4434204  MISS:          1
BTB BRANCH_OTHER ACCESS:          0  HIT:          0  MISS:          0

L2C SPEC fills:          0  NON-SPEC fills:     918619
L2C Test counter :          0
L2C Leapfrog:          0
L2C MSHR merge:      37133
L2C TOTAL     ACCESS:   51965955  HIT:   30101939  MISS:   21864016  HIT %:    57.9263  MISS %:    42.0737   MPKI: 109.32
L2C LOAD      TOTAL       ACCESS:   10553887  HIT:    3859534  MISS:    6694353  HIT %:    36.5698  MISS %:    63.4302   MPKI: 33.4718
L2C LOAD      NON_SPEC    ACCESS:    3601062  HIT:    2682443  MISS:     918619  HIT %:    74.4903  MISS %:    25.5097   MPKI: 4.59309
L2C LOAD      SPEC        ACCESS:    6952825  HIT:    1177091  MISS:    5775734  HIT %:    16.9297  MISS %:    83.0703   MPKI: 28.8787
L2C RFO       NON_SPEC    ACCESS:     554347  HIT:     474083  MISS:      80264  HIT %:     85.521  MISS %:     14.479   MPKI: 0.40132
L2C PREFETCH  NON_SPEC    ACCESS:   10821776  HIT:    4371652  MISS:    6450124  HIT %:    40.3968  MISS %:    59.6032   MPKI: 32.2506
L2C WRITEBACK NON_SPEC    ACCESS:     719234  HIT:     719216  MISS:         18  HIT %:    99.9975  MISS %: 0.00250266   MPKI: 9e-05
L2C CLEAN_EVICTION NON_SPEC    ACCESS:    6086053  HIT:    1584081  MISS:    4501972  HIT %:    26.0281  MISS %:    73.9719   MPKI: 22.5099
L2C COMMIT LOAD NON_SPEC    ACCESS:       6673  HIT:       5035  MISS:       1638  HIT %:    75.4533  MISS %:    24.5467   MPKI: 0.00819
L2C LOAD TRANSLATION NON_SPEC    ACCESS:   23223985  HIT:   19088338  MISS:    4135647  HIT %:    82.1923  MISS %:    17.8077   MPKI: 20.6782
L2C PREFETCH  REQUESTED:   11005826  ISSUED:   11005826  USEFUL:    1344468  USELESS:    5104023
L2C USEFUL LOAD PREFETCHES:    1344468 PREFETCH ISSUED TO LOWER LEVEL:    6561584  ACCURACY: 20.49
L2C TIMELY PREFETCHES:    1344468 LATE PREFETCHES: 111460 DROPPED PREFETCHES: 0
L2C COMMIT LATE PREFETCHES: 0 MISSED OPPORTUNITY: 0 LATE IN PQ: 0 UNCOVERED: 0
L2C COMMIT LATE MSHR PREFETCHES: 0
L2C MPKI TOTAL: 33.4718 MSHR LATE: 0.5573 PQ LATE: 0 COMMIT LATE: 0 MISSED OPPORTUNITY: 0 UNCOVERED: 0
L2C PREFETCHES SAME FILL-ORIGIN LEVEL: 6561584 DIFFERENT FILL-ORIGIN LEVEL: 0
L2C AVERAGE MISS LATENCY: 59.649 cycles
L2C AVERAGE MISS LATENCY LOAD: 136.429 cycles
L2C AVERAGE MISS LATENCY PREFETCH: 40.5906 cycles
L2C AVERAGE MSHR OCCUPANCY: 0.872768
L2C MSHR FULL: 2.91215e-08
L2C RQ	ACCESS:   34339956	FORWARD:          0	MERGED:          0	TO_CACHE:   34338892
L2C WQ	ACCESS:    6805287	FORWARD:       1064	MERGED:          0	TO_CACHE:    6805287
L2C PQ	ACCESS:   11005826	FORWARD:          0	MERGED:          1	TO_CACHE:   11005825

L2C Instructions Evicting Data 0
L2C Translations Evicting Data 2792747
L2C Data Evicting Data 5645999
L2C Instructions Evicting Instructions 0
L2C Translations Evicting Instructions 0
L2C Data Evicting Instructions 0
L2C Instructions Evicting Translations 0
L2C Translations Evicting Translations 1342900
L2C Data Evicting Translations 1804646
L2C Dense regions hint from L2: 0
PSCL5 SPEC fills:          0  NON-SPEC fills:          0
PSCL5 Test counter :          0
PSCL5 Leapfrog:          0
PSCL5 MSHR merge:          0
PSCL5 TOTAL     ACCESS:          0  HIT:          0  MISS:          0  HIT %:       -nan  MISS %:       -nan   MPKI: 0
PSCL5 PREFETCH  REQUESTED:          0  ISSUED:          0  USEFUL:          0  USELESS:          0
PSCL5 USEFUL LOAD PREFETCHES:          0 PREFETCH ISSUED TO LOWER LEVEL:          0  ACCURACY: -nan
PSCL5 TIMELY PREFETCHES:          0 LATE PREFETCHES: 0 DROPPED PREFETCHES: 0
PSCL5 COMMIT LATE PREFETCHES: 0 MISSED OPPORTUNITY: 0 LATE IN PQ: 0 UNCOVERED: 0
PSCL5 COMMIT LATE MSHR PREFETCHES: 0
PSCL5 MPKI TOTAL: 0 MSHR LATE: 0 PQ LATE: 0 COMMIT LATE: 0 MISSED OPPORTUNITY: 0 UNCOVERED: 0
PSCL5 PREFETCHES SAME FILL-ORIGIN LEVEL: 0 DIFFERENT FILL-ORIGIN LEVEL: 0

PSCL4 SPEC fills:          0  NON-SPEC fills:          0
PSCL4 Test counter :          0
PSCL4 Leapfrog:          0
PSCL4 MSHR merge:          0
PSCL4 TOTAL     ACCESS:          0  HIT:          0  MISS:          0  HIT %:       -nan  MISS %:       -nan   MPKI: 0
PSCL4 PREFETCH  REQUESTED:          0  ISSUED:          0  USEFUL:          0  USELESS:          0
PSCL4 USEFUL LOAD PREFETCHES:          0 PREFETCH ISSUED TO LOWER LEVEL:          0  ACCURACY: -nan
PSCL4 TIMELY PREFETCHES:          0 LATE PREFETCHES: 0 DROPPED PREFETCHES: 0
PSCL4 COMMIT LATE PREFETCHES: 0 MISSED OPPORTUNITY: 0 LATE IN PQ: 0 UNCOVERED: 0
PSCL4 COMMIT LATE MSHR PREFETCHES: 0
PSCL4 MPKI TOTAL: 0 MSHR LATE: 0 PQ LATE: 0 COMMIT LATE: 0 MISSED OPPORTUNITY: 0 UNCOVERED: 0
PSCL4 PREFETCHES SAME FILL-ORIGIN LEVEL: 0 DIFFERENT FILL-ORIGIN LEVEL: 0

PSCL3 SPEC fills:          0  NON-SPEC fills:          0
PSCL3 Test counter :          0
PSCL3 Leapfrog:          0
PSCL3 MSHR merge:          0
PSCL3 TOTAL     ACCESS:          0  HIT:          0  MISS:          0  HIT %:       -nan  MISS %:       -nan   MPKI: 0
PSCL3 PREFETCH  REQUESTED:          0  ISSUED:          0  USEFUL:          0  USELESS:          0
PSCL3 USEFUL LOAD PREFETCHES:          0 PREFETCH ISSUED TO LOWER LEVEL:          0  ACCURACY: -nan
PSCL3 TIMELY PREFETCHES:          0 LATE PREFETCHES: 0 DROPPED PREFETCHES: 0
PSCL3 COMMIT LATE PREFETCHES: 0 MISSED OPPORTUNITY: 0 LATE IN PQ: 0 UNCOVERED: 0
PSCL3 COMMIT LATE MSHR PREFETCHES: 0
PSCL3 MPKI TOTAL: 0 MSHR LATE: 0 PQ LATE: 0 COMMIT LATE: 0 MISSED OPPORTUNITY: 0 UNCOVERED: 0
PSCL3 PREFETCHES SAME FILL-ORIGIN LEVEL: 0 DIFFERENT FILL-ORIGIN LEVEL: 0

PSCL2 SPEC fills:          0  NON-SPEC fills:          0
PSCL2 Test counter :          0
PSCL2 Leapfrog:          0
PSCL2 MSHR merge:          0
PSCL2 TOTAL     ACCESS:          0  HIT:          0  MISS:          0  HIT %:       -nan  MISS %:       -nan   MPKI: 0
PSCL2 PREFETCH  REQUESTED:          0  ISSUED:          0  USEFUL:          0  USELESS:          0
PSCL2 USEFUL LOAD PREFETCHES:          0 PREFETCH ISSUED TO LOWER LEVEL:          0  ACCURACY: -nan
PSCL2 TIMELY PREFETCHES:          0 LATE PREFETCHES: 0 DROPPED PREFETCHES: 0
PSCL2 COMMIT LATE PREFETCHES: 0 MISSED OPPORTUNITY: 0 LATE IN PQ: 0 UNCOVERED: 0
PSCL2 COMMIT LATE MSHR PREFETCHES: 0
PSCL2 MPKI TOTAL: 0 MSHR LATE: 0 PQ LATE: 0 COMMIT LATE: 0 MISSED OPPORTUNITY: 0 UNCOVERED: 0
PSCL2 PREFETCHES SAME FILL-ORIGIN LEVEL: 0 DIFFERENT FILL-ORIGIN LEVEL: 0

LLC SPEC fills:          0  NON-SPEC fills:     314982
LLC Test counter :          0
LLC Leapfrog:          0
LLC MSHR merge:          0
LLC TOTAL     ACCESS:   23727060  HIT:   13889550  MISS:    9837510  HIT %:    58.5389  MISS %:    41.4611   MPKI: 49.1875
LLC LOAD      TOTAL       ACCESS:    6657196  HIT:    1662088  MISS:    4995108  HIT %:    24.9668  MISS %:    75.0332   MPKI: 24.9755
LLC LOAD      NON_SPEC    ACCESS:     911996  HIT:     597014  MISS:     314982  HIT %:    65.4623  MISS %:    34.5377   MPKI: 1.57491
LLC LOAD      SPEC        ACCESS:    5745200  HIT:    1065074  MISS:    4680126  HIT %:    18.5385  MISS %:    81.4615   MPKI: 23.4006
LLC RFO       NON_SPEC    ACCESS:       6652  HIT:       6651  MISS:          1  HIT %:     99.985  MISS %:  0.0150331   MPKI: 5e-06
LLC PREFETCH  NON_SPEC    ACCESS:    6561548  HIT:    5955413  MISS:     606135  HIT %:    90.7623  MISS %:    9.23768   MPKI: 3.03067
LLC WRITEBACK NON_SPEC    ACCESS:     569075  HIT:     569075  MISS:          0  HIT %:        100  MISS %:          0   MPKI: 0
LLC CLEAN_EVICTION NON_SPEC    ACCESS:    5796019  HIT:    1575936  MISS:    4220083  HIT %:      27.19  MISS %:      72.81   MPKI: 21.1004
LLC COMMIT LOAD NON_SPEC    ACCESS:        923  HIT:        347  MISS:        576  HIT %:    37.5948  MISS %:    62.4052   MPKI: 0.00288
LLC LOAD TRANSLATION NON_SPEC    ACCESS:    4135647  HIT:    4120040  MISS:      15607  HIT %:    99.6226  MISS %:   0.377377   MPKI: 0.078035
LLC PREFETCH  REQUESTED:          0  ISSUED:          0  USEFUL:       4655  USELESS:     599790
LLC USEFUL LOAD PREFETCHES:       4655 PREFETCH ISSUED TO LOWER LEVEL:     606135  ACCURACY: 0.767981
LLC TIMELY PREFETCHES:       4655 LATE PREFETCHES: 0 DROPPED PREFETCHES: 0
LLC COMMIT LATE PREFETCHES: 0 MISSED OPPORTUNITY: 0 LATE IN PQ: 0 UNCOVERED: 0
LLC COMMIT LATE MSHR PREFETCHES: 0
LLC MPKI TOTAL: 24.9755 MSHR LATE: 0 PQ LATE: 0 COMMIT LATE: 0 MISSED OPPORTUNITY: 0 UNCOVERED: 0
LLC PREFETCHES SAME FILL-ORIGIN LEVEL: 0 DIFFERENT FILL-ORIGIN LEVEL: 0
LLC AVERAGE MISS LATENCY: 84.8318 cycles
LLC AVERAGE MISS LATENCY LOAD: 152.449 cycles
LLC AVERAGE MISS LATENCY PREFETCH: 115.753 cycles
LLC AVERAGE MSHR OCCUPANCY: 0.688224
LLC MSHR FULL: 0
LLC RQ	ACCESS:   10800442	FORWARD:          0	MERGED:          0	TO_CACHE:   10800418
LLC WQ	ACCESS:    6365094	FORWARD:         60	MERGED:          0	TO_CACHE:    6365094
LLC PQ	ACCESS:    6561584	FORWARD:          0	MERGED:          0	TO_CACHE:    6561548

LLC Dense regions hint to LLC: 0

RAW hits: 4058722
Loads Generated: 53208719
Loads sent to L1D: 49149997
Stores Generated: 8868414
Stores sent to L1D: 8868414
Major fault: 0 Minor fault: 101164
Allocated PAGES: 101164
Total Load insts: 61390419
Total Non-spec loads: 9352417
Percentage of speculative loads: 84.7657

LeapFrogging counter: 0
Commit hits: 19261263 miss: 21915841
Commit hit %: 46.7766 miss %: 53.2234
Commits not translated: 0
Loads retired: 10554951
Stores retired: 8868414
Cache fills: 10554951
L1D response latency: 99.0101 cycles
Load retirement latency: 229.736 cycles
OOO test counter: 0
Discarded buffer inserts: 19261263 hits: 11282 hit %: 0.0585735
Filter prediction accuracy: 97.5956
[Bingo] PHT Access: 5260589
[Bingo] PHT Hit PC+Addr: 335406
[Bingo] PHT Hit PC+Offs: 4734429
[Bingo] PHT Miss: 190754
[Bingo] Prefetch PC+Addr: 0
[Bingo] Prefetch PC+Offs: 0
[Bingo] Useful PC+Addr: 0
[Bingo] Useful PC+Offs: 0
[Bingo] Useless PC+Addr: 0
[Bingo] Useless PC+Offs: 0
[Bingo] L1 Prefetch per Region: 0
[Bingo] L2 Prefetch per Region: 3.1737
[Bingo] L3 Prefetch per Region: 0
[Bingo] No Prefetch per Region: 28.8263
[Bingo] Number of Voters Mean: 15.9998
[Bingo] Number of Voters SD: 7.86273
PHT read accesses: 79324432
PHT write accesses: 2285292
AT read accesses: 32596374
AT write accesses: 34662656
FT read accesses: 38038209
FT write accesses: 5260589
PS read accesses: 10254889
PS write accesses: 5069835
PHT tag read accesses: 149327942
PHT tag write accesses: 2620698
AT tag read accesses: 1216805494
AT tag write accesses: 34881667
FT tag read accesses: 815039393
FT tag write accesses: 25442735
PS tag read accesses: 1020217664
PS tag write accesses: 15320405

DRAM Statistics
 CHANNEL 0
 RQ ROW_BUFFER_HIT:     414536  ROW_BUFFER_MISS:    5202890
 DBUS_CONGESTED:        355
 WQ ROW_BUFFER_HIT:    1466391  ROW_BUFFER_MISS:    3504212  FULL:       2152

 AVG_CONGESTED_CYCLE: 6
 All warmup complete: 2
Channel 0 Bank busy for read cycles: 0
Channel 0 Bank busy for write cycles: 0
Channel 0
Rank 0
0banks busy for read cycles: 80294767
0banks busy for write cycles: 682552
1banks busy for read cycles: 433664251
1banks busy for write cycles: 114796008
2banks busy for read cycles: 135724971
2banks busy for write cycles: 93473781
3banks busy for read cycles: 29025640
3banks busy for write cycles: 67807913
4banks busy for read cycles: 884985
4banks busy for write cycles: 47568915
5banks busy for read cycles: 295887
5banks busy for write cycles: 30858232
6banks busy for read cycles: 254765
6banks busy for write cycles: 17806698
7banks busy for read cycles: 222072
7banks busy for write cycles: 8837961
8banks busy for read cycles: 142712
8banks busy for write cycles: 4119856

CPU 0 Branch Prediction Accuracy: 99.988% MPKI: 0.01864 Average ROB Occupancy at Mispredict: 327.642
Branch types
NOT_BRANCH: 168845084 84.4225%
BRANCH_DIRECT_JUMP: 4549688 2.27484%
BRANCH_INDIRECT: 0 0%
BRANCH_CONDITIONAL: 17736819 8.86841%
BRANCH_DIRECT_CALL: 4434205 2.2171%
BRANCH_INDIRECT_CALL: 0 0%
BRANCH_RETURN: 4434205 2.2171%
BRANCH_OTHER: 0 0%

DRAM PAGES: 1048576
Allocated PAGES: 101164
