
*** ChampSim Multicore Out-of-Order Simulator ***

Warmup Instructions: 50000000
Simulation Instructions: 200000000
Number of CPUs: 1
LLC sets: 2048
LLC ways: 16
L0D sets: 16
L0D ways: 2
ROB size: 352
LQ size: 128
SQ size: 72
Secure Berti: OFF
Berti: OFF
Berti Fill: OFF
On commit prefetching: ON
Hit-based filter: ON
Time-guarding: ON
Free-slotting: ON
Leap-frogging: ON
Train prefetcher on L0D bypass: OFF
No translation penalty for prefetchers: OFF
Prefetch to L0D only: OFF
Prefetch to L1D only: OFF
Clean evictions: ON
Commit loads: ON
Commit write: ON
Fill commit loads to L2C, LLC: ON
DRAM IO FREQUENCY: 6400
ROB SIZE: 352
Off-chip DRAM Size: 4096 MB Channels: 1 Width: 64-bit Data Rate: 6400 MT/s
CPU 0 runs /home/sumon/secure_berti/GhostMinion/../../traces/spec/607.cactuBSSN_s-3477B.champsimtrace.xz
.xz
BTB has LRU replacement policy
ITLB has LRU replacement policy
DTLB has LRU replacement policy
STLB has LRU replacement policy
L1I has LRU replacement policy
L0D has LRU replacement policy
L1D has LRU replacement policy
Bingo PHT WAYS: 16 and PHT_SIZE: 16384
L2C has LRU replacement policy
LLC has LRU replacement policy
Heartbeat CPU 0 instructions: 10000000 cycles: 4514248 heartbeat IPC: 2.21521 cumulative IPC: 2.21521 (Simulation time: 0 hr 0 min 43 sec) 
Heartbeat CPU 0 instructions: 20000001 cycles: 9036637 heartbeat IPC: 2.21122 cumulative IPC: 2.21321 (Simulation time: 0 hr 1 min 25 sec) 
Heartbeat CPU 0 instructions: 30000000 cycles: 13549352 heartbeat IPC: 2.21596 cumulative IPC: 2.21413 (Simulation time: 0 hr 2 min 7 sec) 
Heartbeat CPU 0 instructions: 40000003 cycles: 18060636 heartbeat IPC: 2.21666 cumulative IPC: 2.21476 (Simulation time: 0 hr 2 min 49 sec) 
Heartbeat CPU 0 instructions: 50000002 cycles: 22583600 heartbeat IPC: 2.21094 cumulative IPC: 2.214 (Simulation time: 0 hr 3 min 30 sec) 

Warmup complete CPU 0 instructions: 50000002 cycles: 22583600 (Simulation time: 0 hr 3 min 30 sec) 

Heartbeat CPU 0 instructions: 60000000 cycles: 39131088 heartbeat IPC: 0.604321 cumulative IPC: 0.604321 (Simulation time: 0 hr 4 min 20 sec) 
Heartbeat CPU 0 instructions: 70000002 cycles: 55682238 heartbeat IPC: 0.604188 cumulative IPC: 0.604254 (Simulation time: 0 hr 5 min 10 sec) 
Heartbeat CPU 0 instructions: 80000003 cycles: 72361670 heartbeat IPC: 0.599541 cumulative IPC: 0.602675 (Simulation time: 0 hr 6 min 0 sec) 
Heartbeat CPU 0 instructions: 90000002 cycles: 88981192 heartbeat IPC: 0.601702 cumulative IPC: 0.602431 (Simulation time: 0 hr 6 min 49 sec) 
Heartbeat CPU 0 instructions: 100000001 cycles: 105550991 heartbeat IPC: 0.603508 cumulative IPC: 0.602646 (Simulation time: 0 hr 7 min 39 sec) 
Heartbeat CPU 0 instructions: 110000000 cycles: 122042251 heartbeat IPC: 0.606382 cumulative IPC: 0.603266 (Simulation time: 0 hr 8 min 29 sec) 
Heartbeat CPU 0 instructions: 120000002 cycles: 138722635 heartbeat IPC: 0.599507 cumulative IPC: 0.602726 (Simulation time: 0 hr 9 min 18 sec) 
Heartbeat CPU 0 instructions: 130000000 cycles: 155413008 heartbeat IPC: 0.599148 cumulative IPC: 0.602276 (Simulation time: 0 hr 10 min 8 sec) 
Heartbeat CPU 0 instructions: 140000000 cycles: 172045094 heartbeat IPC: 0.601247 cumulative IPC: 0.602162 (Simulation time: 0 hr 10 min 58 sec) 
Heartbeat CPU 0 instructions: 150000000 cycles: 188602518 heartbeat IPC: 0.603959 cumulative IPC: 0.602341 (Simulation time: 0 hr 11 min 47 sec) 
Heartbeat CPU 0 instructions: 160000001 cycles: 205531898 heartbeat IPC: 0.590689 cumulative IPC: 0.601263 (Simulation time: 0 hr 12 min 37 sec) 
Heartbeat CPU 0 instructions: 170000000 cycles: 222151339 heartbeat IPC: 0.601705 cumulative IPC: 0.6013 (Simulation time: 0 hr 13 min 26 sec) 
Heartbeat CPU 0 instructions: 180000000 cycles: 238879948 heartbeat IPC: 0.597778 cumulative IPC: 0.601027 (Simulation time: 0 hr 14 min 15 sec) 
Heartbeat CPU 0 instructions: 190000000 cycles: 255485714 heartbeat IPC: 0.6022 cumulative IPC: 0.601111 (Simulation time: 0 hr 15 min 2 sec) 
Heartbeat CPU 0 instructions: 200000000 cycles: 272485122 heartbeat IPC: 0.588256 cumulative IPC: 0.600236 (Simulation time: 0 hr 15 min 50 sec) 
Heartbeat CPU 0 instructions: 210000001 cycles: 289209858 heartbeat IPC: 0.597917 cumulative IPC: 0.600091 (Simulation time: 0 hr 16 min 38 sec) 
Heartbeat CPU 0 instructions: 220000000 cycles: 305788446 heartbeat IPC: 0.603188 cumulative IPC: 0.600272 (Simulation time: 0 hr 17 min 24 sec) 
Heartbeat CPU 0 instructions: 230000000 cycles: 322331236 heartbeat IPC: 0.604493 cumulative IPC: 0.600505 (Simulation time: 0 hr 18 min 11 sec) 
Heartbeat CPU 0 instructions: 240000001 cycles: 339023248 heartbeat IPC: 0.599089 cumulative IPC: 0.60043 (Simulation time: 0 hr 18 min 57 sec) 
Heartbeat CPU 0 instructions: 250000002 cycles: 355666094 heartbeat IPC: 0.600859 cumulative IPC: 0.600452 (Simulation time: 0 hr 19 min 42 sec) 
Finished CPU 0 instructions: 200000000 cycles: 333082494 cumulative IPC: 0.600452 (Simulation time: 0 hr 19 min 42 sec) 
 Instruction ID: 250000026

ChampSim completed all CPUs

Region of Interest Statistics

CPU 0 cumulative IPC: 0.600452 instructions: 200000000 cycles: 333082494
ITLB SPEC fills:          0  NON-SPEC fills:          0
ITLB Test counter :          0
ITLB Leapfrog:          0
ITLB MSHR merge:          0
ITLB TOTAL     ACCESS:   28669434  HIT:   28669434  MISS:          0  HIT %:        100  MISS %:          0   MPKI: 0
ITLB LOAD TRANSLATION NON_SPEC    ACCESS:   28669434  HIT:   28669434  MISS:          0  HIT %:        100  MISS %:          0   MPKI: 0
ITLB PREFETCH  REQUESTED:          0  ISSUED:          0  USEFUL:          0  USELESS:          0
ITLB USEFUL LOAD PREFETCHES:          0 PREFETCH ISSUED TO LOWER LEVEL:          0  ACCURACY: -nan
ITLB TIMELY PREFETCHES:          0 LATE PREFETCHES: 0 DROPPED PREFETCHES: 0
ITLB COMMIT LATE PREFETCHES: 0 MISSED OPPORTUNITY: 0 LATE IN PQ: 0 UNCOVERED: 0
ITLB COMMIT LATE MSHR PREFETCHES: 0
ITLB MPKI TOTAL: 0 MSHR LATE: 0 PQ LATE: 0 COMMIT LATE: 0 MISSED OPPORTUNITY: 0 UNCOVERED: 0
ITLB PREFETCHES SAME FILL-ORIGIN LEVEL: 0 DIFFERENT FILL-ORIGIN LEVEL: 0
ITLB AVERAGE MISS LATENCY: -nan cycles
ITLB AVERAGE MISS LATENCY LOAD: -nan cycles
ITLB AVERAGE MISS LATENCY PREFETCH: -nan cycles
ITLB AVERAGE MSHR OCCUPANCY: 0
ITLB MSHR FULL: 0
ITLB RQ	ACCESS:   34796591	FORWARD:          0	MERGED:    6127157	TO_CACHE:   28669434

DTLB SPEC fills:          0  NON-SPEC fills:          0
DTLB Test counter :          0
DTLB Leapfrog:          0
DTLB MSHR merge:          0
DTLB TOTAL     ACCESS:   61904799  HIT:   54329452  MISS:    7575347  HIT %:    87.7629  MISS %:    12.2371   MPKI: 37.8767
DTLB LOAD TRANSLATION NON_SPEC    ACCESS:   61904799  HIT:   54329452  MISS:    7575347  HIT %:    87.7629  MISS %:    12.2371   MPKI: 37.8767
DTLB PREFETCH  REQUESTED:          0  ISSUED:          0  USEFUL:          0  USELESS:          0
DTLB USEFUL LOAD PREFETCHES:          0 PREFETCH ISSUED TO LOWER LEVEL:          0  ACCURACY: -nan
DTLB TIMELY PREFETCHES:          0 LATE PREFETCHES: 0 DROPPED PREFETCHES: 0
DTLB COMMIT LATE PREFETCHES: 0 MISSED OPPORTUNITY: 0 LATE IN PQ: 0 UNCOVERED: 0
DTLB COMMIT LATE MSHR PREFETCHES: 0
DTLB MPKI TOTAL: 0 MSHR LATE: 0 PQ LATE: 0 COMMIT LATE: 0 MISSED OPPORTUNITY: 0 UNCOVERED: 0
DTLB PREFETCHES SAME FILL-ORIGIN LEVEL: 0 DIFFERENT FILL-ORIGIN LEVEL: 0
DTLB AVERAGE MISS LATENCY: 10.051 cycles
DTLB AVERAGE MISS LATENCY LOAD: -nan cycles
DTLB AVERAGE MISS LATENCY PREFETCH: -nan cycles
DTLB AVERAGE MSHR OCCUPANCY: 0.785672
DTLB MSHR FULL: 0.0211718
DTLB RQ	ACCESS:   82918656	FORWARD:          0	MERGED:   20044991	TO_CACHE:   62873665

STLB SPEC fills:          0  NON-SPEC fills:          0
STLB Test counter :          0
STLB Leapfrog:          0
STLB MSHR merge:          0
STLB TOTAL     ACCESS:    7575347  HIT:    7567052  MISS:       8295  HIT %:    99.8905  MISS %:     0.1095   MPKI: 0.041475
STLB LOAD TRANSLATION NON_SPEC    ACCESS:    7575347  HIT:    7567052  MISS:       8295  HIT %:    99.8905  MISS %:     0.1095   MPKI: 0.041475
STLB PREFETCH  REQUESTED:          0  ISSUED:          0  USEFUL:          0  USELESS:          0
STLB USEFUL LOAD PREFETCHES:          0 PREFETCH ISSUED TO LOWER LEVEL:          0  ACCURACY: -nan
STLB TIMELY PREFETCHES:          0 LATE PREFETCHES: 0 DROPPED PREFETCHES: 0
STLB COMMIT LATE PREFETCHES: 0 MISSED OPPORTUNITY: 0 LATE IN PQ: 0 UNCOVERED: 0
STLB COMMIT LATE MSHR PREFETCHES: 0
STLB MPKI TOTAL: 0 MSHR LATE: 0 PQ LATE: 0 COMMIT LATE: 0 MISSED OPPORTUNITY: 0 UNCOVERED: 0
STLB PREFETCHES SAME FILL-ORIGIN LEVEL: 0 DIFFERENT FILL-ORIGIN LEVEL: 0
STLB AVERAGE MISS LATENCY: 639.427 cycles
STLB AVERAGE MISS LATENCY LOAD: -nan cycles
STLB AVERAGE MISS LATENCY PREFETCH: -nan cycles
STLB AVERAGE MSHR OCCUPANCY: 0.0101606
STLB MSHR FULL: 0
STLB RQ	ACCESS:    7575347	FORWARD:          0	MERGED:          0	TO_CACHE:    7575347

STLB Hit, L1D data hit: 0
STLB Hit, L2C data hit: 0
STLB Hit, LLC data hit: 0
STLB Hit, LLC data miss: 0
STLB STLB hints to L2: 0
L0D SPEC fills:   46362926  NON-SPEC fills:          0
L0D TimeGuard Request with older TS:    2868351 Restricted eviction:    2972924 read:    2559905
L0D Test counter :          0
L0D Leapfrog:          0
L0D MSHR merge:    2751588
L0D TOTAL     ACCESS:   64150802  HIT:    8794497  MISS:   55356305  HIT %:    13.7091  MISS %:    86.2909   MPKI: 276.782
L0D LOAD      TOTAL       ACCESS:   64150802  HIT:    8794497  MISS:   55356305  HIT %:    13.7091  MISS %:    86.2909   MPKI: 276.782
L0D LOAD      NON_SPEC    ACCESS:    6375560  HIT:     354550  MISS:    6021010  HIT %:    5.56108  MISS %:    94.4389   MPKI: 30.105
L0D LOAD      SPEC        ACCESS:   57775242  HIT:    8439947  MISS:   49335295  HIT %:    14.6082  MISS %:    85.3918   MPKI: 246.676
L0D PREFETCH  REQUESTED:          0  ISSUED:          0  USEFUL:          0  USELESS:          0
L0D USEFUL LOAD PREFETCHES:          0 PREFETCH ISSUED TO LOWER LEVEL:          0  ACCURACY: -nan
L0D TIMELY PREFETCHES:          0 LATE PREFETCHES: 0 DROPPED PREFETCHES: 0
L0D COMMIT LATE PREFETCHES: 0 MISSED OPPORTUNITY: 0 LATE IN PQ: 0 UNCOVERED: 0
L0D COMMIT LATE MSHR PREFETCHES: 0
L0D MPKI TOTAL: 290.539 MSHR LATE: 0 PQ LATE: 0 COMMIT LATE: 0 MISSED OPPORTUNITY: 0 UNCOVERED: 0
L0D PREFETCHES SAME FILL-ORIGIN LEVEL: 0 DIFFERENT FILL-ORIGIN LEVEL: 0
L0D AVERAGE MISS LATENCY: 14.5255 cycles
L0D AVERAGE MISS LATENCY LOAD: 14.5255 cycles
L0D AVERAGE MISS LATENCY PREFETCH: -nan cycles
L0D AVERAGE MSHR OCCUPANCY: 5.22494
L0D MSHR FULL: 0.432175
L0D RQ	ACCESS:   77325519	FORWARD:          0	MERGED:   10423140	TO_CACHE:   66902379
L0D WQ	ACCESS:   16016277	FORWARD:          0	MERGED:          0	TO_CACHE:   16016277

L1D SPEC fills:          0  NON-SPEC fills:     607260
L1D Test counter :          0
L1D Leapfrog:          0
L1D MSHR merge:      85542
L1D TOTAL     ACCESS:   87606215  HIT:   59197642  MISS:   28408573  HIT %:    67.5724  MISS %:    32.4276   MPKI: 142.043
L1D LOAD      TOTAL       ACCESS:   55270762  HIT:   40944291  MISS:   14326471  HIT %:    74.0795  MISS %:    25.9205   MPKI: 71.6324
L1D LOAD      NON_SPEC    ACCESS:    6008067  HIT:    5400807  MISS:     607260  HIT %:    89.8926  MISS %:    10.1074   MPKI: 3.0363
L1D LOAD      SPEC        ACCESS:   49262695  HIT:   35543484  MISS:   13719211  HIT %:    72.1509  MISS %:    27.8491   MPKI: 68.5961
L1D RFO       NON_SPEC    ACCESS:   15719464  HIT:   14495967  MISS:    1223497  HIT %:    92.2167  MISS %:    7.78333   MPKI: 6.11749
L1D COMMIT LOAD NON_SPEC    ACCESS:    5734117  HIT:    3231814  MISS:    2502303  HIT %:    56.3611  MISS %:    43.6389   MPKI: 12.5115
L1D COMMIT WRITE NON_SPEC    ACCESS:   10881872  HIT:     525570  MISS:   10356302  HIT %:    4.82978  MISS %:    95.1702   MPKI: 51.7815
L1D PREFETCH  REQUESTED:          0  ISSUED:          0  USEFUL:          0  USELESS:          0
L1D USEFUL LOAD PREFETCHES:          0 PREFETCH ISSUED TO LOWER LEVEL:          0  ACCURACY: -nan
L1D TIMELY PREFETCHES:          0 LATE PREFETCHES: 0 DROPPED PREFETCHES: 0
L1D COMMIT LATE PREFETCHES: 0 MISSED OPPORTUNITY: 0 LATE IN PQ: 0 UNCOVERED: 0
L1D COMMIT LATE MSHR PREFETCHES: 0
L1D MPKI TOTAL: 72.0601 MSHR LATE: 0 PQ LATE: 0 COMMIT LATE: 0 MISSED OPPORTUNITY: 0 UNCOVERED: 0
L1D PREFETCHES SAME FILL-ORIGIN LEVEL: 0 DIFFERENT FILL-ORIGIN LEVEL: 0
L1D AVERAGE MISS LATENCY: 13.8251 cycles
L1D AVERAGE MISS LATENCY LOAD: 16.4387 cycles
L1D AVERAGE MISS LATENCY PREFETCH: -nan cycles
L1D AVERAGE MSHR OCCUPANCY: 3.26695
L1D MSHR FULL: 0.119051
L1D RQ	ACCESS:   62355228	FORWARD:          0	MERGED:    1125700	TO_CACHE:   61229527
L1D WQ	ACCESS:   26898146	FORWARD:          1	MERGED:     125400	TO_CACHE:   26772746

L1D UNIQUE REGIONS ACCESSED: 0
L1D REGIONS CONFLICTS: 0
L1D Cross Page Prefetch Requests: 0
L1D Same Page Prefetch Requests: 0
L1D ROI Sum of L1D PQ occupancy: 0
L1D PREFETCHES PUSHED FROM L2C: 0
L1I SPEC fills:          0  NON-SPEC fills:          0
L1I Test counter :          0
L1I Leapfrog:          0
L1I MSHR merge:    2859787
L1I TOTAL     ACCESS:   31936802  HIT:   26152373  MISS:    5784429  HIT %:    81.8879  MISS %:    18.1121   MPKI: 28.9221
L1I LOAD      TOTAL       ACCESS:   31936802  HIT:   26152373  MISS:    5784429  HIT %:    81.8879  MISS %:    18.1121   MPKI: 28.9221
L1I LOAD      NON_SPEC    ACCESS:   31936802  HIT:   26152373  MISS:    5784429  HIT %:    81.8879  MISS %:    18.1121   MPKI: 28.9221
L1I PREFETCH  REQUESTED:          0  ISSUED:          0  USEFUL:          0  USELESS:          0
L1I USEFUL LOAD PREFETCHES:          0 PREFETCH ISSUED TO LOWER LEVEL:          0  ACCURACY: -nan
L1I TIMELY PREFETCHES:          0 LATE PREFETCHES: 0 DROPPED PREFETCHES: 0
L1I COMMIT LATE PREFETCHES: 0 MISSED OPPORTUNITY: 0 LATE IN PQ: 0 UNCOVERED: 0
L1I COMMIT LATE MSHR PREFETCHES: 0
L1I MPKI TOTAL: 43.2211 MSHR LATE: 0 PQ LATE: 0 COMMIT LATE: 0 MISSED OPPORTUNITY: 0 UNCOVERED: 0
L1I PREFETCHES SAME FILL-ORIGIN LEVEL: 0 DIFFERENT FILL-ORIGIN LEVEL: 0
L1I AVERAGE MISS LATENCY: 14.0399 cycles
L1I AVERAGE MISS LATENCY LOAD: 14.0399 cycles
L1I AVERAGE MISS LATENCY PREFETCH: -nan cycles
L1I AVERAGE MSHR OCCUPANCY: 0.218886
L1I MSHR FULL: 0
L1I RQ	ACCESS:   49526735	FORWARD:          0	MERGED:   14730144	TO_CACHE:   34796591

BTB SPEC fills:          0  NON-SPEC fills:          0
BTB Test counter :          0
BTB Leapfrog:          0
BTB MSHR merge:          0
BTB TOTAL     ACCESS:    1169485  HIT:    1096958  MISS:      72527  HIT %:    93.7984  MISS %:    6.20162   MPKI: 0.362635
BTB BRANCH_DIRECT_JUMP	ACCESS:     217104  HIT:     217073  MISS:         31
BTB BRANCH_INDIRECT	ACCESS:      36158  HIT:      36156  MISS:          2
BTB BRANCH_CONDITIONAL	ACCESS:     482257  HIT:     482171  MISS:         86
BTB BRANCH_DIRECT_CALL	ACCESS:     216983  HIT:     216939  MISS:         44
BTB BRANCH_INDIRECT_CALL	ACCESS:          0  HIT:          0  MISS:          0
BTB BRANCH_RETURN	ACCESS:     216983  HIT:     144619  MISS:      72364
BTB BRANCH_OTHER ACCESS:          0  HIT:          0  MISS:          0

L2C SPEC fills:          0  NON-SPEC fills:      17682
L2C Test counter :          0
L2C Leapfrog:          0
L2C MSHR merge:       1384
L2C TOTAL     ACCESS:   28940331  HIT:   27466889  MISS:    1473442  HIT %:    94.9087  MISS %:    5.09131   MPKI: 7.36721
L2C LOAD      TOTAL       ACCESS:   20104800  HIT:   19600016  MISS:     504784  HIT %:    97.4892  MISS %:    2.51076   MPKI: 2.52392
L2C LOAD      NON_SPEC    ACCESS:    6391468  HIT:    6373407  MISS:      18061  HIT %:    99.7174  MISS %:    0.28258   MPKI: 0.090305
L2C LOAD      SPEC        ACCESS:   13713332  HIT:   13226609  MISS:     486723  HIT %:    96.4507  MISS %:    3.54927   MPKI: 2.43362
L2C RFO       NON_SPEC    ACCESS:    1220993  HIT:    1103905  MISS:     117088  HIT %:    90.4104  MISS %:    9.58957   MPKI: 0.58544
L2C PREFETCH  NON_SPEC    ACCESS:    2906833  HIT:    2546357  MISS:     360476  HIT %:     87.599  MISS %:     12.401   MPKI: 1.80238
L2C WRITEBACK NON_SPEC    ACCESS:    1236187  HIT:    1236177  MISS:         10  HIT %:    99.9992  MISS %: 0.000808939   MPKI: 5e-05
L2C CLEAN_EVICTION NON_SPEC    ACCESS:     927791  HIT:     550528  MISS:     377263  HIT %:    59.3375  MISS %:    40.6625   MPKI: 1.88631
L2C COMMIT LOAD NON_SPEC    ACCESS:    2502261  HIT:    2400094  MISS:     102167  HIT %:     95.917  MISS %:    4.08299   MPKI: 0.510835
L2C LOAD TRANSLATION NON_SPEC    ACCESS:      41466  HIT:      29812  MISS:      11654  HIT %:     71.895  MISS %:     28.105   MPKI: 0.05827
L2C PREFETCH  REQUESTED:    2911828  ISSUED:    2911828  USEFUL:     358532  USELESS:       1953
L2C USEFUL LOAD PREFETCHES:     358532 PREFETCH ISSUED TO LOWER LEVEL:     362829  ACCURACY: 98.8157
L2C TIMELY PREFETCHES:     358532 LATE PREFETCHES: 2353 DROPPED PREFETCHES: 0
L2C COMMIT LATE PREFETCHES: 0 MISSED OPPORTUNITY: 0 LATE IN PQ: 0 UNCOVERED: 0
L2C COMMIT LATE MSHR PREFETCHES: 0
L2C MPKI TOTAL: 2.52392 MSHR LATE: 0.011765 PQ LATE: 0 COMMIT LATE: 0 MISSED OPPORTUNITY: 0 UNCOVERED: 0
L2C PREFETCHES SAME FILL-ORIGIN LEVEL: 362829 DIFFERENT FILL-ORIGIN LEVEL: 0
L2C AVERAGE MISS LATENCY: 132.594 cycles
L2C AVERAGE MISS LATENCY LOAD: 127.458 cycles
L2C AVERAGE MISS LATENCY PREFETCH: 86.092 cycles
L2C AVERAGE MSHR OCCUPANCY: 0.656713
L2C MSHR FULL: 1.67578e-06
L2C RQ	ACCESS:   23878168	FORWARD:          0	MERGED:          0	TO_CACHE:   23869520
L2C WQ	ACCESS:    2163981	FORWARD:       8792	MERGED:          3	TO_CACHE:    2163978
L2C PQ	ACCESS:    2911828	FORWARD:          0	MERGED:          3	TO_CACHE:    2911681

L2C Instructions Evicting Data 374
L2C Translations Evicting Data 11524
L2C Data Evicting Data 590358
L2C Instructions Evicting Instructions 0
L2C Translations Evicting Instructions 3
L2C Data Evicting Instructions 210
L2C Instructions Evicting Translations 5
L2C Translations Evicting Translations 127
L2C Data Evicting Translations 6845
L2C Dense regions hint from L2: 0
PSCL5 SPEC fills:          0  NON-SPEC fills:          0
PSCL5 Test counter :          0
PSCL5 Leapfrog:          0
PSCL5 MSHR merge:          0
PSCL5 TOTAL     ACCESS:          0  HIT:          0  MISS:          0  HIT %:       -nan  MISS %:       -nan   MPKI: 0
PSCL5 PREFETCH  REQUESTED:          0  ISSUED:          0  USEFUL:          0  USELESS:          0
PSCL5 USEFUL LOAD PREFETCHES:          0 PREFETCH ISSUED TO LOWER LEVEL:          0  ACCURACY: -nan
PSCL5 TIMELY PREFETCHES:          0 LATE PREFETCHES: 0 DROPPED PREFETCHES: 0
PSCL5 COMMIT LATE PREFETCHES: 0 MISSED OPPORTUNITY: 0 LATE IN PQ: 0 UNCOVERED: 0
PSCL5 COMMIT LATE MSHR PREFETCHES: 0
PSCL5 MPKI TOTAL: 0 MSHR LATE: 0 PQ LATE: 0 COMMIT LATE: 0 MISSED OPPORTUNITY: 0 UNCOVERED: 0
PSCL5 PREFETCHES SAME FILL-ORIGIN LEVEL: 0 DIFFERENT FILL-ORIGIN LEVEL: 0

PSCL4 SPEC fills:          0  NON-SPEC fills:          0
PSCL4 Test counter :          0
PSCL4 Leapfrog:          0
PSCL4 MSHR merge:          0
PSCL4 TOTAL     ACCESS:          0  HIT:          0  MISS:          0  HIT %:       -nan  MISS %:       -nan   MPKI: 0
PSCL4 PREFETCH  REQUESTED:          0  ISSUED:          0  USEFUL:          0  USELESS:          0
PSCL4 USEFUL LOAD PREFETCHES:          0 PREFETCH ISSUED TO LOWER LEVEL:          0  ACCURACY: -nan
PSCL4 TIMELY PREFETCHES:          0 LATE PREFETCHES: 0 DROPPED PREFETCHES: 0
PSCL4 COMMIT LATE PREFETCHES: 0 MISSED OPPORTUNITY: 0 LATE IN PQ: 0 UNCOVERED: 0
PSCL4 COMMIT LATE MSHR PREFETCHES: 0
PSCL4 MPKI TOTAL: 0 MSHR LATE: 0 PQ LATE: 0 COMMIT LATE: 0 MISSED OPPORTUNITY: 0 UNCOVERED: 0
PSCL4 PREFETCHES SAME FILL-ORIGIN LEVEL: 0 DIFFERENT FILL-ORIGIN LEVEL: 0

PSCL3 SPEC fills:          0  NON-SPEC fills:          0
PSCL3 Test counter :          0
PSCL3 Leapfrog:          0
PSCL3 MSHR merge:          0
PSCL3 TOTAL     ACCESS:          0  HIT:          0  MISS:          0  HIT %:       -nan  MISS %:       -nan   MPKI: 0
PSCL3 PREFETCH  REQUESTED:          0  ISSUED:          0  USEFUL:          0  USELESS:          0
PSCL3 USEFUL LOAD PREFETCHES:          0 PREFETCH ISSUED TO LOWER LEVEL:          0  ACCURACY: -nan
PSCL3 TIMELY PREFETCHES:          0 LATE PREFETCHES: 0 DROPPED PREFETCHES: 0
PSCL3 COMMIT LATE PREFETCHES: 0 MISSED OPPORTUNITY: 0 LATE IN PQ: 0 UNCOVERED: 0
PSCL3 COMMIT LATE MSHR PREFETCHES: 0
PSCL3 MPKI TOTAL: 0 MSHR LATE: 0 PQ LATE: 0 COMMIT LATE: 0 MISSED OPPORTUNITY: 0 UNCOVERED: 0
PSCL3 PREFETCHES SAME FILL-ORIGIN LEVEL: 0 DIFFERENT FILL-ORIGIN LEVEL: 0

PSCL2 SPEC fills:          0  NON-SPEC fills:          0
PSCL2 Test counter :          0
PSCL2 Leapfrog:          0
PSCL2 MSHR merge:          0
PSCL2 TOTAL     ACCESS:          0  HIT:          0  MISS:          0  HIT %:       -nan  MISS %:       -nan   MPKI: 0
PSCL2 PREFETCH  REQUESTED:          0  ISSUED:          0  USEFUL:          0  USELESS:          0
PSCL2 USEFUL LOAD PREFETCHES:          0 PREFETCH ISSUED TO LOWER LEVEL:          0  ACCURACY: -nan
PSCL2 TIMELY PREFETCHES:          0 LATE PREFETCHES: 0 DROPPED PREFETCHES: 0
PSCL2 COMMIT LATE PREFETCHES: 0 MISSED OPPORTUNITY: 0 LATE IN PQ: 0 UNCOVERED: 0
PSCL2 COMMIT LATE MSHR PREFETCHES: 0
PSCL2 MPKI TOTAL: 0 MSHR LATE: 0 PQ LATE: 0 COMMIT LATE: 0 MISSED OPPORTUNITY: 0 UNCOVERED: 0
PSCL2 PREFETCHES SAME FILL-ORIGIN LEVEL: 0 DIFFERENT FILL-ORIGIN LEVEL: 0

LLC SPEC fills:          0  NON-SPEC fills:       8546
LLC Test counter :          0
LLC Leapfrog:          0
LLC MSHR merge:          0
LLC TOTAL     ACCESS:    1737404  HIT:     911280  MISS:     826124  HIT %:    52.4507  MISS %:    47.5493   MPKI: 4.13062
LLC LOAD      TOTAL       ACCESS:     503175  HIT:     194983  MISS:     308192  HIT %:    38.7505  MISS %:    61.2495   MPKI: 1.54096
LLC LOAD      NON_SPEC    ACCESS:      17968  HIT:       9043  MISS:       8925  HIT %:    50.3284  MISS %:    49.6716   MPKI: 0.044625
LLC LOAD      SPEC        ACCESS:     485207  HIT:     185940  MISS:     299267  HIT %:    38.3218  MISS %:    61.6782   MPKI: 1.49633
LLC RFO       NON_SPEC    ACCESS:     117088  HIT:          2  MISS:     117086  HIT %: 0.00170812  MISS %:    99.9983   MPKI: 0.58543
LLC PREFETCH  NON_SPEC    ACCESS:     362771  HIT:     259207  MISS:     103564  HIT %:     71.452  MISS %:     28.548   MPKI: 0.51782
LLC WRITEBACK NON_SPEC    ACCESS:     117053  HIT:     117036  MISS:         17  HIT %:    99.9855  MISS %:  0.0145233   MPKI: 8.5e-05
LLC CLEAN_EVICTION NON_SPEC    ACCESS:     524513  HIT:     281666  MISS:     242847  HIT %:    53.7005  MISS %:    46.2995   MPKI: 1.21423
LLC COMMIT LOAD NON_SPEC    ACCESS:     101150  HIT:      47869  MISS:      53281  HIT %:    47.3248  MISS %:    52.6752   MPKI: 0.266405
LLC LOAD TRANSLATION NON_SPEC    ACCESS:      11654  HIT:      10517  MISS:       1137  HIT %:    90.2437  MISS %:    9.75631   MPKI: 0.005685
LLC PREFETCH  REQUESTED:          0  ISSUED:          0  USEFUL:      46895  USELESS:      58768
LLC USEFUL LOAD PREFETCHES:      46895 PREFETCH ISSUED TO LOWER LEVEL:     103564  ACCURACY: 45.2812
LLC TIMELY PREFETCHES:      46895 LATE PREFETCHES: 0 DROPPED PREFETCHES: 0
LLC COMMIT LATE PREFETCHES: 0 MISSED OPPORTUNITY: 0 LATE IN PQ: 0 UNCOVERED: 0
LLC COMMIT LATE MSHR PREFETCHES: 0
LLC MPKI TOTAL: 1.54096 MSHR LATE: 0 PQ LATE: 0 COMMIT LATE: 0 MISSED OPPORTUNITY: 0 UNCOVERED: 0
LLC PREFETCHES SAME FILL-ORIGIN LEVEL: 0 DIFFERENT FILL-ORIGIN LEVEL: 0
LLC AVERAGE MISS LATENCY: 201.733 cycles
LLC AVERAGE MISS LATENCY LOAD: 173.169 cycles
LLC AVERAGE MISS LATENCY PREFETCH: 195.552 cycles
LLC AVERAGE MSHR OCCUPANCY: 3.01409
LLC MSHR FULL: 0
LLC RQ	ACCESS:     733340	FORWARD:          0	MERGED:          0	TO_CACHE:     733067
LLC WQ	ACCESS:     641566	FORWARD:        331	MERGED:          0	TO_CACHE:     641566
LLC PQ	ACCESS:     362829	FORWARD:          0	MERGED:          0	TO_CACHE:     362771

LLC Dense regions hint to LLC: 0

RAW hits: 510144
Loads Generated: 77835662
Loads sent to L1D: 77325519
Stores Generated: 16016275
Stores sent to L1D: 16016277
Major fault: 0 Minor fault: 8463
Allocated PAGES: 8463
Total Load insts: 132470660
Total Non-spec loads: 8517740
Percentage of speculative loads: 93.5701

LeapFrogging counter: 29828550
Commit hits: 43833839 miss: 27028532
Commit hit %: 61.8577 miss %: 38.1423
Commits not translated: 0
Loads retired: 14326471
Stores retired: 16016277
Cache fills: 14326471
L1D response latency: 16.4387 cycles
Load retirement latency: 192.632 cycles
OOO test counter: 0
Discarded buffer inserts: 43833839 hits: 575015 hit %: 1.31181
Filter prediction accuracy: 98.2812
[Bingo] PHT Access: 5786565
[Bingo] PHT Hit PC+Addr: 624320
[Bingo] PHT Hit PC+Offs: 513408
[Bingo] PHT Miss: 4648837
[Bingo] Prefetch PC+Addr: 0
[Bingo] Prefetch PC+Offs: 0
[Bingo] Useful PC+Addr: 0
[Bingo] Useful PC+Offs: 0
[Bingo] Useless PC+Addr: 0
[Bingo] Useless PC+Offs: 0
[Bingo] L1 Prefetch per Region: 0
[Bingo] L2 Prefetch per Region: 3.60106
[Bingo] L3 Prefetch per Region: 0
[Bingo] No Prefetch per Region: 28.3989
[Bingo] Number of Voters Mean: 4.03481
[Bingo] Number of Voters SD: 3.78377
PHT read accesses: 84333223
PHT write accesses: 866456
AT read accesses: 69367434
AT write accesses: 70020453
FT read accesses: 8512460
FT write accesses: 5786565
PS read accesses: 2373464
PS write accesses: 1137728
PHT tag read accesses: 107369592
PHT tag write accesses: 1490776
AT tag read accesses: 1301115108
AT tag write accesses: 70233893
FT tag read accesses: 360165697
FT tag write accesses: 10537406
PS tag read accesses: 1282863132
PS tag write accesses: 3504978

DRAM Statistics
 CHANNEL 0
 RQ ROW_BUFFER_HIT:     309283  ROW_BUFFER_MISS:     273977
 DBUS_CONGESTED:        671
 WQ ROW_BUFFER_HIT:     110772  ROW_BUFFER_MISS:     342057  FULL:       2890

 AVG_CONGESTED_CYCLE: 5
 All warmup complete: 2
Channel 0 Bank busy for read cycles: 0
Channel 0 Bank busy for write cycles: 0
Channel 0
Rank 0
0banks busy for read cycles: 257021502
0banks busy for write cycles: 212140
1banks busy for read cycles: 27262266
1banks busy for write cycles: 25072545
2banks busy for read cycles: 5445085
2banks busy for write cycles: 7151822
3banks busy for read cycles: 2460760
3banks busy for write cycles: 2979365
4banks busy for read cycles: 1101730
4banks busy for write cycles: 1404280
5banks busy for read cycles: 498201
5banks busy for write cycles: 716586
6banks busy for read cycles: 182195
6banks busy for write cycles: 418849
7banks busy for read cycles: 169412
7banks busy for write cycles: 314724
8banks busy for read cycles: 244392
8banks busy for write cycles: 426641

CPU 0 Branch Prediction Accuracy: 99.9869% MPKI: 0.001165 Average ROB Occupancy at Mispredict: 21.691
Branch types
NOT_BRANCH: 198225688 99.1128%
BRANCH_DIRECT_JUMP: 217104 0.108552%
BRANCH_INDIRECT: 36158 0.018079%
BRANCH_CONDITIONAL: 1086728 0.543364%
BRANCH_DIRECT_CALL: 216983 0.108492%
BRANCH_INDIRECT_CALL: 0 0%
BRANCH_RETURN: 216983 0.108492%
BRANCH_OTHER: 0 0%

DRAM PAGES: 1048576
Allocated PAGES: 8463
