
*** ChampSim Multicore Out-of-Order Simulator ***

Warmup Instructions: 50000000
Simulation Instructions: 200000000
Number of CPUs: 1
LLC sets: 2048
LLC ways: 16
L0D sets: 16
L0D ways: 2
ROB size: 352
LQ size: 128
SQ size: 72
Secure Berti: OFF
Berti: OFF
Berti Fill: OFF
On commit prefetching: ON
Hit-based filter: ON
Time-guarding: ON
Free-slotting: ON
Leap-frogging: ON
Train prefetcher on L0D bypass: OFF
No translation penalty for prefetchers: OFF
Prefetch to L0D only: OFF
Prefetch to L1D only: OFF
Clean evictions: ON
Commit loads: ON
Commit write: ON
Fill commit loads to L2C, LLC: ON
DRAM IO FREQUENCY: 6400
ROB SIZE: 352
Off-chip DRAM Size: 4096 MB Channels: 1 Width: 64-bit Data Rate: 6400 MT/s
CPU 0 runs /home/sumon/secure_berti/GhostMinion/../../traces/spec/619.lbm_s-2676B.champsimtrace.xz
.xz
BTB has LRU replacement policy
ITLB has LRU replacement policy
DTLB has LRU replacement policy
STLB has LRU replacement policy
L1I has LRU replacement policy
L0D has LRU replacement policy
L1D has LRU replacement policy
Bingo PHT WAYS: 16 and PHT_SIZE: 16384
L2C has LRU replacement policy
LLC has LRU replacement policy
Heartbeat CPU 0 instructions: 10000003 cycles: 3037821 heartbeat IPC: 3.29183 cumulative IPC: 3.29183 (Simulation time: 0 hr 0 min 33 sec) 
Heartbeat CPU 0 instructions: 20000003 cycles: 6069836 heartbeat IPC: 3.29814 cumulative IPC: 3.29498 (Simulation time: 0 hr 1 min 6 sec) 
Heartbeat CPU 0 instructions: 30000003 cycles: 9093724 heartbeat IPC: 3.307 cumulative IPC: 3.29898 (Simulation time: 0 hr 1 min 40 sec) 
Heartbeat CPU 0 instructions: 40000002 cycles: 12101540 heartbeat IPC: 3.32467 cumulative IPC: 3.30536 (Simulation time: 0 hr 2 min 13 sec) 
Heartbeat CPU 0 instructions: 50000001 cycles: 15094512 heartbeat IPC: 3.34116 cumulative IPC: 3.31246 (Simulation time: 0 hr 2 min 44 sec) 

Warmup complete CPU 0 instructions: 50000001 cycles: 15094512 (Simulation time: 0 hr 2 min 44 sec) 

Heartbeat CPU 0 instructions: 60000001 cycles: 33704516 heartbeat IPC: 0.537345 cumulative IPC: 0.537345 (Simulation time: 0 hr 3 min 36 sec) 
Heartbeat CPU 0 instructions: 70000002 cycles: 51145884 heartbeat IPC: 0.57335 cumulative IPC: 0.554764 (Simulation time: 0 hr 4 min 28 sec) 
Heartbeat CPU 0 instructions: 80000002 cycles: 66931805 heartbeat IPC: 0.633476 cumulative IPC: 0.578734 (Simulation time: 0 hr 5 min 18 sec) 
Heartbeat CPU 0 instructions: 90000001 cycles: 82727527 heartbeat IPC: 0.633083 cumulative IPC: 0.591427 (Simulation time: 0 hr 6 min 6 sec) 
Heartbeat CPU 0 instructions: 100000003 cycles: 97620061 heartbeat IPC: 0.671478 cumulative IPC: 0.605873 (Simulation time: 0 hr 6 min 52 sec) 
Heartbeat CPU 0 instructions: 110000000 cycles: 112133573 heartbeat IPC: 0.689013 cumulative IPC: 0.618308 (Simulation time: 0 hr 7 min 38 sec) 
Heartbeat CPU 0 instructions: 120000003 cycles: 126114385 heartbeat IPC: 0.715266 cumulative IPC: 0.630518 (Simulation time: 0 hr 8 min 21 sec) 
Heartbeat CPU 0 instructions: 130000002 cycles: 139348448 heartbeat IPC: 0.755626 cumulative IPC: 0.643843 (Simulation time: 0 hr 9 min 4 sec) 
Heartbeat CPU 0 instructions: 140000003 cycles: 152402796 heartbeat IPC: 0.766028 cumulative IPC: 0.655459 (Simulation time: 0 hr 9 min 47 sec) 
Heartbeat CPU 0 instructions: 150000003 cycles: 164951295 heartbeat IPC: 0.796908 cumulative IPC: 0.667304 (Simulation time: 0 hr 10 min 29 sec) 
Heartbeat CPU 0 instructions: 160000003 cycles: 177015781 heartbeat IPC: 0.828879 cumulative IPC: 0.679343 (Simulation time: 0 hr 11 min 11 sec) 
Heartbeat CPU 0 instructions: 170000003 cycles: 188930948 heartbeat IPC: 0.839266 cumulative IPC: 0.690304 (Simulation time: 0 hr 11 min 52 sec) 
Heartbeat CPU 0 instructions: 180000000 cycles: 200894181 heartbeat IPC: 0.835894 cumulative IPC: 0.699678 (Simulation time: 0 hr 12 min 32 sec) 
Heartbeat CPU 0 instructions: 190000000 cycles: 212461418 heartbeat IPC: 0.864511 cumulative IPC: 0.709339 (Simulation time: 0 hr 13 min 10 sec) 
Heartbeat CPU 0 instructions: 200000003 cycles: 223946494 heartbeat IPC: 0.870695 cumulative IPC: 0.718212 (Simulation time: 0 hr 13 min 46 sec) 
Heartbeat CPU 0 instructions: 210000000 cycles: 235070911 heartbeat IPC: 0.898923 cumulative IPC: 0.727351 (Simulation time: 0 hr 14 min 21 sec) 
Heartbeat CPU 0 instructions: 220000000 cycles: 246289718 heartbeat IPC: 0.89136 cumulative IPC: 0.735309 (Simulation time: 0 hr 14 min 55 sec) 
Heartbeat CPU 0 instructions: 230000002 cycles: 257252855 heartbeat IPC: 0.912148 cumulative IPC: 0.743315 (Simulation time: 0 hr 15 min 29 sec) 
Heartbeat CPU 0 instructions: 240000002 cycles: 268399280 heartbeat IPC: 0.897149 cumulative IPC: 0.750085 (Simulation time: 0 hr 16 min 3 sec) 
Heartbeat CPU 0 instructions: 250000002 cycles: 279377437 heartbeat IPC: 0.9109 cumulative IPC: 0.756765 (Simulation time: 0 hr 16 min 37 sec) 
Finished CPU 0 instructions: 200000001 cycles: 264282925 cumulative IPC: 0.756765 (Simulation time: 0 hr 16 min 37 sec) 
 Instruction ID: 250000039

ChampSim completed all CPUs

Region of Interest Statistics

CPU 0 cumulative IPC: 0.756765 instructions: 200000001 cycles: 264282925
ITLB SPEC fills:          0  NON-SPEC fills:          0
ITLB Test counter :          0
ITLB Leapfrog:          0
ITLB MSHR merge:          0
ITLB TOTAL     ACCESS:   26077441  HIT:   26077441  MISS:          0  HIT %:        100  MISS %:          0   MPKI: 0
ITLB LOAD TRANSLATION NON_SPEC    ACCESS:   26077441  HIT:   26077441  MISS:          0  HIT %:        100  MISS %:          0   MPKI: 0
ITLB PREFETCH  REQUESTED:          0  ISSUED:          0  USEFUL:          0  USELESS:          0
ITLB USEFUL LOAD PREFETCHES:          0 PREFETCH ISSUED TO LOWER LEVEL:          0  ACCURACY: -nan
ITLB TIMELY PREFETCHES:          0 LATE PREFETCHES: 0 DROPPED PREFETCHES: 0
ITLB COMMIT LATE PREFETCHES: 0 MISSED OPPORTUNITY: 0 LATE IN PQ: 0 UNCOVERED: 0
ITLB COMMIT LATE MSHR PREFETCHES: 0
ITLB MPKI TOTAL: 0 MSHR LATE: 0 PQ LATE: 0 COMMIT LATE: 0 MISSED OPPORTUNITY: 0 UNCOVERED: 0
ITLB PREFETCHES SAME FILL-ORIGIN LEVEL: 0 DIFFERENT FILL-ORIGIN LEVEL: 0
ITLB AVERAGE MISS LATENCY: -nan cycles
ITLB AVERAGE MISS LATENCY LOAD: -nan cycles
ITLB AVERAGE MISS LATENCY PREFETCH: -nan cycles
ITLB AVERAGE MSHR OCCUPANCY: 0
ITLB MSHR FULL: 0
ITLB RQ	ACCESS:   34084173	FORWARD:          0	MERGED:    8006733	TO_CACHE:   26077440

DTLB SPEC fills:          0  NON-SPEC fills:          0
DTLB Test counter :          0
DTLB Leapfrog:          0
DTLB MSHR merge:          0
DTLB TOTAL     ACCESS:   43198955  HIT:   43045426  MISS:     153529  HIT %:    99.6446  MISS %:     0.3554   MPKI: 0.767645
DTLB LOAD TRANSLATION NON_SPEC    ACCESS:   43198955  HIT:   43045426  MISS:     153529  HIT %:    99.6446  MISS %:     0.3554   MPKI: 0.767645
DTLB PREFETCH  REQUESTED:          0  ISSUED:          0  USEFUL:          0  USELESS:          0
DTLB USEFUL LOAD PREFETCHES:          0 PREFETCH ISSUED TO LOWER LEVEL:          0  ACCURACY: -nan
DTLB TIMELY PREFETCHES:          0 LATE PREFETCHES: 0 DROPPED PREFETCHES: 0
DTLB COMMIT LATE PREFETCHES: 0 MISSED OPPORTUNITY: 0 LATE IN PQ: 0 UNCOVERED: 0
DTLB COMMIT LATE MSHR PREFETCHES: 0
DTLB MPKI TOTAL: 0 MSHR LATE: 0 PQ LATE: 0 COMMIT LATE: 0 MISSED OPPORTUNITY: 0 UNCOVERED: 0
DTLB PREFETCHES SAME FILL-ORIGIN LEVEL: 0 DIFFERENT FILL-ORIGIN LEVEL: 0
DTLB AVERAGE MISS LATENCY: 124.898 cycles
DTLB AVERAGE MISS LATENCY LOAD: -nan cycles
DTLB AVERAGE MISS LATENCY PREFETCH: -nan cycles
DTLB AVERAGE MSHR OCCUPANCY: 0.0595146
DTLB MSHR FULL: 0
DTLB RQ	ACCESS:   63299577	FORWARD:          0	MERGED:   20056019	TO_CACHE:   43243558

STLB SPEC fills:          0  NON-SPEC fills:          0
STLB Test counter :          0
STLB Leapfrog:          0
STLB MSHR merge:          0
STLB TOTAL     ACCESS:     153529  HIT:      70223  MISS:      83306  HIT %:    45.7392  MISS %:    54.2608   MPKI: 0.41653
STLB LOAD TRANSLATION NON_SPEC    ACCESS:     153529  HIT:      70223  MISS:      83306  HIT %:    45.7392  MISS %:    54.2608   MPKI: 0.41653
STLB PREFETCH  REQUESTED:          0  ISSUED:          0  USEFUL:          0  USELESS:          0
STLB USEFUL LOAD PREFETCHES:          0 PREFETCH ISSUED TO LOWER LEVEL:          0  ACCURACY: -nan
STLB TIMELY PREFETCHES:          0 LATE PREFETCHES: 0 DROPPED PREFETCHES: 0
STLB COMMIT LATE PREFETCHES: 0 MISSED OPPORTUNITY: 0 LATE IN PQ: 0 UNCOVERED: 0
STLB COMMIT LATE MSHR PREFETCHES: 0
STLB MPKI TOTAL: 0 MSHR LATE: 0 PQ LATE: 0 COMMIT LATE: 0 MISSED OPPORTUNITY: 0 UNCOVERED: 0
STLB PREFETCHES SAME FILL-ORIGIN LEVEL: 0 DIFFERENT FILL-ORIGIN LEVEL: 0
STLB AVERAGE MISS LATENCY: 213.564 cycles
STLB AVERAGE MISS LATENCY LOAD: -nan cycles
STLB AVERAGE MISS LATENCY PREFETCH: -nan cycles
STLB AVERAGE MSHR OCCUPANCY: 0.143497
STLB MSHR FULL: 0
STLB RQ	ACCESS:     153529	FORWARD:          0	MERGED:          0	TO_CACHE:     153529

STLB Hit, L1D data hit: 0
STLB Hit, L2C data hit: 0
STLB Hit, LLC data hit: 0
STLB Hit, LLC data miss: 0
STLB STLB hints to L2: 0
L0D SPEC fills:   19954734  NON-SPEC fills:          0
L0D TimeGuard Request with older TS:     183445 Restricted eviction:       5794 read:    1032194
L0D Test counter :          0
L0D Leapfrog:          0
L0D MSHR merge:    2568814
L0D TOTAL     ACCESS:   29580998  HIT:    7975078  MISS:   21605920  HIT %:    26.9601  MISS %:    73.0399   MPKI: 108.03
L0D LOAD      TOTAL       ACCESS:   29580998  HIT:    7975078  MISS:   21605920  HIT %:    26.9601  MISS %:    73.0399   MPKI: 108.03
L0D LOAD      NON_SPEC    ACCESS:    2959991  HIT:    1314599  MISS:    1645392  HIT %:    44.4123  MISS %:    55.5877   MPKI: 8.22696
L0D LOAD      SPEC        ACCESS:   26621007  HIT:    6660479  MISS:   19960528  HIT %:    25.0196  MISS %:    74.9804   MPKI: 99.8026
L0D PREFETCH  REQUESTED:          0  ISSUED:          0  USEFUL:          0  USELESS:          0
L0D USEFUL LOAD PREFETCHES:          0 PREFETCH ISSUED TO LOWER LEVEL:          0  ACCURACY: -nan
L0D TIMELY PREFETCHES:          0 LATE PREFETCHES: 0 DROPPED PREFETCHES: 0
L0D COMMIT LATE PREFETCHES: 0 MISSED OPPORTUNITY: 0 LATE IN PQ: 0 UNCOVERED: 0
L0D COMMIT LATE MSHR PREFETCHES: 0
L0D MPKI TOTAL: 120.874 MSHR LATE: 0 PQ LATE: 0 COMMIT LATE: 0 MISSED OPPORTUNITY: 0 UNCOVERED: 0
L0D PREFETCHES SAME FILL-ORIGIN LEVEL: 0 DIFFERENT FILL-ORIGIN LEVEL: 0
L0D AVERAGE MISS LATENCY: 18.675 cycles
L0D AVERAGE MISS LATENCY LOAD: 18.675 cycles
L0D AVERAGE MISS LATENCY PREFETCH: -nan cycles
L0D AVERAGE MSHR OCCUPANCY: 1.03687
L0D MSHR FULL: 0.0406745
L0D RQ	ACCESS:   45921088	FORWARD:          0	MERGED:   13771277	TO_CACHE:   32149811
L0D WQ	ACCESS:   31149766	FORWARD:          0	MERGED:          0	TO_CACHE:   31149766

L1D SPEC fills:          0  NON-SPEC fills:     288308
L1D Test counter :          0
L1D Leapfrog:          0
L1D MSHR merge:       4469
L1D TOTAL     ACCESS:   55138340  HIT:   45209840  MISS:    9928500  HIT %:    81.9935  MISS %:    18.0065   MPKI: 49.6425
L1D LOAD      TOTAL       ACCESS:   21601451  HIT:   20237866  MISS:    1363585  HIT %:    93.6875  MISS %:    6.31247   MPKI: 6.81792
L1D LOAD      NON_SPEC    ACCESS:    1643550  HIT:    1355242  MISS:     288308  HIT %:    82.4582  MISS %:    17.5418   MPKI: 1.44154
L1D LOAD      SPEC        ACCESS:   19957901  HIT:   18882624  MISS:    1075277  HIT %:    94.6123  MISS %:    5.38773   MPKI: 5.37638
L1D RFO       NON_SPEC    ACCESS:   31014225  HIT:   23555137  MISS:    7459088  HIT %:    75.9495  MISS %:    24.0505   MPKI: 37.2954
L1D COMMIT LOAD NON_SPEC    ACCESS:    1429253  HIT:    1362347  MISS:      66906  HIT %:    95.3188  MISS %:    4.68119   MPKI: 0.33453
L1D COMMIT WRITE NON_SPEC    ACCESS:    1093411  HIT:      54490  MISS:    1038921  HIT %:    4.98349  MISS %:    95.0165   MPKI: 5.1946
L1D PREFETCH  REQUESTED:          0  ISSUED:          0  USEFUL:          0  USELESS:          0
L1D USEFUL LOAD PREFETCHES:          0 PREFETCH ISSUED TO LOWER LEVEL:          0  ACCURACY: -nan
L1D TIMELY PREFETCHES:          0 LATE PREFETCHES: 0 DROPPED PREFETCHES: 0
L1D COMMIT LATE PREFETCHES: 0 MISSED OPPORTUNITY: 0 LATE IN PQ: 0 UNCOVERED: 0
L1D COMMIT LATE MSHR PREFETCHES: 0
L1D MPKI TOTAL: 6.84027 MSHR LATE: 0 PQ LATE: 0 COMMIT LATE: 0 MISSED OPPORTUNITY: 0 UNCOVERED: 0
L1D PREFETCHES SAME FILL-ORIGIN LEVEL: 0 DIFFERENT FILL-ORIGIN LEVEL: 0
L1D AVERAGE MISS LATENCY: 233.939 cycles
L1D AVERAGE MISS LATENCY LOAD: 85.8868 cycles
L1D AVERAGE MISS LATENCY PREFETCH: -nan cycles
L1D AVERAGE MSHR OCCUPANCY: 14.1711
L1D MSHR FULL: 0.788575
L1D RQ	ACCESS:   28040496	FORWARD:          0	MERGED:    5004453	TO_CACHE:   23036039
L1D WQ	ACCESS:   32236660	FORWARD:          4	MERGED:      57808	TO_CACHE:   32178852

L1D UNIQUE REGIONS ACCESSED: 0
L1D REGIONS CONFLICTS: 0
L1D Cross Page Prefetch Requests: 0
L1D Same Page Prefetch Requests: 0
L1D ROI Sum of L1D PQ occupancy: 0
L1D PREFETCHES PUSHED FROM L2C: 0
L1I SPEC fills:          0  NON-SPEC fills:          0
L1I Test counter :          0
L1I Leapfrog:          0
L1I MSHR merge:          0
L1I TOTAL     ACCESS:   34084172  HIT:   34084172  MISS:          0  HIT %:        100  MISS %:          0   MPKI: 0
L1I LOAD      TOTAL       ACCESS:   34084172  HIT:   34084172  MISS:          0  HIT %:        100  MISS %:          0   MPKI: 0
L1I LOAD      NON_SPEC    ACCESS:   34084172  HIT:   34084172  MISS:          0  HIT %:        100  MISS %:          0   MPKI: 0
L1I PREFETCH  REQUESTED:          0  ISSUED:          0  USEFUL:          0  USELESS:          0
L1I USEFUL LOAD PREFETCHES:          0 PREFETCH ISSUED TO LOWER LEVEL:          0  ACCURACY: -nan
L1I TIMELY PREFETCHES:          0 LATE PREFETCHES: 0 DROPPED PREFETCHES: 0
L1I COMMIT LATE PREFETCHES: 0 MISSED OPPORTUNITY: 0 LATE IN PQ: 0 UNCOVERED: 0
L1I COMMIT LATE MSHR PREFETCHES: 0
L1I MPKI TOTAL: 0 MSHR LATE: 0 PQ LATE: 0 COMMIT LATE: 0 MISSED OPPORTUNITY: 0 UNCOVERED: 0
L1I PREFETCHES SAME FILL-ORIGIN LEVEL: 0 DIFFERENT FILL-ORIGIN LEVEL: 0
L1I AVERAGE MISS LATENCY: -nan cycles
L1I AVERAGE MISS LATENCY LOAD: -nan cycles
L1I AVERAGE MISS LATENCY PREFETCH: -nan cycles
L1I AVERAGE MSHR OCCUPANCY: 0
L1I MSHR FULL: 0
L1I RQ	ACCESS:   48095508	FORWARD:          0	MERGED:   14011335	TO_CACHE:   34084173

BTB SPEC fills:          0  NON-SPEC fills:          0
BTB Test counter :          0
BTB Leapfrog:          0
BTB MSHR merge:          0
BTB TOTAL     ACCESS:    2423394  HIT:    2423388  MISS:          6  HIT %:    99.9998  MISS %: 0.000247587   MPKI: 3e-05
BTB BRANCH_DIRECT_JUMP	ACCESS:     120779  HIT:     120778  MISS:          1
BTB BRANCH_INDIRECT	ACCESS:          0  HIT:          0  MISS:          0
BTB BRANCH_CONDITIONAL	ACCESS:    2302615  HIT:    2302610  MISS:          5
BTB BRANCH_DIRECT_CALL	ACCESS:          0  HIT:          0  MISS:          0
BTB BRANCH_INDIRECT_CALL	ACCESS:          0  HIT:          0  MISS:          0
BTB BRANCH_RETURN	ACCESS:          0  HIT:          0  MISS:          0
BTB BRANCH_OTHER ACCESS:          0  HIT:          0  MISS:          0

L2C SPEC fills:          0  NON-SPEC fills:      30131
L2C Test counter :          0
L2C Leapfrog:          0
L2C MSHR merge:      72763
L2C TOTAL     ACCESS:   18128483  HIT:   12581186  MISS:    5547297  HIT %:    69.4001  MISS %:    30.5999   MPKI: 27.7365
L2C LOAD      TOTAL       ACCESS:    1363528  HIT:    1193617  MISS:     169911  HIT %:    87.5389  MISS %:    12.4611   MPKI: 0.849555
L2C LOAD      NON_SPEC    ACCESS:     288306  HIT:     258175  MISS:      30131  HIT %:     89.549  MISS %:     10.451   MPKI: 0.150655
L2C LOAD      SPEC        ACCESS:    1075222  HIT:     935442  MISS:     139780  HIT %:    86.9999  MISS %:    13.0001   MPKI: 0.6989
L2C RFO       NON_SPEC    ACCESS:    7459088  HIT:    3397405  MISS:    4061683  HIT %:    45.5472  MISS %:    54.4528   MPKI: 20.3084
L2C PREFETCH  NON_SPEC    ACCESS:    1200527  HIT:       5570  MISS:    1194957  HIT %:   0.463963  MISS %:     99.536   MPKI: 5.97478
L2C WRITEBACK NON_SPEC    ACCESS:    7459084  HIT:    7459049  MISS:         35  HIT %:    99.9995  MISS %: 0.000469227   MPKI: 0.000175
L2C CLEAN_EVICTION NON_SPEC    ACCESS:     162901  HIT:      63693  MISS:      99208  HIT %:    39.0992  MISS %:    60.9008   MPKI: 0.49604
L2C COMMIT LOAD NON_SPEC    ACCESS:      66906  HIT:      55915  MISS:      10991  HIT %:    83.5725  MISS %:    16.4275   MPKI: 0.054955
L2C LOAD TRANSLATION NON_SPEC    ACCESS:     416449  HIT:     405937  MISS:      10512  HIT %:    97.4758  MISS %:     2.5242   MPKI: 0.05256
L2C PREFETCH  REQUESTED:    1298682  ISSUED:    1298682  USEFUL:    1164709  USELESS:      30312
L2C USEFUL LOAD PREFETCHES:    1164709 PREFETCH ISSUED TO LOWER LEVEL:    1271445  ACCURACY: 91.6051
L2C TIMELY PREFETCHES:    1164709 LATE PREFETCHES: 76488 DROPPED PREFETCHES: 0
L2C COMMIT LATE PREFETCHES: 0 MISSED OPPORTUNITY: 0 LATE IN PQ: 0 UNCOVERED: 0
L2C COMMIT LATE MSHR PREFETCHES: 0
L2C MPKI TOTAL: 0.849555 MSHR LATE: 0.38244 PQ LATE: 0 COMMIT LATE: 0 MISSED OPPORTUNITY: 0 UNCOVERED: 0
L2C PREFETCHES SAME FILL-ORIGIN LEVEL: 1271445 DIFFERENT FILL-ORIGIN LEVEL: 0
L2C AVERAGE MISS LATENCY: 510.892 cycles
L2C AVERAGE MISS LATENCY LOAD: 448.7 cycles
L2C AVERAGE MISS LATENCY PREFETCH: 575.005 cycles
L2C AVERAGE MSHR OCCUPANCY: 18.3513
L2C MSHR FULL: 0.34338
L2C RQ	ACCESS:    9306036	FORWARD:          0	MERGED:          0	TO_CACHE:    9305979
L2C WQ	ACCESS:    7621986	FORWARD:         57	MERGED:          0	TO_CACHE:    7621986
L2C PQ	ACCESS:    1298682	FORWARD:          0	MERGED:         12	TO_CACHE:    1298670

L2C Instructions Evicting Data 0
L2C Translations Evicting Data 10414
L2C Data Evicting Data 5287585
L2C Instructions Evicting Instructions 0
L2C Translations Evicting Instructions 0
L2C Data Evicting Instructions 0
L2C Instructions Evicting Translations 0
L2C Translations Evicting Translations 98
L2C Data Evicting Translations 10177
L2C Dense regions hint from L2: 0
PSCL5 SPEC fills:          0  NON-SPEC fills:          0
PSCL5 Test counter :          0
PSCL5 Leapfrog:          0
PSCL5 MSHR merge:          0
PSCL5 TOTAL     ACCESS:          0  HIT:          0  MISS:          0  HIT %:       -nan  MISS %:       -nan   MPKI: 0
PSCL5 PREFETCH  REQUESTED:          0  ISSUED:          0  USEFUL:          0  USELESS:          0
PSCL5 USEFUL LOAD PREFETCHES:          0 PREFETCH ISSUED TO LOWER LEVEL:          0  ACCURACY: -nan
PSCL5 TIMELY PREFETCHES:          0 LATE PREFETCHES: 0 DROPPED PREFETCHES: 0
PSCL5 COMMIT LATE PREFETCHES: 0 MISSED OPPORTUNITY: 0 LATE IN PQ: 0 UNCOVERED: 0
PSCL5 COMMIT LATE MSHR PREFETCHES: 0
PSCL5 MPKI TOTAL: 0 MSHR LATE: 0 PQ LATE: 0 COMMIT LATE: 0 MISSED OPPORTUNITY: 0 UNCOVERED: 0
PSCL5 PREFETCHES SAME FILL-ORIGIN LEVEL: 0 DIFFERENT FILL-ORIGIN LEVEL: 0

PSCL4 SPEC fills:          0  NON-SPEC fills:          0
PSCL4 Test counter :          0
PSCL4 Leapfrog:          0
PSCL4 MSHR merge:          0
PSCL4 TOTAL     ACCESS:          0  HIT:          0  MISS:          0  HIT %:       -nan  MISS %:       -nan   MPKI: 0
PSCL4 PREFETCH  REQUESTED:          0  ISSUED:          0  USEFUL:          0  USELESS:          0
PSCL4 USEFUL LOAD PREFETCHES:          0 PREFETCH ISSUED TO LOWER LEVEL:          0  ACCURACY: -nan
PSCL4 TIMELY PREFETCHES:          0 LATE PREFETCHES: 0 DROPPED PREFETCHES: 0
PSCL4 COMMIT LATE PREFETCHES: 0 MISSED OPPORTUNITY: 0 LATE IN PQ: 0 UNCOVERED: 0
PSCL4 COMMIT LATE MSHR PREFETCHES: 0
PSCL4 MPKI TOTAL: 0 MSHR LATE: 0 PQ LATE: 0 COMMIT LATE: 0 MISSED OPPORTUNITY: 0 UNCOVERED: 0
PSCL4 PREFETCHES SAME FILL-ORIGIN LEVEL: 0 DIFFERENT FILL-ORIGIN LEVEL: 0

PSCL3 SPEC fills:          0  NON-SPEC fills:          0
PSCL3 Test counter :          0
PSCL3 Leapfrog:          0
PSCL3 MSHR merge:          0
PSCL3 TOTAL     ACCESS:          0  HIT:          0  MISS:          0  HIT %:       -nan  MISS %:       -nan   MPKI: 0
PSCL3 PREFETCH  REQUESTED:          0  ISSUED:          0  USEFUL:          0  USELESS:          0
PSCL3 USEFUL LOAD PREFETCHES:          0 PREFETCH ISSUED TO LOWER LEVEL:          0  ACCURACY: -nan
PSCL3 TIMELY PREFETCHES:          0 LATE PREFETCHES: 0 DROPPED PREFETCHES: 0
PSCL3 COMMIT LATE PREFETCHES: 0 MISSED OPPORTUNITY: 0 LATE IN PQ: 0 UNCOVERED: 0
PSCL3 COMMIT LATE MSHR PREFETCHES: 0
PSCL3 MPKI TOTAL: 0 MSHR LATE: 0 PQ LATE: 0 COMMIT LATE: 0 MISSED OPPORTUNITY: 0 UNCOVERED: 0
PSCL3 PREFETCHES SAME FILL-ORIGIN LEVEL: 0 DIFFERENT FILL-ORIGIN LEVEL: 0

PSCL2 SPEC fills:          0  NON-SPEC fills:          0
PSCL2 Test counter :          0
PSCL2 Leapfrog:          0
PSCL2 MSHR merge:          0
PSCL2 TOTAL     ACCESS:          0  HIT:          0  MISS:          0  HIT %:       -nan  MISS %:       -nan   MPKI: 0
PSCL2 PREFETCH  REQUESTED:          0  ISSUED:          0  USEFUL:          0  USELESS:          0
PSCL2 USEFUL LOAD PREFETCHES:          0 PREFETCH ISSUED TO LOWER LEVEL:          0  ACCURACY: -nan
PSCL2 TIMELY PREFETCHES:          0 LATE PREFETCHES: 0 DROPPED PREFETCHES: 0
PSCL2 COMMIT LATE PREFETCHES: 0 MISSED OPPORTUNITY: 0 LATE IN PQ: 0 UNCOVERED: 0
PSCL2 COMMIT LATE MSHR PREFETCHES: 0
PSCL2 MPKI TOTAL: 0 MSHR LATE: 0 PQ LATE: 0 COMMIT LATE: 0 MISSED OPPORTUNITY: 0 UNCOVERED: 0
PSCL2 PREFETCHES SAME FILL-ORIGIN LEVEL: 0 DIFFERENT FILL-ORIGIN LEVEL: 0

LLC SPEC fills:          0  NON-SPEC fills:      26671
LLC Test counter :          0
LLC Leapfrog:          0
LLC MSHR merge:          0
LLC TOTAL     ACCESS:    9672932  HIT:    4263245  MISS:    5409687  HIT %:     44.074  MISS %:     55.926   MPKI: 27.0484
LLC LOAD      TOTAL       ACCESS:      97147  HIT:        764  MISS:      96383  HIT %:   0.786437  MISS %:    99.2136   MPKI: 0.481915
LLC LOAD      NON_SPEC    ACCESS:      26703  HIT:         32  MISS:      26671  HIT %:   0.119837  MISS %:    99.8802   MPKI: 0.133355
LLC LOAD      SPEC        ACCESS:      70444  HIT:        732  MISS:      69712  HIT %:    1.03912  MISS %:    98.9609   MPKI: 0.34856
LLC RFO       NON_SPEC    ACCESS:    4061668  HIT:      64954  MISS:    3996714  HIT %:     1.5992  MISS %:    98.4008   MPKI: 19.9836
LLC PREFETCH  NON_SPEC    ACCESS:    1271394  HIT:       2014  MISS:    1269380  HIT %:   0.158409  MISS %:    99.8416   MPKI: 6.3469
LLC WRITEBACK NON_SPEC    ACCESS:    4062874  HIT:    4062857  MISS:         17  HIT %:    99.9996  MISS %: 0.000418423   MPKI: 8.5e-05
LLC CLEAN_EVICTION NON_SPEC    ACCESS:     162071  HIT:     127322  MISS:      34749  HIT %:    78.5594  MISS %:    21.4406   MPKI: 0.173745
LLC COMMIT LOAD NON_SPEC    ACCESS:       7266  HIT:       5334  MISS:       1932  HIT %:    73.4104  MISS %:    26.5896   MPKI: 0.00966
LLC LOAD TRANSLATION NON_SPEC    ACCESS:      10512  HIT:          0  MISS:      10512  HIT %:          0  MISS %:        100   MPKI: 0.05256
LLC PREFETCH  REQUESTED:          0  ISSUED:          0  USEFUL:       5564  USELESS:    1263255
LLC USEFUL LOAD PREFETCHES:       5564 PREFETCH ISSUED TO LOWER LEVEL:    1269380  ACCURACY: 0.438324
LLC TIMELY PREFETCHES:       5564 LATE PREFETCHES: 0 DROPPED PREFETCHES: 0
LLC COMMIT LATE PREFETCHES: 0 MISSED OPPORTUNITY: 0 LATE IN PQ: 0 UNCOVERED: 0
LLC COMMIT LATE MSHR PREFETCHES: 0
LLC MPKI TOTAL: 0.481915 MSHR LATE: 0 PQ LATE: 0 COMMIT LATE: 0 MISSED OPPORTUNITY: 0 UNCOVERED: 0
LLC PREFETCHES SAME FILL-ORIGIN LEVEL: 0 DIFFERENT FILL-ORIGIN LEVEL: 0
LLC AVERAGE MISS LATENCY: 494.975 cycles
LLC AVERAGE MISS LATENCY LOAD: 398.785 cycles
LLC AVERAGE MISS LATENCY PREFETCH: 548.503 cycles
LLC AVERAGE MSHR OCCUPANCY: 10.4416
LLC MSHR FULL: 0
LLC RQ	ACCESS:    4176617	FORWARD:          0	MERGED:          0	TO_CACHE:    4176601
LLC WQ	ACCESS:    4224945	FORWARD:         67	MERGED:          0	TO_CACHE:    4224945
LLC PQ	ACCESS:    1271445	FORWARD:          0	MERGED:          0	TO_CACHE:    1271394

LLC Dense regions hint to LLC: 0

RAW hits: 1838006
Loads Generated: 47759094
Loads sent to L1D: 45921088
Stores Generated: 31149747
Stores sent to L1D: 31149766
Major fault: 0 Minor fault: 61402
Allocated PAGES: 61402
Total Load insts: 57150463
Total Non-spec loads: 4196328
Percentage of speculative loads: 92.6574

LeapFrogging counter: 5024319
Commit hits: 19771293 miss: 22369634
Commit hit %: 46.9171 miss %: 53.0829
Commits not translated: 0
Loads retired: 1363585
Stores retired: 31149766
Cache fills: 1363585
L1D response latency: 85.8868 cycles
Load retirement latency: 297.279 cycles
OOO test counter: 0
Discarded buffer inserts: 19771293 hits: 80289 hit %: 0.406089
Filter prediction accuracy: 99.8662
[Bingo] PHT Access: 44221
[Bingo] PHT Hit PC+Addr: 2625
[Bingo] PHT Hit PC+Offs: 41564
[Bingo] PHT Miss: 32
[Bingo] Prefetch PC+Addr: 0
[Bingo] Prefetch PC+Offs: 0
[Bingo] Useful PC+Addr: 0
[Bingo] Useful PC+Offs: 0
[Bingo] Useless PC+Addr: 0
[Bingo] Useless PC+Offs: 0
[Bingo] L1 Prefetch per Region: 0
[Bingo] L2 Prefetch per Region: 30.392
[Bingo] L3 Prefetch per Region: 0
[Bingo] No Prefetch per Region: 1.60805
[Bingo] Number of Voters Mean: 16
[Bingo] Number of Voters SD: 10.0417
PHT read accesses: 670825
PHT write accesses: 44176
AT read accesses: 47659266
AT write accesses: 47660033
FT read accesses: 330791
FT write accesses: 44221
PS read accesses: 824711
PS write accesses: 44189
PHT tag read accesses: 2040221
PHT tag write accesses: 46801
AT tag read accesses: 852303696
AT tag write accesses: 47703482
FT tag read accesses: 90979602
FT tag write accesses: 231727
PS tag read accesses: 765603971
PS tag write accesses: 868900

DRAM Statistics
 CHANNEL 0
 RQ ROW_BUFFER_HIT:     719538  ROW_BUFFER_MISS:    4655381
 DBUS_CONGESTED:         18
 WQ ROW_BUFFER_HIT:     976483  ROW_BUFFER_MISS:    3182376  FULL:       1392

 AVG_CONGESTED_CYCLE: 5
 All warmup complete: 2
Channel 0 Bank busy for read cycles: 0
Channel 0 Bank busy for write cycles: 0
Channel 0
Rank 0
0banks busy for read cycles: 11160576
0banks busy for write cycles: 7597
1banks busy for read cycles: 8475246
1banks busy for write cycles: 1090223
2banks busy for read cycles: 13384628
2banks busy for write cycles: 929323
3banks busy for read cycles: 23101198
3banks busy for write cycles: 871941
4banks busy for read cycles: 18734179
4banks busy for write cycles: 869596
5banks busy for read cycles: 32929504
5banks busy for write cycles: 905107
6banks busy for read cycles: 22545294
6banks busy for write cycles: 1007423
7banks busy for read cycles: 16186481
7banks busy for write cycles: 5332779
8banks busy for read cycles: 26974039
8banks busy for write cycles: 79777792

CPU 0 Branch Prediction Accuracy: 99.0972% MPKI: 0.10939 Average ROB Occupancy at Mispredict: 132.475
Branch types
NOT_BRANCH: 197576254 98.7881%
BRANCH_DIRECT_JUMP: 120779 0.0603895%
BRANCH_INDIRECT: 0 0%
BRANCH_CONDITIONAL: 2302625 1.15131%
BRANCH_DIRECT_CALL: 0 0%
BRANCH_INDIRECT_CALL: 0 0%
BRANCH_RETURN: 0 0%
BRANCH_OTHER: 0 0%

DRAM PAGES: 1048576
Allocated PAGES: 61402
