
*** ChampSim Multicore Out-of-Order Simulator ***

Warmup Instructions: 50000000
Simulation Instructions: 200000000
Number of CPUs: 1
LLC sets: 2048
LLC ways: 16
L0D sets: 16
L0D ways: 2
ROB size: 352
LQ size: 128
SQ size: 72
Secure Berti: OFF
Berti: OFF
Berti Fill: OFF
On commit prefetching: ON
Hit-based filter: ON
Time-guarding: ON
Free-slotting: ON
Leap-frogging: ON
Train prefetcher on L0D bypass: OFF
No translation penalty for prefetchers: OFF
Prefetch to L0D only: OFF
Prefetch to L1D only: OFF
Clean evictions: ON
Commit loads: ON
Commit write: ON
Fill commit loads to L2C, LLC: ON
DRAM IO FREQUENCY: 6400
ROB SIZE: 352
Off-chip DRAM Size: 4096 MB Channels: 1 Width: 64-bit Data Rate: 6400 MT/s
CPU 0 runs /home/sumon/secure_berti/GhostMinion/../../traces/spec/619.lbm_s-2677B.champsimtrace.xz
.xz
BTB has LRU replacement policy
ITLB has LRU replacement policy
DTLB has LRU replacement policy
STLB has LRU replacement policy
L1I has LRU replacement policy
L0D has LRU replacement policy
L1D has LRU replacement policy
Bingo PHT WAYS: 16 and PHT_SIZE: 16384
L2C has LRU replacement policy
LLC has LRU replacement policy
Heartbeat CPU 0 instructions: 10000001 cycles: 3055716 heartbeat IPC: 3.27256 cumulative IPC: 3.27256 (Simulation time: 0 hr 0 min 34 sec) 
Heartbeat CPU 0 instructions: 20000003 cycles: 6100147 heartbeat IPC: 3.28469 cumulative IPC: 3.27861 (Simulation time: 0 hr 1 min 7 sec) 
Heartbeat CPU 0 instructions: 30000000 cycles: 9152429 heartbeat IPC: 3.27624 cumulative IPC: 3.27782 (Simulation time: 0 hr 1 min 40 sec) 
Heartbeat CPU 0 instructions: 40000000 cycles: 12203030 heartbeat IPC: 3.27804 cumulative IPC: 3.27787 (Simulation time: 0 hr 2 min 13 sec) 
Heartbeat CPU 0 instructions: 50000003 cycles: 15259760 heartbeat IPC: 3.27147 cumulative IPC: 3.27659 (Simulation time: 0 hr 2 min 46 sec) 

Warmup complete CPU 0 instructions: 50000003 cycles: 15259760 (Simulation time: 0 hr 2 min 46 sec) 

Heartbeat CPU 0 instructions: 60000001 cycles: 39131851 heartbeat IPC: 0.418899 cumulative IPC: 0.418899 (Simulation time: 0 hr 3 min 48 sec) 
Heartbeat CPU 0 instructions: 70000002 cycles: 62845985 heartbeat IPC: 0.421689 cumulative IPC: 0.42029 (Simulation time: 0 hr 4 min 48 sec) 
Heartbeat CPU 0 instructions: 80000002 cycles: 86558216 heartbeat IPC: 0.421723 cumulative IPC: 0.420766 (Simulation time: 0 hr 5 min 47 sec) 
Heartbeat CPU 0 instructions: 90000002 cycles: 110953100 heartbeat IPC: 0.409922 cumulative IPC: 0.418002 (Simulation time: 0 hr 6 min 48 sec) 
Heartbeat CPU 0 instructions: 100000000 cycles: 135168636 heartbeat IPC: 0.412958 cumulative IPC: 0.416983 (Simulation time: 0 hr 7 min 48 sec) 
Heartbeat CPU 0 instructions: 110000000 cycles: 159444216 heartbeat IPC: 0.411937 cumulative IPC: 0.416134 (Simulation time: 0 hr 8 min 50 sec) 
Heartbeat CPU 0 instructions: 120000000 cycles: 183362111 heartbeat IPC: 0.418097 cumulative IPC: 0.416413 (Simulation time: 0 hr 9 min 50 sec) 
Heartbeat CPU 0 instructions: 130000001 cycles: 206940960 heartbeat IPC: 0.424109 cumulative IPC: 0.41736 (Simulation time: 0 hr 10 min 50 sec) 
Heartbeat CPU 0 instructions: 140000001 cycles: 231039643 heartbeat IPC: 0.41496 cumulative IPC: 0.417092 (Simulation time: 0 hr 11 min 50 sec) 
Heartbeat CPU 0 instructions: 150000002 cycles: 255038118 heartbeat IPC: 0.416693 cumulative IPC: 0.417052 (Simulation time: 0 hr 12 min 50 sec) 
Heartbeat CPU 0 instructions: 160000003 cycles: 278650194 heartbeat IPC: 0.423512 cumulative IPC: 0.417631 (Simulation time: 0 hr 13 min 49 sec) 
Heartbeat CPU 0 instructions: 170000002 cycles: 302320116 heartbeat IPC: 0.422477 cumulative IPC: 0.418031 (Simulation time: 0 hr 14 min 47 sec) 
Heartbeat CPU 0 instructions: 180000000 cycles: 325234467 heartbeat IPC: 0.436408 cumulative IPC: 0.419389 (Simulation time: 0 hr 15 min 42 sec) 
Heartbeat CPU 0 instructions: 190000000 cycles: 348964766 heartbeat IPC: 0.421402 cumulative IPC: 0.419532 (Simulation time: 0 hr 16 min 39 sec) 
Heartbeat CPU 0 instructions: 200000000 cycles: 372433765 heartbeat IPC: 0.426094 cumulative IPC: 0.419963 (Simulation time: 0 hr 17 min 35 sec) 
Heartbeat CPU 0 instructions: 210000000 cycles: 395735762 heartbeat IPC: 0.429148 cumulative IPC: 0.420526 (Simulation time: 0 hr 18 min 30 sec) 
Heartbeat CPU 0 instructions: 220000000 cycles: 419944708 heartbeat IPC: 0.41307 cumulative IPC: 0.42008 (Simulation time: 0 hr 19 min 27 sec) 
Heartbeat CPU 0 instructions: 230000000 cycles: 444392002 heartbeat IPC: 0.409043 cumulative IPC: 0.419451 (Simulation time: 0 hr 20 min 23 sec) 
Heartbeat CPU 0 instructions: 240000001 cycles: 469899003 heartbeat IPC: 0.392049 cumulative IPC: 0.417914 (Simulation time: 0 hr 21 min 19 sec) 
Heartbeat CPU 0 instructions: 250000003 cycles: 494983970 heartbeat IPC: 0.398645 cumulative IPC: 0.416906 (Simulation time: 0 hr 22 min 14 sec) 
Finished CPU 0 instructions: 200000000 cycles: 479724210 cumulative IPC: 0.416906 (Simulation time: 0 hr 22 min 14 sec) 
 Instruction ID: 250000082

ChampSim completed all CPUs

Region of Interest Statistics

CPU 0 cumulative IPC: 0.416906 instructions: 200000000 cycles: 479724210
ITLB SPEC fills:          0  NON-SPEC fills:          0
ITLB Test counter :          0
ITLB Leapfrog:          0
ITLB MSHR merge:          0
ITLB TOTAL     ACCESS:   26860593  HIT:   26860593  MISS:          0  HIT %:        100  MISS %:          0   MPKI: 0
ITLB LOAD TRANSLATION NON_SPEC    ACCESS:   26860593  HIT:   26860593  MISS:          0  HIT %:        100  MISS %:          0   MPKI: 0
ITLB PREFETCH  REQUESTED:          0  ISSUED:          0  USEFUL:          0  USELESS:          0
ITLB USEFUL LOAD PREFETCHES:          0 PREFETCH ISSUED TO LOWER LEVEL:          0  ACCURACY: -nan
ITLB TIMELY PREFETCHES:          0 LATE PREFETCHES: 0 DROPPED PREFETCHES: 0
ITLB COMMIT LATE PREFETCHES: 0 MISSED OPPORTUNITY: 0 LATE IN PQ: 0 UNCOVERED: 0
ITLB COMMIT LATE MSHR PREFETCHES: 0
ITLB MPKI TOTAL: 0 MSHR LATE: 0 PQ LATE: 0 COMMIT LATE: 0 MISSED OPPORTUNITY: 0 UNCOVERED: 0
ITLB PREFETCHES SAME FILL-ORIGIN LEVEL: 0 DIFFERENT FILL-ORIGIN LEVEL: 0
ITLB AVERAGE MISS LATENCY: -nan cycles
ITLB AVERAGE MISS LATENCY LOAD: -nan cycles
ITLB AVERAGE MISS LATENCY PREFETCH: -nan cycles
ITLB AVERAGE MSHR OCCUPANCY: 0
ITLB MSHR FULL: 0
ITLB RQ	ACCESS:   34670659	FORWARD:          0	MERGED:    7810067	TO_CACHE:   26860592

DTLB SPEC fills:          0  NON-SPEC fills:          0
DTLB Test counter :          0
DTLB Leapfrog:          0
DTLB MSHR merge:          0
DTLB TOTAL     ACCESS:   46047330  HIT:   45771283  MISS:     276047  HIT %:    99.4005  MISS %:   0.599485   MPKI: 1.38024
DTLB LOAD TRANSLATION NON_SPEC    ACCESS:   46047330  HIT:   45771283  MISS:     276047  HIT %:    99.4005  MISS %:   0.599485   MPKI: 1.38024
DTLB PREFETCH  REQUESTED:          0  ISSUED:          0  USEFUL:          0  USELESS:          0
DTLB USEFUL LOAD PREFETCHES:          0 PREFETCH ISSUED TO LOWER LEVEL:          0  ACCURACY: -nan
DTLB TIMELY PREFETCHES:          0 LATE PREFETCHES: 0 DROPPED PREFETCHES: 0
DTLB COMMIT LATE PREFETCHES: 0 MISSED OPPORTUNITY: 0 LATE IN PQ: 0 UNCOVERED: 0
DTLB COMMIT LATE MSHR PREFETCHES: 0
DTLB MPKI TOTAL: 0 MSHR LATE: 0 PQ LATE: 0 COMMIT LATE: 0 MISSED OPPORTUNITY: 0 UNCOVERED: 0
DTLB PREFETCHES SAME FILL-ORIGIN LEVEL: 0 DIFFERENT FILL-ORIGIN LEVEL: 0
DTLB AVERAGE MISS LATENCY: 130.062 cycles
DTLB AVERAGE MISS LATENCY LOAD: -nan cycles
DTLB AVERAGE MISS LATENCY PREFETCH: -nan cycles
DTLB AVERAGE MSHR OCCUPANCY: 0.0950946
DTLB MSHR FULL: 0
DTLB RQ	ACCESS:   67545851	FORWARD:          0	MERGED:   21330935	TO_CACHE:   46214916

STLB SPEC fills:          0  NON-SPEC fills:          0
STLB Test counter :          0
STLB Leapfrog:          0
STLB MSHR merge:          0
STLB TOTAL     ACCESS:     276047  HIT:     126263  MISS:     149784  HIT %:    45.7397  MISS %:    54.2603   MPKI: 0.74892
STLB LOAD TRANSLATION NON_SPEC    ACCESS:     276047  HIT:     126263  MISS:     149784  HIT %:    45.7397  MISS %:    54.2603   MPKI: 0.74892
STLB PREFETCH  REQUESTED:          0  ISSUED:          0  USEFUL:          0  USELESS:          0
STLB USEFUL LOAD PREFETCHES:          0 PREFETCH ISSUED TO LOWER LEVEL:          0  ACCURACY: -nan
STLB TIMELY PREFETCHES:          0 LATE PREFETCHES: 0 DROPPED PREFETCHES: 0
STLB COMMIT LATE PREFETCHES: 0 MISSED OPPORTUNITY: 0 LATE IN PQ: 0 UNCOVERED: 0
STLB COMMIT LATE MSHR PREFETCHES: 0
STLB MPKI TOTAL: 0 MSHR LATE: 0 PQ LATE: 0 COMMIT LATE: 0 MISSED OPPORTUNITY: 0 UNCOVERED: 0
STLB PREFETCHES SAME FILL-ORIGIN LEVEL: 0 DIFFERENT FILL-ORIGIN LEVEL: 0
STLB AVERAGE MISS LATENCY: 222.993 cycles
STLB AVERAGE MISS LATENCY LOAD: -nan cycles
STLB AVERAGE MISS LATENCY PREFETCH: -nan cycles
STLB AVERAGE MSHR OCCUPANCY: 0.182096
STLB MSHR FULL: 0
STLB RQ	ACCESS:     276047	FORWARD:          0	MERGED:          0	TO_CACHE:     276047

STLB Hit, L1D data hit: 0
STLB Hit, L2C data hit: 0
STLB Hit, LLC data hit: 0
STLB Hit, LLC data miss: 0
STLB STLB hints to L2: 0
L0D SPEC fills:   18215590  NON-SPEC fills:          0
L0D TimeGuard Request with older TS:      73269 Restricted eviction:     132896 read:     633923
L0D Test counter :          0
L0D Leapfrog:          0
L0D MSHR merge:    3978658
L0D TOTAL     ACCESS:   26622258  HIT:    6419762  MISS:   20202496  HIT %:    24.1143  MISS %:    75.8857   MPKI: 101.012
L0D LOAD      TOTAL       ACCESS:   26622258  HIT:    6419762  MISS:   20202496  HIT %:    24.1143  MISS %:    75.8857   MPKI: 101.012
L0D LOAD      NON_SPEC    ACCESS:    2636472  HIT:     782462  MISS:    1854010  HIT %:    29.6784  MISS %:    70.3216   MPKI: 9.27005
L0D LOAD      SPEC        ACCESS:   23985786  HIT:    5637300  MISS:   18348486  HIT %:    23.5027  MISS %:    76.4973   MPKI: 91.7424
L0D PREFETCH  REQUESTED:          0  ISSUED:          0  USEFUL:          0  USELESS:          0
L0D USEFUL LOAD PREFETCHES:          0 PREFETCH ISSUED TO LOWER LEVEL:          0  ACCURACY: -nan
L0D TIMELY PREFETCHES:          0 LATE PREFETCHES: 0 DROPPED PREFETCHES: 0
L0D COMMIT LATE PREFETCHES: 0 MISSED OPPORTUNITY: 0 LATE IN PQ: 0 UNCOVERED: 0
L0D COMMIT LATE MSHR PREFETCHES: 0
L0D MPKI TOTAL: 120.906 MSHR LATE: 0 PQ LATE: 0 COMMIT LATE: 0 MISSED OPPORTUNITY: 0 UNCOVERED: 0
L0D PREFETCHES SAME FILL-ORIGIN LEVEL: 0 DIFFERENT FILL-ORIGIN LEVEL: 0
L0D AVERAGE MISS LATENCY: 61.2789 cycles
L0D AVERAGE MISS LATENCY LOAD: 61.2789 cycles
L0D AVERAGE MISS LATENCY PREFETCH: -nan cycles
L0D AVERAGE MSHR OCCUPANCY: 2.38113
L0D MSHR FULL: 0.181662
L0D RQ	ACCESS:   49867040	FORWARD:          0	MERGED:   19266126	TO_CACHE:   30600914
L0D WQ	ACCESS:   36944937	FORWARD:          0	MERGED:          0	TO_CACHE:   36944937

L1D SPEC fills:          0  NON-SPEC fills:     229697
L1D Test counter :          0
L1D Leapfrog:          0
L1D MSHR merge:      20642
L1D TOTAL     ACCESS:   61345399  HIT:   43116601  MISS:   18228798  HIT %:     70.285  MISS %:     29.715   MPKI: 91.144
L1D LOAD      TOTAL       ACCESS:   20181853  HIT:   17721090  MISS:    2460763  HIT %:    87.8071  MISS %:    12.1929   MPKI: 12.3038
L1D LOAD      NON_SPEC    ACCESS:    1845102  HIT:    1615405  MISS:     229697  HIT %:     87.551  MISS %:     12.449   MPKI: 1.14848
L1D LOAD      SPEC        ACCESS:   18336751  HIT:   16105685  MISS:    2231066  HIT %:    87.8328  MISS %:    12.1672   MPKI: 11.1553
L1D RFO       NON_SPEC    ACCESS:   36406798  HIT:   23004162  MISS:   13402636  HIT %:    63.1864  MISS %:    36.8136   MPKI: 67.0132
L1D COMMIT LOAD NON_SPEC    ACCESS:    2465092  HIT:    2160522  MISS:     304570  HIT %:    87.6447  MISS %:    12.3553   MPKI: 1.52285
L1D COMMIT WRITE NON_SPEC    ACCESS:    2291656  HIT:     230827  MISS:    2060829  HIT %:    10.0725  MISS %:    89.9275   MPKI: 10.3041
L1D PREFETCH  REQUESTED:          0  ISSUED:          0  USEFUL:          0  USELESS:          0
L1D USEFUL LOAD PREFETCHES:          0 PREFETCH ISSUED TO LOWER LEVEL:          0  ACCURACY: -nan
L1D TIMELY PREFETCHES:          0 LATE PREFETCHES: 0 DROPPED PREFETCHES: 0
L1D COMMIT LATE PREFETCHES: 0 MISSED OPPORTUNITY: 0 LATE IN PQ: 0 UNCOVERED: 0
L1D COMMIT LATE MSHR PREFETCHES: 0
L1D MPKI TOTAL: 12.407 MSHR LATE: 0 PQ LATE: 0 COMMIT LATE: 0 MISSED OPPORTUNITY: 0 UNCOVERED: 0
L1D PREFETCHES SAME FILL-ORIGIN LEVEL: 0 DIFFERENT FILL-ORIGIN LEVEL: 0
L1D AVERAGE MISS LATENCY: 266.357 cycles
L1D AVERAGE MISS LATENCY LOAD: 149.841 cycles
L1D AVERAGE MISS LATENCY PREFETCH: -nan cycles
L1D AVERAGE MSHR OCCUPANCY: 15.5507
L1D MSHR FULL: 0.94127
L1D RQ	ACCESS:   33437540	FORWARD:          0	MERGED:   10766010	TO_CACHE:   22671523
L1D WQ	ACCESS:   39203710	FORWARD:          7	MERGED:     250026	TO_CACHE:   38953684

L1D UNIQUE REGIONS ACCESSED: 0
L1D REGIONS CONFLICTS: 0
L1D Cross Page Prefetch Requests: 0
L1D Same Page Prefetch Requests: 0
L1D ROI Sum of L1D PQ occupancy: 0
L1D PREFETCHES PUSHED FROM L2C: 0
L1I SPEC fills:          0  NON-SPEC fills:          0
L1I Test counter :          0
L1I Leapfrog:          0
L1I MSHR merge:          0
L1I TOTAL     ACCESS:   34670660  HIT:   34670660  MISS:          0  HIT %:        100  MISS %:          0   MPKI: 0
L1I LOAD      TOTAL       ACCESS:   34670660  HIT:   34670660  MISS:          0  HIT %:        100  MISS %:          0   MPKI: 0
L1I LOAD      NON_SPEC    ACCESS:   34670660  HIT:   34670660  MISS:          0  HIT %:        100  MISS %:          0   MPKI: 0
L1I PREFETCH  REQUESTED:          0  ISSUED:          0  USEFUL:          0  USELESS:          0
L1I USEFUL LOAD PREFETCHES:          0 PREFETCH ISSUED TO LOWER LEVEL:          0  ACCURACY: -nan
L1I TIMELY PREFETCHES:          0 LATE PREFETCHES: 0 DROPPED PREFETCHES: 0
L1I COMMIT LATE PREFETCHES: 0 MISSED OPPORTUNITY: 0 LATE IN PQ: 0 UNCOVERED: 0
L1I COMMIT LATE MSHR PREFETCHES: 0
L1I MPKI TOTAL: 0 MSHR LATE: 0 PQ LATE: 0 COMMIT LATE: 0 MISSED OPPORTUNITY: 0 UNCOVERED: 0
L1I PREFETCHES SAME FILL-ORIGIN LEVEL: 0 DIFFERENT FILL-ORIGIN LEVEL: 0
L1I AVERAGE MISS LATENCY: -nan cycles
L1I AVERAGE MISS LATENCY LOAD: -nan cycles
L1I AVERAGE MISS LATENCY PREFETCH: -nan cycles
L1I AVERAGE MSHR OCCUPANCY: 0
L1I MSHR FULL: 0
L1I RQ	ACCESS:   49966349	FORWARD:          0	MERGED:   15295690	TO_CACHE:   34670659

BTB SPEC fills:          0  NON-SPEC fills:          0
BTB Test counter :          0
BTB Leapfrog:          0
BTB MSHR merge:          0
BTB TOTAL     ACCESS:    3609719  HIT:    3609713  MISS:          6  HIT %:    99.9998  MISS %: 0.000166218   MPKI: 3e-05
BTB BRANCH_DIRECT_JUMP	ACCESS:     590927  HIT:     590926  MISS:          1
BTB BRANCH_INDIRECT	ACCESS:          0  HIT:          0  MISS:          0
BTB BRANCH_CONDITIONAL	ACCESS:    3018792  HIT:    3018787  MISS:          5
BTB BRANCH_DIRECT_CALL	ACCESS:          0  HIT:          0  MISS:          0
BTB BRANCH_INDIRECT_CALL	ACCESS:          0  HIT:          0  MISS:          0
BTB BRANCH_RETURN	ACCESS:          0  HIT:          0  MISS:          0
BTB BRANCH_OTHER ACCESS:          0  HIT:          0  MISS:          0

L2C SPEC fills:          0  NON-SPEC fills:      22714
L2C Test counter :          0
L2C Leapfrog:          0
L2C MSHR merge:     179894
L2C TOTAL     ACCESS:   32861411  HIT:   22762011  MISS:   10099400  HIT %:    69.2667  MISS %:    30.7333   MPKI: 50.497
L2C LOAD      TOTAL       ACCESS:    2460643  HIT:    2035038  MISS:     425605  HIT %:    82.7035  MISS %:    17.2965   MPKI: 2.12803
L2C LOAD      NON_SPEC    ACCESS:     229693  HIT:     206979  MISS:      22714  HIT %:    90.1111  MISS %:    9.88885   MPKI: 0.11357
L2C LOAD      SPEC        ACCESS:    2230950  HIT:    1828059  MISS:     402891  HIT %:    81.9408  MISS %:    18.0592   MPKI: 2.01445
L2C RFO       NON_SPEC    ACCESS:   13402631  HIT:    6125393  MISS:    7277238  HIT %:    45.7029  MISS %:    54.2971   MPKI: 36.3862
L2C PREFETCH  NON_SPEC    ACCESS:    2059995  HIT:       9341  MISS:    2050654  HIT %:   0.453448  MISS %:    99.5466   MPKI: 10.2533
L2C WRITEBACK NON_SPEC    ACCESS:   13402651  HIT:   13402578  MISS:         73  HIT %:    99.9995  MISS %: 0.000544668   MPKI: 0.000365
L2C CLEAN_EVICTION NON_SPEC    ACCESS:     482147  HIT:     208783  MISS:     273364  HIT %:    43.3028  MISS %:    56.6972   MPKI: 1.36682
L2C COMMIT LOAD NON_SPEC    ACCESS:     304570  HIT:     251007  MISS:      53563  HIT %:    82.4136  MISS %:    17.5864   MPKI: 0.267815
L2C LOAD TRANSLATION NON_SPEC    ACCESS:     748774  HIT:     729871  MISS:      18903  HIT %:    97.4755  MISS %:    2.52453   MPKI: 0.094515
L2C PREFETCH  REQUESTED:    2334127  ISSUED:    2334127  USEFUL:    1976536  USELESS:      74233
L2C USEFUL LOAD PREFETCHES:    1976536 PREFETCH ISSUED TO LOWER LEVEL:    2247320  ACCURACY: 87.9508
L2C TIMELY PREFETCHES:    1976536 LATE PREFETCHES: 196666 DROPPED PREFETCHES: 0
L2C COMMIT LATE PREFETCHES: 0 MISSED OPPORTUNITY: 0 LATE IN PQ: 0 UNCOVERED: 0
L2C COMMIT LATE MSHR PREFETCHES: 0
L2C MPKI TOTAL: 2.12803 MSHR LATE: 0.98333 PQ LATE: 0 COMMIT LATE: 0 MISSED OPPORTUNITY: 0 UNCOVERED: 0
L2C PREFETCHES SAME FILL-ORIGIN LEVEL: 2247320 DIFFERENT FILL-ORIGIN LEVEL: 0
L2C AVERAGE MISS LATENCY: 562.108 cycles
L2C AVERAGE MISS LATENCY LOAD: 527.911 cycles
L2C AVERAGE MISS LATENCY PREFETCH: 585.019 cycles
L2C AVERAGE MSHR OCCUPANCY: 19.8495
L2C MSHR FULL: 0.352042
L2C RQ	ACCESS:   16916752	FORWARD:          0	MERGED:          0	TO_CACHE:   16916627
L2C WQ	ACCESS:   13884798	FORWARD:        125	MERGED:          0	TO_CACHE:   13884798
L2C PQ	ACCESS:    2334127	FORWARD:          0	MERGED:         38	TO_CACHE:    2334089

L2C Instructions Evicting Data 0
L2C Translations Evicting Data 18811
L2C Data Evicting Data 9385950
L2C Instructions Evicting Instructions 0
L2C Translations Evicting Instructions 0
L2C Data Evicting Instructions 0
L2C Instructions Evicting Translations 0
L2C Translations Evicting Translations 92
L2C Data Evicting Translations 18219
L2C Dense regions hint from L2: 0
PSCL5 SPEC fills:          0  NON-SPEC fills:          0
PSCL5 Test counter :          0
PSCL5 Leapfrog:          0
PSCL5 MSHR merge:          0
PSCL5 TOTAL     ACCESS:          0  HIT:          0  MISS:          0  HIT %:       -nan  MISS %:       -nan   MPKI: 0
PSCL5 PREFETCH  REQUESTED:          0  ISSUED:          0  USEFUL:          0  USELESS:          0
PSCL5 USEFUL LOAD PREFETCHES:          0 PREFETCH ISSUED TO LOWER LEVEL:          0  ACCURACY: -nan
PSCL5 TIMELY PREFETCHES:          0 LATE PREFETCHES: 0 DROPPED PREFETCHES: 0
PSCL5 COMMIT LATE PREFETCHES: 0 MISSED OPPORTUNITY: 0 LATE IN PQ: 0 UNCOVERED: 0
PSCL5 COMMIT LATE MSHR PREFETCHES: 0
PSCL5 MPKI TOTAL: 0 MSHR LATE: 0 PQ LATE: 0 COMMIT LATE: 0 MISSED OPPORTUNITY: 0 UNCOVERED: 0
PSCL5 PREFETCHES SAME FILL-ORIGIN LEVEL: 0 DIFFERENT FILL-ORIGIN LEVEL: 0

PSCL4 SPEC fills:          0  NON-SPEC fills:          0
PSCL4 Test counter :          0
PSCL4 Leapfrog:          0
PSCL4 MSHR merge:          0
PSCL4 TOTAL     ACCESS:          0  HIT:          0  MISS:          0  HIT %:       -nan  MISS %:       -nan   MPKI: 0
PSCL4 PREFETCH  REQUESTED:          0  ISSUED:          0  USEFUL:          0  USELESS:          0
PSCL4 USEFUL LOAD PREFETCHES:          0 PREFETCH ISSUED TO LOWER LEVEL:          0  ACCURACY: -nan
PSCL4 TIMELY PREFETCHES:          0 LATE PREFETCHES: 0 DROPPED PREFETCHES: 0
PSCL4 COMMIT LATE PREFETCHES: 0 MISSED OPPORTUNITY: 0 LATE IN PQ: 0 UNCOVERED: 0
PSCL4 COMMIT LATE MSHR PREFETCHES: 0
PSCL4 MPKI TOTAL: 0 MSHR LATE: 0 PQ LATE: 0 COMMIT LATE: 0 MISSED OPPORTUNITY: 0 UNCOVERED: 0
PSCL4 PREFETCHES SAME FILL-ORIGIN LEVEL: 0 DIFFERENT FILL-ORIGIN LEVEL: 0

PSCL3 SPEC fills:          0  NON-SPEC fills:          0
PSCL3 Test counter :          0
PSCL3 Leapfrog:          0
PSCL3 MSHR merge:          0
PSCL3 TOTAL     ACCESS:          0  HIT:          0  MISS:          0  HIT %:       -nan  MISS %:       -nan   MPKI: 0
PSCL3 PREFETCH  REQUESTED:          0  ISSUED:          0  USEFUL:          0  USELESS:          0
PSCL3 USEFUL LOAD PREFETCHES:          0 PREFETCH ISSUED TO LOWER LEVEL:          0  ACCURACY: -nan
PSCL3 TIMELY PREFETCHES:          0 LATE PREFETCHES: 0 DROPPED PREFETCHES: 0
PSCL3 COMMIT LATE PREFETCHES: 0 MISSED OPPORTUNITY: 0 LATE IN PQ: 0 UNCOVERED: 0
PSCL3 COMMIT LATE MSHR PREFETCHES: 0
PSCL3 MPKI TOTAL: 0 MSHR LATE: 0 PQ LATE: 0 COMMIT LATE: 0 MISSED OPPORTUNITY: 0 UNCOVERED: 0
PSCL3 PREFETCHES SAME FILL-ORIGIN LEVEL: 0 DIFFERENT FILL-ORIGIN LEVEL: 0

PSCL2 SPEC fills:          0  NON-SPEC fills:          0
PSCL2 Test counter :          0
PSCL2 Leapfrog:          0
PSCL2 MSHR merge:          0
PSCL2 TOTAL     ACCESS:          0  HIT:          0  MISS:          0  HIT %:       -nan  MISS %:       -nan   MPKI: 0
PSCL2 PREFETCH  REQUESTED:          0  ISSUED:          0  USEFUL:          0  USELESS:          0
PSCL2 USEFUL LOAD PREFETCHES:          0 PREFETCH ISSUED TO LOWER LEVEL:          0  ACCURACY: -nan
PSCL2 TIMELY PREFETCHES:          0 LATE PREFETCHES: 0 DROPPED PREFETCHES: 0
PSCL2 COMMIT LATE PREFETCHES: 0 MISSED OPPORTUNITY: 0 LATE IN PQ: 0 UNCOVERED: 0
PSCL2 COMMIT LATE MSHR PREFETCHES: 0
PSCL2 MPKI TOTAL: 0 MSHR LATE: 0 PQ LATE: 0 COMMIT LATE: 0 MISSED OPPORTUNITY: 0 UNCOVERED: 0
PSCL2 PREFETCHES SAME FILL-ORIGIN LEVEL: 0 DIFFERENT FILL-ORIGIN LEVEL: 0

LLC SPEC fills:          0  NON-SPEC fills:      19806
LLC Test counter :          0
LLC Leapfrog:          0
LLC MSHR merge:          0
LLC TOTAL     ACCESS:   17580533  HIT:    7757246  MISS:    9823287  HIT %:    44.1241  MISS %:    55.8759   MPKI: 49.1164
LLC LOAD      TOTAL       ACCESS:     245710  HIT:       1854  MISS:     243856  HIT %:   0.754548  MISS %:    99.2455   MPKI: 1.21928
LLC LOAD      NON_SPEC    ACCESS:      19890  HIT:         84  MISS:      19806  HIT %:   0.422323  MISS %:    99.5777   MPKI: 0.09903
LLC LOAD      SPEC        ACCESS:     225820  HIT:       1770  MISS:     224050  HIT %:    0.78381  MISS %:    99.2162   MPKI: 1.12025
LLC RFO       NON_SPEC    ACCESS:    7277216  HIT:      93321  MISS:    7183895  HIT %:    1.28237  MISS %:    98.7176   MPKI: 35.9195
LLC PREFETCH  NON_SPEC    ACCESS:    2247254  HIT:       3349  MISS:    2243905  HIT %:   0.149026  MISS %:     99.851   MPKI: 11.2195
LLC WRITEBACK NON_SPEC    ACCESS:    7276997  HIT:    7276848  MISS:        149  HIT %:     99.998  MISS %: 0.00204755   MPKI: 0.000745
LLC CLEAN_EVICTION NON_SPEC    ACCESS:     477661  HIT:     354777  MISS:     122884  HIT %:    74.2738  MISS %:    25.7262   MPKI: 0.61442
LLC COMMIT LOAD NON_SPEC    ACCESS:      36792  HIT:      27097  MISS:       9695  HIT %:    73.6492  MISS %:    26.3508   MPKI: 0.048475
LLC LOAD TRANSLATION NON_SPEC    ACCESS:      18903  HIT:          0  MISS:      18903  HIT %:          0  MISS %:        100   MPKI: 0.094515
LLC PREFETCH  REQUESTED:          0  ISSUED:          0  USEFUL:      28238  USELESS:    2217037
LLC USEFUL LOAD PREFETCHES:      28238 PREFETCH ISSUED TO LOWER LEVEL:    2243905  ACCURACY: 1.25843
LLC TIMELY PREFETCHES:      28238 LATE PREFETCHES: 0 DROPPED PREFETCHES: 0
LLC COMMIT LATE PREFETCHES: 0 MISSED OPPORTUNITY: 0 LATE IN PQ: 0 UNCOVERED: 0
LLC COMMIT LATE MSHR PREFETCHES: 0
LLC MPKI TOTAL: 1.21928 MSHR LATE: 0 PQ LATE: 0 COMMIT LATE: 0 MISSED OPPORTUNITY: 0 UNCOVERED: 0
LLC PREFETCHES SAME FILL-ORIGIN LEVEL: 0 DIFFERENT FILL-ORIGIN LEVEL: 0
LLC AVERAGE MISS LATENCY: 549.385 cycles
LLC AVERAGE MISS LATENCY LOAD: 469.743 cycles
LLC AVERAGE MISS LATENCY PREFETCH: 564.12 cycles
LLC AVERAGE MSHR OCCUPANCY: 12.6219
LLC MSHR FULL: 0
LLC RQ	ACCESS:    7578652	FORWARD:          0	MERGED:          0	TO_CACHE:    7578630
LLC WQ	ACCESS:    7754658	FORWARD:         88	MERGED:          0	TO_CACHE:    7754658
LLC PQ	ACCESS:    2247320	FORWARD:          0	MERGED:          0	TO_CACHE:    2247254

LLC Dense regions hint to LLC: 0

RAW hits: 2364434
Loads Generated: 52231474
Loads sent to L1D: 49867040
Stores Generated: 36944939
Stores sent to L1D: 36944937
Major fault: 0 Minor fault: 96650
Allocated PAGES: 96650
Total Load insts: 61405018
Total Non-spec loads: 3292949
Percentage of speculative loads: 94.6373

LeapFrogging counter: 21556933
Commit hits: 18142554 miss: 28798965
Commit hit %: 38.6493 miss %: 61.3507
Commits not translated: 0
Loads retired: 2460763
Stores retired: 36944937
Cache fills: 2460763
L1D response latency: 149.841 cycles
Load retirement latency: 641.606 cycles
OOO test counter: 0
Discarded buffer inserts: 18142554 hits: 359891 hit %: 1.98368
Filter prediction accuracy: 99.3803
[Bingo] PHT Access: 78371
[Bingo] PHT Hit PC+Addr: 3694
[Bingo] PHT Hit PC+Offs: 74650
[Bingo] PHT Miss: 27
[Bingo] Prefetch PC+Addr: 0
[Bingo] Prefetch PC+Offs: 0
[Bingo] Useful PC+Addr: 0
[Bingo] Useful PC+Offs: 0
[Bingo] Useless PC+Addr: 0
[Bingo] Useless PC+Offs: 0
[Bingo] L1 Prefetch per Region: 0
[Bingo] L2 Prefetch per Region: 30.7962
[Bingo] L3 Prefetch per Region: 0
[Bingo] No Prefetch per Region: 1.20376
[Bingo] Number of Voters Mean: 16
[Bingo] Number of Voters SD: 7.90845
PHT read accesses: 1203342
PHT write accesses: 78372
AT read accesses: 52105338
AT write accesses: 52106271
FT read accesses: 485529
FT write accesses: 78371
PS read accesses: 1630139
PS write accesses: 78344
PHT tag read accesses: 3649954
PHT tag write accesses: 82066
AT tag read accesses: 993726722
AT tag write accesses: 52183700
FT tag read accesses: 162241470
FT tag write accesses: 360321
PS tag read accesses: 838289282
PS tag write accesses: 1708480

DRAM Statistics
 CHANNEL 0
 RQ ROW_BUFFER_HIT:    1450661  ROW_BUFFER_MISS:    8249581
 DBUS_CONGESTED:         29
 WQ ROW_BUFFER_HIT:    1754413  ROW_BUFFER_MISS:    5905268  FULL:       3811

 AVG_CONGESTED_CYCLE: 5
 All warmup complete: 2
Channel 0 Bank busy for read cycles: 0
Channel 0 Bank busy for write cycles: 0
Channel 0
Rank 0
0banks busy for read cycles: 54106822
0banks busy for write cycles: 35288
1banks busy for read cycles: 10557021
1banks busy for write cycles: 3837816
2banks busy for read cycles: 13301665
2banks busy for write cycles: 3006536
3banks busy for read cycles: 20042560
3banks busy for write cycles: 2737694
4banks busy for read cycles: 23039371
4banks busy for write cycles: 2684966
5banks busy for read cycles: 44544663
5banks busy for write cycles: 2779916
6banks busy for read cycles: 45670407
6banks busy for write cycles: 3227760
7banks busy for read cycles: 44291334
7banks busy for write cycles: 11209463
8banks busy for read cycles: 58204467
8banks busy for write cycles: 136446462

CPU 0 Branch Prediction Accuracy: 97.0951% MPKI: 0.52429 Average ROB Occupancy at Mispredict: 172.341
Branch types
NOT_BRANCH: 196389966 98.195%
BRANCH_DIRECT_JUMP: 590927 0.295463%
BRANCH_INDIRECT: 0 0%
BRANCH_CONDITIONAL: 3018804 1.5094%
BRANCH_DIRECT_CALL: 0 0%
BRANCH_INDIRECT_CALL: 0 0%
BRANCH_RETURN: 0 0%
BRANCH_OTHER: 0 0%

DRAM PAGES: 1048576
Allocated PAGES: 96650
