
*** ChampSim Multicore Out-of-Order Simulator ***

Warmup Instructions: 50000000
Simulation Instructions: 200000000
Number of CPUs: 1
LLC sets: 2048
LLC ways: 16
L0D sets: 16
L0D ways: 2
ROB size: 352
LQ size: 128
SQ size: 72
Secure Berti: OFF
Berti: OFF
Berti Fill: OFF
On commit prefetching: ON
Hit-based filter: ON
Time-guarding: ON
Free-slotting: ON
Leap-frogging: ON
Train prefetcher on L0D bypass: OFF
No translation penalty for prefetchers: OFF
Prefetch to L0D only: OFF
Prefetch to L1D only: OFF
Clean evictions: ON
Commit loads: ON
Commit write: ON
Fill commit loads to L2C, LLC: ON
DRAM IO FREQUENCY: 6400
ROB SIZE: 352
Off-chip DRAM Size: 4096 MB Channels: 1 Width: 64-bit Data Rate: 6400 MT/s
CPU 0 runs /home/sumon/secure_berti/GhostMinion/../../traces/spec/621.wrf_s-6673B.champsimtrace.xz
.xz
BTB has LRU replacement policy
ITLB has LRU replacement policy
DTLB has LRU replacement policy
STLB has LRU replacement policy
L1I has LRU replacement policy
L0D has LRU replacement policy
L1D has LRU replacement policy
Bingo PHT WAYS: 16 and PHT_SIZE: 16384
L2C has LRU replacement policy
LLC has LRU replacement policy
Heartbeat CPU 0 instructions: 10000002 cycles: 5240833 heartbeat IPC: 1.90809 cumulative IPC: 1.90809 (Simulation time: 0 hr 0 min 38 sec) 
Heartbeat CPU 0 instructions: 20000002 cycles: 8454751 heartbeat IPC: 3.11147 cumulative IPC: 2.36553 (Simulation time: 0 hr 1 min 7 sec) 
Heartbeat CPU 0 instructions: 30000001 cycles: 11570151 heartbeat IPC: 3.20986 cumulative IPC: 2.59288 (Simulation time: 0 hr 1 min 33 sec) 
Heartbeat CPU 0 instructions: 40000002 cycles: 14649945 heartbeat IPC: 3.24697 cumulative IPC: 2.73039 (Simulation time: 0 hr 2 min 3 sec) 
Heartbeat CPU 0 instructions: 50000001 cycles: 17748407 heartbeat IPC: 3.22741 cumulative IPC: 2.81715 (Simulation time: 0 hr 2 min 31 sec) 

Warmup complete CPU 0 instructions: 50000001 cycles: 17748407 (Simulation time: 0 hr 2 min 31 sec) 

Heartbeat CPU 0 instructions: 60000001 cycles: 32190402 heartbeat IPC: 0.692425 cumulative IPC: 0.692425 (Simulation time: 0 hr 3 min 13 sec) 
Heartbeat CPU 0 instructions: 70000000 cycles: 48510656 heartbeat IPC: 0.612736 cumulative IPC: 0.650147 (Simulation time: 0 hr 3 min 56 sec) 
Heartbeat CPU 0 instructions: 80000000 cycles: 60844073 heartbeat IPC: 0.810805 cumulative IPC: 0.696126 (Simulation time: 0 hr 4 min 32 sec) 
Heartbeat CPU 0 instructions: 90000003 cycles: 73652447 heartbeat IPC: 0.780739 cumulative IPC: 0.715512 (Simulation time: 0 hr 5 min 10 sec) 
Heartbeat CPU 0 instructions: 100000000 cycles: 91401059 heartbeat IPC: 0.563424 cumulative IPC: 0.678862 (Simulation time: 0 hr 5 min 56 sec) 
Heartbeat CPU 0 instructions: 110000000 cycles: 99831260 heartbeat IPC: 1.18621 cumulative IPC: 0.730969 (Simulation time: 0 hr 6 min 25 sec) 
Heartbeat CPU 0 instructions: 120000003 cycles: 110425118 heartbeat IPC: 0.943943 cumulative IPC: 0.755314 (Simulation time: 0 hr 6 min 58 sec) 
Heartbeat CPU 0 instructions: 130000001 cycles: 119541021 heartbeat IPC: 1.09698 cumulative IPC: 0.785912 (Simulation time: 0 hr 7 min 26 sec) 
Heartbeat CPU 0 instructions: 140000001 cycles: 129086461 heartbeat IPC: 1.04762 cumulative IPC: 0.808349 (Simulation time: 0 hr 7 min 58 sec) 
Heartbeat CPU 0 instructions: 150000001 cycles: 139532406 heartbeat IPC: 0.957309 cumulative IPC: 0.821126 (Simulation time: 0 hr 8 min 26 sec) 
Heartbeat CPU 0 instructions: 160000001 cycles: 148232059 heartbeat IPC: 1.14947 cumulative IPC: 0.843017 (Simulation time: 0 hr 8 min 57 sec) 
Heartbeat CPU 0 instructions: 170000001 cycles: 158695287 heartbeat IPC: 0.955728 cumulative IPC: 0.851385 (Simulation time: 0 hr 9 min 28 sec) 
Heartbeat CPU 0 instructions: 180000000 cycles: 167635818 heartbeat IPC: 1.1185 cumulative IPC: 0.867318 (Simulation time: 0 hr 9 min 56 sec) 
Heartbeat CPU 0 instructions: 190000000 cycles: 180258971 heartbeat IPC: 0.792195 cumulative IPC: 0.861482 (Simulation time: 0 hr 10 min 33 sec) 
Heartbeat CPU 0 instructions: 200000003 cycles: 192338070 heartbeat IPC: 0.827877 cumulative IPC: 0.859157 (Simulation time: 0 hr 11 min 10 sec) 
Heartbeat CPU 0 instructions: 210000000 cycles: 204430529 heartbeat IPC: 0.826961 cumulative IPC: 0.857072 (Simulation time: 0 hr 11 min 46 sec) 
Heartbeat CPU 0 instructions: 220000000 cycles: 216646191 heartbeat IPC: 0.818621 cumulative IPC: 0.85471 (Simulation time: 0 hr 12 min 23 sec) 
Heartbeat CPU 0 instructions: 230000003 cycles: 231972759 heartbeat IPC: 0.652462 cumulative IPC: 0.840241 (Simulation time: 0 hr 12 min 59 sec) 
Heartbeat CPU 0 instructions: 240000000 cycles: 245481147 heartbeat IPC: 0.740281 cumulative IPC: 0.834311 (Simulation time: 0 hr 13 min 37 sec) 
Heartbeat CPU 0 instructions: 250000000 cycles: 254044218 heartbeat IPC: 1.16781 cumulative IPC: 0.846397 (Simulation time: 0 hr 14 min 6 sec) 
Finished CPU 0 instructions: 200000003 cycles: 236295812 cumulative IPC: 0.846397 (Simulation time: 0 hr 14 min 6 sec) 
 Instruction ID: 250000109

ChampSim completed all CPUs

Region of Interest Statistics

CPU 0 cumulative IPC: 0.846397 instructions: 200000003 cycles: 236295812
ITLB SPEC fills:          0  NON-SPEC fills:          0
ITLB Test counter :          0
ITLB Leapfrog:          0
ITLB MSHR merge:          0
ITLB TOTAL     ACCESS:   29023271  HIT:   29023100  MISS:        171  HIT %:    99.9994  MISS %: 0.000589182   MPKI: 0.000855
ITLB LOAD TRANSLATION NON_SPEC    ACCESS:   29023271  HIT:   29023100  MISS:        171  HIT %:    99.9994  MISS %: 0.000589182   MPKI: 0.000855
ITLB PREFETCH  REQUESTED:          0  ISSUED:          0  USEFUL:          0  USELESS:          0
ITLB USEFUL LOAD PREFETCHES:          0 PREFETCH ISSUED TO LOWER LEVEL:          0  ACCURACY: -nan
ITLB TIMELY PREFETCHES:          0 LATE PREFETCHES: 0 DROPPED PREFETCHES: 0
ITLB COMMIT LATE PREFETCHES: 0 MISSED OPPORTUNITY: 0 LATE IN PQ: 0 UNCOVERED: 0
ITLB COMMIT LATE MSHR PREFETCHES: 0
ITLB MPKI TOTAL: 0 MSHR LATE: 0 PQ LATE: 0 COMMIT LATE: 0 MISSED OPPORTUNITY: 0 UNCOVERED: 0
ITLB PREFETCHES SAME FILL-ORIGIN LEVEL: 0 DIFFERENT FILL-ORIGIN LEVEL: 0
ITLB AVERAGE MISS LATENCY: 336.795 cycles
ITLB AVERAGE MISS LATENCY LOAD: -nan cycles
ITLB AVERAGE MISS LATENCY PREFETCH: -nan cycles
ITLB AVERAGE MSHR OCCUPANCY: 2.30849e-06
ITLB MSHR FULL: 0
ITLB RQ	ACCESS:   35204219	FORWARD:          0	MERGED:    6180892	TO_CACHE:   29023327

DTLB SPEC fills:          0  NON-SPEC fills:          0
DTLB Test counter :          0
DTLB Leapfrog:          0
DTLB MSHR merge:          0
DTLB TOTAL     ACCESS:   51246739  HIT:   51045044  MISS:     201695  HIT %:    99.6064  MISS %:   0.393576   MPKI: 1.00847
DTLB LOAD TRANSLATION NON_SPEC    ACCESS:   51246739  HIT:   51045044  MISS:     201695  HIT %:    99.6064  MISS %:   0.393576   MPKI: 1.00847
DTLB PREFETCH  REQUESTED:          0  ISSUED:          0  USEFUL:          0  USELESS:          0
DTLB USEFUL LOAD PREFETCHES:          0 PREFETCH ISSUED TO LOWER LEVEL:          0  ACCURACY: -nan
DTLB TIMELY PREFETCHES:          0 LATE PREFETCHES: 0 DROPPED PREFETCHES: 0
DTLB COMMIT LATE PREFETCHES: 0 MISSED OPPORTUNITY: 0 LATE IN PQ: 0 UNCOVERED: 0
DTLB COMMIT LATE MSHR PREFETCHES: 0
DTLB MPKI TOTAL: 0 MSHR LATE: 0 PQ LATE: 0 COMMIT LATE: 0 MISSED OPPORTUNITY: 0 UNCOVERED: 0
DTLB PREFETCHES SAME FILL-ORIGIN LEVEL: 0 DIFFERENT FILL-ORIGIN LEVEL: 0
DTLB AVERAGE MISS LATENCY: 32.6236 cycles
DTLB AVERAGE MISS LATENCY LOAD: -nan cycles
DTLB AVERAGE MISS LATENCY PREFETCH: -nan cycles
DTLB AVERAGE MSHR OCCUPANCY: 0.0290754
DTLB MSHR FULL: 0.00135408
DTLB RQ	ACCESS:   58751926	FORWARD:          0	MERGED:    7432523	TO_CACHE:   51319403

STLB SPEC fills:          0  NON-SPEC fills:          0
STLB Test counter :          0
STLB Leapfrog:          0
STLB MSHR merge:          0
STLB TOTAL     ACCESS:     201866  HIT:     174261  MISS:      27605  HIT %:    86.3251  MISS %:    13.6749   MPKI: 0.138025
STLB LOAD TRANSLATION NON_SPEC    ACCESS:     201866  HIT:     174261  MISS:      27605  HIT %:    86.3251  MISS %:    13.6749   MPKI: 0.138025
STLB PREFETCH  REQUESTED:          0  ISSUED:          0  USEFUL:          0  USELESS:          0
STLB USEFUL LOAD PREFETCHES:          0 PREFETCH ISSUED TO LOWER LEVEL:          0  ACCURACY: -nan
STLB TIMELY PREFETCHES:          0 LATE PREFETCHES: 0 DROPPED PREFETCHES: 0
STLB COMMIT LATE PREFETCHES: 0 MISSED OPPORTUNITY: 0 LATE IN PQ: 0 UNCOVERED: 0
STLB COMMIT LATE MSHR PREFETCHES: 0
STLB MPKI TOTAL: 0 MSHR LATE: 0 PQ LATE: 0 COMMIT LATE: 0 MISSED OPPORTUNITY: 0 UNCOVERED: 0
STLB PREFETCHES SAME FILL-ORIGIN LEVEL: 0 DIFFERENT FILL-ORIGIN LEVEL: 0
STLB AVERAGE MISS LATENCY: 173.967 cycles
STLB AVERAGE MISS LATENCY LOAD: -nan cycles
STLB AVERAGE MISS LATENCY PREFETCH: -nan cycles
STLB AVERAGE MSHR OCCUPANCY: 0.0795627
STLB MSHR FULL: 0
STLB RQ	ACCESS:     201866	FORWARD:          0	MERGED:          0	TO_CACHE:     201866

STLB Hit, L1D data hit: 0
STLB Hit, L2C data hit: 0
STLB Hit, LLC data hit: 0
STLB Hit, LLC data miss: 0
STLB STLB hints to L2: 0
L0D SPEC fills:   32752899  NON-SPEC fills:          0
L0D TimeGuard Request with older TS:     571299 Restricted eviction:     497677 read:    1271043
L0D Test counter :          0
L0D Leapfrog:          0
L0D MSHR merge:    2534698
L0D TOTAL     ACCESS:   45361935  HIT:    6669775  MISS:   38692160  HIT %:    14.7035  MISS %:    85.2965   MPKI: 193.461
L0D LOAD      TOTAL       ACCESS:   45361935  HIT:    6669775  MISS:   38692160  HIT %:    14.7035  MISS %:    85.2965   MPKI: 193.461
L0D LOAD      NON_SPEC    ACCESS:    6294873  HIT:     853160  MISS:    5441713  HIT %:    13.5533  MISS %:    86.4467   MPKI: 27.2086
L0D LOAD      SPEC        ACCESS:   39067062  HIT:    5816615  MISS:   33250447  HIT %:    14.8888  MISS %:    85.1112   MPKI: 166.252
L0D PREFETCH  REQUESTED:          0  ISSUED:          0  USEFUL:          0  USELESS:          0
L0D USEFUL LOAD PREFETCHES:          0 PREFETCH ISSUED TO LOWER LEVEL:          0  ACCURACY: -nan
L0D TIMELY PREFETCHES:          0 LATE PREFETCHES: 0 DROPPED PREFETCHES: 0
L0D COMMIT LATE PREFETCHES: 0 MISSED OPPORTUNITY: 0 LATE IN PQ: 0 UNCOVERED: 0
L0D COMMIT LATE MSHR PREFETCHES: 0
L0D MPKI TOTAL: 206.134 MSHR LATE: 0 PQ LATE: 0 COMMIT LATE: 0 MISSED OPPORTUNITY: 0 UNCOVERED: 0
L0D PREFETCHES SAME FILL-ORIGIN LEVEL: 0 DIFFERENT FILL-ORIGIN LEVEL: 0
L0D AVERAGE MISS LATENCY: 8.61552 cycles
L0D AVERAGE MISS LATENCY LOAD: 8.61552 cycles
L0D AVERAGE MISS LATENCY PREFETCH: -nan cycles
L0D AVERAGE MSHR OCCUPANCY: 2.13699
L0D MSHR FULL: 0.0872633
L0D RQ	ACCESS:   58969795	FORWARD:          0	MERGED:   11073164	TO_CACHE:   47896631
L0D WQ	ACCESS:   10855295	FORWARD:          0	MERGED:          0	TO_CACHE:   10855295

L1D SPEC fills:          0  NON-SPEC fills:     147854
L1D Test counter :          0
L1D Leapfrog:          0
L1D MSHR merge:      33185
L1D TOTAL     ACCESS:   51575134  HIT:   45177156  MISS:    6397978  HIT %:    87.5948  MISS %:    12.4052   MPKI: 31.9899
L1D LOAD      TOTAL       ACCESS:   38658975  HIT:   35602526  MISS:    3056449  HIT %:    92.0938  MISS %:    7.90618   MPKI: 15.2822
L1D LOAD      NON_SPEC    ACCESS:    5439870  HIT:    5292016  MISS:     147854  HIT %:     97.282  MISS %:    2.71797   MPKI: 0.73927
L1D LOAD      SPEC        ACCESS:   33219105  HIT:   30310510  MISS:    2908595  HIT %:    91.2442  MISS %:    8.75579   MPKI: 14.543
L1D RFO       NON_SPEC    ACCESS:    8462066  HIT:    7905906  MISS:     556160  HIT %:    93.4276  MISS %:    6.57239   MPKI: 2.7808
L1D COMMIT LOAD NON_SPEC    ACCESS:    1545238  HIT:    1389874  MISS:     155364  HIT %:    89.9456  MISS %:    10.0544   MPKI: 0.77682
L1D COMMIT WRITE NON_SPEC    ACCESS:    2908855  HIT:     278850  MISS:    2630005  HIT %:    9.58625  MISS %:    90.4138   MPKI: 13.15
L1D PREFETCH  REQUESTED:          0  ISSUED:          0  USEFUL:          0  USELESS:          0
L1D USEFUL LOAD PREFETCHES:          0 PREFETCH ISSUED TO LOWER LEVEL:          0  ACCURACY: -nan
L1D TIMELY PREFETCHES:          0 LATE PREFETCHES: 0 DROPPED PREFETCHES: 0
L1D COMMIT LATE PREFETCHES: 0 MISSED OPPORTUNITY: 0 LATE IN PQ: 0 UNCOVERED: 0
L1D COMMIT LATE MSHR PREFETCHES: 0
L1D MPKI TOTAL: 15.4482 MSHR LATE: 0 PQ LATE: 0 COMMIT LATE: 0 MISSED OPPORTUNITY: 0 UNCOVERED: 0
L1D PREFETCHES SAME FILL-ORIGIN LEVEL: 0 DIFFERENT FILL-ORIGIN LEVEL: 0
L1D AVERAGE MISS LATENCY: 41.5131 cycles
L1D AVERAGE MISS LATENCY LOAD: 39.7903 cycles
L1D AVERAGE MISS LATENCY PREFETCH: -nan cycles
L1D AVERAGE MSHR OCCUPANCY: 0.83121
L1D MSHR FULL: 0.0169372
L1D RQ	ACCESS:   41210092	FORWARD:          0	MERGED:     789733	TO_CACHE:   40306037
L1D WQ	ACCESS:   13038615	FORWARD:     114322	MERGED:     181413	TO_CACHE:   12857202

L1D UNIQUE REGIONS ACCESSED: 0
L1D REGIONS CONFLICTS: 0
L1D Cross Page Prefetch Requests: 0
L1D Same Page Prefetch Requests: 0
L1D ROI Sum of L1D PQ occupancy: 0
L1D PREFETCHES PUSHED FROM L2C: 0
L1I SPEC fills:          0  NON-SPEC fills:          0
L1I Test counter :          0
L1I Leapfrog:          0
L1I MSHR merge:       2992
L1I TOTAL     ACCESS:   35201226  HIT:   35195063  MISS:       6163  HIT %:    99.9825  MISS %:  0.0175079   MPKI: 0.030815
L1I LOAD      TOTAL       ACCESS:   35201226  HIT:   35195063  MISS:       6163  HIT %:    99.9825  MISS %:  0.0175079   MPKI: 0.030815
L1I LOAD      NON_SPEC    ACCESS:   35201226  HIT:   35195063  MISS:       6163  HIT %:    99.9825  MISS %:  0.0175079   MPKI: 0.030815
L1I PREFETCH  REQUESTED:          0  ISSUED:          0  USEFUL:          0  USELESS:          0
L1I USEFUL LOAD PREFETCHES:          0 PREFETCH ISSUED TO LOWER LEVEL:          0  ACCURACY: -nan
L1I TIMELY PREFETCHES:          0 LATE PREFETCHES: 0 DROPPED PREFETCHES: 0
L1I COMMIT LATE PREFETCHES: 0 MISSED OPPORTUNITY: 0 LATE IN PQ: 0 UNCOVERED: 0
L1I COMMIT LATE MSHR PREFETCHES: 0
L1I MPKI TOTAL: 0.045775 MSHR LATE: 0 PQ LATE: 0 COMMIT LATE: 0 MISSED OPPORTUNITY: 0 UNCOVERED: 0
L1I PREFETCHES SAME FILL-ORIGIN LEVEL: 0 DIFFERENT FILL-ORIGIN LEVEL: 0
L1I AVERAGE MISS LATENCY: 224.384 cycles
L1I AVERAGE MISS LATENCY LOAD: 224.384 cycles
L1I AVERAGE MISS LATENCY PREFETCH: -nan cycles
L1I AVERAGE MSHR OCCUPANCY: 0.00023091
L1I MSHR FULL: 0
L1I RQ	ACCESS:   51974385	FORWARD:          0	MERGED:   16770166	TO_CACHE:   35204219

BTB SPEC fills:          0  NON-SPEC fills:          0
BTB Test counter :          0
BTB Leapfrog:          0
BTB MSHR merge:          0
BTB TOTAL     ACCESS:    9141034  HIT:    9133637  MISS:       7397  HIT %:    99.9191  MISS %:  0.0809208   MPKI: 0.036985
BTB BRANCH_DIRECT_JUMP	ACCESS:     290387  HIT:     290283  MISS:        104
BTB BRANCH_INDIRECT	ACCESS:         12  HIT:          8  MISS:          4
BTB BRANCH_CONDITIONAL	ACCESS:    8250534  HIT:    8249659  MISS:        875
BTB BRANCH_DIRECT_CALL	ACCESS:     300051  HIT:     299561  MISS:        490
BTB BRANCH_INDIRECT_CALL	ACCESS:          0  HIT:          0  MISS:          0
BTB BRANCH_RETURN	ACCESS:     300050  HIT:     294126  MISS:       5924
BTB BRANCH_OTHER ACCESS:          0  HIT:          0  MISS:          0

L2C SPEC fills:          0  NON-SPEC fills:      15147
L2C Test counter :          0
L2C Leapfrog:          0
L2C MSHR merge:      72080
L2C TOTAL     ACCESS:    7533951  HIT:    4423202  MISS:    3110749  HIT %:    58.7103  MISS %:    41.2897   MPKI: 15.5537
L2C LOAD      TOTAL       ACCESS:    3061946  HIT:    2621583  MISS:     440363  HIT %:    85.6182  MISS %:    14.3818   MPKI: 2.20181
L2C LOAD      NON_SPEC    ACCESS:     154012  HIT:     132702  MISS:      21310  HIT %:    86.1634  MISS %:    13.8366   MPKI: 0.10655
L2C LOAD      SPEC        ACCESS:    2907934  HIT:    2488881  MISS:     419053  HIT %:    85.5893  MISS %:    14.4107   MPKI: 2.09526
L2C RFO       NON_SPEC    ACCESS:     556158  HIT:     173938  MISS:     382220  HIT %:    31.2749  MISS %:    68.7251   MPKI: 1.9111
L2C PREFETCH  NON_SPEC    ACCESS:    2007598  HIT:      99303  MISS:    1908295  HIT %:    4.94636  MISS %:    95.0536   MPKI: 9.54147
L2C WRITEBACK NON_SPEC    ACCESS:     626235  HIT:     626016  MISS:        219  HIT %:     99.965  MISS %:  0.0349709   MPKI: 0.001095
L2C CLEAN_EVICTION NON_SPEC    ACCESS:     988634  HIT:     632688  MISS:     355946  HIT %:    63.9962  MISS %:    36.0038   MPKI: 1.77973
L2C COMMIT LOAD NON_SPEC    ACCESS:     155364  HIT:     136667  MISS:      18697  HIT %:    87.9657  MISS %:    12.0343   MPKI: 0.093485
L2C LOAD TRANSLATION NON_SPEC    ACCESS:     138016  HIT:     133007  MISS:       5009  HIT %:    96.3707  MISS %:    3.62929   MPKI: 0.025045
L2C PREFETCH  REQUESTED:    2131391  ISSUED:    2131391  USEFUL:    1777100  USELESS:     131234
L2C USEFUL LOAD PREFETCHES:    1777100 PREFETCH ISSUED TO LOWER LEVEL:    1990609  ACCURACY: 89.2742
L2C TIMELY PREFETCHES:    1777100 LATE PREFETCHES: 82314 DROPPED PREFETCHES: 0
L2C COMMIT LATE PREFETCHES: 0 MISSED OPPORTUNITY: 0 LATE IN PQ: 0 UNCOVERED: 0
L2C COMMIT LATE MSHR PREFETCHES: 0
L2C MPKI TOTAL: 2.20181 MSHR LATE: 0.41157 PQ LATE: 0 COMMIT LATE: 0 MISSED OPPORTUNITY: 0 UNCOVERED: 0
L2C PREFETCHES SAME FILL-ORIGIN LEVEL: 1990609 DIFFERENT FILL-ORIGIN LEVEL: 0
L2C AVERAGE MISS LATENCY: 229.213 cycles
L2C AVERAGE MISS LATENCY LOAD: 197.874 cycles
L2C AVERAGE MISS LATENCY PREFETCH: 257.835 cycles
L2C AVERAGE MSHR OCCUPANCY: 10.6392
L2C MSHR FULL: 0.172728
L2C RQ	ACCESS:    3912152	FORWARD:          0	MERGED:          0	TO_CACHE:    3911484
L2C WQ	ACCESS:    1615170	FORWARD:        669	MERGED:        301	TO_CACHE:    1614869
L2C PQ	ACCESS:    2131391	FORWARD:          0	MERGED:         47	TO_CACHE:    2131343

L2C Instructions Evicting Data 6145
L2C Translations Evicting Data 4994
L2C Data Evicting Data 2315261
L2C Instructions Evicting Instructions 10
L2C Translations Evicting Instructions 11
L2C Data Evicting Instructions 5091
L2C Instructions Evicting Translations 8
L2C Translations Evicting Translations 4
L2C Data Evicting Translations 4007
L2C Dense regions hint from L2: 0
PSCL5 SPEC fills:          0  NON-SPEC fills:          0
PSCL5 Test counter :          0
PSCL5 Leapfrog:          0
PSCL5 MSHR merge:          0
PSCL5 TOTAL     ACCESS:          0  HIT:          0  MISS:          0  HIT %:       -nan  MISS %:       -nan   MPKI: 0
PSCL5 PREFETCH  REQUESTED:          0  ISSUED:          0  USEFUL:          0  USELESS:          0
PSCL5 USEFUL LOAD PREFETCHES:          0 PREFETCH ISSUED TO LOWER LEVEL:          0  ACCURACY: -nan
PSCL5 TIMELY PREFETCHES:          0 LATE PREFETCHES: 0 DROPPED PREFETCHES: 0
PSCL5 COMMIT LATE PREFETCHES: 0 MISSED OPPORTUNITY: 0 LATE IN PQ: 0 UNCOVERED: 0
PSCL5 COMMIT LATE MSHR PREFETCHES: 0
PSCL5 MPKI TOTAL: 0 MSHR LATE: 0 PQ LATE: 0 COMMIT LATE: 0 MISSED OPPORTUNITY: 0 UNCOVERED: 0
PSCL5 PREFETCHES SAME FILL-ORIGIN LEVEL: 0 DIFFERENT FILL-ORIGIN LEVEL: 0

PSCL4 SPEC fills:          0  NON-SPEC fills:          0
PSCL4 Test counter :          0
PSCL4 Leapfrog:          0
PSCL4 MSHR merge:          0
PSCL4 TOTAL     ACCESS:          0  HIT:          0  MISS:          0  HIT %:       -nan  MISS %:       -nan   MPKI: 0
PSCL4 PREFETCH  REQUESTED:          0  ISSUED:          0  USEFUL:          0  USELESS:          0
PSCL4 USEFUL LOAD PREFETCHES:          0 PREFETCH ISSUED TO LOWER LEVEL:          0  ACCURACY: -nan
PSCL4 TIMELY PREFETCHES:          0 LATE PREFETCHES: 0 DROPPED PREFETCHES: 0
PSCL4 COMMIT LATE PREFETCHES: 0 MISSED OPPORTUNITY: 0 LATE IN PQ: 0 UNCOVERED: 0
PSCL4 COMMIT LATE MSHR PREFETCHES: 0
PSCL4 MPKI TOTAL: 0 MSHR LATE: 0 PQ LATE: 0 COMMIT LATE: 0 MISSED OPPORTUNITY: 0 UNCOVERED: 0
PSCL4 PREFETCHES SAME FILL-ORIGIN LEVEL: 0 DIFFERENT FILL-ORIGIN LEVEL: 0

PSCL3 SPEC fills:          0  NON-SPEC fills:          0
PSCL3 Test counter :          0
PSCL3 Leapfrog:          0
PSCL3 MSHR merge:          0
PSCL3 TOTAL     ACCESS:          0  HIT:          0  MISS:          0  HIT %:       -nan  MISS %:       -nan   MPKI: 0
PSCL3 PREFETCH  REQUESTED:          0  ISSUED:          0  USEFUL:          0  USELESS:          0
PSCL3 USEFUL LOAD PREFETCHES:          0 PREFETCH ISSUED TO LOWER LEVEL:          0  ACCURACY: -nan
PSCL3 TIMELY PREFETCHES:          0 LATE PREFETCHES: 0 DROPPED PREFETCHES: 0
PSCL3 COMMIT LATE PREFETCHES: 0 MISSED OPPORTUNITY: 0 LATE IN PQ: 0 UNCOVERED: 0
PSCL3 COMMIT LATE MSHR PREFETCHES: 0
PSCL3 MPKI TOTAL: 0 MSHR LATE: 0 PQ LATE: 0 COMMIT LATE: 0 MISSED OPPORTUNITY: 0 UNCOVERED: 0
PSCL3 PREFETCHES SAME FILL-ORIGIN LEVEL: 0 DIFFERENT FILL-ORIGIN LEVEL: 0

PSCL2 SPEC fills:          0  NON-SPEC fills:          0
PSCL2 Test counter :          0
PSCL2 Leapfrog:          0
PSCL2 MSHR merge:          0
PSCL2 TOTAL     ACCESS:          0  HIT:          0  MISS:          0  HIT %:       -nan  MISS %:       -nan   MPKI: 0
PSCL2 PREFETCH  REQUESTED:          0  ISSUED:          0  USEFUL:          0  USELESS:          0
PSCL2 USEFUL LOAD PREFETCHES:          0 PREFETCH ISSUED TO LOWER LEVEL:          0  ACCURACY: -nan
PSCL2 TIMELY PREFETCHES:          0 LATE PREFETCHES: 0 DROPPED PREFETCHES: 0
PSCL2 COMMIT LATE PREFETCHES: 0 MISSED OPPORTUNITY: 0 LATE IN PQ: 0 UNCOVERED: 0
PSCL2 COMMIT LATE MSHR PREFETCHES: 0
PSCL2 MPKI TOTAL: 0 MSHR LATE: 0 PQ LATE: 0 COMMIT LATE: 0 MISSED OPPORTUNITY: 0 UNCOVERED: 0
PSCL2 PREFETCHES SAME FILL-ORIGIN LEVEL: 0 DIFFERENT FILL-ORIGIN LEVEL: 0

LLC SPEC fills:          0  NON-SPEC fills:       9048
LLC Test counter :          0
LLC Leapfrog:          0
LLC MSHR merge:          0
LLC TOTAL     ACCESS:    4097010  HIT:    1585331  MISS:    2511679  HIT %:    38.6948  MISS %:    61.3052   MPKI: 12.5584
LLC LOAD      TOTAL       ACCESS:     368283  HIT:      67091  MISS:     301192  HIT %:    18.2172  MISS %:    81.7828   MPKI: 1.50596
LLC LOAD      NON_SPEC    ACCESS:      19085  HIT:       3874  MISS:      15211  HIT %:    20.2987  MISS %:    79.7013   MPKI: 0.076055
LLC LOAD      SPEC        ACCESS:     349198  HIT:      63217  MISS:     285981  HIT %:    18.1035  MISS %:    81.8965   MPKI: 1.4299
LLC RFO       NON_SPEC    ACCESS:     376055  HIT:      26394  MISS:     349661  HIT %:    7.01865  MISS %:    92.9813   MPKI: 1.7483
LLC PREFETCH  NON_SPEC    ACCESS:    1990584  HIT:     391167  MISS:    1599417  HIT %:    19.6509  MISS %:    80.3491   MPKI: 7.99708
LLC WRITEBACK NON_SPEC    ACCESS:     485518  HIT:     483784  MISS:       1734  HIT %:    99.6429  MISS %:   0.357144   MPKI: 0.00867
LLC CLEAN_EVICTION NON_SPEC    ACCESS:     856933  HIT:     609962  MISS:     246971  HIT %:    71.1797  MISS %:    28.8203   MPKI: 1.23485
LLC COMMIT LOAD NON_SPEC    ACCESS:      14628  HIT:       6555  MISS:       8073  HIT %:    44.8113  MISS %:    55.1887   MPKI: 0.040365
LLC LOAD TRANSLATION NON_SPEC    ACCESS:       5009  HIT:        378  MISS:       4631  HIT %:    7.54642  MISS %:    92.4536   MPKI: 0.023155
LLC PREFETCH  REQUESTED:          0  ISSUED:          0  USEFUL:      20882  USELESS:    1584329
LLC USEFUL LOAD PREFETCHES:      20882 PREFETCH ISSUED TO LOWER LEVEL:    1599417  ACCURACY: 1.3056
LLC TIMELY PREFETCHES:      20882 LATE PREFETCHES: 0 DROPPED PREFETCHES: 0
LLC COMMIT LATE PREFETCHES: 0 MISSED OPPORTUNITY: 0 LATE IN PQ: 0 UNCOVERED: 0
LLC COMMIT LATE MSHR PREFETCHES: 0
LLC MPKI TOTAL: 1.50596 MSHR LATE: 0 PQ LATE: 0 COMMIT LATE: 0 MISSED OPPORTUNITY: 0 UNCOVERED: 0
LLC PREFETCHES SAME FILL-ORIGIN LEVEL: 0 DIFFERENT FILL-ORIGIN LEVEL: 0
LLC AVERAGE MISS LATENCY: 255.941 cycles
LLC AVERAGE MISS LATENCY LOAD: 210.218 cycles
LLC AVERAGE MISS LATENCY PREFETCH: 287.696 cycles
LLC AVERAGE MSHR OCCUPANCY: 6.41599
LLC MSHR FULL: 0
LLC RQ	ACCESS:     763975	FORWARD:          0	MERGED:          0	TO_CACHE:     763975
LLC WQ	ACCESS:    1342451	FORWARD:         25	MERGED:          0	TO_CACHE:    1342451
LLC PQ	ACCESS:    1990609	FORWARD:          0	MERGED:          0	TO_CACHE:    1990584

LLC Dense regions hint to LLC: 0

RAW hits: 145483
Loads Generated: 59115281
Loads sent to L1D: 58969795
Stores Generated: 10855290
Stores sent to L1D: 10855295
Major fault: 0 Minor fault: 10671
Allocated PAGES: 10671
Total Load insts: 73571457
Total Non-spec loads: 7424393
Percentage of speculative loads: 89.9086

LeapFrogging counter: 1486116
Commit hits: 32249943 miss: 19937286
Commit hit %: 61.7966 miss %: 38.2034
Commits not translated: 0
Loads retired: 3056449
Stores retired: 10855295
Cache fills: 3056449
L1D response latency: 39.7903 cycles
Load retirement latency: 119.646 cycles
OOO test counter: 0
Discarded buffer inserts: 32249943 hits: 103127 hit %: 0.319774
Filter prediction accuracy: 99.795
[Bingo] PHT Access: 154320
[Bingo] PHT Hit PC+Addr: 7792
[Bingo] PHT Hit PC+Offs: 92259
[Bingo] PHT Miss: 54269
[Bingo] Prefetch PC+Addr: 0
[Bingo] Prefetch PC+Offs: 0
[Bingo] Useful PC+Addr: 0
[Bingo] Useful PC+Offs: 0
[Bingo] Useless PC+Addr: 0
[Bingo] Useless PC+Offs: 0
[Bingo] L1 Prefetch per Region: 0
[Bingo] L2 Prefetch per Region: 22.5195
[Bingo] L3 Prefetch per Region: 0
[Bingo] No Prefetch per Region: 9.48045
[Bingo] Number of Voters Mean: 13.3503
[Bingo] Number of Voters SD: 9.18514
PHT read accesses: 1840428
PHT write accesses: 94641
AT read accesses: 46601207
AT write accesses: 46682978
FT read accesses: 25032419
FT write accesses: 154320
PS read accesses: 760220
PS write accesses: 100051
PHT tag read accesses: 5262280
PHT tag write accesses: 102433
AT tag read accesses: 993353619
AT tag write accesses: 46695849
FT tag read accesses: 250133500
FT tag write accesses: 12719466
PS tag read accesses: 949312701
PS tag write accesses: 857141

DRAM Statistics
 CHANNEL 0
 RQ ROW_BUFFER_HIT:    1229285  ROW_BUFFER_MISS:    1033576
 DBUS_CONGESTED:        501
 WQ ROW_BUFFER_HIT:     239125  ROW_BUFFER_MISS:     844047  FULL:      29627

 AVG_CONGESTED_CYCLE: 4
 All warmup complete: 2
Channel 0 Bank busy for read cycles: 0
Channel 0 Bank busy for write cycles: 0
Channel 0
Rank 0
0banks busy for read cycles: 153670895
0banks busy for write cycles: 51573
1banks busy for read cycles: 12118618
1banks busy for write cycles: 5423810
2banks busy for read cycles: 7645102
2banks busy for write cycles: 2485047
3banks busy for read cycles: 4464907
3banks busy for write cycles: 1885027
4banks busy for read cycles: 2923871
4banks busy for write cycles: 1638342
5banks busy for read cycles: 2801999
5banks busy for write cycles: 1626335
6banks busy for read cycles: 2775090
6banks busy for write cycles: 1787774
7banks busy for read cycles: 4658003
7banks busy for write cycles: 3050123
8banks busy for read cycles: 13425959
8banks busy for write cycles: 13863338

CPU 0 Branch Prediction Accuracy: 99.8685% MPKI: 0.079065 Average ROB Occupancy at Mispredict: 117.166
Branch types
NOT_BRANCH: 187976359 93.9882%
BRANCH_DIRECT_JUMP: 290387 0.145193%
BRANCH_INDIRECT: 12 6e-06%
BRANCH_CONDITIONAL: 11132877 5.56644%
BRANCH_DIRECT_CALL: 300051 0.150025%
BRANCH_INDIRECT_CALL: 0 0%
BRANCH_RETURN: 300050 0.150025%
BRANCH_OTHER: 0 0%

DRAM PAGES: 1048576
Allocated PAGES: 10671
