
*** ChampSim Multicore Out-of-Order Simulator ***

Warmup Instructions: 50000000
Simulation Instructions: 200000000
Number of CPUs: 1
LLC sets: 2048
LLC ways: 16
L0D sets: 16
L0D ways: 2
ROB size: 352
LQ size: 128
SQ size: 72
Secure Berti: OFF
Berti: OFF
Berti Fill: OFF
On commit prefetching: ON
Hit-based filter: ON
Time-guarding: ON
Free-slotting: ON
Leap-frogging: ON
Train prefetcher on L0D bypass: OFF
No translation penalty for prefetchers: OFF
Prefetch to L0D only: OFF
Prefetch to L1D only: OFF
Clean evictions: ON
Commit loads: ON
Commit write: ON
Fill commit loads to L2C, LLC: ON
DRAM IO FREQUENCY: 6400
ROB SIZE: 352
Off-chip DRAM Size: 4096 MB Channels: 1 Width: 64-bit Data Rate: 6400 MT/s
CPU 0 runs /home/sumon/secure_berti/GhostMinion/../../traces/spec/641.leela_s-1083B.champsimtrace.xz
.xz
BTB has LRU replacement policy
ITLB has LRU replacement policy
DTLB has LRU replacement policy
STLB has LRU replacement policy
L1I has LRU replacement policy
L0D has LRU replacement policy
L1D has LRU replacement policy
Bingo PHT WAYS: 16 and PHT_SIZE: 16384
L2C has LRU replacement policy
LLC has LRU replacement policy
Heartbeat CPU 0 instructions: 10000000 cycles: 5025616 heartbeat IPC: 1.98981 cumulative IPC: 1.98981 (Simulation time: 0 hr 0 min 33 sec) 
Heartbeat CPU 0 instructions: 20000000 cycles: 10102367 heartbeat IPC: 1.96976 cumulative IPC: 1.97973 (Simulation time: 0 hr 1 min 7 sec) 
Heartbeat CPU 0 instructions: 30000003 cycles: 15232279 heartbeat IPC: 1.94935 cumulative IPC: 1.9695 (Simulation time: 0 hr 1 min 41 sec) 
Heartbeat CPU 0 instructions: 40000003 cycles: 20298941 heartbeat IPC: 1.97369 cumulative IPC: 1.97055 (Simulation time: 0 hr 2 min 16 sec) 
Heartbeat CPU 0 instructions: 50000003 cycles: 25362807 heartbeat IPC: 1.97478 cumulative IPC: 1.97139 (Simulation time: 0 hr 2 min 51 sec) 

Warmup complete CPU 0 instructions: 50000003 cycles: 25362807 (Simulation time: 0 hr 2 min 51 sec) 

Heartbeat CPU 0 instructions: 60000002 cycles: 50500191 heartbeat IPC: 0.397814 cumulative IPC: 0.397814 (Simulation time: 0 hr 3 min 30 sec) 
Heartbeat CPU 0 instructions: 70000000 cycles: 75870580 heartbeat IPC: 0.39416 cumulative IPC: 0.395979 (Simulation time: 0 hr 4 min 12 sec) 
Heartbeat CPU 0 instructions: 80000000 cycles: 100917881 heartbeat IPC: 0.399245 cumulative IPC: 0.397061 (Simulation time: 0 hr 4 min 56 sec) 
Heartbeat CPU 0 instructions: 90000003 cycles: 126615552 heartbeat IPC: 0.38914 cumulative IPC: 0.395051 (Simulation time: 0 hr 5 min 43 sec) 
Heartbeat CPU 0 instructions: 100000002 cycles: 152004080 heartbeat IPC: 0.393879 cumulative IPC: 0.394816 (Simulation time: 0 hr 6 min 31 sec) 
Heartbeat CPU 0 instructions: 110000000 cycles: 176942519 heartbeat IPC: 0.400987 cumulative IPC: 0.395831 (Simulation time: 0 hr 7 min 18 sec) 
Heartbeat CPU 0 instructions: 120000000 cycles: 201789967 heartbeat IPC: 0.402456 cumulative IPC: 0.396764 (Simulation time: 0 hr 8 min 5 sec) 
Heartbeat CPU 0 instructions: 130000001 cycles: 227002787 heartbeat IPC: 0.396624 cumulative IPC: 0.396747 (Simulation time: 0 hr 8 min 52 sec) 
Heartbeat CPU 0 instructions: 140000000 cycles: 252271731 heartbeat IPC: 0.395743 cumulative IPC: 0.396635 (Simulation time: 0 hr 9 min 39 sec) 
Heartbeat CPU 0 instructions: 150000000 cycles: 277324723 heartbeat IPC: 0.399154 cumulative IPC: 0.396885 (Simulation time: 0 hr 10 min 26 sec) 
Heartbeat CPU 0 instructions: 160000000 cycles: 302133126 heartbeat IPC: 0.403089 cumulative IPC: 0.397441 (Simulation time: 0 hr 11 min 12 sec) 
Heartbeat CPU 0 instructions: 170000001 cycles: 327070057 heartbeat IPC: 0.401012 cumulative IPC: 0.397737 (Simulation time: 0 hr 11 min 59 sec) 
Heartbeat CPU 0 instructions: 180000000 cycles: 352180212 heartbeat IPC: 0.398245 cumulative IPC: 0.397776 (Simulation time: 0 hr 12 min 45 sec) 
Heartbeat CPU 0 instructions: 190000001 cycles: 377183396 heartbeat IPC: 0.399949 cumulative IPC: 0.39793 (Simulation time: 0 hr 13 min 33 sec) 
Heartbeat CPU 0 instructions: 200000002 cycles: 402310228 heartbeat IPC: 0.397981 cumulative IPC: 0.397933 (Simulation time: 0 hr 14 min 19 sec) 
Heartbeat CPU 0 instructions: 210000003 cycles: 427859500 heartbeat IPC: 0.391401 cumulative IPC: 0.397519 (Simulation time: 0 hr 15 min 3 sec) 
Heartbeat CPU 0 instructions: 220000000 cycles: 453296480 heartbeat IPC: 0.393128 cumulative IPC: 0.397258 (Simulation time: 0 hr 15 min 46 sec) 
Heartbeat CPU 0 instructions: 230000000 cycles: 478798115 heartbeat IPC: 0.392132 cumulative IPC: 0.39697 (Simulation time: 0 hr 16 min 26 sec) 
Heartbeat CPU 0 instructions: 240000000 cycles: 503932165 heartbeat IPC: 0.397867 cumulative IPC: 0.397017 (Simulation time: 0 hr 17 min 6 sec) 
Heartbeat CPU 0 instructions: 250000000 cycles: 563386468 heartbeat IPC: 0.168196 cumulative IPC: 0.371731 (Simulation time: 0 hr 18 min 37 sec) 
Finished CPU 0 instructions: 200000000 cycles: 538023718 cumulative IPC: 0.371731 (Simulation time: 0 hr 18 min 37 sec) 
 Instruction ID: 250000385

ChampSim completed all CPUs

Region of Interest Statistics

CPU 0 cumulative IPC: 0.371731 instructions: 200000000 cycles: 538023718
ITLB SPEC fills:          0  NON-SPEC fills:          0
ITLB Test counter :          0
ITLB Leapfrog:          0
ITLB MSHR merge:          0
ITLB TOTAL     ACCESS:   35708474  HIT:   35708312  MISS:        162  HIT %:    99.9995  MISS %: 0.000453674   MPKI: 0.00081
ITLB LOAD TRANSLATION NON_SPEC    ACCESS:   35708474  HIT:   35708312  MISS:        162  HIT %:    99.9995  MISS %: 0.000453674   MPKI: 0.00081
ITLB PREFETCH  REQUESTED:          0  ISSUED:          0  USEFUL:          0  USELESS:          0
ITLB USEFUL LOAD PREFETCHES:          0 PREFETCH ISSUED TO LOWER LEVEL:          0  ACCURACY: -nan
ITLB TIMELY PREFETCHES:          0 LATE PREFETCHES: 0 DROPPED PREFETCHES: 0
ITLB COMMIT LATE PREFETCHES: 0 MISSED OPPORTUNITY: 0 LATE IN PQ: 0 UNCOVERED: 0
ITLB COMMIT LATE MSHR PREFETCHES: 0
ITLB MPKI TOTAL: 0 MSHR LATE: 0 PQ LATE: 0 COMMIT LATE: 0 MISSED OPPORTUNITY: 0 UNCOVERED: 0
ITLB PREFETCHES SAME FILL-ORIGIN LEVEL: 0 DIFFERENT FILL-ORIGIN LEVEL: 0
ITLB AVERAGE MISS LATENCY: 186.395 cycles
ITLB AVERAGE MISS LATENCY LOAD: -nan cycles
ITLB AVERAGE MISS LATENCY PREFETCH: -nan cycles
ITLB AVERAGE MSHR OCCUPANCY: 1.82029e-06
ITLB MSHR FULL: 0
ITLB RQ	ACCESS:   40332226	FORWARD:          0	MERGED:    4623714	TO_CACHE:   35708512

DTLB SPEC fills:          0  NON-SPEC fills:          0
DTLB Test counter :          0
DTLB Leapfrog:          0
DTLB MSHR merge:          0
DTLB TOTAL     ACCESS:   64746485  HIT:   64642628  MISS:     103857  HIT %:    99.8396  MISS %:   0.160406   MPKI: 0.519285
DTLB LOAD TRANSLATION NON_SPEC    ACCESS:   64746485  HIT:   64642628  MISS:     103857  HIT %:    99.8396  MISS %:   0.160406   MPKI: 0.519285
DTLB PREFETCH  REQUESTED:          0  ISSUED:          0  USEFUL:          0  USELESS:          0
DTLB USEFUL LOAD PREFETCHES:          0 PREFETCH ISSUED TO LOWER LEVEL:          0  ACCURACY: -nan
DTLB TIMELY PREFETCHES:          0 LATE PREFETCHES: 0 DROPPED PREFETCHES: 0
DTLB COMMIT LATE PREFETCHES: 0 MISSED OPPORTUNITY: 0 LATE IN PQ: 0 UNCOVERED: 0
DTLB COMMIT LATE MSHR PREFETCHES: 0
DTLB MPKI TOTAL: 0 MSHR LATE: 0 PQ LATE: 0 COMMIT LATE: 0 MISSED OPPORTUNITY: 0 UNCOVERED: 0
DTLB PREFETCHES SAME FILL-ORIGIN LEVEL: 0 DIFFERENT FILL-ORIGIN LEVEL: 0
DTLB AVERAGE MISS LATENCY: 18.6648 cycles
DTLB AVERAGE MISS LATENCY LOAD: -nan cycles
DTLB AVERAGE MISS LATENCY PREFETCH: -nan cycles
DTLB AVERAGE MSHR OCCUPANCY: 0.00207543
DTLB MSHR FULL: 0
DTLB RQ	ACCESS:   72963683	FORWARD:          0	MERGED:    8193992	TO_CACHE:   64769691

STLB SPEC fills:          0  NON-SPEC fills:          0
STLB Test counter :          0
STLB Leapfrog:          0
STLB MSHR merge:          0
STLB TOTAL     ACCESS:     104019  HIT:      98131  MISS:       5888  HIT %:    94.3395  MISS %:     5.6605   MPKI: 0.02944
STLB LOAD TRANSLATION NON_SPEC    ACCESS:     104019  HIT:      98131  MISS:       5888  HIT %:    94.3395  MISS %:     5.6605   MPKI: 0.02944
STLB PREFETCH  REQUESTED:          0  ISSUED:          0  USEFUL:          0  USELESS:          0
STLB USEFUL LOAD PREFETCHES:          0 PREFETCH ISSUED TO LOWER LEVEL:          0  ACCURACY: -nan
STLB TIMELY PREFETCHES:          0 LATE PREFETCHES: 0 DROPPED PREFETCHES: 0
STLB COMMIT LATE PREFETCHES: 0 MISSED OPPORTUNITY: 0 LATE IN PQ: 0 UNCOVERED: 0
STLB COMMIT LATE MSHR PREFETCHES: 0
STLB MPKI TOTAL: 0 MSHR LATE: 0 PQ LATE: 0 COMMIT LATE: 0 MISSED OPPORTUNITY: 0 UNCOVERED: 0
STLB PREFETCHES SAME FILL-ORIGIN LEVEL: 0 DIFFERENT FILL-ORIGIN LEVEL: 0
STLB AVERAGE MISS LATENCY: 175.255 cycles
STLB AVERAGE MISS LATENCY LOAD: -nan cycles
STLB AVERAGE MISS LATENCY PREFETCH: -nan cycles
STLB AVERAGE MSHR OCCUPANCY: 0.0018362
STLB MSHR FULL: 0
STLB RQ	ACCESS:     104019	FORWARD:          0	MERGED:          0	TO_CACHE:     104019

STLB Hit, L1D data hit: 0
STLB Hit, L2C data hit: 0
STLB Hit, LLC data hit: 0
STLB Hit, LLC data miss: 0
STLB STLB hints to L2: 0
L0D SPEC fills:   23310384  NON-SPEC fills:          0
L0D TimeGuard Request with older TS:     205300 Restricted eviction:     141817 read:     230615
L0D Test counter :          0
L0D Leapfrog:          0
L0D MSHR merge:     650354
L0D TOTAL     ACCESS:   46633669  HIT:    3315689  MISS:   43317980  HIT %:    7.11008  MISS %:    92.8899   MPKI: 216.59
L0D LOAD      TOTAL       ACCESS:   46633669  HIT:    3315689  MISS:   43317980  HIT %:    7.11008  MISS %:    92.8899   MPKI: 216.59
L0D LOAD      NON_SPEC    ACCESS:   20064435  HIT:     198656  MISS:   19865779  HIT %:    0.99009  MISS %:    99.0099   MPKI: 99.3289
L0D LOAD      SPEC        ACCESS:   26569234  HIT:    3117033  MISS:   23452201  HIT %:    11.7317  MISS %:    88.2683   MPKI: 117.261
L0D PREFETCH  REQUESTED:          0  ISSUED:          0  USEFUL:          0  USELESS:          0
L0D USEFUL LOAD PREFETCHES:          0 PREFETCH ISSUED TO LOWER LEVEL:          0  ACCURACY: -nan
L0D TIMELY PREFETCHES:          0 LATE PREFETCHES: 0 DROPPED PREFETCHES: 0
L0D COMMIT LATE PREFETCHES: 0 MISSED OPPORTUNITY: 0 LATE IN PQ: 0 UNCOVERED: 0
L0D COMMIT LATE MSHR PREFETCHES: 0
L0D MPKI TOTAL: 219.842 MSHR LATE: 0 PQ LATE: 0 COMMIT LATE: 0 MISSED OPPORTUNITY: 0 UNCOVERED: 0
L0D PREFETCHES SAME FILL-ORIGIN LEVEL: 0 DIFFERENT FILL-ORIGIN LEVEL: 0
L0D AVERAGE MISS LATENCY: 5.67806 cycles
L0D AVERAGE MISS LATENCY LOAD: 5.67806 cycles
L0D AVERAGE MISS LATENCY PREFETCH: -nan cycles
L0D AVERAGE MSHR OCCUPANCY: 0.680953
L0D MSHR FULL: 0.0170412
L0D RQ	ACCESS:   53938957	FORWARD:          0	MERGED:    6654937	TO_CACHE:   47284020
L0D WQ	ACCESS:   25679663	FORWARD:          0	MERGED:          0	TO_CACHE:   25679663

L1D SPEC fills:          0  NON-SPEC fills:     561366
L1D Test counter :          0
L1D Leapfrog:          0
L1D MSHR merge:       1619
L1D TOTAL     ACCESS:   66863462  HIT:   65303501  MISS:    1559961  HIT %:    97.6669  MISS %:    2.33305   MPKI: 7.79981
L1D LOAD      TOTAL       ACCESS:   43316360  HIT:   42476733  MISS:     839627  HIT %:    98.0616  MISS %:    1.93836   MPKI: 4.19813
L1D LOAD      NON_SPEC    ACCESS:   19864788  HIT:   19303422  MISS:     561366  HIT %:    97.1741  MISS %:    2.82594   MPKI: 2.80683
L1D LOAD      SPEC        ACCESS:   23451572  HIT:   23173311  MISS:     278261  HIT %:    98.8135  MISS %:    1.18653   MPKI: 1.39131
L1D RFO       NON_SPEC    ACCESS:   22991176  HIT:   22570149  MISS:     421027  HIT %:    98.1687  MISS %:    1.83125   MPKI: 2.10514
L1D COMMIT LOAD NON_SPEC    ACCESS:     276067  HIT:     251992  MISS:      24075  HIT %:    91.2793  MISS %:    8.72071   MPKI: 0.120375
L1D COMMIT WRITE NON_SPEC    ACCESS:     279859  HIT:       4627  MISS:     275232  HIT %:    1.65333  MISS %:    98.3467   MPKI: 1.37616
L1D PREFETCH  REQUESTED:          0  ISSUED:          0  USEFUL:          0  USELESS:          0
L1D USEFUL LOAD PREFETCHES:          0 PREFETCH ISSUED TO LOWER LEVEL:          0  ACCURACY: -nan
L1D TIMELY PREFETCHES:          0 LATE PREFETCHES: 0 DROPPED PREFETCHES: 0
L1D COMMIT LATE PREFETCHES: 0 MISSED OPPORTUNITY: 0 LATE IN PQ: 0 UNCOVERED: 0
L1D COMMIT LATE MSHR PREFETCHES: 0
L1D MPKI TOTAL: 4.20623 MSHR LATE: 0 PQ LATE: 0 COMMIT LATE: 0 MISSED OPPORTUNITY: 0 UNCOVERED: 0
L1D PREFETCHES SAME FILL-ORIGIN LEVEL: 0 DIFFERENT FILL-ORIGIN LEVEL: 0
L1D AVERAGE MISS LATENCY: 77.7744 cycles
L1D AVERAGE MISS LATENCY LOAD: 28.7196 cycles
L1D AVERAGE MISS LATENCY PREFETCH: -nan cycles
L1D AVERAGE MSHR OCCUPANCY: 0.298998
L1D MSHR FULL: 0.00951392
L1D RQ	ACCESS:   43916428	FORWARD:          0	MERGED:     317619	TO_CACHE:   43594349
L1D WQ	ACCESS:   25958388	FORWARD:       4460	MERGED:     337597	TO_CACHE:   25620791

L1D UNIQUE REGIONS ACCESSED: 0
L1D REGIONS CONFLICTS: 0
L1D Cross Page Prefetch Requests: 0
L1D Same Page Prefetch Requests: 0
L1D ROI Sum of L1D PQ occupancy: 0
L1D PREFETCHES PUSHED FROM L2C: 0
L1I SPEC fills:          0  NON-SPEC fills:          0
L1I Test counter :          0
L1I Leapfrog:          0
L1I MSHR merge:       5483
L1I TOTAL     ACCESS:   40326743  HIT:   40311316  MISS:      15427  HIT %:    99.9617  MISS %:   0.038255   MPKI: 0.077135
L1I LOAD      TOTAL       ACCESS:   40326743  HIT:   40311316  MISS:      15427  HIT %:    99.9617  MISS %:   0.038255   MPKI: 0.077135
L1I LOAD      NON_SPEC    ACCESS:   40326743  HIT:   40311316  MISS:      15427  HIT %:    99.9617  MISS %:   0.038255   MPKI: 0.077135
L1I PREFETCH  REQUESTED:          0  ISSUED:          0  USEFUL:          0  USELESS:          0
L1I USEFUL LOAD PREFETCHES:          0 PREFETCH ISSUED TO LOWER LEVEL:          0  ACCURACY: -nan
L1I TIMELY PREFETCHES:          0 LATE PREFETCHES: 0 DROPPED PREFETCHES: 0
L1I COMMIT LATE PREFETCHES: 0 MISSED OPPORTUNITY: 0 LATE IN PQ: 0 UNCOVERED: 0
L1I COMMIT LATE MSHR PREFETCHES: 0
L1I MPKI TOTAL: 0.10455 MSHR LATE: 0 PQ LATE: 0 COMMIT LATE: 0 MISSED OPPORTUNITY: 0 UNCOVERED: 0
L1I PREFETCHES SAME FILL-ORIGIN LEVEL: 0 DIFFERENT FILL-ORIGIN LEVEL: 0
L1I AVERAGE MISS LATENCY: 46.8942 cycles
L1I AVERAGE MISS LATENCY LOAD: 46.8942 cycles
L1I AVERAGE MISS LATENCY PREFETCH: -nan cycles
L1I AVERAGE MSHR OCCUPANCY: 0.00057847
L1I MSHR FULL: 0
L1I RQ	ACCESS:   57037724	FORWARD:          0	MERGED:   16705498	TO_CACHE:   40332226

BTB SPEC fills:          0  NON-SPEC fills:          0
BTB Test counter :          0
BTB Leapfrog:          0
BTB MSHR merge:          0
BTB TOTAL     ACCESS:   31329121  HIT:   29031204  MISS:    2297917  HIT %:    92.6652  MISS %:    7.33476   MPKI: 11.4896
BTB BRANCH_DIRECT_JUMP	ACCESS:    1094608  HIT:    1094408  MISS:        200
BTB BRANCH_INDIRECT	ACCESS:       6209  HIT:       4182  MISS:       2027
BTB BRANCH_CONDITIONAL	ACCESS:   18688882  HIT:   18687006  MISS:       1876
BTB BRANCH_DIRECT_CALL	ACCESS:    5769438  HIT:    5768610  MISS:        828
BTB BRANCH_INDIRECT_CALL	ACCESS:        272  HIT:        218  MISS:         54
BTB BRANCH_RETURN	ACCESS:    5769712  HIT:    3476780  MISS:    2292932
BTB BRANCH_OTHER ACCESS:          0  HIT:          0  MISS:          0

L2C SPEC fills:          0  NON-SPEC fills:      23516
L2C Test counter :          0
L2C Leapfrog:          0
L2C MSHR merge:      19395
L2C TOTAL     ACCESS:    2429394  HIT:    1609574  MISS:     819820  HIT %:    66.2541  MISS %:    33.7459   MPKI: 4.0991
L2C LOAD      TOTAL       ACCESS:     855050  HIT:     785665  MISS:      69385  HIT %:    91.8853  MISS %:    8.11473   MPKI: 0.346925
L2C LOAD      NON_SPEC    ACCESS:     576793  HIT:     550674  MISS:      26119  HIT %:    95.4717  MISS %:    4.52831   MPKI: 0.130595
L2C LOAD      SPEC        ACCESS:     278257  HIT:     234991  MISS:      43266  HIT %:    84.4511  MISS %:    15.5489   MPKI: 0.21633
L2C RFO       NON_SPEC    ACCESS:     421010  HIT:      60620  MISS:     360390  HIT %:    14.3987  MISS %:    85.6013   MPKI: 1.80195
L2C PREFETCH  NON_SPEC    ACCESS:     578587  HIT:     226866  MISS:     351721  HIT %:    39.2104  MISS %:    60.7896   MPKI: 1.7586
L2C WRITEBACK NON_SPEC    ACCESS:     435833  HIT:     435753  MISS:         80  HIT %:    99.9816  MISS %:  0.0183557   MPKI: 0.0004
L2C CLEAN_EVICTION NON_SPEC    ACCESS:      85401  HIT:      57014  MISS:      28387  HIT %:    66.7603  MISS %:    33.2397   MPKI: 0.141935
L2C COMMIT LOAD NON_SPEC    ACCESS:      24075  HIT:      15901  MISS:       8174  HIT %:    66.0478  MISS %:    33.9522   MPKI: 0.04087
L2C LOAD TRANSLATION NON_SPEC    ACCESS:      29438  HIT:      27755  MISS:       1683  HIT %:    94.2829  MISS %:     5.7171   MPKI: 0.008415
L2C PREFETCH  REQUESTED:     610675  ISSUED:     610675  USEFUL:     322522  USELESS:      31493
L2C USEFUL LOAD PREFETCHES:     322522 PREFETCH ISSUED TO LOWER LEVEL:     375136  ACCURACY: 85.9747
L2C TIMELY PREFETCHES:     322522 LATE PREFETCHES: 23415 DROPPED PREFETCHES: 0
L2C COMMIT LATE PREFETCHES: 0 MISSED OPPORTUNITY: 0 LATE IN PQ: 0 UNCOVERED: 0
L2C COMMIT LATE MSHR PREFETCHES: 0
L2C MPKI TOTAL: 0.346925 MSHR LATE: 0.117075 PQ LATE: 0 COMMIT LATE: 0 MISSED OPPORTUNITY: 0 UNCOVERED: 0
L2C PREFETCHES SAME FILL-ORIGIN LEVEL: 375136 DIFFERENT FILL-ORIGIN LEVEL: 0
L2C AVERAGE MISS LATENCY: 277.87 cycles
L2C AVERAGE MISS LATENCY LOAD: 176.924 cycles
L2C AVERAGE MISS LATENCY PREFETCH: 354.537 cycles
L2C AVERAGE MSHR OCCUPANCY: 4.8176
L2C MSHR FULL: 0.0606835
L2C RQ	ACCESS:    1329595	FORWARD:          0	MERGED:          0	TO_CACHE:    1329574
L2C WQ	ACCESS:     521235	FORWARD:         23	MERGED:          0	TO_CACHE:     521235
L2C PQ	ACCESS:     610675	FORWARD:          0	MERGED:          0	TO_CACHE:     610673

L2C Instructions Evicting Data 2578
L2C Translations Evicting Data 1658
L2C Data Evicting Data 738527
L2C Instructions Evicting Instructions 21
L2C Translations Evicting Instructions 10
L2C Data Evicting Instructions 2760
L2C Instructions Evicting Translations 4
L2C Translations Evicting Translations 1
L2C Data Evicting Translations 1696
L2C Dense regions hint from L2: 0
PSCL5 SPEC fills:          0  NON-SPEC fills:          0
PSCL5 Test counter :          0
PSCL5 Leapfrog:          0
PSCL5 MSHR merge:          0
PSCL5 TOTAL     ACCESS:          0  HIT:          0  MISS:          0  HIT %:       -nan  MISS %:       -nan   MPKI: 0
PSCL5 PREFETCH  REQUESTED:          0  ISSUED:          0  USEFUL:          0  USELESS:          0
PSCL5 USEFUL LOAD PREFETCHES:          0 PREFETCH ISSUED TO LOWER LEVEL:          0  ACCURACY: -nan
PSCL5 TIMELY PREFETCHES:          0 LATE PREFETCHES: 0 DROPPED PREFETCHES: 0
PSCL5 COMMIT LATE PREFETCHES: 0 MISSED OPPORTUNITY: 0 LATE IN PQ: 0 UNCOVERED: 0
PSCL5 COMMIT LATE MSHR PREFETCHES: 0
PSCL5 MPKI TOTAL: 0 MSHR LATE: 0 PQ LATE: 0 COMMIT LATE: 0 MISSED OPPORTUNITY: 0 UNCOVERED: 0
PSCL5 PREFETCHES SAME FILL-ORIGIN LEVEL: 0 DIFFERENT FILL-ORIGIN LEVEL: 0

PSCL4 SPEC fills:          0  NON-SPEC fills:          0
PSCL4 Test counter :          0
PSCL4 Leapfrog:          0
PSCL4 MSHR merge:          0
PSCL4 TOTAL     ACCESS:          0  HIT:          0  MISS:          0  HIT %:       -nan  MISS %:       -nan   MPKI: 0
PSCL4 PREFETCH  REQUESTED:          0  ISSUED:          0  USEFUL:          0  USELESS:          0
PSCL4 USEFUL LOAD PREFETCHES:          0 PREFETCH ISSUED TO LOWER LEVEL:          0  ACCURACY: -nan
PSCL4 TIMELY PREFETCHES:          0 LATE PREFETCHES: 0 DROPPED PREFETCHES: 0
PSCL4 COMMIT LATE PREFETCHES: 0 MISSED OPPORTUNITY: 0 LATE IN PQ: 0 UNCOVERED: 0
PSCL4 COMMIT LATE MSHR PREFETCHES: 0
PSCL4 MPKI TOTAL: 0 MSHR LATE: 0 PQ LATE: 0 COMMIT LATE: 0 MISSED OPPORTUNITY: 0 UNCOVERED: 0
PSCL4 PREFETCHES SAME FILL-ORIGIN LEVEL: 0 DIFFERENT FILL-ORIGIN LEVEL: 0

PSCL3 SPEC fills:          0  NON-SPEC fills:          0
PSCL3 Test counter :          0
PSCL3 Leapfrog:          0
PSCL3 MSHR merge:          0
PSCL3 TOTAL     ACCESS:          0  HIT:          0  MISS:          0  HIT %:       -nan  MISS %:       -nan   MPKI: 0
PSCL3 PREFETCH  REQUESTED:          0  ISSUED:          0  USEFUL:          0  USELESS:          0
PSCL3 USEFUL LOAD PREFETCHES:          0 PREFETCH ISSUED TO LOWER LEVEL:          0  ACCURACY: -nan
PSCL3 TIMELY PREFETCHES:          0 LATE PREFETCHES: 0 DROPPED PREFETCHES: 0
PSCL3 COMMIT LATE PREFETCHES: 0 MISSED OPPORTUNITY: 0 LATE IN PQ: 0 UNCOVERED: 0
PSCL3 COMMIT LATE MSHR PREFETCHES: 0
PSCL3 MPKI TOTAL: 0 MSHR LATE: 0 PQ LATE: 0 COMMIT LATE: 0 MISSED OPPORTUNITY: 0 UNCOVERED: 0
PSCL3 PREFETCHES SAME FILL-ORIGIN LEVEL: 0 DIFFERENT FILL-ORIGIN LEVEL: 0

PSCL2 SPEC fills:          0  NON-SPEC fills:          0
PSCL2 Test counter :          0
PSCL2 Leapfrog:          0
PSCL2 MSHR merge:          0
PSCL2 TOTAL     ACCESS:          0  HIT:          0  MISS:          0  HIT %:       -nan  MISS %:       -nan   MPKI: 0
PSCL2 PREFETCH  REQUESTED:          0  ISSUED:          0  USEFUL:          0  USELESS:          0
PSCL2 USEFUL LOAD PREFETCHES:          0 PREFETCH ISSUED TO LOWER LEVEL:          0  ACCURACY: -nan
PSCL2 TIMELY PREFETCHES:          0 LATE PREFETCHES: 0 DROPPED PREFETCHES: 0
PSCL2 COMMIT LATE PREFETCHES: 0 MISSED OPPORTUNITY: 0 LATE IN PQ: 0 UNCOVERED: 0
PSCL2 COMMIT LATE MSHR PREFETCHES: 0
PSCL2 MPKI TOTAL: 0 MSHR LATE: 0 PQ LATE: 0 COMMIT LATE: 0 MISSED OPPORTUNITY: 0 UNCOVERED: 0
PSCL2 PREFETCHES SAME FILL-ORIGIN LEVEL: 0 DIFFERENT FILL-ORIGIN LEVEL: 0

LLC SPEC fills:          0  NON-SPEC fills:      12607
LLC Test counter :          0
LLC Leapfrog:          0
LLC MSHR merge:          0
LLC TOTAL     ACCESS:    1203264  HIT:     424509  MISS:     778755  HIT %:    35.2798  MISS %:    64.7202   MPKI: 3.89378
LLC LOAD      TOTAL       ACCESS:      49990  HIT:       6134  MISS:      43856  HIT %:    12.2705  MISS %:    87.7295   MPKI: 0.21928
LLC LOAD      NON_SPEC    ACCESS:      17847  HIT:       2704  MISS:      15143  HIT %:     15.151  MISS %:     84.849   MPKI: 0.075715
LLC LOAD      SPEC        ACCESS:      32143  HIT:       3430  MISS:      28713  HIT %:    10.6711  MISS %:    89.3289   MPKI: 0.143565
LLC RFO       NON_SPEC    ACCESS:     359456  HIT:       3638  MISS:     355818  HIT %:    1.01208  MISS %:    98.9879   MPKI: 1.77909
LLC PREFETCH  NON_SPEC    ACCESS:     375135  HIT:      18777  MISS:     356358  HIT %:     5.0054  MISS %:    94.9946   MPKI: 1.78179
LLC WRITEBACK NON_SPEC    ACCESS:     364559  HIT:     364498  MISS:         61  HIT %:    99.9833  MISS %:  0.0167325   MPKI: 0.000305
LLC CLEAN_EVICTION NON_SPEC    ACCESS:      47353  HIT:      28058  MISS:      19295  HIT %:    59.2528  MISS %:    40.7472   MPKI: 0.096475
LLC COMMIT LOAD NON_SPEC    ACCESS:       5088  HIT:       3143  MISS:       1945  HIT %:    61.7728  MISS %:    38.2272   MPKI: 0.009725
LLC LOAD TRANSLATION NON_SPEC    ACCESS:       1683  HIT:        261  MISS:       1422  HIT %:     15.508  MISS %:     84.492   MPKI: 0.00711
LLC PREFETCH  REQUESTED:          0  ISSUED:          0  USEFUL:       6259  USELESS:     339071
LLC USEFUL LOAD PREFETCHES:       6259 PREFETCH ISSUED TO LOWER LEVEL:     356358  ACCURACY: 1.75638
LLC TIMELY PREFETCHES:       6259 LATE PREFETCHES: 0 DROPPED PREFETCHES: 0
LLC COMMIT LATE PREFETCHES: 0 MISSED OPPORTUNITY: 0 LATE IN PQ: 0 UNCOVERED: 0
LLC COMMIT LATE MSHR PREFETCHES: 0
LLC MPKI TOTAL: 0.21928 MSHR LATE: 0 PQ LATE: 0 COMMIT LATE: 0 MISSED OPPORTUNITY: 0 UNCOVERED: 0
LLC PREFETCHES SAME FILL-ORIGIN LEVEL: 0 DIFFERENT FILL-ORIGIN LEVEL: 0
LLC AVERAGE MISS LATENCY: 265.341 cycles
LLC AVERAGE MISS LATENCY LOAD: 176.836 cycles
LLC AVERAGE MISS LATENCY PREFETCH: 336.566 cycles
LLC AVERAGE MSHR OCCUPANCY: 4.40341
LLC MSHR FULL: 0
LLC RQ	ACCESS:     416218	FORWARD:          0	MERGED:          0	TO_CACHE:     416218
LLC WQ	ACCESS:     411912	FORWARD:          1	MERGED:          0	TO_CACHE:     411912
LLC PQ	ACCESS:     375136	FORWARD:          0	MERGED:          0	TO_CACHE:     375135

LLC Dense regions hint to LLC: 0

RAW hits: 1491358
Loads Generated: 55430316
Loads sent to L1D: 53938957
Stores Generated: 25679661
Stores sent to L1D: 25679663
Major fault: 0 Minor fault: 2275
Allocated PAGES: 2275
Total Load insts: 65741777
Total Non-spec loads: 22210680
Percentage of speculative loads: 66.2153

LeapFrogging counter: 166942
Commit hits: 23177392 miss: 10667661
Commit hit %: 68.4809 miss %: 31.5191
Commits not translated: 0
Loads retired: 839627
Stores retired: 25679663
Cache fills: 839627
L1D response latency: 28.7196 cycles
Load retirement latency: 56.5478 cycles
OOO test counter: 0
Discarded buffer inserts: 23177392 hits: 40828 hit %: 0.176154
Filter prediction accuracy: 99.9354
[Bingo] PHT Access: 63715
[Bingo] PHT Hit PC+Addr: 34248
[Bingo] PHT Hit PC+Offs: 24461
[Bingo] PHT Miss: 5006
[Bingo] Prefetch PC+Addr: 0
[Bingo] Prefetch PC+Offs: 0
[Bingo] Useful PC+Addr: 0
[Bingo] Useful PC+Offs: 0
[Bingo] Useless PC+Addr: 0
[Bingo] Useless PC+Offs: 0
[Bingo] L1 Prefetch per Region: 0
[Bingo] L2 Prefetch per Region: 11.4204
[Bingo] L3 Prefetch per Region: 0
[Bingo] No Prefetch per Region: 20.5796
[Bingo] Number of Voters Mean: 14.1786
[Bingo] Number of Voters SD: 6.68239
PHT read accesses: 566101
PHT write accesses: 45119
AT read accesses: 54707307
AT write accesses: 54744852
FT read accesses: 1471316
FT write accesses: 63715
PS read accesses: 182218
PS write accesses: 58709
PHT tag read accesses: 1615126
PHT tag write accesses: 79367
AT tag read accesses: 901402695
AT tag write accesses: 54752423
FT tag read accesses: 27145745
FT tag write accesses: 823037
PS tag read accesses: 888856186
PS tag write accesses: 240814

DRAM Statistics
 CHANNEL 0
 RQ ROW_BUFFER_HIT:     292064  ROW_BUFFER_MISS:     467332
 DBUS_CONGESTED:        114
 WQ ROW_BUFFER_HIT:     106296  ROW_BUFFER_MISS:     286536  FULL:       3152

 AVG_CONGESTED_CYCLE: 5
 All warmup complete: 2
Channel 0 Bank busy for read cycles: 0
Channel 0 Bank busy for write cycles: 0
Channel 0
Rank 0
0banks busy for read cycles: 490738260
0banks busy for write cycles: 2639
1banks busy for read cycles: 21457708
1banks busy for write cycles: 450327
2banks busy for read cycles: 7846212
2banks busy for write cycles: 284829
3banks busy for read cycles: 956614
3banks busy for write cycles: 206981
4banks busy for read cycles: 724454
4banks busy for write cycles: 179560
5banks busy for read cycles: 482762
5banks busy for write cycles: 160828
6banks busy for read cycles: 408654
6banks busy for write cycles: 175022
7banks busy for read cycles: 961712
7banks busy for write cycles: 595172
8banks busy for read cycles: 4042596
8banks busy for write cycles: 8349389

CPU 0 Branch Prediction Accuracy: 93.3169% MPKI: 11.1129 Average ROB Occupancy at Mispredict: 21.8781
Branch types
NOT_BRANCH: 166743420 83.3717%
BRANCH_DIRECT_JUMP: 1094608 0.547304%
BRANCH_INDIRECT: 6209 0.0031045%
BRANCH_CONDITIONAL: 20616346 10.3082%
BRANCH_DIRECT_CALL: 5769438 2.88472%
BRANCH_INDIRECT_CALL: 272 0.000136%
BRANCH_RETURN: 5769712 2.88486%
BRANCH_OTHER: 0 0%

DRAM PAGES: 1048576
Allocated PAGES: 2275
