
*** ChampSim Multicore Out-of-Order Simulator ***

Warmup Instructions: 50000000
Simulation Instructions: 200000000
Number of CPUs: 1
LLC sets: 2048
LLC ways: 16
L0D sets: 16
L0D ways: 2
ROB size: 352
LQ size: 128
SQ size: 72
Secure Berti: OFF
Berti: OFF
Berti Fill: OFF
On commit prefetching: ON
Hit-based filter: ON
Time-guarding: ON
Free-slotting: ON
Leap-frogging: ON
Train prefetcher on L0D bypass: OFF
No translation penalty for prefetchers: OFF
Prefetch to L0D only: OFF
Prefetch to L1D only: OFF
Clean evictions: ON
Commit loads: ON
Commit write: ON
Fill commit loads to L2C, LLC: ON
DRAM IO FREQUENCY: 6400
ROB SIZE: 352
Off-chip DRAM Size: 4096 MB Channels: 1 Width: 64-bit Data Rate: 6400 MT/s
CPU 0 runs /home/sumon/secure_berti/GhostMinion/../../traces/spec/654.roms_s-523B.champsimtrace.xz
.xz
BTB has LRU replacement policy
ITLB has LRU replacement policy
DTLB has LRU replacement policy
STLB has LRU replacement policy
L1I has LRU replacement policy
L0D has LRU replacement policy
L1D has LRU replacement policy
Bingo PHT WAYS: 16 and PHT_SIZE: 16384
L2C has LRU replacement policy
LLC has LRU replacement policy
Heartbeat CPU 0 instructions: 10000002 cycles: 3277243 heartbeat IPC: 3.05135 cumulative IPC: 3.05135 (Simulation time: 0 hr 0 min 27 sec) 
Heartbeat CPU 0 instructions: 20000003 cycles: 6461339 heartbeat IPC: 3.14061 cumulative IPC: 3.09533 (Simulation time: 0 hr 0 min 51 sec) 
Heartbeat CPU 0 instructions: 30000003 cycles: 10301923 heartbeat IPC: 2.60377 cumulative IPC: 2.91208 (Simulation time: 0 hr 1 min 27 sec) 
Heartbeat CPU 0 instructions: 40000001 cycles: 13730825 heartbeat IPC: 2.91638 cumulative IPC: 2.91315 (Simulation time: 0 hr 1 min 57 sec) 
Heartbeat CPU 0 instructions: 50000001 cycles: 17149808 heartbeat IPC: 2.92485 cumulative IPC: 2.91548 (Simulation time: 0 hr 2 min 32 sec) 

Warmup complete CPU 0 instructions: 50000001 cycles: 17149808 (Simulation time: 0 hr 2 min 32 sec) 

Heartbeat CPU 0 instructions: 60000003 cycles: 29354427 heartbeat IPC: 0.819362 cumulative IPC: 0.819362 (Simulation time: 0 hr 3 min 19 sec) 
Heartbeat CPU 0 instructions: 70000000 cycles: 41096017 heartbeat IPC: 0.851673 cumulative IPC: 0.835205 (Simulation time: 0 hr 4 min 8 sec) 
Heartbeat CPU 0 instructions: 80000000 cycles: 51151373 heartbeat IPC: 0.994495 cumulative IPC: 0.882312 (Simulation time: 0 hr 4 min 54 sec) 
Heartbeat CPU 0 instructions: 90000003 cycles: 63431955 heartbeat IPC: 0.814294 cumulative IPC: 0.864264 (Simulation time: 0 hr 5 min 33 sec) 
Heartbeat CPU 0 instructions: 100000001 cycles: 74901310 heartbeat IPC: 0.871888 cumulative IPC: 0.865778 (Simulation time: 0 hr 6 min 7 sec) 
Heartbeat CPU 0 instructions: 110000000 cycles: 89231338 heartbeat IPC: 0.697835 cumulative IPC: 0.832391 (Simulation time: 0 hr 7 min 3 sec) 
Heartbeat CPU 0 instructions: 120000001 cycles: 105182351 heartbeat IPC: 0.62692 cumulative IPC: 0.79516 (Simulation time: 0 hr 7 min 55 sec) 
Heartbeat CPU 0 instructions: 130000002 cycles: 117611983 heartbeat IPC: 0.804529 cumulative IPC: 0.79632 (Simulation time: 0 hr 8 min 47 sec) 
Heartbeat CPU 0 instructions: 140000001 cycles: 129470029 heartbeat IPC: 0.843309 cumulative IPC: 0.80128 (Simulation time: 0 hr 9 min 41 sec) 
Heartbeat CPU 0 instructions: 150000003 cycles: 140991251 heartbeat IPC: 0.867964 cumulative IPC: 0.807484 (Simulation time: 0 hr 10 min 36 sec) 
Heartbeat CPU 0 instructions: 160000002 cycles: 150464771 heartbeat IPC: 1.05557 cumulative IPC: 0.825114 (Simulation time: 0 hr 11 min 27 sec) 
Heartbeat CPU 0 instructions: 170000001 cycles: 162344459 heartbeat IPC: 0.841773 cumulative IPC: 0.826477 (Simulation time: 0 hr 12 min 9 sec) 
Heartbeat CPU 0 instructions: 180000001 cycles: 173719075 heartbeat IPC: 0.879151 cumulative IPC: 0.830303 (Simulation time: 0 hr 12 min 44 sec) 
Heartbeat CPU 0 instructions: 190000003 cycles: 188101049 heartbeat IPC: 0.695315 cumulative IPC: 0.818947 (Simulation time: 0 hr 13 min 40 sec) 
Heartbeat CPU 0 instructions: 200000000 cycles: 203993451 heartbeat IPC: 0.629231 cumulative IPC: 0.80281 (Simulation time: 0 hr 14 min 32 sec) 
Heartbeat CPU 0 instructions: 210000003 cycles: 216426263 heartbeat IPC: 0.804323 cumulative IPC: 0.802905 (Simulation time: 0 hr 15 min 21 sec) 
Heartbeat CPU 0 instructions: 220000000 cycles: 228488425 heartbeat IPC: 0.829039 cumulative IPC: 0.804396 (Simulation time: 0 hr 16 min 7 sec) 
Heartbeat CPU 0 instructions: 230000000 cycles: 239502191 heartbeat IPC: 0.907955 cumulative IPC: 0.809526 (Simulation time: 0 hr 16 min 48 sec) 
Heartbeat CPU 0 instructions: 240000000 cycles: 248924332 heartbeat IPC: 1.06133 cumulative IPC: 0.819762 (Simulation time: 0 hr 17 min 25 sec) 
Heartbeat CPU 0 instructions: 250000001 cycles: 261122444 heartbeat IPC: 0.819799 cumulative IPC: 0.819764 (Simulation time: 0 hr 17 min 57 sec) 
Finished CPU 0 instructions: 200000000 cycles: 243972636 cumulative IPC: 0.819764 (Simulation time: 0 hr 17 min 57 sec) 
 Instruction ID: 250000054

ChampSim completed all CPUs

Region of Interest Statistics

CPU 0 cumulative IPC: 0.819764 instructions: 200000000 cycles: 243972636
ITLB SPEC fills:          0  NON-SPEC fills:          0
ITLB Test counter :          0
ITLB Leapfrog:          0
ITLB MSHR merge:          0
ITLB TOTAL     ACCESS:   30477650  HIT:   30477650  MISS:          0  HIT %:        100  MISS %:          0   MPKI: 0
ITLB LOAD TRANSLATION NON_SPEC    ACCESS:   30477650  HIT:   30477650  MISS:          0  HIT %:        100  MISS %:          0   MPKI: 0
ITLB PREFETCH  REQUESTED:          0  ISSUED:          0  USEFUL:          0  USELESS:          0
ITLB USEFUL LOAD PREFETCHES:          0 PREFETCH ISSUED TO LOWER LEVEL:          0  ACCURACY: -nan
ITLB TIMELY PREFETCHES:          0 LATE PREFETCHES: 0 DROPPED PREFETCHES: 0
ITLB COMMIT LATE PREFETCHES: 0 MISSED OPPORTUNITY: 0 LATE IN PQ: 0 UNCOVERED: 0
ITLB COMMIT LATE MSHR PREFETCHES: 0
ITLB MPKI TOTAL: 0 MSHR LATE: 0 PQ LATE: 0 COMMIT LATE: 0 MISSED OPPORTUNITY: 0 UNCOVERED: 0
ITLB PREFETCHES SAME FILL-ORIGIN LEVEL: 0 DIFFERENT FILL-ORIGIN LEVEL: 0
ITLB AVERAGE MISS LATENCY: -nan cycles
ITLB AVERAGE MISS LATENCY LOAD: -nan cycles
ITLB AVERAGE MISS LATENCY PREFETCH: -nan cycles
ITLB AVERAGE MSHR OCCUPANCY: 0
ITLB MSHR FULL: 0
ITLB RQ	ACCESS:   36183423	FORWARD:          0	MERGED:    5705773	TO_CACHE:   30477650

DTLB SPEC fills:          0  NON-SPEC fills:          0
DTLB Test counter :          0
DTLB Leapfrog:          0
DTLB MSHR merge:          0
DTLB TOTAL     ACCESS:   58325205  HIT:   58224586  MISS:     100619  HIT %:    99.8275  MISS %:   0.172514   MPKI: 0.503095
DTLB LOAD TRANSLATION NON_SPEC    ACCESS:   58325205  HIT:   58224586  MISS:     100619  HIT %:    99.8275  MISS %:   0.172514   MPKI: 0.503095
DTLB PREFETCH  REQUESTED:          0  ISSUED:          0  USEFUL:          0  USELESS:          0
DTLB USEFUL LOAD PREFETCHES:          0 PREFETCH ISSUED TO LOWER LEVEL:          0  ACCURACY: -nan
DTLB TIMELY PREFETCHES:          0 LATE PREFETCHES: 0 DROPPED PREFETCHES: 0
DTLB COMMIT LATE PREFETCHES: 0 MISSED OPPORTUNITY: 0 LATE IN PQ: 0 UNCOVERED: 0
DTLB COMMIT LATE MSHR PREFETCHES: 0
DTLB MPKI TOTAL: 0 MSHR LATE: 0 PQ LATE: 0 COMMIT LATE: 0 MISSED OPPORTUNITY: 0 UNCOVERED: 0
DTLB PREFETCHES SAME FILL-ORIGIN LEVEL: 0 DIFFERENT FILL-ORIGIN LEVEL: 0
DTLB AVERAGE MISS LATENCY: 188.578 cycles
DTLB AVERAGE MISS LATENCY LOAD: -nan cycles
DTLB AVERAGE MISS LATENCY PREFETCH: -nan cycles
DTLB AVERAGE MSHR OCCUPANCY: 0.0323001
DTLB MSHR FULL: 0
DTLB RQ	ACCESS:   66762944	FORWARD:          0	MERGED:    8301435	TO_CACHE:   58461509

STLB SPEC fills:          0  NON-SPEC fills:          0
STLB Test counter :          0
STLB Leapfrog:          0
STLB MSHR merge:          0
STLB TOTAL     ACCESS:     100619  HIT:        786  MISS:      99833  HIT %:   0.781165  MISS %:    99.2188   MPKI: 0.499165
STLB LOAD TRANSLATION NON_SPEC    ACCESS:     100619  HIT:        786  MISS:      99833  HIT %:   0.781165  MISS %:    99.2188   MPKI: 0.499165
STLB PREFETCH  REQUESTED:          0  ISSUED:          0  USEFUL:          0  USELESS:          0
STLB USEFUL LOAD PREFETCHES:          0 PREFETCH ISSUED TO LOWER LEVEL:          0  ACCURACY: -nan
STLB TIMELY PREFETCHES:          0 LATE PREFETCHES: 0 DROPPED PREFETCHES: 0
STLB COMMIT LATE PREFETCHES: 0 MISSED OPPORTUNITY: 0 LATE IN PQ: 0 UNCOVERED: 0
STLB COMMIT LATE MSHR PREFETCHES: 0
STLB MPKI TOTAL: 0 MSHR LATE: 0 PQ LATE: 0 COMMIT LATE: 0 MISSED OPPORTUNITY: 0 UNCOVERED: 0
STLB PREFETCHES SAME FILL-ORIGIN LEVEL: 0 DIFFERENT FILL-ORIGIN LEVEL: 0
STLB AVERAGE MISS LATENCY: 180.909 cycles
STLB AVERAGE MISS LATENCY LOAD: -nan cycles
STLB AVERAGE MISS LATENCY PREFETCH: -nan cycles
STLB AVERAGE MSHR OCCUPANCY: 0.18901
STLB MSHR FULL: 0
STLB RQ	ACCESS:     100619	FORWARD:          0	MERGED:          0	TO_CACHE:     100619

STLB Hit, L1D data hit: 0
STLB Hit, L2C data hit: 0
STLB Hit, LLC data hit: 0
STLB Hit, LLC data miss: 0
STLB STLB hints to L2: 0
L0D SPEC fills:   28930162  NON-SPEC fills:          0
L0D TimeGuard Request with older TS:     668893 Restricted eviction:     175662 read:     993740
L0D Test counter :          0
L0D Leapfrog:          0
L0D MSHR merge:    4910154
L0D TOTAL     ACCESS:   50449033  HIT:   16258635  MISS:   34190398  HIT %:    32.2278  MISS %:    67.7722   MPKI: 170.952
L0D LOAD      TOTAL       ACCESS:   50449033  HIT:   16258635  MISS:   34190398  HIT %:    32.2278  MISS %:    67.7722   MPKI: 170.952
L0D LOAD      NON_SPEC    ACCESS:    5480697  HIT:     396115  MISS:    5084582  HIT %:    7.22746  MISS %:    92.7725   MPKI: 25.4229
L0D LOAD      SPEC        ACCESS:   44968336  HIT:   15862520  MISS:   29105816  HIT %:    35.2749  MISS %:    64.7251   MPKI: 145.529
L0D PREFETCH  REQUESTED:          0  ISSUED:          0  USEFUL:          0  USELESS:          0
L0D USEFUL LOAD PREFETCHES:          0 PREFETCH ISSUED TO LOWER LEVEL:          0  ACCURACY: -nan
L0D TIMELY PREFETCHES:          0 LATE PREFETCHES: 0 DROPPED PREFETCHES: 0
L0D COMMIT LATE PREFETCHES: 0 MISSED OPPORTUNITY: 0 LATE IN PQ: 0 UNCOVERED: 0
L0D COMMIT LATE MSHR PREFETCHES: 0
L0D MPKI TOTAL: 195.503 MSHR LATE: 0 PQ LATE: 0 COMMIT LATE: 0 MISSED OPPORTUNITY: 0 UNCOVERED: 0
L0D PREFETCHES SAME FILL-ORIGIN LEVEL: 0 DIFFERENT FILL-ORIGIN LEVEL: 0
L0D AVERAGE MISS LATENCY: 9.16962 cycles
L0D AVERAGE MISS LATENCY LOAD: 9.16962 cycles
L0D AVERAGE MISS LATENCY PREFETCH: -nan cycles
L0D AVERAGE MSHR OCCUPANCY: 1.46399
L0D MSHR FULL: 0.000160264
L0D RQ	ACCESS:   74181633	FORWARD:          0	MERGED:   18822455	TO_CACHE:   55359178
L0D WQ	ACCESS:   11403766	FORWARD:          0	MERGED:          0	TO_CACHE:   11403766

L1D SPEC fills:          0  NON-SPEC fills:     332851
L1D Test counter :          0
L1D Leapfrog:          0
L1D MSHR merge:       8453
L1D TOTAL     ACCESS:   44387460  HIT:   36662624  MISS:    7724836  HIT %:    82.5968  MISS %:    17.4032   MPKI: 38.6242
L1D LOAD      TOTAL       ACCESS:   34181945  HIT:   30589974  MISS:    3591971  HIT %:    89.4916  MISS %:    10.5084   MPKI: 17.9599
L1D LOAD      NON_SPEC    ACCESS:    5084267  HIT:    4751416  MISS:     332851  HIT %:    93.4533  MISS %:    6.54669   MPKI: 1.66426
L1D LOAD      SPEC        ACCESS:   29097678  HIT:   25838558  MISS:    3259120  HIT %:    88.7994  MISS %:    11.2006   MPKI: 16.2956
L1D RFO       NON_SPEC    ACCESS:    3840854  HIT:    2632134  MISS:    1208720  HIT %:    68.5299  MISS %:    31.4701   MPKI: 6.0436
L1D COMMIT LOAD NON_SPEC    ACCESS:    2418311  HIT:    2394277  MISS:      24034  HIT %:    99.0062  MISS %:   0.993834   MPKI: 0.12017
L1D COMMIT WRITE NON_SPEC    ACCESS:    3946350  HIT:    1046239  MISS:    2900111  HIT %:    26.5116  MISS %:    73.4884   MPKI: 14.5006
L1D PREFETCH  REQUESTED:          0  ISSUED:          0  USEFUL:          0  USELESS:          0
L1D USEFUL LOAD PREFETCHES:          0 PREFETCH ISSUED TO LOWER LEVEL:          0  ACCURACY: -nan
L1D TIMELY PREFETCHES:          0 LATE PREFETCHES: 0 DROPPED PREFETCHES: 0
L1D COMMIT LATE PREFETCHES: 0 MISSED OPPORTUNITY: 0 LATE IN PQ: 0 UNCOVERED: 0
L1D COMMIT LATE MSHR PREFETCHES: 0
L1D MPKI TOTAL: 18.0021 MSHR LATE: 0 PQ LATE: 0 COMMIT LATE: 0 MISSED OPPORTUNITY: 0 UNCOVERED: 0
L1D PREFETCHES SAME FILL-ORIGIN LEVEL: 0 DIFFERENT FILL-ORIGIN LEVEL: 0
L1D AVERAGE MISS LATENCY: 72.9948 cycles
L1D AVERAGE MISS LATENCY LOAD: 38.1185 cycles
L1D AVERAGE MISS LATENCY PREFETCH: -nan cycles
L1D AVERAGE MSHR OCCUPANCY: 2.42818
L1D MSHR FULL: 0.00987081
L1D RQ	ACCESS:   38545007	FORWARD:          0	MERGED:    1806675	TO_CACHE:   36633157
L1D WQ	ACCESS:   15393910	FORWARD:     105175	MERGED:     165608	TO_CACHE:   15228302

L1D UNIQUE REGIONS ACCESSED: 0
L1D REGIONS CONFLICTS: 0
L1D Cross Page Prefetch Requests: 0
L1D Same Page Prefetch Requests: 0
L1D ROI Sum of L1D PQ occupancy: 0
L1D PREFETCHES PUSHED FROM L2C: 0
L1I SPEC fills:          0  NON-SPEC fills:          0
L1I Test counter :          0
L1I Leapfrog:          0
L1I MSHR merge:         15
L1I TOTAL     ACCESS:   36183409  HIT:   36183377  MISS:         32  HIT %:    99.9999  MISS %: 8.84383e-05   MPKI: 0.00016
L1I LOAD      TOTAL       ACCESS:   36183409  HIT:   36183377  MISS:         32  HIT %:    99.9999  MISS %: 8.84383e-05   MPKI: 0.00016
L1I LOAD      NON_SPEC    ACCESS:   36183409  HIT:   36183377  MISS:         32  HIT %:    99.9999  MISS %: 8.84383e-05   MPKI: 0.00016
L1I PREFETCH  REQUESTED:          0  ISSUED:          0  USEFUL:          0  USELESS:          0
L1I USEFUL LOAD PREFETCHES:          0 PREFETCH ISSUED TO LOWER LEVEL:          0  ACCURACY: -nan
L1I TIMELY PREFETCHES:          0 LATE PREFETCHES: 0 DROPPED PREFETCHES: 0
L1I COMMIT LATE PREFETCHES: 0 MISSED OPPORTUNITY: 0 LATE IN PQ: 0 UNCOVERED: 0
L1I COMMIT LATE MSHR PREFETCHES: 0
L1I MPKI TOTAL: 0.000235 MSHR LATE: 0 PQ LATE: 0 COMMIT LATE: 0 MISSED OPPORTUNITY: 0 UNCOVERED: 0
L1I PREFETCHES SAME FILL-ORIGIN LEVEL: 0 DIFFERENT FILL-ORIGIN LEVEL: 0
L1I AVERAGE MISS LATENCY: 309 cycles
L1I AVERAGE MISS LATENCY LOAD: 309 cycles
L1I AVERAGE MISS LATENCY PREFETCH: -nan cycles
L1I AVERAGE MSHR OCCUPANCY: 1.13312e-06
L1I MSHR FULL: 0
L1I RQ	ACCESS:   53526121	FORWARD:          0	MERGED:   17342698	TO_CACHE:   36183423

BTB SPEC fills:          0  NON-SPEC fills:          0
BTB Test counter :          0
BTB Leapfrog:          0
BTB MSHR merge:          0
BTB TOTAL     ACCESS:   12959621  HIT:   12959575  MISS:         46  HIT %:    99.9996  MISS %: 0.000354949   MPKI: 0.00023
BTB BRANCH_DIRECT_JUMP	ACCESS:    1451293  HIT:    1451288  MISS:          5
BTB BRANCH_INDIRECT	ACCESS:          0  HIT:          0  MISS:          0
BTB BRANCH_CONDITIONAL	ACCESS:   11508328  HIT:   11508287  MISS:         41
BTB BRANCH_DIRECT_CALL	ACCESS:          0  HIT:          0  MISS:          0
BTB BRANCH_INDIRECT_CALL	ACCESS:          0  HIT:          0  MISS:          0
BTB BRANCH_RETURN	ACCESS:          0  HIT:          0  MISS:          0
BTB BRANCH_OTHER ACCESS:          0  HIT:          0  MISS:          0

L2C SPEC fills:          0  NON-SPEC fills:      33598
L2C Test counter :          0
L2C Leapfrog:          0
L2C MSHR merge:     124297
L2C TOTAL     ACCESS:   11119125  HIT:    5843549  MISS:    5275576  HIT %:     52.554  MISS %:     47.446   MPKI: 26.3779
L2C LOAD      TOTAL       ACCESS:    3591968  HIT:    3183361  MISS:     408607  HIT %:    88.6244  MISS %:    11.3756   MPKI: 2.04304
L2C LOAD      NON_SPEC    ACCESS:     332883  HIT:     299253  MISS:      33630  HIT %:    89.8974  MISS %:    10.1026   MPKI: 0.16815
L2C LOAD      SPEC        ACCESS:    3259085  HIT:    2884108  MISS:     374977  HIT %:    88.4944  MISS %:    11.5056   MPKI: 1.87488
L2C RFO       NON_SPEC    ACCESS:    1208720  HIT:        554  MISS:    1208166  HIT %:  0.0458336  MISS %:    99.9542   MPKI: 6.04083
L2C PREFETCH  NON_SPEC    ACCESS:    3310810  HIT:       4991  MISS:    3305819  HIT %:   0.150749  MISS %:    99.8493   MPKI: 16.5291
L2C WRITEBACK NON_SPEC    ACCESS:    1256900  HIT:    1256892  MISS:          8  HIT %:    99.9994  MISS %: 0.000636487   MPKI: 4e-05
L2C CLEAN_EVICTION NON_SPEC    ACCESS:    1227593  HIT:     896321  MISS:     331272  HIT %:    73.0145  MISS %:    26.9855   MPKI: 1.65636
L2C COMMIT LOAD NON_SPEC    ACCESS:      24034  HIT:      23197  MISS:        837  HIT %:    96.5174  MISS %:    3.48257   MPKI: 0.004185
L2C LOAD TRANSLATION NON_SPEC    ACCESS:     499100  HIT:     478233  MISS:      20867  HIT %:    95.8191  MISS %:    4.18093   MPKI: 0.104335
L2C PREFETCH  REQUESTED:    3453844  ISSUED:    3453844  USEFUL:    2801562  USELESS:     504313
L2C USEFUL LOAD PREFETCHES:    2801562 PREFETCH ISSUED TO LOWER LEVEL:    3430266  ACCURACY: 81.6719
L2C TIMELY PREFETCHES:    2801562 LATE PREFETCHES: 124447 DROPPED PREFETCHES: 0
L2C COMMIT LATE PREFETCHES: 0 MISSED OPPORTUNITY: 0 LATE IN PQ: 0 UNCOVERED: 0
L2C COMMIT LATE MSHR PREFETCHES: 0
L2C MPKI TOTAL: 2.04304 MSHR LATE: 0.622235 PQ LATE: 0 COMMIT LATE: 0 MISSED OPPORTUNITY: 0 UNCOVERED: 0
L2C PREFETCHES SAME FILL-ORIGIN LEVEL: 3430266 DIFFERENT FILL-ORIGIN LEVEL: 0
L2C AVERAGE MISS LATENCY: 324.523 cycles
L2C AVERAGE MISS LATENCY LOAD: 222.014 cycles
L2C AVERAGE MISS LATENCY PREFETCH: 366.003 cycles
L2C AVERAGE MSHR OCCUPANCY: 17.4076
L2C MSHR FULL: 0.413486
L2C RQ	ACCESS:    5323857	FORWARD:          0	MERGED:          0	TO_CACHE:    5323822
L2C WQ	ACCESS:    2484493	FORWARD:         35	MERGED:          0	TO_CACHE:    2484493
L2C PQ	ACCESS:    3453844	FORWARD:          0	MERGED:        132	TO_CACHE:    3453712

L2C Instructions Evicting Data 31
L2C Translations Evicting Data 20782
L2C Data Evicting Data 4529134
L2C Instructions Evicting Instructions 0
L2C Translations Evicting Instructions 0
L2C Data Evicting Instructions 31
L2C Instructions Evicting Translations 1
L2C Translations Evicting Translations 85
L2C Data Evicting Translations 19255
L2C Dense regions hint from L2: 0
PSCL5 SPEC fills:          0  NON-SPEC fills:          0
PSCL5 Test counter :          0
PSCL5 Leapfrog:          0
PSCL5 MSHR merge:          0
PSCL5 TOTAL     ACCESS:          0  HIT:          0  MISS:          0  HIT %:       -nan  MISS %:       -nan   MPKI: 0
PSCL5 PREFETCH  REQUESTED:          0  ISSUED:          0  USEFUL:          0  USELESS:          0
PSCL5 USEFUL LOAD PREFETCHES:          0 PREFETCH ISSUED TO LOWER LEVEL:          0  ACCURACY: -nan
PSCL5 TIMELY PREFETCHES:          0 LATE PREFETCHES: 0 DROPPED PREFETCHES: 0
PSCL5 COMMIT LATE PREFETCHES: 0 MISSED OPPORTUNITY: 0 LATE IN PQ: 0 UNCOVERED: 0
PSCL5 COMMIT LATE MSHR PREFETCHES: 0
PSCL5 MPKI TOTAL: 0 MSHR LATE: 0 PQ LATE: 0 COMMIT LATE: 0 MISSED OPPORTUNITY: 0 UNCOVERED: 0
PSCL5 PREFETCHES SAME FILL-ORIGIN LEVEL: 0 DIFFERENT FILL-ORIGIN LEVEL: 0

PSCL4 SPEC fills:          0  NON-SPEC fills:          0
PSCL4 Test counter :          0
PSCL4 Leapfrog:          0
PSCL4 MSHR merge:          0
PSCL4 TOTAL     ACCESS:          0  HIT:          0  MISS:          0  HIT %:       -nan  MISS %:       -nan   MPKI: 0
PSCL4 PREFETCH  REQUESTED:          0  ISSUED:          0  USEFUL:          0  USELESS:          0
PSCL4 USEFUL LOAD PREFETCHES:          0 PREFETCH ISSUED TO LOWER LEVEL:          0  ACCURACY: -nan
PSCL4 TIMELY PREFETCHES:          0 LATE PREFETCHES: 0 DROPPED PREFETCHES: 0
PSCL4 COMMIT LATE PREFETCHES: 0 MISSED OPPORTUNITY: 0 LATE IN PQ: 0 UNCOVERED: 0
PSCL4 COMMIT LATE MSHR PREFETCHES: 0
PSCL4 MPKI TOTAL: 0 MSHR LATE: 0 PQ LATE: 0 COMMIT LATE: 0 MISSED OPPORTUNITY: 0 UNCOVERED: 0
PSCL4 PREFETCHES SAME FILL-ORIGIN LEVEL: 0 DIFFERENT FILL-ORIGIN LEVEL: 0

PSCL3 SPEC fills:          0  NON-SPEC fills:          0
PSCL3 Test counter :          0
PSCL3 Leapfrog:          0
PSCL3 MSHR merge:          0
PSCL3 TOTAL     ACCESS:          0  HIT:          0  MISS:          0  HIT %:       -nan  MISS %:       -nan   MPKI: 0
PSCL3 PREFETCH  REQUESTED:          0  ISSUED:          0  USEFUL:          0  USELESS:          0
PSCL3 USEFUL LOAD PREFETCHES:          0 PREFETCH ISSUED TO LOWER LEVEL:          0  ACCURACY: -nan
PSCL3 TIMELY PREFETCHES:          0 LATE PREFETCHES: 0 DROPPED PREFETCHES: 0
PSCL3 COMMIT LATE PREFETCHES: 0 MISSED OPPORTUNITY: 0 LATE IN PQ: 0 UNCOVERED: 0
PSCL3 COMMIT LATE MSHR PREFETCHES: 0
PSCL3 MPKI TOTAL: 0 MSHR LATE: 0 PQ LATE: 0 COMMIT LATE: 0 MISSED OPPORTUNITY: 0 UNCOVERED: 0
PSCL3 PREFETCHES SAME FILL-ORIGIN LEVEL: 0 DIFFERENT FILL-ORIGIN LEVEL: 0

PSCL2 SPEC fills:          0  NON-SPEC fills:          0
PSCL2 Test counter :          0
PSCL2 Leapfrog:          0
PSCL2 MSHR merge:          0
PSCL2 TOTAL     ACCESS:          0  HIT:          0  MISS:          0  HIT %:       -nan  MISS %:       -nan   MPKI: 0
PSCL2 PREFETCH  REQUESTED:          0  ISSUED:          0  USEFUL:          0  USELESS:          0
PSCL2 USEFUL LOAD PREFETCHES:          0 PREFETCH ISSUED TO LOWER LEVEL:          0  ACCURACY: -nan
PSCL2 TIMELY PREFETCHES:          0 LATE PREFETCHES: 0 DROPPED PREFETCHES: 0
PSCL2 COMMIT LATE PREFETCHES: 0 MISSED OPPORTUNITY: 0 LATE IN PQ: 0 UNCOVERED: 0
PSCL2 COMMIT LATE MSHR PREFETCHES: 0
PSCL2 MPKI TOTAL: 0 MSHR LATE: 0 PQ LATE: 0 COMMIT LATE: 0 MISSED OPPORTUNITY: 0 UNCOVERED: 0
PSCL2 PREFETCHES SAME FILL-ORIGIN LEVEL: 0 DIFFERENT FILL-ORIGIN LEVEL: 0

LLC SPEC fills:          0  NON-SPEC fills:      27630
LLC Test counter :          0
LLC Leapfrog:          0
LLC MSHR merge:          0
LLC TOTAL     ACCESS:    7427891  HIT:    2281429  MISS:    5146462  HIT %:    30.7144  MISS %:    69.2856   MPKI: 25.7323
LLC LOAD      TOTAL       ACCESS:     284310  HIT:       8257  MISS:     276053  HIT %:    2.90422  MISS %:    97.0958   MPKI: 1.38027
LLC LOAD      NON_SPEC    ACCESS:      27746  HIT:         84  MISS:      27662  HIT %:   0.302746  MISS %:    99.6973   MPKI: 0.13831
LLC LOAD      SPEC        ACCESS:     256564  HIT:       8173  MISS:     248391  HIT %:    3.18556  MISS %:    96.8144   MPKI: 1.24195
LLC RFO       NON_SPEC    ACCESS:    1208166  HIT:          1  MISS:    1208165  HIT %: 8.27701e-05  MISS %:    99.9999   MPKI: 6.04082
LLC PREFETCH  NON_SPEC    ACCESS:    3430219  HIT:       1885  MISS:    3428334  HIT %:  0.0549528  MISS %:     99.945   MPKI: 17.1417
LLC WRITEBACK NON_SPEC    ACCESS:    1256105  HIT:    1256095  MISS:         10  HIT %:    99.9992  MISS %: 0.000796112   MPKI: 5e-05
LLC CLEAN_EVICTION NON_SPEC    ACCESS:    1227537  HIT:    1015113  MISS:     212424  HIT %:    82.6951  MISS %:    17.3049   MPKI: 1.06212
LLC COMMIT LOAD NON_SPEC    ACCESS:        687  HIT:         78  MISS:        609  HIT %:    11.3537  MISS %:    88.6463   MPKI: 0.003045
LLC LOAD TRANSLATION NON_SPEC    ACCESS:      20867  HIT:          0  MISS:      20867  HIT %:          0  MISS %:        100   MPKI: 0.104335
LLC PREFETCH  REQUESTED:          0  ISSUED:          0  USEFUL:       7432  USELESS:    3421992
LLC USEFUL LOAD PREFETCHES:       7432 PREFETCH ISSUED TO LOWER LEVEL:    3428334  ACCURACY: 0.216782
LLC TIMELY PREFETCHES:       7432 LATE PREFETCHES: 0 DROPPED PREFETCHES: 0
LLC COMMIT LATE PREFETCHES: 0 MISSED OPPORTUNITY: 0 LATE IN PQ: 0 UNCOVERED: 0
LLC COMMIT LATE MSHR PREFETCHES: 0
LLC MPKI TOTAL: 1.38027 MSHR LATE: 0 PQ LATE: 0 COMMIT LATE: 0 MISSED OPPORTUNITY: 0 UNCOVERED: 0
LLC PREFETCHES SAME FILL-ORIGIN LEVEL: 0 DIFFERENT FILL-ORIGIN LEVEL: 0
LLC AVERAGE MISS LATENCY: 305.678 cycles
LLC AVERAGE MISS LATENCY LOAD: 197.268 cycles
LLC AVERAGE MISS LATENCY PREFETCH: 333.922 cycles
LLC AVERAGE MSHR OCCUPANCY: 6.69372
LLC MSHR FULL: 0
LLC RQ	ACCESS:    1514030	FORWARD:          0	MERGED:          0	TO_CACHE:    1514030
LLC WQ	ACCESS:    2483642	FORWARD:         47	MERGED:          0	TO_CACHE:    2483642
LLC PQ	ACCESS:    3430266	FORWARD:          0	MERGED:          0	TO_CACHE:    3430219

LLC Dense regions hint to LLC: 0

RAW hits: 23641
Loads Generated: 74205278
Loads sent to L1D: 74181633
Stores Generated: 11403765
Stores sent to L1D: 11403766
Major fault: 0 Minor fault: 35137
Allocated PAGES: 35137
Total Load insts: 91266351
Total Non-spec loads: 6819953
Percentage of speculative loads: 92.5274

LeapFrogging counter: 992180
Commit hits: 28494462 miss: 39946236
Commit hit %: 41.6338 miss %: 58.3662
Commits not translated: 0
Loads retired: 3591971
Stores retired: 11403766
Cache fills: 3591971
L1D response latency: 38.1185 cycles
Load retirement latency: 85.5535 cycles
OOO test counter: 0
Discarded buffer inserts: 28494462 hits: 151941 hit %: 0.53323
Filter prediction accuracy: 99.6379
[Bingo] PHT Access: 132937
[Bingo] PHT Hit PC+Addr: 3143
[Bingo] PHT Hit PC+Offs: 124360
[Bingo] PHT Miss: 5434
[Bingo] Prefetch PC+Addr: 0
[Bingo] Prefetch PC+Offs: 0
[Bingo] Useful PC+Addr: 0
[Bingo] Useful PC+Offs: 0
[Bingo] Useless PC+Addr: 0
[Bingo] Useless PC+Offs: 0
[Bingo] L1 Prefetch per Region: 0
[Bingo] L2 Prefetch per Region: 28.1453
[Bingo] L3 Prefetch per Region: 0
[Bingo] No Prefetch per Region: 3.85474
[Bingo] Number of Voters Mean: 14.6718
[Bingo] Number of Voters SD: 8.47503
PHT read accesses: 2066618
PHT write accesses: 130552
AT read accesses: 72687054
AT write accesses: 72786608
FT read accesses: 3226700
FT write accesses: 132937
PS read accesses: 867628
PS write accesses: 127503
PHT tag read accesses: 6209715
PHT tag write accesses: 133695
AT tag read accesses: 1271724654
AT tag write accesses: 72817606
FT tag read accesses: 109759846
FT tag write accesses: 1812756
PS tag read accesses: 1192172333
PS tag write accesses: 994829

DRAM Statistics
 CHANNEL 0
 RQ ROW_BUFFER_HIT:    2296090  ROW_BUFFER_MISS:    2637933
 DBUS_CONGESTED:        778
 WQ ROW_BUFFER_HIT:     618855  ROW_BUFFER_MISS:    1869838  FULL:      36460

 AVG_CONGESTED_CYCLE: 5
 All warmup complete: 2
Channel 0 Bank busy for read cycles: 0
Channel 0 Bank busy for write cycles: 0
Channel 0
Rank 0
0banks busy for read cycles: 25927674
0banks busy for write cycles: 39377
1banks busy for read cycles: 52089428
1banks busy for write cycles: 5528062
2banks busy for read cycles: 28712592
2banks busy for write cycles: 2491609
3banks busy for read cycles: 9832883
3banks busy for write cycles: 1993832
4banks busy for read cycles: 5897063
4banks busy for write cycles: 1913186
5banks busy for read cycles: 3396207
5banks busy for write cycles: 2086593
6banks busy for read cycles: 3889760
6banks busy for write cycles: 2730265
7banks busy for read cycles: 8658178
7banks busy for write cycles: 7030247
8banks busy for read cycles: 32945433
8banks busy for write cycles: 48810248

CPU 0 Branch Prediction Accuracy: 99.8522% MPKI: 0.096965 Average ROB Occupancy at Mispredict: 114.215
Branch types
NOT_BRANCH: 186881140 93.4406%
BRANCH_DIRECT_JUMP: 1451293 0.725646%
BRANCH_INDIRECT: 0 0%
BRANCH_CONDITIONAL: 11667242 5.83362%
BRANCH_DIRECT_CALL: 0 0%
BRANCH_INDIRECT_CALL: 0 0%
BRANCH_RETURN: 0 0%
BRANCH_OTHER: 0 0%

DRAM PAGES: 1048576
Allocated PAGES: 35137
