
*** ChampSim Multicore Out-of-Order Simulator ***

Warmup Instructions: 50000000
Simulation Instructions: 200000000
Number of CPUs: 1
LLC sets: 2048
LLC ways: 16
L0D sets: 16
L0D ways: 2
ROB size: 352
LQ size: 128
SQ size: 72
Secure Berti: OFF
Berti: OFF
Berti Fill: OFF
On commit prefetching: OFF
Hit-based filter: OFF
Time-guarding: ON
Free-slotting: ON
Leap-frogging: ON
Train prefetcher on L0D bypass: OFF
No translation penalty for prefetchers: OFF
Prefetch to L0D only: OFF
Prefetch to L1D only: OFF
Clean evictions: ON
Commit loads: ON
Commit write: ON
Fill commit loads to L2C, LLC: ON
DRAM IO FREQUENCY: 6400
ROB SIZE: 352
Off-chip DRAM Size: 4096 MB Channels: 1 Width: 64-bit Data Rate: 6400 MT/s
CPU 0 runs /home/sumon/secure_berti/GhostMinion/../../traces/spec/602.gcc_s-1850B.champsimtrace.xz
.xz
BTB has LRU replacement policy
ITLB has LRU replacement policy
DTLB has LRU replacement policy
STLB has LRU replacement policy
L1I has LRU replacement policy
L0D has LRU replacement policy
IP Table Entries: 1024
CSPT Entries: 128
RR_ENTRIES: 32
RST_ENTRIES: 8
L1D has LRU replacement policy
L2C has LRU replacement policy
LLC has LRU replacement policy
Heartbeat CPU 0 instructions: 10000002 cycles: 5249233 heartbeat IPC: 1.90504 cumulative IPC: 1.90504 (Simulation time: 0 hr 0 min 42 sec) 
Heartbeat CPU 0 instructions: 20000000 cycles: 10499484 heartbeat IPC: 1.90467 cumulative IPC: 1.90486 (Simulation time: 0 hr 1 min 25 sec) 
Heartbeat CPU 0 instructions: 30000000 cycles: 15746566 heartbeat IPC: 1.90582 cumulative IPC: 1.90518 (Simulation time: 0 hr 2 min 9 sec) 
Heartbeat CPU 0 instructions: 40000000 cycles: 20993254 heartbeat IPC: 1.90596 cumulative IPC: 1.90537 (Simulation time: 0 hr 2 min 52 sec) 
Heartbeat CPU 0 instructions: 50000000 cycles: 26242642 heartbeat IPC: 1.90498 cumulative IPC: 1.9053 (Simulation time: 0 hr 3 min 39 sec) 

Warmup complete CPU 0 instructions: 50000004 cycles: 26242643 (Simulation time: 0 hr 3 min 39 sec) 

Heartbeat CPU 0 instructions: 60000003 cycles: 47488417 heartbeat IPC: 0.470682 cumulative IPC: 0.470682 (Simulation time: 0 hr 4 min 48 sec) 
Heartbeat CPU 0 instructions: 70000002 cycles: 68721912 heartbeat IPC: 0.470954 cumulative IPC: 0.470818 (Simulation time: 0 hr 5 min 59 sec) 
Heartbeat CPU 0 instructions: 80000003 cycles: 89964003 heartbeat IPC: 0.470764 cumulative IPC: 0.4708 (Simulation time: 0 hr 7 min 11 sec) 
Heartbeat CPU 0 instructions: 90000001 cycles: 111202960 heartbeat IPC: 0.470833 cumulative IPC: 0.470808 (Simulation time: 0 hr 8 min 23 sec) 
Heartbeat CPU 0 instructions: 100000000 cycles: 132429342 heartbeat IPC: 0.471112 cumulative IPC: 0.470869 (Simulation time: 0 hr 9 min 35 sec) 
Heartbeat CPU 0 instructions: 110000000 cycles: 153733264 heartbeat IPC: 0.469397 cumulative IPC: 0.470623 (Simulation time: 0 hr 10 min 46 sec) 
Heartbeat CPU 0 instructions: 120000003 cycles: 175031680 heartbeat IPC: 0.469519 cumulative IPC: 0.470465 (Simulation time: 0 hr 12 min 8 sec) 
Heartbeat CPU 0 instructions: 130000003 cycles: 196321836 heartbeat IPC: 0.469701 cumulative IPC: 0.470369 (Simulation time: 0 hr 13 min 31 sec) 
Heartbeat CPU 0 instructions: 140000000 cycles: 217555598 heartbeat IPC: 0.470948 cumulative IPC: 0.470433 (Simulation time: 0 hr 14 min 55 sec) 
Heartbeat CPU 0 instructions: 150000000 cycles: 238766485 heartbeat IPC: 0.471456 cumulative IPC: 0.470535 (Simulation time: 0 hr 16 min 18 sec) 
Heartbeat CPU 0 instructions: 160000000 cycles: 260078832 heartbeat IPC: 0.469212 cumulative IPC: 0.470415 (Simulation time: 0 hr 17 min 40 sec) 
Heartbeat CPU 0 instructions: 170000003 cycles: 281351333 heartbeat IPC: 0.470091 cumulative IPC: 0.470388 (Simulation time: 0 hr 19 min 0 sec) 
Heartbeat CPU 0 instructions: 180000000 cycles: 302610491 heartbeat IPC: 0.470385 cumulative IPC: 0.470388 (Simulation time: 0 hr 20 min 18 sec) 
Heartbeat CPU 0 instructions: 190000003 cycles: 323919545 heartbeat IPC: 0.469284 cumulative IPC: 0.470309 (Simulation time: 0 hr 21 min 38 sec) 
Heartbeat CPU 0 instructions: 200000000 cycles: 345131774 heartbeat IPC: 0.471426 cumulative IPC: 0.470383 (Simulation time: 0 hr 22 min 55 sec) 
Heartbeat CPU 0 instructions: 210000002 cycles: 366415417 heartbeat IPC: 0.469844 cumulative IPC: 0.470349 (Simulation time: 0 hr 24 min 12 sec) 
Heartbeat CPU 0 instructions: 220000000 cycles: 387719718 heartbeat IPC: 0.469389 cumulative IPC: 0.470293 (Simulation time: 0 hr 25 min 24 sec) 
Heartbeat CPU 0 instructions: 230000003 cycles: 408998777 heartbeat IPC: 0.469946 cumulative IPC: 0.470273 (Simulation time: 0 hr 26 min 33 sec) 
Heartbeat CPU 0 instructions: 240000000 cycles: 430266012 heartbeat IPC: 0.470207 cumulative IPC: 0.47027 (Simulation time: 0 hr 27 min 45 sec) 
Heartbeat CPU 0 instructions: 250000000 cycles: 451579146 heartbeat IPC: 0.469194 cumulative IPC: 0.470216 (Simulation time: 0 hr 28 min 54 sec) 
Finished CPU 0 instructions: 200000000 cycles: 425336504 cumulative IPC: 0.470216 (Simulation time: 0 hr 28 min 54 sec) 
 Instruction ID: 250000378

ChampSim completed all CPUs

Region of Interest Statistics

CPU 0 cumulative IPC: 0.470216 instructions: 200000000 cycles: 425336504
ITLB SPEC fills:          0  NON-SPEC fills:          0
ITLB Test counter :          0
ITLB Leapfrog:          0
ITLB MSHR merge:          0
ITLB TOTAL     ACCESS:   43392921  HIT:   43392921  MISS:          0  HIT %:        100  MISS %:          0   MPKI: 0
ITLB LOAD TRANSLATION NON_SPEC    ACCESS:   43392921  HIT:   43392921  MISS:          0  HIT %:        100  MISS %:          0   MPKI: 0
ITLB PREFETCH  REQUESTED:          0  ISSUED:          0  USEFUL:          0  USELESS:          0
ITLB USEFUL LOAD PREFETCHES:          0 PREFETCH ISSUED TO LOWER LEVEL:          0  ACCURACY: -nan
ITLB TIMELY PREFETCHES:          0 LATE PREFETCHES: 0 DROPPED PREFETCHES: 0
ITLB COMMIT LATE PREFETCHES: 0 NORMAL LATE: 0 MISSED OPPORTUNITY: 0 UNCOVERED: 0
ITLB PREFETCHES SAME FILL-ORIGIN LEVEL: 0 DIFFERENT FILL-ORIGIN LEVEL: 0
ITLB AVERAGE MISS LATENCY: -nan cycles
ITLB AVERAGE MISS LATENCY LOAD: -nan cycles
ITLB AVERAGE MISS LATENCY PREFETCH: -nan cycles
ITLB AVERAGE MSHR OCCUPANCY: 0
ITLB MSHR FULL: 0
ITLB RQ	ACCESS:   47126374	FORWARD:          0	MERGED:    3733453	TO_CACHE:   43392921

DTLB SPEC fills:          0  NON-SPEC fills:          0
DTLB Test counter :          0
DTLB Leapfrog:          0
DTLB MSHR merge:          0
DTLB TOTAL     ACCESS:   56592504  HIT:   56526357  MISS:      66147  HIT %:    99.8831  MISS %:   0.116883   MPKI: 0.330735
DTLB LOAD TRANSLATION NON_SPEC    ACCESS:   56592504  HIT:   56526357  MISS:      66147  HIT %:    99.8831  MISS %:   0.116883   MPKI: 0.330735
DTLB PREFETCH  REQUESTED:          0  ISSUED:          0  USEFUL:          0  USELESS:          0
DTLB USEFUL LOAD PREFETCHES:          0 PREFETCH ISSUED TO LOWER LEVEL:          0  ACCURACY: -nan
DTLB TIMELY PREFETCHES:          0 LATE PREFETCHES: 0 DROPPED PREFETCHES: 0
DTLB COMMIT LATE PREFETCHES: 0 NORMAL LATE: 0 MISSED OPPORTUNITY: 0 UNCOVERED: 0
DTLB PREFETCHES SAME FILL-ORIGIN LEVEL: 0 DIFFERENT FILL-ORIGIN LEVEL: 0
DTLB AVERAGE MISS LATENCY: 184.152 cycles
DTLB AVERAGE MISS LATENCY LOAD: -nan cycles
DTLB AVERAGE MISS LATENCY PREFETCH: -nan cycles
DTLB AVERAGE MSHR OCCUPANCY: 0.00253765
DTLB MSHR FULL: 0
DTLB RQ	ACCESS:   59890073	FORWARD:          0	MERGED:    3294708	TO_CACHE:   56595365

STLB SPEC fills:          0  NON-SPEC fills:          0
STLB Test counter :          0
STLB Leapfrog:          0
STLB MSHR merge:          0
STLB TOTAL     ACCESS:    6402735  HIT:    6341843  MISS:      60892  HIT %:     99.049  MISS %:   0.951031   MPKI: 0.30446
STLB LOAD TRANSLATION NON_SPEC    ACCESS:      66147  HIT:       5255  MISS:      60892  HIT %:    7.94443  MISS %:    92.0556   MPKI: 0.30446
STLB TRANSLATION FROM L1D PREFETCHER NON_SPEC    ACCESS:    6336588  HIT:    6336588  MISS:          0  HIT %:        100  MISS %:          0   MPKI: 0
STLB PREFETCH  REQUESTED:          0  ISSUED:          0  USEFUL:          0  USELESS:          0
STLB USEFUL LOAD PREFETCHES:          0 PREFETCH ISSUED TO LOWER LEVEL:          0  ACCURACY: -nan
STLB TIMELY PREFETCHES:          0 LATE PREFETCHES: 0 DROPPED PREFETCHES: 0
STLB COMMIT LATE PREFETCHES: 0 NORMAL LATE: 0 MISSED OPPORTUNITY: 0 UNCOVERED: 0
STLB PREFETCHES SAME FILL-ORIGIN LEVEL: 0 DIFFERENT FILL-ORIGIN LEVEL: 0
STLB AVERAGE MISS LATENCY: 190.268 cycles
STLB AVERAGE MISS LATENCY LOAD: -nan cycles
STLB AVERAGE MISS LATENCY PREFETCH: -nan cycles
STLB AVERAGE MSHR OCCUPANCY: 0.000863069
STLB MSHR FULL: 0
STLB RQ	ACCESS:   11994876	FORWARD:          0	MERGED:    5592141	TO_CACHE:    6402735

STLB Hit, L1D data hit: 0
STLB Hit, L2C data hit: 0
STLB Hit, LLC data hit: 0
STLB Hit, LLC data miss: 0
STLB STLB hints to L2: 0
L0D SPEC fills:   17644011  NON-SPEC fills:          0
L0D TimeGuard Request with older TS:     333997 Restricted eviction:      20566 read:    1418341
L0D Test counter :          0
L0D Leapfrog:          0
L0D MSHR merge:    1550918
L0D TOTAL     ACCESS:   38928144  HIT:    6696005  MISS:   32232139  HIT %:    17.2009  MISS %:    82.7991   MPKI: 161.161
L0D LOAD      TOTAL       ACCESS:   38928144  HIT:    6696005  MISS:   32232139  HIT %:    17.2009  MISS %:    82.7991   MPKI: 161.161
L0D LOAD      NON_SPEC    ACCESS:   14674111  HIT:     106549  MISS:   14567562  HIT %:   0.726102  MISS %:    99.2739   MPKI: 72.8378
L0D LOAD      SPEC        ACCESS:   24254033  HIT:    6589456  MISS:   17664577  HIT %:    27.1685  MISS %:    72.8315   MPKI: 88.3229
L0D PREFETCH  REQUESTED:          0  ISSUED:          0  USEFUL:          0  USELESS:          0
L0D USEFUL LOAD PREFETCHES:          0 PREFETCH ISSUED TO LOWER LEVEL:          0  ACCURACY: -nan
L0D TIMELY PREFETCHES:          0 LATE PREFETCHES: 0 DROPPED PREFETCHES: 0
L0D COMMIT LATE PREFETCHES: 0 NORMAL LATE: 0 MISSED OPPORTUNITY: 0 UNCOVERED: 32232139
L0D PREFETCHES SAME FILL-ORIGIN LEVEL: 0 DIFFERENT FILL-ORIGIN LEVEL: 0
L0D AVERAGE MISS LATENCY: 6.22827 cycles
L0D AVERAGE MISS LATENCY LOAD: 6.22827 cycles
L0D AVERAGE MISS LATENCY PREFETCH: -nan cycles
L0D AVERAGE MSHR OCCUPANCY: 0.616382
L0D MSHR FULL: 0
L0D RQ	ACCESS:   55592093	FORWARD:          0	MERGED:   15113033	TO_CACHE:   40479060
L0D WQ	ACCESS:   19411013	FORWARD:          0	MERGED:          0	TO_CACHE:   19411013

L1D SPEC fills:          0  NON-SPEC fills:     284620
L1D Test counter :          0
L1D Leapfrog:          0
L1D MSHR merge:     341335
L1D TOTAL     ACCESS:   92497851  HIT:   86455717  MISS:    6042134  HIT %:    93.4678  MISS %:    6.53219   MPKI: 30.2107
L1D LOAD      TOTAL       ACCESS:   32231912  HIT:   31411844  MISS:     820068  HIT %:    97.4557  MISS %:    2.54427   MPKI: 4.10034
L1D LOAD      NON_SPEC    ACCESS:   14567556  HIT:   14282936  MISS:     284620  HIT %:    98.0462  MISS %:    1.95379   MPKI: 1.4231
L1D LOAD      SPEC        ACCESS:   17664356  HIT:   17128908  MISS:     535448  HIT %:    96.9688  MISS %:    3.03123   MPKI: 2.67724
L1D RFO       NON_SPEC    ACCESS:   19409033  HIT:   19408232  MISS:        801  HIT %:    99.9959  MISS %: 0.00412694   MPKI: 0.004005
L1D PREFETCH  NON_SPEC    ACCESS:   11578673  HIT:    6841447  MISS:    4737226  HIT %:    59.0866  MISS %:    40.9134   MPKI: 23.6861
L1D COMMIT LOAD NON_SPEC    ACCESS:   11872731  HIT:   11871725  MISS:       1006  HIT %:    99.9915  MISS %:  0.0084732   MPKI: 0.00503
L1D COMMIT WRITE NON_SPEC    ACCESS:   17405502  HIT:   16922469  MISS:     483033  HIT %:    97.2248  MISS %:    2.77517   MPKI: 2.41517
L1D PREFETCH  REQUESTED:   11929218  ISSUED:   11928729  USEFUL:    3917010  USELESS:     820219
L1D USEFUL LOAD PREFETCHES:    3917010 PREFETCH ISSUED TO LOWER LEVEL:    5078351  ACCURACY: 77.1315
L1D TIMELY PREFETCHES:    3917010 LATE PREFETCHES: 341118 DROPPED PREFETCHES: 0
L1D COMMIT LATE PREFETCHES: 0 NORMAL LATE: 341118 MISSED OPPORTUNITY: 0 UNCOVERED: 478950
L1D PREFETCHES SAME FILL-ORIGIN LEVEL: 5078351 DIFFERENT FILL-ORIGIN LEVEL: 0
L1D AVERAGE MISS LATENCY: 119.118 cycles
L1D AVERAGE MISS LATENCY LOAD: 49.2251 cycles
L1D AVERAGE MISS LATENCY PREFETCH: 143.401 cycles
L1D AVERAGE MSHR OCCUPANCY: 1.58776
L1D MSHR FULL: 7.36872e-06
L1D RQ	ACCESS:   55695389	FORWARD:          0	MERGED:    9809338	TO_CACHE:   44105103
L1D WQ	ACCESS:   36855532	FORWARD:    1780948	MERGED:      40990	TO_CACHE:   36814542
L1D PQ	ACCESS:   11928729	FORWARD:          0	MERGED:          0	TO_CACHE:   11928729

L1D UNIQUE REGIONS ACCESSED: 0
L1D REGIONS CONFLICTS: 0
L1D Cross Page Prefetch Requests: 0
L1D Same Page Prefetch Requests: 14817558
L1D ROI Sum of L1D PQ occupancy: 163011500
L1D PREFETCHES PUSHED FROM L2C: 0
L1I SPEC fills:          0  NON-SPEC fills:          0
L1I Test counter :          0
L1I Leapfrog:          0
L1I MSHR merge:          0
L1I TOTAL     ACCESS:   47126373  HIT:   47126373  MISS:          0  HIT %:        100  MISS %:          0   MPKI: 0
L1I LOAD      TOTAL       ACCESS:   47126373  HIT:   47126373  MISS:          0  HIT %:        100  MISS %:          0   MPKI: 0
L1I LOAD      NON_SPEC    ACCESS:   47126373  HIT:   47126373  MISS:          0  HIT %:        100  MISS %:          0   MPKI: 0
L1I PREFETCH  REQUESTED:          0  ISSUED:          0  USEFUL:          0  USELESS:          0
L1I USEFUL LOAD PREFETCHES:          0 PREFETCH ISSUED TO LOWER LEVEL:          0  ACCURACY: -nan
L1I TIMELY PREFETCHES:          0 LATE PREFETCHES: 0 DROPPED PREFETCHES: 0
L1I COMMIT LATE PREFETCHES: 0 NORMAL LATE: 0 MISSED OPPORTUNITY: 0 UNCOVERED: 0
L1I PREFETCHES SAME FILL-ORIGIN LEVEL: 0 DIFFERENT FILL-ORIGIN LEVEL: 0
L1I AVERAGE MISS LATENCY: -nan cycles
L1I AVERAGE MISS LATENCY LOAD: -nan cycles
L1I AVERAGE MISS LATENCY PREFETCH: -nan cycles
L1I AVERAGE MSHR OCCUPANCY: 0
L1I MSHR FULL: 0
L1I RQ	ACCESS:   74383224	FORWARD:          0	MERGED:   27256850	TO_CACHE:   47126374

BTB SPEC fills:          0  NON-SPEC fills:          0
BTB Test counter :          0
BTB Leapfrog:          0
BTB MSHR merge:          0
BTB TOTAL     ACCESS:   32765954  HIT:   32765925  MISS:         29  HIT %:    99.9999  MISS %: 8.85065e-05   MPKI: 0.000145
BTB BRANCH_DIRECT_JUMP	ACCESS:    4318196  HIT:    4318187  MISS:          9
BTB BRANCH_INDIRECT	ACCESS:          0  HIT:          0  MISS:          0
BTB BRANCH_CONDITIONAL	ACCESS:   24127035  HIT:   24127021  MISS:         14
BTB BRANCH_DIRECT_CALL	ACCESS:    2160361  HIT:    2160358  MISS:          3
BTB BRANCH_INDIRECT_CALL	ACCESS:          0  HIT:          0  MISS:          0
BTB BRANCH_RETURN	ACCESS:    2160362  HIT:    2160359  MISS:          3
BTB BRANCH_OTHER ACCESS:          0  HIT:          0  MISS:          0

L2C SPEC fills:          0  NON-SPEC fills:      26576
L2C Test counter :          0
L2C Leapfrog:          0
L2C MSHR merge:          0
L2C TOTAL     ACCESS:   10185190  HIT:    6434973  MISS:    3750217  HIT %:    63.1797  MISS %:    36.8203   MPKI: 18.7511
L2C LOAD      TOTAL       ACCESS:     478907  HIT:     394462  MISS:      84445  HIT %:    82.3671  MISS %:    17.6329   MPKI: 0.422225
L2C LOAD      NON_SPEC    ACCESS:      52998  HIT:      26422  MISS:      26576  HIT %:    49.8547  MISS %:    50.1453   MPKI: 0.13288
L2C LOAD      SPEC        ACCESS:     425909  HIT:     368040  MISS:      57869  HIT %:    86.4128  MISS %:    13.5872   MPKI: 0.289345
L2C RFO       NON_SPEC    ACCESS:        795  HIT:        771  MISS:         24  HIT %:    96.9811  MISS %:    3.01887   MPKI: 0.00012
L2C PREFETCH  NON_SPEC    ACCESS:    5078204  HIT:    1490627  MISS:    3587577  HIT %:    29.3534  MISS %:    70.6466   MPKI: 17.9379
L2C WRITEBACK NON_SPEC    ACCESS:       1739  HIT:       1739  MISS:          0  HIT %:        100  MISS %:          0   MPKI: 0
L2C CLEAN_EVICTION NON_SPEC    ACCESS:    4320495  HIT:    4253637  MISS:      66858  HIT %:    98.4525  MISS %:    1.54746   MPKI: 0.33429
L2C COMMIT LOAD NON_SPEC    ACCESS:        996  HIT:        936  MISS:         60  HIT %:    93.9759  MISS %:     6.0241   MPKI: 0.0003
L2C LOAD TRANSLATION NON_SPEC    ACCESS:     304054  HIT:     292801  MISS:      11253  HIT %:     96.299  MISS %:    3.70099   MPKI: 0.056265
L2C PREFETCH  REQUESTED:          0  ISSUED:          0  USEFUL:      20602  USELESS:    3566960
L2C USEFUL LOAD PREFETCHES:      20602 PREFETCH ISSUED TO LOWER LEVEL:    3587578  ACCURACY: 0.574259
L2C TIMELY PREFETCHES:      20602 LATE PREFETCHES: 0 DROPPED PREFETCHES: 0
L2C COMMIT LATE PREFETCHES: 0 NORMAL LATE: 0 MISSED OPPORTUNITY: 0 UNCOVERED: 84445
L2C PREFETCHES SAME FILL-ORIGIN LEVEL: 0 DIFFERENT FILL-ORIGIN LEVEL: 0
L2C AVERAGE MISS LATENCY: 183.322 cycles
L2C AVERAGE MISS LATENCY LOAD: 175.358 cycles
L2C AVERAGE MISS LATENCY PREFETCH: 186.897 cycles
L2C AVERAGE MSHR OCCUPANCY: 0.717424
L2C MSHR FULL: 0
L2C RQ	ACCESS:     784805	FORWARD:          0	MERGED:          0	TO_CACHE:     784752
L2C WQ	ACCESS:    4322235	FORWARD:        199	MERGED:          0	TO_CACHE:    4322235
L2C PQ	ACCESS:    5078351	FORWARD:          0	MERGED:          0	TO_CACHE:    5078205

L2C Instructions Evicting Data 0
L2C Translations Evicting Data 11233
L2C Data Evicting Data 3603201
L2C Instructions Evicting Instructions 0
L2C Translations Evicting Instructions 0
L2C Data Evicting Instructions 0
L2C Instructions Evicting Translations 0
L2C Translations Evicting Translations 20
L2C Data Evicting Translations 11036
L2C Dense regions hint from L2: 0
PSCL5 SPEC fills:          0  NON-SPEC fills:          0
PSCL5 Test counter :          0
PSCL5 Leapfrog:          0
PSCL5 MSHR merge:          0
PSCL5 TOTAL     ACCESS:          0  HIT:          0  MISS:          0  HIT %:       -nan  MISS %:       -nan   MPKI: 0
PSCL5 PREFETCH  REQUESTED:          0  ISSUED:          0  USEFUL:          0  USELESS:          0
PSCL5 USEFUL LOAD PREFETCHES:          0 PREFETCH ISSUED TO LOWER LEVEL:          0  ACCURACY: -nan
PSCL5 TIMELY PREFETCHES:          0 LATE PREFETCHES: 0 DROPPED PREFETCHES: 0
PSCL5 COMMIT LATE PREFETCHES: 0 NORMAL LATE: 0 MISSED OPPORTUNITY: 0 UNCOVERED: 0
PSCL5 PREFETCHES SAME FILL-ORIGIN LEVEL: 0 DIFFERENT FILL-ORIGIN LEVEL: 0

PSCL4 SPEC fills:          0  NON-SPEC fills:          0
PSCL4 Test counter :          0
PSCL4 Leapfrog:          0
PSCL4 MSHR merge:          0
PSCL4 TOTAL     ACCESS:          0  HIT:          0  MISS:          0  HIT %:       -nan  MISS %:       -nan   MPKI: 0
PSCL4 PREFETCH  REQUESTED:          0  ISSUED:          0  USEFUL:          0  USELESS:          0
PSCL4 USEFUL LOAD PREFETCHES:          0 PREFETCH ISSUED TO LOWER LEVEL:          0  ACCURACY: -nan
PSCL4 TIMELY PREFETCHES:          0 LATE PREFETCHES: 0 DROPPED PREFETCHES: 0
PSCL4 COMMIT LATE PREFETCHES: 0 NORMAL LATE: 0 MISSED OPPORTUNITY: 0 UNCOVERED: 0
PSCL4 PREFETCHES SAME FILL-ORIGIN LEVEL: 0 DIFFERENT FILL-ORIGIN LEVEL: 0

PSCL3 SPEC fills:          0  NON-SPEC fills:          0
PSCL3 Test counter :          0
PSCL3 Leapfrog:          0
PSCL3 MSHR merge:          0
PSCL3 TOTAL     ACCESS:          0  HIT:          0  MISS:          0  HIT %:       -nan  MISS %:       -nan   MPKI: 0
PSCL3 PREFETCH  REQUESTED:          0  ISSUED:          0  USEFUL:          0  USELESS:          0
PSCL3 USEFUL LOAD PREFETCHES:          0 PREFETCH ISSUED TO LOWER LEVEL:          0  ACCURACY: -nan
PSCL3 TIMELY PREFETCHES:          0 LATE PREFETCHES: 0 DROPPED PREFETCHES: 0
PSCL3 COMMIT LATE PREFETCHES: 0 NORMAL LATE: 0 MISSED OPPORTUNITY: 0 UNCOVERED: 0
PSCL3 PREFETCHES SAME FILL-ORIGIN LEVEL: 0 DIFFERENT FILL-ORIGIN LEVEL: 0

PSCL2 SPEC fills:          0  NON-SPEC fills:          0
PSCL2 Test counter :          0
PSCL2 Leapfrog:          0
PSCL2 MSHR merge:          0
PSCL2 TOTAL     ACCESS:          0  HIT:          0  MISS:          0  HIT %:       -nan  MISS %:       -nan   MPKI: 0
PSCL2 PREFETCH  REQUESTED:          0  ISSUED:          0  USEFUL:          0  USELESS:          0
PSCL2 USEFUL LOAD PREFETCHES:          0 PREFETCH ISSUED TO LOWER LEVEL:          0  ACCURACY: -nan
PSCL2 TIMELY PREFETCHES:          0 LATE PREFETCHES: 0 DROPPED PREFETCHES: 0
PSCL2 COMMIT LATE PREFETCHES: 0 NORMAL LATE: 0 MISSED OPPORTUNITY: 0 UNCOVERED: 0
PSCL2 PREFETCHES SAME FILL-ORIGIN LEVEL: 0 DIFFERENT FILL-ORIGIN LEVEL: 0

LLC SPEC fills:          0  NON-SPEC fills:      26324
LLC Test counter :          0
LLC Leapfrog:          0
LLC MSHR merge:          0
LLC TOTAL     ACCESS:    6886021  HIT:    3164745  MISS:    3721276  HIT %:     45.959  MISS %:     54.041   MPKI: 18.6064
LLC LOAD      TOTAL       ACCESS:      84445  HIT:        506  MISS:      83939  HIT %:   0.599207  MISS %:    99.4008   MPKI: 0.419695
LLC LOAD      NON_SPEC    ACCESS:      26576  HIT:        252  MISS:      26324  HIT %:   0.948224  MISS %:    99.0518   MPKI: 0.13162
LLC LOAD      SPEC        ACCESS:      57869  HIT:        254  MISS:      57615  HIT %:   0.438922  MISS %:    99.5611   MPKI: 0.288075
LLC RFO       NON_SPEC    ACCESS:         24  HIT:          0  MISS:         24  HIT %:          0  MISS %:        100   MPKI: 0.00012
LLC PREFETCH  NON_SPEC    ACCESS:    3587577  HIT:      23183  MISS:    3564394  HIT %:   0.646202  MISS %:    99.3538   MPKI: 17.822
LLC WRITEBACK NON_SPEC    ACCESS:       1604  HIT:       1602  MISS:          2  HIT %:    99.8753  MISS %:   0.124688   MPKI: 1e-05
LLC CLEAN_EVICTION NON_SPEC    ACCESS:    3201058  HIT:    3138573  MISS:      62485  HIT %:     98.048  MISS %:    1.95201   MPKI: 0.312425
LLC COMMIT LOAD NON_SPEC    ACCESS:         60  HIT:          0  MISS:         60  HIT %:          0  MISS %:        100   MPKI: 0.0003
LLC LOAD TRANSLATION NON_SPEC    ACCESS:      11253  HIT:        881  MISS:      10372  HIT %:    7.82902  MISS %:     92.171   MPKI: 0.05186
LLC PREFETCH  REQUESTED:          0  ISSUED:          0  USEFUL:        278  USELESS:    3564107
LLC USEFUL LOAD PREFETCHES:        278 PREFETCH ISSUED TO LOWER LEVEL:    3564395  ACCURACY: 0.00779936
LLC TIMELY PREFETCHES:        278 LATE PREFETCHES: 0 DROPPED PREFETCHES: 0
LLC COMMIT LATE PREFETCHES: 0 NORMAL LATE: 0 MISSED OPPORTUNITY: 0 UNCOVERED: 83939
LLC PREFETCHES SAME FILL-ORIGIN LEVEL: 0 DIFFERENT FILL-ORIGIN LEVEL: 0
LLC AVERAGE MISS LATENCY: 155.144 cycles
LLC AVERAGE MISS LATENCY LOAD: 152.426 cycles
LLC AVERAGE MISS LATENCY PREFETCH: 157.867 cycles
LLC AVERAGE MSHR OCCUPANCY: 0.235295
LLC MSHR FULL: 0
LLC RQ	ACCESS:      95782	FORWARD:          0	MERGED:          0	TO_CACHE:      95782
LLC WQ	ACCESS:    3202663	FORWARD:          0	MERGED:          0	TO_CACHE:    3202663
LLC PQ	ACCESS:    3587578	FORWARD:          0	MERGED:          0	TO_CACHE:    3587578

LLC Dense regions hint to LLC: 0

RAW hits: 4014
Loads Generated: 55596107
Loads sent to L1D: 55592093
Stores Generated: 19411013
Stores sent to L1D: 19411013
Major fault: 0 Minor fault: 76297
Allocated PAGES: 76297
Total Load insts: 69477021
Total Non-spec loads: 17356561
Percentage of speculative loads: 75.0183

LeapFrogging counter: 0
Commit hits: 17444519 miss: 23463250
Commit hit %: 42.6435 miss %: 57.3565
Commits not translated: 0
Loads retired: 820068
Stores retired: 19411013
Cache fills: 820068
L1D response latency: 49.2251 cycles
Load retirement latency: 93.7871 cycles
OOO test counter: 0
Discarded buffer inserts: 17444519 hits: 10900 hit %: 0.0624838
Filter prediction accuracy: -nan

stream: 
stream:times selected: 18853570
stream:pref_filled: 4834756
stream:pref_useful: 3986346
stream:pref_late: 123281
stream:misses: 59066
stream:misses_by_poll: 0

CS: 
CS:times selected: 7157411
CS:pref_filled: 508935
CS:pref_useful: 494626
CS:pref_late: 76025
CS:misses: 416117
CS:misses_by_poll: 9672

CPLX: 
CPLX:times selected: 11678710
CPLX:pref_filled: 652147
CPLX:pref_useful: 491611
CPLX:pref_late: 2259
CPLX:misses: 402006
CPLX:misses_by_poll: 10590

NL_L1: 
NL:times selected: 107633
NL:pref_filled: 6778
NL:pref_useful: 5948
NL:pref_late: 586
NL:misses: 7170
NL:misses_by_poll: 115

total selections: 37797324
total_filled: 4737226
total_useful: 3917010
total_late: 231632
total_polluted: 20377
total_misses_after_warmup: 820295
conflicts: 0
Degree Incremented Times: 486635
Degree Decremented Times: 0

L1 IP Table Write Accesses: 32232139
L1 IP Table Read Accesses: 32232139
L1 RST Write Accesses: 15211989
L1 RST Read Accesses: 30423978
L1 CSPT Write Accesses: 15211989
L1 CSPT Read Accesses: 40064278
L1 RR Filter Tag Write Accesses: 11929218
L1 RR Filter Tag Read Accesses: 2380333555
L1 IP Table Tag Write Accesses: 32232139
L1 IP Table Tag Read Accesses: 32232139
L1 RST Tag Write Accesses: 0
L1 RST Tag Read Accesses: 136046733
L1 RR Filter Write Accesses: 0
L1 RR Filter Read Accesses: 104337867
test: 3731903

DRAM Statistics
 CHANNEL 0
 RQ ROW_BUFFER_HIT:     531457  ROW_BUFFER_MISS:    3127330
 DBUS_CONGESTED:      16255
 WQ ROW_BUFFER_HIT:    1129065  ROW_BUFFER_MISS:    2070857  FULL:          0

 AVG_CONGESTED_CYCLE: 5
 All warmup complete: 2
Channel 0 Bank busy for read cycles: 0
Channel 0 Bank busy for write cycles: 0
Channel 0
Rank 0
0banks busy for read cycles: 43000124
0banks busy for write cycles: 197282
1banks busy for read cycles: 144059775
1banks busy for write cycles: 22443544
2banks busy for read cycles: 53381375
2banks busy for write cycles: 16399950
3banks busy for read cycles: 28561774
3banks busy for write cycles: 11200815
4banks busy for read cycles: 18360651
4banks busy for write cycles: 9240775
5banks busy for read cycles: 6464279
5banks busy for write cycles: 8472455
6banks busy for read cycles: 3566226
6banks busy for write cycles: 9147480
7banks busy for read cycles: 4187997
7banks busy for write cycles: 12162368
8banks busy for read cycles: 354046
8banks busy for write cycles: 34135589

CPU 0 Branch Prediction Accuracy: 99.9621% MPKI: 0.097185 Average ROB Occupancy at Mispredict: 311.466
Branch types
NOT_BRANCH: 148719231 74.3596%
BRANCH_DIRECT_JUMP: 4318196 2.1591%
BRANCH_INDIRECT: 0 0%
BRANCH_CONDITIONAL: 42641844 21.3209%
BRANCH_DIRECT_CALL: 2160361 1.08018%
BRANCH_INDIRECT_CALL: 0 0%
BRANCH_RETURN: 2160362 1.08018%
BRANCH_OTHER: 0 0%

DRAM PAGES: 1048576
Allocated PAGES: 76297
