
*** ChampSim Multicore Out-of-Order Simulator ***

Warmup Instructions: 50000000
Simulation Instructions: 200000000
Number of CPUs: 1
LLC sets: 2048
LLC ways: 16
L0D sets: 16
L0D ways: 2
ROB size: 352
LQ size: 128
SQ size: 72
Secure Berti: OFF
Berti: OFF
Berti Fill: OFF
On commit prefetching: OFF
Hit-based filter: OFF
Time-guarding: ON
Free-slotting: ON
Leap-frogging: ON
Train prefetcher on L0D bypass: OFF
No translation penalty for prefetchers: OFF
Prefetch to L0D only: OFF
Prefetch to L1D only: OFF
Clean evictions: ON
Commit loads: ON
Commit write: ON
Fill commit loads to L2C, LLC: ON
DRAM IO FREQUENCY: 6400
ROB SIZE: 352
Off-chip DRAM Size: 4096 MB Channels: 1 Width: 64-bit Data Rate: 6400 MT/s
CPU 0 runs /home/sumon/secure_berti/GhostMinion/../../traces/spec/603.bwaves_s-2609B.champsimtrace.xz
.xz
BTB has LRU replacement policy
ITLB has LRU replacement policy
DTLB has LRU replacement policy
STLB has LRU replacement policy
L1I has LRU replacement policy
L0D has LRU replacement policy
IP Table Entries: 1024
CSPT Entries: 128
RR_ENTRIES: 32
RST_ENTRIES: 8
L1D has LRU replacement policy
L2C has LRU replacement policy
LLC has LRU replacement policy
Heartbeat CPU 0 instructions: 10000002 cycles: 3682932 heartbeat IPC: 2.71523 cumulative IPC: 2.71523 (Simulation time: 0 hr 0 min 48 sec) 
Heartbeat CPU 0 instructions: 20000003 cycles: 7365910 heartbeat IPC: 2.71519 cumulative IPC: 2.71521 (Simulation time: 0 hr 1 min 37 sec) 
Heartbeat CPU 0 instructions: 30000001 cycles: 11050746 heartbeat IPC: 2.71382 cumulative IPC: 2.71475 (Simulation time: 0 hr 2 min 29 sec) 
Heartbeat CPU 0 instructions: 40000002 cycles: 14736105 heartbeat IPC: 2.71344 cumulative IPC: 2.71442 (Simulation time: 0 hr 3 min 21 sec) 
Heartbeat CPU 0 instructions: 50000003 cycles: 18417336 heartbeat IPC: 2.71648 cumulative IPC: 2.71483 (Simulation time: 0 hr 4 min 13 sec) 

Warmup complete CPU 0 instructions: 50000003 cycles: 18417336 (Simulation time: 0 hr 4 min 13 sec) 

Heartbeat CPU 0 instructions: 60000000 cycles: 28269871 heartbeat IPC: 1.01497 cumulative IPC: 1.01497 (Simulation time: 0 hr 5 min 1 sec) 
Heartbeat CPU 0 instructions: 70000000 cycles: 38134043 heartbeat IPC: 1.01377 cumulative IPC: 1.01437 (Simulation time: 0 hr 5 min 48 sec) 
Heartbeat CPU 0 instructions: 80000003 cycles: 47984257 heartbeat IPC: 1.01521 cumulative IPC: 1.01465 (Simulation time: 0 hr 6 min 35 sec) 
Heartbeat CPU 0 instructions: 90000003 cycles: 57843697 heartbeat IPC: 1.01426 cumulative IPC: 1.01455 (Simulation time: 0 hr 7 min 21 sec) 
Heartbeat CPU 0 instructions: 100000001 cycles: 67697205 heartbeat IPC: 1.01487 cumulative IPC: 1.01461 (Simulation time: 0 hr 8 min 8 sec) 
Heartbeat CPU 0 instructions: 110000000 cycles: 77552223 heartbeat IPC: 1.01471 cumulative IPC: 1.01463 (Simulation time: 0 hr 8 min 56 sec) 
Heartbeat CPU 0 instructions: 120000000 cycles: 87397587 heartbeat IPC: 1.01571 cumulative IPC: 1.01478 (Simulation time: 0 hr 9 min 42 sec) 
Heartbeat CPU 0 instructions: 130000003 cycles: 97240550 heartbeat IPC: 1.01595 cumulative IPC: 1.01493 (Simulation time: 0 hr 10 min 28 sec) 
Heartbeat CPU 0 instructions: 140000000 cycles: 107105455 heartbeat IPC: 1.01369 cumulative IPC: 1.01479 (Simulation time: 0 hr 11 min 20 sec) 
Heartbeat CPU 0 instructions: 150000003 cycles: 116960856 heartbeat IPC: 1.01467 cumulative IPC: 1.01478 (Simulation time: 0 hr 12 min 43 sec) 
Heartbeat CPU 0 instructions: 160000000 cycles: 126817353 heartbeat IPC: 1.01456 cumulative IPC: 1.01476 (Simulation time: 0 hr 14 min 9 sec) 
Heartbeat CPU 0 instructions: 170000002 cycles: 136669061 heartbeat IPC: 1.01505 cumulative IPC: 1.01478 (Simulation time: 0 hr 15 min 35 sec) 
Heartbeat CPU 0 instructions: 180000001 cycles: 146542767 heartbeat IPC: 1.01279 cumulative IPC: 1.01463 (Simulation time: 0 hr 17 min 0 sec) 
Heartbeat CPU 0 instructions: 190000000 cycles: 156408286 heartbeat IPC: 1.01363 cumulative IPC: 1.01456 (Simulation time: 0 hr 18 min 21 sec) 
Heartbeat CPU 0 instructions: 200000001 cycles: 166276201 heartbeat IPC: 1.01339 cumulative IPC: 1.01448 (Simulation time: 0 hr 19 min 13 sec) 
Heartbeat CPU 0 instructions: 210000003 cycles: 176144862 heartbeat IPC: 1.01331 cumulative IPC: 1.01441 (Simulation time: 0 hr 20 min 3 sec) 
Heartbeat CPU 0 instructions: 220000000 cycles: 185995071 heartbeat IPC: 1.01521 cumulative IPC: 1.01445 (Simulation time: 0 hr 20 min 54 sec) 
Heartbeat CPU 0 instructions: 230000002 cycles: 195854127 heartbeat IPC: 1.0143 cumulative IPC: 1.01445 (Simulation time: 0 hr 21 min 44 sec) 
Heartbeat CPU 0 instructions: 240000000 cycles: 205706531 heartbeat IPC: 1.01498 cumulative IPC: 1.01447 (Simulation time: 0 hr 22 min 35 sec) 
Heartbeat CPU 0 instructions: 250000002 cycles: 215563057 heartbeat IPC: 1.01456 cumulative IPC: 1.01448 (Simulation time: 0 hr 23 min 24 sec) 
Finished CPU 0 instructions: 200000003 cycles: 197145726 cumulative IPC: 1.01448 (Simulation time: 0 hr 23 min 24 sec) 
 Instruction ID: 250000052

ChampSim completed all CPUs

Region of Interest Statistics

CPU 0 cumulative IPC: 1.01448 instructions: 200000003 cycles: 197145726
ITLB SPEC fills:          0  NON-SPEC fills:          0
ITLB Test counter :          0
ITLB Leapfrog:          0
ITLB MSHR merge:          0
ITLB TOTAL     ACCESS:   25370735  HIT:   25370735  MISS:          0  HIT %:        100  MISS %:          0   MPKI: 0
ITLB LOAD TRANSLATION NON_SPEC    ACCESS:   25370735  HIT:   25370735  MISS:          0  HIT %:        100  MISS %:          0   MPKI: 0
ITLB PREFETCH  REQUESTED:          0  ISSUED:          0  USEFUL:          0  USELESS:          0
ITLB USEFUL LOAD PREFETCHES:          0 PREFETCH ISSUED TO LOWER LEVEL:          0  ACCURACY: -nan
ITLB TIMELY PREFETCHES:          0 LATE PREFETCHES: 0 DROPPED PREFETCHES: 0
ITLB COMMIT LATE PREFETCHES: 0 NORMAL LATE: 0 MISSED OPPORTUNITY: 0 UNCOVERED: 0
ITLB PREFETCHES SAME FILL-ORIGIN LEVEL: 0 DIFFERENT FILL-ORIGIN LEVEL: 0
ITLB AVERAGE MISS LATENCY: -nan cycles
ITLB AVERAGE MISS LATENCY LOAD: -nan cycles
ITLB AVERAGE MISS LATENCY PREFETCH: -nan cycles
ITLB AVERAGE MSHR OCCUPANCY: 0
ITLB MSHR FULL: 0
ITLB RQ	ACCESS:   34413122	FORWARD:          0	MERGED:    9042387	TO_CACHE:   25370735

DTLB SPEC fills:          0  NON-SPEC fills:          0
DTLB Test counter :          0
DTLB Leapfrog:          0
DTLB MSHR merge:          0
DTLB TOTAL     ACCESS:   73341676  HIT:   73201335  MISS:     140341  HIT %:    99.8086  MISS %:   0.191352   MPKI: 0.701705
DTLB LOAD TRANSLATION NON_SPEC    ACCESS:   73341676  HIT:   73201335  MISS:     140341  HIT %:    99.8086  MISS %:   0.191352   MPKI: 0.701705
DTLB PREFETCH  REQUESTED:          0  ISSUED:          0  USEFUL:          0  USELESS:          0
DTLB USEFUL LOAD PREFETCHES:          0 PREFETCH ISSUED TO LOWER LEVEL:          0  ACCURACY: -nan
DTLB TIMELY PREFETCHES:          0 LATE PREFETCHES: 0 DROPPED PREFETCHES: 0
DTLB COMMIT LATE PREFETCHES: 0 NORMAL LATE: 0 MISSED OPPORTUNITY: 0 UNCOVERED: 0
DTLB PREFETCHES SAME FILL-ORIGIN LEVEL: 0 DIFFERENT FILL-ORIGIN LEVEL: 0
DTLB AVERAGE MISS LATENCY: 296.884 cycles
DTLB AVERAGE MISS LATENCY LOAD: -nan cycles
DTLB AVERAGE MISS LATENCY PREFETCH: -nan cycles
DTLB AVERAGE MSHR OCCUPANCY: 0.0218408
DTLB MSHR FULL: 6.67819e-06
DTLB RQ	ACCESS:   85917028	FORWARD:          0	MERGED:   12543867	TO_CACHE:   73373161

STLB SPEC fills:          0  NON-SPEC fills:          0
STLB Test counter :          0
STLB Leapfrog:          0
STLB MSHR merge:          0
STLB TOTAL     ACCESS:   16750295  HIT:   16690913  MISS:      59382  HIT %:    99.6455  MISS %:   0.354513   MPKI: 0.29691
STLB LOAD TRANSLATION NON_SPEC    ACCESS:     140341  HIT:      80959  MISS:      59382  HIT %:    57.6873  MISS %:    42.3127   MPKI: 0.29691
STLB TRANSLATION FROM L1D PREFETCHER NON_SPEC    ACCESS:   16609954  HIT:   16609954  MISS:          0  HIT %:        100  MISS %:          0   MPKI: 0
STLB PREFETCH  REQUESTED:          0  ISSUED:          0  USEFUL:          0  USELESS:          0
STLB USEFUL LOAD PREFETCHES:          0 PREFETCH ISSUED TO LOWER LEVEL:          0  ACCURACY: -nan
STLB TIMELY PREFETCHES:          0 LATE PREFETCHES: 0 DROPPED PREFETCHES: 0
STLB COMMIT LATE PREFETCHES: 0 NORMAL LATE: 0 MISSED OPPORTUNITY: 0 UNCOVERED: 0
STLB PREFETCHES SAME FILL-ORIGIN LEVEL: 0 DIFFERENT FILL-ORIGIN LEVEL: 0
STLB AVERAGE MISS LATENCY: 679.871 cycles
STLB AVERAGE MISS LATENCY LOAD: -nan cycles
STLB AVERAGE MISS LATENCY PREFETCH: -nan cycles
STLB AVERAGE MSHR OCCUPANCY: 0.0288166
STLB MSHR FULL: 0
STLB RQ	ACCESS:   64191061	FORWARD:          0	MERGED:   47440766	TO_CACHE:   16750295

STLB Hit, L1D data hit: 0
STLB Hit, L2C data hit: 0
STLB Hit, LLC data hit: 0
STLB Hit, LLC data miss: 0
STLB STLB hints to L2: 0
L0D SPEC fills:   47702214  NON-SPEC fills:          0
L0D TimeGuard Request with older TS:    1698346 Restricted eviction:   12270877 read:     167533
L0D Test counter :          0
L0D Leapfrog:          0
L0D MSHR merge:    2251818
L0D TOTAL     ACCESS:   72398414  HIT:    6963530  MISS:   65434884  HIT %:    9.61835  MISS %:    90.3817   MPKI: 327.174
L0D LOAD      TOTAL       ACCESS:   72398414  HIT:    6963530  MISS:   65434884  HIT %:    9.61835  MISS %:    90.3817   MPKI: 327.174
L0D LOAD      NON_SPEC    ACCESS:    5823911  HIT:     359250  MISS:    5464661  HIT %:    6.16854  MISS %:    93.8315   MPKI: 27.3233
L0D LOAD      SPEC        ACCESS:   66574503  HIT:    6604280  MISS:   59970223  HIT %:    9.92013  MISS %:    90.0799   MPKI: 299.851
L0D PREFETCH  REQUESTED:          0  ISSUED:          0  USEFUL:          0  USELESS:          0
L0D USEFUL LOAD PREFETCHES:          0 PREFETCH ISSUED TO LOWER LEVEL:          0  ACCURACY: -nan
L0D TIMELY PREFETCHES:          0 LATE PREFETCHES: 0 DROPPED PREFETCHES: 0
L0D COMMIT LATE PREFETCHES: 0 NORMAL LATE: 0 MISSED OPPORTUNITY: 0 UNCOVERED: 65434884
L0D PREFETCHES SAME FILL-ORIGIN LEVEL: 0 DIFFERENT FILL-ORIGIN LEVEL: 0
L0D AVERAGE MISS LATENCY: 5.8088 cycles
L0D AVERAGE MISS LATENCY LOAD: 5.8088 cycles
L0D AVERAGE MISS LATENCY PREFETCH: -nan cycles
L0D AVERAGE MSHR OCCUPANCY: 1.75743
L0D MSHR FULL: 0.00509519
L0D RQ	ACCESS:   85384126	FORWARD:          0	MERGED:   10733913	TO_CACHE:   74650213
L0D WQ	ACCESS:   11266815	FORWARD:          0	MERGED:          0	TO_CACHE:   11266815

L1D SPEC fills:          0  NON-SPEC fills:       1414
L1D Test counter :          0
L1D Leapfrog:          0
L1D MSHR merge:      85313
L1D TOTAL     ACCESS:  208281830  HIT:  204047662  MISS:    4234168  HIT %:    97.9671  MISS %:     2.0329   MPKI: 21.1708
L1D LOAD      TOTAL       ACCESS:   65411202  HIT:   65188892  MISS:     222310  HIT %:    99.6601  MISS %:   0.339865   MPKI: 1.11155
L1D LOAD      NON_SPEC    ACCESS:    5464510  HIT:    5463096  MISS:       1414  HIT %:    99.9741  MISS %:  0.0258761   MPKI: 0.00707
L1D LOAD      SPEC        ACCESS:   59946692  HIT:   59725796  MISS:     220896  HIT %:    99.6315  MISS %:   0.368487   MPKI: 1.10448
L1D RFO       NON_SPEC    ACCESS:   10676149  HIT:   10578697  MISS:      97452  HIT %:    99.0872  MISS %:   0.912801   MPKI: 0.48726
L1D PREFETCH  NON_SPEC    ACCESS:   61093007  HIT:   57398863  MISS:    3694144  HIT %:    93.9532  MISS %:    6.04675   MPKI: 18.4707
L1D COMMIT LOAD NON_SPEC    ACCESS:   24840353  HIT:   24804160  MISS:      36193  HIT %:    99.8543  MISS %:   0.145702   MPKI: 0.180965
L1D COMMIT WRITE NON_SPEC    ACCESS:   46261119  HIT:   46077050  MISS:     184069  HIT %:    99.6021  MISS %:   0.397891   MPKI: 0.920345
L1D PREFETCH  REQUESTED:  126103620  ISSUED:   64491031  USEFUL:    3679466  USELESS:      14700
L1D USEFUL LOAD PREFETCHES:    3679466 PREFETCH ISSUED TO LOWER LEVEL:    3756260  ACCURACY: 97.9556
L1D TIMELY PREFETCHES:    3679466 LATE PREFETCHES: 62113 DROPPED PREFETCHES: 0
L1D COMMIT LATE PREFETCHES: 0 NORMAL LATE: 62113 MISSED OPPORTUNITY: 0 UNCOVERED: 160197
L1D PREFETCHES SAME FILL-ORIGIN LEVEL: 3756260 DIFFERENT FILL-ORIGIN LEVEL: 0
L1D AVERAGE MISS LATENCY: 261.674 cycles
L1D AVERAGE MISS LATENCY LOAD: 167.79 cycles
L1D AVERAGE MISS LATENCY PREFETCH: 280.177 cycles
L1D AVERAGE MSHR OCCUPANCY: 5.37752
L1D MSHR FULL: 0.0294652
L1D RQ	ACCESS:   98647066	FORWARD:          0	MERGED:    8363014	TO_CACHE:   90283588
L1D WQ	ACCESS:   57532311	FORWARD:        464	MERGED:     436829	TO_CACHE:   57095482
L1D PQ	ACCESS:   64491031	FORWARD:          0	MERGED:     440311	TO_CACHE:   64050720

L1D UNIQUE REGIONS ACCESSED: 0
L1D REGIONS CONFLICTS: 0
L1D Cross Page Prefetch Requests: 0
L1D Same Page Prefetch Requests: 74572022
L1D ROI Sum of L1D PQ occupancy: 1057902459
L1D PREFETCHES PUSHED FROM L2C: 0
L1I SPEC fills:          0  NON-SPEC fills:          0
L1I Test counter :          0
L1I Leapfrog:          0
L1I MSHR merge:          0
L1I TOTAL     ACCESS:   34413121  HIT:   34413121  MISS:          0  HIT %:        100  MISS %:          0   MPKI: 0
L1I LOAD      TOTAL       ACCESS:   34413121  HIT:   34413121  MISS:          0  HIT %:        100  MISS %:          0   MPKI: 0
L1I LOAD      NON_SPEC    ACCESS:   34413121  HIT:   34413121  MISS:          0  HIT %:        100  MISS %:          0   MPKI: 0
L1I PREFETCH  REQUESTED:          0  ISSUED:          0  USEFUL:          0  USELESS:          0
L1I USEFUL LOAD PREFETCHES:          0 PREFETCH ISSUED TO LOWER LEVEL:          0  ACCURACY: -nan
L1I TIMELY PREFETCHES:          0 LATE PREFETCHES: 0 DROPPED PREFETCHES: 0
L1I COMMIT LATE PREFETCHES: 0 NORMAL LATE: 0 MISSED OPPORTUNITY: 0 UNCOVERED: 0
L1I PREFETCHES SAME FILL-ORIGIN LEVEL: 0 DIFFERENT FILL-ORIGIN LEVEL: 0
L1I AVERAGE MISS LATENCY: -nan cycles
L1I AVERAGE MISS LATENCY LOAD: -nan cycles
L1I AVERAGE MISS LATENCY PREFETCH: -nan cycles
L1I AVERAGE MSHR OCCUPANCY: 0
L1I MSHR FULL: 0
L1I RQ	ACCESS:   45839094	FORWARD:          0	MERGED:   11425972	TO_CACHE:   34413122

BTB SPEC fills:          0  NON-SPEC fills:          0
BTB Test counter :          0
BTB Leapfrog:          0
BTB MSHR merge:          0
BTB TOTAL     ACCESS:    4834901  HIT:    4834896  MISS:          5  HIT %:    99.9999  MISS %: 0.000103415   MPKI: 2.5e-05
BTB BRANCH_DIRECT_JUMP	ACCESS:          0  HIT:          0  MISS:          0
BTB BRANCH_INDIRECT	ACCESS:          0  HIT:          0  MISS:          0
BTB BRANCH_CONDITIONAL	ACCESS:    4834901  HIT:    4834896  MISS:          5
BTB BRANCH_DIRECT_CALL	ACCESS:          0  HIT:          0  MISS:          0
BTB BRANCH_INDIRECT_CALL	ACCESS:          0  HIT:          0  MISS:          0
BTB BRANCH_RETURN	ACCESS:          0  HIT:          0  MISS:          0
BTB BRANCH_OTHER ACCESS:          0  HIT:          0  MISS:          0

L2C SPEC fills:          0  NON-SPEC fills:       1066
L2C Test counter :          0
L2C Leapfrog:          0
L2C MSHR merge:          0
L2C TOTAL     ACCESS:    7505187  HIT:    3544209  MISS:    3960978  HIT %:    47.2235  MISS %:    52.7765   MPKI: 19.8049
L2C LOAD      TOTAL       ACCESS:     160678  HIT:       6571  MISS:     154107  HIT %:    4.08955  MISS %:    95.9105   MPKI: 0.770535
L2C LOAD      NON_SPEC    ACCESS:       1137  HIT:         71  MISS:       1066  HIT %:     6.2445  MISS %:    93.7555   MPKI: 0.00533
L2C LOAD      SPEC        ACCESS:     159541  HIT:       6500  MISS:     153041  HIT %:    4.07419  MISS %:    95.9258   MPKI: 0.765205
L2C RFO       NON_SPEC    ACCESS:      97451  HIT:          3  MISS:      97448  HIT %: 0.00307847  MISS %:    99.9969   MPKI: 0.48724
L2C PREFETCH  NON_SPEC    ACCESS:    3756243  HIT:     206682  MISS:    3549561  HIT %:    5.50236  MISS %:    94.4976   MPKI: 17.7478
L2C WRITEBACK NON_SPEC    ACCESS:      97470  HIT:      97470  MISS:          0  HIT %:        100  MISS %:          0   MPKI: 0
L2C CLEAN_EVICTION NON_SPEC    ACCESS:    3060842  HIT:    2933223  MISS:     127619  HIT %:    95.8306  MISS %:    4.16941   MPKI: 0.638095
L2C COMMIT LOAD NON_SPEC    ACCESS:      35704  HIT:      10898  MISS:      24806  HIT %:    30.5232  MISS %:    69.4768   MPKI: 0.12403
L2C LOAD TRANSLATION NON_SPEC    ACCESS:     296799  HIT:     289362  MISS:       7437  HIT %:    97.4943  MISS %:    2.50574   MPKI: 0.037185
L2C PREFETCH  REQUESTED:          0  ISSUED:          0  USEFUL:      11360  USELESS:    3538294
L2C USEFUL LOAD PREFETCHES:      11360 PREFETCH ISSUED TO LOWER LEVEL:    3549564  ACCURACY: 0.320039
L2C TIMELY PREFETCHES:      11360 LATE PREFETCHES: 0 DROPPED PREFETCHES: 0
L2C COMMIT LATE PREFETCHES: 0 NORMAL LATE: 0 MISSED OPPORTUNITY: 0 UNCOVERED: 154107
L2C PREFETCHES SAME FILL-ORIGIN LEVEL: 0 DIFFERENT FILL-ORIGIN LEVEL: 0
L2C AVERAGE MISS LATENCY: 266.982 cycles
L2C AVERAGE MISS LATENCY LOAD: 170.831 cycles
L2C AVERAGE MISS LATENCY PREFETCH: 280.436 cycles
L2C AVERAGE MSHR OCCUPANCY: 5.43477
L2C MSHR FULL: 0
L2C RQ	ACCESS:     590640	FORWARD:          0	MERGED:          0	TO_CACHE:     590632
L2C WQ	ACCESS:    3158312	FORWARD:         22	MERGED:          0	TO_CACHE:    3158312
L2C PQ	ACCESS:    3756260	FORWARD:          0	MERGED:          0	TO_CACHE:    3756246

L2C Instructions Evicting Data 0
L2C Translations Evicting Data 7435
L2C Data Evicting Data 3665699
L2C Instructions Evicting Instructions 0
L2C Translations Evicting Instructions 0
L2C Data Evicting Instructions 0
L2C Instructions Evicting Translations 0
L2C Translations Evicting Translations 2
L2C Data Evicting Translations 7182
L2C Dense regions hint from L2: 0
PSCL5 SPEC fills:          0  NON-SPEC fills:          0
PSCL5 Test counter :          0
PSCL5 Leapfrog:          0
PSCL5 MSHR merge:          0
PSCL5 TOTAL     ACCESS:          0  HIT:          0  MISS:          0  HIT %:       -nan  MISS %:       -nan   MPKI: 0
PSCL5 PREFETCH  REQUESTED:          0  ISSUED:          0  USEFUL:          0  USELESS:          0
PSCL5 USEFUL LOAD PREFETCHES:          0 PREFETCH ISSUED TO LOWER LEVEL:          0  ACCURACY: -nan
PSCL5 TIMELY PREFETCHES:          0 LATE PREFETCHES: 0 DROPPED PREFETCHES: 0
PSCL5 COMMIT LATE PREFETCHES: 0 NORMAL LATE: 0 MISSED OPPORTUNITY: 0 UNCOVERED: 0
PSCL5 PREFETCHES SAME FILL-ORIGIN LEVEL: 0 DIFFERENT FILL-ORIGIN LEVEL: 0

PSCL4 SPEC fills:          0  NON-SPEC fills:          0
PSCL4 Test counter :          0
PSCL4 Leapfrog:          0
PSCL4 MSHR merge:          0
PSCL4 TOTAL     ACCESS:          0  HIT:          0  MISS:          0  HIT %:       -nan  MISS %:       -nan   MPKI: 0
PSCL4 PREFETCH  REQUESTED:          0  ISSUED:          0  USEFUL:          0  USELESS:          0
PSCL4 USEFUL LOAD PREFETCHES:          0 PREFETCH ISSUED TO LOWER LEVEL:          0  ACCURACY: -nan
PSCL4 TIMELY PREFETCHES:          0 LATE PREFETCHES: 0 DROPPED PREFETCHES: 0
PSCL4 COMMIT LATE PREFETCHES: 0 NORMAL LATE: 0 MISSED OPPORTUNITY: 0 UNCOVERED: 0
PSCL4 PREFETCHES SAME FILL-ORIGIN LEVEL: 0 DIFFERENT FILL-ORIGIN LEVEL: 0

PSCL3 SPEC fills:          0  NON-SPEC fills:          0
PSCL3 Test counter :          0
PSCL3 Leapfrog:          0
PSCL3 MSHR merge:          0
PSCL3 TOTAL     ACCESS:          0  HIT:          0  MISS:          0  HIT %:       -nan  MISS %:       -nan   MPKI: 0
PSCL3 PREFETCH  REQUESTED:          0  ISSUED:          0  USEFUL:          0  USELESS:          0
PSCL3 USEFUL LOAD PREFETCHES:          0 PREFETCH ISSUED TO LOWER LEVEL:          0  ACCURACY: -nan
PSCL3 TIMELY PREFETCHES:          0 LATE PREFETCHES: 0 DROPPED PREFETCHES: 0
PSCL3 COMMIT LATE PREFETCHES: 0 NORMAL LATE: 0 MISSED OPPORTUNITY: 0 UNCOVERED: 0
PSCL3 PREFETCHES SAME FILL-ORIGIN LEVEL: 0 DIFFERENT FILL-ORIGIN LEVEL: 0

PSCL2 SPEC fills:          0  NON-SPEC fills:          0
PSCL2 Test counter :          0
PSCL2 Leapfrog:          0
PSCL2 MSHR merge:          0
PSCL2 TOTAL     ACCESS:          0  HIT:          0  MISS:          0  HIT %:       -nan  MISS %:       -nan   MPKI: 0
PSCL2 PREFETCH  REQUESTED:          0  ISSUED:          0  USEFUL:          0  USELESS:          0
PSCL2 USEFUL LOAD PREFETCHES:          0 PREFETCH ISSUED TO LOWER LEVEL:          0  ACCURACY: -nan
PSCL2 TIMELY PREFETCHES:          0 LATE PREFETCHES: 0 DROPPED PREFETCHES: 0
PSCL2 COMMIT LATE PREFETCHES: 0 NORMAL LATE: 0 MISSED OPPORTUNITY: 0 UNCOVERED: 0
PSCL2 PREFETCHES SAME FILL-ORIGIN LEVEL: 0 DIFFERENT FILL-ORIGIN LEVEL: 0

LLC SPEC fills:          0  NON-SPEC fills:       1066
LLC Test counter :          0
LLC Leapfrog:          0
LLC MSHR merge:          0
LLC TOTAL     ACCESS:    6793034  HIT:    2832207  MISS:    3960827  HIT %:    41.6928  MISS %:    58.3072   MPKI: 19.8041
LLC LOAD      TOTAL       ACCESS:     154107  HIT:          0  MISS:     154107  HIT %:          0  MISS %:        100   MPKI: 0.770535
LLC LOAD      NON_SPEC    ACCESS:       1066  HIT:          0  MISS:       1066  HIT %:          0  MISS %:        100   MPKI: 0.00533
LLC LOAD      SPEC        ACCESS:     153041  HIT:          0  MISS:     153041  HIT %:          0  MISS %:        100   MPKI: 0.765205
LLC RFO       NON_SPEC    ACCESS:      97448  HIT:          0  MISS:      97448  HIT %:          0  MISS %:        100   MPKI: 0.48724
LLC PREFETCH  NON_SPEC    ACCESS:    3549561  HIT:          0  MISS:    3549561  HIT %:          0  MISS %:        100   MPKI: 17.7478
LLC WRITEBACK NON_SPEC    ACCESS:      97485  HIT:      97485  MISS:          0  HIT %:        100  MISS %:          0   MPKI: 0
LLC CLEAN_EVICTION NON_SPEC    ACCESS:    2862190  HIT:    2734722  MISS:     127468  HIT %:    95.5465  MISS %:    4.45351   MPKI: 0.63734
LLC COMMIT LOAD NON_SPEC    ACCESS:      24806  HIT:          0  MISS:      24806  HIT %:          0  MISS %:        100   MPKI: 0.12403
LLC LOAD TRANSLATION NON_SPEC    ACCESS:       7437  HIT:          0  MISS:       7437  HIT %:          0  MISS %:        100   MPKI: 0.037185
LLC PREFETCH  REQUESTED:          0  ISSUED:          0  USEFUL:          0  USELESS:    3549890
LLC USEFUL LOAD PREFETCHES:          0 PREFETCH ISSUED TO LOWER LEVEL:    3549564  ACCURACY: 0
LLC TIMELY PREFETCHES:          0 LATE PREFETCHES: 0 DROPPED PREFETCHES: 0
LLC COMMIT LATE PREFETCHES: 0 NORMAL LATE: 0 MISSED OPPORTUNITY: 0 UNCOVERED: 154107
LLC PREFETCHES SAME FILL-ORIGIN LEVEL: 0 DIFFERENT FILL-ORIGIN LEVEL: 0
LLC AVERAGE MISS LATENCY: 234.723 cycles
LLC AVERAGE MISS LATENCY LOAD: 133.876 cycles
LLC AVERAGE MISS LATENCY PREFETCH: 247.143 cycles
LLC AVERAGE MSHR OCCUPANCY: 4.01747
LLC MSHR FULL: 0
LLC RQ	ACCESS:     283798	FORWARD:          0	MERGED:          0	TO_CACHE:     283798
LLC WQ	ACCESS:    2959674	FORWARD:          0	MERGED:          0	TO_CACHE:    2959674
LLC PQ	ACCESS:    3549564	FORWARD:          0	MERGED:          0	TO_CACHE:    3549564

LLC Dense regions hint to LLC: 0

RAW hits: 576069
Loads Generated: 85960196
Loads sent to L1D: 85384126
Stores Generated: 11266823
Stores sent to L1D: 11266815
Major fault: 0 Minor fault: 70872
Allocated PAGES: 70872
Total Load insts: 106094917
Total Non-spec loads: 6321920
Percentage of speculative loads: 94.0413

LeapFrogging counter: 224606
Commit hits: 46265802 miss: 33212189
Commit hit %: 58.2121 miss %: 41.7879
Commits not translated: 0
Loads retired: 222310
Stores retired: 11266815
Cache fills: 222310
L1D response latency: 167.79 cycles
Load retirement latency: 528.114 cycles
OOO test counter: 0
Discarded buffer inserts: 46265802 hits: 54 hit %: 0.000116717
Filter prediction accuracy: -nan

stream: 
stream:times selected: 28662700
stream:pref_filled: 4528518
stream:pref_useful: 4527846
stream:pref_late: 1184
stream:misses: 6028
stream:misses_by_poll: 0

CS: 
CS:times selected: 27580705
CS:pref_filled: 40466
CS:pref_useful: 40458
CS:pref_late: 40
CS:misses: 253645
CS:misses_by_poll: 8

CPLX: 
CPLX:times selected: 1081825
CPLX:pref_filled: 77148
CPLX:pref_useful: 59932
CPLX:pref_late: 53
CPLX:misses: 11816
CPLX:misses_by_poll: 225

NL_L1: 
NL:times selected: 9669
NL:pref_filled: 436
NL:pref_useful: 436
NL:pref_late: 0
NL:misses: 975
NL:misses_by_poll: 0

total selections: 57334899
total_filled: 3694144
total_useful: 3679466
total_late: 1318
total_polluted: 233
total_misses_after_warmup: 245991
conflicts: 6
Degree Incremented Times: 913660
Degree Decremented Times: 0

L1 IP Table Write Accesses: 65433706
L1 IP Table Read Accesses: 65433700
L1 RST Write Accesses: 23042483
L1 RST Read Accesses: 46084966
L1 CSPT Write Accesses: 23042483
L1 CSPT Read Accesses: 25458642
L1 RR Filter Tag Write Accesses: 126103620
L1 RR Filter Tag Read Accesses: 5880153918
L1 IP Table Tag Write Accesses: 65434883
L1 IP Table Tag Read Accesses: 65434883
L1 RST Tag Write Accesses: 0
L1 RST Tag Read Accesses: 207392384
L1 RR Filter Write Accesses: 0
L1 RR Filter Read Accesses: 196894105
test: 568067

DRAM Statistics
 CHANNEL 0
 RQ ROW_BUFFER_HIT:    1745736  ROW_BUFFER_MISS:    2087623
 DBUS_CONGESTED:       3542
 WQ ROW_BUFFER_HIT:     990042  ROW_BUFFER_MISS:    1966957  FULL:          0

 AVG_CONGESTED_CYCLE: 4
 All warmup complete: 2
Channel 0 Bank busy for read cycles: 0
Channel 0 Bank busy for write cycles: 0
Channel 0
Rank 0
0banks busy for read cycles: 2141583
0banks busy for write cycles: 11814
1banks busy for read cycles: 28800093
1banks busy for write cycles: 1667361
2banks busy for read cycles: 23690576
2banks busy for write cycles: 1464097
3banks busy for read cycles: 23820328
3banks busy for write cycles: 1633188
4banks busy for read cycles: 19170213
4banks busy for write cycles: 1932735
5banks busy for read cycles: 13985549
5banks busy for write cycles: 2517955
6banks busy for read cycles: 9642745
6banks busy for write cycles: 4103452
7banks busy for read cycles: 6158642
7banks busy for write cycles: 9900411
8banks busy for read cycles: 2579668
8banks busy for write cycles: 43925317

CPU 0 Branch Prediction Accuracy: 99.9706% MPKI: 0.00733 Average ROB Occupancy at Mispredict: 35.0907
Branch types
NOT_BRANCH: 195007396 97.5037%
BRANCH_DIRECT_JUMP: 0 0%
BRANCH_INDIRECT: 0 0%
BRANCH_CONDITIONAL: 4992275 2.49614%
BRANCH_DIRECT_CALL: 0 0%
BRANCH_INDIRECT_CALL: 0 0%
BRANCH_RETURN: 0 0%
BRANCH_OTHER: 0 0%

DRAM PAGES: 1048576
Allocated PAGES: 70872
