
*** ChampSim Multicore Out-of-Order Simulator ***

Warmup Instructions: 50000000
Simulation Instructions: 200000000
Number of CPUs: 1
LLC sets: 2048
LLC ways: 16
L0D sets: 16
L0D ways: 2
ROB size: 352
LQ size: 128
SQ size: 72
Secure Berti: OFF
Berti: OFF
Berti Fill: OFF
On commit prefetching: OFF
Hit-based filter: OFF
Time-guarding: ON
Free-slotting: ON
Leap-frogging: ON
Train prefetcher on L0D bypass: OFF
No translation penalty for prefetchers: OFF
Prefetch to L0D only: OFF
Prefetch to L1D only: OFF
Clean evictions: ON
Commit loads: ON
Commit write: ON
Fill commit loads to L2C, LLC: ON
DRAM IO FREQUENCY: 6400
ROB SIZE: 352
Off-chip DRAM Size: 4096 MB Channels: 1 Width: 64-bit Data Rate: 6400 MT/s
CPU 0 runs /home/sumon/secure_berti/GhostMinion/../../traces/spec/605.mcf_s-1554B.champsimtrace.xz
.xz
BTB has LRU replacement policy
ITLB has LRU replacement policy
DTLB has LRU replacement policy
STLB has LRU replacement policy
L1I has LRU replacement policy
L0D has LRU replacement policy
IP Table Entries: 1024
CSPT Entries: 128
RR_ENTRIES: 32
RST_ENTRIES: 8
L1D has LRU replacement policy
L2C has LRU replacement policy
LLC has LRU replacement policy
Heartbeat CPU 0 instructions: 10000001 cycles: 4160828 heartbeat IPC: 2.40337 cumulative IPC: 2.40337 (Simulation time: 0 hr 1 min 2 sec) 
Heartbeat CPU 0 instructions: 20000000 cycles: 8341310 heartbeat IPC: 2.39207 cumulative IPC: 2.3977 (Simulation time: 0 hr 2 min 6 sec) 
Heartbeat CPU 0 instructions: 30000000 cycles: 12537316 heartbeat IPC: 2.38322 cumulative IPC: 2.39286 (Simulation time: 0 hr 3 min 12 sec) 
Heartbeat CPU 0 instructions: 40000001 cycles: 16718974 heartbeat IPC: 2.3914 cumulative IPC: 2.39249 (Simulation time: 0 hr 4 min 21 sec) 
Heartbeat CPU 0 instructions: 50000001 cycles: 20899411 heartbeat IPC: 2.39209 cumulative IPC: 2.39241 (Simulation time: 0 hr 5 min 29 sec) 

Warmup complete CPU 0 instructions: 50000001 cycles: 20899411 (Simulation time: 0 hr 5 min 29 sec) 

Heartbeat CPU 0 instructions: 60000002 cycles: 101112123 heartbeat IPC: 0.124669 cumulative IPC: 0.124669 (Simulation time: 0 hr 7 min 42 sec) 
Heartbeat CPU 0 instructions: 70000001 cycles: 179849883 heartbeat IPC: 0.127004 cumulative IPC: 0.125825 (Simulation time: 0 hr 9 min 52 sec) 
Heartbeat CPU 0 instructions: 80000000 cycles: 259033460 heartbeat IPC: 0.126289 cumulative IPC: 0.125979 (Simulation time: 0 hr 12 min 48 sec) 
Heartbeat CPU 0 instructions: 90000003 cycles: 338734819 heartbeat IPC: 0.125468 cumulative IPC: 0.125851 (Simulation time: 0 hr 15 min 50 sec) 
Heartbeat CPU 0 instructions: 100000001 cycles: 418533056 heartbeat IPC: 0.125316 cumulative IPC: 0.125744 (Simulation time: 0 hr 18 min 17 sec) 
Heartbeat CPU 0 instructions: 110000000 cycles: 498758835 heartbeat IPC: 0.124648 cumulative IPC: 0.12556 (Simulation time: 0 hr 20 min 36 sec) 
Heartbeat CPU 0 instructions: 120000000 cycles: 581196218 heartbeat IPC: 0.121304 cumulative IPC: 0.124934 (Simulation time: 0 hr 22 min 55 sec) 
Heartbeat CPU 0 instructions: 130000000 cycles: 661805089 heartbeat IPC: 0.124056 cumulative IPC: 0.124823 (Simulation time: 0 hr 25 min 2 sec) 
Heartbeat CPU 0 instructions: 140000000 cycles: 743594727 heartbeat IPC: 0.122265 cumulative IPC: 0.124534 (Simulation time: 0 hr 27 min 3 sec) 
Heartbeat CPU 0 instructions: 150000001 cycles: 825685380 heartbeat IPC: 0.121817 cumulative IPC: 0.124257 (Simulation time: 0 hr 29 min 0 sec) 
Heartbeat CPU 0 instructions: 160000000 cycles: 909958796 heartbeat IPC: 0.118661 cumulative IPC: 0.123726 (Simulation time: 0 hr 30 min 57 sec) 
Heartbeat CPU 0 instructions: 170000003 cycles: 994839563 heartbeat IPC: 0.117812 cumulative IPC: 0.123211 (Simulation time: 0 hr 32 min 54 sec) 
Heartbeat CPU 0 instructions: 180000002 cycles: 1079373227 heartbeat IPC: 0.118296 cumulative IPC: 0.122818 (Simulation time: 0 hr 34 min 47 sec) 
Heartbeat CPU 0 instructions: 190000001 cycles: 1163581734 heartbeat IPC: 0.118753 cumulative IPC: 0.122519 (Simulation time: 0 hr 36 min 37 sec) 
Heartbeat CPU 0 instructions: 200000001 cycles: 1249037510 heartbeat IPC: 0.11702 cumulative IPC: 0.122136 (Simulation time: 0 hr 38 min 28 sec) 
Heartbeat CPU 0 instructions: 210000002 cycles: 1330981173 heartbeat IPC: 0.122035 cumulative IPC: 0.12213 (Simulation time: 0 hr 40 min 12 sec) 
Heartbeat CPU 0 instructions: 220000000 cycles: 1412396960 heartbeat IPC: 0.122826 cumulative IPC: 0.122171 (Simulation time: 0 hr 41 min 54 sec) 
Heartbeat CPU 0 instructions: 230000002 cycles: 1497941372 heartbeat IPC: 0.116898 cumulative IPC: 0.121865 (Simulation time: 0 hr 43 min 40 sec) 
Heartbeat CPU 0 instructions: 240000001 cycles: 1578740100 heartbeat IPC: 0.123764 cumulative IPC: 0.121964 (Simulation time: 0 hr 45 min 21 sec) 
Heartbeat CPU 0 instructions: 250000001 cycles: 1660958791 heartbeat IPC: 0.121627 cumulative IPC: 0.121947 (Simulation time: 0 hr 47 min 3 sec) 
Finished CPU 0 instructions: 200000000 cycles: 1640059380 cumulative IPC: 0.121947 (Simulation time: 0 hr 47 min 3 sec) 
 Instruction ID: 250000342

ChampSim completed all CPUs

Region of Interest Statistics

CPU 0 cumulative IPC: 0.121947 instructions: 200000000 cycles: 1640059380
ITLB SPEC fills:          0  NON-SPEC fills:          0
ITLB Test counter :          0
ITLB Leapfrog:          0
ITLB MSHR merge:          0
ITLB TOTAL     ACCESS:   43414637  HIT:   43414637  MISS:          0  HIT %:        100  MISS %:          0   MPKI: 0
ITLB LOAD TRANSLATION NON_SPEC    ACCESS:   43414637  HIT:   43414637  MISS:          0  HIT %:        100  MISS %:          0   MPKI: 0
ITLB PREFETCH  REQUESTED:          0  ISSUED:          0  USEFUL:          0  USELESS:          0
ITLB USEFUL LOAD PREFETCHES:          0 PREFETCH ISSUED TO LOWER LEVEL:          0  ACCURACY: -nan
ITLB TIMELY PREFETCHES:          0 LATE PREFETCHES: 0 DROPPED PREFETCHES: 0
ITLB COMMIT LATE PREFETCHES: 0 NORMAL LATE: 0 MISSED OPPORTUNITY: 0 UNCOVERED: 0
ITLB PREFETCHES SAME FILL-ORIGIN LEVEL: 0 DIFFERENT FILL-ORIGIN LEVEL: 0
ITLB AVERAGE MISS LATENCY: -nan cycles
ITLB AVERAGE MISS LATENCY LOAD: -nan cycles
ITLB AVERAGE MISS LATENCY PREFETCH: -nan cycles
ITLB AVERAGE MSHR OCCUPANCY: 0
ITLB MSHR FULL: 0
ITLB RQ	ACCESS:   52451545	FORWARD:          0	MERGED:    9036908	TO_CACHE:   43414637

DTLB SPEC fills:          0  NON-SPEC fills:          0
DTLB Test counter :          0
DTLB Leapfrog:          0
DTLB MSHR merge:          0
DTLB TOTAL     ACCESS:   69267580  HIT:   68466961  MISS:     800619  HIT %:    98.8442  MISS %:    1.15584   MPKI: 4.0031
DTLB LOAD TRANSLATION NON_SPEC    ACCESS:   69267580  HIT:   68466961  MISS:     800619  HIT %:    98.8442  MISS %:    1.15584   MPKI: 4.0031
DTLB PREFETCH  REQUESTED:          0  ISSUED:          0  USEFUL:          0  USELESS:          0
DTLB USEFUL LOAD PREFETCHES:          0 PREFETCH ISSUED TO LOWER LEVEL:          0  ACCURACY: -nan
DTLB TIMELY PREFETCHES:          0 LATE PREFETCHES: 0 DROPPED PREFETCHES: 0
DTLB COMMIT LATE PREFETCHES: 0 NORMAL LATE: 0 MISSED OPPORTUNITY: 0 UNCOVERED: 0
DTLB PREFETCHES SAME FILL-ORIGIN LEVEL: 0 DIFFERENT FILL-ORIGIN LEVEL: 0
DTLB AVERAGE MISS LATENCY: 14.4336 cycles
DTLB AVERAGE MISS LATENCY LOAD: -nan cycles
DTLB AVERAGE MISS LATENCY PREFETCH: -nan cycles
DTLB AVERAGE MSHR OCCUPANCY: 0.0159961
DTLB MSHR FULL: 0
DTLB RQ	ACCESS:   85418061	FORWARD:          0	MERGED:   16115448	TO_CACHE:   69302613

STLB SPEC fills:          0  NON-SPEC fills:          0
STLB Test counter :          0
STLB Leapfrog:          0
STLB MSHR merge:          0
STLB TOTAL     ACCESS:   22958095  HIT:   22945804  MISS:      12291  HIT %:    99.9465  MISS %:  0.0535367   MPKI: 0.061455
STLB LOAD TRANSLATION NON_SPEC    ACCESS:     800619  HIT:     788331  MISS:      12288  HIT %:    98.4652  MISS %:    1.53481   MPKI: 0.06144
STLB TRANSLATION FROM L1D PREFETCHER NON_SPEC    ACCESS:   22157476  HIT:   22157473  MISS:          3  HIT %:        100  MISS %: 1.35394e-05   MPKI: 1.5e-05
STLB PREFETCH  REQUESTED:          0  ISSUED:          0  USEFUL:          3  USELESS:          0
STLB USEFUL LOAD PREFETCHES:          3 PREFETCH ISSUED TO LOWER LEVEL:          0  ACCURACY: inf
STLB TIMELY PREFETCHES:          3 LATE PREFETCHES: 0 DROPPED PREFETCHES: 0
STLB COMMIT LATE PREFETCHES: 0 NORMAL LATE: 0 MISSED OPPORTUNITY: 0 UNCOVERED: 0
STLB PREFETCHES SAME FILL-ORIGIN LEVEL: 0 DIFFERENT FILL-ORIGIN LEVEL: 0
STLB AVERAGE MISS LATENCY: 353.345 cycles
STLB AVERAGE MISS LATENCY LOAD: -nan cycles
STLB AVERAGE MISS LATENCY PREFETCH: -nan cycles
STLB AVERAGE MSHR OCCUPANCY: 0.0021003
STLB MSHR FULL: 0
STLB RQ	ACCESS:   74557735	FORWARD:          0	MERGED:   51599640	TO_CACHE:   22958095

STLB Hit, L1D data hit: 0
STLB Hit, L2C data hit: 0
STLB Hit, LLC data hit: 0
STLB Hit, LLC data miss: 0
STLB STLB hints to L2: 0
L0D SPEC fills:   42345834  NON-SPEC fills:          0
L0D TimeGuard Request with older TS:    2481586 Restricted eviction:     859098 read:    2650145
L0D Test counter :          0
L0D Leapfrog:          0
L0D MSHR merge:    3899833
L0D TOTAL     ACCESS:   67999527  HIT:   16217427  MISS:   51782100  HIT %:    23.8493  MISS %:    76.1507   MPKI: 258.911
L0D LOAD      TOTAL       ACCESS:   67999527  HIT:   16217427  MISS:   51782100  HIT %:    23.8493  MISS %:    76.1507   MPKI: 258.911
L0D LOAD      NON_SPEC    ACCESS:    9347330  HIT:     770157  MISS:    8577173  HIT %:    8.23933  MISS %:    91.7607   MPKI: 42.8859
L0D LOAD      SPEC        ACCESS:   58652197  HIT:   15447270  MISS:   43204927  HIT %:    26.3371  MISS %:    73.6629   MPKI: 216.025
L0D PREFETCH  REQUESTED:          0  ISSUED:          0  USEFUL:          0  USELESS:          0
L0D USEFUL LOAD PREFETCHES:          0 PREFETCH ISSUED TO LOWER LEVEL:          0  ACCURACY: -nan
L0D TIMELY PREFETCHES:          0 LATE PREFETCHES: 0 DROPPED PREFETCHES: 0
L0D COMMIT LATE PREFETCHES: 0 NORMAL LATE: 0 MISSED OPPORTUNITY: 0 UNCOVERED: 51782100
L0D PREFETCHES SAME FILL-ORIGIN LEVEL: 0 DIFFERENT FILL-ORIGIN LEVEL: 0
L0D AVERAGE MISS LATENCY: 106.733 cycles
L0D AVERAGE MISS LATENCY LOAD: 106.733 cycles
L0D AVERAGE MISS LATENCY PREFETCH: -nan cycles
L0D AVERAGE MSHR OCCUPANCY: 5.24164
L0D MSHR FULL: 0.386615
L0D RQ	ACCESS:   83210366	FORWARD:          0	MERGED:   11311007	TO_CACHE:   71899359
L0D WQ	ACCESS:   13518702	FORWARD:          0	MERGED:          0	TO_CACHE:   13518702

L1D SPEC fills:          0  NON-SPEC fills:     999780
L1D Test counter :          0
L1D Leapfrog:          0
L1D MSHR merge:    7112966
L1D TOTAL     ACCESS:  184286231  HIT:  117802135  MISS:   66484096  HIT %:    63.9235  MISS %:    36.0765   MPKI: 332.42
L1D LOAD      TOTAL       ACCESS:   51774360  HIT:   34907308  MISS:   16867052  HIT %:     67.422  MISS %:     32.578   MPKI: 84.3353
L1D LOAD      NON_SPEC    ACCESS:    8571910  HIT:    7572130  MISS:     999780  HIT %:    88.3366  MISS %:    11.6634   MPKI: 4.9989
L1D LOAD      SPEC        ACCESS:   43202450  HIT:   27335178  MISS:   15867272  HIT %:    63.2723  MISS %:    36.7277   MPKI: 79.3364
L1D RFO       NON_SPEC    ACCESS:    9916311  HIT:    9512969  MISS:     403342  HIT %:    95.9325  MISS %:    4.06746   MPKI: 2.01671
L1D PREFETCH  NON_SPEC    ACCESS:   59260647  HIT:   23709491  MISS:   35551156  HIT %:    40.0088  MISS %:    59.9912   MPKI: 177.756
L1D COMMIT LOAD NON_SPEC    ACCESS:   23471260  HIT:   22919364  MISS:     551896  HIT %:    97.6486  MISS %:    2.35137   MPKI: 2.75948
L1D COMMIT WRITE NON_SPEC    ACCESS:   39863653  HIT:   26753003  MISS:   13110650  HIT %:    67.1113  MISS %:    32.8887   MPKI: 65.5533
L1D PREFETCH  REQUESTED:   95406182  ISSUED:   73913901  USEFUL:   15156036  USELESS:   20395103
L1D USEFUL LOAD PREFETCHES:   15156036 PREFETCH ISSUED TO LOWER LEVEL:   42796903  ACCURACY: 35.4139
L1D TIMELY PREFETCHES:   15156036 LATE PREFETCHES: 7245134 DROPPED PREFETCHES: 0
L1D COMMIT LATE PREFETCHES: 0 NORMAL LATE: 7245134 MISSED OPPORTUNITY: 0 UNCOVERED: 9621918
L1D PREFETCHES SAME FILL-ORIGIN LEVEL: 42796903 DIFFERENT FILL-ORIGIN LEVEL: 0
L1D AVERAGE MISS LATENCY: 234.352 cycles
L1D AVERAGE MISS LATENCY LOAD: 274.101 cycles
L1D AVERAGE MISS LATENCY PREFETCH: 301.296 cycles
L1D AVERAGE MSHR OCCUPANCY: 15.3805
L1D MSHR FULL: 0.908855
L1D RQ	ACCESS:   85401182	FORWARD:          0	MERGED:    7400868	TO_CACHE:   75295905
L1D WQ	ACCESS:   53685584	FORWARD:    2704409	MERGED:    2536116	TO_CACHE:   51149468
L1D PQ	ACCESS:   73913901	FORWARD:          0	MERGED:     156785	TO_CACHE:   73757116

L1D UNIQUE REGIONS ACCESSED: 0
L1D REGIONS CONFLICTS: 0
L1D Cross Page Prefetch Requests: 0
L1D Same Page Prefetch Requests: 88882224
L1D ROI Sum of L1D PQ occupancy: 7889299441
L1D PREFETCHES PUSHED FROM L2C: 0
L1I SPEC fills:          0  NON-SPEC fills:          0
L1I Test counter :          0
L1I Leapfrog:          0
L1I MSHR merge:          0
L1I TOTAL     ACCESS:   52451543  HIT:   52451543  MISS:          0  HIT %:        100  MISS %:          0   MPKI: 0
L1I LOAD      TOTAL       ACCESS:   52451543  HIT:   52451543  MISS:          0  HIT %:        100  MISS %:          0   MPKI: 0
L1I LOAD      NON_SPEC    ACCESS:   52451543  HIT:   52451543  MISS:          0  HIT %:        100  MISS %:          0   MPKI: 0
L1I PREFETCH  REQUESTED:          0  ISSUED:          0  USEFUL:          0  USELESS:          0
L1I USEFUL LOAD PREFETCHES:          0 PREFETCH ISSUED TO LOWER LEVEL:          0  ACCURACY: -nan
L1I TIMELY PREFETCHES:          0 LATE PREFETCHES: 0 DROPPED PREFETCHES: 0
L1I COMMIT LATE PREFETCHES: 0 NORMAL LATE: 0 MISSED OPPORTUNITY: 0 UNCOVERED: 0
L1I PREFETCHES SAME FILL-ORIGIN LEVEL: 0 DIFFERENT FILL-ORIGIN LEVEL: 0
L1I AVERAGE MISS LATENCY: -nan cycles
L1I AVERAGE MISS LATENCY LOAD: -nan cycles
L1I AVERAGE MISS LATENCY PREFETCH: -nan cycles
L1I AVERAGE MSHR OCCUPANCY: 0
L1I MSHR FULL: 0
L1I RQ	ACCESS:   71435972	FORWARD:          0	MERGED:   18984427	TO_CACHE:   52451545

BTB SPEC fills:          0  NON-SPEC fills:          0
BTB Test counter :          0
BTB Leapfrog:          0
BTB MSHR merge:          0
BTB TOTAL     ACCESS:   35943470  HIT:   35943438  MISS:         32  HIT %:    99.9999  MISS %: 8.90287e-05   MPKI: 0.00016
BTB BRANCH_DIRECT_JUMP	ACCESS:    8413977  HIT:    8413971  MISS:          6
BTB BRANCH_INDIRECT	ACCESS:          0  HIT:          0  MISS:          0
BTB BRANCH_CONDITIONAL	ACCESS:   27526337  HIT:   27526315  MISS:         22
BTB BRANCH_DIRECT_CALL	ACCESS:       1578  HIT:       1576  MISS:          2
BTB BRANCH_INDIRECT_CALL	ACCESS:          0  HIT:          0  MISS:          0
BTB BRANCH_RETURN	ACCESS:       1578  HIT:       1576  MISS:          2
BTB BRANCH_OTHER ACCESS:          0  HIT:          0  MISS:          0

L2C SPEC fills:          0  NON-SPEC fills:     542586
L2C Test counter :          0
L2C Leapfrog:          0
L2C MSHR merge:          0
L2C TOTAL     ACCESS:   79887776  HIT:   22123675  MISS:   57764101  HIT %:    27.6934  MISS %:    72.3066   MPKI: 288.821
L2C LOAD      TOTAL       ACCESS:    9761824  HIT:     312263  MISS:    9449561  HIT %:    3.19882  MISS %:    96.8012   MPKI: 47.2478
L2C LOAD      NON_SPEC    ACCESS:     548209  HIT:       5623  MISS:     542586  HIT %:     1.0257  MISS %:    98.9743   MPKI: 2.71293
L2C LOAD      SPEC        ACCESS:    9213615  HIT:     306640  MISS:    8906975  HIT %:    3.32812  MISS %:    96.6719   MPKI: 44.5349
L2C RFO       NON_SPEC    ACCESS:     402735  HIT:       1855  MISS:     400880  HIT %:   0.460601  MISS %:    99.5394   MPKI: 2.0044
L2C PREFETCH  NON_SPEC    ACCESS:   42796874  HIT:    1301901  MISS:   41494973  HIT %:    3.04205  MISS %:     96.958   MPKI: 207.475
L2C WRITEBACK NON_SPEC    ACCESS:     458102  HIT:     456893  MISS:       1209  HIT %:    99.7361  MISS %:   0.263915   MPKI: 0.006045
L2C CLEAN_EVICTION NON_SPEC    ACCESS:   25994823  HIT:   19810283  MISS:    6184540  HIT %:    76.2086  MISS %:    23.7914   MPKI: 30.9227
L2C COMMIT LOAD NON_SPEC    ACCESS:     411988  HIT:     184658  MISS:     227330  HIT %:    44.8212  MISS %:    55.1788   MPKI: 1.13665
L2C LOAD TRANSLATION NON_SPEC    ACCESS:      61415  HIT:      55810  MISS:       5605  HIT %:    90.8736  MISS %:    9.12643   MPKI: 0.028025
L2C TRANSLATION FROM L1D PREFETCHER NON_SPEC    ACCESS:         15  HIT:         12  MISS:          3  HIT %:         80  MISS %:         20   MPKI: 1.5e-05
L2C PREFETCH  REQUESTED:          0  ISSUED:          0  USEFUL:     482506  USELESS:   41013141
L2C USEFUL LOAD PREFETCHES:     482506 PREFETCH ISSUED TO LOWER LEVEL:   41494984  ACCURACY: 1.16281
L2C TIMELY PREFETCHES:     482506 LATE PREFETCHES: 0 DROPPED PREFETCHES: 0
L2C COMMIT LATE PREFETCHES: 0 NORMAL LATE: 0 MISSED OPPORTUNITY: 0 UNCOVERED: 9449561
L2C PREFETCHES SAME FILL-ORIGIN LEVEL: 0 DIFFERENT FILL-ORIGIN LEVEL: 0
L2C AVERAGE MISS LATENCY: 263.485 cycles
L2C AVERAGE MISS LATENCY LOAD: 259.479 cycles
L2C AVERAGE MISS LATENCY PREFETCH: 302.021 cycles
L2C AVERAGE MSHR OCCUPANCY: 11.1967
L2C MSHR FULL: 0
L2C RQ	ACCESS:   10637986	FORWARD:          0	MERGED:          0	TO_CACHE:   10637979
L2C WQ	ACCESS:   26453071	FORWARD:         24	MERGED:        144	TO_CACHE:   26452927
L2C PQ	ACCESS:   42796903	FORWARD:          0	MERGED:          0	TO_CACHE:   42796886

L2C Instructions Evicting Data 0
L2C Translations Evicting Data 5608
L2C Data Evicting Data 42660672
L2C Instructions Evicting Instructions 0
L2C Translations Evicting Instructions 0
L2C Data Evicting Instructions 0
L2C Instructions Evicting Translations 0
L2C Translations Evicting Translations 0
L2C Data Evicting Translations 5097
L2C Dense regions hint from L2: 0
PSCL5 SPEC fills:          0  NON-SPEC fills:          0
PSCL5 Test counter :          0
PSCL5 Leapfrog:          0
PSCL5 MSHR merge:          0
PSCL5 TOTAL     ACCESS:          0  HIT:          0  MISS:          0  HIT %:       -nan  MISS %:       -nan   MPKI: 0
PSCL5 PREFETCH  REQUESTED:          0  ISSUED:          0  USEFUL:          0  USELESS:          0
PSCL5 USEFUL LOAD PREFETCHES:          0 PREFETCH ISSUED TO LOWER LEVEL:          0  ACCURACY: -nan
PSCL5 TIMELY PREFETCHES:          0 LATE PREFETCHES: 0 DROPPED PREFETCHES: 0
PSCL5 COMMIT LATE PREFETCHES: 0 NORMAL LATE: 0 MISSED OPPORTUNITY: 0 UNCOVERED: 0
PSCL5 PREFETCHES SAME FILL-ORIGIN LEVEL: 0 DIFFERENT FILL-ORIGIN LEVEL: 0

PSCL4 SPEC fills:          0  NON-SPEC fills:          0
PSCL4 Test counter :          0
PSCL4 Leapfrog:          0
PSCL4 MSHR merge:          0
PSCL4 TOTAL     ACCESS:          0  HIT:          0  MISS:          0  HIT %:       -nan  MISS %:       -nan   MPKI: 0
PSCL4 PREFETCH  REQUESTED:          0  ISSUED:          0  USEFUL:          0  USELESS:          0
PSCL4 USEFUL LOAD PREFETCHES:          0 PREFETCH ISSUED TO LOWER LEVEL:          0  ACCURACY: -nan
PSCL4 TIMELY PREFETCHES:          0 LATE PREFETCHES: 0 DROPPED PREFETCHES: 0
PSCL4 COMMIT LATE PREFETCHES: 0 NORMAL LATE: 0 MISSED OPPORTUNITY: 0 UNCOVERED: 0
PSCL4 PREFETCHES SAME FILL-ORIGIN LEVEL: 0 DIFFERENT FILL-ORIGIN LEVEL: 0

PSCL3 SPEC fills:          0  NON-SPEC fills:          0
PSCL3 Test counter :          0
PSCL3 Leapfrog:          0
PSCL3 MSHR merge:          0
PSCL3 TOTAL     ACCESS:          0  HIT:          0  MISS:          0  HIT %:       -nan  MISS %:       -nan   MPKI: 0
PSCL3 PREFETCH  REQUESTED:          0  ISSUED:          0  USEFUL:          0  USELESS:          0
PSCL3 USEFUL LOAD PREFETCHES:          0 PREFETCH ISSUED TO LOWER LEVEL:          0  ACCURACY: -nan
PSCL3 TIMELY PREFETCHES:          0 LATE PREFETCHES: 0 DROPPED PREFETCHES: 0
PSCL3 COMMIT LATE PREFETCHES: 0 NORMAL LATE: 0 MISSED OPPORTUNITY: 0 UNCOVERED: 0
PSCL3 PREFETCHES SAME FILL-ORIGIN LEVEL: 0 DIFFERENT FILL-ORIGIN LEVEL: 0

PSCL2 SPEC fills:          0  NON-SPEC fills:          0
PSCL2 Test counter :          0
PSCL2 Leapfrog:          0
PSCL2 MSHR merge:          0
PSCL2 TOTAL     ACCESS:          0  HIT:          0  MISS:          0  HIT %:       -nan  MISS %:       -nan   MPKI: 0
PSCL2 PREFETCH  REQUESTED:          0  ISSUED:          0  USEFUL:          0  USELESS:          0
PSCL2 USEFUL LOAD PREFETCHES:          0 PREFETCH ISSUED TO LOWER LEVEL:          0  ACCURACY: -nan
PSCL2 TIMELY PREFETCHES:          0 LATE PREFETCHES: 0 DROPPED PREFETCHES: 0
PSCL2 COMMIT LATE PREFETCHES: 0 NORMAL LATE: 0 MISSED OPPORTUNITY: 0 UNCOVERED: 0
PSCL2 PREFETCHES SAME FILL-ORIGIN LEVEL: 0 DIFFERENT FILL-ORIGIN LEVEL: 0

LLC SPEC fills:          0  NON-SPEC fills:     523146
LLC Test counter :          0
LLC Leapfrog:          0
LLC MSHR merge:          0
LLC TOTAL     ACCESS:   78011362  HIT:   20490633  MISS:   57520729  HIT %:    26.2662  MISS %:    73.7338   MPKI: 287.604
LLC LOAD      TOTAL       ACCESS:    9449561  HIT:     201376  MISS:    9248185  HIT %:    2.13106  MISS %:    97.8689   MPKI: 46.2409
LLC LOAD      NON_SPEC    ACCESS:     542586  HIT:      19440  MISS:     523146  HIT %:    3.58284  MISS %:    96.4172   MPKI: 2.61573
LLC LOAD      SPEC        ACCESS:    8906975  HIT:     181936  MISS:    8725039  HIT %:    2.04262  MISS %:    97.9574   MPKI: 43.6252
LLC RFO       NON_SPEC    ACCESS:     400880  HIT:         80  MISS:     400800  HIT %:  0.0199561  MISS %:      99.98   MPKI: 2.004
LLC PREFETCH  NON_SPEC    ACCESS:   41494975  HIT:       6967  MISS:   41488008  HIT %:    0.01679  MISS %:    99.9832   MPKI: 207.44
LLC WRITEBACK NON_SPEC    ACCESS:     457389  HIT:     456105  MISS:       1284  HIT %:    99.7193  MISS %:   0.280724   MPKI: 0.00642
LLC CLEAN_EVICTION NON_SPEC    ACCESS:   25975619  HIT:   19817751  MISS:    6157868  HIT %:    76.2937  MISS %:    23.7063   MPKI: 30.7893
LLC COMMIT LOAD NON_SPEC    ACCESS:     227330  HIT:       7632  MISS:     219698  HIT %:    3.35723  MISS %:    96.6428   MPKI: 1.09849
LLC LOAD TRANSLATION NON_SPEC    ACCESS:       5605  HIT:        722  MISS:       4883  HIT %:    12.8814  MISS %:    87.1186   MPKI: 0.024415
LLC TRANSLATION FROM L1D PREFETCHER NON_SPEC    ACCESS:          3  HIT:          0  MISS:          3  HIT %:          0  MISS %:        100   MPKI: 1.5e-05
LLC PREFETCH  REQUESTED:          0  ISSUED:          0  USEFUL:       1782  USELESS:   41487390
LLC USEFUL LOAD PREFETCHES:       1782 PREFETCH ISSUED TO LOWER LEVEL:   41488014  ACCURACY: 0.00429522
LLC TIMELY PREFETCHES:       1782 LATE PREFETCHES: 0 DROPPED PREFETCHES: 0
LLC COMMIT LATE PREFETCHES: 0 NORMAL LATE: 0 MISSED OPPORTUNITY: 0 UNCOVERED: 9248185
LLC PREFETCHES SAME FILL-ORIGIN LEVEL: 0 DIFFERENT FILL-ORIGIN LEVEL: 0
LLC AVERAGE MISS LATENCY: 239.067 cycles
LLC AVERAGE MISS LATENCY LOAD: 243.139 cycles
LLC AVERAGE MISS LATENCY PREFETCH: 272.035 cycles
LLC AVERAGE MSHR OCCUPANCY: 9.41446
LLC MSHR FULL: 0
LLC RQ	ACCESS:   10083381	FORWARD:          0	MERGED:          0	TO_CACHE:   10083381
LLC WQ	ACCESS:   26433007	FORWARD:          0	MERGED:          0	TO_CACHE:   26433007
LLC PQ	ACCESS:   41494984	FORWARD:          0	MERGED:          0	TO_CACHE:   41494984

LLC Dense regions hint to LLC: 0

RAW hits: 8322581
Loads Generated: 91532953
Loads sent to L1D: 83210366
Stores Generated: 13518699
Stores sent to L1D: 13518702
Major fault: 0 Minor fault: 17320
Allocated PAGES: 17320
Total Load insts: 103508751
Total Non-spec loads: 10173627
Percentage of speculative loads: 90.1712

LeapFrogging counter: 121892011
Commit hits: 40166882 miss: 33619080
Commit hit %: 54.437 miss %: 45.563
Commits not translated: 0
Loads retired: 16867052
Stores retired: 13518702
Cache fills: 16867052
L1D response latency: 274.101 cycles
Load retirement latency: 656.858 cycles
OOO test counter: 0
Discarded buffer inserts: 40166882 hits: 155330 hit %: 0.386712
Filter prediction accuracy: -nan

stream: 
stream:times selected: 43987152
stream:pref_filled: 39820046
stream:pref_useful: 16624772
stream:pref_late: 509554
stream:misses: 1381951
stream:misses_by_poll: 0

CS: 
CS:times selected: 6023912
CS:pref_filled: 233958
CS:pref_useful: 176526
CS:pref_late: 433
CS:misses: 314349
CS:misses_by_poll: 14257

CPLX: 
CPLX:times selected: 37959917
CPLX:pref_filled: 6208952
CPLX:pref_useful: 4287334
CPLX:pref_late: 43349
CPLX:misses: 16738419
CPLX:misses_by_poll: 323344

NL_L1: 
NL:times selected: 123109
NL:pref_filled: 1522
NL:pref_useful: 881
NL:pref_late: 1
NL:misses: 87728
NL:misses_by_poll: 0

total selections: 88094090
total_filled: 35551156
total_useful: 15156036
total_late: 593400
total_polluted: 337601
total_misses_after_warmup: 16874795
conflicts: 0
Degree Incremented Times: 195790
Degree Decremented Times: 0

L1 IP Table Write Accesses: 51781538
L1 IP Table Read Accesses: 51781538
L1 RST Write Accesses: 36030290
L1 RST Read Accesses: 72060580
L1 CSPT Write Accesses: 36030290
L1 CSPT Read Accesses: 122799113
L1 RR Filter Tag Write Accesses: 95406182
L1 RR Filter Tag Read Accesses: 6250722186
L1 IP Table Tag Write Accesses: 51782103
L1 IP Table Tag Read Accesses: 51782103
L1 RST Tag Write Accesses: 0
L1 RST Tag Read Accesses: 324080761
L1 RR Filter Write Accesses: 0
L1 RR Filter Read Accesses: 256075179
test: 2678160

DRAM Statistics
 CHANNEL 0
 RQ ROW_BUFFER_HIT:   31037083  ROW_BUFFER_MISS:   20324171
 DBUS_CONGESTED:       6180
 WQ ROW_BUFFER_HIT:    6500878  ROW_BUFFER_MISS:   19900955  FULL:       4224

 AVG_CONGESTED_CYCLE: 5
 All warmup complete: 2
Channel 0 Bank busy for read cycles: 0
Channel 0 Bank busy for write cycles: 0
Channel 0
Rank 0
0banks busy for read cycles: 216807784
0banks busy for write cycles: 252836
1banks busy for read cycles: 44299938
1banks busy for write cycles: 26607599
2banks busy for read cycles: 43116777
2banks busy for write cycles: 18415586
3banks busy for read cycles: 46399545
3banks busy for write cycles: 15921175
4banks busy for read cycles: 61258724
4banks busy for write cycles: 15326278
5banks busy for read cycles: 101935141
5banks busy for write cycles: 16299556
6banks busy for read cycles: 146208652
6banks busy for write cycles: 20017725
7banks busy for read cycles: 176925069
7banks busy for write cycles: 55057161
8banks busy for read cycles: 220016771
8banks busy for write cycles: 415193064

CPU 0 Branch Prediction Accuracy: 98.8241% MPKI: 2.1554 Average ROB Occupancy at Mispredict: 68.6487
Branch types
NOT_BRANCH: 163339812 81.6699%
BRANCH_DIRECT_JUMP: 8413977 4.20699%
BRANCH_INDIRECT: 0 0%
BRANCH_CONDITIONAL: 28243014 14.1215%
BRANCH_DIRECT_CALL: 1578 0.000789%
BRANCH_INDIRECT_CALL: 0 0%
BRANCH_RETURN: 1578 0.000789%
BRANCH_OTHER: 0 0%

DRAM PAGES: 1048576
Allocated PAGES: 17320
