
*** ChampSim Multicore Out-of-Order Simulator ***

Warmup Instructions: 50000000
Simulation Instructions: 200000000
Number of CPUs: 1
LLC sets: 2048
LLC ways: 16
L0D sets: 16
L0D ways: 2
ROB size: 352
LQ size: 128
SQ size: 72
Secure Berti: OFF
Berti: OFF
Berti Fill: OFF
On commit prefetching: OFF
Hit-based filter: OFF
Time-guarding: ON
Free-slotting: ON
Leap-frogging: ON
Train prefetcher on L0D bypass: OFF
No translation penalty for prefetchers: OFF
Prefetch to L0D only: OFF
Prefetch to L1D only: OFF
Clean evictions: ON
Commit loads: ON
Commit write: ON
Fill commit loads to L2C, LLC: ON
DRAM IO FREQUENCY: 6400
ROB SIZE: 352
Off-chip DRAM Size: 4096 MB Channels: 1 Width: 64-bit Data Rate: 6400 MT/s
CPU 0 runs /home/sumon/secure_berti/GhostMinion/../../traces/spec/605.mcf_s-782B.champsimtrace.xz
.xz
BTB has LRU replacement policy
ITLB has LRU replacement policy
DTLB has LRU replacement policy
STLB has LRU replacement policy
L1I has LRU replacement policy
L0D has LRU replacement policy
IP Table Entries: 1024
CSPT Entries: 128
RR_ENTRIES: 32
RST_ENTRIES: 8
L1D has LRU replacement policy
L2C has LRU replacement policy
LLC has LRU replacement policy
Heartbeat CPU 0 instructions: 10000001 cycles: 5016054 heartbeat IPC: 1.9936 cumulative IPC: 1.9936 (Simulation time: 0 hr 1 min 36 sec) 
Heartbeat CPU 0 instructions: 20000000 cycles: 9842824 heartbeat IPC: 2.07178 cumulative IPC: 2.03194 (Simulation time: 0 hr 2 min 39 sec) 
Heartbeat CPU 0 instructions: 30000000 cycles: 14668573 heartbeat IPC: 2.07222 cumulative IPC: 2.04519 (Simulation time: 0 hr 3 min 44 sec) 
Heartbeat CPU 0 instructions: 40000002 cycles: 19439206 heartbeat IPC: 2.09616 cumulative IPC: 2.0577 (Simulation time: 0 hr 4 min 52 sec) 
Heartbeat CPU 0 instructions: 50000000 cycles: 24316015 heartbeat IPC: 2.05052 cumulative IPC: 2.05626 (Simulation time: 0 hr 6 min 1 sec) 

Warmup complete CPU 0 instructions: 50000001 cycles: 24316016 (Simulation time: 0 hr 6 min 1 sec) 

Heartbeat CPU 0 instructions: 60000000 cycles: 96358333 heartbeat IPC: 0.138807 cumulative IPC: 0.138807 (Simulation time: 0 hr 7 min 46 sec) 
Heartbeat CPU 0 instructions: 70000002 cycles: 166825828 heartbeat IPC: 0.141909 cumulative IPC: 0.140341 (Simulation time: 0 hr 9 min 28 sec) 
Heartbeat CPU 0 instructions: 80000002 cycles: 236874367 heartbeat IPC: 0.142758 cumulative IPC: 0.141138 (Simulation time: 0 hr 11 min 15 sec) 
Heartbeat CPU 0 instructions: 90000000 cycles: 310569633 heartbeat IPC: 0.135694 cumulative IPC: 0.139736 (Simulation time: 0 hr 13 min 18 sec) 
Heartbeat CPU 0 instructions: 100000001 cycles: 384580679 heartbeat IPC: 0.135115 cumulative IPC: 0.138787 (Simulation time: 0 hr 15 min 19 sec) 
Heartbeat CPU 0 instructions: 110000000 cycles: 460021453 heartbeat IPC: 0.132554 cumulative IPC: 0.137708 (Simulation time: 0 hr 17 min 18 sec) 
Heartbeat CPU 0 instructions: 120000000 cycles: 532065951 heartbeat IPC: 0.138803 cumulative IPC: 0.137863 (Simulation time: 0 hr 19 min 14 sec) 
Heartbeat CPU 0 instructions: 130000000 cycles: 606628819 heartbeat IPC: 0.134115 cumulative IPC: 0.137383 (Simulation time: 0 hr 21 min 12 sec) 
Heartbeat CPU 0 instructions: 140000001 cycles: 678424013 heartbeat IPC: 0.139285 cumulative IPC: 0.137592 (Simulation time: 0 hr 23 min 3 sec) 
Heartbeat CPU 0 instructions: 150000000 cycles: 751115715 heartbeat IPC: 0.137567 cumulative IPC: 0.137589 (Simulation time: 0 hr 24 min 43 sec) 
Heartbeat CPU 0 instructions: 160000002 cycles: 825431788 heartbeat IPC: 0.13456 cumulative IPC: 0.137308 (Simulation time: 0 hr 26 min 9 sec) 
Heartbeat CPU 0 instructions: 170000001 cycles: 901672392 heartbeat IPC: 0.131164 cumulative IPC: 0.136775 (Simulation time: 0 hr 27 min 28 sec) 
Heartbeat CPU 0 instructions: 180000002 cycles: 977186824 heartbeat IPC: 0.132425 cumulative IPC: 0.13643 (Simulation time: 0 hr 28 min 48 sec) 
Heartbeat CPU 0 instructions: 190000003 cycles: 1057426553 heartbeat IPC: 0.124627 cumulative IPC: 0.135513 (Simulation time: 0 hr 30 min 6 sec) 
Heartbeat CPU 0 instructions: 200000002 cycles: 1137642158 heartbeat IPC: 0.124664 cumulative IPC: 0.134731 (Simulation time: 0 hr 31 min 24 sec) 
Heartbeat CPU 0 instructions: 210000003 cycles: 1216557737 heartbeat IPC: 0.126718 cumulative IPC: 0.134201 (Simulation time: 0 hr 32 min 41 sec) 
Heartbeat CPU 0 instructions: 220000000 cycles: 1294240066 heartbeat IPC: 0.128729 cumulative IPC: 0.133866 (Simulation time: 0 hr 33 min 55 sec) 
Heartbeat CPU 0 instructions: 230000000 cycles: 1371685314 heartbeat IPC: 0.129123 cumulative IPC: 0.133594 (Simulation time: 0 hr 35 min 8 sec) 
Heartbeat CPU 0 instructions: 240000003 cycles: 1447885726 heartbeat IPC: 0.131233 cumulative IPC: 0.133467 (Simulation time: 0 hr 36 min 20 sec) 
Heartbeat CPU 0 instructions: 250000002 cycles: 1522500493 heartbeat IPC: 0.134022 cumulative IPC: 0.133495 (Simulation time: 0 hr 37 min 30 sec) 
Finished CPU 0 instructions: 200000001 cycles: 1498184477 cumulative IPC: 0.133495 (Simulation time: 0 hr 37 min 30 sec) 
 Instruction ID: 250000129

ChampSim completed all CPUs

Region of Interest Statistics

CPU 0 cumulative IPC: 0.133495 instructions: 200000001 cycles: 1498184477
ITLB SPEC fills:          0  NON-SPEC fills:          0
ITLB Test counter :          0
ITLB Leapfrog:          0
ITLB MSHR merge:          0
ITLB TOTAL     ACCESS:   32884596  HIT:   32884596  MISS:          0  HIT %:        100  MISS %:          0   MPKI: 0
ITLB LOAD TRANSLATION NON_SPEC    ACCESS:   32884596  HIT:   32884596  MISS:          0  HIT %:        100  MISS %:          0   MPKI: 0
ITLB PREFETCH  REQUESTED:          0  ISSUED:          0  USEFUL:          0  USELESS:          0
ITLB USEFUL LOAD PREFETCHES:          0 PREFETCH ISSUED TO LOWER LEVEL:          0  ACCURACY: -nan
ITLB TIMELY PREFETCHES:          0 LATE PREFETCHES: 0 DROPPED PREFETCHES: 0
ITLB COMMIT LATE PREFETCHES: 0 NORMAL LATE: 0 MISSED OPPORTUNITY: 0 UNCOVERED: 0
ITLB PREFETCHES SAME FILL-ORIGIN LEVEL: 0 DIFFERENT FILL-ORIGIN LEVEL: 0
ITLB AVERAGE MISS LATENCY: -nan cycles
ITLB AVERAGE MISS LATENCY LOAD: -nan cycles
ITLB AVERAGE MISS LATENCY PREFETCH: -nan cycles
ITLB AVERAGE MSHR OCCUPANCY: 0
ITLB MSHR FULL: 0
ITLB RQ	ACCESS:   33245120	FORWARD:          0	MERGED:     360524	TO_CACHE:   32884596

DTLB SPEC fills:          0  NON-SPEC fills:          0
DTLB Test counter :          0
DTLB Leapfrog:          0
DTLB MSHR merge:          0
DTLB TOTAL     ACCESS:   46079169  HIT:   28453546  MISS:   17625623  HIT %:    61.7493  MISS %:    38.2507   MPKI: 88.1281
DTLB LOAD TRANSLATION NON_SPEC    ACCESS:   46079169  HIT:   28453546  MISS:   17625623  HIT %:    61.7493  MISS %:    38.2507   MPKI: 88.1281
DTLB PREFETCH  REQUESTED:          0  ISSUED:          0  USEFUL:          0  USELESS:          0
DTLB USEFUL LOAD PREFETCHES:          0 PREFETCH ISSUED TO LOWER LEVEL:          0  ACCURACY: -nan
DTLB TIMELY PREFETCHES:          0 LATE PREFETCHES: 0 DROPPED PREFETCHES: 0
DTLB COMMIT LATE PREFETCHES: 0 NORMAL LATE: 0 MISSED OPPORTUNITY: 0 UNCOVERED: 0
DTLB PREFETCHES SAME FILL-ORIGIN LEVEL: 0 DIFFERENT FILL-ORIGIN LEVEL: 0
DTLB AVERAGE MISS LATENCY: 11.9781 cycles
DTLB AVERAGE MISS LATENCY LOAD: -nan cycles
DTLB AVERAGE MISS LATENCY PREFETCH: -nan cycles
DTLB AVERAGE MSHR OCCUPANCY: 0.224136
DTLB MSHR FULL: 1.95766e-06
DTLB RQ	ACCESS:   51757288	FORWARD:          0	MERGED:    5273311	TO_CACHE:   46483977

STLB SPEC fills:          0  NON-SPEC fills:          0
STLB Test counter :          0
STLB Leapfrog:          0
STLB MSHR merge:          0
STLB TOTAL     ACCESS:   45721834  HIT:   45484453  MISS:     237381  HIT %:    99.4808  MISS %:   0.519185   MPKI: 1.1869
STLB LOAD TRANSLATION NON_SPEC    ACCESS:   17625622  HIT:   17388241  MISS:     237381  HIT %:    98.6532  MISS %:     1.3468   MPKI: 1.1869
STLB TRANSLATION FROM L1D PREFETCHER NON_SPEC    ACCESS:   28096212  HIT:   28096212  MISS:          0  HIT %:        100  MISS %:          0   MPKI: 0
STLB PREFETCH  REQUESTED:          0  ISSUED:          0  USEFUL:          0  USELESS:          0
STLB USEFUL LOAD PREFETCHES:          0 PREFETCH ISSUED TO LOWER LEVEL:          0  ACCURACY: -nan
STLB TIMELY PREFETCHES:          0 LATE PREFETCHES: 0 DROPPED PREFETCHES: 0
STLB COMMIT LATE PREFETCHES: 0 NORMAL LATE: 0 MISSED OPPORTUNITY: 0 UNCOVERED: 0
STLB PREFETCHES SAME FILL-ORIGIN LEVEL: 0 DIFFERENT FILL-ORIGIN LEVEL: 0
STLB AVERAGE MISS LATENCY: 211.031 cycles
STLB AVERAGE MISS LATENCY LOAD: -nan cycles
STLB AVERAGE MISS LATENCY PREFETCH: -nan cycles
STLB AVERAGE MSHR OCCUPANCY: 0.0213848
STLB MSHR FULL: 0
STLB RQ	ACCESS:   51400121	FORWARD:          0	MERGED:    5678286	TO_CACHE:   45721835

STLB Hit, L1D data hit: 0
STLB Hit, L2C data hit: 0
STLB Hit, LLC data hit: 0
STLB Hit, LLC data miss: 0
STLB STLB hints to L2: 0
L0D SPEC fills:   30033281  NON-SPEC fills:          0
L0D TimeGuard Request with older TS:     993493 Restricted eviction:     617563 read:     119295
L0D Test counter :          0
L0D Leapfrog:          0
L0D MSHR merge:    5267623
L0D TOTAL     ACCESS:   42911222  HIT:    1632192  MISS:   41279030  HIT %:    3.80365  MISS %:    96.1964   MPKI: 206.395
L0D LOAD      TOTAL       ACCESS:   42911222  HIT:    1632192  MISS:   41279030  HIT %:    3.80365  MISS %:    96.1964   MPKI: 206.395
L0D LOAD      NON_SPEC    ACCESS:   10891965  HIT:     263770  MISS:   10628195  HIT %:    2.42169  MISS %:    97.5783   MPKI: 53.141
L0D LOAD      SPEC        ACCESS:   32019257  HIT:    1368422  MISS:   30650835  HIT %:    4.27375  MISS %:    95.7263   MPKI: 153.254
L0D PREFETCH  REQUESTED:          0  ISSUED:          0  USEFUL:          0  USELESS:          0
L0D USEFUL LOAD PREFETCHES:          0 PREFETCH ISSUED TO LOWER LEVEL:          0  ACCURACY: -nan
L0D TIMELY PREFETCHES:          0 LATE PREFETCHES: 0 DROPPED PREFETCHES: 0
L0D COMMIT LATE PREFETCHES: 0 NORMAL LATE: 0 MISSED OPPORTUNITY: 0 UNCOVERED: 41279030
L0D PREFETCHES SAME FILL-ORIGIN LEVEL: 0 DIFFERENT FILL-ORIGIN LEVEL: 0
L0D AVERAGE MISS LATENCY: 88.3178 cycles
L0D AVERAGE MISS LATENCY LOAD: 88.3178 cycles
L0D AVERAGE MISS LATENCY PREFETCH: -nan cycles
L0D AVERAGE MSHR OCCUPANCY: 5.19907
L0D MSHR FULL: 0.500515
L0D RQ	ACCESS:   71297417	FORWARD:          0	MERGED:   23118578	TO_CACHE:   48178839
L0D WQ	ACCESS:    3578449	FORWARD:          0	MERGED:          0	TO_CACHE:    3578449

L1D SPEC fills:          0  NON-SPEC fills:    6723954
L1D Test counter :          0
L1D Leapfrog:          0
L1D MSHR merge:    4127210
L1D TOTAL     ACCESS:  119096955  HIT:   49048962  MISS:   70047993  HIT %:    41.1841  MISS %:    58.8159   MPKI: 350.24
L1D LOAD      TOTAL       ACCESS:   41268433  HIT:   15417942  MISS:   25850491  HIT %:    37.3601  MISS %:    62.6399   MPKI: 129.252
L1D LOAD      NON_SPEC    ACCESS:   10626066  HIT:    3902112  MISS:    6723954  HIT %:    36.7221  MISS %:    63.2779   MPKI: 33.6198
L1D LOAD      SPEC        ACCESS:   30642367  HIT:   11515830  MISS:   19126537  HIT %:    37.5814  MISS %:    62.4186   MPKI: 95.6327
L1D RFO       NON_SPEC    ACCESS:    3055477  HIT:    2998327  MISS:      57150  HIT %:    98.1296  MISS %:    1.87041   MPKI: 0.28575
L1D PREFETCH  NON_SPEC    ACCESS:   27717145  HIT:    2630748  MISS:   25086397  HIT %:    9.49141  MISS %:    90.5086   MPKI: 125.432
L1D COMMIT LOAD NON_SPEC    ACCESS:   17662244  HIT:   16685901  MISS:     976343  HIT %:    94.4721  MISS %:    5.52785   MPKI: 4.88171
L1D COMMIT WRITE NON_SPEC    ACCESS:   29393656  HIT:   11316044  MISS:   18077612  HIT %:    38.4983  MISS %:    61.5017   MPKI: 90.3881
L1D PREFETCH  REQUESTED:   33774918  ISSUED:   33774499  USEFUL:    5420760  USELESS:   19665593
L1D USEFUL LOAD PREFETCHES:    5420760 PREFETCH ISSUED TO LOWER LEVEL:   29206033  ACCURACY: 18.5604
L1D TIMELY PREFETCHES:    5420760 LATE PREFETCHES: 4119553 DROPPED PREFETCHES: 0
L1D COMMIT LATE PREFETCHES: 0 NORMAL LATE: 4119553 MISSED OPPORTUNITY: 0 UNCOVERED: 21730938
L1D PREFETCHES SAME FILL-ORIGIN LEVEL: 29206033 DIFFERENT FILL-ORIGIN LEVEL: 0
L1D AVERAGE MISS LATENCY: 104.184 cycles
L1D AVERAGE MISS LATENCY LOAD: 124.437 cycles
L1D AVERAGE MISS LATENCY PREFETCH: 159.496 cycles
L1D AVERAGE MSHR OCCUPANCY: 5.28381
L1D MSHR FULL: 0.0466515
L1D RQ	ACCESS:   72248352	FORWARD:          0	MERGED:   13127998	TO_CACHE:   58974908
L1D WQ	ACCESS:   32985702	FORWARD:     145446	MERGED:     384812	TO_CACHE:   32600890
L1D PQ	ACCESS:   33774499	FORWARD:          0	MERGED:          0	TO_CACHE:   33774499

L1D UNIQUE REGIONS ACCESSED: 0
L1D REGIONS CONFLICTS: 0
L1D Cross Page Prefetch Requests: 0
L1D Same Page Prefetch Requests: 42254162
L1D ROI Sum of L1D PQ occupancy: 448174535
L1D PREFETCHES PUSHED FROM L2C: 0
L1I SPEC fills:          0  NON-SPEC fills:          0
L1I Test counter :          0
L1I Leapfrog:          0
L1I MSHR merge:          0
L1I TOTAL     ACCESS:   33245119  HIT:   33245119  MISS:          0  HIT %:        100  MISS %:          0   MPKI: 0
L1I LOAD      TOTAL       ACCESS:   33245119  HIT:   33245119  MISS:          0  HIT %:        100  MISS %:          0   MPKI: 0
L1I LOAD      NON_SPEC    ACCESS:   33245119  HIT:   33245119  MISS:          0  HIT %:        100  MISS %:          0   MPKI: 0
L1I PREFETCH  REQUESTED:          0  ISSUED:          0  USEFUL:          0  USELESS:          0
L1I USEFUL LOAD PREFETCHES:          0 PREFETCH ISSUED TO LOWER LEVEL:          0  ACCURACY: -nan
L1I TIMELY PREFETCHES:          0 LATE PREFETCHES: 0 DROPPED PREFETCHES: 0
L1I COMMIT LATE PREFETCHES: 0 NORMAL LATE: 0 MISSED OPPORTUNITY: 0 UNCOVERED: 0
L1I PREFETCHES SAME FILL-ORIGIN LEVEL: 0 DIFFERENT FILL-ORIGIN LEVEL: 0
L1I AVERAGE MISS LATENCY: -nan cycles
L1I AVERAGE MISS LATENCY LOAD: -nan cycles
L1I AVERAGE MISS LATENCY PREFETCH: -nan cycles
L1I AVERAGE MSHR OCCUPANCY: 0
L1I MSHR FULL: 0
L1I RQ	ACCESS:   43847978	FORWARD:          0	MERGED:   10602858	TO_CACHE:   33245120

BTB SPEC fills:          0  NON-SPEC fills:          0
BTB Test counter :          0
BTB Leapfrog:          0
BTB MSHR merge:          0
BTB TOTAL     ACCESS:   60210745  HIT:   60015900  MISS:     194845  HIT %:    99.6764  MISS %:   0.323605   MPKI: 0.974225
BTB BRANCH_DIRECT_JUMP	ACCESS:    7722186  HIT:    7722149  MISS:         37
BTB BRANCH_INDIRECT	ACCESS:          0  HIT:          0  MISS:          0
BTB BRANCH_CONDITIONAL	ACCESS:   51083203  HIT:   51083121  MISS:         82
BTB BRANCH_DIRECT_CALL	ACCESS:     648845  HIT:     648827  MISS:         18
BTB BRANCH_INDIRECT_CALL	ACCESS:      53834  HIT:      53826  MISS:          8
BTB BRANCH_RETURN	ACCESS:     702677  HIT:     507977  MISS:     194700
BTB BRANCH_OTHER ACCESS:          0  HIT:          0  MISS:          0

L2C SPEC fills:          0  NON-SPEC fills:    5796677
L2C Test counter :          0
L2C Leapfrog:          0
L2C MSHR merge:          0
L2C TOTAL     ACCESS:   75948456  HIT:   16549076  MISS:   59399380  HIT %:    21.7899  MISS %:    78.2101   MPKI: 296.997
L2C LOAD      TOTAL       ACCESS:   21733367  HIT:    2687319  MISS:   19046048  HIT %:    12.3649  MISS %:    87.6351   MPKI: 95.2302
L2C LOAD      NON_SPEC    ACCESS:    6677457  HIT:     880780  MISS:    5796677  HIT %:    13.1904  MISS %:    86.8096   MPKI: 28.9834
L2C LOAD      SPEC        ACCESS:   15055910  HIT:    1806539  MISS:   13249371  HIT %:    11.9989  MISS %:    88.0011   MPKI: 66.2469
L2C RFO       NON_SPEC    ACCESS:      57064  HIT:       2452  MISS:      54612  HIT %:    4.29693  MISS %:    95.7031   MPKI: 0.27306
L2C PREFETCH  NON_SPEC    ACCESS:   29205899  HIT:    2280518  MISS:   26925381  HIT %:    7.80842  MISS %:    92.1916   MPKI: 134.627
L2C WRITEBACK NON_SPEC    ACCESS:     199319  HIT:     199319  MISS:          0  HIT %:        100  MISS %:          0   MPKI: 0
L2C CLEAN_EVICTION NON_SPEC    ACCESS:   22593337  HIT:    9993599  MISS:   12599738  HIT %:    44.2325  MISS %:    55.7675   MPKI: 62.9987
L2C COMMIT LOAD NON_SPEC    ACCESS:     973008  HIT:     288809  MISS:     684199  HIT %:    29.6821  MISS %:    70.3179   MPKI: 3.42099
L2C LOAD TRANSLATION NON_SPEC    ACCESS:    1186462  HIT:    1097060  MISS:      89402  HIT %:    92.4648  MISS %:    7.53518   MPKI: 0.44701
L2C PREFETCH  REQUESTED:          0  ISSUED:          0  USEFUL:     624146  USELESS:   26301493
L2C USEFUL LOAD PREFETCHES:     624146 PREFETCH ISSUED TO LOWER LEVEL:   26925380  ACCURACY: 2.31806
L2C TIMELY PREFETCHES:     624146 LATE PREFETCHES: 0 DROPPED PREFETCHES: 0
L2C COMMIT LATE PREFETCHES: 0 NORMAL LATE: 0 MISSED OPPORTUNITY: 0 UNCOVERED: 19046048
L2C PREFETCHES SAME FILL-ORIGIN LEVEL: 0 DIFFERENT FILL-ORIGIN LEVEL: 0
L2C AVERAGE MISS LATENCY: 116.496 cycles
L2C AVERAGE MISS LATENCY LOAD: 111.621 cycles
L2C AVERAGE MISS LATENCY PREFETCH: 175.061 cycles
L2C AVERAGE MSHR OCCUPANCY: 5.32705
L2C MSHR FULL: 0
L2C RQ	ACCESS:   23950807	FORWARD:          0	MERGED:          0	TO_CACHE:   23949900
L2C WQ	ACCESS:   22792699	FORWARD:       1042	MERGED:         43	TO_CACHE:   22792656
L2C PQ	ACCESS:   29206033	FORWARD:          0	MERGED:          0	TO_CACHE:   29205898

L2C Instructions Evicting Data 0
L2C Translations Evicting Data 89274
L2C Data Evicting Data 33396677
L2C Instructions Evicting Instructions 0
L2C Translations Evicting Instructions 0
L2C Data Evicting Instructions 0
L2C Instructions Evicting Translations 0
L2C Translations Evicting Translations 128
L2C Data Evicting Translations 64192
L2C Dense regions hint from L2: 0
PSCL5 SPEC fills:          0  NON-SPEC fills:          0
PSCL5 Test counter :          0
PSCL5 Leapfrog:          0
PSCL5 MSHR merge:          0
PSCL5 TOTAL     ACCESS:          0  HIT:          0  MISS:          0  HIT %:       -nan  MISS %:       -nan   MPKI: 0
PSCL5 PREFETCH  REQUESTED:          0  ISSUED:          0  USEFUL:          0  USELESS:          0
PSCL5 USEFUL LOAD PREFETCHES:          0 PREFETCH ISSUED TO LOWER LEVEL:          0  ACCURACY: -nan
PSCL5 TIMELY PREFETCHES:          0 LATE PREFETCHES: 0 DROPPED PREFETCHES: 0
PSCL5 COMMIT LATE PREFETCHES: 0 NORMAL LATE: 0 MISSED OPPORTUNITY: 0 UNCOVERED: 0
PSCL5 PREFETCHES SAME FILL-ORIGIN LEVEL: 0 DIFFERENT FILL-ORIGIN LEVEL: 0

PSCL4 SPEC fills:          0  NON-SPEC fills:          0
PSCL4 Test counter :          0
PSCL4 Leapfrog:          0
PSCL4 MSHR merge:          0
PSCL4 TOTAL     ACCESS:          0  HIT:          0  MISS:          0  HIT %:       -nan  MISS %:       -nan   MPKI: 0
PSCL4 PREFETCH  REQUESTED:          0  ISSUED:          0  USEFUL:          0  USELESS:          0
PSCL4 USEFUL LOAD PREFETCHES:          0 PREFETCH ISSUED TO LOWER LEVEL:          0  ACCURACY: -nan
PSCL4 TIMELY PREFETCHES:          0 LATE PREFETCHES: 0 DROPPED PREFETCHES: 0
PSCL4 COMMIT LATE PREFETCHES: 0 NORMAL LATE: 0 MISSED OPPORTUNITY: 0 UNCOVERED: 0
PSCL4 PREFETCHES SAME FILL-ORIGIN LEVEL: 0 DIFFERENT FILL-ORIGIN LEVEL: 0

PSCL3 SPEC fills:          0  NON-SPEC fills:          0
PSCL3 Test counter :          0
PSCL3 Leapfrog:          0
PSCL3 MSHR merge:          0
PSCL3 TOTAL     ACCESS:          0  HIT:          0  MISS:          0  HIT %:       -nan  MISS %:       -nan   MPKI: 0
PSCL3 PREFETCH  REQUESTED:          0  ISSUED:          0  USEFUL:          0  USELESS:          0
PSCL3 USEFUL LOAD PREFETCHES:          0 PREFETCH ISSUED TO LOWER LEVEL:          0  ACCURACY: -nan
PSCL3 TIMELY PREFETCHES:          0 LATE PREFETCHES: 0 DROPPED PREFETCHES: 0
PSCL3 COMMIT LATE PREFETCHES: 0 NORMAL LATE: 0 MISSED OPPORTUNITY: 0 UNCOVERED: 0
PSCL3 PREFETCHES SAME FILL-ORIGIN LEVEL: 0 DIFFERENT FILL-ORIGIN LEVEL: 0

PSCL2 SPEC fills:          0  NON-SPEC fills:          0
PSCL2 Test counter :          0
PSCL2 Leapfrog:          0
PSCL2 MSHR merge:          0
PSCL2 TOTAL     ACCESS:          0  HIT:          0  MISS:          0  HIT %:       -nan  MISS %:       -nan   MPKI: 0
PSCL2 PREFETCH  REQUESTED:          0  ISSUED:          0  USEFUL:          0  USELESS:          0
PSCL2 USEFUL LOAD PREFETCHES:          0 PREFETCH ISSUED TO LOWER LEVEL:          0  ACCURACY: -nan
PSCL2 TIMELY PREFETCHES:          0 LATE PREFETCHES: 0 DROPPED PREFETCHES: 0
PSCL2 COMMIT LATE PREFETCHES: 0 NORMAL LATE: 0 MISSED OPPORTUNITY: 0 UNCOVERED: 0
PSCL2 PREFETCHES SAME FILL-ORIGIN LEVEL: 0 DIFFERENT FILL-ORIGIN LEVEL: 0

LLC SPEC fills:          0  NON-SPEC fills:    1441163
LLC Test counter :          0
LLC Leapfrog:          0
LLC MSHR merge:          0
LLC TOTAL     ACCESS:   68574493  HIT:   39808257  MISS:   28766236  HIT %:    58.0511  MISS %:    41.9489   MPKI: 143.831
LLC LOAD      TOTAL       ACCESS:   19045848  HIT:   12137407  MISS:    6908441  HIT %:    63.7273  MISS %:    36.2727   MPKI: 34.5422
LLC LOAD      NON_SPEC    ACCESS:    5796644  HIT:    4355481  MISS:    1441163  HIT %:     75.138  MISS %:     24.862   MPKI: 7.20581
LLC LOAD      SPEC        ACCESS:   13249204  HIT:    7781926  MISS:    5467278  HIT %:     58.735  MISS %:     41.265   MPKI: 27.3364
LLC RFO       NON_SPEC    ACCESS:      54612  HIT:      44809  MISS:       9803  HIT %:    82.0497  MISS %:    17.9503   MPKI: 0.049015
LLC PREFETCH  NON_SPEC    ACCESS:   26925334  HIT:   11115734  MISS:   15809600  HIT %:    41.2836  MISS %:    58.7164   MPKI: 79.048
LLC WRITEBACK NON_SPEC    ACCESS:     183945  HIT:     183924  MISS:         21  HIT %:    99.9886  MISS %:  0.0114165   MPKI: 0.000105
LLC CLEAN_EVICTION NON_SPEC    ACCESS:   21591187  HIT:   15763913  MISS:    5827274  HIT %:    73.0109  MISS %:    26.9891   MPKI: 29.1364
LLC COMMIT LOAD NON_SPEC    ACCESS:     684165  HIT:     528793  MISS:     155372  HIT %:    77.2903  MISS %:    22.7097   MPKI: 0.77686
LLC LOAD TRANSLATION NON_SPEC    ACCESS:      89402  HIT:      33677  MISS:      55725  HIT %:    37.6692  MISS %:    62.3308   MPKI: 0.278625
LLC PREFETCH  REQUESTED:          0  ISSUED:          0  USEFUL:     502084  USELESS:   15308785
LLC USEFUL LOAD PREFETCHES:     502084 PREFETCH ISSUED TO LOWER LEVEL:   15809600  ACCURACY: 3.17582
LLC TIMELY PREFETCHES:     502084 LATE PREFETCHES: 0 DROPPED PREFETCHES: 0
LLC COMMIT LATE PREFETCHES: 0 NORMAL LATE: 0 MISSED OPPORTUNITY: 0 UNCOVERED: 6908441
LLC PREFETCHES SAME FILL-ORIGIN LEVEL: 0 DIFFERENT FILL-ORIGIN LEVEL: 0
LLC AVERAGE MISS LATENCY: 195.205 cycles
LLC AVERAGE MISS LATENCY LOAD: 241.517 cycles
LLC AVERAGE MISS LATENCY PREFETCH: 246.166 cycles
LLC AVERAGE MSHR OCCUPANCY: 4.16862
LLC MSHR FULL: 0
LLC RQ	ACCESS:   19874260	FORWARD:          0	MERGED:          0	TO_CACHE:   19874026
LLC WQ	ACCESS:   21775132	FORWARD:        281	MERGED:          0	TO_CACHE:   21775132
LLC PQ	ACCESS:   26925380	FORWARD:          0	MERGED:          0	TO_CACHE:   26925333

LLC Dense regions hint to LLC: 0

RAW hits: 455085
Loads Generated: 71752504
Loads sent to L1D: 71297417
Stores Generated: 3578449
Stores sent to L1D: 3578449
Major fault: 0 Minor fault: 219750
Allocated PAGES: 219750
Total Load insts: 89123287
Total Non-spec loads: 11497916
Percentage of speculative loads: 87.0989

LeapFrogging counter: 32524145
Commit hits: 29407253 miss: 30969327
Commit hit %: 48.7064 miss %: 51.2936
Commits not translated: 0
Loads retired: 25850491
Stores retired: 3578449
Cache fills: 25850491
L1D response latency: 124.437 cycles
Load retirement latency: 359.051 cycles
OOO test counter: 0
Discarded buffer inserts: 29407253 hits: 139270 hit %: 0.473591
Filter prediction accuracy: -nan

stream: 
stream:times selected: 44501644
stream:pref_filled: 23657911
stream:pref_useful: 379047
stream:pref_late: 6992
stream:misses: 5827205
stream:misses_by_poll: 0

CS: 
CS:times selected: 12530333
CS:pref_filled: 7370743
CS:pref_useful: 7250140
CS:pref_late: 40500
CS:misses: 5781149
CS:misses_by_poll: 395383

CPLX: 
CPLX:times selected: 31675044
CPLX:pref_filled: 1137619
CPLX:pref_useful: 34885
CPLX:pref_late: 188
CPLX:misses: 19624062
CPLX:misses_by_poll: 94621

NL_L1: 
NL:times selected: 58328
NL:pref_filled: 36840
NL:pref_useful: 9239
NL:pref_late: 14
NL:misses: 39331
NL:misses_by_poll: 0

total selections: 88765349
total_filled: 25086397
total_useful: 5420760
total_late: 50493
total_polluted: 490004
total_misses_after_warmup: 25861085
conflicts: 21642
Degree Incremented Times: 206161
Degree Decremented Times: 451492

L1 IP Table Write Accesses: 41192226
L1 IP Table Read Accesses: 41170584
L1 RST Write Accesses: 35926459
L1 RST Read Accesses: 71852918
L1 CSPT Write Accesses: 35926459
L1 CSPT Read Accesses: 61613689
L1 RR Filter Tag Write Accesses: 33774918
L1 RR Filter Tag Read Accesses: 1953283250
L1 IP Table Tag Write Accesses: 41279027
L1 IP Table Tag Read Accesses: 41279027
L1 RST Tag Write Accesses: 0
L1 RST Tag Read Accesses: 324969716
L1 RR Filter Write Accesses: 0
L1 RR Filter Read Accesses: 66121896
test: 21360621

DRAM Statistics
 CHANNEL 0
 RQ ROW_BUFFER_HIT:    1879914  ROW_BUFFER_MISS:   21049179
 DBUS_CONGESTED:       2097
 WQ ROW_BUFFER_HIT:    3515438  ROW_BUFFER_MISS:   11217671  FULL:         54

 AVG_CONGESTED_CYCLE: 5
 All warmup complete: 2
Channel 0 Bank busy for read cycles: 0
Channel 0 Bank busy for write cycles: 0
Channel 0
Rank 0
0banks busy for read cycles: 74933343
0banks busy for write cycles: 134948
1banks busy for read cycles: 207204459
1banks busy for write cycles: 19696214
2banks busy for read cycles: 205559644
2banks busy for write cycles: 14107416
3banks busy for read cycles: 160500306
3banks busy for write cycles: 12162847
4banks busy for read cycles: 130993297
4banks busy for write cycles: 12170501
5banks busy for read cycles: 104708662
5banks busy for write cycles: 13819750
6banks busy for read cycles: 78459976
6banks busy for write cycles: 20538836
7banks busy for read cycles: 52785941
7banks busy for write cycles: 63419712
8banks busy for read cycles: 46272807
8banks busy for write cycles: 280715819

CPU 0 Branch Prediction Accuracy: 96.9705% MPKI: 9.2675 Average ROB Occupancy at Mispredict: 56.5508
Branch types
NOT_BRANCH: 138818916 69.4095%
BRANCH_DIRECT_JUMP: 7722186 3.86109%
BRANCH_INDIRECT: 0 0%
BRANCH_CONDITIONAL: 52053293 26.0266%
BRANCH_DIRECT_CALL: 648845 0.324422%
BRANCH_INDIRECT_CALL: 53834 0.026917%
BRANCH_RETURN: 702677 0.351338%
BRANCH_OTHER: 0 0%

DRAM PAGES: 1048576
Allocated PAGES: 219750
