
*** ChampSim Multicore Out-of-Order Simulator ***

Warmup Instructions: 50000000
Simulation Instructions: 200000000
Number of CPUs: 1
LLC sets: 2048
LLC ways: 16
L0D sets: 16
L0D ways: 2
ROB size: 352
LQ size: 128
SQ size: 72
Secure Berti: OFF
Berti: OFF
Berti Fill: OFF
On commit prefetching: OFF
Hit-based filter: OFF
Time-guarding: ON
Free-slotting: ON
Leap-frogging: ON
Train prefetcher on L0D bypass: OFF
No translation penalty for prefetchers: OFF
Prefetch to L0D only: OFF
Prefetch to L1D only: OFF
Clean evictions: ON
Commit loads: ON
Commit write: ON
Fill commit loads to L2C, LLC: ON
DRAM IO FREQUENCY: 6400
ROB SIZE: 352
Off-chip DRAM Size: 4096 MB Channels: 1 Width: 64-bit Data Rate: 6400 MT/s
CPU 0 runs /home/sumon/secure_berti/GhostMinion/../../traces/spec/605.mcf_s-484B.champsimtrace.xz
.xz
BTB has LRU replacement policy
ITLB has LRU replacement policy
DTLB has LRU replacement policy
STLB has LRU replacement policy
L1I has LRU replacement policy
L0D has LRU replacement policy
IP Table Entries: 1024
CSPT Entries: 128
RR_ENTRIES: 32
RST_ENTRIES: 8
L1D has LRU replacement policy
L2C has LRU replacement policy
LLC has LRU replacement policy
Heartbeat CPU 0 instructions: 10000001 cycles: 5727034 heartbeat IPC: 1.7461 cumulative IPC: 1.7461 (Simulation time: 0 hr 0 min 50 sec) 
Heartbeat CPU 0 instructions: 20000000 cycles: 11358317 heartbeat IPC: 1.77579 cumulative IPC: 1.76082 (Simulation time: 0 hr 1 min 43 sec) 
Heartbeat CPU 0 instructions: 30000001 cycles: 16813152 heartbeat IPC: 1.83324 cumulative IPC: 1.78432 (Simulation time: 0 hr 2 min 36 sec) 
Heartbeat CPU 0 instructions: 40000000 cycles: 22510111 heartbeat IPC: 1.75532 cumulative IPC: 1.77698 (Simulation time: 0 hr 3 min 25 sec) 
Heartbeat CPU 0 instructions: 50000000 cycles: 28108723 heartbeat IPC: 1.78616 cumulative IPC: 1.77881 (Simulation time: 0 hr 4 min 15 sec) 

Warmup complete CPU 0 instructions: 50000004 cycles: 28108724 (Simulation time: 0 hr 4 min 15 sec) 

Heartbeat CPU 0 instructions: 60000003 cycles: 53620671 heartbeat IPC: 0.391973 cumulative IPC: 0.391973 (Simulation time: 0 hr 5 min 17 sec) 
Heartbeat CPU 0 instructions: 70000003 cycles: 89586284 heartbeat IPC: 0.278043 cumulative IPC: 0.325322 (Simulation time: 0 hr 6 min 29 sec) 
Heartbeat CPU 0 instructions: 80000000 cycles: 121082015 heartbeat IPC: 0.317503 cumulative IPC: 0.322673 (Simulation time: 0 hr 7 min 35 sec) 
Heartbeat CPU 0 instructions: 90000000 cycles: 152270534 heartbeat IPC: 0.320631 cumulative IPC: 0.32216 (Simulation time: 0 hr 8 min 42 sec) 
Heartbeat CPU 0 instructions: 100000000 cycles: 178240696 heartbeat IPC: 0.385057 cumulative IPC: 0.33304 (Simulation time: 0 hr 9 min 47 sec) 
Heartbeat CPU 0 instructions: 110000000 cycles: 206145669 heartbeat IPC: 0.358359 cumulative IPC: 0.337009 (Simulation time: 0 hr 10 min 54 sec) 
Heartbeat CPU 0 instructions: 120000001 cycles: 227144228 heartbeat IPC: 0.476223 cumulative IPC: 0.351696 (Simulation time: 0 hr 12 min 40 sec) 
Heartbeat CPU 0 instructions: 130000000 cycles: 248822226 heartbeat IPC: 0.461297 cumulative IPC: 0.362461 (Simulation time: 0 hr 14 min 32 sec) 
Heartbeat CPU 0 instructions: 140000001 cycles: 276462453 heartbeat IPC: 0.361792 cumulative IPC: 0.362386 (Simulation time: 0 hr 16 min 36 sec) 
Heartbeat CPU 0 instructions: 150000001 cycles: 298057601 heartbeat IPC: 0.463067 cumulative IPC: 0.370441 (Simulation time: 0 hr 18 min 0 sec) 
Heartbeat CPU 0 instructions: 160000001 cycles: 321405499 heartbeat IPC: 0.428304 cumulative IPC: 0.375047 (Simulation time: 0 hr 19 min 10 sec) 
Heartbeat CPU 0 instructions: 170000000 cycles: 350237875 heartbeat IPC: 0.346832 cumulative IPC: 0.372521 (Simulation time: 0 hr 20 min 25 sec) 
Heartbeat CPU 0 instructions: 180000000 cycles: 376577298 heartbeat IPC: 0.379659 cumulative IPC: 0.373061 (Simulation time: 0 hr 21 min 34 sec) 
Heartbeat CPU 0 instructions: 190000000 cycles: 402920008 heartbeat IPC: 0.379612 cumulative IPC: 0.373521 (Simulation time: 0 hr 22 min 41 sec) 
Heartbeat CPU 0 instructions: 200000003 cycles: 441307345 heartbeat IPC: 0.260503 cumulative IPC: 0.363022 (Simulation time: 0 hr 23 min 58 sec) 
Heartbeat CPU 0 instructions: 210000002 cycles: 477184570 heartbeat IPC: 0.278728 cumulative IPC: 0.356287 (Simulation time: 0 hr 25 min 8 sec) 
Heartbeat CPU 0 instructions: 220000000 cycles: 502282248 heartbeat IPC: 0.398443 cumulative IPC: 0.358519 (Simulation time: 0 hr 26 min 8 sec) 
Heartbeat CPU 0 instructions: 230000002 cycles: 525610715 heartbeat IPC: 0.428661 cumulative IPC: 0.361808 (Simulation time: 0 hr 27 min 1 sec) 
Heartbeat CPU 0 instructions: 240000000 cycles: 551239050 heartbeat IPC: 0.390193 cumulative IPC: 0.363198 (Simulation time: 0 hr 27 min 57 sec) 
Heartbeat CPU 0 instructions: 250000001 cycles: 582658412 heartbeat IPC: 0.318275 cumulative IPC: 0.360653 (Simulation time: 0 hr 28 min 58 sec) 
Finished CPU 0 instructions: 200000001 cycles: 554549690 cumulative IPC: 0.360653 (Simulation time: 0 hr 28 min 58 sec) 
 Instruction ID: 250000298

ChampSim completed all CPUs

Region of Interest Statistics

CPU 0 cumulative IPC: 0.360653 instructions: 200000001 cycles: 554549690
ITLB SPEC fills:          0  NON-SPEC fills:          0
ITLB Test counter :          0
ITLB Leapfrog:          0
ITLB MSHR merge:          0
ITLB TOTAL     ACCESS:   32352341  HIT:   32352341  MISS:          0  HIT %:        100  MISS %:          0   MPKI: 0
ITLB LOAD TRANSLATION NON_SPEC    ACCESS:   32352341  HIT:   32352341  MISS:          0  HIT %:        100  MISS %:          0   MPKI: 0
ITLB PREFETCH  REQUESTED:          0  ISSUED:          0  USEFUL:          0  USELESS:          0
ITLB USEFUL LOAD PREFETCHES:          0 PREFETCH ISSUED TO LOWER LEVEL:          0  ACCURACY: -nan
ITLB TIMELY PREFETCHES:          0 LATE PREFETCHES: 0 DROPPED PREFETCHES: 0
ITLB COMMIT LATE PREFETCHES: 0 NORMAL LATE: 0 MISSED OPPORTUNITY: 0 UNCOVERED: 0
ITLB PREFETCHES SAME FILL-ORIGIN LEVEL: 0 DIFFERENT FILL-ORIGIN LEVEL: 0
ITLB AVERAGE MISS LATENCY: -nan cycles
ITLB AVERAGE MISS LATENCY LOAD: -nan cycles
ITLB AVERAGE MISS LATENCY PREFETCH: -nan cycles
ITLB AVERAGE MSHR OCCUPANCY: 0
ITLB MSHR FULL: 0
ITLB RQ	ACCESS:   42793103	FORWARD:          0	MERGED:   10440762	TO_CACHE:   32352341

DTLB SPEC fills:          0  NON-SPEC fills:          0
DTLB Test counter :          0
DTLB Leapfrog:          0
DTLB MSHR merge:          0
DTLB TOTAL     ACCESS:   56404764  HIT:   55926595  MISS:     478169  HIT %:    99.1523  MISS %:   0.847746   MPKI: 2.39084
DTLB LOAD TRANSLATION NON_SPEC    ACCESS:   56404764  HIT:   55926595  MISS:     478169  HIT %:    99.1523  MISS %:   0.847746   MPKI: 2.39084
DTLB PREFETCH  REQUESTED:          0  ISSUED:          0  USEFUL:          0  USELESS:          0
DTLB USEFUL LOAD PREFETCHES:          0 PREFETCH ISSUED TO LOWER LEVEL:          0  ACCURACY: -nan
DTLB TIMELY PREFETCHES:          0 LATE PREFETCHES: 0 DROPPED PREFETCHES: 0
DTLB COMMIT LATE PREFETCHES: 0 NORMAL LATE: 0 MISSED OPPORTUNITY: 0 UNCOVERED: 0
DTLB PREFETCHES SAME FILL-ORIGIN LEVEL: 0 DIFFERENT FILL-ORIGIN LEVEL: 0
DTLB AVERAGE MISS LATENCY: 51.2983 cycles
DTLB AVERAGE MISS LATENCY LOAD: -nan cycles
DTLB AVERAGE MISS LATENCY PREFETCH: -nan cycles
DTLB AVERAGE MSHR OCCUPANCY: 0.0210718
DTLB MSHR FULL: 0
DTLB RQ	ACCESS:   97765386	FORWARD:          0	MERGED:   41238318	TO_CACHE:   56527068

STLB SPEC fills:          0  NON-SPEC fills:          0
STLB Test counter :          0
STLB Leapfrog:          0
STLB MSHR merge:          0
STLB TOTAL     ACCESS:   15638140  HIT:   15492430  MISS:     145710  HIT %:    99.0682  MISS %:    0.93176   MPKI: 0.72855
STLB LOAD TRANSLATION NON_SPEC    ACCESS:     478169  HIT:     332490  MISS:     145679  HIT %:     69.534  MISS %:     30.466   MPKI: 0.728395
STLB TRANSLATION FROM L1D PREFETCHER NON_SPEC    ACCESS:   15159971  HIT:   15159940  MISS:         31  HIT %:    99.9998  MISS %: 0.000204486   MPKI: 0.000155
STLB PREFETCH  REQUESTED:          0  ISSUED:          0  USEFUL:         30  USELESS:          1
STLB USEFUL LOAD PREFETCHES:         30 PREFETCH ISSUED TO LOWER LEVEL:          0  ACCURACY: inf
STLB TIMELY PREFETCHES:         30 LATE PREFETCHES: 0 DROPPED PREFETCHES: 0
STLB COMMIT LATE PREFETCHES: 0 NORMAL LATE: 0 MISSED OPPORTUNITY: 0 UNCOVERED: 0
STLB PREFETCHES SAME FILL-ORIGIN LEVEL: 0 DIFFERENT FILL-ORIGIN LEVEL: 0
STLB AVERAGE MISS LATENCY: 138.838 cycles
STLB AVERAGE MISS LATENCY LOAD: -nan cycles
STLB AVERAGE MISS LATENCY PREFETCH: -nan cycles
STLB AVERAGE MSHR OCCUPANCY: 0.0136993
STLB MSHR FULL: 0
STLB RQ	ACCESS:   24706009	FORWARD:          0	MERGED:    9067868	TO_CACHE:   15638141

STLB Hit, L1D data hit: 0
STLB Hit, L2C data hit: 0
STLB Hit, LLC data hit: 0
STLB Hit, LLC data miss: 0
STLB STLB hints to L2: 0
L0D SPEC fills:   26945555  NON-SPEC fills:          0
L0D TimeGuard Request with older TS:     493179 Restricted eviction:     147757 read:     955863
L0D Test counter :          0
L0D Leapfrog:          0
L0D MSHR merge:    1955615
L0D TOTAL     ACCESS:   38466581  HIT:    4640581  MISS:   33826000  HIT %:    12.0639  MISS %:    87.9361   MPKI: 169.13
L0D LOAD      TOTAL       ACCESS:   38466581  HIT:    4640581  MISS:   33826000  HIT %:    12.0639  MISS %:    87.9361   MPKI: 169.13
L0D LOAD      NON_SPEC    ACCESS:    7137373  HIT:     404685  MISS:    6732688  HIT %:    5.66994  MISS %:    94.3301   MPKI: 33.6634
L0D LOAD      SPEC        ACCESS:   31329208  HIT:    4235896  MISS:   27093312  HIT %:    13.5206  MISS %:    86.4794   MPKI: 135.467
L0D PREFETCH  REQUESTED:          0  ISSUED:          0  USEFUL:          0  USELESS:          0
L0D USEFUL LOAD PREFETCHES:          0 PREFETCH ISSUED TO LOWER LEVEL:          0  ACCURACY: -nan
L0D TIMELY PREFETCHES:          0 LATE PREFETCHES: 0 DROPPED PREFETCHES: 0
L0D COMMIT LATE PREFETCHES: 0 NORMAL LATE: 0 MISSED OPPORTUNITY: 0 UNCOVERED: 33826000
L0D PREFETCHES SAME FILL-ORIGIN LEVEL: 0 DIFFERENT FILL-ORIGIN LEVEL: 0
L0D AVERAGE MISS LATENCY: 30.9509 cycles
L0D AVERAGE MISS LATENCY LOAD: 30.9509 cycles
L0D AVERAGE MISS LATENCY PREFETCH: -nan cycles
L0D AVERAGE MSHR OCCUPANCY: 2.20798
L0D MSHR FULL: 0.124998
L0D RQ	ACCESS:   62786175	FORWARD:          0	MERGED:   22363977	TO_CACHE:   40422198
L0D WQ	ACCESS:   57343188	FORWARD:          0	MERGED:          0	TO_CACHE:   57343188

L1D SPEC fills:          0  NON-SPEC fills:     678706
L1D Test counter :          0
L1D Leapfrog:          0
L1D MSHR merge:     801709
L1D TOTAL     ACCESS:  152677096  HIT:  140998941  MISS:   11678155  HIT %:    92.3511  MISS %:    7.64892   MPKI: 58.3908
L1D LOAD      TOTAL       ACCESS:   33824591  HIT:   30147210  MISS:    3677381  HIT %:    89.1281  MISS %:    10.8719   MPKI: 18.3869
L1D LOAD      NON_SPEC    ACCESS:    6731710  HIT:    6053004  MISS:     678706  HIT %:    89.9178  MISS %:    10.0822   MPKI: 3.39353
L1D LOAD      SPEC        ACCESS:   27092881  HIT:   24094206  MISS:    2998675  HIT %:    88.9319  MISS %:    11.0681   MPKI: 14.9934
L1D RFO       NON_SPEC    ACCESS:   54813619  HIT:   54344379  MISS:     469240  HIT %:    99.1439  MISS %:   0.856065   MPKI: 2.3462
L1D PREFETCH  NON_SPEC    ACCESS:   23002784  HIT:   18354889  MISS:    4647895  HIT %:    79.7942  MISS %:    20.2058   MPKI: 23.2395
L1D COMMIT LOAD NON_SPEC    ACCESS:   14558636  HIT:   14422023  MISS:     136613  HIT %:    99.0616  MISS %:   0.938364   MPKI: 0.683065
L1D COMMIT WRITE NON_SPEC    ACCESS:   26477466  HIT:   23730440  MISS:    2747026  HIT %:     89.625  MISS %:     10.375   MPKI: 13.7351
L1D PREFETCH  REQUESTED:   24227845  ISSUED:   24227840  USEFUL:    1441833  USELESS:    3206047
L1D USEFUL LOAD PREFETCHES:    1441833 PREFETCH ISSUED TO LOWER LEVEL:    5460609  ACCURACY: 26.4043
L1D TIMELY PREFETCHES:    1441833 LATE PREFETCHES: 805915 DROPPED PREFETCHES: 0
L1D COMMIT LATE PREFETCHES: 0 NORMAL LATE: 805915 MISSED OPPORTUNITY: 0 UNCOVERED: 2871466
L1D PREFETCHES SAME FILL-ORIGIN LEVEL: 5460609 DIFFERENT FILL-ORIGIN LEVEL: 0
L1D AVERAGE MISS LATENCY: 175.535 cycles
L1D AVERAGE MISS LATENCY LOAD: 228.656 cycles
L1D AVERAGE MISS LATENCY PREFETCH: 228.118 cycles
L1D AVERAGE MSHR OCCUPANCY: 3.75356
L1D MSHR FULL: 0.131217
L1D RQ	ACCESS:   61490221	FORWARD:          0	MERGED:   11452190	TO_CACHE:   48392075
L1D WQ	ACCESS:   83869057	FORWARD:    1645956	MERGED:    1033803	TO_CACHE:   82835254
L1D PQ	ACCESS:   24227840	FORWARD:          0	MERGED:          0	TO_CACHE:   24227840

L1D UNIQUE REGIONS ACCESSED: 0
L1D REGIONS CONFLICTS: 0
L1D Cross Page Prefetch Requests: 0
L1D Same Page Prefetch Requests: 30441021
L1D ROI Sum of L1D PQ occupancy: 356378147
L1D PREFETCHES PUSHED FROM L2C: 0
L1I SPEC fills:          0  NON-SPEC fills:          0
L1I Test counter :          0
L1I Leapfrog:          0
L1I MSHR merge:          0
L1I TOTAL     ACCESS:   42793103  HIT:   42793103  MISS:          0  HIT %:        100  MISS %:          0   MPKI: 0
L1I LOAD      TOTAL       ACCESS:   42793103  HIT:   42793103  MISS:          0  HIT %:        100  MISS %:          0   MPKI: 0
L1I LOAD      NON_SPEC    ACCESS:   42793103  HIT:   42793103  MISS:          0  HIT %:        100  MISS %:          0   MPKI: 0
L1I PREFETCH  REQUESTED:          0  ISSUED:          0  USEFUL:          0  USELESS:          0
L1I USEFUL LOAD PREFETCHES:          0 PREFETCH ISSUED TO LOWER LEVEL:          0  ACCURACY: -nan
L1I TIMELY PREFETCHES:          0 LATE PREFETCHES: 0 DROPPED PREFETCHES: 0
L1I COMMIT LATE PREFETCHES: 0 NORMAL LATE: 0 MISSED OPPORTUNITY: 0 UNCOVERED: 0
L1I PREFETCHES SAME FILL-ORIGIN LEVEL: 0 DIFFERENT FILL-ORIGIN LEVEL: 0
L1I AVERAGE MISS LATENCY: -nan cycles
L1I AVERAGE MISS LATENCY LOAD: -nan cycles
L1I AVERAGE MISS LATENCY PREFETCH: -nan cycles
L1I AVERAGE MSHR OCCUPANCY: 0
L1I MSHR FULL: 0
L1I RQ	ACCESS:   57804744	FORWARD:          0	MERGED:   15011641	TO_CACHE:   42793103

BTB SPEC fills:          0  NON-SPEC fills:          0
BTB Test counter :          0
BTB Leapfrog:          0
BTB MSHR merge:          0
BTB TOTAL     ACCESS:   19468364  HIT:   19468330  MISS:         34  HIT %:    99.9998  MISS %: 0.000174642   MPKI: 0.00017
BTB BRANCH_DIRECT_JUMP	ACCESS:     976614  HIT:     976608  MISS:          6
BTB BRANCH_INDIRECT	ACCESS:          0  HIT:          0  MISS:          0
BTB BRANCH_CONDITIONAL	ACCESS:   18491562  HIT:   18491538  MISS:         24
BTB BRANCH_DIRECT_CALL	ACCESS:         94  HIT:         92  MISS:          2
BTB BRANCH_INDIRECT_CALL	ACCESS:          0  HIT:          0  MISS:          0
BTB BRANCH_RETURN	ACCESS:         94  HIT:         92  MISS:          2
BTB BRANCH_OTHER ACCESS:          0  HIT:          0  MISS:          0

L2C SPEC fills:          0  NON-SPEC fills:     509144
L2C Test counter :          0
L2C Leapfrog:          0
L2C MSHR merge:          0
L2C TOTAL     ACCESS:   14383783  HIT:    4705888  MISS:    9677895  HIT %:    32.7166  MISS %:    67.2834   MPKI: 48.3895
L2C LOAD      TOTAL       ACCESS:    2876843  HIT:     193021  MISS:    2683822  HIT %:    6.70947  MISS %:    93.2905   MPKI: 13.4191
L2C LOAD      NON_SPEC    ACCESS:     560162  HIT:      51018  MISS:     509144  HIT %:    9.10772  MISS %:    90.8923   MPKI: 2.54572
L2C LOAD      SPEC        ACCESS:    2316681  HIT:     142003  MISS:    2174678  HIT %:    6.12959  MISS %:    93.8704   MPKI: 10.8734
L2C RFO       NON_SPEC    ACCESS:     462439  HIT:       9176  MISS:     453263  HIT %:    1.98426  MISS %:    98.0157   MPKI: 2.26631
L2C PREFETCH  NON_SPEC    ACCESS:    5460533  HIT:     845204  MISS:    4615329  HIT %:    15.4784  MISS %:    84.5216   MPKI: 23.0766
L2C WRITEBACK NON_SPEC    ACCESS:     503834  HIT:     503388  MISS:        446  HIT %:    99.9115  MISS %:  0.0885212   MPKI: 0.00223
L2C CLEAN_EVICTION NON_SPEC    ACCESS:    4220684  HIT:    2396587  MISS:    1824097  HIT %:     56.782  MISS %:     43.218   MPKI: 9.12048
L2C COMMIT LOAD NON_SPEC    ACCESS:     130997  HIT:      52346  MISS:      78651  HIT %:    39.9597  MISS %:    60.0403   MPKI: 0.393255
L2C LOAD TRANSLATION NON_SPEC    ACCESS:     728298  HIT:     706041  MISS:      22257  HIT %:     96.944  MISS %:    3.05603   MPKI: 0.111285
L2C TRANSLATION FROM L1D PREFETCHER NON_SPEC    ACCESS:        155  HIT:        125  MISS:         30  HIT %:    80.6452  MISS %:    19.3548   MPKI: 0.00015
L2C PREFETCH  REQUESTED:          0  ISSUED:          0  USEFUL:     136856  USELESS:    4478820
L2C USEFUL LOAD PREFETCHES:     136856 PREFETCH ISSUED TO LOWER LEVEL:    4615330  ACCURACY: 2.96525
L2C TIMELY PREFETCHES:     136856 LATE PREFETCHES: 0 DROPPED PREFETCHES: 0
L2C COMMIT LATE PREFETCHES: 0 NORMAL LATE: 0 MISSED OPPORTUNITY: 0 UNCOVERED: 2683822
L2C PREFETCHES SAME FILL-ORIGIN LEVEL: 0 DIFFERENT FILL-ORIGIN LEVEL: 0
L2C AVERAGE MISS LATENCY: 206.148 cycles
L2C AVERAGE MISS LATENCY LOAD: 233.8 cycles
L2C AVERAGE MISS LATENCY PREFETCH: 264.595 cycles
L2C AVERAGE MSHR OCCUPANCY: 5.25937
L2C MSHR FULL: 0
L2C RQ	ACCESS:    4198975	FORWARD:          0	MERGED:          0	TO_CACHE:    4198732
L2C WQ	ACCESS:    4724518	FORWARD:        318	MERGED:          0	TO_CACHE:    4724518
L2C PQ	ACCESS:    5460609	FORWARD:          0	MERGED:          0	TO_CACHE:    5460534

L2C Instructions Evicting Data 0
L2C Translations Evicting Data 22252
L2C Data Evicting Data 5639583
L2C Instructions Evicting Instructions 0
L2C Translations Evicting Instructions 0
L2C Data Evicting Instructions 0
L2C Instructions Evicting Translations 0
L2C Translations Evicting Translations 35
L2C Data Evicting Translations 16804
L2C Dense regions hint from L2: 0
PSCL5 SPEC fills:          0  NON-SPEC fills:          0
PSCL5 Test counter :          0
PSCL5 Leapfrog:          0
PSCL5 MSHR merge:          0
PSCL5 TOTAL     ACCESS:          0  HIT:          0  MISS:          0  HIT %:       -nan  MISS %:       -nan   MPKI: 0
PSCL5 PREFETCH  REQUESTED:          0  ISSUED:          0  USEFUL:          0  USELESS:          0
PSCL5 USEFUL LOAD PREFETCHES:          0 PREFETCH ISSUED TO LOWER LEVEL:          0  ACCURACY: -nan
PSCL5 TIMELY PREFETCHES:          0 LATE PREFETCHES: 0 DROPPED PREFETCHES: 0
PSCL5 COMMIT LATE PREFETCHES: 0 NORMAL LATE: 0 MISSED OPPORTUNITY: 0 UNCOVERED: 0
PSCL5 PREFETCHES SAME FILL-ORIGIN LEVEL: 0 DIFFERENT FILL-ORIGIN LEVEL: 0

PSCL4 SPEC fills:          0  NON-SPEC fills:          0
PSCL4 Test counter :          0
PSCL4 Leapfrog:          0
PSCL4 MSHR merge:          0
PSCL4 TOTAL     ACCESS:          0  HIT:          0  MISS:          0  HIT %:       -nan  MISS %:       -nan   MPKI: 0
PSCL4 PREFETCH  REQUESTED:          0  ISSUED:          0  USEFUL:          0  USELESS:          0
PSCL4 USEFUL LOAD PREFETCHES:          0 PREFETCH ISSUED TO LOWER LEVEL:          0  ACCURACY: -nan
PSCL4 TIMELY PREFETCHES:          0 LATE PREFETCHES: 0 DROPPED PREFETCHES: 0
PSCL4 COMMIT LATE PREFETCHES: 0 NORMAL LATE: 0 MISSED OPPORTUNITY: 0 UNCOVERED: 0
PSCL4 PREFETCHES SAME FILL-ORIGIN LEVEL: 0 DIFFERENT FILL-ORIGIN LEVEL: 0

PSCL3 SPEC fills:          0  NON-SPEC fills:          0
PSCL3 Test counter :          0
PSCL3 Leapfrog:          0
PSCL3 MSHR merge:          0
PSCL3 TOTAL     ACCESS:          0  HIT:          0  MISS:          0  HIT %:       -nan  MISS %:       -nan   MPKI: 0
PSCL3 PREFETCH  REQUESTED:          0  ISSUED:          0  USEFUL:          0  USELESS:          0
PSCL3 USEFUL LOAD PREFETCHES:          0 PREFETCH ISSUED TO LOWER LEVEL:          0  ACCURACY: -nan
PSCL3 TIMELY PREFETCHES:          0 LATE PREFETCHES: 0 DROPPED PREFETCHES: 0
PSCL3 COMMIT LATE PREFETCHES: 0 NORMAL LATE: 0 MISSED OPPORTUNITY: 0 UNCOVERED: 0
PSCL3 PREFETCHES SAME FILL-ORIGIN LEVEL: 0 DIFFERENT FILL-ORIGIN LEVEL: 0

PSCL2 SPEC fills:          0  NON-SPEC fills:          0
PSCL2 Test counter :          0
PSCL2 Leapfrog:          0
PSCL2 MSHR merge:          0
PSCL2 TOTAL     ACCESS:          0  HIT:          0  MISS:          0  HIT %:       -nan  MISS %:       -nan   MPKI: 0
PSCL2 PREFETCH  REQUESTED:          0  ISSUED:          0  USEFUL:          0  USELESS:          0
PSCL2 USEFUL LOAD PREFETCHES:          0 PREFETCH ISSUED TO LOWER LEVEL:          0  ACCURACY: -nan
PSCL2 TIMELY PREFETCHES:          0 LATE PREFETCHES: 0 DROPPED PREFETCHES: 0
PSCL2 COMMIT LATE PREFETCHES: 0 NORMAL LATE: 0 MISSED OPPORTUNITY: 0 UNCOVERED: 0
PSCL2 PREFETCHES SAME FILL-ORIGIN LEVEL: 0 DIFFERENT FILL-ORIGIN LEVEL: 0

LLC SPEC fills:          0  NON-SPEC fills:     506341
LLC Test counter :          0
LLC Leapfrog:          0
LLC MSHR merge:          0
LLC TOTAL     ACCESS:   12421336  HIT:    2818720  MISS:    9602616  HIT %:    22.6926  MISS %:    77.3074   MPKI: 48.0131
LLC LOAD      TOTAL       ACCESS:    2683821  HIT:       7843  MISS:    2675978  HIT %:   0.292233  MISS %:    99.7078   MPKI: 13.3799
LLC LOAD      NON_SPEC    ACCESS:     509144  HIT:       2803  MISS:     506341  HIT %:   0.550532  MISS %:    99.4495   MPKI: 2.5317
LLC LOAD      SPEC        ACCESS:    2174677  HIT:       5040  MISS:    2169637  HIT %:   0.231759  MISS %:    99.7682   MPKI: 10.8482
LLC RFO       NON_SPEC    ACCESS:     453263  HIT:        285  MISS:     452978  HIT %:  0.0628774  MISS %:    99.9371   MPKI: 2.26489
LLC PREFETCH  NON_SPEC    ACCESS:    4615329  HIT:      63081  MISS:    4552248  HIT %:    1.36677  MISS %:    98.6332   MPKI: 22.7612
LLC WRITEBACK NON_SPEC    ACCESS:     494168  HIT:     493444  MISS:        724  HIT %:    99.8535  MISS %:   0.146509   MPKI: 0.00362
LLC CLEAN_EVICTION NON_SPEC    ACCESS:    4073817  HIT:    2252465  MISS:    1821352  HIT %:    55.2913  MISS %:    44.7087   MPKI: 9.10676
LLC COMMIT LOAD NON_SPEC    ACCESS:      78651  HIT:         20  MISS:      78631  HIT %:  0.0254288  MISS %:    99.9746   MPKI: 0.393155
LLC LOAD TRANSLATION NON_SPEC    ACCESS:      22257  HIT:       1582  MISS:      20675  HIT %:    7.10788  MISS %:    92.8921   MPKI: 0.103375
LLC TRANSLATION FROM L1D PREFETCHER NON_SPEC    ACCESS:         30  HIT:          0  MISS:         30  HIT %:          0  MISS %:        100   MPKI: 0.00015
LLC PREFETCH  REQUESTED:          0  ISSUED:          0  USEFUL:       4806  USELESS:    4547633
LLC USEFUL LOAD PREFETCHES:       4806 PREFETCH ISSUED TO LOWER LEVEL:    4552248  ACCURACY: 0.105574
LLC TIMELY PREFETCHES:       4806 LATE PREFETCHES: 0 DROPPED PREFETCHES: 0
LLC COMMIT LATE PREFETCHES: 0 NORMAL LATE: 0 MISSED OPPORTUNITY: 0 UNCOVERED: 2675978
LLC PREFETCHES SAME FILL-ORIGIN LEVEL: 0 DIFFERENT FILL-ORIGIN LEVEL: 0
LLC AVERAGE MISS LATENCY: 185.138 cycles
LLC AVERAGE MISS LATENCY LOAD: 211.622 cycles
LLC AVERAGE MISS LATENCY PREFETCH: 237.639 cycles
LLC AVERAGE MSHR OCCUPANCY: 4.53184
LLC MSHR FULL: 0
LLC RQ	ACCESS:    3238023	FORWARD:          0	MERGED:          0	TO_CACHE:    3238022
LLC WQ	ACCESS:    4567986	FORWARD:          1	MERGED:          0	TO_CACHE:    4567986
LLC PQ	ACCESS:    4615330	FORWARD:          0	MERGED:          0	TO_CACHE:    4615330

LLC Dense regions hint to LLC: 0

RAW hits: 1381345
Loads Generated: 64167520
Loads sent to L1D: 62786175
Stores Generated: 57343183
Stores sent to L1D: 57343188
Major fault: 0 Minor fault: 60491
Allocated PAGES: 60491
Total Load insts: 78215645
Total Non-spec loads: 10299092
Percentage of speculative loads: 86.8324

LeapFrogging counter: 7918277
Commit hits: 26525865 miss: 27664218
Commit hit %: 48.9497 miss %: 51.0503
Commits not translated: 0
Loads retired: 3677381
Stores retired: 57343188
Cache fills: 3677381
L1D response latency: 228.656 cycles
Load retirement latency: 491.174 cycles
OOO test counter: 0
Discarded buffer inserts: 26525865 hits: 64278 hit %: 0.242322
Filter prediction accuracy: -nan

stream: 
stream:times selected: 28148827
stream:pref_filled: 3013393
stream:pref_useful: 546591
stream:pref_late: 91714
stream:misses: 567389
stream:misses_by_poll: 0

CS: 
CS:times selected: 902543
CS:pref_filled: 644961
CS:pref_useful: 638372
CS:pref_late: 18
CS:misses: 43855
CS:misses_by_poll: 59512

CPLX: 
CPLX:times selected: 27034826
CPLX:pref_filled: 2226247
CPLX:pref_useful: 759734
CPLX:pref_late: 11872
CPLX:misses: 3558611
CPLX:misses_by_poll: 139538

NL_L1: 
NL:times selected: 284731
NL:pref_filled: 33087
NL:pref_useful: 15497
NL:pref_late: 5089
NL:misses: 79969
NL:misses_by_poll: 1764

total selections: 56370927
total_filled: 4647895
total_useful: 1441833
total_late: 124245
total_polluted: 200814
total_misses_after_warmup: 3678791
conflicts: 13
Degree Incremented Times: 164699
Degree Decremented Times: 291785

L1 IP Table Write Accesses: 33825995
L1 IP Table Read Accesses: 33825982
L1 RST Write Accesses: 22593456
L1 RST Read Accesses: 45186912
L1 CSPT Write Accesses: 22593456
L1 CSPT Read Accesses: 44263271
L1 RR Filter Tag Write Accesses: 24227845
L1 RR Filter Tag Read Accesses: 1076623027
L1 IP Table Tag Write Accesses: 33826001
L1 IP Table Tag Read Accesses: 33826001
L1 RST Tag Write Accesses: 0
L1 RST Tag Read Accesses: 215468177
L1 RR Filter Write Accesses: 0
L1 RR Filter Read Accesses: 35088545
test: 15532690

DRAM Statistics
 CHANNEL 0
 RQ ROW_BUFFER_HIT:    2982096  ROW_BUFFER_MISS:    4798440
 DBUS_CONGESTED:       4676
 WQ ROW_BUFFER_HIT:     873122  ROW_BUFFER_MISS:    3690452  FULL:        604

 AVG_CONGESTED_CYCLE: 5
 All warmup complete: 2
Channel 0 Bank busy for read cycles: 0
Channel 0 Bank busy for write cycles: 0
Channel 0
Rank 0
0banks busy for read cycles: 68921799
0banks busy for write cycles: 246313
1banks busy for read cycles: 94038115
1banks busy for write cycles: 30536694
2banks busy for read cycles: 65965759
2banks busy for write cycles: 23563247
3banks busy for read cycles: 43647055
3banks busy for write cycles: 20508803
4banks busy for read cycles: 27304143
4banks busy for write cycles: 17490901
5banks busy for read cycles: 19909706
5banks busy for write cycles: 14048077
6banks busy for read cycles: 17210032
6banks busy for write cycles: 11001769
7banks busy for read cycles: 15772142
7banks busy for write cycles: 13076252
8banks busy for read cycles: 15105264
8banks busy for write cycles: 56203620

CPU 0 Branch Prediction Accuracy: 99.1376% MPKI: 0.85602 Average ROB Occupancy at Mispredict: 245.144
Branch types
NOT_BRANCH: 180147862 90.0739%
BRANCH_DIRECT_JUMP: 976614 0.488307%
BRANCH_INDIRECT: 0 0%
BRANCH_CONDITIONAL: 18875250 9.43762%
BRANCH_DIRECT_CALL: 94 4.7e-05%
BRANCH_INDIRECT_CALL: 0 0%
BRANCH_RETURN: 94 4.7e-05%
BRANCH_OTHER: 0 0%

DRAM PAGES: 1048576
Allocated PAGES: 60491
