
*** ChampSim Multicore Out-of-Order Simulator ***

Warmup Instructions: 50000000
Simulation Instructions: 200000000
Number of CPUs: 1
LLC sets: 2048
LLC ways: 16
L0D sets: 16
L0D ways: 2
ROB size: 352
LQ size: 128
SQ size: 72
Secure Berti: OFF
Berti: OFF
Berti Fill: OFF
On commit prefetching: OFF
Hit-based filter: OFF
Time-guarding: ON
Free-slotting: ON
Leap-frogging: ON
Train prefetcher on L0D bypass: OFF
No translation penalty for prefetchers: OFF
Prefetch to L0D only: OFF
Prefetch to L1D only: OFF
Clean evictions: ON
Commit loads: ON
Commit write: ON
Fill commit loads to L2C, LLC: ON
DRAM IO FREQUENCY: 6400
ROB SIZE: 352
Off-chip DRAM Size: 4096 MB Channels: 1 Width: 64-bit Data Rate: 6400 MT/s
CPU 0 runs /home/sumon/secure_berti/GhostMinion/../../traces/spec/619.lbm_s-2676B.champsimtrace.xz
.xz
BTB has LRU replacement policy
ITLB has LRU replacement policy
DTLB has LRU replacement policy
STLB has LRU replacement policy
L1I has LRU replacement policy
L0D has LRU replacement policy
IP Table Entries: 1024
CSPT Entries: 128
RR_ENTRIES: 32
RST_ENTRIES: 8
L1D has LRU replacement policy
L2C has LRU replacement policy
LLC has LRU replacement policy
Heartbeat CPU 0 instructions: 10000003 cycles: 3035844 heartbeat IPC: 3.29398 cumulative IPC: 3.29398 (Simulation time: 0 hr 0 min 34 sec) 
Heartbeat CPU 0 instructions: 20000003 cycles: 6066341 heartbeat IPC: 3.29979 cumulative IPC: 3.29688 (Simulation time: 0 hr 1 min 9 sec) 
Heartbeat CPU 0 instructions: 30000003 cycles: 9089290 heartbeat IPC: 3.30803 cumulative IPC: 3.30059 (Simulation time: 0 hr 1 min 43 sec) 
Heartbeat CPU 0 instructions: 40000002 cycles: 12096564 heartbeat IPC: 3.32527 cumulative IPC: 3.30672 (Simulation time: 0 hr 2 min 17 sec) 
Heartbeat CPU 0 instructions: 50000001 cycles: 15088464 heartbeat IPC: 3.34236 cumulative IPC: 3.31379 (Simulation time: 0 hr 2 min 51 sec) 

Warmup complete CPU 0 instructions: 50000001 cycles: 15088464 (Simulation time: 0 hr 2 min 51 sec) 

Heartbeat CPU 0 instructions: 60000001 cycles: 37205532 heartbeat IPC: 0.452139 cumulative IPC: 0.452139 (Simulation time: 0 hr 3 min 52 sec) 
Heartbeat CPU 0 instructions: 70000002 cycles: 57978446 heartbeat IPC: 0.481396 cumulative IPC: 0.466309 (Simulation time: 0 hr 4 min 53 sec) 
Heartbeat CPU 0 instructions: 80000002 cycles: 76426556 heartbeat IPC: 0.542061 cumulative IPC: 0.489092 (Simulation time: 0 hr 5 min 50 sec) 
Heartbeat CPU 0 instructions: 90000001 cycles: 94881830 heartbeat IPC: 0.54185 cumulative IPC: 0.501295 (Simulation time: 0 hr 6 min 46 sec) 
Heartbeat CPU 0 instructions: 100000003 cycles: 111957091 heartbeat IPC: 0.585643 cumulative IPC: 0.516163 (Simulation time: 0 hr 7 min 41 sec) 
Heartbeat CPU 0 instructions: 110000000 cycles: 128514467 heartbeat IPC: 0.60396 cumulative IPC: 0.528979 (Simulation time: 0 hr 8 min 34 sec) 
Heartbeat CPU 0 instructions: 120000003 cycles: 143911939 heartbeat IPC: 0.649457 cumulative IPC: 0.543379 (Simulation time: 0 hr 9 min 26 sec) 
Heartbeat CPU 0 instructions: 130000002 cycles: 158151952 heartbeat IPC: 0.702246 cumulative IPC: 0.559192 (Simulation time: 0 hr 10 min 14 sec) 
Heartbeat CPU 0 instructions: 140000003 cycles: 172446884 heartbeat IPC: 0.699549 cumulative IPC: 0.571943 (Simulation time: 0 hr 11 min 4 sec) 
Heartbeat CPU 0 instructions: 150000000 cycles: 185830178 heartbeat IPC: 0.7472 cumulative IPC: 0.58568 (Simulation time: 0 hr 12 min 2 sec) 
Heartbeat CPU 0 instructions: 160000001 cycles: 198284861 heartbeat IPC: 0.802911 cumulative IPC: 0.600448 (Simulation time: 0 hr 12 min 59 sec) 
Heartbeat CPU 0 instructions: 170000003 cycles: 210632804 heartbeat IPC: 0.809852 cumulative IPC: 0.613672 (Simulation time: 0 hr 13 min 55 sec) 
Heartbeat CPU 0 instructions: 180000000 cycles: 222902741 heartbeat IPC: 0.815 cumulative IPC: 0.625559 (Simulation time: 0 hr 14 min 50 sec) 
Heartbeat CPU 0 instructions: 190000000 cycles: 234647454 heartbeat IPC: 0.851447 cumulative IPC: 0.637642 (Simulation time: 0 hr 15 min 44 sec) 
Heartbeat CPU 0 instructions: 200000000 cycles: 246259868 heartbeat IPC: 0.861147 cumulative IPC: 0.648869 (Simulation time: 0 hr 16 min 38 sec) 
Heartbeat CPU 0 instructions: 210000000 cycles: 257296562 heartbeat IPC: 0.906068 cumulative IPC: 0.660589 (Simulation time: 0 hr 17 min 31 sec) 
Heartbeat CPU 0 instructions: 220000000 cycles: 268573251 heartbeat IPC: 0.886785 cumulative IPC: 0.670652 (Simulation time: 0 hr 18 min 24 sec) 
Heartbeat CPU 0 instructions: 230000002 cycles: 279427448 heartbeat IPC: 0.921303 cumulative IPC: 0.680944 (Simulation time: 0 hr 19 min 14 sec) 
Heartbeat CPU 0 instructions: 240000002 cycles: 290459398 heartbeat IPC: 0.906458 cumulative IPC: 0.689978 (Simulation time: 0 hr 20 min 3 sec) 
Heartbeat CPU 0 instructions: 250000000 cycles: 301279695 heartbeat IPC: 0.924189 cumulative IPC: 0.698833 (Simulation time: 0 hr 20 min 52 sec) 
Finished CPU 0 instructions: 200000003 cycles: 286191232 cumulative IPC: 0.698833 (Simulation time: 0 hr 20 min 52 sec) 
 Instruction ID: 250000039

ChampSim completed all CPUs

Region of Interest Statistics

CPU 0 cumulative IPC: 0.698833 instructions: 200000003 cycles: 286191232
ITLB SPEC fills:          0  NON-SPEC fills:          0
ITLB Test counter :          0
ITLB Leapfrog:          0
ITLB MSHR merge:          0
ITLB TOTAL     ACCESS:   26029532  HIT:   26029532  MISS:          0  HIT %:        100  MISS %:          0   MPKI: 0
ITLB LOAD TRANSLATION NON_SPEC    ACCESS:   26029532  HIT:   26029532  MISS:          0  HIT %:        100  MISS %:          0   MPKI: 0
ITLB PREFETCH  REQUESTED:          0  ISSUED:          0  USEFUL:          0  USELESS:          0
ITLB USEFUL LOAD PREFETCHES:          0 PREFETCH ISSUED TO LOWER LEVEL:          0  ACCURACY: -nan
ITLB TIMELY PREFETCHES:          0 LATE PREFETCHES: 0 DROPPED PREFETCHES: 0
ITLB COMMIT LATE PREFETCHES: 0 NORMAL LATE: 0 MISSED OPPORTUNITY: 0 UNCOVERED: 0
ITLB PREFETCHES SAME FILL-ORIGIN LEVEL: 0 DIFFERENT FILL-ORIGIN LEVEL: 0
ITLB AVERAGE MISS LATENCY: -nan cycles
ITLB AVERAGE MISS LATENCY LOAD: -nan cycles
ITLB AVERAGE MISS LATENCY PREFETCH: -nan cycles
ITLB AVERAGE MSHR OCCUPANCY: 0
ITLB MSHR FULL: 0
ITLB RQ	ACCESS:   34026661	FORWARD:          0	MERGED:    7997130	TO_CACHE:   26029531

DTLB SPEC fills:          0  NON-SPEC fills:          0
DTLB Test counter :          0
DTLB Leapfrog:          0
DTLB MSHR merge:          0
DTLB TOTAL     ACCESS:   45179368  HIT:   45025839  MISS:     153529  HIT %:    99.6602  MISS %:   0.339821   MPKI: 0.767645
DTLB LOAD TRANSLATION NON_SPEC    ACCESS:   45179368  HIT:   45025839  MISS:     153529  HIT %:    99.6602  MISS %:   0.339821   MPKI: 0.767645
DTLB PREFETCH  REQUESTED:          0  ISSUED:          0  USEFUL:          0  USELESS:          0
DTLB USEFUL LOAD PREFETCHES:          0 PREFETCH ISSUED TO LOWER LEVEL:          0  ACCURACY: -nan
DTLB TIMELY PREFETCHES:          0 LATE PREFETCHES: 0 DROPPED PREFETCHES: 0
DTLB COMMIT LATE PREFETCHES: 0 NORMAL LATE: 0 MISSED OPPORTUNITY: 0 UNCOVERED: 0
DTLB PREFETCHES SAME FILL-ORIGIN LEVEL: 0 DIFFERENT FILL-ORIGIN LEVEL: 0
DTLB AVERAGE MISS LATENCY: 142.07 cycles
DTLB AVERAGE MISS LATENCY LOAD: -nan cycles
DTLB AVERAGE MISS LATENCY PREFETCH: -nan cycles
DTLB AVERAGE MSHR OCCUPANCY: 0.0720412
DTLB MSHR FULL: 0
DTLB RQ	ACCESS:   64986160	FORWARD:          0	MERGED:   19744295	TO_CACHE:   45241865

STLB SPEC fills:          0  NON-SPEC fills:          0
STLB Test counter :          0
STLB Leapfrog:          0
STLB MSHR merge:          0
STLB TOTAL     ACCESS:    1032177  HIT:     948871  MISS:      83306  HIT %:    91.9291  MISS %:     8.0709   MPKI: 0.41653
STLB LOAD TRANSLATION NON_SPEC    ACCESS:     153529  HIT:      70223  MISS:      83306  HIT %:    45.7392  MISS %:    54.2608   MPKI: 0.41653
STLB TRANSLATION FROM L1D PREFETCHER NON_SPEC    ACCESS:     878648  HIT:     878648  MISS:          0  HIT %:        100  MISS %:          0   MPKI: 0
STLB PREFETCH  REQUESTED:          0  ISSUED:          0  USEFUL:          0  USELESS:          0
STLB USEFUL LOAD PREFETCHES:          0 PREFETCH ISSUED TO LOWER LEVEL:          0  ACCURACY: -nan
STLB TIMELY PREFETCHES:          0 LATE PREFETCHES: 0 DROPPED PREFETCHES: 0
STLB COMMIT LATE PREFETCHES: 0 NORMAL LATE: 0 MISSED OPPORTUNITY: 0 UNCOVERED: 0
STLB PREFETCHES SAME FILL-ORIGIN LEVEL: 0 DIFFERENT FILL-ORIGIN LEVEL: 0
STLB AVERAGE MISS LATENCY: 245.218 cycles
STLB AVERAGE MISS LATENCY LOAD: -nan cycles
STLB AVERAGE MISS LATENCY PREFETCH: -nan cycles
STLB AVERAGE MSHR OCCUPANCY: 0.086396
STLB MSHR FULL: 0
STLB RQ	ACCESS:    1546403	FORWARD:          0	MERGED:     514226	TO_CACHE:    1032177

STLB Hit, L1D data hit: 0
STLB Hit, L2C data hit: 0
STLB Hit, LLC data hit: 0
STLB Hit, LLC data miss: 0
STLB STLB hints to L2: 0
L0D SPEC fills:   22208565  NON-SPEC fills:          0
L0D TimeGuard Request with older TS:     243420 Restricted eviction:       2425 read:    1053943
L0D Test counter :          0
L0D Leapfrog:          0
L0D MSHR merge:    1394988
L0D TOTAL     ACCESS:   32441407  HIT:    8247478  MISS:   24193929  HIT %:    25.4227  MISS %:    74.5773   MPKI: 120.97
L0D LOAD      TOTAL       ACCESS:   32441407  HIT:    8247478  MISS:   24193929  HIT %:    25.4227  MISS %:    74.5773   MPKI: 120.97
L0D LOAD      NON_SPEC    ACCESS:    3318780  HIT:    1335841  MISS:    1982939  HIT %:     40.251  MISS %:     59.749   MPKI: 9.91469
L0D LOAD      SPEC        ACCESS:   29122627  HIT:    6911637  MISS:   22210990  HIT %:    23.7329  MISS %:    76.2671   MPKI: 111.055
L0D PREFETCH  REQUESTED:          0  ISSUED:          0  USEFUL:          0  USELESS:          0
L0D USEFUL LOAD PREFETCHES:          0 PREFETCH ISSUED TO LOWER LEVEL:          0  ACCURACY: -nan
L0D TIMELY PREFETCHES:          0 LATE PREFETCHES: 0 DROPPED PREFETCHES: 0
L0D COMMIT LATE PREFETCHES: 0 NORMAL LATE: 0 MISSED OPPORTUNITY: 0 UNCOVERED: 24193929
L0D PREFETCHES SAME FILL-ORIGIN LEVEL: 0 DIFFERENT FILL-ORIGIN LEVEL: 0
L0D AVERAGE MISS LATENCY: 13.7694 cycles
L0D AVERAGE MISS LATENCY LOAD: 13.7694 cycles
L0D AVERAGE MISS LATENCY PREFETCH: -nan cycles
L0D AVERAGE MSHR OCCUPANCY: 0.673587
L0D MSHR FULL: 0.013572
L0D RQ	ACCESS:   47060071	FORWARD:          0	MERGED:   13223677	TO_CACHE:   33836394
L0D WQ	ACCESS:   31149766	FORWARD:          0	MERGED:          0	TO_CACHE:   31149766

L1D SPEC fills:          0  NON-SPEC fills:      20617
L1D Test counter :          0
L1D Leapfrog:          0
L1D MSHR merge:      55097
L1D TOTAL     ACCESS:   80119283  HIT:   71704946  MISS:    8414337  HIT %:    89.4977  MISS %:    10.5023   MPKI: 42.0717
L1D LOAD      TOTAL       ACCESS:   24190406  HIT:   24022626  MISS:     167780  HIT %:    99.3064  MISS %:   0.693581   MPKI: 0.8389
L1D LOAD      NON_SPEC    ACCESS:    1982317  HIT:    1961700  MISS:      20617  HIT %:      98.96  MISS %:    1.04005   MPKI: 0.103085
L1D LOAD      SPEC        ACCESS:   22208089  HIT:   22060926  MISS:     147163  HIT %:    99.3373  MISS %:   0.662655   MPKI: 0.735815
L1D RFO       NON_SPEC    ACCESS:   26113891  HIT:   19203039  MISS:    6910852  HIT %:    73.5357  MISS %:    26.4643   MPKI: 34.5543
L1D PREFETCH  NON_SPEC    ACCESS:    1272789  HIT:      96379  MISS:    1176410  HIT %:    7.57227  MISS %:    92.4277   MPKI: 5.88205
L1D COMMIT LOAD NON_SPEC    ACCESS:   10582399  HIT:   10534329  MISS:      48070  HIT %:    99.5458  MISS %:   0.454245   MPKI: 0.24035
L1D COMMIT WRITE NON_SPEC    ACCESS:   17959798  HIT:   17848573  MISS:     111225  HIT %:    99.3807  MISS %:     0.6193   MPKI: 0.556125
L1D PREFETCH  REQUESTED:    1398915  ISSUED:    1392874  USEFUL:    1175747  USELESS:        665
L1D USEFUL LOAD PREFETCHES:    1175747 PREFETCH ISSUED TO LOWER LEVEL:    1228710  ACCURACY: 95.6895
L1D TIMELY PREFETCHES:    1175747 LATE PREFETCHES: 52300 DROPPED PREFETCHES: 0
L1D COMMIT LATE PREFETCHES: 0 NORMAL LATE: 52300 MISSED OPPORTUNITY: 0 UNCOVERED: 115480
L1D PREFETCHES SAME FILL-ORIGIN LEVEL: 1228710 DIFFERENT FILL-ORIGIN LEVEL: 0
L1D AVERAGE MISS LATENCY: 395.029 cycles
L1D AVERAGE MISS LATENCY LOAD: 928.942 cycles
L1D AVERAGE MISS LATENCY PREFETCH: 568.122 cycles
L1D AVERAGE MSHR OCCUPANCY: 14.5083
L1D MSHR FULL: 0.726406
L1D RQ	ACCESS:   44793983	FORWARD:          0	MERGED:    7672508	TO_CACHE:   34778542
L1D WQ	ACCESS:   51305038	FORWARD:    2342933	MERGED:    7146640	TO_CACHE:   44158398
L1D PQ	ACCESS:    1392874	FORWARD:          0	MERGED:          0	TO_CACHE:    1392874

L1D UNIQUE REGIONS ACCESSED: 0
L1D REGIONS CONFLICTS: 0
L1D Cross Page Prefetch Requests: 0
L1D Same Page Prefetch Requests: 1936330
L1D ROI Sum of L1D PQ occupancy: 426402177
L1D PREFETCHES PUSHED FROM L2C: 0
L1I SPEC fills:          0  NON-SPEC fills:          0
L1I Test counter :          0
L1I Leapfrog:          0
L1I MSHR merge:          0
L1I TOTAL     ACCESS:   34026660  HIT:   34026660  MISS:          0  HIT %:        100  MISS %:          0   MPKI: 0
L1I LOAD      TOTAL       ACCESS:   34026660  HIT:   34026660  MISS:          0  HIT %:        100  MISS %:          0   MPKI: 0
L1I LOAD      NON_SPEC    ACCESS:   34026660  HIT:   34026660  MISS:          0  HIT %:        100  MISS %:          0   MPKI: 0
L1I PREFETCH  REQUESTED:          0  ISSUED:          0  USEFUL:          0  USELESS:          0
L1I USEFUL LOAD PREFETCHES:          0 PREFETCH ISSUED TO LOWER LEVEL:          0  ACCURACY: -nan
L1I TIMELY PREFETCHES:          0 LATE PREFETCHES: 0 DROPPED PREFETCHES: 0
L1I COMMIT LATE PREFETCHES: 0 NORMAL LATE: 0 MISSED OPPORTUNITY: 0 UNCOVERED: 0
L1I PREFETCHES SAME FILL-ORIGIN LEVEL: 0 DIFFERENT FILL-ORIGIN LEVEL: 0
L1I AVERAGE MISS LATENCY: -nan cycles
L1I AVERAGE MISS LATENCY LOAD: -nan cycles
L1I AVERAGE MISS LATENCY PREFETCH: -nan cycles
L1I AVERAGE MSHR OCCUPANCY: 0
L1I MSHR FULL: 0
L1I RQ	ACCESS:   47942074	FORWARD:          0	MERGED:   13915413	TO_CACHE:   34026661

BTB SPEC fills:          0  NON-SPEC fills:          0
BTB Test counter :          0
BTB Leapfrog:          0
BTB MSHR merge:          0
BTB TOTAL     ACCESS:    2423394  HIT:    2423388  MISS:          6  HIT %:    99.9998  MISS %: 0.000247587   MPKI: 3e-05
BTB BRANCH_DIRECT_JUMP	ACCESS:     120779  HIT:     120778  MISS:          1
BTB BRANCH_INDIRECT	ACCESS:          0  HIT:          0  MISS:          0
BTB BRANCH_CONDITIONAL	ACCESS:    2302615  HIT:    2302610  MISS:          5
BTB BRANCH_DIRECT_CALL	ACCESS:          0  HIT:          0  MISS:          0
BTB BRANCH_INDIRECT_CALL	ACCESS:          0  HIT:          0  MISS:          0
BTB BRANCH_RETURN	ACCESS:          0  HIT:          0  MISS:          0
BTB BRANCH_OTHER ACCESS:          0  HIT:          0  MISS:          0

L2C SPEC fills:          0  NON-SPEC fills:      15287
L2C Test counter :          0
L2C Leapfrog:          0
L2C MSHR merge:          0
L2C TOTAL     ACCESS:   16936829  HIT:   11608611  MISS:    5328218  HIT %:    68.5406  MISS %:    31.4594   MPKI: 26.6411
L2C LOAD      TOTAL       ACCESS:     116206  HIT:       1385  MISS:     114821  HIT %:    1.19185  MISS %:    98.8082   MPKI: 0.574105
L2C LOAD      NON_SPEC    ACCESS:      15364  HIT:         77  MISS:      15287  HIT %:   0.501172  MISS %:    99.4988   MPKI: 0.076435
L2C LOAD      SPEC        ACCESS:     100842  HIT:       1308  MISS:      99534  HIT %:    1.29708  MISS %:    98.7029   MPKI: 0.49767
L2C RFO       NON_SPEC    ACCESS:    6910852  HIT:    3025299  MISS:    3885553  HIT %:    43.7761  MISS %:    56.2239   MPKI: 19.4278
L2C PREFETCH  NON_SPEC    ACCESS:    1228710  HIT:          1  MISS:    1228709  HIT %: 8.13862e-05  MISS %:    99.9999   MPKI: 6.14354
L2C WRITEBACK NON_SPEC    ACCESS:    6910860  HIT:    6910778  MISS:         82  HIT %:    99.9988  MISS %: 0.00118654   MPKI: 0.00041
L2C CLEAN_EVICTION NON_SPEC    ACCESS:    1306408  HIT:    1240651  MISS:      65757  HIT %:    94.9666  MISS %:    5.03342   MPKI: 0.328785
L2C COMMIT LOAD NON_SPEC    ACCESS:      47344  HIT:      24560  MISS:      22784  HIT %:    51.8756  MISS %:    48.1244   MPKI: 0.11392
L2C LOAD TRANSLATION NON_SPEC    ACCESS:     416449  HIT:     405937  MISS:      10512  HIT %:    97.4758  MISS %:     2.5242   MPKI: 0.05256
L2C PREFETCH  REQUESTED:          0  ISSUED:          0  USEFUL:      25386  USELESS:    1202427
L2C USEFUL LOAD PREFETCHES:      25386 PREFETCH ISSUED TO LOWER LEVEL:    1228709  ACCURACY: 2.06607
L2C TIMELY PREFETCHES:      25386 LATE PREFETCHES: 0 DROPPED PREFETCHES: 0
L2C COMMIT LATE PREFETCHES: 0 NORMAL LATE: 0 MISSED OPPORTUNITY: 0 UNCOVERED: 114821
L2C PREFETCHES SAME FILL-ORIGIN LEVEL: 0 DIFFERENT FILL-ORIGIN LEVEL: 0
L2C AVERAGE MISS LATENCY: 591.242 cycles
L2C AVERAGE MISS LATENCY LOAD: 509.135 cycles
L2C AVERAGE MISS LATENCY PREFETCH: 563.516 cycles
L2C AVERAGE MSHR OCCUPANCY: 11.2774
L2C MSHR FULL: 0
L2C RQ	ACCESS:    7490866	FORWARD:          0	MERGED:          0	TO_CACHE:    7490866
L2C WQ	ACCESS:    8217279	FORWARD:          0	MERGED:         11	TO_CACHE:    8217268
L2C PQ	ACCESS:    1228710	FORWARD:          0	MERGED:          0	TO_CACHE:    1228710

L2C Instructions Evicting Data 0
L2C Translations Evicting Data 10418
L2C Data Evicting Data 5142092
L2C Instructions Evicting Instructions 0
L2C Translations Evicting Instructions 0
L2C Data Evicting Instructions 0
L2C Instructions Evicting Translations 0
L2C Translations Evicting Translations 94
L2C Data Evicting Translations 10241
L2C Dense regions hint from L2: 0
PSCL5 SPEC fills:          0  NON-SPEC fills:          0
PSCL5 Test counter :          0
PSCL5 Leapfrog:          0
PSCL5 MSHR merge:          0
PSCL5 TOTAL     ACCESS:          0  HIT:          0  MISS:          0  HIT %:       -nan  MISS %:       -nan   MPKI: 0
PSCL5 PREFETCH  REQUESTED:          0  ISSUED:          0  USEFUL:          0  USELESS:          0
PSCL5 USEFUL LOAD PREFETCHES:          0 PREFETCH ISSUED TO LOWER LEVEL:          0  ACCURACY: -nan
PSCL5 TIMELY PREFETCHES:          0 LATE PREFETCHES: 0 DROPPED PREFETCHES: 0
PSCL5 COMMIT LATE PREFETCHES: 0 NORMAL LATE: 0 MISSED OPPORTUNITY: 0 UNCOVERED: 0
PSCL5 PREFETCHES SAME FILL-ORIGIN LEVEL: 0 DIFFERENT FILL-ORIGIN LEVEL: 0

PSCL4 SPEC fills:          0  NON-SPEC fills:          0
PSCL4 Test counter :          0
PSCL4 Leapfrog:          0
PSCL4 MSHR merge:          0
PSCL4 TOTAL     ACCESS:          0  HIT:          0  MISS:          0  HIT %:       -nan  MISS %:       -nan   MPKI: 0
PSCL4 PREFETCH  REQUESTED:          0  ISSUED:          0  USEFUL:          0  USELESS:          0
PSCL4 USEFUL LOAD PREFETCHES:          0 PREFETCH ISSUED TO LOWER LEVEL:          0  ACCURACY: -nan
PSCL4 TIMELY PREFETCHES:          0 LATE PREFETCHES: 0 DROPPED PREFETCHES: 0
PSCL4 COMMIT LATE PREFETCHES: 0 NORMAL LATE: 0 MISSED OPPORTUNITY: 0 UNCOVERED: 0
PSCL4 PREFETCHES SAME FILL-ORIGIN LEVEL: 0 DIFFERENT FILL-ORIGIN LEVEL: 0

PSCL3 SPEC fills:          0  NON-SPEC fills:          0
PSCL3 Test counter :          0
PSCL3 Leapfrog:          0
PSCL3 MSHR merge:          0
PSCL3 TOTAL     ACCESS:          0  HIT:          0  MISS:          0  HIT %:       -nan  MISS %:       -nan   MPKI: 0
PSCL3 PREFETCH  REQUESTED:          0  ISSUED:          0  USEFUL:          0  USELESS:          0
PSCL3 USEFUL LOAD PREFETCHES:          0 PREFETCH ISSUED TO LOWER LEVEL:          0  ACCURACY: -nan
PSCL3 TIMELY PREFETCHES:          0 LATE PREFETCHES: 0 DROPPED PREFETCHES: 0
PSCL3 COMMIT LATE PREFETCHES: 0 NORMAL LATE: 0 MISSED OPPORTUNITY: 0 UNCOVERED: 0
PSCL3 PREFETCHES SAME FILL-ORIGIN LEVEL: 0 DIFFERENT FILL-ORIGIN LEVEL: 0

PSCL2 SPEC fills:          0  NON-SPEC fills:          0
PSCL2 Test counter :          0
PSCL2 Leapfrog:          0
PSCL2 MSHR merge:          0
PSCL2 TOTAL     ACCESS:          0  HIT:          0  MISS:          0  HIT %:       -nan  MISS %:       -nan   MPKI: 0
PSCL2 PREFETCH  REQUESTED:          0  ISSUED:          0  USEFUL:          0  USELESS:          0
PSCL2 USEFUL LOAD PREFETCHES:          0 PREFETCH ISSUED TO LOWER LEVEL:          0  ACCURACY: -nan
PSCL2 TIMELY PREFETCHES:          0 LATE PREFETCHES: 0 DROPPED PREFETCHES: 0
PSCL2 COMMIT LATE PREFETCHES: 0 NORMAL LATE: 0 MISSED OPPORTUNITY: 0 UNCOVERED: 0
PSCL2 PREFETCHES SAME FILL-ORIGIN LEVEL: 0 DIFFERENT FILL-ORIGIN LEVEL: 0

LLC SPEC fills:          0  NON-SPEC fills:      15287
LLC Test counter :          0
LLC Leapfrog:          0
LLC MSHR merge:          0
LLC TOTAL     ACCESS:   10452597  HIT:    5172199  MISS:    5280398  HIT %:    49.4824  MISS %:    50.5176   MPKI: 26.402
LLC LOAD      TOTAL       ACCESS:     114821  HIT:          5  MISS:     114816  HIT %:  0.0043546  MISS %:    99.9956   MPKI: 0.57408
LLC LOAD      NON_SPEC    ACCESS:      15287  HIT:          0  MISS:      15287  HIT %:          0  MISS %:        100   MPKI: 0.076435
LLC LOAD      SPEC        ACCESS:      99534  HIT:          5  MISS:      99529  HIT %: 0.00502341  MISS %:     99.995   MPKI: 0.497645
LLC RFO       NON_SPEC    ACCESS:    3885294  HIT:      47418  MISS:    3837876  HIT %:    1.22045  MISS %:    98.7796   MPKI: 19.1894
LLC PREFETCH  NON_SPEC    ACCESS:    1228709  HIT:          0  MISS:    1228709  HIT %:          0  MISS %:        100   MPKI: 6.14354
LLC WRITEBACK NON_SPEC    ACCESS:    3886728  HIT:    3886672  MISS:         56  HIT %:    99.9986  MISS %:  0.0014408   MPKI: 0.00028
LLC CLEAN_EVICTION NON_SPEC    ACCESS:    1303749  HIT:    1238104  MISS:      65645  HIT %:    94.9649  MISS %:    5.03509   MPKI: 0.328225
LLC COMMIT LOAD NON_SPEC    ACCESS:      22784  HIT:          0  MISS:      22784  HIT %:          0  MISS %:        100   MPKI: 0.11392
LLC LOAD TRANSLATION NON_SPEC    ACCESS:      10512  HIT:          0  MISS:      10512  HIT %:          0  MISS %:        100   MPKI: 0.05256
LLC PREFETCH  REQUESTED:          0  ISSUED:          0  USEFUL:          0  USELESS:    1229191
LLC USEFUL LOAD PREFETCHES:          0 PREFETCH ISSUED TO LOWER LEVEL:    1228709  ACCURACY: 0
LLC TIMELY PREFETCHES:          0 LATE PREFETCHES: 0 DROPPED PREFETCHES: 0
LLC COMMIT LATE PREFETCHES: 0 NORMAL LATE: 0 MISSED OPPORTUNITY: 0 UNCOVERED: 114816
LLC PREFETCHES SAME FILL-ORIGIN LEVEL: 0 DIFFERENT FILL-ORIGIN LEVEL: 0
LLC AVERAGE MISS LATENCY: 565.981 cycles
LLC AVERAGE MISS LATENCY LOAD: 486.765 cycles
LLC AVERAGE MISS LATENCY PREFETCH: 533.106 cycles
LLC AVERAGE MSHR OCCUPANCY: 10.7196
LLC MSHR FULL: 0
LLC RQ	ACCESS:    4033685	FORWARD:          0	MERGED:          0	TO_CACHE:    4033426
LLC WQ	ACCESS:    5190477	FORWARD:        259	MERGED:          0	TO_CACHE:    5190477
LLC PQ	ACCESS:    1228709	FORWARD:          0	MERGED:          0	TO_CACHE:    1228709

LLC Dense regions hint to LLC: 0

RAW hits: 699023
Loads Generated: 47759094
Loads sent to L1D: 47060071
Stores Generated: 31149747
Stores sent to L1D: 31149766
Major fault: 0 Minor fault: 61402
Allocated PAGES: 61402
Total Load insts: 58289575
Total Non-spec loads: 4910296
Percentage of speculative loads: 91.576

LeapFrogging counter: 9917260
Commit hits: 21965150 miss: 20600055
Commit hit %: 51.6035 miss %: 48.3965
Commits not translated: 0
Loads retired: 167780
Stores retired: 31149766
Cache fills: 167780
L1D response latency: 928.942 cycles
Load retirement latency: 2009.39 cycles
OOO test counter: 0
Discarded buffer inserts: 21965150 hits: 56652 hit %: 0.257918
Filter prediction accuracy: -nan

stream: 
stream:times selected: 8223155
stream:pref_filled: 190158
stream:pref_useful: 188452
stream:pref_late: 3145
stream:misses: 52244
stream:misses_by_poll: 0

CS: 
CS:times selected: 2100321
CS:pref_filled: 972396
CS:pref_useful: 972383
CS:pref_late: 983
CS:misses: 51911
CS:misses_by_poll: 113

CPLX: 
CPLX:times selected: 6120363
CPLX:pref_filled: 512637
CPLX:pref_useful: 512301
CPLX:pref_late: 3601
CPLX:misses: 98871
CPLX:misses_by_poll: 299

NL_L1: 
NL:times selected: 526
NL:pref_filled: 62
NL:pref_useful: 59
NL:pref_late: 2
NL:misses: 88
NL:misses_by_poll: 0

total selections: 16444365
total_filled: 1176410
total_useful: 1175747
total_late: 7871
total_polluted: 412
total_misses_after_warmup: 171303
conflicts: 73391
Degree Incremented Times: 314378
Degree Decremented Times: 0

L1 IP Table Write Accesses: 23146290
L1 IP Table Read Accesses: 23072899
L1 RST Write Accesses: 7250727
L1 RST Read Accesses: 14501454
L1 CSPT Write Accesses: 7250727
L1 CSPT Read Accesses: 22885066
L1 RR Filter Tag Write Accesses: 1398915
L1 RR Filter Tag Read Accesses: 1236481384
L1 IP Table Tag Write Accesses: 24193929
L1 IP Table Tag Read Accesses: 24193929
L1 RST Tag Write Accesses: 0
L1 RST Tag Read Accesses: 65575279
L1 RR Filter Write Accesses: 0
L1 RR Filter Read Accesses: 57507468
test: 823665

DRAM Statistics
 CHANNEL 0
 RQ ROW_BUFFER_HIT:     344044  ROW_BUFFER_MISS:    4870653
 DBUS_CONGESTED:          3
 WQ ROW_BUFFER_HIT:    1146314  ROW_BUFFER_MISS:    3996355  FULL:        462

 AVG_CONGESTED_CYCLE: 6
 All warmup complete: 2
Channel 0 Bank busy for read cycles: 0
Channel 0 Bank busy for write cycles: 0
Channel 0
Rank 0
0banks busy for read cycles: 31138030
0banks busy for write cycles: 13285
1banks busy for read cycles: 3105709
1banks busy for write cycles: 1698903
2banks busy for read cycles: 3174217
2banks busy for write cycles: 1356110
3banks busy for read cycles: 5549636
3banks busy for write cycles: 1241783
4banks busy for read cycles: 10727126
4banks busy for write cycles: 1229048
5banks busy for read cycles: 23185191
5banks busy for write cycles: 1277084
6banks busy for read cycles: 32449117
6banks busy for write cycles: 1483034
7banks busy for read cycles: 36299535
7banks busy for write cycles: 6864430
8banks busy for read cycles: 27900670
8banks busy for write cycles: 97498325

CPU 0 Branch Prediction Accuracy: 99.0972% MPKI: 0.10939 Average ROB Occupancy at Mispredict: 106.177
Branch types
NOT_BRANCH: 197576254 98.7881%
BRANCH_DIRECT_JUMP: 120779 0.0603895%
BRANCH_INDIRECT: 0 0%
BRANCH_CONDITIONAL: 2302625 1.15131%
BRANCH_DIRECT_CALL: 0 0%
BRANCH_INDIRECT_CALL: 0 0%
BRANCH_RETURN: 0 0%
BRANCH_OTHER: 0 0%

DRAM PAGES: 1048576
Allocated PAGES: 61402
