
*** ChampSim Multicore Out-of-Order Simulator ***

Warmup Instructions: 50000000
Simulation Instructions: 200000000
Number of CPUs: 1
LLC sets: 2048
LLC ways: 16
L0D sets: 16
L0D ways: 2
ROB size: 352
LQ size: 128
SQ size: 72
Secure Berti: OFF
Berti: OFF
Berti Fill: OFF
On commit prefetching: OFF
Hit-based filter: OFF
Time-guarding: ON
Free-slotting: ON
Leap-frogging: ON
Train prefetcher on L0D bypass: OFF
No translation penalty for prefetchers: OFF
Prefetch to L0D only: OFF
Prefetch to L1D only: OFF
Clean evictions: ON
Commit loads: ON
Commit write: ON
Fill commit loads to L2C, LLC: ON
DRAM IO FREQUENCY: 6400
ROB SIZE: 352
Off-chip DRAM Size: 4096 MB Channels: 1 Width: 64-bit Data Rate: 6400 MT/s
CPU 0 runs /home/sumon/secure_berti/GhostMinion/../../traces/spec/619.lbm_s-4268B.champsimtrace.xz
.xz
BTB has LRU replacement policy
ITLB has LRU replacement policy
DTLB has LRU replacement policy
STLB has LRU replacement policy
L1I has LRU replacement policy
L0D has LRU replacement policy
IP Table Entries: 1024
CSPT Entries: 128
RR_ENTRIES: 32
RST_ENTRIES: 8
L1D has LRU replacement policy
L2C has LRU replacement policy
LLC has LRU replacement policy
Heartbeat CPU 0 instructions: 10000000 cycles: 3054180 heartbeat IPC: 3.2742 cumulative IPC: 3.2742 (Simulation time: 0 hr 0 min 34 sec) 
Heartbeat CPU 0 instructions: 20000003 cycles: 6107375 heartbeat IPC: 3.27526 cumulative IPC: 3.27473 (Simulation time: 0 hr 1 min 7 sec) 
Heartbeat CPU 0 instructions: 30000000 cycles: 9154778 heartbeat IPC: 3.28148 cumulative IPC: 3.27698 (Simulation time: 0 hr 1 min 41 sec) 
Heartbeat CPU 0 instructions: 40000000 cycles: 12209267 heartbeat IPC: 3.27387 cumulative IPC: 3.2762 (Simulation time: 0 hr 2 min 16 sec) 
Heartbeat CPU 0 instructions: 50000002 cycles: 15266458 heartbeat IPC: 3.27098 cumulative IPC: 3.27515 (Simulation time: 0 hr 2 min 51 sec) 

Warmup complete CPU 0 instructions: 50000002 cycles: 15266458 (Simulation time: 0 hr 2 min 51 sec) 

Heartbeat CPU 0 instructions: 60000000 cycles: 45713979 heartbeat IPC: 0.328434 cumulative IPC: 0.328434 (Simulation time: 0 hr 4 min 5 sec) 
Heartbeat CPU 0 instructions: 70000000 cycles: 76162995 heartbeat IPC: 0.328418 cumulative IPC: 0.328426 (Simulation time: 0 hr 5 min 19 sec) 
Heartbeat CPU 0 instructions: 80000001 cycles: 105508064 heartbeat IPC: 0.340773 cumulative IPC: 0.332441 (Simulation time: 0 hr 6 min 31 sec) 
Heartbeat CPU 0 instructions: 90000001 cycles: 135418484 heartbeat IPC: 0.334332 cumulative IPC: 0.332912 (Simulation time: 0 hr 7 min 44 sec) 
Heartbeat CPU 0 instructions: 100000001 cycles: 165125528 heartbeat IPC: 0.336621 cumulative IPC: 0.333647 (Simulation time: 0 hr 8 min 56 sec) 
Heartbeat CPU 0 instructions: 110000000 cycles: 195126546 heartbeat IPC: 0.333322 cumulative IPC: 0.333593 (Simulation time: 0 hr 10 min 8 sec) 
Heartbeat CPU 0 instructions: 120000001 cycles: 225653947 heartbeat IPC: 0.327575 cumulative IPC: 0.332719 (Simulation time: 0 hr 11 min 31 sec) 
Heartbeat CPU 0 instructions: 130000002 cycles: 255242799 heartbeat IPC: 0.337965 cumulative IPC: 0.333366 (Simulation time: 0 hr 13 min 45 sec) 
Heartbeat CPU 0 instructions: 140000000 cycles: 284799024 heartbeat IPC: 0.338338 cumulative IPC: 0.333911 (Simulation time: 0 hr 16 min 0 sec) 
Heartbeat CPU 0 instructions: 150000001 cycles: 315498831 heartbeat IPC: 0.325735 cumulative IPC: 0.333075 (Simulation time: 0 hr 18 min 15 sec) 
Heartbeat CPU 0 instructions: 160000003 cycles: 346475292 heartbeat IPC: 0.322826 cumulative IPC: 0.332117 (Simulation time: 0 hr 20 min 29 sec) 
Heartbeat CPU 0 instructions: 170000003 cycles: 377364648 heartbeat IPC: 0.323736 cumulative IPC: 0.331402 (Simulation time: 0 hr 22 min 0 sec) 
Heartbeat CPU 0 instructions: 180000001 cycles: 407776620 heartbeat IPC: 0.328818 cumulative IPC: 0.331202 (Simulation time: 0 hr 23 min 18 sec) 
Heartbeat CPU 0 instructions: 190000003 cycles: 438376062 heartbeat IPC: 0.326803 cumulative IPC: 0.330884 (Simulation time: 0 hr 24 min 33 sec) 
Heartbeat CPU 0 instructions: 200000000 cycles: 469391657 heartbeat IPC: 0.322418 cumulative IPC: 0.330305 (Simulation time: 0 hr 25 min 45 sec) 
Heartbeat CPU 0 instructions: 210000001 cycles: 500702223 heartbeat IPC: 0.319381 cumulative IPC: 0.329601 (Simulation time: 0 hr 26 min 55 sec) 
Heartbeat CPU 0 instructions: 220000000 cycles: 531848634 heartbeat IPC: 0.321064 cumulative IPC: 0.329086 (Simulation time: 0 hr 28 min 4 sec) 
Heartbeat CPU 0 instructions: 230000000 cycles: 562546559 heartbeat IPC: 0.325755 cumulative IPC: 0.328899 (Simulation time: 0 hr 29 min 11 sec) 
Heartbeat CPU 0 instructions: 240000001 cycles: 593500012 heartbeat IPC: 0.323066 cumulative IPC: 0.328587 (Simulation time: 0 hr 30 min 17 sec) 
Heartbeat CPU 0 instructions: 250000000 cycles: 623461686 heartbeat IPC: 0.33376 cumulative IPC: 0.328842 (Simulation time: 0 hr 31 min 21 sec) 
Finished CPU 0 instructions: 200000002 cycles: 608195233 cumulative IPC: 0.328842 (Simulation time: 0 hr 31 min 21 sec) 
 Instruction ID: 250000041

ChampSim completed all CPUs

Region of Interest Statistics

CPU 0 cumulative IPC: 0.328842 instructions: 200000002 cycles: 608195233
ITLB SPEC fills:          0  NON-SPEC fills:          0
ITLB Test counter :          0
ITLB Leapfrog:          0
ITLB MSHR merge:          0
ITLB TOTAL     ACCESS:   26727453  HIT:   26727453  MISS:          0  HIT %:        100  MISS %:          0   MPKI: 0
ITLB LOAD TRANSLATION NON_SPEC    ACCESS:   26727453  HIT:   26727453  MISS:          0  HIT %:        100  MISS %:          0   MPKI: 0
ITLB PREFETCH  REQUESTED:          0  ISSUED:          0  USEFUL:          0  USELESS:          0
ITLB USEFUL LOAD PREFETCHES:          0 PREFETCH ISSUED TO LOWER LEVEL:          0  ACCURACY: -nan
ITLB TIMELY PREFETCHES:          0 LATE PREFETCHES: 0 DROPPED PREFETCHES: 0
ITLB COMMIT LATE PREFETCHES: 0 NORMAL LATE: 0 MISSED OPPORTUNITY: 0 UNCOVERED: 0
ITLB PREFETCHES SAME FILL-ORIGIN LEVEL: 0 DIFFERENT FILL-ORIGIN LEVEL: 0
ITLB AVERAGE MISS LATENCY: -nan cycles
ITLB AVERAGE MISS LATENCY LOAD: -nan cycles
ITLB AVERAGE MISS LATENCY PREFETCH: -nan cycles
ITLB AVERAGE MSHR OCCUPANCY: 0
ITLB MSHR FULL: 0
ITLB RQ	ACCESS:   34492480	FORWARD:          0	MERGED:    7765027	TO_CACHE:   26727453

DTLB SPEC fills:          0  NON-SPEC fills:          0
DTLB Test counter :          0
DTLB Leapfrog:          0
DTLB MSHR merge:          0
DTLB TOTAL     ACCESS:   47776610  HIT:   47500083  MISS:     276527  HIT %:    99.4212  MISS %:   0.578792   MPKI: 1.38263
DTLB LOAD TRANSLATION NON_SPEC    ACCESS:   47776610  HIT:   47500083  MISS:     276527  HIT %:    99.4212  MISS %:   0.578792   MPKI: 1.38263
DTLB PREFETCH  REQUESTED:          0  ISSUED:          0  USEFUL:          0  USELESS:          0
DTLB USEFUL LOAD PREFETCHES:          0 PREFETCH ISSUED TO LOWER LEVEL:          0  ACCURACY: -nan
DTLB TIMELY PREFETCHES:          0 LATE PREFETCHES: 0 DROPPED PREFETCHES: 0
DTLB COMMIT LATE PREFETCHES: 0 NORMAL LATE: 0 MISSED OPPORTUNITY: 0 UNCOVERED: 0
DTLB PREFETCHES SAME FILL-ORIGIN LEVEL: 0 DIFFERENT FILL-ORIGIN LEVEL: 0
DTLB AVERAGE MISS LATENCY: 137.733 cycles
DTLB AVERAGE MISS LATENCY LOAD: -nan cycles
DTLB AVERAGE MISS LATENCY PREFETCH: -nan cycles
DTLB AVERAGE MSHR OCCUPANCY: 0.113494
DTLB MSHR FULL: 0
DTLB RQ	ACCESS:   67857629	FORWARD:          0	MERGED:   19855534	TO_CACHE:   48002095

STLB SPEC fills:          0  NON-SPEC fills:          0
STLB Test counter :          0
STLB Leapfrog:          0
STLB MSHR merge:          0
STLB TOTAL     ACCESS:    1664393  HIT:    1514345  MISS:     150048  HIT %:    90.9848  MISS %:    9.01518   MPKI: 0.75024
STLB LOAD TRANSLATION NON_SPEC    ACCESS:     276527  HIT:     126479  MISS:     150048  HIT %:    45.7384  MISS %:    54.2616   MPKI: 0.75024
STLB TRANSLATION FROM L1D PREFETCHER NON_SPEC    ACCESS:    1387866  HIT:    1387866  MISS:          0  HIT %:        100  MISS %:          0   MPKI: 0
STLB PREFETCH  REQUESTED:          0  ISSUED:          0  USEFUL:          0  USELESS:          0
STLB USEFUL LOAD PREFETCHES:          0 PREFETCH ISSUED TO LOWER LEVEL:          0  ACCURACY: -nan
STLB TIMELY PREFETCHES:          0 LATE PREFETCHES: 0 DROPPED PREFETCHES: 0
STLB COMMIT LATE PREFETCHES: 0 NORMAL LATE: 0 MISSED OPPORTUNITY: 0 UNCOVERED: 0
STLB PREFETCHES SAME FILL-ORIGIN LEVEL: 0 DIFFERENT FILL-ORIGIN LEVEL: 0
STLB AVERAGE MISS LATENCY: 237.133 cycles
STLB AVERAGE MISS LATENCY LOAD: -nan cycles
STLB AVERAGE MISS LATENCY PREFETCH: -nan cycles
STLB AVERAGE MSHR OCCUPANCY: 0.121387
STLB MSHR FULL: 0
STLB RQ	ACCESS:    2829422	FORWARD:          0	MERGED:    1165029	TO_CACHE:    1664393

STLB Hit, L1D data hit: 0
STLB Hit, L2C data hit: 0
STLB Hit, LLC data hit: 0
STLB Hit, LLC data miss: 0
STLB STLB hints to L2: 0
L0D SPEC fills:   20099095  NON-SPEC fills:          0
L0D TimeGuard Request with older TS:     257118 Restricted eviction:      13470 read:     995533
L0D Test counter :          0
L0D Leapfrog:          0
L0D MSHR merge:    2123133
L0D TOTAL     ACCESS:   28766595  HIT:    6523236  MISS:   22243359  HIT %:    22.6764  MISS %:    77.3236   MPKI: 111.217
L0D LOAD      TOTAL       ACCESS:   28766595  HIT:    6523236  MISS:   22243359  HIT %:    22.6764  MISS %:    77.3236   MPKI: 111.217
L0D LOAD      NON_SPEC    ACCESS:    3157588  HIT:    1026794  MISS:    2130794  HIT %:    32.5183  MISS %:    67.4817   MPKI: 10.654
L0D LOAD      SPEC        ACCESS:   25609007  HIT:    5496442  MISS:   20112565  HIT %:    21.4629  MISS %:    78.5371   MPKI: 100.563
L0D PREFETCH  REQUESTED:          0  ISSUED:          0  USEFUL:          0  USELESS:          0
L0D USEFUL LOAD PREFETCHES:          0 PREFETCH ISSUED TO LOWER LEVEL:          0  ACCURACY: -nan
L0D TIMELY PREFETCHES:          0 LATE PREFETCHES: 0 DROPPED PREFETCHES: 0
L0D COMMIT LATE PREFETCHES: 0 NORMAL LATE: 0 MISSED OPPORTUNITY: 0 UNCOVERED: 22243359
L0D PREFETCHES SAME FILL-ORIGIN LEVEL: 0 DIFFERENT FILL-ORIGIN LEVEL: 0
L0D AVERAGE MISS LATENCY: 47.3382 cycles
L0D AVERAGE MISS LATENCY LOAD: 47.3382 cycles
L0D AVERAGE MISS LATENCY PREFETCH: -nan cycles
L0D AVERAGE MSHR OCCUPANCY: 1.31358
L0D MSHR FULL: 0.0765593
L0D RQ	ACCESS:   50763241	FORWARD:          0	MERGED:   19873516	TO_CACHE:   30889725
L0D WQ	ACCESS:   36967904	FORWARD:          0	MERGED:          0	TO_CACHE:   36967904

L1D SPEC fills:          0  NON-SPEC fills:      34868
L1D Test counter :          0
L1D Leapfrog:          0
L1D MSHR merge:     236899
L1D TOTAL     ACCESS:   80065701  HIT:   64863302  MISS:   15202399  HIT %:    81.0126  MISS %:    18.9874   MPKI: 76.012
L1D LOAD      TOTAL       ACCESS:   22226273  HIT:   21541366  MISS:     684907  HIT %:    96.9185  MISS %:    3.08152   MPKI: 3.42453
L1D LOAD      NON_SPEC    ACCESS:    2127775  HIT:    2092907  MISS:      34868  HIT %:    98.3613  MISS %:    1.63871   MPKI: 0.17434
L1D LOAD      SPEC        ACCESS:   20098498  HIT:   19448459  MISS:     650039  HIT %:    96.7657  MISS %:    3.23427   MPKI: 3.25019
L1D RFO       NON_SPEC    ACCESS:   29940299  HIT:   17907772  MISS:   12032527  HIT %:    59.8116  MISS %:    40.1884   MPKI: 60.1626
L1D PREFETCH  NON_SPEC    ACCESS:    2042760  HIT:     270543  MISS:    1772217  HIT %:     13.244  MISS %:     86.756   MPKI: 8.86108
L1D COMMIT LOAD NON_SPEC    ACCESS:   10367873  HIT:   10139722  MISS:     228151  HIT %:    97.7994  MISS %:    2.20056   MPKI: 1.14075
L1D COMMIT WRITE NON_SPEC    ACCESS:   15488496  HIT:   15003899  MISS:     484597  HIT %:    96.8712  MISS %:    3.12875   MPKI: 2.42298
L1D PREFETCH  REQUESTED:    2591143  ISSUED:    2552911  USEFUL:    1769042  USELESS:       3173
L1D USEFUL LOAD PREFETCHES:    1769042 PREFETCH ISSUED TO LOWER LEVEL:    1996367  ACCURACY: 88.6131
L1D TIMELY PREFETCHES:    1769042 LATE PREFETCHES: 224149 DROPPED PREFETCHES: 0
L1D COMMIT LATE PREFETCHES: 0 NORMAL LATE: 224149 MISSED OPPORTUNITY: 0 UNCOVERED: 460758
L1D PREFETCHES SAME FILL-ORIGIN LEVEL: 1996367 DIFFERENT FILL-ORIGIN LEVEL: 0
L1D AVERAGE MISS LATENCY: 382.151 cycles
L1D AVERAGE MISS LATENCY LOAD: 988.012 cycles
L1D AVERAGE MISS LATENCY PREFETCH: 516.689 cycles
L1D AVERAGE MSHR OCCUPANCY: 15.4285
L1D MSHR FULL: 0.912823
L1D RQ	ACCESS:   49366589	FORWARD:          0	MERGED:   14471297	TO_CACHE:   32619643
L1D WQ	ACCESS:   52780938	FORWARD:    2275649	MERGED:    7136649	TO_CACHE:   45644289
L1D PQ	ACCESS:    2552911	FORWARD:          0	MERGED:         16	TO_CACHE:    2552895

L1D UNIQUE REGIONS ACCESSED: 0
L1D REGIONS CONFLICTS: 0
L1D Cross Page Prefetch Requests: 0
L1D Same Page Prefetch Requests: 3161019
L1D ROI Sum of L1D PQ occupancy: 1581169101
L1D PREFETCHES PUSHED FROM L2C: 0
L1I SPEC fills:          0  NON-SPEC fills:          0
L1I Test counter :          0
L1I Leapfrog:          0
L1I MSHR merge:          0
L1I TOTAL     ACCESS:   34492478  HIT:   34492478  MISS:          0  HIT %:        100  MISS %:          0   MPKI: 0
L1I LOAD      TOTAL       ACCESS:   34492478  HIT:   34492478  MISS:          0  HIT %:        100  MISS %:          0   MPKI: 0
L1I LOAD      NON_SPEC    ACCESS:   34492478  HIT:   34492478  MISS:          0  HIT %:        100  MISS %:          0   MPKI: 0
L1I PREFETCH  REQUESTED:          0  ISSUED:          0  USEFUL:          0  USELESS:          0
L1I USEFUL LOAD PREFETCHES:          0 PREFETCH ISSUED TO LOWER LEVEL:          0  ACCURACY: -nan
L1I TIMELY PREFETCHES:          0 LATE PREFETCHES: 0 DROPPED PREFETCHES: 0
L1I COMMIT LATE PREFETCHES: 0 NORMAL LATE: 0 MISSED OPPORTUNITY: 0 UNCOVERED: 0
L1I PREFETCHES SAME FILL-ORIGIN LEVEL: 0 DIFFERENT FILL-ORIGIN LEVEL: 0
L1I AVERAGE MISS LATENCY: -nan cycles
L1I AVERAGE MISS LATENCY LOAD: -nan cycles
L1I AVERAGE MISS LATENCY PREFETCH: -nan cycles
L1I AVERAGE MSHR OCCUPANCY: 0
L1I MSHR FULL: 0
L1I RQ	ACCESS:   49618525	FORWARD:          0	MERGED:   15126045	TO_CACHE:   34492480

BTB SPEC fills:          0  NON-SPEC fills:          0
BTB Test counter :          0
BTB Leapfrog:          0
BTB MSHR merge:          0
BTB TOTAL     ACCESS:    3614432  HIT:    3614426  MISS:          6  HIT %:    99.9998  MISS %: 0.000166001   MPKI: 3e-05
BTB BRANCH_DIRECT_JUMP	ACCESS:     592790  HIT:     592789  MISS:          1
BTB BRANCH_INDIRECT	ACCESS:          0  HIT:          0  MISS:          0
BTB BRANCH_CONDITIONAL	ACCESS:    3021642  HIT:    3021637  MISS:          5
BTB BRANCH_DIRECT_CALL	ACCESS:          0  HIT:          0  MISS:          0
BTB BRANCH_INDIRECT_CALL	ACCESS:          0  HIT:          0  MISS:          0
BTB BRANCH_RETURN	ACCESS:          0  HIT:          0  MISS:          0
BTB BRANCH_OTHER ACCESS:          0  HIT:          0  MISS:          0

L2C SPEC fills:          0  NON-SPEC fills:      19078
L2C Test counter :          0
L2C Leapfrog:          0
L2C MSHR merge:          0
L2C TOTAL     ACCESS:   29807303  HIT:   20073674  MISS:    9733629  HIT %:    67.3448  MISS %:    32.6552   MPKI: 48.6681
L2C LOAD      TOTAL       ACCESS:     465090  HIT:       7551  MISS:     457539  HIT %:    1.62356  MISS %:    98.3764   MPKI: 2.28769
L2C LOAD      NON_SPEC    ACCESS:      19365  HIT:        287  MISS:      19078  HIT %:    1.48206  MISS %:    98.5179   MPKI: 0.09539
L2C LOAD      SPEC        ACCESS:     445725  HIT:       7264  MISS:     438461  HIT %:     1.6297  MISS %:    98.3703   MPKI: 2.1923
L2C RFO       NON_SPEC    ACCESS:   12032504  HIT:    5157113  MISS:    6875391  HIT %:    42.8598  MISS %:    57.1402   MPKI: 34.377
L2C PREFETCH  NON_SPEC    ACCESS:    1996366  HIT:         21  MISS:    1996345  HIT %: 0.00105191  MISS %:    99.9989   MPKI: 9.98172
L2C WRITEBACK NON_SPEC    ACCESS:   12032544  HIT:   12032099  MISS:        445  HIT %:    99.9963  MISS %:  0.0036983   MPKI: 0.002225
L2C CLEAN_EVICTION NON_SPEC    ACCESS:    2306889  HIT:    2038106  MISS:     268783  HIT %:    88.3487  MISS %:    11.6513   MPKI: 1.34391
L2C COMMIT LOAD NON_SPEC    ACCESS:     223816  HIT:     107627  MISS:     116189  HIT %:    48.0873  MISS %:    51.9127   MPKI: 0.580945
L2C LOAD TRANSLATION NON_SPEC    ACCESS:     750094  HIT:     731157  MISS:      18937  HIT %:    97.4754  MISS %:    2.52462   MPKI: 0.094685
L2C PREFETCH  REQUESTED:          0  ISSUED:          0  USEFUL:     111962  USELESS:    1883361
L2C USEFUL LOAD PREFETCHES:     111962 PREFETCH ISSUED TO LOWER LEVEL:    1996346  ACCURACY: 5.60835
L2C TIMELY PREFETCHES:     111962 LATE PREFETCHES: 0 DROPPED PREFETCHES: 0
L2C COMMIT LATE PREFETCHES: 0 NORMAL LATE: 0 MISSED OPPORTUNITY: 0 UNCOVERED: 457539
L2C PREFETCHES SAME FILL-ORIGIN LEVEL: 0 DIFFERENT FILL-ORIGIN LEVEL: 0
L2C AVERAGE MISS LATENCY: 546.658 cycles
L2C AVERAGE MISS LATENCY LOAD: 504.446 cycles
L2C AVERAGE MISS LATENCY PREFETCH: 525.938 cycles
L2C AVERAGE MSHR OCCUPANCY: 11.3578
L2C MSHR FULL: 0
L2C RQ	ACCESS:   13471536	FORWARD:          0	MERGED:          0	TO_CACHE:   13471510
L2C WQ	ACCESS:   14339519	FORWARD:         26	MERGED:         86	TO_CACHE:   14339433
L2C PQ	ACCESS:    1996367	FORWARD:          0	MERGED:          0	TO_CACHE:    1996367

L2C Instructions Evicting Data 0
L2C Translations Evicting Data 18890
L2C Data Evicting Data 8988746
L2C Instructions Evicting Instructions 0
L2C Translations Evicting Instructions 0
L2C Data Evicting Instructions 0
L2C Instructions Evicting Translations 0
L2C Translations Evicting Translations 47
L2C Data Evicting Translations 18257
L2C Dense regions hint from L2: 0
PSCL5 SPEC fills:          0  NON-SPEC fills:          0
PSCL5 Test counter :          0
PSCL5 Leapfrog:          0
PSCL5 MSHR merge:          0
PSCL5 TOTAL     ACCESS:          0  HIT:          0  MISS:          0  HIT %:       -nan  MISS %:       -nan   MPKI: 0
PSCL5 PREFETCH  REQUESTED:          0  ISSUED:          0  USEFUL:          0  USELESS:          0
PSCL5 USEFUL LOAD PREFETCHES:          0 PREFETCH ISSUED TO LOWER LEVEL:          0  ACCURACY: -nan
PSCL5 TIMELY PREFETCHES:          0 LATE PREFETCHES: 0 DROPPED PREFETCHES: 0
PSCL5 COMMIT LATE PREFETCHES: 0 NORMAL LATE: 0 MISSED OPPORTUNITY: 0 UNCOVERED: 0
PSCL5 PREFETCHES SAME FILL-ORIGIN LEVEL: 0 DIFFERENT FILL-ORIGIN LEVEL: 0

PSCL4 SPEC fills:          0  NON-SPEC fills:          0
PSCL4 Test counter :          0
PSCL4 Leapfrog:          0
PSCL4 MSHR merge:          0
PSCL4 TOTAL     ACCESS:          0  HIT:          0  MISS:          0  HIT %:       -nan  MISS %:       -nan   MPKI: 0
PSCL4 PREFETCH  REQUESTED:          0  ISSUED:          0  USEFUL:          0  USELESS:          0
PSCL4 USEFUL LOAD PREFETCHES:          0 PREFETCH ISSUED TO LOWER LEVEL:          0  ACCURACY: -nan
PSCL4 TIMELY PREFETCHES:          0 LATE PREFETCHES: 0 DROPPED PREFETCHES: 0
PSCL4 COMMIT LATE PREFETCHES: 0 NORMAL LATE: 0 MISSED OPPORTUNITY: 0 UNCOVERED: 0
PSCL4 PREFETCHES SAME FILL-ORIGIN LEVEL: 0 DIFFERENT FILL-ORIGIN LEVEL: 0

PSCL3 SPEC fills:          0  NON-SPEC fills:          0
PSCL3 Test counter :          0
PSCL3 Leapfrog:          0
PSCL3 MSHR merge:          0
PSCL3 TOTAL     ACCESS:          0  HIT:          0  MISS:          0  HIT %:       -nan  MISS %:       -nan   MPKI: 0
PSCL3 PREFETCH  REQUESTED:          0  ISSUED:          0  USEFUL:          0  USELESS:          0
PSCL3 USEFUL LOAD PREFETCHES:          0 PREFETCH ISSUED TO LOWER LEVEL:          0  ACCURACY: -nan
PSCL3 TIMELY PREFETCHES:          0 LATE PREFETCHES: 0 DROPPED PREFETCHES: 0
PSCL3 COMMIT LATE PREFETCHES: 0 NORMAL LATE: 0 MISSED OPPORTUNITY: 0 UNCOVERED: 0
PSCL3 PREFETCHES SAME FILL-ORIGIN LEVEL: 0 DIFFERENT FILL-ORIGIN LEVEL: 0

PSCL2 SPEC fills:          0  NON-SPEC fills:          0
PSCL2 Test counter :          0
PSCL2 Leapfrog:          0
PSCL2 MSHR merge:          0
PSCL2 TOTAL     ACCESS:          0  HIT:          0  MISS:          0  HIT %:       -nan  MISS %:       -nan   MPKI: 0
PSCL2 PREFETCH  REQUESTED:          0  ISSUED:          0  USEFUL:          0  USELESS:          0
PSCL2 USEFUL LOAD PREFETCHES:          0 PREFETCH ISSUED TO LOWER LEVEL:          0  ACCURACY: -nan
PSCL2 TIMELY PREFETCHES:          0 LATE PREFETCHES: 0 DROPPED PREFETCHES: 0
PSCL2 COMMIT LATE PREFETCHES: 0 NORMAL LATE: 0 MISSED OPPORTUNITY: 0 UNCOVERED: 0
PSCL2 PREFETCHES SAME FILL-ORIGIN LEVEL: 0 DIFFERENT FILL-ORIGIN LEVEL: 0

LLC SPEC fills:          0  NON-SPEC fills:      19078
LLC Test counter :          0
LLC Leapfrog:          0
LLC MSHR merge:          0
LLC TOTAL     ACCESS:   18639324  HIT:    8973150  MISS:    9666174  HIT %:     48.141  MISS %:     51.859   MPKI: 48.3309
LLC LOAD      TOTAL       ACCESS:     457539  HIT:          4  MISS:     457535  HIT %: 0.000874242  MISS %:    99.9991   MPKI: 2.28767
LLC LOAD      NON_SPEC    ACCESS:      19078  HIT:          0  MISS:      19078  HIT %:          0  MISS %:        100   MPKI: 0.09539
LLC LOAD      SPEC        ACCESS:     438461  HIT:          4  MISS:     438457  HIT %: 0.000912282  MISS %:    99.9991   MPKI: 2.19228
LLC RFO       NON_SPEC    ACCESS:    6875054  HIT:      66629  MISS:    6808425  HIT %:   0.969141  MISS %:    99.0309   MPKI: 34.0421
LLC PREFETCH  NON_SPEC    ACCESS:    1996345  HIT:          0  MISS:    1996345  HIT %:          0  MISS %:        100   MPKI: 9.98172
LLC WRITEBACK NON_SPEC    ACCESS:    6877361  HIT:    6877007  MISS:        354  HIT %:    99.9949  MISS %: 0.00514732   MPKI: 0.00177
LLC CLEAN_EVICTION NON_SPEC    ACCESS:    2297899  HIT:    2029510  MISS:     268389  HIT %:    88.3202  MISS %:    11.6798   MPKI: 1.34194
LLC COMMIT LOAD NON_SPEC    ACCESS:     116189  HIT:          0  MISS:     116189  HIT %:          0  MISS %:        100   MPKI: 0.580945
LLC LOAD TRANSLATION NON_SPEC    ACCESS:      18937  HIT:          0  MISS:      18937  HIT %:          0  MISS %:        100   MPKI: 0.094685
LLC PREFETCH  REQUESTED:          0  ISSUED:          0  USEFUL:          0  USELESS:    1993288
LLC USEFUL LOAD PREFETCHES:          0 PREFETCH ISSUED TO LOWER LEVEL:    1996345  ACCURACY: 0
LLC TIMELY PREFETCHES:          0 LATE PREFETCHES: 0 DROPPED PREFETCHES: 0
LLC COMMIT LATE PREFETCHES: 0 NORMAL LATE: 0 MISSED OPPORTUNITY: 0 UNCOVERED: 457535
LLC PREFETCHES SAME FILL-ORIGIN LEVEL: 0 DIFFERENT FILL-ORIGIN LEVEL: 0
LLC AVERAGE MISS LATENCY: 520.584 cycles
LLC AVERAGE MISS LATENCY LOAD: 482.847 cycles
LLC AVERAGE MISS LATENCY PREFETCH: 495.534 cycles
LLC AVERAGE MSHR OCCUPANCY: 10.6931
LLC MSHR FULL: 0
LLC RQ	ACCESS:    7468062	FORWARD:          0	MERGED:          0	TO_CACHE:    7467725
LLC WQ	ACCESS:    9175260	FORWARD:        337	MERGED:          0	TO_CACHE:    9175260
LLC PQ	ACCESS:    1996346	FORWARD:          0	MERGED:          0	TO_CACHE:    1996346

LLC Dense regions hint to LLC: 0

RAW hits: 1485954
Loads Generated: 52249195
Loads sent to L1D: 50763241
Stores Generated: 36967891
Stores sent to L1D: 36967904
Major fault: 0 Minor fault: 96698
Allocated PAGES: 96698
Total Load insts: 62288070
Total Non-spec loads: 4194652
Percentage of speculative loads: 93.2657

LeapFrogging counter: 46612751
Commit hits: 19841997 miss: 27123233
Commit hit %: 42.2483 miss %: 57.7517
Commits not translated: 0
Loads retired: 684907
Stores retired: 36967904
Cache fills: 684907
L1D response latency: 988.012 cycles
Load retirement latency: 2175.93 cycles
OOO test counter: 0
Discarded buffer inserts: 19841997 hits: 269827 hit %: 1.35988
Filter prediction accuracy: -nan

stream: 
stream:times selected: 8516834
stream:pref_filled: 293045
stream:pref_useful: 289895
stream:pref_late: 7266
stream:misses: 108942
stream:misses_by_poll: 0

CS: 
CS:times selected: 2027444
CS:pref_filled: 1074377
CS:pref_useful: 1074253
CS:pref_late: 2447
CS:misses: 226016
CS:misses_by_poll: 425

CPLX: 
CPLX:times selected: 6482582
CPLX:pref_filled: 958388
CPLX:pref_useful: 956903
CPLX:pref_late: 11968
CPLX:misses: 400994
CPLX:misses_by_poll: 2556

NL_L1: 
NL:times selected: 1430
NL:pref_filled: 98
NL:pref_useful: 91
NL:pref_late: 3
NL:misses: 355
NL:misses_by_poll: 0

total selections: 17028290
total_filled: 1772217
total_useful: 1769042
total_late: 22094
total_polluted: 2981
total_misses_after_warmup: 701992
conflicts: 114830
Degree Incremented Times: 292533
Degree Decremented Times: 0

L1 IP Table Write Accesses: 21466817
L1 IP Table Read Accesses: 21351987
L1 RST Write Accesses: 7488672
L1 RST Read Accesses: 14977344
L1 CSPT Write Accesses: 7488672
L1 CSPT Read Accesses: 23518472
L1 RR Filter Tag Write Accesses: 2591143
L1 RR Filter Tag Read Accesses: 1224120898
L1 IP Table Tag Write Accesses: 22243358
L1 IP Table Tag Read Accesses: 22243358
L1 RST Tag Write Accesses: 0
L1 RST Tag Read Accesses: 67251369
L1 RR Filter Write Accesses: 0
L1 RR Filter Read Accesses: 56520702
test: 1377901

DRAM Statistics
 CHANNEL 0
 RQ ROW_BUFFER_HIT:     887823  ROW_BUFFER_MISS:    8509607
 DBUS_CONGESTED:         24
 WQ ROW_BUFFER_HIT:    1860198  ROW_BUFFER_MISS:    7248002  FULL:       1505

 AVG_CONGESTED_CYCLE: 6
 All warmup complete: 2
Channel 0 Bank busy for read cycles: 0
Channel 0 Bank busy for write cycles: 0
Channel 0
Rank 0
0banks busy for read cycles: 141968535
0banks busy for write cycles: 65234
1banks busy for read cycles: 9901288
1banks busy for write cycles: 6997988
2banks busy for read cycles: 8742289
2banks busy for write cycles: 5321312
3banks busy for read cycles: 11589320
3banks busy for write cycles: 4789842
4banks busy for read cycles: 21204036
4banks busy for write cycles: 4742336
5banks busy for read cycles: 41033568
5banks busy for write cycles: 5015917
6banks busy for read cycles: 59583533
6banks busy for write cycles: 5982580
7banks busy for read cycles: 68575867
7banks busy for write cycles: 16211625
8banks busy for read cycles: 38727897
8banks busy for write cycles: 157742067

CPU 0 Branch Prediction Accuracy: 97.0917% MPKI: 0.525585 Average ROB Occupancy at Mispredict: 145.772
Branch types
NOT_BRANCH: 196385227 98.1926%
BRANCH_DIRECT_JUMP: 592790 0.296395%
BRANCH_INDIRECT: 0 0%
BRANCH_CONDITIONAL: 3021642 1.51082%
BRANCH_DIRECT_CALL: 0 0%
BRANCH_INDIRECT_CALL: 0 0%
BRANCH_RETURN: 0 0%
BRANCH_OTHER: 0 0%

DRAM PAGES: 1048576
Allocated PAGES: 96698
