
*** ChampSim Multicore Out-of-Order Simulator ***

Warmup Instructions: 50000000
Simulation Instructions: 200000000
Number of CPUs: 1
LLC sets: 2048
LLC ways: 16
L0D sets: 16
L0D ways: 2
ROB size: 352
LQ size: 128
SQ size: 72
Secure Berti: OFF
Berti: OFF
Berti Fill: OFF
On commit prefetching: OFF
Hit-based filter: OFF
Time-guarding: ON
Free-slotting: ON
Leap-frogging: ON
Train prefetcher on L0D bypass: OFF
No translation penalty for prefetchers: OFF
Prefetch to L0D only: OFF
Prefetch to L1D only: OFF
Clean evictions: ON
Commit loads: ON
Commit write: ON
Fill commit loads to L2C, LLC: ON
DRAM IO FREQUENCY: 6400
ROB SIZE: 352
Off-chip DRAM Size: 4096 MB Channels: 1 Width: 64-bit Data Rate: 6400 MT/s
CPU 0 runs /home/sumon/secure_berti/GhostMinion/../../traces/spec/619.lbm_s-3766B.champsimtrace.xz
.xz
BTB has LRU replacement policy
ITLB has LRU replacement policy
DTLB has LRU replacement policy
STLB has LRU replacement policy
L1I has LRU replacement policy
L0D has LRU replacement policy
IP Table Entries: 1024
CSPT Entries: 128
RR_ENTRIES: 32
RST_ENTRIES: 8
L1D has LRU replacement policy
L2C has LRU replacement policy
LLC has LRU replacement policy
Heartbeat CPU 0 instructions: 10000000 cycles: 2863197 heartbeat IPC: 3.4926 cumulative IPC: 3.4926 (Simulation time: 0 hr 0 min 50 sec) 
Heartbeat CPU 0 instructions: 20000002 cycles: 5729237 heartbeat IPC: 3.48914 cumulative IPC: 3.49087 (Simulation time: 0 hr 1 min 41 sec) 
Heartbeat CPU 0 instructions: 30000000 cycles: 8592409 heartbeat IPC: 3.49263 cumulative IPC: 3.49145 (Simulation time: 0 hr 2 min 32 sec) 
Heartbeat CPU 0 instructions: 40000003 cycles: 11458518 heartbeat IPC: 3.48905 cumulative IPC: 3.49085 (Simulation time: 0 hr 3 min 25 sec) 
Heartbeat CPU 0 instructions: 50000000 cycles: 14324618 heartbeat IPC: 3.48906 cumulative IPC: 3.49049 (Simulation time: 0 hr 4 min 6 sec) 

Warmup complete CPU 0 instructions: 50000004 cycles: 14324619 (Simulation time: 0 hr 4 min 6 sec) 

Heartbeat CPU 0 instructions: 60000000 cycles: 24520699 heartbeat IPC: 0.980769 cumulative IPC: 0.980769 (Simulation time: 0 hr 5 min 0 sec) 
Heartbeat CPU 0 instructions: 70000001 cycles: 34960270 heartbeat IPC: 0.957894 cumulative IPC: 0.969196 (Simulation time: 0 hr 5 min 54 sec) 
Heartbeat CPU 0 instructions: 80000001 cycles: 45115661 heartbeat IPC: 0.984699 cumulative IPC: 0.974309 (Simulation time: 0 hr 6 min 47 sec) 
Heartbeat CPU 0 instructions: 90000001 cycles: 55533292 heartbeat IPC: 0.959911 cumulative IPC: 0.970669 (Simulation time: 0 hr 7 min 42 sec) 
Heartbeat CPU 0 instructions: 100000000 cycles: 65707524 heartbeat IPC: 0.982875 cumulative IPC: 0.973086 (Simulation time: 0 hr 8 min 37 sec) 
Heartbeat CPU 0 instructions: 110000000 cycles: 76831778 heartbeat IPC: 0.898937 cumulative IPC: 0.95989 (Simulation time: 0 hr 9 min 33 sec) 
Heartbeat CPU 0 instructions: 120000003 cycles: 88587319 heartbeat IPC: 0.850663 cumulative IPC: 0.9426 (Simulation time: 0 hr 10 min 32 sec) 
Heartbeat CPU 0 instructions: 130000000 cycles: 104575544 heartbeat IPC: 0.62546 cumulative IPC: 0.886417 (Simulation time: 0 hr 11 min 49 sec) 
Heartbeat CPU 0 instructions: 140000002 cycles: 123379351 heartbeat IPC: 0.531807 cumulative IPC: 0.825274 (Simulation time: 0 hr 13 min 13 sec) 
Heartbeat CPU 0 instructions: 150000002 cycles: 146215618 heartbeat IPC: 0.4379 cumulative IPC: 0.758202 (Simulation time: 0 hr 15 min 32 sec) 
Heartbeat CPU 0 instructions: 160000003 cycles: 175558081 heartbeat IPC: 0.340803 cumulative IPC: 0.68224 (Simulation time: 0 hr 17 min 56 sec) 
Heartbeat CPU 0 instructions: 170000000 cycles: 212536649 heartbeat IPC: 0.270427 cumulative IPC: 0.605412 (Simulation time: 0 hr 20 min 23 sec) 
Heartbeat CPU 0 instructions: 180000003 cycles: 252509792 heartbeat IPC: 0.250168 cumulative IPC: 0.545794 (Simulation time: 0 hr 22 min 42 sec) 
Heartbeat CPU 0 instructions: 190000001 cycles: 294708821 heartbeat IPC: 0.236972 cumulative IPC: 0.499315 (Simulation time: 0 hr 24 min 16 sec) 
Heartbeat CPU 0 instructions: 200000000 cycles: 332863533 heartbeat IPC: 0.262091 cumulative IPC: 0.4709 (Simulation time: 0 hr 25 min 40 sec) 
Heartbeat CPU 0 instructions: 210000003 cycles: 367981677 heartbeat IPC: 0.284753 cumulative IPC: 0.452416 (Simulation time: 0 hr 26 min 57 sec) 
Heartbeat CPU 0 instructions: 220000000 cycles: 399868808 heartbeat IPC: 0.313606 cumulative IPC: 0.440935 (Simulation time: 0 hr 28 min 7 sec) 
Heartbeat CPU 0 instructions: 230000000 cycles: 430740910 heartbeat IPC: 0.323917 cumulative IPC: 0.43226 (Simulation time: 0 hr 29 min 14 sec) 
Heartbeat CPU 0 instructions: 240000002 cycles: 460166206 heartbeat IPC: 0.339844 cumulative IPC: 0.42616 (Simulation time: 0 hr 30 min 18 sec) 
Heartbeat CPU 0 instructions: 250000002 cycles: 489510333 heartbeat IPC: 0.340784 cumulative IPC: 0.420888 (Simulation time: 0 hr 31 min 22 sec) 
Finished CPU 0 instructions: 200000001 cycles: 475185715 cumulative IPC: 0.420888 (Simulation time: 0 hr 31 min 22 sec) 
 Instruction ID: 250000037

ChampSim completed all CPUs

Region of Interest Statistics

CPU 0 cumulative IPC: 0.420888 instructions: 200000001 cycles: 475185715
ITLB SPEC fills:          0  NON-SPEC fills:          0
ITLB Test counter :          0
ITLB Leapfrog:          0
ITLB MSHR merge:          0
ITLB TOTAL     ACCESS:   26438877  HIT:   26438877  MISS:          0  HIT %:        100  MISS %:          0   MPKI: 0
ITLB LOAD TRANSLATION NON_SPEC    ACCESS:   26438877  HIT:   26438877  MISS:          0  HIT %:        100  MISS %:          0   MPKI: 0
ITLB PREFETCH  REQUESTED:          0  ISSUED:          0  USEFUL:          0  USELESS:          0
ITLB USEFUL LOAD PREFETCHES:          0 PREFETCH ISSUED TO LOWER LEVEL:          0  ACCURACY: -nan
ITLB TIMELY PREFETCHES:          0 LATE PREFETCHES: 0 DROPPED PREFETCHES: 0
ITLB COMMIT LATE PREFETCHES: 0 NORMAL LATE: 0 MISSED OPPORTUNITY: 0 UNCOVERED: 0
ITLB PREFETCHES SAME FILL-ORIGIN LEVEL: 0 DIFFERENT FILL-ORIGIN LEVEL: 0
ITLB AVERAGE MISS LATENCY: -nan cycles
ITLB AVERAGE MISS LATENCY LOAD: -nan cycles
ITLB AVERAGE MISS LATENCY PREFETCH: -nan cycles
ITLB AVERAGE MSHR OCCUPANCY: 0
ITLB MSHR FULL: 0
ITLB RQ	ACCESS:   34316866	FORWARD:          0	MERGED:    7877989	TO_CACHE:   26438877

DTLB SPEC fills:          0  NON-SPEC fills:          0
DTLB Test counter :          0
DTLB Leapfrog:          0
DTLB MSHR merge:          0
DTLB TOTAL     ACCESS:   46766169  HIT:   46540456  MISS:     225713  HIT %:    99.5174  MISS %:   0.482642   MPKI: 1.12856
DTLB LOAD TRANSLATION NON_SPEC    ACCESS:   46766169  HIT:   46540456  MISS:     225713  HIT %:    99.5174  MISS %:   0.482642   MPKI: 1.12856
DTLB PREFETCH  REQUESTED:          0  ISSUED:          0  USEFUL:          0  USELESS:          0
DTLB USEFUL LOAD PREFETCHES:          0 PREFETCH ISSUED TO LOWER LEVEL:          0  ACCURACY: -nan
DTLB TIMELY PREFETCHES:          0 LATE PREFETCHES: 0 DROPPED PREFETCHES: 0
DTLB COMMIT LATE PREFETCHES: 0 NORMAL LATE: 0 MISSED OPPORTUNITY: 0 UNCOVERED: 0
DTLB PREFETCHES SAME FILL-ORIGIN LEVEL: 0 DIFFERENT FILL-ORIGIN LEVEL: 0
DTLB AVERAGE MISS LATENCY: 139.262 cycles
DTLB AVERAGE MISS LATENCY LOAD: -nan cycles
DTLB AVERAGE MISS LATENCY PREFETCH: -nan cycles
DTLB AVERAGE MSHR OCCUPANCY: 0.0977615
DTLB MSHR FULL: 0
DTLB RQ	ACCESS:   67322564	FORWARD:          0	MERGED:   20409139	TO_CACHE:   46913425

STLB SPEC fills:          0  NON-SPEC fills:          0
STLB Test counter :          0
STLB Leapfrog:          0
STLB MSHR merge:          0
STLB TOTAL     ACCESS:    1407177  HIT:    1284707  MISS:     122470  HIT %:    91.2968  MISS %:    8.70324   MPKI: 0.61235
STLB LOAD TRANSLATION NON_SPEC    ACCESS:     225713  HIT:     103243  MISS:     122470  HIT %:    45.7408  MISS %:    54.2592   MPKI: 0.61235
STLB TRANSLATION FROM L1D PREFETCHER NON_SPEC    ACCESS:    1181464  HIT:    1181464  MISS:          0  HIT %:        100  MISS %:          0   MPKI: 0
STLB PREFETCH  REQUESTED:          0  ISSUED:          0  USEFUL:          0  USELESS:          0
STLB USEFUL LOAD PREFETCHES:          0 PREFETCH ISSUED TO LOWER LEVEL:          0  ACCURACY: -nan
STLB TIMELY PREFETCHES:          0 LATE PREFETCHES: 0 DROPPED PREFETCHES: 0
STLB COMMIT LATE PREFETCHES: 0 NORMAL LATE: 0 MISSED OPPORTUNITY: 0 UNCOVERED: 0
STLB PREFETCHES SAME FILL-ORIGIN LEVEL: 0 DIFFERENT FILL-ORIGIN LEVEL: 0
STLB AVERAGE MISS LATENCY: 240.01 cycles
STLB AVERAGE MISS LATENCY LOAD: -nan cycles
STLB AVERAGE MISS LATENCY PREFETCH: -nan cycles
STLB AVERAGE MSHR OCCUPANCY: 0.104188
STLB MSHR FULL: 0
STLB RQ	ACCESS:    2308038	FORWARD:          0	MERGED:     900861	TO_CACHE:    1407177

STLB Hit, L1D data hit: 0
STLB Hit, L2C data hit: 0
STLB Hit, LLC data hit: 0
STLB Hit, LLC data miss: 0
STLB STLB hints to L2: 0
L0D SPEC fills:   21218800  NON-SPEC fills:          0
L0D TimeGuard Request with older TS:      19762 Restricted eviction:       3228 read:     504094
L0D Test counter :          0
L0D Leapfrog:          0
L0D MSHR merge:    2015746
L0D TOTAL     ACCESS:   30742959  HIT:    7337431  MISS:   23405528  HIT %:     23.867  MISS %:     76.133   MPKI: 117.028
L0D LOAD      TOTAL       ACCESS:   30742959  HIT:    7337431  MISS:   23405528  HIT %:     23.867  MISS %:     76.133   MPKI: 117.028
L0D LOAD      NON_SPEC    ACCESS:    3363482  HIT:    1179982  MISS:    2183500  HIT %:    35.0822  MISS %:    64.9178   MPKI: 10.9175
L0D LOAD      SPEC        ACCESS:   27379477  HIT:    6157449  MISS:   21222028  HIT %:    22.4893  MISS %:    77.5107   MPKI: 106.11
L0D PREFETCH  REQUESTED:          0  ISSUED:          0  USEFUL:          0  USELESS:          0
L0D USEFUL LOAD PREFETCHES:          0 PREFETCH ISSUED TO LOWER LEVEL:          0  ACCURACY: -nan
L0D TIMELY PREFETCHES:          0 LATE PREFETCHES: 0 DROPPED PREFETCHES: 0
L0D COMMIT LATE PREFETCHES: 0 NORMAL LATE: 0 MISSED OPPORTUNITY: 0 UNCOVERED: 23405528
L0D PREFETCHES SAME FILL-ORIGIN LEVEL: 0 DIFFERENT FILL-ORIGIN LEVEL: 0
L0D AVERAGE MISS LATENCY: 32.0783 cycles
L0D AVERAGE MISS LATENCY LOAD: 32.0783 cycles
L0D AVERAGE MISS LATENCY PREFETCH: -nan cycles
L0D AVERAGE MSHR OCCUPANCY: 1.0308
L0D MSHR FULL: 0.0477664
L0D RQ	ACCESS:   49169528	FORWARD:          0	MERGED:   16410824	TO_CACHE:   32758704
L0D WQ	ACCESS:   34563860	FORWARD:          0	MERGED:          0	TO_CACHE:   34563860

L1D SPEC fills:          0  NON-SPEC fills:      28915
L1D Test counter :          0
L1D Leapfrog:          0
L1D MSHR merge:     165358
L1D TOTAL     ACCESS:   80554507  HIT:   68141778  MISS:   12412729  HIT %:    84.5909  MISS %:    15.4091   MPKI: 62.0636
L1D LOAD      TOTAL       ACCESS:   23393399  HIT:   22922612  MISS:     470787  HIT %:    97.9875  MISS %:    2.01248   MPKI: 2.35393
L1D LOAD      NON_SPEC    ACCESS:    2181394  HIT:    2152479  MISS:      28915  HIT %:    98.6745  MISS %:    1.32553   MPKI: 0.144575
L1D LOAD      SPEC        ACCESS:   21212005  HIT:   20770133  MISS:     441872  HIT %:    97.9169  MISS %:    2.08312   MPKI: 2.20936
L1D RFO       NON_SPEC    ACCESS:   28053191  HIT:   18121295  MISS:    9931896  HIT %:    64.5962  MISS %:    35.4038   MPKI: 49.6595
L1D PREFETCH  NON_SPEC    ACCESS:    1732808  HIT:     207003  MISS:    1525805  HIT %:    11.9461  MISS %:    88.0539   MPKI: 7.62902
L1D COMMIT LOAD NON_SPEC    ACCESS:   10510099  HIT:   10356025  MISS:     154074  HIT %:     98.534  MISS %:    1.46596   MPKI: 0.77037
L1D COMMIT WRITE NON_SPEC    ACCESS:   16865010  HIT:   16534843  MISS:     330167  HIT %:    98.0423  MISS %:     1.9577   MPKI: 1.65083
L1D PREFETCH  REQUESTED:    2107536  ISSUED:    2082332  USEFUL:    1523747  USELESS:       2053
L1D USEFUL LOAD PREFETCHES:    1523747 PREFETCH ISSUED TO LOWER LEVEL:    1681863  ACCURACY: 90.5988
L1D TIMELY PREFETCHES:    1523747 LATE PREFETCHES: 156058 DROPPED PREFETCHES: 0
L1D COMMIT LATE PREFETCHES: 0 NORMAL LATE: 156058 MISSED OPPORTUNITY: 0 UNCOVERED: 314729
L1D PREFETCHES SAME FILL-ORIGIN LEVEL: 1681863 DIFFERENT FILL-ORIGIN LEVEL: 0
L1D AVERAGE MISS LATENCY: 386.228 cycles
L1D AVERAGE MISS LATENCY LOAD: 972.739 cycles
L1D AVERAGE MISS LATENCY PREFETCH: 537.258 cycles
L1D AVERAGE MSHR OCCUPANCY: 15.2495
L1D MSHR FULL: 0.875354
L1D RQ	ACCESS:   47465162	FORWARD:          0	MERGED:   11323802	TO_CACHE:   33921551
L1D WQ	ACCESS:   52673644	FORWARD:    2219809	MERGED:    7595413	TO_CACHE:   45078231
L1D PQ	ACCESS:    2082332	FORWARD:          0	MERGED:          7	TO_CACHE:    2082325

L1D UNIQUE REGIONS ACCESSED: 0
L1D REGIONS CONFLICTS: 0
L1D Cross Page Prefetch Requests: 0
L1D Same Page Prefetch Requests: 2362953
L1D ROI Sum of L1D PQ occupancy: 1089387482
L1D PREFETCHES PUSHED FROM L2C: 0
L1I SPEC fills:          0  NON-SPEC fills:          0
L1I Test counter :          0
L1I Leapfrog:          0
L1I MSHR merge:          0
L1I TOTAL     ACCESS:   34316864  HIT:   34316864  MISS:          0  HIT %:        100  MISS %:          0   MPKI: 0
L1I LOAD      TOTAL       ACCESS:   34316864  HIT:   34316864  MISS:          0  HIT %:        100  MISS %:          0   MPKI: 0
L1I LOAD      NON_SPEC    ACCESS:   34316864  HIT:   34316864  MISS:          0  HIT %:        100  MISS %:          0   MPKI: 0
L1I PREFETCH  REQUESTED:          0  ISSUED:          0  USEFUL:          0  USELESS:          0
L1I USEFUL LOAD PREFETCHES:          0 PREFETCH ISSUED TO LOWER LEVEL:          0  ACCURACY: -nan
L1I TIMELY PREFETCHES:          0 LATE PREFETCHES: 0 DROPPED PREFETCHES: 0
L1I COMMIT LATE PREFETCHES: 0 NORMAL LATE: 0 MISSED OPPORTUNITY: 0 UNCOVERED: 0
L1I PREFETCHES SAME FILL-ORIGIN LEVEL: 0 DIFFERENT FILL-ORIGIN LEVEL: 0
L1I AVERAGE MISS LATENCY: -nan cycles
L1I AVERAGE MISS LATENCY LOAD: -nan cycles
L1I AVERAGE MISS LATENCY PREFETCH: -nan cycles
L1I AVERAGE MSHR OCCUPANCY: 0
L1I MSHR FULL: 0
L1I RQ	ACCESS:   48937103	FORWARD:          0	MERGED:   14620237	TO_CACHE:   34316866

BTB SPEC fills:          0  NON-SPEC fills:          0
BTB Test counter :          0
BTB Leapfrog:          0
BTB MSHR merge:          0
BTB TOTAL     ACCESS:    3122104  HIT:    3122098  MISS:          6  HIT %:    99.9998  MISS %: 0.000192178   MPKI: 3e-05
BTB BRANCH_DIRECT_JUMP	ACCESS:     397756  HIT:     397755  MISS:          1
BTB BRANCH_INDIRECT	ACCESS:          0  HIT:          0  MISS:          0
BTB BRANCH_CONDITIONAL	ACCESS:    2724348  HIT:    2724343  MISS:          5
BTB BRANCH_DIRECT_CALL	ACCESS:          0  HIT:          0  MISS:          0
BTB BRANCH_INDIRECT_CALL	ACCESS:          0  HIT:          0  MISS:          0
BTB BRANCH_RETURN	ACCESS:          0  HIT:          0  MISS:          0
BTB BRANCH_OTHER ACCESS:          0  HIT:          0  MISS:          0

L2C SPEC fills:          0  NON-SPEC fills:      17354
L2C Test counter :          0
L2C Leapfrog:          0
L2C MSHR merge:          0
L2C TOTAL     ACCESS:   24522661  HIT:   16610493  MISS:    7912168  HIT %:    67.7353  MISS %:    32.2647   MPKI: 39.5608
L2C LOAD      TOTAL       ACCESS:     317558  HIT:       5230  MISS:     312328  HIT %:    1.64694  MISS %:    98.3531   MPKI: 1.56164
L2C LOAD      NON_SPEC    ACCESS:      17570  HIT:        216  MISS:      17354  HIT %:    1.22937  MISS %:    98.7706   MPKI: 0.08677
L2C LOAD      SPEC        ACCESS:     299988  HIT:       5014  MISS:     294974  HIT %:     1.6714  MISS %:    98.3286   MPKI: 1.47487
L2C RFO       NON_SPEC    ACCESS:    9931895  HIT:    4289738  MISS:    5642157  HIT %:    43.1915  MISS %:    56.8085   MPKI: 28.2108
L2C PREFETCH  NON_SPEC    ACCESS:    1681863  HIT:         12  MISS:    1681851  HIT %: 0.000713494  MISS %:    99.9993   MPKI: 8.40925
L2C WRITEBACK NON_SPEC    ACCESS:    9931926  HIT:    9931508  MISS:        418  HIT %:    99.9958  MISS %: 0.00420865   MPKI: 0.00209
L2C CLEAN_EVICTION NON_SPEC    ACCESS:    1895945  HIT:    1712853  MISS:     183092  HIT %:     90.343  MISS %:    9.65703   MPKI: 0.91546
L2C COMMIT LOAD NON_SPEC    ACCESS:     151245  HIT:      74375  MISS:      76870  HIT %:    49.1752  MISS %:    50.8248   MPKI: 0.38435
L2C LOAD TRANSLATION NON_SPEC    ACCESS:     612229  HIT:     596777  MISS:      15452  HIT %:    97.4761  MISS %:    2.52389   MPKI: 0.07726
L2C PREFETCH  REQUESTED:          0  ISSUED:          0  USEFUL:      77381  USELESS:    1605246
L2C USEFUL LOAD PREFETCHES:      77381 PREFETCH ISSUED TO LOWER LEVEL:    1681851  ACCURACY: 4.60094
L2C TIMELY PREFETCHES:      77381 LATE PREFETCHES: 0 DROPPED PREFETCHES: 0
L2C COMMIT LATE PREFETCHES: 0 NORMAL LATE: 0 MISSED OPPORTUNITY: 0 UNCOVERED: 312328
L2C PREFETCHES SAME FILL-ORIGIN LEVEL: 0 DIFFERENT FILL-ORIGIN LEVEL: 0
L2C AVERAGE MISS LATENCY: 560.919 cycles
L2C AVERAGE MISS LATENCY LOAD: 504.939 cycles
L2C AVERAGE MISS LATENCY PREFETCH: 540.75 cycles
L2C AVERAGE MSHR OCCUPANCY: 11.3808
L2C MSHR FULL: 0
L2C RQ	ACCESS:   11012934	FORWARD:          0	MERGED:          0	TO_CACHE:   11012933
L2C WQ	ACCESS:   11827916	FORWARD:          1	MERGED:         45	TO_CACHE:   11827871
L2C PQ	ACCESS:    1681863	FORWARD:          0	MERGED:          0	TO_CACHE:    1681863

L2C Instructions Evicting Data 0
L2C Translations Evicting Data 15387
L2C Data Evicting Data 7403222
L2C Instructions Evicting Instructions 0
L2C Translations Evicting Instructions 0
L2C Data Evicting Instructions 0
L2C Instructions Evicting Translations 0
L2C Translations Evicting Translations 65
L2C Data Evicting Translations 15010
L2C Dense regions hint from L2: 0
PSCL5 SPEC fills:          0  NON-SPEC fills:          0
PSCL5 Test counter :          0
PSCL5 Leapfrog:          0
PSCL5 MSHR merge:          0
PSCL5 TOTAL     ACCESS:          0  HIT:          0  MISS:          0  HIT %:       -nan  MISS %:       -nan   MPKI: 0
PSCL5 PREFETCH  REQUESTED:          0  ISSUED:          0  USEFUL:          0  USELESS:          0
PSCL5 USEFUL LOAD PREFETCHES:          0 PREFETCH ISSUED TO LOWER LEVEL:          0  ACCURACY: -nan
PSCL5 TIMELY PREFETCHES:          0 LATE PREFETCHES: 0 DROPPED PREFETCHES: 0
PSCL5 COMMIT LATE PREFETCHES: 0 NORMAL LATE: 0 MISSED OPPORTUNITY: 0 UNCOVERED: 0
PSCL5 PREFETCHES SAME FILL-ORIGIN LEVEL: 0 DIFFERENT FILL-ORIGIN LEVEL: 0

PSCL4 SPEC fills:          0  NON-SPEC fills:          0
PSCL4 Test counter :          0
PSCL4 Leapfrog:          0
PSCL4 MSHR merge:          0
PSCL4 TOTAL     ACCESS:          0  HIT:          0  MISS:          0  HIT %:       -nan  MISS %:       -nan   MPKI: 0
PSCL4 PREFETCH  REQUESTED:          0  ISSUED:          0  USEFUL:          0  USELESS:          0
PSCL4 USEFUL LOAD PREFETCHES:          0 PREFETCH ISSUED TO LOWER LEVEL:          0  ACCURACY: -nan
PSCL4 TIMELY PREFETCHES:          0 LATE PREFETCHES: 0 DROPPED PREFETCHES: 0
PSCL4 COMMIT LATE PREFETCHES: 0 NORMAL LATE: 0 MISSED OPPORTUNITY: 0 UNCOVERED: 0
PSCL4 PREFETCHES SAME FILL-ORIGIN LEVEL: 0 DIFFERENT FILL-ORIGIN LEVEL: 0

PSCL3 SPEC fills:          0  NON-SPEC fills:          0
PSCL3 Test counter :          0
PSCL3 Leapfrog:          0
PSCL3 MSHR merge:          0
PSCL3 TOTAL     ACCESS:          0  HIT:          0  MISS:          0  HIT %:       -nan  MISS %:       -nan   MPKI: 0
PSCL3 PREFETCH  REQUESTED:          0  ISSUED:          0  USEFUL:          0  USELESS:          0
PSCL3 USEFUL LOAD PREFETCHES:          0 PREFETCH ISSUED TO LOWER LEVEL:          0  ACCURACY: -nan
PSCL3 TIMELY PREFETCHES:          0 LATE PREFETCHES: 0 DROPPED PREFETCHES: 0
PSCL3 COMMIT LATE PREFETCHES: 0 NORMAL LATE: 0 MISSED OPPORTUNITY: 0 UNCOVERED: 0
PSCL3 PREFETCHES SAME FILL-ORIGIN LEVEL: 0 DIFFERENT FILL-ORIGIN LEVEL: 0

PSCL2 SPEC fills:          0  NON-SPEC fills:          0
PSCL2 Test counter :          0
PSCL2 Leapfrog:          0
PSCL2 MSHR merge:          0
PSCL2 TOTAL     ACCESS:          0  HIT:          0  MISS:          0  HIT %:       -nan  MISS %:       -nan   MPKI: 0
PSCL2 PREFETCH  REQUESTED:          0  ISSUED:          0  USEFUL:          0  USELESS:          0
PSCL2 USEFUL LOAD PREFETCHES:          0 PREFETCH ISSUED TO LOWER LEVEL:          0  ACCURACY: -nan
PSCL2 TIMELY PREFETCHES:          0 LATE PREFETCHES: 0 DROPPED PREFETCHES: 0
PSCL2 COMMIT LATE PREFETCHES: 0 NORMAL LATE: 0 MISSED OPPORTUNITY: 0 UNCOVERED: 0
PSCL2 PREFETCHES SAME FILL-ORIGIN LEVEL: 0 DIFFERENT FILL-ORIGIN LEVEL: 0

LLC SPEC fills:          0  NON-SPEC fills:      17354
LLC Test counter :          0
LLC Leapfrog:          0
LLC MSHR merge:          0
LLC TOTAL     ACCESS:   15261698  HIT:    7405568  MISS:    7856130  HIT %:    48.5239  MISS %:    51.4761   MPKI: 39.2806
LLC LOAD      TOTAL       ACCESS:     312328  HIT:          6  MISS:     312322  HIT %: 0.00192106  MISS %:    99.9981   MPKI: 1.56161
LLC LOAD      NON_SPEC    ACCESS:      17354  HIT:          0  MISS:      17354  HIT %:          0  MISS %:        100   MPKI: 0.08677
LLC LOAD      SPEC        ACCESS:     294974  HIT:          6  MISS:     294968  HIT %: 0.00203408  MISS %:     99.998   MPKI: 1.47484
LLC RFO       NON_SPEC    ACCESS:    5642001  HIT:      55548  MISS:    5586453  HIT %:   0.984544  MISS %:    99.0155   MPKI: 27.9323
LLC PREFETCH  NON_SPEC    ACCESS:    1681851  HIT:          0  MISS:    1681851  HIT %:          0  MISS %:        100   MPKI: 8.40925
LLC WRITEBACK NON_SPEC    ACCESS:    5641988  HIT:    5641706  MISS:        282  HIT %:     99.995  MISS %: 0.00499824   MPKI: 0.00141
LLC CLEAN_EVICTION NON_SPEC    ACCESS:    1891208  HIT:    1708308  MISS:     182900  HIT %:    90.3289  MISS %:    9.67107   MPKI: 0.9145
LLC COMMIT LOAD NON_SPEC    ACCESS:      76870  HIT:          0  MISS:      76870  HIT %:          0  MISS %:        100   MPKI: 0.38435
LLC LOAD TRANSLATION NON_SPEC    ACCESS:      15452  HIT:          0  MISS:      15452  HIT %:          0  MISS %:        100   MPKI: 0.07726
LLC PREFETCH  REQUESTED:          0  ISSUED:          0  USEFUL:          0  USELESS:    1686289
LLC USEFUL LOAD PREFETCHES:          0 PREFETCH ISSUED TO LOWER LEVEL:    1681851  ACCURACY: 0
LLC TIMELY PREFETCHES:          0 LATE PREFETCHES: 0 DROPPED PREFETCHES: 0
LLC COMMIT LATE PREFETCHES: 0 NORMAL LATE: 0 MISSED OPPORTUNITY: 0 UNCOVERED: 312322
LLC PREFETCHES SAME FILL-ORIGIN LEVEL: 0 DIFFERENT FILL-ORIGIN LEVEL: 0
LLC AVERAGE MISS LATENCY: 534.814 cycles
LLC AVERAGE MISS LATENCY LOAD: 483.23 cycles
LLC AVERAGE MISS LATENCY PREFETCH: 510.338 cycles
LLC AVERAGE MSHR OCCUPANCY: 10.7407
LLC MSHR FULL: 0
LLC RQ	ACCESS:    6046812	FORWARD:          0	MERGED:          0	TO_CACHE:    6046656
LLC WQ	ACCESS:    7533196	FORWARD:        156	MERGED:          0	TO_CACHE:    7533196
LLC PQ	ACCESS:    1681851	FORWARD:          0	MERGED:          0	TO_CACHE:    1681851

LLC Dense regions hint to LLC: 0

RAW hits: 1224352
Loads Generated: 50393882
Loads sent to L1D: 49169528
Stores Generated: 34563853
Stores sent to L1D: 34563860
Major fault: 0 Minor fault: 72955
Allocated PAGES: 72955
Total Load insts: 59142566
Total Non-spec loads: 4326040
Percentage of speculative loads: 92.6854

LeapFrogging counter: 31146233
Commit hits: 21199057 miss: 24059635
Commit hit %: 46.8397 miss %: 53.1603
Commits not translated: 0
Loads retired: 470787
Stores retired: 34563860
Cache fills: 470787
L1D response latency: 972.739 cycles
Load retirement latency: 2102.13 cycles
OOO test counter: 0
Discarded buffer inserts: 21199057 hits: 182890 hit %: 0.862727
Filter prediction accuracy: -nan

stream: 
stream:times selected: 7963851
stream:pref_filled: 214952
stream:pref_useful: 213420
stream:pref_late: 3637
stream:misses: 76960
stream:misses_by_poll: 0

CS: 
CS:times selected: 2119905
CS:pref_filled: 947044
CS:pref_useful: 946965
CS:pref_late: 1671
CS:misses: 145581
CS:misses_by_poll: 248

CPLX: 
CPLX:times selected: 5839556
CPLX:pref_filled: 627389
CPLX:pref_useful: 626453
CPLX:pref_late: 8560
CPLX:misses: 265178
CPLX:misses_by_poll: 1834

NL_L1: 
NL:times selected: 1189
NL:pref_filled: 76
NL:pref_useful: 75
NL:pref_late: 0
NL:misses: 247
NL:misses_by_poll: 0

total selections: 15924501
total_filled: 1525805
total_useful: 1523747
total_late: 14211
total_polluted: 2082
total_misses_after_warmup: 482916
conflicts: 110043
Degree Incremented Times: 312610
Degree Decremented Times: 0

L1 IP Table Write Accesses: 22854410
L1 IP Table Read Accesses: 22744367
L1 RST Write Accesses: 7220836
L1 RST Read Accesses: 14441672
L1 CSPT Write Accesses: 7220836
L1 CSPT Read Accesses: 22339449
L1 RR Filter Tag Write Accesses: 2107536
L1 RR Filter Tag Read Accesses: 1194582797
L1 IP Table Tag Write Accesses: 23405528
L1 IP Table Tag Read Accesses: 23405528
L1 RST Tag Write Accesses: 0
L1 RST Tag Read Accesses: 65179065
L1 RR Filter Write Accesses: 0
L1 RR Filter Read Accesses: 55472397
test: 1047931

DRAM Statistics
 CHANNEL 0
 RQ ROW_BUFFER_HIT:     662983  ROW_BUFFER_MISS:    7009965
 DBUS_CONGESTED:         24
 WQ ROW_BUFFER_HIT:    1569026  ROW_BUFFER_MISS:    5908375  FULL:        332

 AVG_CONGESTED_CYCLE: 5
 All warmup complete: 2
Channel 0 Bank busy for read cycles: 0
Channel 0 Bank busy for write cycles: 0
Channel 0
Rank 0
0banks busy for read cycles: 95988428
0banks busy for write cycles: 43999
1banks busy for read cycles: 7007213
1banks busy for write cycles: 4854456
2banks busy for read cycles: 6395408
2banks busy for write cycles: 3696766
3banks busy for read cycles: 9011459
3banks busy for write cycles: 3361419
4banks busy for read cycles: 16829770
4banks busy for write cycles: 3314237
5banks busy for read cycles: 33618920
5banks busy for write cycles: 3532197
6banks busy for read cycles: 48457673
6banks busy for write cycles: 4137974
7banks busy for read cycles: 55469517
7banks busy for write cycles: 12447149
8banks busy for read cycles: 34154236
8banks busy for write cycles: 132864895

CPU 0 Branch Prediction Accuracy: 97.6561% MPKI: 0.365925 Average ROB Occupancy at Mispredict: 135.937
Branch types
NOT_BRANCH: 196877353 98.4387%
BRANCH_DIRECT_JUMP: 397756 0.198878%
BRANCH_INDIRECT: 0 0%
BRANCH_CONDITIONAL: 2724542 1.36227%
BRANCH_DIRECT_CALL: 0 0%
BRANCH_INDIRECT_CALL: 0 0%
BRANCH_RETURN: 0 0%
BRANCH_OTHER: 0 0%

DRAM PAGES: 1048576
Allocated PAGES: 72955
