
*** ChampSim Multicore Out-of-Order Simulator ***

Warmup Instructions: 50000000
Simulation Instructions: 200000000
Number of CPUs: 1
LLC sets: 2048
LLC ways: 16
L0D sets: 16
L0D ways: 2
ROB size: 352
LQ size: 128
SQ size: 72
Secure Berti: OFF
Berti: OFF
Berti Fill: OFF
On commit prefetching: OFF
Hit-based filter: OFF
Time-guarding: ON
Free-slotting: ON
Leap-frogging: ON
Train prefetcher on L0D bypass: OFF
No translation penalty for prefetchers: OFF
Prefetch to L0D only: OFF
Prefetch to L1D only: OFF
Clean evictions: ON
Commit loads: ON
Commit write: ON
Fill commit loads to L2C, LLC: ON
DRAM IO FREQUENCY: 6400
ROB SIZE: 352
Off-chip DRAM Size: 4096 MB Channels: 1 Width: 64-bit Data Rate: 6400 MT/s
CPU 0 runs /home/sumon/secure_berti/GhostMinion/../../traces/spec/621.wrf_s-6673B.champsimtrace.xz
.xz
BTB has LRU replacement policy
ITLB has LRU replacement policy
DTLB has LRU replacement policy
STLB has LRU replacement policy
L1I has LRU replacement policy
L0D has LRU replacement policy
IP Table Entries: 1024
CSPT Entries: 128
RR_ENTRIES: 32
RST_ENTRIES: 8
L1D has LRU replacement policy
L2C has LRU replacement policy
LLC has LRU replacement policy
Heartbeat CPU 0 instructions: 10000002 cycles: 5235500 heartbeat IPC: 1.91004 cumulative IPC: 1.91004 (Simulation time: 0 hr 0 min 46 sec) 
Heartbeat CPU 0 instructions: 20000002 cycles: 8431713 heartbeat IPC: 3.1287 cumulative IPC: 2.372 (Simulation time: 0 hr 1 min 23 sec) 
Heartbeat CPU 0 instructions: 30000001 cycles: 11535003 heartbeat IPC: 3.22239 cumulative IPC: 2.60078 (Simulation time: 0 hr 1 min 56 sec) 
Heartbeat CPU 0 instructions: 40000002 cycles: 14602547 heartbeat IPC: 3.25994 cumulative IPC: 2.73925 (Simulation time: 0 hr 2 min 32 sec) 
Heartbeat CPU 0 instructions: 50000001 cycles: 17695405 heartbeat IPC: 3.23326 cumulative IPC: 2.82559 (Simulation time: 0 hr 3 min 8 sec) 

Warmup complete CPU 0 instructions: 50000001 cycles: 17695405 (Simulation time: 0 hr 3 min 8 sec) 

Heartbeat CPU 0 instructions: 60000001 cycles: 35406446 heartbeat IPC: 0.56462 cumulative IPC: 0.56462 (Simulation time: 0 hr 3 min 59 sec) 
Heartbeat CPU 0 instructions: 70000000 cycles: 54616837 heartbeat IPC: 0.520552 cumulative IPC: 0.541691 (Simulation time: 0 hr 4 min 54 sec) 
Heartbeat CPU 0 instructions: 80000000 cycles: 70437144 heartbeat IPC: 0.632099 cumulative IPC: 0.568809 (Simulation time: 0 hr 5 min 41 sec) 
Heartbeat CPU 0 instructions: 90000003 cycles: 85811891 heartbeat IPC: 0.650417 cumulative IPC: 0.587229 (Simulation time: 0 hr 6 min 30 sec) 
Heartbeat CPU 0 instructions: 100000000 cycles: 108581800 heartbeat IPC: 0.439176 cumulative IPC: 0.550137 (Simulation time: 0 hr 7 min 30 sec) 
Heartbeat CPU 0 instructions: 110000000 cycles: 117103408 heartbeat IPC: 1.17349 cumulative IPC: 0.603573 (Simulation time: 0 hr 8 min 5 sec) 
Heartbeat CPU 0 instructions: 120000003 cycles: 127714080 heartbeat IPC: 0.942448 cumulative IPC: 0.636256 (Simulation time: 0 hr 8 min 43 sec) 
Heartbeat CPU 0 instructions: 130000000 cycles: 136912584 heartbeat IPC: 1.08713 cumulative IPC: 0.671044 (Simulation time: 0 hr 9 min 16 sec) 
Heartbeat CPU 0 instructions: 140000001 cycles: 146836567 heartbeat IPC: 1.00766 cumulative IPC: 0.696912 (Simulation time: 0 hr 9 min 55 sec) 
Heartbeat CPU 0 instructions: 150000001 cycles: 157296812 heartbeat IPC: 0.956001 cumulative IPC: 0.716325 (Simulation time: 0 hr 10 min 28 sec) 
Heartbeat CPU 0 instructions: 160000001 cycles: 166428474 heartbeat IPC: 1.09509 cumulative IPC: 0.73958 (Simulation time: 0 hr 11 min 19 sec) 
Heartbeat CPU 0 instructions: 170000001 cycles: 177248041 heartbeat IPC: 0.924251 cumulative IPC: 0.752103 (Simulation time: 0 hr 12 min 35 sec) 
Heartbeat CPU 0 instructions: 180000000 cycles: 186281652 heartbeat IPC: 1.10698 cumulative IPC: 0.771119 (Simulation time: 0 hr 13 min 46 sec) 
Heartbeat CPU 0 instructions: 190000000 cycles: 199233962 heartbeat IPC: 0.772063 cumulative IPC: 0.771186 (Simulation time: 0 hr 15 min 15 sec) 
Heartbeat CPU 0 instructions: 200000003 cycles: 211274074 heartbeat IPC: 0.830557 cumulative IPC: 0.774879 (Simulation time: 0 hr 16 min 17 sec) 
Heartbeat CPU 0 instructions: 210000000 cycles: 223344062 heartbeat IPC: 0.828501 cumulative IPC: 0.778026 (Simulation time: 0 hr 17 min 9 sec) 
Heartbeat CPU 0 instructions: 220000000 cycles: 235698106 heartbeat IPC: 0.809452 cumulative IPC: 0.779807 (Simulation time: 0 hr 18 min 2 sec) 
Heartbeat CPU 0 instructions: 230000003 cycles: 251617727 heartbeat IPC: 0.628156 cumulative IPC: 0.769486 (Simulation time: 0 hr 18 min 57 sec) 
Heartbeat CPU 0 instructions: 240000002 cycles: 267005880 heartbeat IPC: 0.64985 cumulative IPC: 0.762102 (Simulation time: 0 hr 19 min 55 sec) 
Heartbeat CPU 0 instructions: 250000000 cycles: 275539386 heartbeat IPC: 1.17185 cumulative IPC: 0.775663 (Simulation time: 0 hr 20 min 37 sec) 
Finished CPU 0 instructions: 200000003 cycles: 257843982 cumulative IPC: 0.775663 (Simulation time: 0 hr 20 min 37 sec) 
 Instruction ID: 250000091

ChampSim completed all CPUs

Region of Interest Statistics

CPU 0 cumulative IPC: 0.775663 instructions: 200000003 cycles: 257843982
ITLB SPEC fills:          0  NON-SPEC fills:          0
ITLB Test counter :          0
ITLB Leapfrog:          0
ITLB MSHR merge:          0
ITLB TOTAL     ACCESS:   29039550  HIT:   29039379  MISS:        171  HIT %:    99.9994  MISS %: 0.000588852   MPKI: 0.000855
ITLB LOAD TRANSLATION NON_SPEC    ACCESS:   29039550  HIT:   29039379  MISS:        171  HIT %:    99.9994  MISS %: 0.000588852   MPKI: 0.000855
ITLB PREFETCH  REQUESTED:          0  ISSUED:          0  USEFUL:          0  USELESS:          0
ITLB USEFUL LOAD PREFETCHES:          0 PREFETCH ISSUED TO LOWER LEVEL:          0  ACCURACY: -nan
ITLB TIMELY PREFETCHES:          0 LATE PREFETCHES: 0 DROPPED PREFETCHES: 0
ITLB COMMIT LATE PREFETCHES: 0 NORMAL LATE: 0 MISSED OPPORTUNITY: 0 UNCOVERED: 0
ITLB PREFETCHES SAME FILL-ORIGIN LEVEL: 0 DIFFERENT FILL-ORIGIN LEVEL: 0
ITLB AVERAGE MISS LATENCY: 349.819 cycles
ITLB AVERAGE MISS LATENCY LOAD: -nan cycles
ITLB AVERAGE MISS LATENCY PREFETCH: -nan cycles
ITLB AVERAGE MSHR OCCUPANCY: 2.37607e-06
ITLB MSHR FULL: 0
ITLB RQ	ACCESS:   35202324	FORWARD:          0	MERGED:    6162716	TO_CACHE:   29039608

DTLB SPEC fills:          0  NON-SPEC fills:          0
DTLB Test counter :          0
DTLB Leapfrog:          0
DTLB MSHR merge:          0
DTLB TOTAL     ACCESS:   50298697  HIT:   50098252  MISS:     200445  HIT %:    99.6015  MISS %:   0.398509   MPKI: 1.00222
DTLB LOAD TRANSLATION NON_SPEC    ACCESS:   50298697  HIT:   50098252  MISS:     200445  HIT %:    99.6015  MISS %:   0.398509   MPKI: 1.00222
DTLB PREFETCH  REQUESTED:          0  ISSUED:          0  USEFUL:          0  USELESS:          0
DTLB USEFUL LOAD PREFETCHES:          0 PREFETCH ISSUED TO LOWER LEVEL:          0  ACCURACY: -nan
DTLB TIMELY PREFETCHES:          0 LATE PREFETCHES: 0 DROPPED PREFETCHES: 0
DTLB COMMIT LATE PREFETCHES: 0 NORMAL LATE: 0 MISSED OPPORTUNITY: 0 UNCOVERED: 0
DTLB PREFETCHES SAME FILL-ORIGIN LEVEL: 0 DIFFERENT FILL-ORIGIN LEVEL: 0
DTLB AVERAGE MISS LATENCY: 35.9768 cycles
DTLB AVERAGE MISS LATENCY LOAD: -nan cycles
DTLB AVERAGE MISS LATENCY PREFETCH: -nan cycles
DTLB AVERAGE MSHR OCCUPANCY: 0.030561
DTLB MSHR FULL: 0.0014959
DTLB RQ	ACCESS:   57871076	FORWARD:          0	MERGED:    7494497	TO_CACHE:   50376579

STLB SPEC fills:          0  NON-SPEC fills:          0
STLB Test counter :          0
STLB Leapfrog:          0
STLB MSHR merge:          0
STLB TOTAL     ACCESS:    4063267  HIT:    4035665  MISS:      27602  HIT %:    99.3207  MISS %:   0.679306   MPKI: 0.13801
STLB LOAD TRANSLATION NON_SPEC    ACCESS:     200616  HIT:     173017  MISS:      27599  HIT %:    86.2429  MISS %:    13.7571   MPKI: 0.137995
STLB TRANSLATION FROM L1D PREFETCHER NON_SPEC    ACCESS:    3862651  HIT:    3862648  MISS:          3  HIT %:    99.9999  MISS %: 7.76669e-05   MPKI: 1.5e-05
STLB PREFETCH  REQUESTED:          0  ISSUED:          0  USEFUL:          3  USELESS:          0
STLB USEFUL LOAD PREFETCHES:          3 PREFETCH ISSUED TO LOWER LEVEL:          0  ACCURACY: inf
STLB TIMELY PREFETCHES:          3 LATE PREFETCHES: 0 DROPPED PREFETCHES: 0
STLB COMMIT LATE PREFETCHES: 0 NORMAL LATE: 0 MISSED OPPORTUNITY: 0 UNCOVERED: 0
STLB PREFETCHES SAME FILL-ORIGIN LEVEL: 0 DIFFERENT FILL-ORIGIN LEVEL: 0
STLB AVERAGE MISS LATENCY: 197.295 cycles
STLB AVERAGE MISS LATENCY LOAD: -nan cycles
STLB AVERAGE MISS LATENCY PREFETCH: -nan cycles
STLB AVERAGE MSHR OCCUPANCY: 0.0209501
STLB MSHR FULL: 0
STLB RQ	ACCESS:   12043347	FORWARD:          0	MERGED:    7980078	TO_CACHE:    4063269

STLB Hit, L1D data hit: 0
STLB Hit, L2C data hit: 0
STLB Hit, LLC data hit: 0
STLB Hit, LLC data miss: 0
STLB STLB hints to L2: 0
L0D SPEC fills:   31256184  NON-SPEC fills:          0
L0D TimeGuard Request with older TS:     585310 Restricted eviction:     564476 read:    1087555
L0D Test counter :          0
L0D Leapfrog:          0
L0D MSHR merge:    2071931
L0D TOTAL     ACCESS:   44943848  HIT:    7438422  MISS:   37505426  HIT %:    16.5505  MISS %:    83.4495   MPKI: 187.527
L0D LOAD      TOTAL       ACCESS:   44943848  HIT:    7438422  MISS:   37505426  HIT %:    16.5505  MISS %:    83.4495   MPKI: 187.527
L0D LOAD      NON_SPEC    ACCESS:    6537650  HIT:     852441  MISS:    5685209  HIT %:     13.039  MISS %:     86.961   MPKI: 28.426
L0D LOAD      SPEC        ACCESS:   38406198  HIT:    6585981  MISS:   31820217  HIT %:    17.1482  MISS %:    82.8518   MPKI: 159.101
L0D PREFETCH  REQUESTED:          0  ISSUED:          0  USEFUL:          0  USELESS:          0
L0D USEFUL LOAD PREFETCHES:          0 PREFETCH ISSUED TO LOWER LEVEL:          0  ACCURACY: -nan
L0D TIMELY PREFETCHES:          0 LATE PREFETCHES: 0 DROPPED PREFETCHES: 0
L0D COMMIT LATE PREFETCHES: 0 NORMAL LATE: 0 MISSED OPPORTUNITY: 0 UNCOVERED: 37505426
L0D PREFETCHES SAME FILL-ORIGIN LEVEL: 0 DIFFERENT FILL-ORIGIN LEVEL: 0
L0D AVERAGE MISS LATENCY: 9.55992 cycles
L0D AVERAGE MISS LATENCY LOAD: 9.55992 cycles
L0D AVERAGE MISS LATENCY PREFETCH: -nan cycles
L0D AVERAGE MSHR OCCUPANCY: 2.37943
L0D MSHR FULL: 0.139736
L0D RQ	ACCESS:   58954943	FORWARD:          0	MERGED:   11939162	TO_CACHE:   47015781
L0D WQ	ACCESS:   10855295	FORWARD:          0	MERGED:          0	TO_CACHE:   10855295

L1D SPEC fills:          0  NON-SPEC fills:      19465
L1D Test counter :          0
L1D Leapfrog:          0
L1D MSHR merge:     180412
L1D TOTAL     ACCESS:  102198342  HIT:   97605582  MISS:    4592760  HIT %:     95.506  MISS %:    4.49397   MPKI: 22.9638
L1D LOAD      TOTAL       ACCESS:   37501407  HIT:   36883097  MISS:     618310  HIT %:    98.3512  MISS %:    1.64876   MPKI: 3.09155
L1D LOAD      NON_SPEC    ACCESS:    5684882  HIT:    5665417  MISS:      19465  HIT %:    99.6576  MISS %:   0.342399   MPKI: 0.097325
L1D LOAD      SPEC        ACCESS:   31816525  HIT:   31217680  MISS:     598845  HIT %:    98.1178  MISS %:    1.88218   MPKI: 2.99422
L1D RFO       NON_SPEC    ACCESS:    8283966  HIT:    7782578  MISS:     501388  HIT %:    93.9475  MISS %:    6.05251   MPKI: 2.50694
L1D PREFETCH  NON_SPEC    ACCESS:   11309690  HIT:    8417384  MISS:    2892306  HIT %:    74.4263  MISS %:    25.5737   MPKI: 14.4615
L1D COMMIT LOAD NON_SPEC    ACCESS:   14473733  HIT:   14436308  MISS:      37425  HIT %:    99.7414  MISS %:   0.258572   MPKI: 0.187125
L1D COMMIT WRITE NON_SPEC    ACCESS:   30629546  HIT:   30086215  MISS:     543331  HIT %:    98.2261  MISS %:    1.77388   MPKI: 2.71665
L1D PREFETCH  REQUESTED:   17010686  ISSUED:   11862049  USEFUL:    2344250  USELESS:     548082
L1D USEFUL LOAD PREFETCHES:    2344250 PREFETCH ISSUED TO LOWER LEVEL:    3074847  ACCURACY: 76.2396
L1D TIMELY PREFETCHES:    2344250 LATE PREFETCHES: 176652 DROPPED PREFETCHES: 0
L1D COMMIT LATE PREFETCHES: 0 NORMAL LATE: 176652 MISSED OPPORTUNITY: 0 UNCOVERED: 441658
L1D PREFETCHES SAME FILL-ORIGIN LEVEL: 3074847 DIFFERENT FILL-ORIGIN LEVEL: 0
L1D AVERAGE MISS LATENCY: 197.364 cycles
L1D AVERAGE MISS LATENCY LOAD: 225.326 cycles
L1D AVERAGE MISS LATENCY PREFETCH: 212.467 cycles
L1D AVERAGE MSHR OCCUPANCY: 3.62866
L1D MSHR FULL: 0.114045
L1D RQ	ACCESS:   58640137	FORWARD:          0	MERGED:    6414020	TO_CACHE:   51991716
L1D WQ	ACCESS:   40696343	FORWARD:     234401	MERGED:     532817	TO_CACHE:   40163526
L1D PQ	ACCESS:   11862049	FORWARD:          0	MERGED:      19318	TO_CACHE:   11842731

L1D UNIQUE REGIONS ACCESSED: 0
L1D REGIONS CONFLICTS: 0
L1D Cross Page Prefetch Requests: 0
L1D Same Page Prefetch Requests: 17054779
L1D ROI Sum of L1D PQ occupancy: 345733144
L1D PREFETCHES PUSHED FROM L2C: 0
L1I SPEC fills:          0  NON-SPEC fills:          0
L1I Test counter :          0
L1I Leapfrog:          0
L1I MSHR merge:       2924
L1I TOTAL     ACCESS:   35199398  HIT:   35193235  MISS:       6163  HIT %:    99.9825  MISS %:  0.0175088   MPKI: 0.030815
L1I LOAD      TOTAL       ACCESS:   35199398  HIT:   35193235  MISS:       6163  HIT %:    99.9825  MISS %:  0.0175088   MPKI: 0.030815
L1I LOAD      NON_SPEC    ACCESS:   35199398  HIT:   35193235  MISS:       6163  HIT %:    99.9825  MISS %:  0.0175088   MPKI: 0.030815
L1I PREFETCH  REQUESTED:          0  ISSUED:          0  USEFUL:          0  USELESS:          0
L1I USEFUL LOAD PREFETCHES:          0 PREFETCH ISSUED TO LOWER LEVEL:          0  ACCURACY: -nan
L1I TIMELY PREFETCHES:          0 LATE PREFETCHES: 0 DROPPED PREFETCHES: 0
L1I COMMIT LATE PREFETCHES: 0 NORMAL LATE: 0 MISSED OPPORTUNITY: 0 UNCOVERED: 6163
L1I PREFETCHES SAME FILL-ORIGIN LEVEL: 0 DIFFERENT FILL-ORIGIN LEVEL: 0
L1I AVERAGE MISS LATENCY: 251.023 cycles
L1I AVERAGE MISS LATENCY LOAD: 251.023 cycles
L1I AVERAGE MISS LATENCY PREFETCH: -nan cycles
L1I AVERAGE MSHR OCCUPANCY: 0.00022828
L1I MSHR FULL: 0
L1I RQ	ACCESS:   52055261	FORWARD:          0	MERGED:   16852937	TO_CACHE:   35202324

BTB SPEC fills:          0  NON-SPEC fills:          0
BTB Test counter :          0
BTB Leapfrog:          0
BTB MSHR merge:          0
BTB TOTAL     ACCESS:    9141034  HIT:    9133637  MISS:       7397  HIT %:    99.9191  MISS %:  0.0809208   MPKI: 0.036985
BTB BRANCH_DIRECT_JUMP	ACCESS:     290387  HIT:     290283  MISS:        104
BTB BRANCH_INDIRECT	ACCESS:         12  HIT:          8  MISS:          4
BTB BRANCH_CONDITIONAL	ACCESS:    8250534  HIT:    8249659  MISS:        875
BTB BRANCH_DIRECT_CALL	ACCESS:     300051  HIT:     299561  MISS:        490
BTB BRANCH_INDIRECT_CALL	ACCESS:          0  HIT:          0  MISS:          0
BTB BRANCH_RETURN	ACCESS:     300050  HIT:     294126  MISS:       5924
BTB BRANCH_OTHER ACCESS:          0  HIT:          0  MISS:          0

L2C SPEC fills:          0  NON-SPEC fills:       8937
L2C Test counter :          0
L2C Leapfrog:          0
L2C MSHR merge:          0
L2C TOTAL     ACCESS:    7538641  HIT:    4371776  MISS:    3166865  HIT %:    57.9916  MISS %:    42.0084   MPKI: 15.8343
L2C LOAD      TOTAL       ACCESS:     448047  HIT:     167342  MISS:     280705  HIT %:    37.3492  MISS %:    62.6508   MPKI: 1.40352
L2C LOAD      NON_SPEC    ACCESS:      22012  HIT:       6912  MISS:      15100  HIT %:    31.4011  MISS %:    68.5989   MPKI: 0.0755
L2C LOAD      SPEC        ACCESS:     426035  HIT:     160430  MISS:     265605  HIT %:    37.6565  MISS %:    62.3435   MPKI: 1.32802
L2C RFO       NON_SPEC    ACCESS:     495453  HIT:     150897  MISS:     344556  HIT %:    30.4564  MISS %:    69.5436   MPKI: 1.72278
L2C PREFETCH  NON_SPEC    ACCESS:    3074644  HIT:     800153  MISS:    2274491  HIT %:    26.0242  MISS %:    73.9758   MPKI: 11.3725
L2C WRITEBACK NON_SPEC    ACCESS:     609428  HIT:     607659  MISS:       1769  HIT %:    99.7097  MISS %:   0.290272   MPKI: 0.008845
L2C CLEAN_EVICTION NON_SPEC    ACCESS:    2735931  HIT:    2486911  MISS:     249020  HIT %:    90.8982  MISS %:    9.10184   MPKI: 1.2451
L2C COMMIT LOAD NON_SPEC    ACCESS:      37137  HIT:      25900  MISS:      11237  HIT %:    69.7418  MISS %:    30.2582   MPKI: 0.056185
L2C LOAD TRANSLATION NON_SPEC    ACCESS:     137986  HIT:     132903  MISS:       5083  HIT %:    96.3163  MISS %:    3.68371   MPKI: 0.025415
L2C TRANSLATION FROM L1D PREFETCHER NON_SPEC    ACCESS:         15  HIT:         11  MISS:          4  HIT %:    73.3333  MISS %:    26.6667   MPKI: 2e-05
L2C PREFETCH  REQUESTED:          0  ISSUED:          0  USEFUL:      94664  USELESS:    2178657
L2C USEFUL LOAD PREFETCHES:      94664 PREFETCH ISSUED TO LOWER LEVEL:    2274491  ACCURACY: 4.16199
L2C TIMELY PREFETCHES:      94664 LATE PREFETCHES: 0 DROPPED PREFETCHES: 0
L2C COMMIT LATE PREFETCHES: 0 NORMAL LATE: 0 MISSED OPPORTUNITY: 0 UNCOVERED: 280705
L2C PREFETCHES SAME FILL-ORIGIN LEVEL: 0 DIFFERENT FILL-ORIGIN LEVEL: 0
L2C AVERAGE MISS LATENCY: 279.934 cycles
L2C AVERAGE MISS LATENCY LOAD: 282.383 cycles
L2C AVERAGE MISS LATENCY PREFETCH: 290.514 cycles
L2C AVERAGE MSHR OCCUPANCY: 6.51912
L2C MSHR FULL: 0
L2C RQ	ACCESS:    1118747	FORWARD:          0	MERGED:          0	TO_CACHE:    1118638
L2C WQ	ACCESS:    3345375	FORWARD:        312	MERGED:         16	TO_CACHE:    3345359
L2C PQ	ACCESS:    3074847	FORWARD:          0	MERGED:          0	TO_CACHE:    3074644

L2C Instructions Evicting Data 6141
L2C Translations Evicting Data 5078
L2C Data Evicting Data 2629499
L2C Instructions Evicting Instructions 21
L2C Translations Evicting Instructions 5
L2C Data Evicting Instructions 5450
L2C Instructions Evicting Translations 1
L2C Translations Evicting Translations 4
L2C Data Evicting Translations 4483
L2C Dense regions hint from L2: 0
PSCL5 SPEC fills:          0  NON-SPEC fills:          0
PSCL5 Test counter :          0
PSCL5 Leapfrog:          0
PSCL5 MSHR merge:          0
PSCL5 TOTAL     ACCESS:          0  HIT:          0  MISS:          0  HIT %:       -nan  MISS %:       -nan   MPKI: 0
PSCL5 PREFETCH  REQUESTED:          0  ISSUED:          0  USEFUL:          0  USELESS:          0
PSCL5 USEFUL LOAD PREFETCHES:          0 PREFETCH ISSUED TO LOWER LEVEL:          0  ACCURACY: -nan
PSCL5 TIMELY PREFETCHES:          0 LATE PREFETCHES: 0 DROPPED PREFETCHES: 0
PSCL5 COMMIT LATE PREFETCHES: 0 NORMAL LATE: 0 MISSED OPPORTUNITY: 0 UNCOVERED: 0
PSCL5 PREFETCHES SAME FILL-ORIGIN LEVEL: 0 DIFFERENT FILL-ORIGIN LEVEL: 0

PSCL4 SPEC fills:          0  NON-SPEC fills:          0
PSCL4 Test counter :          0
PSCL4 Leapfrog:          0
PSCL4 MSHR merge:          0
PSCL4 TOTAL     ACCESS:          0  HIT:          0  MISS:          0  HIT %:       -nan  MISS %:       -nan   MPKI: 0
PSCL4 PREFETCH  REQUESTED:          0  ISSUED:          0  USEFUL:          0  USELESS:          0
PSCL4 USEFUL LOAD PREFETCHES:          0 PREFETCH ISSUED TO LOWER LEVEL:          0  ACCURACY: -nan
PSCL4 TIMELY PREFETCHES:          0 LATE PREFETCHES: 0 DROPPED PREFETCHES: 0
PSCL4 COMMIT LATE PREFETCHES: 0 NORMAL LATE: 0 MISSED OPPORTUNITY: 0 UNCOVERED: 0
PSCL4 PREFETCHES SAME FILL-ORIGIN LEVEL: 0 DIFFERENT FILL-ORIGIN LEVEL: 0

PSCL3 SPEC fills:          0  NON-SPEC fills:          0
PSCL3 Test counter :          0
PSCL3 Leapfrog:          0
PSCL3 MSHR merge:          0
PSCL3 TOTAL     ACCESS:          0  HIT:          0  MISS:          0  HIT %:       -nan  MISS %:       -nan   MPKI: 0
PSCL3 PREFETCH  REQUESTED:          0  ISSUED:          0  USEFUL:          0  USELESS:          0
PSCL3 USEFUL LOAD PREFETCHES:          0 PREFETCH ISSUED TO LOWER LEVEL:          0  ACCURACY: -nan
PSCL3 TIMELY PREFETCHES:          0 LATE PREFETCHES: 0 DROPPED PREFETCHES: 0
PSCL3 COMMIT LATE PREFETCHES: 0 NORMAL LATE: 0 MISSED OPPORTUNITY: 0 UNCOVERED: 0
PSCL3 PREFETCHES SAME FILL-ORIGIN LEVEL: 0 DIFFERENT FILL-ORIGIN LEVEL: 0

PSCL2 SPEC fills:          0  NON-SPEC fills:          0
PSCL2 Test counter :          0
PSCL2 Leapfrog:          0
PSCL2 MSHR merge:          0
PSCL2 TOTAL     ACCESS:          0  HIT:          0  MISS:          0  HIT %:       -nan  MISS %:       -nan   MPKI: 0
PSCL2 PREFETCH  REQUESTED:          0  ISSUED:          0  USEFUL:          0  USELESS:          0
PSCL2 USEFUL LOAD PREFETCHES:          0 PREFETCH ISSUED TO LOWER LEVEL:          0  ACCURACY: -nan
PSCL2 TIMELY PREFETCHES:          0 LATE PREFETCHES: 0 DROPPED PREFETCHES: 0
PSCL2 COMMIT LATE PREFETCHES: 0 NORMAL LATE: 0 MISSED OPPORTUNITY: 0 UNCOVERED: 0
PSCL2 PREFETCHES SAME FILL-ORIGIN LEVEL: 0 DIFFERENT FILL-ORIGIN LEVEL: 0

LLC SPEC fills:          0  NON-SPEC fills:       6434
LLC Test counter :          0
LLC Leapfrog:          0
LLC MSHR merge:          0
LLC TOTAL     ACCESS:    5402120  HIT:    2794488  MISS:    2607632  HIT %:    51.7295  MISS %:    48.2705   MPKI: 13.0382
LLC LOAD      TOTAL       ACCESS:     280698  HIT:      43553  MISS:     237145  HIT %:     15.516  MISS %:     84.484   MPKI: 1.18572
LLC LOAD      NON_SPEC    ACCESS:      15100  HIT:       2503  MISS:      12597  HIT %:    16.5762  MISS %:    83.4238   MPKI: 0.062985
LLC LOAD      SPEC        ACCESS:     265598  HIT:      41050  MISS:     224548  HIT %:    15.4557  MISS %:    84.5443   MPKI: 1.12274
LLC RFO       NON_SPEC    ACCESS:     344556  HIT:      18214  MISS:     326342  HIT %:    5.28622  MISS %:    94.7138   MPKI: 1.63171
LLC PREFETCH  NON_SPEC    ACCESS:    2274491  HIT:     463011  MISS:    1811480  HIT %:    20.3567  MISS %:    79.6433   MPKI: 9.0574
LLC WRITEBACK NON_SPEC    ACCESS:     453784  HIT:     450836  MISS:       2948  HIT %:    99.3504  MISS %:   0.649648   MPKI: 0.01474
LLC CLEAN_EVICTION NON_SPEC    ACCESS:    2032267  HIT:    1815754  MISS:     216513  HIT %:    89.3462  MISS %:    10.6538   MPKI: 1.08256
LLC COMMIT LOAD NON_SPEC    ACCESS:      11237  HIT:       2730  MISS:       8507  HIT %:    24.2947  MISS %:    75.7053   MPKI: 0.042535
LLC LOAD TRANSLATION NON_SPEC    ACCESS:       5083  HIT:        390  MISS:       4693  HIT %:    7.67263  MISS %:    92.3274   MPKI: 0.023465
LLC TRANSLATION FROM L1D PREFETCHER NON_SPEC    ACCESS:          4  HIT:          0  MISS:          4  HIT %:          0  MISS %:        100   MPKI: 2e-05
LLC PREFETCH  REQUESTED:          0  ISSUED:          0  USEFUL:      22576  USELESS:    1791490
LLC USEFUL LOAD PREFETCHES:      22576 PREFETCH ISSUED TO LOWER LEVEL:    1811480  ACCURACY: 1.24627
LLC TIMELY PREFETCHES:      22576 LATE PREFETCHES: 0 DROPPED PREFETCHES: 0
LLC COMMIT LATE PREFETCHES: 0 NORMAL LATE: 0 MISSED OPPORTUNITY: 0 UNCOVERED: 237145
LLC PREFETCHES SAME FILL-ORIGIN LEVEL: 0 DIFFERENT FILL-ORIGIN LEVEL: 0
LLC AVERAGE MISS LATENCY: 307.204 cycles
LLC AVERAGE MISS LATENCY LOAD: 308.72 cycles
LLC AVERAGE MISS LATENCY PREFETCH: 327.032 cycles
LLC AVERAGE MSHR OCCUPANCY: 6.67664
LLC MSHR FULL: 0
LLC RQ	ACCESS:     641585	FORWARD:          0	MERGED:          0	TO_CACHE:     641578
LLC WQ	ACCESS:    2486052	FORWARD:          7	MERGED:          0	TO_CACHE:    2486052
LLC PQ	ACCESS:    2274491	FORWARD:          0	MERGED:          0	TO_CACHE:    2274491

LLC Dense regions hint to LLC: 0

RAW hits: 160331
Loads Generated: 59115277
Loads sent to L1D: 58954943
Stores Generated: 10855289
Stores sent to L1D: 10855295
Major fault: 0 Minor fault: 10671
Allocated PAGES: 10671
Total Load insts: 73541604
Total Non-spec loads: 7746589
Percentage of speculative loads: 89.4664

LeapFrogging counter: 3893888
Commit hits: 30725232 miss: 21134709
Commit hit %: 59.2466 miss %: 40.7534
Commits not translated: 0
Loads retired: 618310
Stores retired: 10855295
Cache fills: 618310
L1D response latency: 225.326 cycles
Load retirement latency: 724.28 cycles
OOO test counter: 0
Discarded buffer inserts: 30725232 hits: 19701 hit %: 0.0641199
Filter prediction accuracy: -nan

stream: 
stream:times selected: 8239148
stream:pref_filled: 3460890
stream:pref_useful: 2886626
stream:pref_late: 3776
stream:misses: 28737
stream:misses_by_poll: 0

CS: 
CS:times selected: 7617638
CS:pref_filled: 265939
CS:pref_useful: 212273
CS:pref_late: 81
CS:misses: 547709
CS:misses_by_poll: 7475

CPLX: 
CPLX:times selected: 621310
CPLX:pref_filled: 107268
CPLX:pref_useful: 81238
CPLX:pref_late: 83
CPLX:misses: 83955
CPLX:misses_by_poll: 3765

NL_L1: 
NL:times selected: 901
NL:pref_filled: 408
NL:pref_useful: 32
NL:pref_late: 0
NL:misses: 692
NL:misses_by_poll: 28

total selections: 16478997
total_filled: 2892306
total_useful: 2344250
total_late: 4071
total_polluted: 11268
total_misses_after_warmup: 622329
conflicts: 45890
Degree Incremented Times: 469131
Degree Decremented Times: 117

L1 IP Table Write Accesses: 37437599
L1 IP Table Read Accesses: 37391709
L1 RST Write Accesses: 6184867
L1 RST Read Accesses: 12369734
L1 CSPT Write Accesses: 6184867
L1 CSPT Read Accesses: 7549958
L1 RR Filter Tag Write Accesses: 17010686
L1 RR Filter Tag Read Accesses: 1296283449
L1 IP Table Tag Write Accesses: 37505426
L1 IP Table Tag Read Accesses: 37505426
L1 RST Tag Write Accesses: 0
L1 RST Tag Read Accesses: 57280968
L1 RR Filter Write Accesses: 0
L1 RR Filter Read Accesses: 52446583
test: 381002

DRAM Statistics
 CHANNEL 0
 RQ ROW_BUFFER_HIT:     408316  ROW_BUFFER_MISS:    1979672
 DBUS_CONGESTED:        539
 WQ ROW_BUFFER_HIT:     475584  ROW_BUFFER_MISS:    1602129  FULL:      15005

 AVG_CONGESTED_CYCLE: 5
 All warmup complete: 2
Channel 0 Bank busy for read cycles: 0
Channel 0 Bank busy for write cycles: 0
Channel 0
Rank 0
0banks busy for read cycles: 91006225
0banks busy for write cycles: 123350
1banks busy for read cycles: 32762423
1banks busy for write cycles: 16906802
2banks busy for read cycles: 17720679
2banks busy for write cycles: 5321796
3banks busy for read cycles: 8833389
3banks busy for write cycles: 2125962
4banks busy for read cycles: 7120508
4banks busy for write cycles: 1684130
5banks busy for read cycles: 7118049
5banks busy for write cycles: 1415069
6banks busy for read cycles: 7649758
6banks busy for write cycles: 1723331
7banks busy for read cycles: 9074441
7banks busy for write cycles: 4125013
8banks busy for read cycles: 8968522
8banks busy for write cycles: 34164536

CPU 0 Branch Prediction Accuracy: 99.8685% MPKI: 0.079065 Average ROB Occupancy at Mispredict: 121.051
Branch types
NOT_BRANCH: 187976341 93.9882%
BRANCH_DIRECT_JUMP: 290387 0.145193%
BRANCH_INDIRECT: 12 6e-06%
BRANCH_CONDITIONAL: 11132877 5.56644%
BRANCH_DIRECT_CALL: 300051 0.150025%
BRANCH_INDIRECT_CALL: 0 0%
BRANCH_RETURN: 300050 0.150025%
BRANCH_OTHER: 0 0%

DRAM PAGES: 1048576
Allocated PAGES: 10671
