
*** ChampSim Multicore Out-of-Order Simulator ***

Warmup Instructions: 50000000
Simulation Instructions: 200000000
Number of CPUs: 1
LLC sets: 2048
LLC ways: 16
L0D sets: 16
L0D ways: 2
ROB size: 352
LQ size: 128
SQ size: 72
Secure Berti: OFF
Berti: OFF
Berti Fill: OFF
On commit prefetching: OFF
Hit-based filter: OFF
Time-guarding: ON
Free-slotting: ON
Leap-frogging: ON
Train prefetcher on L0D bypass: OFF
No translation penalty for prefetchers: OFF
Prefetch to L0D only: OFF
Prefetch to L1D only: OFF
Clean evictions: ON
Commit loads: ON
Commit write: ON
Fill commit loads to L2C, LLC: ON
DRAM IO FREQUENCY: 6400
ROB SIZE: 352
Off-chip DRAM Size: 4096 MB Channels: 1 Width: 64-bit Data Rate: 6400 MT/s
CPU 0 runs /home/sumon/secure_berti/GhostMinion/../../traces/spec/623.xalancbmk_s-10B.champsimtrace.xz
.xz
BTB has LRU replacement policy
ITLB has LRU replacement policy
DTLB has LRU replacement policy
STLB has LRU replacement policy
L1I has LRU replacement policy
L0D has LRU replacement policy
IP Table Entries: 1024
CSPT Entries: 128
RR_ENTRIES: 32
RST_ENTRIES: 8
L1D has LRU replacement policy
L2C has LRU replacement policy
LLC has LRU replacement policy
Heartbeat CPU 0 instructions: 10000003 cycles: 4967942 heartbeat IPC: 2.01291 cumulative IPC: 2.01291 (Simulation time: 0 hr 0 min 41 sec) 
Heartbeat CPU 0 instructions: 20000000 cycles: 10012287 heartbeat IPC: 1.98242 cumulative IPC: 1.99755 (Simulation time: 0 hr 1 min 23 sec) 
Heartbeat CPU 0 instructions: 30000001 cycles: 15129065 heartbeat IPC: 1.95436 cumulative IPC: 1.98294 (Simulation time: 0 hr 2 min 6 sec) 
Heartbeat CPU 0 instructions: 40000000 cycles: 20198814 heartbeat IPC: 1.97248 cumulative IPC: 1.98031 (Simulation time: 0 hr 2 min 48 sec) 
Heartbeat CPU 0 instructions: 50000000 cycles: 25537073 heartbeat IPC: 1.87327 cumulative IPC: 1.95794 (Simulation time: 0 hr 3 min 34 sec) 

Warmup complete CPU 0 instructions: 50000002 cycles: 25537078 (Simulation time: 0 hr 3 min 34 sec) 

Heartbeat CPU 0 instructions: 60000001 cycles: 62224947 heartbeat IPC: 0.27257 cumulative IPC: 0.27257 (Simulation time: 0 hr 4 min 36 sec) 
Heartbeat CPU 0 instructions: 70000000 cycles: 99054552 heartbeat IPC: 0.271521 cumulative IPC: 0.272044 (Simulation time: 0 hr 5 min 37 sec) 
Heartbeat CPU 0 instructions: 80000003 cycles: 136285249 heartbeat IPC: 0.268596 cumulative IPC: 0.270885 (Simulation time: 0 hr 6 min 38 sec) 
Heartbeat CPU 0 instructions: 90000002 cycles: 170244321 heartbeat IPC: 0.294472 cumulative IPC: 0.27642 (Simulation time: 0 hr 7 min 36 sec) 
Heartbeat CPU 0 instructions: 100000003 cycles: 207300480 heartbeat IPC: 0.269861 cumulative IPC: 0.275083 (Simulation time: 0 hr 8 min 36 sec) 
Heartbeat CPU 0 instructions: 110000000 cycles: 238623115 heartbeat IPC: 0.319258 cumulative IPC: 0.281576 (Simulation time: 0 hr 9 min 30 sec) 
Heartbeat CPU 0 instructions: 120000001 cycles: 271018798 heartbeat IPC: 0.308683 cumulative IPC: 0.285154 (Simulation time: 0 hr 10 min 25 sec) 
Heartbeat CPU 0 instructions: 130000000 cycles: 311104839 heartbeat IPC: 0.249463 cumulative IPC: 0.280144 (Simulation time: 0 hr 11 min 59 sec) 
Heartbeat CPU 0 instructions: 140000003 cycles: 348978451 heartbeat IPC: 0.264036 cumulative IPC: 0.278258 (Simulation time: 0 hr 13 min 53 sec) 
Heartbeat CPU 0 instructions: 150000003 cycles: 379130610 heartbeat IPC: 0.331651 cumulative IPC: 0.282811 (Simulation time: 0 hr 15 min 32 sec) 
Heartbeat CPU 0 instructions: 160000001 cycles: 417742837 heartbeat IPC: 0.258985 cumulative IPC: 0.280465 (Simulation time: 0 hr 17 min 1 sec) 
Heartbeat CPU 0 instructions: 170000001 cycles: 452578409 heartbeat IPC: 0.287063 cumulative IPC: 0.281003 (Simulation time: 0 hr 18 min 4 sec) 
Heartbeat CPU 0 instructions: 180000000 cycles: 485640567 heartbeat IPC: 0.302461 cumulative IPC: 0.282545 (Simulation time: 0 hr 19 min 4 sec) 
Heartbeat CPU 0 instructions: 190000001 cycles: 518376826 heartbeat IPC: 0.305472 cumulative IPC: 0.284068 (Simulation time: 0 hr 20 min 4 sec) 
Heartbeat CPU 0 instructions: 200000000 cycles: 552797525 heartbeat IPC: 0.290523 cumulative IPC: 0.284489 (Simulation time: 0 hr 21 min 4 sec) 
Heartbeat CPU 0 instructions: 210000001 cycles: 589404732 heartbeat IPC: 0.27317 cumulative IPC: 0.283755 (Simulation time: 0 hr 22 min 7 sec) 
Heartbeat CPU 0 instructions: 220000000 cycles: 625687097 heartbeat IPC: 0.275616 cumulative IPC: 0.283262 (Simulation time: 0 hr 23 min 8 sec) 
Heartbeat CPU 0 instructions: 230000002 cycles: 658507013 heartbeat IPC: 0.304693 cumulative IPC: 0.284374 (Simulation time: 0 hr 24 min 3 sec) 
Heartbeat CPU 0 instructions: 240000002 cycles: 696429331 heartbeat IPC: 0.263697 cumulative IPC: 0.283205 (Simulation time: 0 hr 25 min 1 sec) 
Heartbeat CPU 0 instructions: 250000003 cycles: 733107236 heartbeat IPC: 0.272644 cumulative IPC: 0.282657 (Simulation time: 0 hr 25 min 58 sec) 
Finished CPU 0 instructions: 200000001 cycles: 707570158 cumulative IPC: 0.282657 (Simulation time: 0 hr 25 min 58 sec) 
 Instruction ID: 250000349

ChampSim completed all CPUs

Region of Interest Statistics

CPU 0 cumulative IPC: 0.282657 instructions: 200000001 cycles: 707570158
ITLB SPEC fills:          0  NON-SPEC fills:          0
ITLB Test counter :          0
ITLB Leapfrog:          0
ITLB MSHR merge:          0
ITLB TOTAL     ACCESS:   32674184  HIT:   32542587  MISS:     131597  HIT %:    99.5972  MISS %:   0.402755   MPKI: 0.657985
ITLB LOAD TRANSLATION NON_SPEC    ACCESS:   32674184  HIT:   32542587  MISS:     131597  HIT %:    99.5972  MISS %:   0.402755   MPKI: 0.657985
ITLB PREFETCH  REQUESTED:          0  ISSUED:          0  USEFUL:          0  USELESS:          0
ITLB USEFUL LOAD PREFETCHES:          0 PREFETCH ISSUED TO LOWER LEVEL:          0  ACCURACY: -nan
ITLB TIMELY PREFETCHES:          0 LATE PREFETCHES: 0 DROPPED PREFETCHES: 0
ITLB COMMIT LATE PREFETCHES: 0 NORMAL LATE: 0 MISSED OPPORTUNITY: 0 UNCOVERED: 0
ITLB PREFETCHES SAME FILL-ORIGIN LEVEL: 0 DIFFERENT FILL-ORIGIN LEVEL: 0
ITLB AVERAGE MISS LATENCY: 22.4352 cycles
ITLB AVERAGE MISS LATENCY LOAD: -nan cycles
ITLB AVERAGE MISS LATENCY PREFETCH: -nan cycles
ITLB AVERAGE MSHR OCCUPANCY: 0.00213627
ITLB MSHR FULL: 0
ITLB RQ	ACCESS:   38481267	FORWARD:          0	MERGED:    5773734	TO_CACHE:   32707533

DTLB SPEC fills:          0  NON-SPEC fills:          0
DTLB Test counter :          0
DTLB Leapfrog:          0
DTLB MSHR merge:          0
DTLB TOTAL     ACCESS:   44016767  HIT:   42698074  MISS:    1318693  HIT %:    97.0041  MISS %:    2.99589   MPKI: 6.59346
DTLB LOAD TRANSLATION NON_SPEC    ACCESS:   44016767  HIT:   42698074  MISS:    1318693  HIT %:    97.0041  MISS %:    2.99589   MPKI: 6.59346
DTLB PREFETCH  REQUESTED:          0  ISSUED:          0  USEFUL:          0  USELESS:          0
DTLB USEFUL LOAD PREFETCHES:          0 PREFETCH ISSUED TO LOWER LEVEL:          0  ACCURACY: -nan
DTLB TIMELY PREFETCHES:          0 LATE PREFETCHES: 0 DROPPED PREFETCHES: 0
DTLB COMMIT LATE PREFETCHES: 0 NORMAL LATE: 0 MISSED OPPORTUNITY: 0 UNCOVERED: 0
DTLB PREFETCHES SAME FILL-ORIGIN LEVEL: 0 DIFFERENT FILL-ORIGIN LEVEL: 0
DTLB AVERAGE MISS LATENCY: 107.792 cycles
DTLB AVERAGE MISS LATENCY LOAD: -nan cycles
DTLB AVERAGE MISS LATENCY PREFETCH: -nan cycles
DTLB AVERAGE MSHR OCCUPANCY: 0.0522856
DTLB MSHR FULL: 0
DTLB RQ	ACCESS:   49151150	FORWARD:          0	MERGED:    4886699	TO_CACHE:   44264451

STLB SPEC fills:          0  NON-SPEC fills:          0
STLB Test counter :          0
STLB Leapfrog:          0
STLB MSHR merge:          0
STLB TOTAL     ACCESS:    6103490  HIT:    5139567  MISS:     963923  HIT %:     84.207  MISS %:     15.793   MPKI: 4.81961
STLB LOAD TRANSLATION NON_SPEC    ACCESS:    1450290  HIT:     486730  MISS:     963560  HIT %:    33.5609  MISS %:    66.4391   MPKI: 4.8178
STLB TRANSLATION FROM L1D PREFETCHER NON_SPEC    ACCESS:    4653200  HIT:    4652837  MISS:        363  HIT %:    99.9922  MISS %: 0.00780108   MPKI: 0.001815
STLB PREFETCH  REQUESTED:          0  ISSUED:          0  USEFUL:        363  USELESS:          0
STLB USEFUL LOAD PREFETCHES:        363 PREFETCH ISSUED TO LOWER LEVEL:          0  ACCURACY: inf
STLB TIMELY PREFETCHES:        363 LATE PREFETCHES: 0 DROPPED PREFETCHES: 0
STLB COMMIT LATE PREFETCHES: 0 NORMAL LATE: 0 MISSED OPPORTUNITY: 0 UNCOVERED: 0
STLB PREFETCHES SAME FILL-ORIGIN LEVEL: 0 DIFFERENT FILL-ORIGIN LEVEL: 0
STLB AVERAGE MISS LATENCY: 137.12 cycles
STLB AVERAGE MISS LATENCY LOAD: -nan cycles
STLB AVERAGE MISS LATENCY PREFETCH: -nan cycles
STLB AVERAGE MSHR OCCUPANCY: 0.131763
STLB MSHR FULL: 0
STLB RQ	ACCESS:    8034484	FORWARD:          0	MERGED:    1930781	TO_CACHE:    6103703

STLB Hit, L1D data hit: 0
STLB Hit, L2C data hit: 0
STLB Hit, LLC data hit: 0
STLB Hit, LLC data miss: 0
STLB STLB hints to L2: 0
L0D SPEC fills:   18592343  NON-SPEC fills:          0
L0D TimeGuard Request with older TS:     139805 Restricted eviction:      47174 read:      60799
L0D Test counter :          0
L0D Leapfrog:          0
L0D MSHR merge:    2769782
L0D TOTAL     ACCESS:   36474943  HIT:    7163610  MISS:   29311333  HIT %:    19.6398  MISS %:    80.3602   MPKI: 146.557
L0D LOAD      TOTAL       ACCESS:   36474943  HIT:    7163610  MISS:   29311333  HIT %:    19.6398  MISS %:    80.3602   MPKI: 146.557
L0D LOAD      NON_SPEC    ACCESS:   10719880  HIT:      48051  MISS:   10671829  HIT %:   0.448242  MISS %:    99.5518   MPKI: 53.3591
L0D LOAD      SPEC        ACCESS:   25755063  HIT:    7115559  MISS:   18639504  HIT %:    27.6278  MISS %:    72.3722   MPKI: 93.1975
L0D PREFETCH  REQUESTED:          0  ISSUED:          0  USEFUL:          0  USELESS:          0
L0D USEFUL LOAD PREFETCHES:          0 PREFETCH ISSUED TO LOWER LEVEL:          0  ACCURACY: -nan
L0D TIMELY PREFETCHES:          0 LATE PREFETCHES: 0 DROPPED PREFETCHES: 0
L0D COMMIT LATE PREFETCHES: 0 NORMAL LATE: 0 MISSED OPPORTUNITY: 0 UNCOVERED: 29311333
L0D PREFETCHES SAME FILL-ORIGIN LEVEL: 0 DIFFERENT FILL-ORIGIN LEVEL: 0
L0D AVERAGE MISS LATENCY: 28.7871 cycles
L0D AVERAGE MISS LATENCY LOAD: 28.7871 cycles
L0D AVERAGE MISS LATENCY PREFETCH: -nan cycles
L0D AVERAGE MSHR OCCUPANCY: 0.717766
L0D MSHR FULL: 0.00231497
L0D RQ	ACCESS:   58701020	FORWARD:          0	MERGED:   19456294	TO_CACHE:   39244726
L0D WQ	ACCESS:    9906424	FORWARD:          0	MERGED:          0	TO_CACHE:    9906424

L1D SPEC fills:          0  NON-SPEC fills:    1565915
L1D Test counter :          0
L1D Leapfrog:          0
L1D MSHR merge:     328920
L1D TOTAL     ACCESS:   76691699  HIT:   65284607  MISS:   11407092  HIT %:     85.126  MISS %:     14.874   MPKI: 57.0355
L1D LOAD      TOTAL       ACCESS:   29307148  HIT:   24611404  MISS:    4695744  HIT %:    83.9775  MISS %:    16.0225   MPKI: 23.4787
L1D LOAD      NON_SPEC    ACCESS:   10669349  HIT:    9103434  MISS:    1565915  HIT %:    85.3232  MISS %:    14.6768   MPKI: 7.82957
L1D LOAD      SPEC        ACCESS:   18637799  HIT:   15507970  MISS:    3129829  HIT %:    83.2071  MISS %:    16.7929   MPKI: 15.6491
L1D RFO       NON_SPEC    ACCESS:    9278599  HIT:    9195360  MISS:      83239  HIT %:    99.1029  MISS %:   0.897107   MPKI: 0.416195
L1D PREFETCH  NON_SPEC    ACCESS:    5287302  HIT:    1698247  MISS:    3589055  HIT %:    32.1193  MISS %:    67.8807   MPKI: 17.9453
L1D COMMIT LOAD NON_SPEC    ACCESS:   14319636  HIT:   14308763  MISS:      10873  HIT %:    99.9241  MISS %:  0.0759307   MPKI: 0.054365
L1D COMMIT WRITE NON_SPEC    ACCESS:   18499014  HIT:   15470833  MISS:    3028181  HIT %:    83.6306  MISS %:    16.3694   MPKI: 15.1409
L1D PREFETCH  REQUESTED:    6584206  ISSUED:    6584194  USEFUL:     726394  USELESS:    2862621
L1D USEFUL LOAD PREFETCHES:     726394 PREFETCH ISSUED TO LOWER LEVEL:    3915414  ACCURACY: 18.5522
L1D TIMELY PREFETCHES:     726394 LATE PREFETCHES: 324847 DROPPED PREFETCHES: 0
L1D COMMIT LATE PREFETCHES: 0 NORMAL LATE: 324847 MISSED OPPORTUNITY: 0 UNCOVERED: 4370897
L1D PREFETCHES SAME FILL-ORIGIN LEVEL: 3915414 DIFFERENT FILL-ORIGIN LEVEL: 0
L1D AVERAGE MISS LATENCY: 114.921 cycles
L1D AVERAGE MISS LATENCY LOAD: 148.245 cycles
L1D AVERAGE MISS LATENCY PREFETCH: 168.734 cycles
L1D AVERAGE MSHR OCCUPANCY: 0.745275
L1D MSHR FULL: 0.000163205
L1D RQ	ACCESS:   58773613	FORWARD:          0	MERGED:   15023969	TO_CACHE:   43633938
L1D WQ	ACCESS:   28400679	FORWARD:     115706	MERGED:     403558	TO_CACHE:   27997121
L1D PQ	ACCESS:    6584194	FORWARD:          0	MERGED:          0	TO_CACHE:    6584194

L1D UNIQUE REGIONS ACCESSED: 0
L1D REGIONS CONFLICTS: 0
L1D Cross Page Prefetch Requests: 0
L1D Same Page Prefetch Requests: 8221994
L1D ROI Sum of L1D PQ occupancy: 86913550
L1D PREFETCHES PUSHED FROM L2C: 0
L1I SPEC fills:          0  NON-SPEC fills:          0
L1I Test counter :          0
L1I Leapfrog:          0
L1I MSHR merge:     222854
L1I TOTAL     ACCESS:   38258411  HIT:   37544759  MISS:     713652  HIT %:    98.1347  MISS %:    1.86535   MPKI: 3.56826
L1I LOAD      TOTAL       ACCESS:   38258411  HIT:   37544759  MISS:     713652  HIT %:    98.1347  MISS %:    1.86535   MPKI: 3.56826
L1I LOAD      NON_SPEC    ACCESS:   38258411  HIT:   37544759  MISS:     713652  HIT %:    98.1347  MISS %:    1.86535   MPKI: 3.56826
L1I PREFETCH  REQUESTED:          0  ISSUED:          0  USEFUL:          0  USELESS:          0
L1I USEFUL LOAD PREFETCHES:          0 PREFETCH ISSUED TO LOWER LEVEL:          0  ACCURACY: -nan
L1I TIMELY PREFETCHES:          0 LATE PREFETCHES: 0 DROPPED PREFETCHES: 0
L1I COMMIT LATE PREFETCHES: 0 NORMAL LATE: 0 MISSED OPPORTUNITY: 0 UNCOVERED: 713652
L1I PREFETCHES SAME FILL-ORIGIN LEVEL: 0 DIFFERENT FILL-ORIGIN LEVEL: 0
L1I AVERAGE MISS LATENCY: 42.2572 cycles
L1I AVERAGE MISS LATENCY LOAD: 42.2572 cycles
L1I AVERAGE MISS LATENCY PREFETCH: -nan cycles
L1I AVERAGE MSHR OCCUPANCY: 0.0271755
L1I MSHR FULL: 0
L1I RQ	ACCESS:   66037972	FORWARD:          0	MERGED:   27556705	TO_CACHE:   38481267

BTB SPEC fills:          0  NON-SPEC fills:          0
BTB Test counter :          0
BTB Leapfrog:          0
BTB MSHR merge:          0
BTB TOTAL     ACCESS:   33166950  HIT:   32847070  MISS:     319880  HIT %:    99.0355  MISS %:   0.964454   MPKI: 1.5994
BTB BRANCH_DIRECT_JUMP	ACCESS:     525801  HIT:     523851  MISS:       1950
BTB BRANCH_INDIRECT	ACCESS:      94835  HIT:      37758  MISS:      57077
BTB BRANCH_CONDITIONAL	ACCESS:   27817696  HIT:   27808163  MISS:       9533
BTB BRANCH_DIRECT_CALL	ACCESS:    1305271  HIT:    1301665  MISS:       3606
BTB BRANCH_INDIRECT_CALL	ACCESS:    1059041  HIT:    1046752  MISS:      12289
BTB BRANCH_RETURN	ACCESS:    2364306  HIT:    2128881  MISS:     235425
BTB BRANCH_OTHER ACCESS:          0  HIT:          0  MISS:          0

L2C SPEC fills:          0  NON-SPEC fills:    1351115
L2C Test counter :          0
L2C Leapfrog:          0
L2C MSHR merge:          0
L2C TOTAL     ACCESS:   17859187  HIT:    7584467  MISS:   10274720  HIT %:    42.4682  MISS %:    57.5318   MPKI: 51.3736
L2C LOAD      TOTAL       ACCESS:    5084496  HIT:    1008926  MISS:    4075570  HIT %:    19.8432  MISS %:    80.1568   MPKI: 20.3778
L2C LOAD      NON_SPEC    ACCESS:    2215200  HIT:     703437  MISS:    1511763  HIT %:     31.755  MISS %:     68.245   MPKI: 7.55881
L2C LOAD      SPEC        ACCESS:    2869296  HIT:     305489  MISS:    2563807  HIT %:    10.6468  MISS %:    89.3532   MPKI: 12.819
L2C RFO       NON_SPEC    ACCESS:      81653  HIT:      38186  MISS:      43467  HIT %:    46.7662  MISS %:    53.2338   MPKI: 0.217335
L2C PREFETCH  NON_SPEC    ACCESS:    3915401  HIT:     403611  MISS:    3511790  HIT %:    10.3083  MISS %:    89.6917   MPKI: 17.5589
L2C WRITEBACK NON_SPEC    ACCESS:     113402  HIT:     113154  MISS:        248  HIT %:    99.7813  MISS %:   0.218691   MPKI: 0.00124
L2C CLEAN_EVICTION NON_SPEC    ACCESS:    3834004  HIT:    1426021  MISS:    2407983  HIT %:     37.194  MISS %:     62.806   MPKI: 12.0399
L2C COMMIT LOAD NON_SPEC    ACCESS:      10616  HIT:       7979  MISS:       2637  HIT %:    75.1601  MISS %:    24.8399   MPKI: 0.013185
L2C LOAD TRANSLATION NON_SPEC    ACCESS:    4817800  HIT:    4585292  MISS:     232508  HIT %:     95.174  MISS %:    4.82602   MPKI: 1.16254
L2C TRANSLATION FROM L1D PREFETCHER NON_SPEC    ACCESS:       1815  HIT:       1298  MISS:        517  HIT %:    71.5152  MISS %:    28.4848   MPKI: 0.002585
L2C PREFETCH  REQUESTED:          0  ISSUED:          0  USEFUL:      44487  USELESS:    3467580
L2C USEFUL LOAD PREFETCHES:      44487 PREFETCH ISSUED TO LOWER LEVEL:    3511791  ACCURACY: 1.26679
L2C TIMELY PREFETCHES:      44487 LATE PREFETCHES: 0 DROPPED PREFETCHES: 0
L2C COMMIT LATE PREFETCHES: 0 NORMAL LATE: 0 MISSED OPPORTUNITY: 0 UNCOVERED: 4075570
L2C PREFETCHES SAME FILL-ORIGIN LEVEL: 0 DIFFERENT FILL-ORIGIN LEVEL: 0
L2C AVERAGE MISS LATENCY: 126.161 cycles
L2C AVERAGE MISS LATENCY LOAD: 155.545 cycles
L2C AVERAGE MISS LATENCY PREFETCH: 172.446 cycles
L2C AVERAGE MSHR OCCUPANCY: 1.4684
L2C MSHR FULL: 0
L2C RQ	ACCESS:    9996769	FORWARD:          0	MERGED:          0	TO_CACHE:    9996381
L2C WQ	ACCESS:    3947492	FORWARD:        397	MERGED:         85	TO_CACHE:    3947407
L2C PQ	ACCESS:    3915414	FORWARD:          0	MERGED:          0	TO_CACHE:    3915405

L2C Instructions Evicting Data 152972
L2C Translations Evicting Data 223313
L2C Data Evicting Data 4655557
L2C Instructions Evicting Instructions 4756
L2C Translations Evicting Instructions 2905
L2C Data Evicting Instructions 106338
L2C Instructions Evicting Translations 2920
L2C Translations Evicting Translations 6807
L2C Data Evicting Translations 147114
L2C Dense regions hint from L2: 0
PSCL5 SPEC fills:          0  NON-SPEC fills:          0
PSCL5 Test counter :          0
PSCL5 Leapfrog:          0
PSCL5 MSHR merge:          0
PSCL5 TOTAL     ACCESS:          0  HIT:          0  MISS:          0  HIT %:       -nan  MISS %:       -nan   MPKI: 0
PSCL5 PREFETCH  REQUESTED:          0  ISSUED:          0  USEFUL:          0  USELESS:          0
PSCL5 USEFUL LOAD PREFETCHES:          0 PREFETCH ISSUED TO LOWER LEVEL:          0  ACCURACY: -nan
PSCL5 TIMELY PREFETCHES:          0 LATE PREFETCHES: 0 DROPPED PREFETCHES: 0
PSCL5 COMMIT LATE PREFETCHES: 0 NORMAL LATE: 0 MISSED OPPORTUNITY: 0 UNCOVERED: 0
PSCL5 PREFETCHES SAME FILL-ORIGIN LEVEL: 0 DIFFERENT FILL-ORIGIN LEVEL: 0

PSCL4 SPEC fills:          0  NON-SPEC fills:          0
PSCL4 Test counter :          0
PSCL4 Leapfrog:          0
PSCL4 MSHR merge:          0
PSCL4 TOTAL     ACCESS:          0  HIT:          0  MISS:          0  HIT %:       -nan  MISS %:       -nan   MPKI: 0
PSCL4 PREFETCH  REQUESTED:          0  ISSUED:          0  USEFUL:          0  USELESS:          0
PSCL4 USEFUL LOAD PREFETCHES:          0 PREFETCH ISSUED TO LOWER LEVEL:          0  ACCURACY: -nan
PSCL4 TIMELY PREFETCHES:          0 LATE PREFETCHES: 0 DROPPED PREFETCHES: 0
PSCL4 COMMIT LATE PREFETCHES: 0 NORMAL LATE: 0 MISSED OPPORTUNITY: 0 UNCOVERED: 0
PSCL4 PREFETCHES SAME FILL-ORIGIN LEVEL: 0 DIFFERENT FILL-ORIGIN LEVEL: 0

PSCL3 SPEC fills:          0  NON-SPEC fills:          0
PSCL3 Test counter :          0
PSCL3 Leapfrog:          0
PSCL3 MSHR merge:          0
PSCL3 TOTAL     ACCESS:          0  HIT:          0  MISS:          0  HIT %:       -nan  MISS %:       -nan   MPKI: 0
PSCL3 PREFETCH  REQUESTED:          0  ISSUED:          0  USEFUL:          0  USELESS:          0
PSCL3 USEFUL LOAD PREFETCHES:          0 PREFETCH ISSUED TO LOWER LEVEL:          0  ACCURACY: -nan
PSCL3 TIMELY PREFETCHES:          0 LATE PREFETCHES: 0 DROPPED PREFETCHES: 0
PSCL3 COMMIT LATE PREFETCHES: 0 NORMAL LATE: 0 MISSED OPPORTUNITY: 0 UNCOVERED: 0
PSCL3 PREFETCHES SAME FILL-ORIGIN LEVEL: 0 DIFFERENT FILL-ORIGIN LEVEL: 0

PSCL2 SPEC fills:          0  NON-SPEC fills:          0
PSCL2 Test counter :          0
PSCL2 Leapfrog:          0
PSCL2 MSHR merge:          0
PSCL2 TOTAL     ACCESS:          0  HIT:          0  MISS:          0  HIT %:       -nan  MISS %:       -nan   MPKI: 0
PSCL2 PREFETCH  REQUESTED:          0  ISSUED:          0  USEFUL:          0  USELESS:          0
PSCL2 USEFUL LOAD PREFETCHES:          0 PREFETCH ISSUED TO LOWER LEVEL:          0  ACCURACY: -nan
PSCL2 TIMELY PREFETCHES:          0 LATE PREFETCHES: 0 DROPPED PREFETCHES: 0
PSCL2 COMMIT LATE PREFETCHES: 0 NORMAL LATE: 0 MISSED OPPORTUNITY: 0 UNCOVERED: 0
PSCL2 PREFETCHES SAME FILL-ORIGIN LEVEL: 0 DIFFERENT FILL-ORIGIN LEVEL: 0

LLC SPEC fills:          0  NON-SPEC fills:    1257001
LLC Test counter :          0
LLC Leapfrog:          0
LLC MSHR merge:          0
LLC TOTAL     ACCESS:   11339606  HIT:    1813968  MISS:    9525638  HIT %:    15.9967  MISS %:    84.0033   MPKI: 47.6282
LLC LOAD      TOTAL       ACCESS:    4075569  HIT:     322111  MISS:    3753458  HIT %:    7.90346  MISS %:    92.0965   MPKI: 18.7673
LLC LOAD      NON_SPEC    ACCESS:    1511763  HIT:     163734  MISS:    1348029  HIT %:    10.8307  MISS %:    89.1693   MPKI: 6.74014
LLC LOAD      SPEC        ACCESS:    2563806  HIT:     158377  MISS:    2405429  HIT %:    6.17742  MISS %:    93.8226   MPKI: 12.0271
LLC RFO       NON_SPEC    ACCESS:      43467  HIT:       6844  MISS:      36623  HIT %:    15.7453  MISS %:    84.2547   MPKI: 0.183115
LLC PREFETCH  NON_SPEC    ACCESS:    3511782  HIT:     257969  MISS:    3253813  HIT %:    7.34581  MISS %:    92.6542   MPKI: 16.2691
LLC WRITEBACK NON_SPEC    ACCESS:      61031  HIT:      60923  MISS:        108  HIT %:     99.823  MISS %:   0.176959   MPKI: 0.00054
LLC CLEAN_EVICTION NON_SPEC    ACCESS:    3412095  HIT:    1155369  MISS:    2256726  HIT %:     33.861  MISS %:     66.139   MPKI: 11.2836
LLC COMMIT LOAD NON_SPEC    ACCESS:       2637  HIT:       1262  MISS:       1375  HIT %:    47.8574  MISS %:    52.1426   MPKI: 0.006875
LLC LOAD TRANSLATION NON_SPEC    ACCESS:     232508  HIT:       9485  MISS:     223023  HIT %:    4.07943  MISS %:    95.9206   MPKI: 1.11511
LLC TRANSLATION FROM L1D PREFETCHER NON_SPEC    ACCESS:        517  HIT:          5  MISS:        512  HIT %:   0.967118  MISS %:    99.0329   MPKI: 0.00256
LLC PREFETCH  REQUESTED:          0  ISSUED:          0  USEFUL:      37857  USELESS:    3216092
LLC USEFUL LOAD PREFETCHES:      37857 PREFETCH ISSUED TO LOWER LEVEL:    3253813  ACCURACY: 1.16347
LLC TIMELY PREFETCHES:      37857 LATE PREFETCHES: 0 DROPPED PREFETCHES: 0
LLC COMMIT LATE PREFETCHES: 0 NORMAL LATE: 0 MISSED OPPORTUNITY: 0 UNCOVERED: 3753458
LLC PREFETCHES SAME FILL-ORIGIN LEVEL: 0 DIFFERENT FILL-ORIGIN LEVEL: 0
LLC AVERAGE MISS LATENCY: 113.728 cycles
LLC AVERAGE MISS LATENCY LOAD: 142.465 cycles
LLC AVERAGE MISS LATENCY PREFETCH: 153.736 cycles
LLC AVERAGE MSHR OCCUPANCY: 1.29996
LLC MSHR FULL: 0
LLC RQ	ACCESS:    4354700	FORWARD:          0	MERGED:          0	TO_CACHE:    4354699
LLC WQ	ACCESS:    3473126	FORWARD:          9	MERGED:          0	TO_CACHE:    3473126
LLC PQ	ACCESS:    3511791	FORWARD:          0	MERGED:          0	TO_CACHE:    3511783

LLC Dense regions hint to LLC: 0

RAW hits: 288047
Loads Generated: 58989067
Loads sent to L1D: 58701020
Stores Generated: 9906424
Stores sent to L1D: 9906424
Major fault: 0 Minor fault: 11434
Allocated PAGES: 11434
Total Load insts: 73344738
Total Non-spec loads: 11725979
Percentage of speculative loads: 84.0125

LeapFrogging counter: 5507
Commit hits: 18499471 miss: 29462280
Commit hit %: 38.5713 miss %: 61.4287
Commits not translated: 0
Loads retired: 4695744
Stores retired: 9906424
Cache fills: 4695744
L1D response latency: 148.245 cycles
Load retirement latency: 254.273 cycles
OOO test counter: 0
Discarded buffer inserts: 18499471 hits: 23615 hit %: 0.127652
Filter prediction accuracy: -nan

stream: 
stream:times selected: 10363893
stream:pref_filled: 3891585
stream:pref_useful: 741189
stream:pref_late: 60102
stream:misses: 1444274
stream:misses_by_poll: 0

CS: 
CS:times selected: 361435
CS:pref_filled: 295619
CS:pref_useful: 192518
CS:pref_late: 485
CS:misses: 46454
CS:misses_by_poll: 12842

CPLX: 
CPLX:times selected: 9918150
CPLX:pref_filled: 355333
CPLX:pref_useful: 48791
CPLX:pref_late: 718
CPLX:misses: 4038616
CPLX:misses_by_poll: 23277

NL_L1: 
NL:times selected: 113318
NL:pref_filled: 38698
NL:pref_useful: 8047
NL:pref_late: 1713
NL:misses: 56297
NL:misses_by_poll: 2577

total selections: 20756796
total_filled: 3589055
total_useful: 726394
total_late: 64933
total_polluted: 38696
total_misses_after_warmup: 4699930
conflicts: 980270
Degree Incremented Times: 1668
Degree Decremented Times: 414363

L1 IP Table Write Accesses: 27481369
L1 IP Table Read Accesses: 26501099
L1 RST Write Accesses: 8358724
L1 RST Read Accesses: 16717448
L1 CSPT Write Accesses: 8358724
L1 CSPT Read Accesses: 16353103
L1 RR Filter Tag Write Accesses: 6584206
L1 RR Filter Tag Read Accesses: 293553854
L1 IP Table Tag Write Accesses: 29311334
L1 IP Table Tag Read Accesses: 29311334
L1 RST Tag Write Accesses: 0
L1 RST Tag Read Accesses: 79305742
L1 RR Filter Write Accesses: 0
L1 RR Filter Read Accesses: 9957189
test: 6173559

DRAM Statistics
 CHANNEL 0
 RQ ROW_BUFFER_HIT:    1805548  ROW_BUFFER_MISS:    5463255
 DBUS_CONGESTED:      13504
 WQ ROW_BUFFER_HIT:     872533  ROW_BUFFER_MISS:    2349427  FULL:          0

 AVG_CONGESTED_CYCLE: 3
 All warmup complete: 2
Channel 0 Bank busy for read cycles: 0
Channel 0 Bank busy for write cycles: 0
Channel 0
Rank 0
0banks busy for read cycles: 117541556
0banks busy for write cycles: 112116
1banks busy for read cycles: 140902698
1banks busy for write cycles: 18592618
2banks busy for read cycles: 120220600
2banks busy for write cycles: 13496816
3banks busy for read cycles: 63144907
3banks busy for write cycles: 17753534
4banks busy for read cycles: 38832221
4banks busy for write cycles: 25240119
5banks busy for read cycles: 26084129
5banks busy for write cycles: 32828706
6banks busy for read cycles: 6981091
6banks busy for write cycles: 36305052
7banks busy for read cycles: 1212368
7banks busy for write cycles: 31206213
8banks busy for read cycles: 378022
8banks busy for write cycles: 16737393

CPU 0 Branch Prediction Accuracy: 99.7326% MPKI: 0.69165 Average ROB Occupancy at Mispredict: 105.324
Branch types
NOT_BRANCH: 148259739 74.1299%
BRANCH_DIRECT_JUMP: 525801 0.2629%
BRANCH_INDIRECT: 94835 0.0474175%
BRANCH_CONDITIONAL: 46390973 23.1955%
BRANCH_DIRECT_CALL: 1305271 0.652635%
BRANCH_INDIRECT_CALL: 1059041 0.52952%
BRANCH_RETURN: 2364306 1.18215%
BRANCH_OTHER: 0 0%

DRAM PAGES: 1048576
Allocated PAGES: 11434
