
*** ChampSim Multicore Out-of-Order Simulator ***

Warmup Instructions: 50000000
Simulation Instructions: 200000000
Number of CPUs: 1
LLC sets: 2048
LLC ways: 16
L0D sets: 16
L0D ways: 2
ROB size: 352
LQ size: 128
SQ size: 72
Secure Berti: OFF
Berti: OFF
Berti Fill: OFF
On commit prefetching: OFF
Hit-based filter: OFF
Time-guarding: ON
Free-slotting: ON
Leap-frogging: ON
Train prefetcher on L0D bypass: OFF
No translation penalty for prefetchers: OFF
Prefetch to L0D only: OFF
Prefetch to L1D only: OFF
Clean evictions: ON
Commit loads: ON
Commit write: ON
Fill commit loads to L2C, LLC: ON
DRAM IO FREQUENCY: 6400
ROB SIZE: 352
Off-chip DRAM Size: 4096 MB Channels: 1 Width: 64-bit Data Rate: 6400 MT/s
CPU 0 runs /home/sumon/secure_berti/GhostMinion/../../traces/spec/623.xalancbmk_s-165B.champsimtrace.xz
.xz
BTB has LRU replacement policy
ITLB has LRU replacement policy
DTLB has LRU replacement policy
STLB has LRU replacement policy
L1I has LRU replacement policy
L0D has LRU replacement policy
IP Table Entries: 1024
CSPT Entries: 128
RR_ENTRIES: 32
RST_ENTRIES: 8
L1D has LRU replacement policy
L2C has LRU replacement policy
LLC has LRU replacement policy
Heartbeat CPU 0 instructions: 10000000 cycles: 3420485 heartbeat IPC: 2.92356 cumulative IPC: 2.92356 (Simulation time: 0 hr 0 min 34 sec) 
Heartbeat CPU 0 instructions: 20000001 cycles: 6848894 heartbeat IPC: 2.91681 cumulative IPC: 2.92018 (Simulation time: 0 hr 1 min 9 sec) 
Heartbeat CPU 0 instructions: 30000000 cycles: 10251750 heartbeat IPC: 2.93871 cumulative IPC: 2.92633 (Simulation time: 0 hr 1 min 43 sec) 
Heartbeat CPU 0 instructions: 40000003 cycles: 13669973 heartbeat IPC: 2.9255 cumulative IPC: 2.92612 (Simulation time: 0 hr 2 min 18 sec) 
Heartbeat CPU 0 instructions: 50000001 cycles: 17106507 heartbeat IPC: 2.90991 cumulative IPC: 2.92286 (Simulation time: 0 hr 2 min 53 sec) 

Warmup complete CPU 0 instructions: 50000001 cycles: 17106507 (Simulation time: 0 hr 2 min 53 sec) 

Heartbeat CPU 0 instructions: 60000003 cycles: 28589653 heartbeat IPC: 0.870842 cumulative IPC: 0.870842 (Simulation time: 0 hr 3 min 35 sec) 
Heartbeat CPU 0 instructions: 70000001 cycles: 40071340 heartbeat IPC: 0.870952 cumulative IPC: 0.870897 (Simulation time: 0 hr 4 min 19 sec) 
Heartbeat CPU 0 instructions: 80000001 cycles: 51536231 heartbeat IPC: 0.872228 cumulative IPC: 0.87134 (Simulation time: 0 hr 5 min 4 sec) 
Heartbeat CPU 0 instructions: 90000002 cycles: 63016761 heartbeat IPC: 0.87104 cumulative IPC: 0.871265 (Simulation time: 0 hr 5 min 50 sec) 
Heartbeat CPU 0 instructions: 100000001 cycles: 74496882 heartbeat IPC: 0.871071 cumulative IPC: 0.871226 (Simulation time: 0 hr 6 min 36 sec) 
Heartbeat CPU 0 instructions: 110000000 cycles: 85983456 heartbeat IPC: 0.870582 cumulative IPC: 0.871119 (Simulation time: 0 hr 7 min 23 sec) 
Heartbeat CPU 0 instructions: 120000000 cycles: 97456814 heartbeat IPC: 0.871584 cumulative IPC: 0.871185 (Simulation time: 0 hr 8 min 9 sec) 
Heartbeat CPU 0 instructions: 130000002 cycles: 108929126 heartbeat IPC: 0.871664 cumulative IPC: 0.871245 (Simulation time: 0 hr 8 min 55 sec) 
Heartbeat CPU 0 instructions: 140000002 cycles: 120406485 heartbeat IPC: 0.871281 cumulative IPC: 0.871249 (Simulation time: 0 hr 9 min 40 sec) 
Heartbeat CPU 0 instructions: 150000002 cycles: 131886883 heartbeat IPC: 0.87105 cumulative IPC: 0.871229 (Simulation time: 0 hr 10 min 26 sec) 
Heartbeat CPU 0 instructions: 160000000 cycles: 143365031 heartbeat IPC: 0.871221 cumulative IPC: 0.871228 (Simulation time: 0 hr 11 min 28 sec) 
Heartbeat CPU 0 instructions: 170000002 cycles: 154836055 heartbeat IPC: 0.871762 cumulative IPC: 0.871273 (Simulation time: 0 hr 12 min 51 sec) 
Heartbeat CPU 0 instructions: 180000002 cycles: 166320383 heartbeat IPC: 0.870752 cumulative IPC: 0.871233 (Simulation time: 0 hr 14 min 20 sec) 
Heartbeat CPU 0 instructions: 190000002 cycles: 177815814 heartbeat IPC: 0.869911 cumulative IPC: 0.871138 (Simulation time: 0 hr 15 min 52 sec) 
Heartbeat CPU 0 instructions: 200000002 cycles: 189296395 heartbeat IPC: 0.871036 cumulative IPC: 0.871131 (Simulation time: 0 hr 16 min 58 sec) 
Heartbeat CPU 0 instructions: 210000003 cycles: 200778494 heartbeat IPC: 0.870921 cumulative IPC: 0.871118 (Simulation time: 0 hr 17 min 54 sec) 
Heartbeat CPU 0 instructions: 220000000 cycles: 212461337 heartbeat IPC: 0.855956 cumulative IPC: 0.870211 (Simulation time: 0 hr 18 min 48 sec) 
Heartbeat CPU 0 instructions: 230000001 cycles: 223706186 heartbeat IPC: 0.889296 cumulative IPC: 0.87125 (Simulation time: 0 hr 19 min 39 sec) 
Heartbeat CPU 0 instructions: 240000002 cycles: 234763940 heartbeat IPC: 0.904343 cumulative IPC: 0.872931 (Simulation time: 0 hr 20 min 31 sec) 
Heartbeat CPU 0 instructions: 250000002 cycles: 245759606 heartbeat IPC: 0.909449 cumulative IPC: 0.874687 (Simulation time: 0 hr 21 min 20 sec) 
Finished CPU 0 instructions: 200000001 cycles: 228653099 cumulative IPC: 0.874687 (Simulation time: 0 hr 21 min 20 sec) 
 Instruction ID: 250000052

ChampSim completed all CPUs

Region of Interest Statistics

CPU 0 cumulative IPC: 0.874687 instructions: 200000001 cycles: 228653099
ITLB SPEC fills:          0  NON-SPEC fills:          0
ITLB Test counter :          0
ITLB Leapfrog:          0
ITLB MSHR merge:          0
ITLB TOTAL     ACCESS:   28391124  HIT:   28391113  MISS:         11  HIT %:        100  MISS %: 3.87445e-05   MPKI: 5.5e-05
ITLB LOAD TRANSLATION NON_SPEC    ACCESS:   28391124  HIT:   28391113  MISS:         11  HIT %:        100  MISS %: 3.87445e-05   MPKI: 5.5e-05
ITLB PREFETCH  REQUESTED:          0  ISSUED:          0  USEFUL:          0  USELESS:          0
ITLB USEFUL LOAD PREFETCHES:          0 PREFETCH ISSUED TO LOWER LEVEL:          0  ACCURACY: -nan
ITLB TIMELY PREFETCHES:          0 LATE PREFETCHES: 0 DROPPED PREFETCHES: 0
ITLB COMMIT LATE PREFETCHES: 0 NORMAL LATE: 0 MISSED OPPORTUNITY: 0 UNCOVERED: 0
ITLB PREFETCHES SAME FILL-ORIGIN LEVEL: 0 DIFFERENT FILL-ORIGIN LEVEL: 0
ITLB AVERAGE MISS LATENCY: 348.545 cycles
ITLB AVERAGE MISS LATENCY LOAD: -nan cycles
ITLB AVERAGE MISS LATENCY PREFETCH: -nan cycles
ITLB AVERAGE MSHR OCCUPANCY: 0
ITLB MSHR FULL: 0
ITLB RQ	ACCESS:   37109924	FORWARD:          0	MERGED:    8718801	TO_CACHE:   28391123

DTLB SPEC fills:          0  NON-SPEC fills:          0
DTLB Test counter :          0
DTLB Leapfrog:          0
DTLB MSHR merge:          0
DTLB TOTAL     ACCESS:   42190017  HIT:   42124329  MISS:      65688  HIT %:    99.8443  MISS %:   0.155696   MPKI: 0.32844
DTLB LOAD TRANSLATION NON_SPEC    ACCESS:   42190017  HIT:   42124329  MISS:      65688  HIT %:    99.8443  MISS %:   0.155696   MPKI: 0.32844
DTLB PREFETCH  REQUESTED:          0  ISSUED:          0  USEFUL:          0  USELESS:          0
DTLB USEFUL LOAD PREFETCHES:          0 PREFETCH ISSUED TO LOWER LEVEL:          0  ACCURACY: -nan
DTLB TIMELY PREFETCHES:          0 LATE PREFETCHES: 0 DROPPED PREFETCHES: 0
DTLB COMMIT LATE PREFETCHES: 0 NORMAL LATE: 0 MISSED OPPORTUNITY: 0 UNCOVERED: 0
DTLB PREFETCHES SAME FILL-ORIGIN LEVEL: 0 DIFFERENT FILL-ORIGIN LEVEL: 0
DTLB AVERAGE MISS LATENCY: 13.3928 cycles
DTLB AVERAGE MISS LATENCY LOAD: -nan cycles
DTLB AVERAGE MISS LATENCY PREFETCH: -nan cycles
DTLB AVERAGE MSHR OCCUPANCY: 0.000833648
DTLB MSHR FULL: 0
DTLB RQ	ACCESS:   45518391	FORWARD:          0	MERGED:    3327947	TO_CACHE:   42190444

STLB SPEC fills:          0  NON-SPEC fills:          0
STLB Test counter :          0
STLB Leapfrog:          0
STLB MSHR merge:          0
STLB TOTAL     ACCESS:    2496028  HIT:    2495281  MISS:        747  HIT %:    99.9701  MISS %:  0.0299275   MPKI: 0.003735
STLB LOAD TRANSLATION NON_SPEC    ACCESS:      65699  HIT:      64952  MISS:        747  HIT %:     98.863  MISS %:      1.137   MPKI: 0.003735
STLB TRANSLATION FROM L1D PREFETCHER NON_SPEC    ACCESS:    2430329  HIT:    2430329  MISS:          0  HIT %:        100  MISS %:          0   MPKI: 0
STLB PREFETCH  REQUESTED:          0  ISSUED:          0  USEFUL:          0  USELESS:          0
STLB USEFUL LOAD PREFETCHES:          0 PREFETCH ISSUED TO LOWER LEVEL:          0  ACCURACY: -nan
STLB TIMELY PREFETCHES:          0 LATE PREFETCHES: 0 DROPPED PREFETCHES: 0
STLB COMMIT LATE PREFETCHES: 0 NORMAL LATE: 0 MISSED OPPORTUNITY: 0 UNCOVERED: 0
STLB PREFETCHES SAME FILL-ORIGIN LEVEL: 0 DIFFERENT FILL-ORIGIN LEVEL: 0
STLB AVERAGE MISS LATENCY: 391.096 cycles
STLB AVERAGE MISS LATENCY LOAD: -nan cycles
STLB AVERAGE MISS LATENCY PREFETCH: -nan cycles
STLB AVERAGE MSHR OCCUPANCY: 0.000475956
STLB MSHR FULL: 0
STLB RQ	ACCESS:    7535447	FORWARD:          0	MERGED:    5039420	TO_CACHE:    2496027

STLB Hit, L1D data hit: 0
STLB Hit, L2C data hit: 0
STLB Hit, LLC data hit: 0
STLB Hit, LLC data miss: 0
STLB STLB hints to L2: 0
L0D SPEC fills:   29801189  NON-SPEC fills:          0
L0D TimeGuard Request with older TS:     121797 Restricted eviction:      33157 read:       5594
L0D Test counter :          0
L0D Leapfrog:          0
L0D MSHR merge:    1476810
L0D TOTAL     ACCESS:   41074487  HIT:    5531347  MISS:   35543140  HIT %:    13.4666  MISS %:    86.5334   MPKI: 177.716
L0D LOAD      TOTAL       ACCESS:   41074487  HIT:    5531347  MISS:   35543140  HIT %:    13.4666  MISS %:    86.5334   MPKI: 177.716
L0D LOAD      NON_SPEC    ACCESS:    5871684  HIT:     162890  MISS:    5708794  HIT %:    2.77416  MISS %:    97.2258   MPKI: 28.544
L0D LOAD      SPEC        ACCESS:   35202803  HIT:    5368457  MISS:   29834346  HIT %:    15.2501  MISS %:    84.7499   MPKI: 149.172
L0D PREFETCH  REQUESTED:          0  ISSUED:          0  USEFUL:          0  USELESS:          0
L0D USEFUL LOAD PREFETCHES:          0 PREFETCH ISSUED TO LOWER LEVEL:          0  ACCURACY: -nan
L0D TIMELY PREFETCHES:          0 LATE PREFETCHES: 0 DROPPED PREFETCHES: 0
L0D COMMIT LATE PREFETCHES: 0 NORMAL LATE: 0 MISSED OPPORTUNITY: 0 UNCOVERED: 35543140
L0D PREFETCHES SAME FILL-ORIGIN LEVEL: 0 DIFFERENT FILL-ORIGIN LEVEL: 0
L0D AVERAGE MISS LATENCY: 5.66577 cycles
L0D AVERAGE MISS LATENCY LOAD: 5.66577 cycles
L0D AVERAGE MISS LATENCY PREFETCH: -nan cycles
L0D AVERAGE MSHR OCCUPANCY: 0.502257
L0D MSHR FULL: 0
L0D RQ	ACCESS:   58954087	FORWARD:          0	MERGED:   16402791	TO_CACHE:   42551296
L0D WQ	ACCESS:    2967095	FORWARD:          0	MERGED:          0	TO_CACHE:    2967095

L1D SPEC fills:          0  NON-SPEC fills:      59579
L1D Test counter :          0
L1D Leapfrog:          0
L1D MSHR merge:      99829
L1D TOTAL     ACCESS:   89472574  HIT:   84844705  MISS:    4627869  HIT %:    94.8276  MISS %:    5.17239   MPKI: 23.1393
L1D LOAD      TOTAL       ACCESS:   35543052  HIT:   35274563  MISS:     268489  HIT %:    99.2446  MISS %:   0.755391   MPKI: 1.34244
L1D LOAD      NON_SPEC    ACCESS:    5708775  HIT:    5649196  MISS:      59579  HIT %:    98.9564  MISS %:    1.04364   MPKI: 0.297895
L1D LOAD      SPEC        ACCESS:   29834277  HIT:   29625367  MISS:     208910  HIT %:    99.2998  MISS %:   0.700235   MPKI: 1.04455
L1D RFO       NON_SPEC    ACCESS:    2947788  HIT:    2945421  MISS:       2367  HIT %:    99.9197  MISS %:  0.0802975   MPKI: 0.011835
L1D PREFETCH  NON_SPEC    ACCESS:    7318896  HIT:    3162418  MISS:    4156478  HIT %:    43.2089  MISS %:    56.7911   MPKI: 20.7824
L1D COMMIT LOAD NON_SPEC    ACCESS:   13939346  HIT:   13937976  MISS:       1370  HIT %:    99.9902  MISS %: 0.00982829   MPKI: 0.00685
L1D COMMIT WRITE NON_SPEC    ACCESS:   29723492  HIT:   29524327  MISS:     199165  HIT %:    99.3299  MISS %:   0.670059   MPKI: 0.995825
L1D PREFETCH  REQUESTED:    7480919  ISSUED:    7469748  USEFUL:    3740078  USELESS:     416431
L1D USEFUL LOAD PREFETCHES:    3740078 PREFETCH ISSUED TO LOWER LEVEL:    4256273  ACCURACY: 87.8721
L1D TIMELY PREFETCHES:    3740078 LATE PREFETCHES: 99751 DROPPED PREFETCHES: 0
L1D COMMIT LATE PREFETCHES: 0 NORMAL LATE: 99751 MISSED OPPORTUNITY: 0 UNCOVERED: 168738
L1D PREFETCHES SAME FILL-ORIGIN LEVEL: 4256273 DIFFERENT FILL-ORIGIN LEVEL: 0
L1D AVERAGE MISS LATENCY: 138.118 cycles
L1D AVERAGE MISS LATENCY LOAD: 78.9314 cycles
L1D AVERAGE MISS LATENCY PREFETCH: 148.635 cycles
L1D AVERAGE MSHR OCCUPANCY: 2.5578
L1D MSHR FULL: 0.00240078
L1D RQ	ACCESS:   58895442	FORWARD:          0	MERGED:    9411794	TO_CACHE:   49482929
L1D WQ	ACCESS:   32690587	FORWARD:        719	MERGED:      11233	TO_CACHE:   32679354
L1D PQ	ACCESS:    7469748	FORWARD:          0	MERGED:          0	TO_CACHE:    7469748

L1D UNIQUE REGIONS ACCESSED: 0
L1D REGIONS CONFLICTS: 0
L1D Cross Page Prefetch Requests: 0
L1D Same Page Prefetch Requests: 9069092
L1D ROI Sum of L1D PQ occupancy: 104647474
L1D PREFETCHES PUSHED FROM L2C: 0
L1I SPEC fills:          0  NON-SPEC fills:          0
L1I Test counter :          0
L1I Leapfrog:          0
L1I MSHR merge:          8
L1I TOTAL     ACCESS:   37109915  HIT:   37109823  MISS:         92  HIT %:    99.9998  MISS %: 0.000247912   MPKI: 0.00046
L1I LOAD      TOTAL       ACCESS:   37109915  HIT:   37109823  MISS:         92  HIT %:    99.9998  MISS %: 0.000247912   MPKI: 0.00046
L1I LOAD      NON_SPEC    ACCESS:   37109915  HIT:   37109823  MISS:         92  HIT %:    99.9998  MISS %: 0.000247912   MPKI: 0.00046
L1I PREFETCH  REQUESTED:          0  ISSUED:          0  USEFUL:          0  USELESS:          0
L1I USEFUL LOAD PREFETCHES:          0 PREFETCH ISSUED TO LOWER LEVEL:          0  ACCURACY: -nan
L1I TIMELY PREFETCHES:          0 LATE PREFETCHES: 0 DROPPED PREFETCHES: 0
L1I COMMIT LATE PREFETCHES: 0 NORMAL LATE: 0 MISSED OPPORTUNITY: 0 UNCOVERED: 92
L1I PREFETCHES SAME FILL-ORIGIN LEVEL: 0 DIFFERENT FILL-ORIGIN LEVEL: 0
L1I AVERAGE MISS LATENCY: 206.554 cycles
L1I AVERAGE MISS LATENCY LOAD: 206.554 cycles
L1I AVERAGE MISS LATENCY PREFETCH: -nan cycles
L1I AVERAGE MSHR OCCUPANCY: 9.43144e-07
L1I MSHR FULL: 0
L1I RQ	ACCESS:   73295881	FORWARD:          0	MERGED:   36185957	TO_CACHE:   37109924

BTB SPEC fills:          0  NON-SPEC fills:          0
BTB Test counter :          0
BTB Leapfrog:          0
BTB MSHR merge:          0
BTB TOTAL     ACCESS:   32869649  HIT:   32861232  MISS:       8417  HIT %:    99.9744  MISS %:  0.0256072   MPKI: 0.042085
BTB BRANCH_DIRECT_JUMP	ACCESS:      10018  HIT:       9991  MISS:         27
BTB BRANCH_INDIRECT	ACCESS:          0  HIT:          0  MISS:          0
BTB BRANCH_CONDITIONAL	ACCESS:   30064978  HIT:   30064867  MISS:        111
BTB BRANCH_DIRECT_CALL	ACCESS:     706558  HIT:     706534  MISS:         24
BTB BRANCH_INDIRECT_CALL	ACCESS:     690769  HIT:     690752  MISS:         17
BTB BRANCH_RETURN	ACCESS:    1397326  HIT:    1389088  MISS:       8238
BTB BRANCH_OTHER ACCESS:          0  HIT:          0  MISS:          0

L2C SPEC fills:          0  NON-SPEC fills:      22229
L2C Test counter :          0
L2C Leapfrog:          0
L2C MSHR merge:          0
L2C TOTAL     ACCESS:    7521803  HIT:    3938091  MISS:    3583712  HIT %:    52.3557  MISS %:    47.6443   MPKI: 17.9186
L2C LOAD      TOTAL       ACCESS:     168838  HIT:      46402  MISS:     122436  HIT %:    27.4831  MISS %:    72.5169   MPKI: 0.61218
L2C LOAD      NON_SPEC    ACCESS:      32086  HIT:       9765  MISS:      22321  HIT %:    30.4338  MISS %:    69.5662   MPKI: 0.111605
L2C LOAD      SPEC        ACCESS:     136752  HIT:      36637  MISS:     100115  HIT %:    26.7908  MISS %:    73.2092   MPKI: 0.500575
L2C RFO       NON_SPEC    ACCESS:       2323  HIT:       1725  MISS:        598  HIT %:    74.2574  MISS %:    25.7426   MPKI: 0.00299
L2C PREFETCH  NON_SPEC    ACCESS:    4256270  HIT:     894003  MISS:    3362267  HIT %:    21.0044  MISS %:    78.9956   MPKI: 16.8113
L2C WRITEBACK NON_SPEC    ACCESS:       6755  HIT:       6755  MISS:          0  HIT %:        100  MISS %:          0   MPKI: 0
L2C CLEAN_EVICTION NON_SPEC    ACCESS:    3082531  HIT:    2985044  MISS:      97487  HIT %:    96.8374  MISS %:    3.16256   MPKI: 0.487435
L2C COMMIT LOAD NON_SPEC    ACCESS:       1361  HIT:       1100  MISS:        261  HIT %:    80.8229  MISS %:    19.1771   MPKI: 0.001305
L2C LOAD TRANSLATION NON_SPEC    ACCESS:       3725  HIT:       3062  MISS:        663  HIT %:    82.2013  MISS %:    17.7987   MPKI: 0.003315
L2C PREFETCH  REQUESTED:          0  ISSUED:          0  USEFUL:       3169  USELESS:    3360749
L2C USEFUL LOAD PREFETCHES:       3169 PREFETCH ISSUED TO LOWER LEVEL:    3362267  ACCURACY: 0.0942519
L2C TIMELY PREFETCHES:       3169 LATE PREFETCHES: 0 DROPPED PREFETCHES: 0
L2C COMMIT LATE PREFETCHES: 0 NORMAL LATE: 0 MISSED OPPORTUNITY: 0 UNCOVERED: 122436
L2C PREFETCHES SAME FILL-ORIGIN LEVEL: 0 DIFFERENT FILL-ORIGIN LEVEL: 0
L2C AVERAGE MISS LATENCY: 161.499 cycles
L2C AVERAGE MISS LATENCY LOAD: 89.5256 cycles
L2C AVERAGE MISS LATENCY PREFETCH: 168.791 cycles
L2C AVERAGE MSHR OCCUPANCY: 0.925638
L2C MSHR FULL: 0
L2C RQ	ACCESS:     176248	FORWARD:          0	MERGED:          0	TO_CACHE:     176247
L2C WQ	ACCESS:    3089290	FORWARD:          4	MERGED:          4	TO_CACHE:    3089286
L2C PQ	ACCESS:    4256273	FORWARD:          0	MERGED:          0	TO_CACHE:    4256270

L2C Instructions Evicting Data 91
L2C Translations Evicting Data 663
L2C Data Evicting Data 3384922
L2C Instructions Evicting Instructions 1
L2C Translations Evicting Instructions 0
L2C Data Evicting Instructions 86
L2C Instructions Evicting Translations 0
L2C Translations Evicting Translations 0
L2C Data Evicting Translations 347
L2C Dense regions hint from L2: 0
PSCL5 SPEC fills:          0  NON-SPEC fills:          0
PSCL5 Test counter :          0
PSCL5 Leapfrog:          0
PSCL5 MSHR merge:          0
PSCL5 TOTAL     ACCESS:          0  HIT:          0  MISS:          0  HIT %:       -nan  MISS %:       -nan   MPKI: 0
PSCL5 PREFETCH  REQUESTED:          0  ISSUED:          0  USEFUL:          0  USELESS:          0
PSCL5 USEFUL LOAD PREFETCHES:          0 PREFETCH ISSUED TO LOWER LEVEL:          0  ACCURACY: -nan
PSCL5 TIMELY PREFETCHES:          0 LATE PREFETCHES: 0 DROPPED PREFETCHES: 0
PSCL5 COMMIT LATE PREFETCHES: 0 NORMAL LATE: 0 MISSED OPPORTUNITY: 0 UNCOVERED: 0
PSCL5 PREFETCHES SAME FILL-ORIGIN LEVEL: 0 DIFFERENT FILL-ORIGIN LEVEL: 0

PSCL4 SPEC fills:          0  NON-SPEC fills:          0
PSCL4 Test counter :          0
PSCL4 Leapfrog:          0
PSCL4 MSHR merge:          0
PSCL4 TOTAL     ACCESS:          0  HIT:          0  MISS:          0  HIT %:       -nan  MISS %:       -nan   MPKI: 0
PSCL4 PREFETCH  REQUESTED:          0  ISSUED:          0  USEFUL:          0  USELESS:          0
PSCL4 USEFUL LOAD PREFETCHES:          0 PREFETCH ISSUED TO LOWER LEVEL:          0  ACCURACY: -nan
PSCL4 TIMELY PREFETCHES:          0 LATE PREFETCHES: 0 DROPPED PREFETCHES: 0
PSCL4 COMMIT LATE PREFETCHES: 0 NORMAL LATE: 0 MISSED OPPORTUNITY: 0 UNCOVERED: 0
PSCL4 PREFETCHES SAME FILL-ORIGIN LEVEL: 0 DIFFERENT FILL-ORIGIN LEVEL: 0

PSCL3 SPEC fills:          0  NON-SPEC fills:          0
PSCL3 Test counter :          0
PSCL3 Leapfrog:          0
PSCL3 MSHR merge:          0
PSCL3 TOTAL     ACCESS:          0  HIT:          0  MISS:          0  HIT %:       -nan  MISS %:       -nan   MPKI: 0
PSCL3 PREFETCH  REQUESTED:          0  ISSUED:          0  USEFUL:          0  USELESS:          0
PSCL3 USEFUL LOAD PREFETCHES:          0 PREFETCH ISSUED TO LOWER LEVEL:          0  ACCURACY: -nan
PSCL3 TIMELY PREFETCHES:          0 LATE PREFETCHES: 0 DROPPED PREFETCHES: 0
PSCL3 COMMIT LATE PREFETCHES: 0 NORMAL LATE: 0 MISSED OPPORTUNITY: 0 UNCOVERED: 0
PSCL3 PREFETCHES SAME FILL-ORIGIN LEVEL: 0 DIFFERENT FILL-ORIGIN LEVEL: 0

PSCL2 SPEC fills:          0  NON-SPEC fills:          0
PSCL2 Test counter :          0
PSCL2 Leapfrog:          0
PSCL2 MSHR merge:          0
PSCL2 TOTAL     ACCESS:          0  HIT:          0  MISS:          0  HIT %:       -nan  MISS %:       -nan   MPKI: 0
PSCL2 PREFETCH  REQUESTED:          0  ISSUED:          0  USEFUL:          0  USELESS:          0
PSCL2 USEFUL LOAD PREFETCHES:          0 PREFETCH ISSUED TO LOWER LEVEL:          0  ACCURACY: -nan
PSCL2 TIMELY PREFETCHES:          0 LATE PREFETCHES: 0 DROPPED PREFETCHES: 0
PSCL2 COMMIT LATE PREFETCHES: 0 NORMAL LATE: 0 MISSED OPPORTUNITY: 0 UNCOVERED: 0
PSCL2 PREFETCHES SAME FILL-ORIGIN LEVEL: 0 DIFFERENT FILL-ORIGIN LEVEL: 0

LLC SPEC fills:          0  NON-SPEC fills:      19126
LLC Test counter :          0
LLC Leapfrog:          0
LLC MSHR merge:          0
LLC TOTAL     ACCESS:    5947937  HIT:    2949028  MISS:    2998909  HIT %:    49.5807  MISS %:    50.4193   MPKI: 14.9945
LLC LOAD      TOTAL       ACCESS:     122436  HIT:      65742  MISS:      56694  HIT %:     53.695  MISS %:     46.305   MPKI: 0.28347
LLC LOAD      NON_SPEC    ACCESS:      22321  HIT:       3103  MISS:      19218  HIT %:    13.9017  MISS %:    86.0983   MPKI: 0.09609
LLC LOAD      SPEC        ACCESS:     100115  HIT:      62639  MISS:      37476  HIT %:     62.567  MISS %:     37.433   MPKI: 0.18738
LLC RFO       NON_SPEC    ACCESS:        598  HIT:          0  MISS:        598  HIT %:          0  MISS %:        100   MPKI: 0.00299
LLC PREFETCH  NON_SPEC    ACCESS:    3362267  HIT:     512466  MISS:    2849801  HIT %:    15.2417  MISS %:    84.7583   MPKI: 14.249
LLC WRITEBACK NON_SPEC    ACCESS:       1030  HIT:       1030  MISS:          0  HIT %:        100  MISS %:          0   MPKI: 0
LLC CLEAN_EVICTION NON_SPEC    ACCESS:    2460682  HIT:    2369731  MISS:      90951  HIT %:    96.3038  MISS %:    3.69617   MPKI: 0.454755
LLC COMMIT LOAD NON_SPEC    ACCESS:        261  HIT:          9  MISS:        252  HIT %:    3.44828  MISS %:    96.5517   MPKI: 0.00126
LLC LOAD TRANSLATION NON_SPEC    ACCESS:        663  HIT:         50  MISS:        613  HIT %:    7.54148  MISS %:    92.4585   MPKI: 0.003065
LLC PREFETCH  REQUESTED:          0  ISSUED:          0  USEFUL:       2532  USELESS:    2849032
LLC USEFUL LOAD PREFETCHES:       2532 PREFETCH ISSUED TO LOWER LEVEL:    2849801  ACCURACY: 0.0888483
LLC TIMELY PREFETCHES:       2532 LATE PREFETCHES: 0 DROPPED PREFETCHES: 0
LLC COMMIT LATE PREFETCHES: 0 NORMAL LATE: 0 MISSED OPPORTUNITY: 0 UNCOVERED: 56694
LLC PREFETCHES SAME FILL-ORIGIN LEVEL: 0 DIFFERENT FILL-ORIGIN LEVEL: 0
LLC AVERAGE MISS LATENCY: 158.409 cycles
LLC AVERAGE MISS LATENCY LOAD: 144.348 cycles
LLC AVERAGE MISS LATENCY PREFETCH: 163.742 cycles
LLC AVERAGE MSHR OCCUPANCY: 0.680973
LLC MSHR FULL: 0
LLC RQ	ACCESS:     123958	FORWARD:          0	MERGED:          0	TO_CACHE:     123958
LLC WQ	ACCESS:    2461712	FORWARD:          0	MERGED:          0	TO_CACHE:    2461712
LLC PQ	ACCESS:    3362267	FORWARD:          0	MERGED:          0	TO_CACHE:    3362267

LLC Dense regions hint to LLC: 0

RAW hits: 11180
Loads Generated: 58965269
Loads sent to L1D: 58954087
Stores Generated: 2967094
Stores sent to L1D: 2967095
Major fault: 0 Minor fault: 1462
Allocated PAGES: 1462
Total Load insts: 73705018
Total Non-spec loads: 6077918
Percentage of speculative loads: 91.7537

LeapFrogging counter: 3664
Commit hits: 29723492 miss: 23352303
Commit hit %: 56.002 miss %: 43.998
Commits not translated: 0
Loads retired: 268489
Stores retired: 2967095
Cache fills: 268489
L1D response latency: 78.9314 cycles
Load retirement latency: 115.72 cycles
OOO test counter: 0
Discarded buffer inserts: 29723492 hits: 1619 hit %: 0.00544687
Filter prediction accuracy: -nan

stream: 
stream:times selected: 9860482
stream:pref_filled: 1227494
stream:pref_useful: 1065159
stream:pref_late: 23990
stream:misses: 166205
stream:misses_by_poll: 0

CS: 
CS:times selected: 5972294
CS:pref_filled: 2293720
CS:pref_useful: 2007668
CS:pref_late: 91
CS:misses: 56674
CS:misses_by_poll: 7075

CPLX: 
CPLX:times selected: 3887377
CPLX:pref_filled: 1645567
CPLX:pref_useful: 1581032
CPLX:pref_late: 933
CPLX:misses: 76392
CPLX:misses_by_poll: 4641

NL_L1: 
NL:times selected: 296
NL:pref_filled: 105
NL:pref_useful: 69
NL:pref_late: 28
NL:misses: 70
NL:misses_by_poll: 3

total selections: 19720449
total_filled: 4156478
total_useful: 3740078
total_late: 27688
total_polluted: 11719
total_misses_after_warmup: 268576
conflicts: 33621
Degree Incremented Times: 457647
Degree Decremented Times: 0

L1 IP Table Write Accesses: 34951796
L1 IP Table Read Accesses: 34918175
L1 RST Write Accesses: 8244005
L1 RST Read Accesses: 16488010
L1 CSPT Write Accesses: 8244005
L1 CSPT Read Accesses: 16943525
L1 RR Filter Tag Write Accesses: 7480919
L1 RR Filter Tag Read Accesses: 1362307528
L1 IP Table Tag Write Accesses: 35543139
L1 IP Table Tag Read Accesses: 35543139
L1 RST Tag Write Accesses: 0
L1 RST Tag Read Accesses: 74361087
L1 RR Filter Write Accesses: 0
L1 RR Filter Read Accesses: 66348873
test: 1112030

DRAM Statistics
 CHANNEL 0
 RQ ROW_BUFFER_HIT:    1036988  ROW_BUFFER_MISS:    1870775
 DBUS_CONGESTED:       4425
 WQ ROW_BUFFER_HIT:     926852  ROW_BUFFER_MISS:    1036874  FULL:          0

 AVG_CONGESTED_CYCLE: 5
 All warmup complete: 2
Channel 0 Bank busy for read cycles: 0
Channel 0 Bank busy for write cycles: 0
Channel 0
Rank 0
0banks busy for read cycles: 55054339
0banks busy for write cycles: 97096
1banks busy for read cycles: 29235477
1banks busy for write cycles: 9158198
2banks busy for read cycles: 16385506
2banks busy for write cycles: 5897291
3banks busy for read cycles: 14812887
3banks busy for write cycles: 5260771
4banks busy for read cycles: 14410111
4banks busy for write cycles: 5364939
5banks busy for read cycles: 12390899
5banks busy for write cycles: 6004096
6banks busy for read cycles: 9042799
6banks busy for write cycles: 7515302
7banks busy for read cycles: 5268675
7banks busy for write cycles: 10759670
8banks busy for read cycles: 1922235
8banks busy for write cycles: 20072809

CPU 0 Branch Prediction Accuracy: 99.9889% MPKI: 0.030745 Average ROB Occupancy at Mispredict: 50.0886
Branch types
NOT_BRANCH: 144470819 72.2354%
BRANCH_DIRECT_JUMP: 10018 0.005009%
BRANCH_INDIRECT: 0 0%
BRANCH_CONDITIONAL: 52724204 26.3621%
BRANCH_DIRECT_CALL: 706558 0.353279%
BRANCH_INDIRECT_CALL: 690769 0.345384%
BRANCH_RETURN: 1397326 0.698663%
BRANCH_OTHER: 0 0%

DRAM PAGES: 1048576
Allocated PAGES: 1462
