
*** ChampSim Multicore Out-of-Order Simulator ***

Warmup Instructions: 50000000
Simulation Instructions: 200000000
Number of CPUs: 1
LLC sets: 2048
LLC ways: 16
L0D sets: 16
L0D ways: 2
ROB size: 352
LQ size: 128
SQ size: 72
Secure Berti: OFF
Berti: OFF
Berti Fill: OFF
On commit prefetching: OFF
Hit-based filter: OFF
Time-guarding: ON
Free-slotting: ON
Leap-frogging: ON
Train prefetcher on L0D bypass: OFF
No translation penalty for prefetchers: OFF
Prefetch to L0D only: OFF
Prefetch to L1D only: OFF
Clean evictions: ON
Commit loads: ON
Commit write: ON
Fill commit loads to L2C, LLC: ON
DRAM IO FREQUENCY: 6400
ROB SIZE: 352
Off-chip DRAM Size: 4096 MB Channels: 1 Width: 64-bit Data Rate: 6400 MT/s
CPU 0 runs /home/sumon/secure_berti/GhostMinion/../../traces/spec/654.roms_s-1070B.champsimtrace.xz
.xz
BTB has LRU replacement policy
ITLB has LRU replacement policy
DTLB has LRU replacement policy
STLB has LRU replacement policy
L1I has LRU replacement policy
L0D has LRU replacement policy
IP Table Entries: 1024
CSPT Entries: 128
RR_ENTRIES: 32
RST_ENTRIES: 8
L1D has LRU replacement policy
L2C has LRU replacement policy
LLC has LRU replacement policy
Heartbeat CPU 0 instructions: 10000002 cycles: 4623455 heartbeat IPC: 2.16289 cumulative IPC: 2.16289 (Simulation time: 0 hr 0 min 40 sec) 
Heartbeat CPU 0 instructions: 20000002 cycles: 8553367 heartbeat IPC: 2.54459 cumulative IPC: 2.33826 (Simulation time: 0 hr 1 min 23 sec) 
Heartbeat CPU 0 instructions: 30000003 cycles: 11768684 heartbeat IPC: 3.11011 cumulative IPC: 2.54914 (Simulation time: 0 hr 2 min 4 sec) 
Heartbeat CPU 0 instructions: 40000001 cycles: 17105635 heartbeat IPC: 1.87373 cumulative IPC: 2.33841 (Simulation time: 0 hr 2 min 48 sec) 
Heartbeat CPU 0 instructions: 50000001 cycles: 20447063 heartbeat IPC: 2.99273 cumulative IPC: 2.44534 (Simulation time: 0 hr 3 min 33 sec) 

Warmup complete CPU 0 instructions: 50000001 cycles: 20447063 (Simulation time: 0 hr 3 min 33 sec) 

Heartbeat CPU 0 instructions: 60000000 cycles: 37736246 heartbeat IPC: 0.578396 cumulative IPC: 0.578396 (Simulation time: 0 hr 4 min 36 sec) 
Heartbeat CPU 0 instructions: 70000002 cycles: 47843341 heartbeat IPC: 0.989404 cumulative IPC: 0.730026 (Simulation time: 0 hr 5 min 25 sec) 
Heartbeat CPU 0 instructions: 80000003 cycles: 62983795 heartbeat IPC: 0.660482 cumulative IPC: 0.705273 (Simulation time: 0 hr 6 min 23 sec) 
Heartbeat CPU 0 instructions: 90000002 cycles: 75648278 heartbeat IPC: 0.78961 cumulative IPC: 0.724622 (Simulation time: 0 hr 7 min 19 sec) 
Heartbeat CPU 0 instructions: 100000003 cycles: 85725027 heartbeat IPC: 0.992384 cumulative IPC: 0.765955 (Simulation time: 0 hr 8 min 8 sec) 
Heartbeat CPU 0 instructions: 110000000 cycles: 102961175 heartbeat IPC: 0.580176 cumulative IPC: 0.727148 (Simulation time: 0 hr 9 min 14 sec) 
Heartbeat CPU 0 instructions: 120000002 cycles: 112925341 heartbeat IPC: 1.0036 cumulative IPC: 0.756935 (Simulation time: 0 hr 10 min 4 sec) 
Heartbeat CPU 0 instructions: 130000002 cycles: 128825679 heartbeat IPC: 0.628917 cumulative IPC: 0.738153 (Simulation time: 0 hr 11 min 14 sec) 
Heartbeat CPU 0 instructions: 140000001 cycles: 141137052 heartbeat IPC: 0.812257 cumulative IPC: 0.745712 (Simulation time: 0 hr 12 min 55 sec) 
Heartbeat CPU 0 instructions: 150000001 cycles: 152552632 heartbeat IPC: 0.875996 cumulative IPC: 0.75697 (Simulation time: 0 hr 14 min 30 sec) 
Heartbeat CPU 0 instructions: 160000000 cycles: 169356768 heartbeat IPC: 0.595092 cumulative IPC: 0.738703 (Simulation time: 0 hr 16 min 28 sec) 
Heartbeat CPU 0 instructions: 170000000 cycles: 178941812 heartbeat IPC: 1.04329 cumulative IPC: 0.757123 (Simulation time: 0 hr 17 min 55 sec) 
Heartbeat CPU 0 instructions: 180000002 cycles: 194772845 heartbeat IPC: 0.631671 cumulative IPC: 0.74573 (Simulation time: 0 hr 19 min 10 sec) 
Heartbeat CPU 0 instructions: 190000000 cycles: 206372226 heartbeat IPC: 0.862115 cumulative IPC: 0.752991 (Simulation time: 0 hr 20 min 11 sec) 
Heartbeat CPU 0 instructions: 200000002 cycles: 218513004 heartbeat IPC: 0.823671 cumulative IPC: 0.757324 (Simulation time: 0 hr 21 min 12 sec) 
Heartbeat CPU 0 instructions: 210000001 cycles: 233139974 heartbeat IPC: 0.683669 cumulative IPC: 0.752258 (Simulation time: 0 hr 22 min 19 sec) 
Heartbeat CPU 0 instructions: 220000000 cycles: 245829206 heartbeat IPC: 0.78807 cumulative IPC: 0.754274 (Simulation time: 0 hr 23 min 13 sec) 
Heartbeat CPU 0 instructions: 230000002 cycles: 261682217 heartbeat IPC: 0.630795 cumulative IPC: 0.74616 (Simulation time: 0 hr 24 min 20 sec) 
Heartbeat CPU 0 instructions: 240000000 cycles: 274776074 heartbeat IPC: 0.763717 cumulative IPC: 0.747064 (Simulation time: 0 hr 25 min 14 sec) 
Heartbeat CPU 0 instructions: 250000001 cycles: 288046838 heartbeat IPC: 0.753536 cumulative IPC: 0.747385 (Simulation time: 0 hr 26 min 4 sec) 
Finished CPU 0 instructions: 200000000 cycles: 267599775 cumulative IPC: 0.747385 (Simulation time: 0 hr 26 min 4 sec) 
 Instruction ID: 250000033

ChampSim completed all CPUs

Region of Interest Statistics

CPU 0 cumulative IPC: 0.747385 instructions: 200000000 cycles: 267599775
ITLB SPEC fills:          0  NON-SPEC fills:          0
ITLB Test counter :          0
ITLB Leapfrog:          0
ITLB MSHR merge:          0
ITLB TOTAL     ACCESS:   29050395  HIT:   29050394  MISS:          1  HIT %:        100  MISS %: 3.44229e-06   MPKI: 5e-06
ITLB LOAD TRANSLATION NON_SPEC    ACCESS:   29050395  HIT:   29050394  MISS:          1  HIT %:        100  MISS %: 3.44229e-06   MPKI: 5e-06
ITLB PREFETCH  REQUESTED:          0  ISSUED:          0  USEFUL:          0  USELESS:          0
ITLB USEFUL LOAD PREFETCHES:          0 PREFETCH ISSUED TO LOWER LEVEL:          0  ACCURACY: -nan
ITLB TIMELY PREFETCHES:          0 LATE PREFETCHES: 0 DROPPED PREFETCHES: 0
ITLB COMMIT LATE PREFETCHES: 0 NORMAL LATE: 0 MISSED OPPORTUNITY: 0 UNCOVERED: 0
ITLB PREFETCHES SAME FILL-ORIGIN LEVEL: 0 DIFFERENT FILL-ORIGIN LEVEL: 0
ITLB AVERAGE MISS LATENCY: 564 cycles
ITLB AVERAGE MISS LATENCY LOAD: -nan cycles
ITLB AVERAGE MISS LATENCY PREFETCH: -nan cycles
ITLB AVERAGE MSHR OCCUPANCY: 0
ITLB MSHR FULL: 0
ITLB RQ	ACCESS:   33271038	FORWARD:          0	MERGED:    4220644	TO_CACHE:   29050394

DTLB SPEC fills:          0  NON-SPEC fills:          0
DTLB Test counter :          0
DTLB Leapfrog:          0
DTLB MSHR merge:          0
DTLB TOTAL     ACCESS:   56574788  HIT:   56469104  MISS:     105684  HIT %:    99.8132  MISS %:   0.186804   MPKI: 0.52842
DTLB LOAD TRANSLATION NON_SPEC    ACCESS:   56574788  HIT:   56469104  MISS:     105684  HIT %:    99.8132  MISS %:   0.186804   MPKI: 0.52842
DTLB PREFETCH  REQUESTED:          0  ISSUED:          0  USEFUL:          0  USELESS:          0
DTLB USEFUL LOAD PREFETCHES:          0 PREFETCH ISSUED TO LOWER LEVEL:          0  ACCURACY: -nan
DTLB TIMELY PREFETCHES:          0 LATE PREFETCHES: 0 DROPPED PREFETCHES: 0
DTLB COMMIT LATE PREFETCHES: 0 NORMAL LATE: 0 MISSED OPPORTUNITY: 0 UNCOVERED: 0
DTLB PREFETCHES SAME FILL-ORIGIN LEVEL: 0 DIFFERENT FILL-ORIGIN LEVEL: 0
DTLB AVERAGE MISS LATENCY: 308.35 cycles
DTLB AVERAGE MISS LATENCY LOAD: -nan cycles
DTLB AVERAGE MISS LATENCY PREFETCH: -nan cycles
DTLB AVERAGE MSHR OCCUPANCY: 0.0376895
DTLB MSHR FULL: 0.000116494
DTLB RQ	ACCESS:   64053812	FORWARD:          0	MERGED:    7319082	TO_CACHE:   56734730

STLB SPEC fills:          0  NON-SPEC fills:          0
STLB Test counter :          0
STLB Leapfrog:          0
STLB MSHR merge:          0
STLB TOTAL     ACCESS:    3457719  HIT:    3361505  MISS:      96214  HIT %:    97.2174  MISS %:    2.78259   MPKI: 0.48107
STLB LOAD TRANSLATION NON_SPEC    ACCESS:     105685  HIT:       9471  MISS:      96214  HIT %:    8.96154  MISS %:    91.0385   MPKI: 0.48107
STLB TRANSLATION FROM L1D PREFETCHER NON_SPEC    ACCESS:    3352034  HIT:    3352034  MISS:          0  HIT %:        100  MISS %:          0   MPKI: 0
STLB PREFETCH  REQUESTED:          0  ISSUED:          0  USEFUL:          0  USELESS:          0
STLB USEFUL LOAD PREFETCHES:          0 PREFETCH ISSUED TO LOWER LEVEL:          0  ACCURACY: -nan
STLB TIMELY PREFETCHES:          0 LATE PREFETCHES: 0 DROPPED PREFETCHES: 0
STLB COMMIT LATE PREFETCHES: 0 NORMAL LATE: 0 MISSED OPPORTUNITY: 0 UNCOVERED: 0
STLB PREFETCHES SAME FILL-ORIGIN LEVEL: 0 DIFFERENT FILL-ORIGIN LEVEL: 0
STLB AVERAGE MISS LATENCY: 328.697 cycles
STLB AVERAGE MISS LATENCY LOAD: -nan cycles
STLB AVERAGE MISS LATENCY PREFETCH: -nan cycles
STLB AVERAGE MSHR OCCUPANCY: 0.069733
STLB MSHR FULL: 0
STLB RQ	ACCESS:   11568940	FORWARD:          0	MERGED:    8111221	TO_CACHE:    3457719

STLB Hit, L1D data hit: 0
STLB Hit, L2C data hit: 0
STLB Hit, LLC data hit: 0
STLB Hit, LLC data miss: 0
STLB STLB hints to L2: 0
L0D SPEC fills:   30627228  NON-SPEC fills:          0
L0D TimeGuard Request with older TS:    3685740 Restricted eviction:     839859 read:     319166
L0D Test counter :          0
L0D Leapfrog:          0
L0D MSHR merge:    2041538
L0D TOTAL     ACCESS:   51292991  HIT:   11802225  MISS:   39490766  HIT %:    23.0094  MISS %:    76.9906   MPKI: 197.454
L0D LOAD      TOTAL       ACCESS:   51292991  HIT:   11802225  MISS:   39490766  HIT %:    23.0094  MISS %:    76.9906   MPKI: 197.454
L0D LOAD      NON_SPEC    ACCESS:    8120163  HIT:      96480  MISS:    8023683  HIT %:    1.18815  MISS %:    98.8118   MPKI: 40.1184
L0D LOAD      SPEC        ACCESS:   43172828  HIT:   11705745  MISS:   31467083  HIT %:    27.1137  MISS %:    72.8863   MPKI: 157.335
L0D PREFETCH  REQUESTED:          0  ISSUED:          0  USEFUL:          0  USELESS:          0
L0D USEFUL LOAD PREFETCHES:          0 PREFETCH ISSUED TO LOWER LEVEL:          0  ACCURACY: -nan
L0D TIMELY PREFETCHES:          0 LATE PREFETCHES: 0 DROPPED PREFETCHES: 0
L0D COMMIT LATE PREFETCHES: 0 NORMAL LATE: 0 MISSED OPPORTUNITY: 0 UNCOVERED: 39490766
L0D PREFETCHES SAME FILL-ORIGIN LEVEL: 0 DIFFERENT FILL-ORIGIN LEVEL: 0
L0D AVERAGE MISS LATENCY: 8.13923 cycles
L0D AVERAGE MISS LATENCY LOAD: 8.13923 cycles
L0D AVERAGE MISS LATENCY PREFETCH: -nan cycles
L0D AVERAGE MSHR OCCUPANCY: 1.32875
L0D MSHR FULL: 0.00038175
L0D RQ	ACCESS:   73913361	FORWARD:          0	MERGED:   20578836	TO_CACHE:   53334525
L0D WQ	ACCESS:   10719287	FORWARD:          0	MERGED:          0	TO_CACHE:   10719287

L1D SPEC fills:          0  NON-SPEC fills:      27898
L1D Test counter :          0
L1D Leapfrog:          0
L1D MSHR merge:     124679
L1D TOTAL     ACCESS:  107274416  HIT:  102121922  MISS:    5152494  HIT %:    95.1969  MISS %:     4.8031   MPKI: 25.7625
L1D LOAD      TOTAL       ACCESS:   39481238  HIT:   39173080  MISS:     308158  HIT %:    99.2195  MISS %:   0.780518   MPKI: 1.54079
L1D LOAD      NON_SPEC    ACCESS:    8022469  HIT:    7994571  MISS:      27898  HIT %:    99.6523  MISS %:   0.347748   MPKI: 0.13949
L1D LOAD      SPEC        ACCESS:   31458769  HIT:   31178509  MISS:     280260  HIT %:    99.1091  MISS %:    0.89088   MPKI: 1.4013
L1D RFO       NON_SPEC    ACCESS:    2196197  HIT:     858057  MISS:    1338140  HIT %:    39.0701  MISS %:    60.9299   MPKI: 6.6907
L1D PREFETCH  NON_SPEC    ACCESS:   10446812  HIT:    7193483  MISS:    3253329  HIT %:    68.8582  MISS %:    31.1418   MPKI: 16.2666
L1D COMMIT LOAD NON_SPEC    ACCESS:   27158805  HIT:   27130640  MISS:      28165  HIT %:    99.8963  MISS %:   0.103705   MPKI: 0.140825
L1D COMMIT WRITE NON_SPEC    ACCESS:   27991364  HIT:   27766662  MISS:     224702  HIT %:    99.1972  MISS %:   0.802755   MPKI: 1.12351
L1D PREFETCH  REQUESTED:   13735152  ISSUED:   11463855  USEFUL:    3105452  USELESS:     147930
L1D USEFUL LOAD PREFETCHES:    3105452 PREFETCH ISSUED TO LOWER LEVEL:    3368559  ACCURACY: 92.1893
L1D TIMELY PREFETCHES:    3105452 LATE PREFETCHES: 115224 DROPPED PREFETCHES: 0
L1D COMMIT LATE PREFETCHES: 0 NORMAL LATE: 115224 MISSED OPPORTUNITY: 0 UNCOVERED: 192934
L1D PREFETCHES SAME FILL-ORIGIN LEVEL: 3368559 DIFFERENT FILL-ORIGIN LEVEL: 0
L1D AVERAGE MISS LATENCY: 392.421 cycles
L1D AVERAGE MISS LATENCY LOAD: 326.636 cycles
L1D AVERAGE MISS LATENCY PREFETCH: 414.625 cycles
L1D AVERAGE MSHR OCCUPANCY: 9.35452
L1D MSHR FULL: 0.260049
L1D RQ	ACCESS:   76777587	FORWARD:          0	MERGED:    9249946	TO_CACHE:   66679347
L1D WQ	ACCESS:   38714226	FORWARD:     848294	MERGED:     269839	TO_CACHE:   38444387
L1D PQ	ACCESS:   11463855	FORWARD:          0	MERGED:        600	TO_CACHE:   11463255

L1D UNIQUE REGIONS ACCESSED: 0
L1D REGIONS CONFLICTS: 0
L1D Cross Page Prefetch Requests: 0
L1D Same Page Prefetch Requests: 14090483
L1D ROI Sum of L1D PQ occupancy: 335894368
L1D PREFETCHES PUSHED FROM L2C: 0
L1I SPEC fills:          0  NON-SPEC fills:          0
L1I Test counter :          0
L1I Leapfrog:          0
L1I MSHR merge:         28
L1I TOTAL     ACCESS:   33271010  HIT:   33270960  MISS:         50  HIT %:    99.9998  MISS %: 0.000150281   MPKI: 0.00025
L1I LOAD      TOTAL       ACCESS:   33271010  HIT:   33270960  MISS:         50  HIT %:    99.9998  MISS %: 0.000150281   MPKI: 0.00025
L1I LOAD      NON_SPEC    ACCESS:   33271010  HIT:   33270960  MISS:         50  HIT %:    99.9998  MISS %: 0.000150281   MPKI: 0.00025
L1I PREFETCH  REQUESTED:          0  ISSUED:          0  USEFUL:          0  USELESS:          0
L1I USEFUL LOAD PREFETCHES:          0 PREFETCH ISSUED TO LOWER LEVEL:          0  ACCURACY: -nan
L1I TIMELY PREFETCHES:          0 LATE PREFETCHES: 0 DROPPED PREFETCHES: 0
L1I COMMIT LATE PREFETCHES: 0 NORMAL LATE: 0 MISSED OPPORTUNITY: 0 UNCOVERED: 50
L1I PREFETCHES SAME FILL-ORIGIN LEVEL: 0 DIFFERENT FILL-ORIGIN LEVEL: 0
L1I AVERAGE MISS LATENCY: 288.64 cycles
L1I AVERAGE MISS LATENCY LOAD: 288.64 cycles
L1I AVERAGE MISS LATENCY PREFETCH: -nan cycles
L1I AVERAGE MSHR OCCUPANCY: 2.1941e-06
L1I MSHR FULL: 0
L1I RQ	ACCESS:   52182467	FORWARD:          0	MERGED:   18911429	TO_CACHE:   33271038

BTB SPEC fills:          0  NON-SPEC fills:          0
BTB Test counter :          0
BTB Leapfrog:          0
BTB MSHR merge:          0
BTB TOTAL     ACCESS:   10637189  HIT:   10637168  MISS:         21  HIT %:    99.9998  MISS %: 0.000197421   MPKI: 0.000105
BTB BRANCH_DIRECT_JUMP	ACCESS:      26624  HIT:      26622  MISS:          2
BTB BRANCH_INDIRECT	ACCESS:          0  HIT:          0  MISS:          0
BTB BRANCH_CONDITIONAL	ACCESS:   10610565  HIT:   10610546  MISS:         19
BTB BRANCH_DIRECT_CALL	ACCESS:          0  HIT:          0  MISS:          0
BTB BRANCH_INDIRECT_CALL	ACCESS:          0  HIT:          0  MISS:          0
BTB BRANCH_RETURN	ACCESS:          0  HIT:          0  MISS:          0
BTB BRANCH_OTHER ACCESS:          0  HIT:          0  MISS:          0

L2C SPEC fills:          0  NON-SPEC fills:       9817
L2C Test counter :          0
L2C Leapfrog:          0
L2C MSHR merge:          0
L2C TOTAL     ACCESS:   10004280  HIT:    5432607  MISS:    4571673  HIT %:    54.3028  MISS %:    45.6972   MPKI: 22.8584
L2C LOAD      TOTAL       ACCESS:     192998  HIT:      70918  MISS:     122080  HIT %:    36.7455  MISS %:    63.2545   MPKI: 0.6104
L2C LOAD      NON_SPEC    ACCESS:      26055  HIT:      16188  MISS:       9867  HIT %:    62.1301  MISS %:    37.8699   MPKI: 0.049335
L2C LOAD      SPEC        ACCESS:     166943  HIT:      54730  MISS:     112213  HIT %:    32.7836  MISS %:    67.2164   MPKI: 0.561065
L2C RFO       NON_SPEC    ACCESS:    1338140  HIT:          0  MISS:    1338140  HIT %:          0  MISS %:        100   MPKI: 6.6907
L2C PREFETCH  NON_SPEC    ACCESS:    3368449  HIT:     383403  MISS:    2985046  HIT %:    11.3822  MISS %:    88.6178   MPKI: 14.9252
L2C WRITEBACK NON_SPEC    ACCESS:    1338964  HIT:    1338929  MISS:         35  HIT %:    99.9974  MISS %: 0.00261396   MPKI: 0.000175
L2C CLEAN_EVICTION NON_SPEC    ACCESS:    3256721  HIT:    3154103  MISS:     102618  HIT %:     96.849  MISS %:    3.15096   MPKI: 0.51309
L2C COMMIT LOAD NON_SPEC    ACCESS:      28089  HIT:      23984  MISS:       4105  HIT %:    85.3857  MISS %:    14.6143   MPKI: 0.020525
L2C LOAD TRANSLATION NON_SPEC    ACCESS:     480919  HIT:     461270  MISS:      19649  HIT %:    95.9143  MISS %:    4.08572   MPKI: 0.098245
L2C PREFETCH  REQUESTED:          0  ISSUED:          0  USEFUL:      58392  USELESS:    2930072
L2C USEFUL LOAD PREFETCHES:      58392 PREFETCH ISSUED TO LOWER LEVEL:    2985052  ACCURACY: 1.95615
L2C TIMELY PREFETCHES:      58392 LATE PREFETCHES: 0 DROPPED PREFETCHES: 0
L2C COMMIT LATE PREFETCHES: 0 NORMAL LATE: 0 MISSED OPPORTUNITY: 0 UNCOVERED: 122080
L2C PREFETCHES SAME FILL-ORIGIN LEVEL: 0 DIFFERENT FILL-ORIGIN LEVEL: 0
L2C AVERAGE MISS LATENCY: 435.151 cycles
L2C AVERAGE MISS LATENCY LOAD: 346.675 cycles
L2C AVERAGE MISS LATENCY PREFETCH: 464.117 cycles
L2C AVERAGE MSHR OCCUPANCY: 7.19787
L2C MSHR FULL: 0
L2C RQ	ACCESS:    2040218	FORWARD:          0	MERGED:          0	TO_CACHE:    2040156
L2C WQ	ACCESS:    4595698	FORWARD:        166	MERGED:         13	TO_CACHE:    4595685
L2C PQ	ACCESS:    3368559	FORWARD:          0	MERGED:          0	TO_CACHE:    3368455

L2C Instructions Evicting Data 50
L2C Translations Evicting Data 19596
L2C Data Evicting Data 4317919
L2C Instructions Evicting Instructions 0
L2C Translations Evicting Instructions 1
L2C Data Evicting Instructions 48
L2C Instructions Evicting Translations 0
L2C Translations Evicting Translations 52
L2C Data Evicting Translations 19141
L2C Dense regions hint from L2: 0
PSCL5 SPEC fills:          0  NON-SPEC fills:          0
PSCL5 Test counter :          0
PSCL5 Leapfrog:          0
PSCL5 MSHR merge:          0
PSCL5 TOTAL     ACCESS:          0  HIT:          0  MISS:          0  HIT %:       -nan  MISS %:       -nan   MPKI: 0
PSCL5 PREFETCH  REQUESTED:          0  ISSUED:          0  USEFUL:          0  USELESS:          0
PSCL5 USEFUL LOAD PREFETCHES:          0 PREFETCH ISSUED TO LOWER LEVEL:          0  ACCURACY: -nan
PSCL5 TIMELY PREFETCHES:          0 LATE PREFETCHES: 0 DROPPED PREFETCHES: 0
PSCL5 COMMIT LATE PREFETCHES: 0 NORMAL LATE: 0 MISSED OPPORTUNITY: 0 UNCOVERED: 0
PSCL5 PREFETCHES SAME FILL-ORIGIN LEVEL: 0 DIFFERENT FILL-ORIGIN LEVEL: 0

PSCL4 SPEC fills:          0  NON-SPEC fills:          0
PSCL4 Test counter :          0
PSCL4 Leapfrog:          0
PSCL4 MSHR merge:          0
PSCL4 TOTAL     ACCESS:          0  HIT:          0  MISS:          0  HIT %:       -nan  MISS %:       -nan   MPKI: 0
PSCL4 PREFETCH  REQUESTED:          0  ISSUED:          0  USEFUL:          0  USELESS:          0
PSCL4 USEFUL LOAD PREFETCHES:          0 PREFETCH ISSUED TO LOWER LEVEL:          0  ACCURACY: -nan
PSCL4 TIMELY PREFETCHES:          0 LATE PREFETCHES: 0 DROPPED PREFETCHES: 0
PSCL4 COMMIT LATE PREFETCHES: 0 NORMAL LATE: 0 MISSED OPPORTUNITY: 0 UNCOVERED: 0
PSCL4 PREFETCHES SAME FILL-ORIGIN LEVEL: 0 DIFFERENT FILL-ORIGIN LEVEL: 0

PSCL3 SPEC fills:          0  NON-SPEC fills:          0
PSCL3 Test counter :          0
PSCL3 Leapfrog:          0
PSCL3 MSHR merge:          0
PSCL3 TOTAL     ACCESS:          0  HIT:          0  MISS:          0  HIT %:       -nan  MISS %:       -nan   MPKI: 0
PSCL3 PREFETCH  REQUESTED:          0  ISSUED:          0  USEFUL:          0  USELESS:          0
PSCL3 USEFUL LOAD PREFETCHES:          0 PREFETCH ISSUED TO LOWER LEVEL:          0  ACCURACY: -nan
PSCL3 TIMELY PREFETCHES:          0 LATE PREFETCHES: 0 DROPPED PREFETCHES: 0
PSCL3 COMMIT LATE PREFETCHES: 0 NORMAL LATE: 0 MISSED OPPORTUNITY: 0 UNCOVERED: 0
PSCL3 PREFETCHES SAME FILL-ORIGIN LEVEL: 0 DIFFERENT FILL-ORIGIN LEVEL: 0

PSCL2 SPEC fills:          0  NON-SPEC fills:          0
PSCL2 Test counter :          0
PSCL2 Leapfrog:          0
PSCL2 MSHR merge:          0
PSCL2 TOTAL     ACCESS:          0  HIT:          0  MISS:          0  HIT %:       -nan  MISS %:       -nan   MPKI: 0
PSCL2 PREFETCH  REQUESTED:          0  ISSUED:          0  USEFUL:          0  USELESS:          0
PSCL2 USEFUL LOAD PREFETCHES:          0 PREFETCH ISSUED TO LOWER LEVEL:          0  ACCURACY: -nan
PSCL2 TIMELY PREFETCHES:          0 LATE PREFETCHES: 0 DROPPED PREFETCHES: 0
PSCL2 COMMIT LATE PREFETCHES: 0 NORMAL LATE: 0 MISSED OPPORTUNITY: 0 UNCOVERED: 0
PSCL2 PREFETCHES SAME FILL-ORIGIN LEVEL: 0 DIFFERENT FILL-ORIGIN LEVEL: 0

LLC SPEC fills:          0  NON-SPEC fills:       9817
LLC Test counter :          0
LLC Leapfrog:          0
LLC MSHR merge:          0
LLC TOTAL     ACCESS:    8725910  HIT:    4154405  MISS:    4571505  HIT %:      47.61  MISS %:      52.39   MPKI: 22.8575
LLC LOAD      TOTAL       ACCESS:     122080  HIT:          0  MISS:     122080  HIT %:          0  MISS %:        100   MPKI: 0.6104
LLC LOAD      NON_SPEC    ACCESS:       9867  HIT:          0  MISS:       9867  HIT %:          0  MISS %:        100   MPKI: 0.049335
LLC LOAD      SPEC        ACCESS:     112213  HIT:          0  MISS:     112213  HIT %:          0  MISS %:        100   MPKI: 0.561065
LLC RFO       NON_SPEC    ACCESS:    1338140  HIT:          0  MISS:    1338140  HIT %:          0  MISS %:        100   MPKI: 6.6907
LLC PREFETCH  NON_SPEC    ACCESS:    2985046  HIT:          0  MISS:    2985046  HIT %:          0  MISS %:        100   MPKI: 14.9252
LLC WRITEBACK NON_SPEC    ACCESS:    1335057  HIT:    1335022  MISS:         35  HIT %:    99.9974  MISS %: 0.00262161   MPKI: 0.000175
LLC CLEAN_EVICTION NON_SPEC    ACCESS:    2921833  HIT:    2819383  MISS:     102450  HIT %:    96.4936  MISS %:    3.50636   MPKI: 0.51225
LLC COMMIT LOAD NON_SPEC    ACCESS:       4105  HIT:          0  MISS:       4105  HIT %:          0  MISS %:        100   MPKI: 0.020525
LLC LOAD TRANSLATION NON_SPEC    ACCESS:      19649  HIT:          0  MISS:      19649  HIT %:          0  MISS %:        100   MPKI: 0.098245
LLC PREFETCH  REQUESTED:          0  ISSUED:          0  USEFUL:          0  USELESS:    2995525
LLC USEFUL LOAD PREFETCHES:          0 PREFETCH ISSUED TO LOWER LEVEL:    2985052  ACCURACY: 0
LLC TIMELY PREFETCHES:          0 LATE PREFETCHES: 0 DROPPED PREFETCHES: 0
LLC COMMIT LATE PREFETCHES: 0 NORMAL LATE: 0 MISSED OPPORTUNITY: 0 UNCOVERED: 122080
LLC PREFETCHES SAME FILL-ORIGIN LEVEL: 0 DIFFERENT FILL-ORIGIN LEVEL: 0
LLC AVERAGE MISS LATENCY: 405.361 cycles
LLC AVERAGE MISS LATENCY LOAD: 324.083 cycles
LLC AVERAGE MISS LATENCY PREFETCH: 433.496 cycles
LLC AVERAGE MSHR OCCUPANCY: 6.5225
LLC MSHR FULL: 0
LLC RQ	ACCESS:    1483984	FORWARD:          0	MERGED:          0	TO_CACHE:    1483984
LLC WQ	ACCESS:    4256890	FORWARD:          0	MERGED:          0	TO_CACHE:    4256890
LLC PQ	ACCESS:    2985052	FORWARD:          0	MERGED:          0	TO_CACHE:    2985052

LLC Dense regions hint to LLC: 0

RAW hits: 17
Loads Generated: 73913380
Loads sent to L1D: 73913361
Stores Generated: 10719287
Stores sent to L1D: 10719287
Major fault: 0 Minor fault: 51871
Allocated PAGES: 51871
Total Load insts: 92757189
Total Non-spec loads: 8707834
Percentage of speculative loads: 90.6122

LeapFrogging counter: 2785474
Commit hits: 28444685 miss: 37286822
Commit hit %: 43.274 miss %: 56.726
Commits not translated: 0
Loads retired: 308158
Stores retired: 10719287
Cache fills: 308158
L1D response latency: 326.636 cycles
Load retirement latency: 601.049 cycles
OOO test counter: 0
Discarded buffer inserts: 28444685 hits: 83342 hit %: 0.292997
Filter prediction accuracy: -nan

stream: 
stream:times selected: 7035198
stream:pref_filled: 4000276
stream:pref_useful: 3817923
stream:pref_late: 1884
stream:misses: 25
stream:misses_by_poll: 0

CS: 
CS:times selected: 7005689
CS:pref_filled: 15234
CS:pref_useful: 14724
CS:pref_late: 69
CS:misses: 327843
CS:misses_by_poll: 3

CPLX: 
CPLX:times selected: 29456
CPLX:pref_filled: 800
CPLX:pref_useful: 157
CPLX:pref_late: 3
CPLX:misses: 2156
CPLX:misses_by_poll: 12

NL_L1: 
NL:times selected: 15
NL:pref_filled: 5
NL:pref_useful: 5
NL:pref_late: 0
NL:misses: 3
NL:misses_by_poll: 0

total selections: 14070358
total_filled: 3253329
total_useful: 3105452
total_late: 1968
total_polluted: 15
total_misses_after_warmup: 317685
conflicts: 152
Degree Incremented Times: 281945
Degree Decremented Times: 2082633

L1 IP Table Write Accesses: 39490735
L1 IP Table Read Accesses: 39490583
L1 RST Write Accesses: 5629334
L1 RST Read Accesses: 11258668
L1 CSPT Write Accesses: 5629334
L1 CSPT Read Accesses: 5672148
L1 RR Filter Tag Write Accesses: 13735152
L1 RR Filter Tag Read Accesses: 1248351438
L1 IP Table Tag Write Accesses: 39490765
L1 IP Table Tag Read Accesses: 39490765
L1 RST Tag Write Accesses: 0
L1 RST Tag Read Accesses: 50648946
L1 RR Filter Write Accesses: 0
L1 RR Filter Read Accesses: 48198612
test: 166435

DRAM Statistics
 CHANNEL 0
 RQ ROW_BUFFER_HIT:     728546  ROW_BUFFER_MISS:    3740474
 DBUS_CONGESTED:        123
 WQ ROW_BUFFER_HIT:     848527  ROW_BUFFER_MISS:    3408320  FULL:       1333

 AVG_CONGESTED_CYCLE: 5
 All warmup complete: 2
Channel 0 Bank busy for read cycles: 0
Channel 0 Bank busy for write cycles: 0
Channel 0
Rank 0
0banks busy for read cycles: 14332793
0banks busy for write cycles: 4677
1banks busy for read cycles: 14770639
1banks busy for write cycles: 867213
2banks busy for read cycles: 22124773
2banks busy for write cycles: 725410
3banks busy for read cycles: 26221606
3banks busy for write cycles: 693365
4banks busy for read cycles: 26994493
4banks busy for write cycles: 688903
5banks busy for read cycles: 17998651
5banks busy for write cycles: 718026
6banks busy for read cycles: 14180660
6banks busy for write cycles: 809327
7banks busy for read cycles: 17306924
7banks busy for write cycles: 5391596
8banks busy for read cycles: 14636304
8banks busy for write cycles: 89134416

CPU 0 Branch Prediction Accuracy: 99.8819% MPKI: 0.062825 Average ROB Occupancy at Mispredict: 198.684
Branch types
NOT_BRANCH: 189359358 94.6797%
BRANCH_DIRECT_JUMP: 26624 0.013312%
BRANCH_INDIRECT: 0 0%
BRANCH_CONDITIONAL: 10613668 5.30683%
BRANCH_DIRECT_CALL: 0 0%
BRANCH_INDIRECT_CALL: 0 0%
BRANCH_RETURN: 0 0%
BRANCH_OTHER: 0 0%

DRAM PAGES: 1048576
Allocated PAGES: 51871
