
*** ChampSim Multicore Out-of-Order Simulator ***

Warmup Instructions: 50000000
Simulation Instructions: 200000000
Number of CPUs: 1
LLC sets: 2048
LLC ways: 16
L0D sets: 16
L0D ways: 2
ROB size: 352
LQ size: 128
SQ size: 72
Secure Berti: OFF
Berti: OFF
Berti Fill: OFF
On commit prefetching: ON
Hit-based filter: OFF
Time-guarding: ON
Free-slotting: ON
Leap-frogging: ON
Train prefetcher on L0D bypass: OFF
No translation penalty for prefetchers: OFF
Prefetch to L0D only: OFF
Prefetch to L1D only: OFF
Clean evictions: ON
Commit loads: ON
Commit write: ON
Fill commit loads to L2C, LLC: ON
DRAM IO FREQUENCY: 6400
ROB SIZE: 352
Off-chip DRAM Size: 4096 MB Channels: 1 Width: 64-bit Data Rate: 6400 MT/s
CPU 0 runs /home/sumon/secure_berti/GhostMinion/../../traces/gap/bc-0.trace.gz
.gz
BTB has LRU replacement policy
ITLB has LRU replacement policy
DTLB has LRU replacement policy
STLB has LRU replacement policy
L1I has LRU replacement policy
L0D has LRU replacement policy
IP Table Entries: 1024
CSPT Entries: 128
RR_ENTRIES: 32
RST_ENTRIES: 8
IP Table Entries: 1024
CSPT Entries: 128
RR_ENTRIES: 32
RST_ENTRIES: 8
L1D has LRU replacement policy
L2C has LRU replacement policy
LLC has LRU replacement policy
Heartbeat CPU 0 instructions: 10000002 cycles: 3800308 heartbeat IPC: 2.63137 cumulative IPC: 2.63137 (Simulation time: 0 hr 1 min 49 sec) 
Heartbeat CPU 0 instructions: 20000000 cycles: 7247680 heartbeat IPC: 2.90076 cumulative IPC: 2.7595 (Simulation time: 0 hr 3 min 37 sec) 
Heartbeat CPU 0 instructions: 30000003 cycles: 10735931 heartbeat IPC: 2.86677 cumulative IPC: 2.79436 (Simulation time: 0 hr 5 min 26 sec) 
Heartbeat CPU 0 instructions: 40000000 cycles: 14209749 heartbeat IPC: 2.87868 cumulative IPC: 2.81497 (Simulation time: 0 hr 7 min 15 sec) 
Heartbeat CPU 0 instructions: 50000002 cycles: 17693998 heartbeat IPC: 2.87006 cumulative IPC: 2.82582 (Simulation time: 0 hr 9 min 4 sec) 

Warmup complete CPU 0 instructions: 50000002 cycles: 17693998 (Simulation time: 0 hr 9 min 4 sec) 

Heartbeat CPU 0 instructions: 60000003 cycles: 93700044 heartbeat IPC: 0.131568 cumulative IPC: 0.131568 (Simulation time: 0 hr 11 min 13 sec) 
Heartbeat CPU 0 instructions: 70000001 cycles: 170266647 heartbeat IPC: 0.130605 cumulative IPC: 0.131085 (Simulation time: 0 hr 13 min 20 sec) 
Heartbeat CPU 0 instructions: 80000000 cycles: 245804137 heartbeat IPC: 0.132385 cumulative IPC: 0.131515 (Simulation time: 0 hr 15 min 12 sec) 
Heartbeat CPU 0 instructions: 90000002 cycles: 321830031 heartbeat IPC: 0.131534 cumulative IPC: 0.13152 (Simulation time: 0 hr 16 min 29 sec) 
Heartbeat CPU 0 instructions: 100000001 cycles: 397199484 heartbeat IPC: 0.13268 cumulative IPC: 0.13175 (Simulation time: 0 hr 17 min 44 sec) 
Heartbeat CPU 0 instructions: 110000000 cycles: 471485602 heartbeat IPC: 0.134615 cumulative IPC: 0.132219 (Simulation time: 0 hr 18 min 57 sec) 
Heartbeat CPU 0 instructions: 120000000 cycles: 545015010 heartbeat IPC: 0.136 cumulative IPC: 0.132746 (Simulation time: 0 hr 20 min 10 sec) 
Heartbeat CPU 0 instructions: 130000001 cycles: 618750741 heartbeat IPC: 0.135619 cumulative IPC: 0.133099 (Simulation time: 0 hr 21 min 19 sec) 
Heartbeat CPU 0 instructions: 140000000 cycles: 692409804 heartbeat IPC: 0.135761 cumulative IPC: 0.133389 (Simulation time: 0 hr 22 min 28 sec) 
Heartbeat CPU 0 instructions: 150000000 cycles: 765872036 heartbeat IPC: 0.136124 cumulative IPC: 0.133658 (Simulation time: 0 hr 23 min 36 sec) 
Heartbeat CPU 0 instructions: 160000001 cycles: 838103147 heartbeat IPC: 0.138445 cumulative IPC: 0.134079 (Simulation time: 0 hr 24 min 41 sec) 
Heartbeat CPU 0 instructions: 170000001 cycles: 910697973 heartbeat IPC: 0.137751 cumulative IPC: 0.134378 (Simulation time: 0 hr 25 min 44 sec) 
Heartbeat CPU 0 instructions: 180000002 cycles: 983195489 heartbeat IPC: 0.137936 cumulative IPC: 0.134645 (Simulation time: 0 hr 26 min 47 sec) 
Heartbeat CPU 0 instructions: 190000002 cycles: 1055735450 heartbeat IPC: 0.137855 cumulative IPC: 0.134869 (Simulation time: 0 hr 27 min 49 sec) 
Heartbeat CPU 0 instructions: 200000002 cycles: 1128661237 heartbeat IPC: 0.137126 cumulative IPC: 0.135017 (Simulation time: 0 hr 28 min 52 sec) 
Heartbeat CPU 0 instructions: 210000000 cycles: 1201506286 heartbeat IPC: 0.137278 cumulative IPC: 0.135157 (Simulation time: 0 hr 29 min 55 sec) 
Heartbeat CPU 0 instructions: 220000000 cycles: 1274231282 heartbeat IPC: 0.137504 cumulative IPC: 0.135292 (Simulation time: 0 hr 30 min 56 sec) 
Heartbeat CPU 0 instructions: 230000000 cycles: 1346748199 heartbeat IPC: 0.137899 cumulative IPC: 0.135435 (Simulation time: 0 hr 31 min 57 sec) 
Heartbeat CPU 0 instructions: 240000003 cycles: 1419460304 heartbeat IPC: 0.137529 cumulative IPC: 0.135543 (Simulation time: 0 hr 32 min 59 sec) 
Heartbeat CPU 0 instructions: 250000000 cycles: 1491907995 heartbeat IPC: 0.138031 cumulative IPC: 0.135666 (Simulation time: 0 hr 33 min 59 sec) 
Finished CPU 0 instructions: 200000002 cycles: 1474213998 cumulative IPC: 0.135666 (Simulation time: 0 hr 33 min 59 sec) 
 Instruction ID: 250000043

ChampSim completed all CPUs

Region of Interest Statistics

CPU 0 cumulative IPC: 0.135666 instructions: 200000002 cycles: 1474213998
ITLB SPEC fills:          0  NON-SPEC fills:          0
ITLB Test counter :          0
ITLB Leapfrog:          0
ITLB MSHR merge:          0
ITLB TOTAL     ACCESS:   40682980  HIT:   40682980  MISS:          0  HIT %:        100  MISS %:          0   MPKI: 0
ITLB LOAD TRANSLATION NON_SPEC    ACCESS:   40682980  HIT:   40682980  MISS:          0  HIT %:        100  MISS %:          0   MPKI: 0
ITLB PREFETCH  REQUESTED:          0  ISSUED:          0  USEFUL:          0  USELESS:          0
ITLB USEFUL LOAD PREFETCHES:          0 PREFETCH ISSUED TO LOWER LEVEL:          0  ACCURACY: -nan
ITLB TIMELY PREFETCHES:          0 LATE PREFETCHES: 0 DROPPED PREFETCHES: 0
ITLB COMMIT LATE PREFETCHES: 0 NORMAL LATE: 0 MISSED OPPORTUNITY: 0 UNCOVERED: 0
ITLB PREFETCHES SAME FILL-ORIGIN LEVEL: 0 DIFFERENT FILL-ORIGIN LEVEL: 0
ITLB AVERAGE MISS LATENCY: -nan cycles
ITLB AVERAGE MISS LATENCY LOAD: -nan cycles
ITLB AVERAGE MISS LATENCY PREFETCH: -nan cycles
ITLB AVERAGE MSHR OCCUPANCY: 0
ITLB MSHR FULL: 0
ITLB RQ	ACCESS:   40944932	FORWARD:          0	MERGED:     261953	TO_CACHE:   40682979

DTLB SPEC fills:          0  NON-SPEC fills:          0
DTLB Test counter :          0
DTLB Leapfrog:          0
DTLB MSHR merge:          0
DTLB TOTAL     ACCESS:   55205815  HIT:   45786414  MISS:    9419401  HIT %:    82.9377  MISS %:    17.0623   MPKI: 47.097
DTLB LOAD TRANSLATION NON_SPEC    ACCESS:   55205815  HIT:   45786414  MISS:    9419401  HIT %:    82.9377  MISS %:    17.0623   MPKI: 47.097
DTLB PREFETCH  REQUESTED:          0  ISSUED:          0  USEFUL:          0  USELESS:          0
DTLB USEFUL LOAD PREFETCHES:          0 PREFETCH ISSUED TO LOWER LEVEL:          0  ACCURACY: -nan
DTLB TIMELY PREFETCHES:          0 LATE PREFETCHES: 0 DROPPED PREFETCHES: 0
DTLB COMMIT LATE PREFETCHES: 0 NORMAL LATE: 0 MISSED OPPORTUNITY: 0 UNCOVERED: 0
DTLB PREFETCHES SAME FILL-ORIGIN LEVEL: 0 DIFFERENT FILL-ORIGIN LEVEL: 0
DTLB AVERAGE MISS LATENCY: 36.5979 cycles
DTLB AVERAGE MISS LATENCY LOAD: -nan cycles
DTLB AVERAGE MISS LATENCY PREFETCH: -nan cycles
DTLB AVERAGE MSHR OCCUPANCY: 0.362643
DTLB MSHR FULL: 0.00118118
DTLB RQ	ACCESS:   60595180	FORWARD:          0	MERGED:    4599017	TO_CACHE:   55996163

STLB SPEC fills:          0  NON-SPEC fills:          0
STLB Test counter :          0
STLB Leapfrog:          0
STLB MSHR merge:          0
STLB TOTAL     ACCESS:   23655061  HIT:   20631633  MISS:    3023428  HIT %:    87.2187  MISS %:    12.7813   MPKI: 15.1171
STLB LOAD TRANSLATION NON_SPEC    ACCESS:    9419401  HIT:    6396396  MISS:    3023005  HIT %:    67.9066  MISS %:    32.0934   MPKI: 15.115
STLB TRANSLATION FROM L1D PREFETCHER NON_SPEC    ACCESS:   14235660  HIT:   14235237  MISS:        423  HIT %:     99.997  MISS %: 0.00297141   MPKI: 0.002115
STLB PREFETCH  REQUESTED:          0  ISSUED:          0  USEFUL:        362  USELESS:         61
STLB USEFUL LOAD PREFETCHES:        362 PREFETCH ISSUED TO LOWER LEVEL:          0  ACCURACY: inf
STLB TIMELY PREFETCHES:        362 LATE PREFETCHES: 0 DROPPED PREFETCHES: 0
STLB COMMIT LATE PREFETCHES: 0 NORMAL LATE: 0 MISSED OPPORTUNITY: 0 UNCOVERED: 0
STLB PREFETCHES SAME FILL-ORIGIN LEVEL: 0 DIFFERENT FILL-ORIGIN LEVEL: 0
STLB AVERAGE MISS LATENCY: 85.8478 cycles
STLB AVERAGE MISS LATENCY LOAD: -nan cycles
STLB AVERAGE MISS LATENCY PREFETCH: -nan cycles
STLB AVERAGE MSHR OCCUPANCY: 0.185167
STLB MSHR FULL: 0
STLB RQ	ACCESS:   27561004	FORWARD:          0	MERGED:    3905904	TO_CACHE:   23655100

STLB Hit, L1D data hit: 0
STLB Hit, L2C data hit: 0
STLB Hit, LLC data hit: 0
STLB Hit, LLC data miss: 0
STLB STLB hints to L2: 0
L0D SPEC fills:   31979719  NON-SPEC fills:          0
L0D TimeGuard Request with older TS:     283950 Restricted eviction:     304729 read:          0
L0D Test counter :          0
L0D Leapfrog:          0
L0D MSHR merge:     242386
L0D TOTAL     ACCESS:   51231738  HIT:   12359290  MISS:   38872448  HIT %:    24.1243  MISS %:    75.8757   MPKI: 194.362
L0D LOAD      TOTAL       ACCESS:   51231738  HIT:   12359290  MISS:   38872448  HIT %:    24.1243  MISS %:    75.8757   MPKI: 194.362
L0D LOAD      NON_SPEC    ACCESS:    6590104  HIT:       2016  MISS:    6588088  HIT %:  0.0305913  MISS %:    99.9694   MPKI: 32.9404
L0D LOAD      SPEC        ACCESS:   44641634  HIT:   12357274  MISS:   32284360  HIT %:    27.6811  MISS %:    72.3189   MPKI: 161.422
L0D PREFETCH  REQUESTED:          0  ISSUED:          0  USEFUL:          0  USELESS:          0
L0D USEFUL LOAD PREFETCHES:          0 PREFETCH ISSUED TO LOWER LEVEL:          0  ACCURACY: -nan
L0D TIMELY PREFETCHES:          0 LATE PREFETCHES: 0 DROPPED PREFETCHES: 0
L0D COMMIT LATE PREFETCHES: 0 NORMAL LATE: 0 MISSED OPPORTUNITY: 0 UNCOVERED: 0
L0D PREFETCHES SAME FILL-ORIGIN LEVEL: 0 DIFFERENT FILL-ORIGIN LEVEL: 0
L0D AVERAGE MISS LATENCY: 66.0737 cycles
L0D AVERAGE MISS LATENCY LOAD: 66.0737 cycles
L0D AVERAGE MISS LATENCY PREFETCH: -nan cycles
L0D AVERAGE MSHR OCCUPANCY: 1.33258
L0D MSHR FULL: 0.0312171
L0D RQ	ACCESS:   52264991	FORWARD:          0	MERGED:     790872	TO_CACHE:   51474119
L0D WQ	ACCESS:    9121061	FORWARD:          0	MERGED:          0	TO_CACHE:    9121061

L1D SPEC fills:          0  NON-SPEC fills:     618810
L1D Test counter :          0
L1D Leapfrog:          0
L1D MSHR merge:     148749
L1D TOTAL     ACCESS:  102915649  HIT:   52870762  MISS:   50044887  HIT %:    51.3729  MISS %:    48.6271   MPKI: 250.224
L1D LOAD      TOTAL       ACCESS:   38870979  HIT:   22042908  MISS:   16828071  HIT %:    56.7079  MISS %:    43.2921   MPKI: 84.1404
L1D LOAD      NON_SPEC    ACCESS:    6586975  HIT:    5968165  MISS:     618810  HIT %:    90.6056  MISS %:    9.39445   MPKI: 3.09405
L1D LOAD      SPEC        ACCESS:   32284004  HIT:   16074743  MISS:   16209261  HIT %:    49.7917  MISS %:    50.2083   MPKI: 81.0463
L1D RFO       NON_SPEC    ACCESS:    3853799  HIT:    3821525  MISS:      32274  HIT %:    99.1625  MISS %:   0.837459   MPKI: 0.16137
L1D PREFETCH  NON_SPEC    ACCESS:   17888952  HIT:     912845  MISS:   16976107  HIT %:    5.10284  MISS %:    94.8972   MPKI: 84.8805
L1D COMMIT LOAD NON_SPEC    ACCESS:   10583995  HIT:   10368987  MISS:     215008  HIT %:    97.9686  MISS %:    2.03144   MPKI: 1.07504
L1D COMMIT WRITE NON_SPEC    ACCESS:   31717924  HIT:   15724497  MISS:   15993427  HIT %:    49.5761  MISS %:    50.4239   MPKI: 79.9671
L1D PREFETCH  REQUESTED:   18141682  ISSUED:   18141605  USEFUL:     851157  USELESS:   16124964
L1D USEFUL LOAD PREFETCHES:     851157 PREFETCH ISSUED TO LOWER LEVEL:   17132338  ACCURACY: 4.96813
L1D TIMELY PREFETCHES:     851157 LATE PREFETCHES: 148490 DROPPED PREFETCHES: 0
L1D COMMIT LATE PREFETCHES: 319729 NORMAL LATE: 153076 MISSED OPPORTUNITY: 19907 UNCOVERED: 16336705
L1D PREFETCHES SAME FILL-ORIGIN LEVEL: 17132338 DIFFERENT FILL-ORIGIN LEVEL: 0
L1D AVERAGE MISS LATENCY: 109.388 cycles
L1D AVERAGE MISS LATENCY LOAD: 140.957 cycles
L1D AVERAGE MISS LATENCY PREFETCH: 181.563 cycles
L1D AVERAGE MSHR OCCUPANCY: 3.46275
L1D MSHR FULL: 0.0135072
L1D RQ	ACCESS:   52828791	FORWARD:          0	MERGED:    3231705	TO_CACHE:   49457203
L1D WQ	ACCESS:   40839617	FORWARD:     139883	MERGED:    5212780	TO_CACHE:   35626837
L1D PQ	ACCESS:   18141605	FORWARD:          0	MERGED:          0	TO_CACHE:   18141605

L1D UNIQUE REGIONS ACCESSED: 0
L1D REGIONS CONFLICTS: 0
L1D Cross Page Prefetch Requests: 0
L1D Same Page Prefetch Requests: 22453965
L1D ROI Sum of L1D PQ occupancy: 249909465
L1D PREFETCHES PUSHED FROM L2C: 0
L1I SPEC fills:          0  NON-SPEC fills:          0
L1I Test counter :          0
L1I Leapfrog:          0
L1I MSHR merge:          0
L1I TOTAL     ACCESS:   40944933  HIT:   40944933  MISS:          0  HIT %:        100  MISS %:          0   MPKI: 0
L1I LOAD      TOTAL       ACCESS:   40944933  HIT:   40944933  MISS:          0  HIT %:        100  MISS %:          0   MPKI: 0
L1I LOAD      NON_SPEC    ACCESS:   40944933  HIT:   40944933  MISS:          0  HIT %:        100  MISS %:          0   MPKI: 0
L1I PREFETCH  REQUESTED:          0  ISSUED:          0  USEFUL:          0  USELESS:          0
L1I USEFUL LOAD PREFETCHES:          0 PREFETCH ISSUED TO LOWER LEVEL:          0  ACCURACY: -nan
L1I TIMELY PREFETCHES:          0 LATE PREFETCHES: 0 DROPPED PREFETCHES: 0
L1I COMMIT LATE PREFETCHES: 0 NORMAL LATE: 0 MISSED OPPORTUNITY: 0 UNCOVERED: 0
L1I PREFETCHES SAME FILL-ORIGIN LEVEL: 0 DIFFERENT FILL-ORIGIN LEVEL: 0
L1I AVERAGE MISS LATENCY: -nan cycles
L1I AVERAGE MISS LATENCY LOAD: -nan cycles
L1I AVERAGE MISS LATENCY PREFETCH: -nan cycles
L1I AVERAGE MSHR OCCUPANCY: 0
L1I MSHR FULL: 0
L1I RQ	ACCESS:   52456367	FORWARD:          0	MERGED:   11511435	TO_CACHE:   40944932

BTB SPEC fills:          0  NON-SPEC fills:          0
BTB Test counter :          0
BTB Leapfrog:          0
BTB MSHR merge:          0
BTB TOTAL     ACCESS:   38946639  HIT:   38946625  MISS:         14  HIT %:        100  MISS %: 3.59466e-05   MPKI: 7e-05
BTB BRANCH_DIRECT_JUMP	ACCESS:     251798  HIT:     251794  MISS:          4
BTB BRANCH_INDIRECT	ACCESS:          0  HIT:          0  MISS:          0
BTB BRANCH_CONDITIONAL	ACCESS:   38694813  HIT:   38694805  MISS:          8
BTB BRANCH_DIRECT_CALL	ACCESS:         14  HIT:         13  MISS:          1
BTB BRANCH_INDIRECT_CALL	ACCESS:          0  HIT:          0  MISS:          0
BTB BRANCH_RETURN	ACCESS:         14  HIT:         13  MISS:          1
BTB BRANCH_OTHER ACCESS:          0  HIT:          0  MISS:          0

L2C SPEC fills:          0  NON-SPEC fills:     530765
L2C Test counter :          0
L2C Leapfrog:          0
L2C MSHR merge:          0
L2C TOTAL     ACCESS:   66285927  HIT:   21404999  MISS:   44880928  HIT %:    32.2919  MISS %:    67.7081   MPKI: 224.405
L2C LOAD      TOTAL       ACCESS:   16680757  HIT:    1992270  MISS:   14688487  HIT %:    11.9435  MISS %:    88.0565   MPKI: 73.4424
L2C LOAD      NON_SPEC    ACCESS:     605677  HIT:      74912  MISS:     530765  HIT %:    12.3683  MISS %:    87.6317   MPKI: 2.65382
L2C LOAD      SPEC        ACCESS:   16075080  HIT:    1917358  MISS:   14157722  HIT %:    11.9275  MISS %:    88.0725   MPKI: 70.7886
L2C RFO       NON_SPEC    ACCESS:      24517  HIT:      17881  MISS:       6636  HIT %:    72.9331  MISS %:    27.0669   MPKI: 0.03318
L2C PREFETCH  NON_SPEC    ACCESS:   17132332  HIT:    1630218  MISS:   15502114  HIT %:    9.51545  MISS %:    90.4846   MPKI: 77.5106
L2C WRITEBACK NON_SPEC    ACCESS:     251031  HIT:     250823  MISS:        208  HIT %:    99.9171  MISS %:  0.0828583   MPKI: 0.00104
L2C CLEAN_EVICTION NON_SPEC    ACCESS:   16866392  HIT:    2735925  MISS:   14130467  HIT %:    16.2212  MISS %:    83.7788   MPKI: 70.6523
L2C COMMIT LOAD NON_SPEC    ACCESS:     213774  HIT:      56157  MISS:     157617  HIT %:    26.2693  MISS %:    73.7307   MPKI: 0.788085
L2C LOAD TRANSLATION NON_SPEC    ACCESS:   15115009  HIT:   14719689  MISS:     395320  HIT %:    97.3846  MISS %:    2.61541   MPKI: 1.9766
L2C TRANSLATION FROM L1D PREFETCHER NON_SPEC    ACCESS:       2115  HIT:       2036  MISS:         79  HIT %:    96.2648  MISS %:    3.73522   MPKI: 0.000395
L2C PREFETCH  REQUESTED:          0  ISSUED:          0  USEFUL:     326031  USELESS:   15176293
L2C USEFUL LOAD PREFETCHES:     326031 PREFETCH ISSUED TO LOWER LEVEL:   15502114  ACCURACY: 2.10314
L2C TIMELY PREFETCHES:     326031 LATE PREFETCHES: 0 DROPPED PREFETCHES: 0
L2C COMMIT LATE PREFETCHES: 0 NORMAL LATE: 0 MISSED OPPORTUNITY: 0 UNCOVERED: 14688490
L2C PREFETCHES SAME FILL-ORIGIN LEVEL: 0 DIFFERENT FILL-ORIGIN LEVEL: 0
L2C AVERAGE MISS LATENCY: 112.808 cycles
L2C AVERAGE MISS LATENCY LOAD: 146.795 cycles
L2C AVERAGE MISS LATENCY PREFETCH: 184.704 cycles
L2C AVERAGE MSHR OCCUPANCY: 3.346
L2C MSHR FULL: 0
L2C RQ	ACCESS:   32036243	FORWARD:          0	MERGED:          0	TO_CACHE:   32036174
L2C WQ	ACCESS:   17117428	FORWARD:         79	MERGED:          4	TO_CACHE:   17117424
L2C PQ	ACCESS:   17132338	FORWARD:          0	MERGED:          0	TO_CACHE:   17132328

L2C Instructions Evicting Data 0
L2C Translations Evicting Data 394988
L2C Data Evicting Data 15985982
L2C Instructions Evicting Instructions 0
L2C Translations Evicting Instructions 0
L2C Data Evicting Instructions 0
L2C Instructions Evicting Translations 0
L2C Translations Evicting Translations 411
L2C Data Evicting Translations 211150
L2C Dense regions hint from L2: 0
PSCL5 SPEC fills:          0  NON-SPEC fills:          0
PSCL5 Test counter :          0
PSCL5 Leapfrog:          0
PSCL5 MSHR merge:          0
PSCL5 TOTAL     ACCESS:          0  HIT:          0  MISS:          0  HIT %:       -nan  MISS %:       -nan   MPKI: 0
PSCL5 PREFETCH  REQUESTED:          0  ISSUED:          0  USEFUL:          0  USELESS:          0
PSCL5 USEFUL LOAD PREFETCHES:          0 PREFETCH ISSUED TO LOWER LEVEL:          0  ACCURACY: -nan
PSCL5 TIMELY PREFETCHES:          0 LATE PREFETCHES: 0 DROPPED PREFETCHES: 0
PSCL5 COMMIT LATE PREFETCHES: 0 NORMAL LATE: 0 MISSED OPPORTUNITY: 0 UNCOVERED: 0
PSCL5 PREFETCHES SAME FILL-ORIGIN LEVEL: 0 DIFFERENT FILL-ORIGIN LEVEL: 0

PSCL4 SPEC fills:          0  NON-SPEC fills:          0
PSCL4 Test counter :          0
PSCL4 Leapfrog:          0
PSCL4 MSHR merge:          0
PSCL4 TOTAL     ACCESS:          0  HIT:          0  MISS:          0  HIT %:       -nan  MISS %:       -nan   MPKI: 0
PSCL4 PREFETCH  REQUESTED:          0  ISSUED:          0  USEFUL:          0  USELESS:          0
PSCL4 USEFUL LOAD PREFETCHES:          0 PREFETCH ISSUED TO LOWER LEVEL:          0  ACCURACY: -nan
PSCL4 TIMELY PREFETCHES:          0 LATE PREFETCHES: 0 DROPPED PREFETCHES: 0
PSCL4 COMMIT LATE PREFETCHES: 0 NORMAL LATE: 0 MISSED OPPORTUNITY: 0 UNCOVERED: 0
PSCL4 PREFETCHES SAME FILL-ORIGIN LEVEL: 0 DIFFERENT FILL-ORIGIN LEVEL: 0

PSCL3 SPEC fills:          0  NON-SPEC fills:          0
PSCL3 Test counter :          0
PSCL3 Leapfrog:          0
PSCL3 MSHR merge:          0
PSCL3 TOTAL     ACCESS:          0  HIT:          0  MISS:          0  HIT %:       -nan  MISS %:       -nan   MPKI: 0
PSCL3 PREFETCH  REQUESTED:          0  ISSUED:          0  USEFUL:          0  USELESS:          0
PSCL3 USEFUL LOAD PREFETCHES:          0 PREFETCH ISSUED TO LOWER LEVEL:          0  ACCURACY: -nan
PSCL3 TIMELY PREFETCHES:          0 LATE PREFETCHES: 0 DROPPED PREFETCHES: 0
PSCL3 COMMIT LATE PREFETCHES: 0 NORMAL LATE: 0 MISSED OPPORTUNITY: 0 UNCOVERED: 0
PSCL3 PREFETCHES SAME FILL-ORIGIN LEVEL: 0 DIFFERENT FILL-ORIGIN LEVEL: 0

PSCL2 SPEC fills:          0  NON-SPEC fills:          0
PSCL2 Test counter :          0
PSCL2 Leapfrog:          0
PSCL2 MSHR merge:          0
PSCL2 TOTAL     ACCESS:          0  HIT:          0  MISS:          0  HIT %:       -nan  MISS %:       -nan   MPKI: 0
PSCL2 PREFETCH  REQUESTED:          0  ISSUED:          0  USEFUL:          0  USELESS:          0
PSCL2 USEFUL LOAD PREFETCHES:          0 PREFETCH ISSUED TO LOWER LEVEL:          0  ACCURACY: -nan
PSCL2 TIMELY PREFETCHES:          0 LATE PREFETCHES: 0 DROPPED PREFETCHES: 0
PSCL2 COMMIT LATE PREFETCHES: 0 NORMAL LATE: 0 MISSED OPPORTUNITY: 0 UNCOVERED: 0
PSCL2 PREFETCHES SAME FILL-ORIGIN LEVEL: 0 DIFFERENT FILL-ORIGIN LEVEL: 0

LLC SPEC fills:          0  NON-SPEC fills:     352308
LLC Test counter :          0
LLC Leapfrog:          0
LLC MSHR merge:          0
LLC TOTAL     ACCESS:   46436145  HIT:   17162909  MISS:   29273236  HIT %:    36.9602  MISS %:    63.0398   MPKI: 146.366
LLC LOAD      TOTAL       ACCESS:   14688424  HIT:    5653857  MISS:    9034567  HIT %:    38.4919  MISS %:    61.5081   MPKI: 45.1728
LLC LOAD      NON_SPEC    ACCESS:     530762  HIT:     178454  MISS:     352308  HIT %:    33.6222  MISS %:    66.3778   MPKI: 1.76154
LLC LOAD      SPEC        ACCESS:   14157662  HIT:    5475403  MISS:    8682259  HIT %:    38.6745  MISS %:    61.3255   MPKI: 43.4113
LLC RFO       NON_SPEC    ACCESS:       6636  HIT:        341  MISS:       6295  HIT %:    5.13864  MISS %:    94.8614   MPKI: 0.031475
LLC PREFETCH  NON_SPEC    ACCESS:   15502061  HIT:    4923088  MISS:   10578973  HIT %:    31.7576  MISS %:    68.2424   MPKI: 52.8949
LLC WRITEBACK NON_SPEC    ACCESS:     242231  HIT:     242186  MISS:         45  HIT %:    99.9814  MISS %:  0.0185773   MPKI: 0.000225
LLC CLEAN_EVICTION NON_SPEC    ACCESS:   15443800  HIT:    5893099  MISS:    9550701  HIT %:    38.1583  MISS %:    61.8417   MPKI: 47.7535
LLC COMMIT LOAD NON_SPEC    ACCESS:     157594  HIT:     119572  MISS:      38022  HIT %:    75.8734  MISS %:    24.1266   MPKI: 0.19011
LLC LOAD TRANSLATION NON_SPEC    ACCESS:     395320  HIT:     330704  MISS:      64616  HIT %:    83.6548  MISS %:    16.3452   MPKI: 0.32308
LLC TRANSLATION FROM L1D PREFETCHER NON_SPEC    ACCESS:         79  HIT:         62  MISS:         17  HIT %:     78.481  MISS %:     21.519   MPKI: 8.5e-05
LLC PREFETCH  REQUESTED:          0  ISSUED:          0  USEFUL:     946974  USELESS:    9632658
LLC USEFUL LOAD PREFETCHES:     946974 PREFETCH ISSUED TO LOWER LEVEL:   10578973  ACCURACY: 8.95147
LLC TIMELY PREFETCHES:     946974 LATE PREFETCHES: 0 DROPPED PREFETCHES: 0
LLC COMMIT LATE PREFETCHES: 0 NORMAL LATE: 0 MISSED OPPORTUNITY: 0 UNCOVERED: 0
LLC PREFETCHES SAME FILL-ORIGIN LEVEL: 0 DIFFERENT FILL-ORIGIN LEVEL: 0
LLC AVERAGE MISS LATENCY: 145.761 cycles
LLC AVERAGE MISS LATENCY LOAD: 203.963 cycles
LLC AVERAGE MISS LATENCY PREFETCH: 226.631 cycles
LLC AVERAGE MSHR OCCUPANCY: 2.81923
LLC MSHR FULL: 0
LLC RQ	ACCESS:   15248142	FORWARD:          0	MERGED:          0	TO_CACHE:   15248056
LLC WQ	ACCESS:   15686031	FORWARD:        139	MERGED:          0	TO_CACHE:   15686031
LLC PQ	ACCESS:   15502114	FORWARD:          0	MERGED:          0	TO_CACHE:   15502061

LLC Dense regions hint to LLC: 0

RAW hits: 233966
Loads Generated: 52498956
Loads sent to L1D: 52264991
Stores Generated: 9121061
Stores sent to L1D: 9121061
Major fault: 0 Minor fault: 33138
Allocated PAGES: 33138
Total Load insts: 64394994
Total Non-spec loads: 6875098
Percentage of speculative loads: 89.3236

LeapFrogging counter: 232928
Commit hits: 31718555 miss: 13956344
Commit hit %: 69.4442 miss %: 30.5558
Commits not translated: 0
Loads retired: 16828071
Stores retired: 9121061
Cache fills: 16828071
L1D response latency: 140.957 cycles
Load retirement latency: 266.849 cycles
OOO test counter: 0
Discarded buffer inserts: 31718555 hits: 12192 hit %: 0.0384381
Filter prediction accuracy: -nan

stream: 
stream:times selected: 24394053
stream:pref_filled: 19666175
stream:pref_useful: 614486
stream:pref_late: 15958
stream:misses: 5366084
stream:misses_by_poll: 0

CS: 
CS:times selected: 2705188
CS:pref_filled: 547221
CS:pref_useful: 439892
CS:pref_late: 1028
CS:misses: 59758
CS:misses_by_poll: 12689

CPLX: 
CPLX:times selected: 23845612
CPLX:pref_filled: 963974
CPLX:pref_useful: 36135
CPLX:pref_late: 880
CPLX:misses: 19599442
CPLX:misses_by_poll: 52098

NL_L1: 
NL:times selected: 19626
NL:pref_filled: 17313
NL:pref_useful: 83
NL:pref_late: 2
NL:misses: 20903
NL:misses_by_poll: 0

total selections: 50964479
total_filled: 16976107
total_useful: 851157
total_late: 18207
total_polluted: 64787
total_misses_after_warmup: 20680735
conflicts: 0
Degree Incremented Times: 97090
Degree Decremented Times: 919293

L1 IP Table Write Accesses: 61616787
L1 IP Table Read Accesses: 61616787
L1 RST Write Accesses: 18533033
L1 RST Read Accesses: 37066066
L1 CSPT Write Accesses: 18533033
L1 CSPT Read Accesses: 36543486
L1 RR Filter Tag Write Accesses: 18141682
L1 RR Filter Tag Read Accesses: 662938592
L1 IP Table Tag Write Accesses: 61616815
L1 IP Table Tag Read Accesses: 61616815
L1 RST Tag Write Accesses: 0
L1 RST Tag Read Accesses: 167210910
L1 RR Filter Write Accesses: 0
L1 RR Filter Read Accesses: 21210219
test: 10374649

stream: 
stream:times selected: 21875429
stream:pref_filled: 19666175
stream:pref_useful: 614486
stream:pref_late: 15958
stream:misses: 4475967
stream:misses_by_poll: 0

CS: 
CS:times selected: 1186792
CS:pref_filled: 547221
CS:pref_useful: 439892
CS:pref_late: 1028
CS:misses: 49745
CS:misses_by_poll: 288

CPLX: 
CPLX:times selected: 21360498
CPLX:pref_filled: 963974
CPLX:pref_useful: 36135
CPLX:pref_late: 880
CPLX:misses: 15864226
CPLX:misses_by_poll: 324

NL_L1: 
NL:times selected: 21949
NL:pref_filled: 17313
NL:pref_useful: 83
NL:pref_late: 2
NL:misses: 21730
NL:misses_by_poll: 0

total selections: 44444668
total_filled: 16976107
total_useful: 851157
total_late: 18207
total_polluted: 612
total_misses_after_warmup: 16829541
conflicts: 2
Degree Incremented Times: 61578
Degree Decremented Times: 372264

L1 IP Table Write Accesses: 38872435
L1 IP Table Read Accesses: 38872433
L1 RST Write Accesses: 18010625
L1 RST Read Accesses: 36021250
L1 CSPT Write Accesses: 18010625
L1 CSPT Read Accesses: 35526523
L1 RR Filter Tag Write Accesses: 17876685
L1 RR Filter Tag Read Accesses: 629401885
L1 IP Table Tag Write Accesses: 38872449
L1 IP Table Tag Read Accesses: 38872449
L1 RST Tag Write Accesses: 0
L1 RST Tag Read Accesses: 162418387
L1 RR Filter Write Accesses: 0
L1 RR Filter Read Accesses: 20106714
test_pseudo: 9820480

DRAM Statistics
 CHANNEL 0
 RQ ROW_BUFFER_HIT:    2861566  ROW_BUFFER_MISS:   16852456
 DBUS_CONGESTED:       2363
 WQ ROW_BUFFER_HIT:    2812941  ROW_BUFFER_MISS:    8762150  FULL:          0

 AVG_CONGESTED_CYCLE: 5
 All warmup complete: 2
Channel 0 Bank busy for read cycles: 0
Channel 0 Bank busy for write cycles: 0
Channel 0
Rank 0
0banks busy for read cycles: 3366779
0banks busy for write cycles: 327
1banks busy for read cycles: 269634484
1banks busy for write cycles: 2852820
2banks busy for read cycles: 340840208
2banks busy for write cycles: 2843879
3banks busy for read cycles: 265085395
3banks busy for write cycles: 2834063
4banks busy for read cycles: 145777033
4banks busy for write cycles: 2847297
5banks busy for read cycles: 55896163
5banks busy for write cycles: 3165942
6banks busy for read cycles: 15002555
6banks busy for write cycles: 9898700
7banks busy for read cycles: 2667753
7banks busy for write cycles: 74951789
8banks busy for read cycles: 580348
8banks busy for write cycles: 275968464

CPU 0 Branch Prediction Accuracy: 88.9318% MPKI: 21.5679 Average ROB Occupancy at Mispredict: 32.0363
Branch types
NOT_BRANCH: 161027009 80.5135%
BRANCH_DIRECT_JUMP: 251798 0.125899%
BRANCH_INDIRECT: 0 0%
BRANCH_CONDITIONAL: 38720841 19.3604%
BRANCH_DIRECT_CALL: 14 7e-06%
BRANCH_INDIRECT_CALL: 0 0%
BRANCH_RETURN: 14 7e-06%
BRANCH_OTHER: 0 0%

DRAM PAGES: 1048576
Allocated PAGES: 33138
