
*** ChampSim Multicore Out-of-Order Simulator ***

Warmup Instructions: 50000000
Simulation Instructions: 200000000
Number of CPUs: 1
LLC sets: 2048
LLC ways: 16
L0D sets: 16
L0D ways: 2
ROB size: 352
LQ size: 128
SQ size: 72
Secure Berti: OFF
Berti: OFF
Berti Fill: OFF
On commit prefetching: ON
Hit-based filter: OFF
Time-guarding: ON
Free-slotting: ON
Leap-frogging: ON
Train prefetcher on L0D bypass: OFF
No translation penalty for prefetchers: OFF
Prefetch to L0D only: OFF
Prefetch to L1D only: OFF
Clean evictions: ON
Commit loads: ON
Commit write: ON
Fill commit loads to L2C, LLC: ON
DRAM IO FREQUENCY: 6400
ROB SIZE: 352
Off-chip DRAM Size: 4096 MB Channels: 1 Width: 64-bit Data Rate: 6400 MT/s
CPU 0 runs /home/sumon/secure_berti/GhostMinion/../../traces/gap/bc-12.trace.gz
.gz
BTB has LRU replacement policy
ITLB has LRU replacement policy
DTLB has LRU replacement policy
STLB has LRU replacement policy
L1I has LRU replacement policy
L0D has LRU replacement policy
IP Table Entries: 1024
CSPT Entries: 128
RR_ENTRIES: 32
RST_ENTRIES: 8
IP Table Entries: 1024
CSPT Entries: 128
RR_ENTRIES: 32
RST_ENTRIES: 8
L1D has LRU replacement policy
L2C has LRU replacement policy
LLC has LRU replacement policy
Heartbeat CPU 0 instructions: 10000001 cycles: 3901918 heartbeat IPC: 2.56284 cumulative IPC: 2.56284 (Simulation time: 0 hr 2 min 14 sec) 
Heartbeat CPU 0 instructions: 20000000 cycles: 7464634 heartbeat IPC: 2.80685 cumulative IPC: 2.6793 (Simulation time: 0 hr 4 min 28 sec) 
Heartbeat CPU 0 instructions: 30000002 cycles: 11062171 heartbeat IPC: 2.77968 cumulative IPC: 2.71195 (Simulation time: 0 hr 6 min 42 sec) 
Heartbeat CPU 0 instructions: 40000000 cycles: 14653301 heartbeat IPC: 2.78464 cumulative IPC: 2.72976 (Simulation time: 0 hr 8 min 55 sec) 
Heartbeat CPU 0 instructions: 50000001 cycles: 18209007 heartbeat IPC: 2.81238 cumulative IPC: 2.74589 (Simulation time: 0 hr 11 min 8 sec) 

Warmup complete CPU 0 instructions: 50000001 cycles: 18209007 (Simulation time: 0 hr 11 min 8 sec) 

Heartbeat CPU 0 instructions: 60000000 cycles: 97423022 heartbeat IPC: 0.12624 cumulative IPC: 0.12624 (Simulation time: 0 hr 13 min 39 sec) 
Heartbeat CPU 0 instructions: 70000002 cycles: 177474584 heartbeat IPC: 0.12492 cumulative IPC: 0.125576 (Simulation time: 0 hr 15 min 25 sec) 
Heartbeat CPU 0 instructions: 80000001 cycles: 257188271 heartbeat IPC: 0.125449 cumulative IPC: 0.125534 (Simulation time: 0 hr 16 min 57 sec) 
Heartbeat CPU 0 instructions: 90000002 cycles: 337721001 heartbeat IPC: 0.124173 cumulative IPC: 0.125191 (Simulation time: 0 hr 18 min 24 sec) 
Heartbeat CPU 0 instructions: 100000001 cycles: 418035917 heartbeat IPC: 0.12451 cumulative IPC: 0.125054 (Simulation time: 0 hr 19 min 52 sec) 
Heartbeat CPU 0 instructions: 110000000 cycles: 498610712 heartbeat IPC: 0.124108 cumulative IPC: 0.124895 (Simulation time: 0 hr 21 min 18 sec) 
Heartbeat CPU 0 instructions: 120000001 cycles: 578757559 heartbeat IPC: 0.124771 cumulative IPC: 0.124878 (Simulation time: 0 hr 22 min 37 sec) 
Heartbeat CPU 0 instructions: 130000003 cycles: 659407003 heartbeat IPC: 0.123993 cumulative IPC: 0.124766 (Simulation time: 0 hr 23 min 49 sec) 
Heartbeat CPU 0 instructions: 140000000 cycles: 739445574 heartbeat IPC: 0.12494 cumulative IPC: 0.124786 (Simulation time: 0 hr 24 min 57 sec) 
Heartbeat CPU 0 instructions: 150000000 cycles: 820234204 heartbeat IPC: 0.12378 cumulative IPC: 0.124684 (Simulation time: 0 hr 26 min 2 sec) 
Heartbeat CPU 0 instructions: 160000001 cycles: 900342849 heartbeat IPC: 0.12483 cumulative IPC: 0.124698 (Simulation time: 0 hr 27 min 5 sec) 
Heartbeat CPU 0 instructions: 170000003 cycles: 979963544 heartbeat IPC: 0.125596 cumulative IPC: 0.124772 (Simulation time: 0 hr 28 min 8 sec) 
Heartbeat CPU 0 instructions: 180000001 cycles: 1060363044 heartbeat IPC: 0.124379 cumulative IPC: 0.124742 (Simulation time: 0 hr 29 min 12 sec) 
Heartbeat CPU 0 instructions: 190000003 cycles: 1137810581 heartbeat IPC: 0.12912 cumulative IPC: 0.125044 (Simulation time: 0 hr 30 min 15 sec) 
Heartbeat CPU 0 instructions: 200000000 cycles: 1218248274 heartbeat IPC: 0.12432 cumulative IPC: 0.124996 (Simulation time: 0 hr 31 min 18 sec) 
Heartbeat CPU 0 instructions: 210000002 cycles: 1298541924 heartbeat IPC: 0.124543 cumulative IPC: 0.124968 (Simulation time: 0 hr 32 min 21 sec) 
Heartbeat CPU 0 instructions: 220000000 cycles: 1378971709 heartbeat IPC: 0.124332 cumulative IPC: 0.12493 (Simulation time: 0 hr 33 min 24 sec) 
Heartbeat CPU 0 instructions: 230000001 cycles: 1459275293 heartbeat IPC: 0.124527 cumulative IPC: 0.124908 (Simulation time: 0 hr 34 min 25 sec) 
Heartbeat CPU 0 instructions: 240000001 cycles: 1539881824 heartbeat IPC: 0.124059 cumulative IPC: 0.124863 (Simulation time: 0 hr 35 min 27 sec) 
Heartbeat CPU 0 instructions: 250000003 cycles: 1619907364 heartbeat IPC: 0.12496 cumulative IPC: 0.124867 (Simulation time: 0 hr 36 min 27 sec) 
Finished CPU 0 instructions: 200000002 cycles: 1601698357 cumulative IPC: 0.124867 (Simulation time: 0 hr 36 min 27 sec) 
 Instruction ID: 250000045

ChampSim completed all CPUs

Region of Interest Statistics

CPU 0 cumulative IPC: 0.124867 instructions: 200000002 cycles: 1601698357
ITLB SPEC fills:          0  NON-SPEC fills:          0
ITLB Test counter :          0
ITLB Leapfrog:          0
ITLB MSHR merge:          0
ITLB TOTAL     ACCESS:   36669401  HIT:   36669401  MISS:          0  HIT %:        100  MISS %:          0   MPKI: 0
ITLB LOAD TRANSLATION NON_SPEC    ACCESS:   36669401  HIT:   36669401  MISS:          0  HIT %:        100  MISS %:          0   MPKI: 0
ITLB PREFETCH  REQUESTED:          0  ISSUED:          0  USEFUL:          0  USELESS:          0
ITLB USEFUL LOAD PREFETCHES:          0 PREFETCH ISSUED TO LOWER LEVEL:          0  ACCURACY: -nan
ITLB TIMELY PREFETCHES:          0 LATE PREFETCHES: 0 DROPPED PREFETCHES: 0
ITLB COMMIT LATE PREFETCHES: 0 NORMAL LATE: 0 MISSED OPPORTUNITY: 0 UNCOVERED: 0
ITLB PREFETCHES SAME FILL-ORIGIN LEVEL: 0 DIFFERENT FILL-ORIGIN LEVEL: 0
ITLB AVERAGE MISS LATENCY: -nan cycles
ITLB AVERAGE MISS LATENCY LOAD: -nan cycles
ITLB AVERAGE MISS LATENCY PREFETCH: -nan cycles
ITLB AVERAGE MSHR OCCUPANCY: 0
ITLB MSHR FULL: 0
ITLB RQ	ACCESS:   36968331	FORWARD:          0	MERGED:     298930	TO_CACHE:   36669401

DTLB SPEC fills:          0  NON-SPEC fills:          0
DTLB Test counter :          0
DTLB Leapfrog:          0
DTLB MSHR merge:          0
DTLB TOTAL     ACCESS:   60060605  HIT:   51554109  MISS:    8506496  HIT %:    85.8368  MISS %:    14.1632   MPKI: 42.5325
DTLB LOAD TRANSLATION NON_SPEC    ACCESS:   60060605  HIT:   51554109  MISS:    8506496  HIT %:    85.8368  MISS %:    14.1632   MPKI: 42.5325
DTLB PREFETCH  REQUESTED:          0  ISSUED:          0  USEFUL:          0  USELESS:          0
DTLB USEFUL LOAD PREFETCHES:          0 PREFETCH ISSUED TO LOWER LEVEL:          0  ACCURACY: -nan
DTLB TIMELY PREFETCHES:          0 LATE PREFETCHES: 0 DROPPED PREFETCHES: 0
DTLB COMMIT LATE PREFETCHES: 0 NORMAL LATE: 0 MISSED OPPORTUNITY: 0 UNCOVERED: 0
DTLB PREFETCHES SAME FILL-ORIGIN LEVEL: 0 DIFFERENT FILL-ORIGIN LEVEL: 0
DTLB AVERAGE MISS LATENCY: 42.5222 cycles
DTLB AVERAGE MISS LATENCY LOAD: -nan cycles
DTLB AVERAGE MISS LATENCY PREFETCH: -nan cycles
DTLB AVERAGE MSHR OCCUPANCY: 0.252197
DTLB MSHR FULL: 0.000450704
DTLB RQ	ACCESS:   66043234	FORWARD:          0	MERGED:    5227686	TO_CACHE:   60815548

STLB SPEC fills:          0  NON-SPEC fills:          0
STLB Test counter :          0
STLB Leapfrog:          0
STLB MSHR merge:          0
STLB TOTAL     ACCESS:   22724077  HIT:   19370929  MISS:    3353148  HIT %:    85.2441  MISS %:    14.7559   MPKI: 16.7657
STLB LOAD TRANSLATION NON_SPEC    ACCESS:    8506496  HIT:    5153848  MISS:    3352648  HIT %:    60.5872  MISS %:    39.4128   MPKI: 16.7632
STLB TRANSLATION FROM L1D PREFETCHER NON_SPEC    ACCESS:   14217581  HIT:   14217081  MISS:        500  HIT %:    99.9965  MISS %: 0.00351677   MPKI: 0.0025
STLB PREFETCH  REQUESTED:          0  ISSUED:          0  USEFUL:        456  USELESS:         44
STLB USEFUL LOAD PREFETCHES:        456 PREFETCH ISSUED TO LOWER LEVEL:          0  ACCURACY: inf
STLB TIMELY PREFETCHES:        456 LATE PREFETCHES: 0 DROPPED PREFETCHES: 0
STLB COMMIT LATE PREFETCHES: 0 NORMAL LATE: 0 MISSED OPPORTUNITY: 0 UNCOVERED: 0
STLB PREFETCHES SAME FILL-ORIGIN LEVEL: 0 DIFFERENT FILL-ORIGIN LEVEL: 0
STLB AVERAGE MISS LATENCY: 84.9819 cycles
STLB AVERAGE MISS LATENCY LOAD: -nan cycles
STLB AVERAGE MISS LATENCY PREFETCH: -nan cycles
STLB AVERAGE MSHR OCCUPANCY: 0.174506
STLB MSHR FULL: 0
STLB RQ	ACCESS:   26098539	FORWARD:          0	MERGED:    3374406	TO_CACHE:   22724133

STLB Hit, L1D data hit: 0
STLB Hit, L2C data hit: 0
STLB Hit, LLC data hit: 0
STLB Hit, LLC data miss: 0
STLB STLB hints to L2: 0
L0D SPEC fills:   35656793  NON-SPEC fills:          0
L0D TimeGuard Request with older TS:     401484 Restricted eviction:     401808 read:          2
L0D Test counter :          0
L0D Leapfrog:          0
L0D MSHR merge:     258375
L0D TOTAL     ACCESS:   54539920  HIT:    9185029  MISS:   45354891  HIT %:    16.8409  MISS %:    83.1591   MPKI: 226.774
L0D LOAD      TOTAL       ACCESS:   54539920  HIT:    9185029  MISS:   45354891  HIT %:    16.8409  MISS %:    83.1591   MPKI: 226.774
L0D LOAD      NON_SPEC    ACCESS:    9305038  HIT:       8682  MISS:    9296356  HIT %:  0.0933043  MISS %:    99.9067   MPKI: 46.4818
L0D LOAD      SPEC        ACCESS:   45234882  HIT:    9176347  MISS:   36058535  HIT %:     20.286  MISS %:     79.714   MPKI: 180.293
L0D PREFETCH  REQUESTED:          0  ISSUED:          0  USEFUL:          0  USELESS:          0
L0D USEFUL LOAD PREFETCHES:          0 PREFETCH ISSUED TO LOWER LEVEL:          0  ACCURACY: -nan
L0D TIMELY PREFETCHES:          0 LATE PREFETCHES: 0 DROPPED PREFETCHES: 0
L0D COMMIT LATE PREFETCHES: 0 NORMAL LATE: 0 MISSED OPPORTUNITY: 0 UNCOVERED: 0
L0D PREFETCHES SAME FILL-ORIGIN LEVEL: 0 DIFFERENT FILL-ORIGIN LEVEL: 0
L0D AVERAGE MISS LATENCY: 60.6376 cycles
L0D AVERAGE MISS LATENCY LOAD: 60.6376 cycles
L0D AVERAGE MISS LATENCY PREFETCH: -nan cycles
L0D AVERAGE MSHR OCCUPANCY: 1.72576
L0D MSHR FULL: 0.0795087
L0D RQ	ACCESS:   55488872	FORWARD:          0	MERGED:     690576	TO_CACHE:   54798296
L0D WQ	ACCESS:   11244938	FORWARD:          0	MERGED:          0	TO_CACHE:   11244938

L1D SPEC fills:          0  NON-SPEC fills:    3655374
L1D Test counter :          0
L1D Leapfrog:          0
L1D MSHR merge:     218931
L1D TOTAL     ACCESS:  112735288  HIT:   66809515  MISS:   45925773  HIT %:    59.2623  MISS %:    40.7377   MPKI: 229.629
L1D LOAD      TOTAL       ACCESS:   45352963  HIT:   28831140  MISS:   16521823  HIT %:    63.5706  MISS %:    36.4294   MPKI: 82.6091
L1D LOAD      NON_SPEC    ACCESS:    9294868  HIT:    5639494  MISS:    3655374  HIT %:    60.6732  MISS %:    39.3268   MPKI: 18.2769
L1D LOAD      SPEC        ACCESS:   36058095  HIT:   23191646  MISS:   12866449  HIT %:    64.3174  MISS %:    35.6826   MPKI: 64.3322
L1D RFO       NON_SPEC    ACCESS:    6860950  HIT:    6828980  MISS:      31970  HIT %:     99.534  MISS %:    0.46597   MPKI: 0.15985
L1D PREFETCH  NON_SPEC    ACCESS:   17210589  HIT:     689080  MISS:   16521509  HIT %:    4.00381  MISS %:    95.9962   MPKI: 82.6075
L1D COMMIT LOAD NON_SPEC    ACCESS:    7884753  HIT:    7681862  MISS:     202891  HIT %:    97.4268  MISS %:    2.57321   MPKI: 1.01445
L1D COMMIT WRITE NON_SPEC    ACCESS:   35426033  HIT:   22778453  MISS:   12647580  HIT %:    64.2986  MISS %:    35.7014   MPKI: 63.2379
L1D PREFETCH  REQUESTED:   17592074  ISSUED:   17592043  USEFUL:     767385  USELESS:   15754115
L1D USEFUL LOAD PREFETCHES:     767385 PREFETCH ISSUED TO LOWER LEVEL:   16748571  ACCURACY: 4.58179
L1D TIMELY PREFETCHES:     767385 LATE PREFETCHES: 219623 DROPPED PREFETCHES: 0
L1D COMMIT LATE PREFETCHES: 420774 NORMAL LATE: 229930 MISSED OPPORTUNITY: 23151 UNCOVERED: 15850926
L1D PREFETCHES SAME FILL-ORIGIN LEVEL: 16748571 DIFFERENT FILL-ORIGIN LEVEL: 0
L1D AVERAGE MISS LATENCY: 121.562 cycles
L1D AVERAGE MISS LATENCY LOAD: 151.457 cycles
L1D AVERAGE MISS LATENCY PREFETCH: 185.166 cycles
L1D AVERAGE MSHR OCCUPANCY: 3.16066
L1D MSHR FULL: 0.00952647
L1D RQ	ACCESS:   56109105	FORWARD:          0	MERGED:    2208817	TO_CACHE:   53240594
L1D WQ	ACCESS:   46674572	FORWARD:     659694	MERGED:    4316302	TO_CACHE:   42358270
L1D PQ	ACCESS:   17592043	FORWARD:          0	MERGED:          0	TO_CACHE:   17592043

L1D UNIQUE REGIONS ACCESSED: 0
L1D REGIONS CONFLICTS: 0
L1D Cross Page Prefetch Requests: 0
L1D Same Page Prefetch Requests: 21959813
L1D ROI Sum of L1D PQ occupancy: 242790880
L1D PREFETCHES PUSHED FROM L2C: 0
L1I SPEC fills:          0  NON-SPEC fills:          0
L1I Test counter :          0
L1I Leapfrog:          0
L1I MSHR merge:          0
L1I TOTAL     ACCESS:   36968331  HIT:   36968331  MISS:          0  HIT %:        100  MISS %:          0   MPKI: 0
L1I LOAD      TOTAL       ACCESS:   36968331  HIT:   36968331  MISS:          0  HIT %:        100  MISS %:          0   MPKI: 0
L1I LOAD      NON_SPEC    ACCESS:   36968331  HIT:   36968331  MISS:          0  HIT %:        100  MISS %:          0   MPKI: 0
L1I PREFETCH  REQUESTED:          0  ISSUED:          0  USEFUL:          0  USELESS:          0
L1I USEFUL LOAD PREFETCHES:          0 PREFETCH ISSUED TO LOWER LEVEL:          0  ACCURACY: -nan
L1I TIMELY PREFETCHES:          0 LATE PREFETCHES: 0 DROPPED PREFETCHES: 0
L1I COMMIT LATE PREFETCHES: 0 NORMAL LATE: 0 MISSED OPPORTUNITY: 0 UNCOVERED: 0
L1I PREFETCHES SAME FILL-ORIGIN LEVEL: 0 DIFFERENT FILL-ORIGIN LEVEL: 0
L1I AVERAGE MISS LATENCY: -nan cycles
L1I AVERAGE MISS LATENCY LOAD: -nan cycles
L1I AVERAGE MISS LATENCY PREFETCH: -nan cycles
L1I AVERAGE MSHR OCCUPANCY: 0
L1I MSHR FULL: 0
L1I RQ	ACCESS:   48283888	FORWARD:          0	MERGED:   11315557	TO_CACHE:   36968331

BTB SPEC fills:          0  NON-SPEC fills:          0
BTB Test counter :          0
BTB Leapfrog:          0
BTB MSHR merge:          0
BTB TOTAL     ACCESS:   35189020  HIT:   35189006  MISS:         14  HIT %:        100  MISS %: 3.97851e-05   MPKI: 7e-05
BTB BRANCH_DIRECT_JUMP	ACCESS:     253973  HIT:     253969  MISS:          4
BTB BRANCH_INDIRECT	ACCESS:          0  HIT:          0  MISS:          0
BTB BRANCH_CONDITIONAL	ACCESS:   34935019  HIT:   34935011  MISS:          8
BTB BRANCH_DIRECT_CALL	ACCESS:         14  HIT:         13  MISS:          1
BTB BRANCH_INDIRECT_CALL	ACCESS:          0  HIT:          0  MISS:          0
BTB BRANCH_RETURN	ACCESS:         14  HIT:         13  MISS:          1
BTB BRANCH_OTHER ACCESS:          0  HIT:          0  MISS:          0

L2C SPEC fills:          0  NON-SPEC fills:    3412014
L2C Test counter :          0
L2C Leapfrog:          0
L2C MSHR merge:          0
L2C TOTAL     ACCESS:   66420301  HIT:   24487753  MISS:   41932548  HIT %:    36.8679  MISS %:    63.1321   MPKI: 209.663
L2C LOAD      TOTAL       ACCESS:   16304800  HIT:    1562242  MISS:   14742558  HIT %:    9.58149  MISS %:    90.4185   MPKI: 73.7128
L2C LOAD      NON_SPEC    ACCESS:    3528993  HIT:     116979  MISS:    3412014  HIT %:     3.3148  MISS %:    96.6852   MPKI: 17.0601
L2C LOAD      SPEC        ACCESS:   12775807  HIT:    1445263  MISS:   11330544  HIT %:    11.3125  MISS %:    88.6875   MPKI: 56.6527
L2C RFO       NON_SPEC    ACCESS:      24526  HIT:      17765  MISS:       6761  HIT %:    72.4333  MISS %:    27.5667   MPKI: 0.033805
L2C PREFETCH  NON_SPEC    ACCESS:   16748565  HIT:    1265460  MISS:   15483105  HIT %:    7.55563  MISS %:    92.4444   MPKI: 77.4155
L2C WRITEBACK NON_SPEC    ACCESS:    2938517  HIT:    2938391  MISS:        126  HIT %:    99.9957  MISS %: 0.00428788   MPKI: 0.00063
L2C CLEAN_EVICTION NON_SPEC    ACCESS:   13437926  HIT:    2264744  MISS:   11173182  HIT %:    16.8534  MISS %:    83.1466   MPKI: 55.8659
L2C COMMIT LOAD NON_SPEC    ACCESS:     200264  HIT:      44854  MISS:     155410  HIT %:    22.3974  MISS %:    77.6026   MPKI: 0.77705
L2C LOAD TRANSLATION NON_SPEC    ACCESS:   16763203  HIT:   16391884  MISS:     371319  HIT %:    97.7849  MISS %:    2.21508   MPKI: 1.85659
L2C TRANSLATION FROM L1D PREFETCHER NON_SPEC    ACCESS:       2500  HIT:       2413  MISS:         87  HIT %:      96.52  MISS %:       3.48   MPKI: 0.000435
L2C PREFETCH  REQUESTED:          0  ISSUED:          0  USEFUL:     277860  USELESS:   15205459
L2C USEFUL LOAD PREFETCHES:     277860 PREFETCH ISSUED TO LOWER LEVEL:   15483105  ACCURACY: 1.7946
L2C TIMELY PREFETCHES:     277860 LATE PREFETCHES: 0 DROPPED PREFETCHES: 0
L2C COMMIT LATE PREFETCHES: 0 NORMAL LATE: 0 MISSED OPPORTUNITY: 0 UNCOVERED: 14742561
L2C PREFETCHES SAME FILL-ORIGIN LEVEL: 0 DIFFERENT FILL-ORIGIN LEVEL: 0
L2C AVERAGE MISS LATENCY: 123.262 cycles
L2C AVERAGE MISS LATENCY LOAD: 153.913 cycles
L2C AVERAGE MISS LATENCY PREFETCH: 184.484 cycles
L2C AVERAGE MSHR OCCUPANCY: 3.1468
L2C MSHR FULL: 0
L2C RQ	ACCESS:   33295327	FORWARD:          0	MERGED:          0	TO_CACHE:   33295296
L2C WQ	ACCESS:   16376445	FORWARD:         37	MERGED:          2	TO_CACHE:   16376443
L2C PQ	ACCESS:   16748571	FORWARD:          0	MERGED:          0	TO_CACHE:   16748565

L2C Instructions Evicting Data 0
L2C Translations Evicting Data 371157
L2C Data Evicting Data 18824306
L2C Instructions Evicting Instructions 0
L2C Translations Evicting Instructions 0
L2C Data Evicting Instructions 0
L2C Instructions Evicting Translations 0
L2C Translations Evicting Translations 249
L2C Data Evicting Translations 232984
L2C Dense regions hint from L2: 0
PSCL5 SPEC fills:          0  NON-SPEC fills:          0
PSCL5 Test counter :          0
PSCL5 Leapfrog:          0
PSCL5 MSHR merge:          0
PSCL5 TOTAL     ACCESS:          0  HIT:          0  MISS:          0  HIT %:       -nan  MISS %:       -nan   MPKI: 0
PSCL5 PREFETCH  REQUESTED:          0  ISSUED:          0  USEFUL:          0  USELESS:          0
PSCL5 USEFUL LOAD PREFETCHES:          0 PREFETCH ISSUED TO LOWER LEVEL:          0  ACCURACY: -nan
PSCL5 TIMELY PREFETCHES:          0 LATE PREFETCHES: 0 DROPPED PREFETCHES: 0
PSCL5 COMMIT LATE PREFETCHES: 0 NORMAL LATE: 0 MISSED OPPORTUNITY: 0 UNCOVERED: 0
PSCL5 PREFETCHES SAME FILL-ORIGIN LEVEL: 0 DIFFERENT FILL-ORIGIN LEVEL: 0

PSCL4 SPEC fills:          0  NON-SPEC fills:          0
PSCL4 Test counter :          0
PSCL4 Leapfrog:          0
PSCL4 MSHR merge:          0
PSCL4 TOTAL     ACCESS:          0  HIT:          0  MISS:          0  HIT %:       -nan  MISS %:       -nan   MPKI: 0
PSCL4 PREFETCH  REQUESTED:          0  ISSUED:          0  USEFUL:          0  USELESS:          0
PSCL4 USEFUL LOAD PREFETCHES:          0 PREFETCH ISSUED TO LOWER LEVEL:          0  ACCURACY: -nan
PSCL4 TIMELY PREFETCHES:          0 LATE PREFETCHES: 0 DROPPED PREFETCHES: 0
PSCL4 COMMIT LATE PREFETCHES: 0 NORMAL LATE: 0 MISSED OPPORTUNITY: 0 UNCOVERED: 0
PSCL4 PREFETCHES SAME FILL-ORIGIN LEVEL: 0 DIFFERENT FILL-ORIGIN LEVEL: 0

PSCL3 SPEC fills:          0  NON-SPEC fills:          0
PSCL3 Test counter :          0
PSCL3 Leapfrog:          0
PSCL3 MSHR merge:          0
PSCL3 TOTAL     ACCESS:          0  HIT:          0  MISS:          0  HIT %:       -nan  MISS %:       -nan   MPKI: 0
PSCL3 PREFETCH  REQUESTED:          0  ISSUED:          0  USEFUL:          0  USELESS:          0
PSCL3 USEFUL LOAD PREFETCHES:          0 PREFETCH ISSUED TO LOWER LEVEL:          0  ACCURACY: -nan
PSCL3 TIMELY PREFETCHES:          0 LATE PREFETCHES: 0 DROPPED PREFETCHES: 0
PSCL3 COMMIT LATE PREFETCHES: 0 NORMAL LATE: 0 MISSED OPPORTUNITY: 0 UNCOVERED: 0
PSCL3 PREFETCHES SAME FILL-ORIGIN LEVEL: 0 DIFFERENT FILL-ORIGIN LEVEL: 0

PSCL2 SPEC fills:          0  NON-SPEC fills:          0
PSCL2 Test counter :          0
PSCL2 Leapfrog:          0
PSCL2 MSHR merge:          0
PSCL2 TOTAL     ACCESS:          0  HIT:          0  MISS:          0  HIT %:       -nan  MISS %:       -nan   MPKI: 0
PSCL2 PREFETCH  REQUESTED:          0  ISSUED:          0  USEFUL:          0  USELESS:          0
PSCL2 USEFUL LOAD PREFETCHES:          0 PREFETCH ISSUED TO LOWER LEVEL:          0  ACCURACY: -nan
PSCL2 TIMELY PREFETCHES:          0 LATE PREFETCHES: 0 DROPPED PREFETCHES: 0
PSCL2 COMMIT LATE PREFETCHES: 0 NORMAL LATE: 0 MISSED OPPORTUNITY: 0 UNCOVERED: 0
PSCL2 PREFETCHES SAME FILL-ORIGIN LEVEL: 0 DIFFERENT FILL-ORIGIN LEVEL: 0

LLC SPEC fills:          0  NON-SPEC fills:    2769426
LLC Test counter :          0
LLC Leapfrog:          0
LLC MSHR merge:          0
LLC TOTAL     ACCESS:   46030587  HIT:   17809180  MISS:   28221407  HIT %:    38.6899  MISS %:    61.3101   MPKI: 141.107
LLC LOAD      TOTAL       ACCESS:   14742517  HIT:    5145378  MISS:    9597139  HIT %:    34.9016  MISS %:    65.0984   MPKI: 47.9857
LLC LOAD      NON_SPEC    ACCESS:    3412009  HIT:     642583  MISS:    2769426  HIT %:     18.833  MISS %:     81.167   MPKI: 13.8471
LLC LOAD      SPEC        ACCESS:   11330508  HIT:    4502795  MISS:    6827713  HIT %:    39.7405  MISS %:    60.2595   MPKI: 34.1386
LLC RFO       NON_SPEC    ACCESS:       6761  HIT:        297  MISS:       6464  HIT %:    4.39284  MISS %:    95.6072   MPKI: 0.03232
LLC PREFETCH  NON_SPEC    ACCESS:   15483074  HIT:    4456488  MISS:   11026586  HIT %:     28.783  MISS %:     71.217   MPKI: 55.1329
LLC WRITEBACK NON_SPEC    ACCESS:    2891822  HIT:    2891788  MISS:         34  HIT %:    99.9988  MISS %: 0.00117573   MPKI: 0.00017
LLC CLEAN_EVICTION NON_SPEC    ACCESS:   12379609  HIT:    4898996  MISS:    7480613  HIT %:    39.5731  MISS %:    60.4269   MPKI: 37.4031
LLC COMMIT LOAD NON_SPEC    ACCESS:     155398  HIT:     108223  MISS:      47175  HIT %:    69.6425  MISS %:    30.3575   MPKI: 0.235875
LLC LOAD TRANSLATION NON_SPEC    ACCESS:     371319  HIT:     307940  MISS:      63379  HIT %:    82.9314  MISS %:    17.0686   MPKI: 0.316895
LLC TRANSLATION FROM L1D PREFETCHER NON_SPEC    ACCESS:         87  HIT:         70  MISS:         17  HIT %:    80.4598  MISS %:    19.5402   MPKI: 8.5e-05
LLC PREFETCH  REQUESTED:          0  ISSUED:          0  USEFUL:     922741  USELESS:   10104698
LLC USEFUL LOAD PREFETCHES:     922741 PREFETCH ISSUED TO LOWER LEVEL:   11026586  ACCURACY: 8.36833
LLC TIMELY PREFETCHES:     922741 LATE PREFETCHES: 0 DROPPED PREFETCHES: 0
LLC COMMIT LATE PREFETCHES: 0 NORMAL LATE: 0 MISSED OPPORTUNITY: 0 UNCOVERED: 0
LLC PREFETCHES SAME FILL-ORIGIN LEVEL: 0 DIFFERENT FILL-ORIGIN LEVEL: 0
LLC AVERAGE MISS LATENCY: 154.03 cycles
LLC AVERAGE MISS LATENCY LOAD: 200.95 cycles
LLC AVERAGE MISS LATENCY PREFETCH: 216.859 cycles
LLC AVERAGE MSHR OCCUPANCY: 2.65135
LLC MSHR FULL: 0
LLC RQ	ACCESS:   15276138	FORWARD:          0	MERGED:          0	TO_CACHE:   15276085
LLC WQ	ACCESS:   15271431	FORWARD:         84	MERGED:          0	TO_CACHE:   15271431
LLC PQ	ACCESS:   15483105	FORWARD:          0	MERGED:          0	TO_CACHE:   15483074

LLC Dense regions hint to LLC: 0

RAW hits: 847911
Loads Generated: 56336782
Loads sent to L1D: 55488872
Stores Generated: 11244939
Stores sent to L1D: 11244938
Major fault: 0 Minor fault: 31004
Allocated PAGES: 31004
Total Load insts: 68022100
Total Non-spec loads: 9682077
Percentage of speculative loads: 85.7663

LeapFrogging counter: 2107390
Commit hits: 35429633 miss: 10754213
Commit hit %: 76.7143 miss %: 23.2857
Commits not translated: 0
Loads retired: 16521822
Stores retired: 11244938
Cache fills: 16521823
L1D response latency: 151.457 cycles
Load retirement latency: 276.82 cycles
OOO test counter: 0
Discarded buffer inserts: 35429633 hits: 11214 hit %: 0.0316515
Filter prediction accuracy: -nan

stream: 
stream:times selected: 24036862
stream:pref_filled: 19394030
stream:pref_useful: 620627
stream:pref_late: 111240
stream:misses: 4195757
stream:misses_by_poll: 0

CS: 
CS:times selected: 2617873
CS:pref_filled: 393061
CS:pref_useful: 312042
CS:pref_late: 1456
CS:misses: 40375
CS:misses_by_poll: 9058

CPLX: 
CPLX:times selected: 23667496
CPLX:pref_filled: 989549
CPLX:pref_useful: 28850
CPLX:pref_late: 6937
CPLX:misses: 15960538
CPLX:misses_by_poll: 55459

NL_L1: 
NL:times selected: 23379
NL:pref_filled: 20894
NL:pref_useful: 95
NL:pref_late: 6
NL:misses: 25473
NL:misses_by_poll: 0

total selections: 50345610
total_filled: 16521509
total_useful: 767385
total_late: 132648
total_polluted: 64517
total_misses_after_warmup: 15680026
conflicts: 0
Degree Incremented Times: 62591
Degree Decremented Times: 982019

L1 IP Table Write Accesses: 67578139
L1 IP Table Read Accesses: 67578139
L1 RST Write Accesses: 18165446
L1 RST Read Accesses: 36330892
L1 CSPT Write Accesses: 18165446
L1 CSPT Read Accesses: 35991919
L1 RR Filter Tag Write Accesses: 17592074
L1 RR Filter Tag Read Accesses: 650068747
L1 IP Table Tag Write Accesses: 67578167
L1 IP Table Tag Read Accesses: 67578167
L1 RST Tag Write Accesses: 0
L1 RST Tag Read Accesses: 163224377
L1 RR Filter Write Accesses: 0
L1 RR Filter Read Accesses: 20750988
test: 9878612

stream: 
stream:times selected: 21496904
stream:pref_filled: 19394030
stream:pref_useful: 620627
stream:pref_late: 111240
stream:misses: 4330786
stream:misses_by_poll: 0

CS: 
CS:times selected: 1101254
CS:pref_filled: 393061
CS:pref_useful: 312042
CS:pref_late: 1456
CS:misses: 33317
CS:misses_by_poll: 162

CPLX: 
CPLX:times selected: 21153672
CPLX:pref_filled: 989549
CPLX:pref_useful: 28850
CPLX:pref_late: 6937
CPLX:misses: 15800060
CPLX:misses_by_poll: 430

NL_L1: 
NL:times selected: 25681
NL:pref_filled: 20894
NL:pref_useful: 95
NL:pref_late: 6
NL:misses: 25494
NL:misses_by_poll: 0

total selections: 43777511
total_filled: 16521509
total_useful: 767385
total_late: 132648
total_polluted: 592
total_misses_after_warmup: 16523753
conflicts: 0
Degree Incremented Times: 43289
Degree Decremented Times: 434478

L1 IP Table Write Accesses: 45354879
L1 IP Table Read Accesses: 45354879
L1 RST Write Accesses: 17591451
L1 RST Read Accesses: 35182902
L1 CSPT Write Accesses: 17591451
L1 CSPT Read Accesses: 34863224
L1 RR Filter Tag Write Accesses: 17288568
L1 RR Filter Tag Read Accesses: 613331948
L1 IP Table Tag Write Accesses: 45354893
L1 IP Table Tag Read Accesses: 45354893
L1 RST Tag Write Accesses: 0
L1 RST Tag Read Accesses: 157917161
L1 RR Filter Write Accesses: 0
L1 RR Filter Read Accesses: 19533331
test_pseudo: 9270464

DRAM Statistics
 CHANNEL 0
 RQ ROW_BUFFER_HIT:    2801394  ROW_BUFFER_MISS:   17931712
 DBUS_CONGESTED:       3782
 WQ ROW_BUFFER_HIT:    3624228  ROW_BUFFER_MISS:    8065758  FULL:        109

 AVG_CONGESTED_CYCLE: 5
 All warmup complete: 2
Channel 0 Bank busy for read cycles: 0
Channel 0 Bank busy for write cycles: 0
Channel 0
Rank 0
0banks busy for read cycles: 6295517
0banks busy for write cycles: 5959
1banks busy for read cycles: 340706438
1banks busy for write cycles: 3873276
2banks busy for read cycles: 376312838
2banks busy for write cycles: 3773877
3banks busy for read cycles: 267111625
3banks busy for write cycles: 3768507
4banks busy for read cycles: 140494528
4banks busy for write cycles: 3913983
5banks busy for read cycles: 54089079
5banks busy for write cycles: 4640790
6banks busy for read cycles: 16647423
6banks busy for write cycles: 13888811
7banks busy for read cycles: 4183946
7banks busy for write cycles: 84459087
8banks busy for read cycles: 930621
8banks busy for write cycles: 276602053

CPU 0 Branch Prediction Accuracy: 85.1853% MPKI: 26.0899 Average ROB Occupancy at Mispredict: 29.0483
Branch types
NOT_BRANCH: 164778075 82.389%
BRANCH_DIRECT_JUMP: 253973 0.126986%
BRANCH_INDIRECT: 0 0%
BRANCH_CONDITIONAL: 34967586 17.4838%
BRANCH_DIRECT_CALL: 14 7e-06%
BRANCH_INDIRECT_CALL: 0 0%
BRANCH_RETURN: 14 7e-06%
BRANCH_OTHER: 0 0%

DRAM PAGES: 1048576
Allocated PAGES: 31004
