
*** ChampSim Multicore Out-of-Order Simulator ***

Warmup Instructions: 50000000
Simulation Instructions: 200000000
Number of CPUs: 1
LLC sets: 2048
LLC ways: 16
L0D sets: 16
L0D ways: 2
ROB size: 352
LQ size: 128
SQ size: 72
Secure Berti: OFF
Berti: OFF
Berti Fill: OFF
On commit prefetching: ON
Hit-based filter: OFF
Time-guarding: ON
Free-slotting: ON
Leap-frogging: ON
Train prefetcher on L0D bypass: OFF
No translation penalty for prefetchers: OFF
Prefetch to L0D only: OFF
Prefetch to L1D only: OFF
Clean evictions: ON
Commit loads: ON
Commit write: ON
Fill commit loads to L2C, LLC: ON
DRAM IO FREQUENCY: 6400
ROB SIZE: 352
Off-chip DRAM Size: 4096 MB Channels: 1 Width: 64-bit Data Rate: 6400 MT/s
CPU 0 runs /home/sumon/secure_berti/GhostMinion/../../traces/gap/bfs-14.trace.gz
.gz
BTB has LRU replacement policy
ITLB has LRU replacement policy
DTLB has LRU replacement policy
STLB has LRU replacement policy
L1I has LRU replacement policy
L0D has LRU replacement policy
IP Table Entries: 1024
CSPT Entries: 128
RR_ENTRIES: 32
RST_ENTRIES: 8
IP Table Entries: 1024
CSPT Entries: 128
RR_ENTRIES: 32
RST_ENTRIES: 8
L1D has LRU replacement policy
L2C has LRU replacement policy
LLC has LRU replacement policy
Heartbeat CPU 0 instructions: 10000001 cycles: 2973029 heartbeat IPC: 3.36357 cumulative IPC: 3.36357 (Simulation time: 0 hr 1 min 1 sec) 
Heartbeat CPU 0 instructions: 20000003 cycles: 6184087 heartbeat IPC: 3.11424 cumulative IPC: 3.23411 (Simulation time: 0 hr 2 min 33 sec) 
Heartbeat CPU 0 instructions: 30000003 cycles: 9391216 heartbeat IPC: 3.11805 cumulative IPC: 3.19447 (Simulation time: 0 hr 4 min 6 sec) 
Heartbeat CPU 0 instructions: 40000001 cycles: 12586473 heartbeat IPC: 3.12964 cumulative IPC: 3.17801 (Simulation time: 0 hr 5 min 36 sec) 
Heartbeat CPU 0 instructions: 50000002 cycles: 15717688 heartbeat IPC: 3.19365 cumulative IPC: 3.18113 (Simulation time: 0 hr 6 min 55 sec) 

Warmup complete CPU 0 instructions: 50000002 cycles: 15717688 (Simulation time: 0 hr 6 min 55 sec) 

Heartbeat CPU 0 instructions: 60000000 cycles: 41740704 heartbeat IPC: 0.384275 cumulative IPC: 0.384275 (Simulation time: 0 hr 7 min 57 sec) 
Heartbeat CPU 0 instructions: 70000001 cycles: 55028746 heartbeat IPC: 0.752556 cumulative IPC: 0.508763 (Simulation time: 0 hr 8 min 44 sec) 
Heartbeat CPU 0 instructions: 80000000 cycles: 74082921 heartbeat IPC: 0.524819 cumulative IPC: 0.514005 (Simulation time: 0 hr 9 min 41 sec) 
Heartbeat CPU 0 instructions: 90000000 cycles: 103696484 heartbeat IPC: 0.337683 cumulative IPC: 0.454655 (Simulation time: 0 hr 10 min 53 sec) 
Heartbeat CPU 0 instructions: 100000002 cycles: 143896908 heartbeat IPC: 0.248754 cumulative IPC: 0.390079 (Simulation time: 0 hr 12 min 15 sec) 
Heartbeat CPU 0 instructions: 110000000 cycles: 184048551 heartbeat IPC: 0.249056 cumulative IPC: 0.356441 (Simulation time: 0 hr 13 min 17 sec) 
Heartbeat CPU 0 instructions: 120000000 cycles: 225903243 heartbeat IPC: 0.238922 cumulative IPC: 0.333039 (Simulation time: 0 hr 14 min 6 sec) 
Heartbeat CPU 0 instructions: 130000001 cycles: 258339576 heartbeat IPC: 0.308296 cumulative IPC: 0.329731 (Simulation time: 0 hr 14 min 50 sec) 
Heartbeat CPU 0 instructions: 140000002 cycles: 275662545 heartbeat IPC: 0.577268 cumulative IPC: 0.346227 (Simulation time: 0 hr 15 min 22 sec) 
Heartbeat CPU 0 instructions: 150000000 cycles: 290344242 heartbeat IPC: 0.68112 cumulative IPC: 0.364131 (Simulation time: 0 hr 15 min 54 sec) 
Heartbeat CPU 0 instructions: 160000000 cycles: 314953243 heartbeat IPC: 0.406355 cumulative IPC: 0.367603 (Simulation time: 0 hr 16 min 34 sec) 
Heartbeat CPU 0 instructions: 170000000 cycles: 355363545 heartbeat IPC: 0.247462 cumulative IPC: 0.353309 (Simulation time: 0 hr 17 min 24 sec) 
Heartbeat CPU 0 instructions: 180000000 cycles: 396139903 heartbeat IPC: 0.24524 cumulative IPC: 0.341726 (Simulation time: 0 hr 18 min 13 sec) 
Heartbeat CPU 0 instructions: 190000003 cycles: 437723614 heartbeat IPC: 0.240479 cumulative IPC: 0.331749 (Simulation time: 0 hr 19 min 0 sec) 
Heartbeat CPU 0 instructions: 200000002 cycles: 477387773 heartbeat IPC: 0.252117 cumulative IPC: 0.324907 (Simulation time: 0 hr 19 min 42 sec) 
Heartbeat CPU 0 instructions: 210000001 cycles: 500631857 heartbeat IPC: 0.430217 cumulative IPC: 0.329955 (Simulation time: 0 hr 20 min 16 sec) 
Heartbeat CPU 0 instructions: 220000000 cycles: 514318088 heartbeat IPC: 0.730661 cumulative IPC: 0.340954 (Simulation time: 0 hr 20 min 42 sec) 
Heartbeat CPU 0 instructions: 230000001 cycles: 535084555 heartbeat IPC: 0.481546 cumulative IPC: 0.346576 (Simulation time: 0 hr 21 min 15 sec) 
Heartbeat CPU 0 instructions: 240000000 cycles: 568880594 heartbeat IPC: 0.295893 cumulative IPC: 0.343479 (Simulation time: 0 hr 21 min 57 sec) 
Heartbeat CPU 0 instructions: 250000001 cycles: 607537685 heartbeat IPC: 0.258685 cumulative IPC: 0.337941 (Simulation time: 0 hr 22 min 40 sec) 
Finished CPU 0 instructions: 200000003 cycles: 591819998 cumulative IPC: 0.337941 (Simulation time: 0 hr 22 min 40 sec) 
 Instruction ID: 250000029

ChampSim completed all CPUs

Region of Interest Statistics

CPU 0 cumulative IPC: 0.337941 instructions: 200000003 cycles: 591819998
ITLB SPEC fills:          0  NON-SPEC fills:          0
ITLB Test counter :          0
ITLB Leapfrog:          0
ITLB MSHR merge:          0
ITLB TOTAL     ACCESS:   34748666  HIT:   34748666  MISS:          0  HIT %:        100  MISS %:          0   MPKI: 0
ITLB LOAD TRANSLATION NON_SPEC    ACCESS:   34748666  HIT:   34748666  MISS:          0  HIT %:        100  MISS %:          0   MPKI: 0
ITLB PREFETCH  REQUESTED:          0  ISSUED:          0  USEFUL:          0  USELESS:          0
ITLB USEFUL LOAD PREFETCHES:          0 PREFETCH ISSUED TO LOWER LEVEL:          0  ACCURACY: -nan
ITLB TIMELY PREFETCHES:          0 LATE PREFETCHES: 0 DROPPED PREFETCHES: 0
ITLB COMMIT LATE PREFETCHES: 0 NORMAL LATE: 0 MISSED OPPORTUNITY: 0 UNCOVERED: 0
ITLB PREFETCHES SAME FILL-ORIGIN LEVEL: 0 DIFFERENT FILL-ORIGIN LEVEL: 0
ITLB AVERAGE MISS LATENCY: -nan cycles
ITLB AVERAGE MISS LATENCY LOAD: -nan cycles
ITLB AVERAGE MISS LATENCY PREFETCH: -nan cycles
ITLB AVERAGE MSHR OCCUPANCY: 0
ITLB MSHR FULL: 0
ITLB RQ	ACCESS:   43108655	FORWARD:          0	MERGED:    8359989	TO_CACHE:   34748666

DTLB SPEC fills:          0  NON-SPEC fills:          0
DTLB Test counter :          0
DTLB Leapfrog:          0
DTLB MSHR merge:          0
DTLB TOTAL     ACCESS:   44637485  HIT:   44442242  MISS:     195243  HIT %:    99.5626  MISS %:   0.437397   MPKI: 0.976215
DTLB LOAD TRANSLATION NON_SPEC    ACCESS:   44637485  HIT:   44442242  MISS:     195243  HIT %:    99.5626  MISS %:   0.437397   MPKI: 0.976215
DTLB PREFETCH  REQUESTED:          0  ISSUED:          0  USEFUL:          0  USELESS:          0
DTLB USEFUL LOAD PREFETCHES:          0 PREFETCH ISSUED TO LOWER LEVEL:          0  ACCURACY: -nan
DTLB TIMELY PREFETCHES:          0 LATE PREFETCHES: 0 DROPPED PREFETCHES: 0
DTLB COMMIT LATE PREFETCHES: 0 NORMAL LATE: 0 MISSED OPPORTUNITY: 0 UNCOVERED: 0
DTLB PREFETCHES SAME FILL-ORIGIN LEVEL: 0 DIFFERENT FILL-ORIGIN LEVEL: 0
DTLB AVERAGE MISS LATENCY: 90.6893 cycles
DTLB AVERAGE MISS LATENCY LOAD: -nan cycles
DTLB AVERAGE MISS LATENCY PREFETCH: -nan cycles
DTLB AVERAGE MSHR OCCUPANCY: 0.00919293
DTLB MSHR FULL: 2.68681e-07
DTLB RQ	ACCESS:   47041905	FORWARD:          0	MERGED:    2379245	TO_CACHE:   44662660

STLB SPEC fills:          0  NON-SPEC fills:          0
STLB Test counter :          0
STLB Leapfrog:          0
STLB MSHR merge:          0
STLB TOTAL     ACCESS:    5781540  HIT:    5638789  MISS:     142751  HIT %:    97.5309  MISS %:    2.46908   MPKI: 0.713755
STLB LOAD TRANSLATION NON_SPEC    ACCESS:     195243  HIT:      52499  MISS:     142744  HIT %:    26.8891  MISS %:    73.1109   MPKI: 0.71372
STLB TRANSLATION FROM L1D PREFETCHER NON_SPEC    ACCESS:    5586297  HIT:    5586290  MISS:          7  HIT %:    99.9999  MISS %: 0.000125307   MPKI: 3.5e-05
STLB PREFETCH  REQUESTED:          0  ISSUED:          0  USEFUL:          3  USELESS:          5
STLB USEFUL LOAD PREFETCHES:          3 PREFETCH ISSUED TO LOWER LEVEL:          0  ACCURACY: inf
STLB TIMELY PREFETCHES:          3 LATE PREFETCHES: 0 DROPPED PREFETCHES: 0
STLB COMMIT LATE PREFETCHES: 0 NORMAL LATE: 0 MISSED OPPORTUNITY: 0 UNCOVERED: 0
STLB PREFETCHES SAME FILL-ORIGIN LEVEL: 0 DIFFERENT FILL-ORIGIN LEVEL: 0
STLB AVERAGE MISS LATENCY: 111.782 cycles
STLB AVERAGE MISS LATENCY LOAD: -nan cycles
STLB AVERAGE MISS LATENCY PREFETCH: -nan cycles
STLB AVERAGE MSHR OCCUPANCY: 0.00511215
STLB MSHR FULL: 0
STLB RQ	ACCESS:    6531039	FORWARD:          0	MERGED:     749128	TO_CACHE:    5781911

STLB Hit, L1D data hit: 0
STLB Hit, L2C data hit: 0
STLB Hit, LLC data hit: 0
STLB Hit, LLC data miss: 0
STLB STLB hints to L2: 0
L0D SPEC fills:   21420479  NON-SPEC fills:          0
L0D TimeGuard Request with older TS:      73357 Restricted eviction:      37233 read:        366
L0D Test counter :          0
L0D Leapfrog:          0
L0D MSHR merge:     290933
L0D TOTAL     ACCESS:   39948372  HIT:    3020803  MISS:   36927569  HIT %:    7.56177  MISS %:    92.4382   MPKI: 184.638
L0D LOAD      TOTAL       ACCESS:   39948372  HIT:    3020803  MISS:   36927569  HIT %:    7.56177  MISS %:    92.4382   MPKI: 184.638
L0D LOAD      NON_SPEC    ACCESS:   15470289  HIT:        432  MISS:   15469857  HIT %: 0.00279245  MISS %:    99.9972   MPKI: 77.3493
L0D LOAD      SPEC        ACCESS:   24478083  HIT:    3020371  MISS:   21457712  HIT %:    12.3391  MISS %:    87.6609   MPKI: 107.289
L0D PREFETCH  REQUESTED:          0  ISSUED:          0  USEFUL:          0  USELESS:          0
L0D USEFUL LOAD PREFETCHES:          0 PREFETCH ISSUED TO LOWER LEVEL:          0  ACCURACY: -nan
L0D TIMELY PREFETCHES:          0 LATE PREFETCHES: 0 DROPPED PREFETCHES: 0
L0D COMMIT LATE PREFETCHES: 0 NORMAL LATE: 0 MISSED OPPORTUNITY: 0 UNCOVERED: 0
L0D PREFETCHES SAME FILL-ORIGIN LEVEL: 0 DIFFERENT FILL-ORIGIN LEVEL: 0
L0D AVERAGE MISS LATENCY: 9.66974 cycles
L0D AVERAGE MISS LATENCY LOAD: 9.66974 cycles
L0D AVERAGE MISS LATENCY PREFETCH: -nan cycles
L0D AVERAGE MSHR OCCUPANCY: 0.466004
L0D MSHR FULL: 0.00320559
L0D RQ	ACCESS:   48252533	FORWARD:          0	MERGED:    8013229	TO_CACHE:   40239304
L0D WQ	ACCESS:    6802601	FORWARD:          0	MERGED:          0	TO_CACHE:    6802601

L1D SPEC fills:          0  NON-SPEC fills:    1711814
L1D Test counter :          0
L1D Leapfrog:          0
L1D MSHR merge:     198904
L1D TOTAL     ACCESS:   79885626  HIT:   72483410  MISS:    7402216  HIT %:     90.734  MISS %:    9.26602   MPKI: 37.0111
L1D LOAD      TOTAL       ACCESS:   36926765  HIT:   34717541  MISS:    2209224  HIT %:    94.0173  MISS %:    5.98272   MPKI: 11.0461
L1D LOAD      NON_SPEC    ACCESS:   15469677  HIT:   13757863  MISS:    1711814  HIT %:    88.9344  MISS %:    11.0656   MPKI: 8.55907
L1D LOAD      SPEC        ACCESS:   21457088  HIT:   20959678  MISS:     497410  HIT %:    97.6818  MISS %:    2.31816   MPKI: 2.48705
L1D RFO       NON_SPEC    ACCESS:    5342193  HIT:    5325421  MISS:      16772  HIT %:     99.686  MISS %:   0.313953   MPKI: 0.08386
L1D PREFETCH  NON_SPEC    ACCESS:    6099382  HIT:    1420283  MISS:    4679099  HIT %:    23.2857  MISS %:    76.7143   MPKI: 23.3955
L1D COMMIT LOAD NON_SPEC    ACCESS:   10128703  HIT:   10123476  MISS:       5227  HIT %:    99.9484  MISS %:  0.0516058   MPKI: 0.026135
L1D COMMIT WRITE NON_SPEC    ACCESS:   21388583  HIT:   20896689  MISS:     491894  HIT %:    97.7002  MISS %:     2.2998   MPKI: 2.45947
L1D PREFETCH  REQUESTED:    6349623  ISSUED:    6335796  USEFUL:    2540677  USELESS:    2138177
L1D USEFUL LOAD PREFETCHES:    2540677 PREFETCH ISSUED TO LOWER LEVEL:    4884869  ACCURACY: 52.0112
L1D TIMELY PREFETCHES:    2540677 LATE PREFETCHES: 199236 DROPPED PREFETCHES: 0
L1D COMMIT LATE PREFETCHES: 58419 NORMAL LATE: 204727 MISSED OPPORTUNITY: 4869 UNCOVERED: 1942349
L1D PREFETCHES SAME FILL-ORIGIN LEVEL: 4884869 DIFFERENT FILL-ORIGIN LEVEL: 0
L1D AVERAGE MISS LATENCY: 121.921 cycles
L1D AVERAGE MISS LATENCY LOAD: 77.0835 cycles
L1D AVERAGE MISS LATENCY PREFETCH: 155.675 cycles
L1D AVERAGE MSHR OCCUPANCY: 1.49413
L1D MSHR FULL: 0.00636518
L1D RQ	ACCESS:   48320948	FORWARD:          0	MERGED:     560276	TO_CACHE:   47056298
L1D WQ	ACCESS:   28133371	FORWARD:     704374	MERGED:    1319866	TO_CACHE:   26813505
L1D PQ	ACCESS:    6335796	FORWARD:          0	MERGED:          0	TO_CACHE:    6335796

L1D UNIQUE REGIONS ACCESSED: 0
L1D REGIONS CONFLICTS: 0
L1D Cross Page Prefetch Requests: 0
L1D Same Page Prefetch Requests: 9063944
L1D ROI Sum of L1D PQ occupancy: 93979771
L1D PREFETCHES PUSHED FROM L2C: 0
L1I SPEC fills:          0  NON-SPEC fills:          0
L1I Test counter :          0
L1I Leapfrog:          0
L1I MSHR merge:          1
L1I TOTAL     ACCESS:   43108653  HIT:   43108638  MISS:         15  HIT %:        100  MISS %: 3.47958e-05   MPKI: 7.5e-05
L1I LOAD      TOTAL       ACCESS:   43108653  HIT:   43108638  MISS:         15  HIT %:        100  MISS %: 3.47958e-05   MPKI: 7.5e-05
L1I LOAD      NON_SPEC    ACCESS:   43108653  HIT:   43108638  MISS:         15  HIT %:        100  MISS %: 3.47958e-05   MPKI: 7.5e-05
L1I PREFETCH  REQUESTED:          0  ISSUED:          0  USEFUL:          0  USELESS:          0
L1I USEFUL LOAD PREFETCHES:          0 PREFETCH ISSUED TO LOWER LEVEL:          0  ACCURACY: -nan
L1I TIMELY PREFETCHES:          0 LATE PREFETCHES: 0 DROPPED PREFETCHES: 0
L1I COMMIT LATE PREFETCHES: 0 NORMAL LATE: 0 MISSED OPPORTUNITY: 0 UNCOVERED: 0
L1I PREFETCHES SAME FILL-ORIGIN LEVEL: 0 DIFFERENT FILL-ORIGIN LEVEL: 0
L1I AVERAGE MISS LATENCY: 239.533 cycles
L1I AVERAGE MISS LATENCY LOAD: 239.533 cycles
L1I AVERAGE MISS LATENCY PREFETCH: -nan cycles
L1I AVERAGE MSHR OCCUPANCY: 1.15986e-07
L1I MSHR FULL: 0
L1I RQ	ACCESS:   67101274	FORWARD:          0	MERGED:   23992619	TO_CACHE:   43108655

BTB SPEC fills:          0  NON-SPEC fills:          0
BTB Test counter :          0
BTB Leapfrog:          0
BTB MSHR merge:          0
BTB TOTAL     ACCESS:   41351681  HIT:   41351328  MISS:        353  HIT %:    99.9991  MISS %: 0.000853653   MPKI: 0.001765
BTB BRANCH_DIRECT_JUMP	ACCESS:       1976  HIT:       1931  MISS:         45
BTB BRANCH_INDIRECT	ACCESS:          3  HIT:          2  MISS:          1
BTB BRANCH_CONDITIONAL	ACCESS:   41349068  HIT:   41348964  MISS:        104
BTB BRANCH_DIRECT_CALL	ACCESS:        308  HIT:        265  MISS:         43
BTB BRANCH_INDIRECT_CALL	ACCESS:          9  HIT:          6  MISS:          3
BTB BRANCH_RETURN	ACCESS:        317  HIT:        160  MISS:        157
BTB BRANCH_OTHER ACCESS:          0  HIT:          0  MISS:          0

L2C SPEC fills:          0  NON-SPEC fills:     450409
L2C Test counter :          0
L2C Leapfrog:          0
L2C MSHR merge:          0
L2C TOTAL     ACCESS:   10506316  HIT:    5875485  MISS:    4630831  HIT %:    55.9234  MISS %:    44.0766   MPKI: 23.1542
L2C LOAD      TOTAL       ACCESS:    2011120  HIT:    1270721  MISS:     740399  HIT %:    63.1847  MISS %:    36.8153   MPKI: 3.70199
L2C LOAD      NON_SPEC    ACCESS:    1588514  HIT:    1138090  MISS:     450424  HIT %:    71.6449  MISS %:    28.3551   MPKI: 2.25212
L2C LOAD      SPEC        ACCESS:     422606  HIT:     132631  MISS:     289975  HIT %:    31.3841  MISS %:    68.6159   MPKI: 1.44987
L2C RFO       NON_SPEC    ACCESS:      10240  HIT:        198  MISS:      10042  HIT %:    1.93359  MISS %:    98.0664   MPKI: 0.05021
L2C PREFETCH  NON_SPEC    ACCESS:    4884850  HIT:    1292853  MISS:    3591997  HIT %:    26.4666  MISS %:    73.5334   MPKI: 17.96
L2C WRITEBACK NON_SPEC    ACCESS:     353859  HIT:     353857  MISS:          2  HIT %:    99.9994  MISS %: 0.000565197   MPKI: 1e-05
L2C CLEAN_EVICTION NON_SPEC    ACCESS:    2528401  HIT:    2268620  MISS:     259781  HIT %:    89.7255  MISS %:    10.2745   MPKI: 1.2989
L2C COMMIT LOAD NON_SPEC    ACCESS:       4091  HIT:       1794  MISS:       2297  HIT %:    43.8524  MISS %:    56.1476   MPKI: 0.011485
L2C LOAD TRANSLATION NON_SPEC    ACCESS:     713720  HIT:     687435  MISS:      26285  HIT %:    96.3172  MISS %:    3.68282   MPKI: 0.131425
L2C TRANSLATION FROM L1D PREFETCHER NON_SPEC    ACCESS:         35  HIT:          7  MISS:         28  HIT %:         20  MISS %:         80   MPKI: 0.00014
L2C PREFETCH  REQUESTED:          0  ISSUED:          0  USEFUL:      63088  USELESS:    3530035
L2C USEFUL LOAD PREFETCHES:      63088 PREFETCH ISSUED TO LOWER LEVEL:    3591999  ACCURACY: 1.75635
L2C TIMELY PREFETCHES:      63088 LATE PREFETCHES: 0 DROPPED PREFETCHES: 0
L2C COMMIT LATE PREFETCHES: 0 NORMAL LATE: 0 MISSED OPPORTUNITY: 0 UNCOVERED: 740399
L2C PREFETCHES SAME FILL-ORIGIN LEVEL: 0 DIFFERENT FILL-ORIGIN LEVEL: 0
L2C AVERAGE MISS LATENCY: 179.271 cycles
L2C AVERAGE MISS LATENCY LOAD: 165.694 cycles
L2C AVERAGE MISS LATENCY PREFETCH: 194.448 cycles
L2C AVERAGE MSHR OCCUPANCY: 1.24882
L2C MSHR FULL: 0
L2C RQ	ACCESS:    2739225	FORWARD:          0	MERGED:          0	TO_CACHE:    2739206
L2C WQ	ACCESS:    2882266	FORWARD:         36	MERGED:          6	TO_CACHE:    2882260
L2C PQ	ACCESS:    4884869	FORWARD:          0	MERGED:          0	TO_CACHE:    4884852

L2C Instructions Evicting Data 15
L2C Translations Evicting Data 26121
L2C Data Evicting Data 4030177
L2C Instructions Evicting Instructions 0
L2C Translations Evicting Instructions 0
L2C Data Evicting Instructions 13
L2C Instructions Evicting Translations 0
L2C Translations Evicting Translations 192
L2C Data Evicting Translations 24555
L2C Dense regions hint from L2: 0
PSCL5 SPEC fills:          0  NON-SPEC fills:          0
PSCL5 Test counter :          0
PSCL5 Leapfrog:          0
PSCL5 MSHR merge:          0
PSCL5 TOTAL     ACCESS:          0  HIT:          0  MISS:          0  HIT %:       -nan  MISS %:       -nan   MPKI: 0
PSCL5 PREFETCH  REQUESTED:          0  ISSUED:          0  USEFUL:          0  USELESS:          0
PSCL5 USEFUL LOAD PREFETCHES:          0 PREFETCH ISSUED TO LOWER LEVEL:          0  ACCURACY: -nan
PSCL5 TIMELY PREFETCHES:          0 LATE PREFETCHES: 0 DROPPED PREFETCHES: 0
PSCL5 COMMIT LATE PREFETCHES: 0 NORMAL LATE: 0 MISSED OPPORTUNITY: 0 UNCOVERED: 0
PSCL5 PREFETCHES SAME FILL-ORIGIN LEVEL: 0 DIFFERENT FILL-ORIGIN LEVEL: 0

PSCL4 SPEC fills:          0  NON-SPEC fills:          0
PSCL4 Test counter :          0
PSCL4 Leapfrog:          0
PSCL4 MSHR merge:          0
PSCL4 TOTAL     ACCESS:          0  HIT:          0  MISS:          0  HIT %:       -nan  MISS %:       -nan   MPKI: 0
PSCL4 PREFETCH  REQUESTED:          0  ISSUED:          0  USEFUL:          0  USELESS:          0
PSCL4 USEFUL LOAD PREFETCHES:          0 PREFETCH ISSUED TO LOWER LEVEL:          0  ACCURACY: -nan
PSCL4 TIMELY PREFETCHES:          0 LATE PREFETCHES: 0 DROPPED PREFETCHES: 0
PSCL4 COMMIT LATE PREFETCHES: 0 NORMAL LATE: 0 MISSED OPPORTUNITY: 0 UNCOVERED: 0
PSCL4 PREFETCHES SAME FILL-ORIGIN LEVEL: 0 DIFFERENT FILL-ORIGIN LEVEL: 0

PSCL3 SPEC fills:          0  NON-SPEC fills:          0
PSCL3 Test counter :          0
PSCL3 Leapfrog:          0
PSCL3 MSHR merge:          0
PSCL3 TOTAL     ACCESS:          0  HIT:          0  MISS:          0  HIT %:       -nan  MISS %:       -nan   MPKI: 0
PSCL3 PREFETCH  REQUESTED:          0  ISSUED:          0  USEFUL:          0  USELESS:          0
PSCL3 USEFUL LOAD PREFETCHES:          0 PREFETCH ISSUED TO LOWER LEVEL:          0  ACCURACY: -nan
PSCL3 TIMELY PREFETCHES:          0 LATE PREFETCHES: 0 DROPPED PREFETCHES: 0
PSCL3 COMMIT LATE PREFETCHES: 0 NORMAL LATE: 0 MISSED OPPORTUNITY: 0 UNCOVERED: 0
PSCL3 PREFETCHES SAME FILL-ORIGIN LEVEL: 0 DIFFERENT FILL-ORIGIN LEVEL: 0

PSCL2 SPEC fills:          0  NON-SPEC fills:          0
PSCL2 Test counter :          0
PSCL2 Leapfrog:          0
PSCL2 MSHR merge:          0
PSCL2 TOTAL     ACCESS:          0  HIT:          0  MISS:          0  HIT %:       -nan  MISS %:       -nan   MPKI: 0
PSCL2 PREFETCH  REQUESTED:          0  ISSUED:          0  USEFUL:          0  USELESS:          0
PSCL2 USEFUL LOAD PREFETCHES:          0 PREFETCH ISSUED TO LOWER LEVEL:          0  ACCURACY: -nan
PSCL2 TIMELY PREFETCHES:          0 LATE PREFETCHES: 0 DROPPED PREFETCHES: 0
PSCL2 COMMIT LATE PREFETCHES: 0 NORMAL LATE: 0 MISSED OPPORTUNITY: 0 UNCOVERED: 0
PSCL2 PREFETCHES SAME FILL-ORIGIN LEVEL: 0 DIFFERENT FILL-ORIGIN LEVEL: 0

LLC SPEC fills:          0  NON-SPEC fills:     370175
LLC Test counter :          0
LLC Leapfrog:          0
LLC MSHR merge:          0
LLC TOTAL     ACCESS:    7050511  HIT:    2675914  MISS:    4374597  HIT %:    37.9535  MISS %:    62.0465   MPKI: 21.873
LLC LOAD      TOTAL       ACCESS:     740398  HIT:     118534  MISS:     621864  HIT %:    16.0095  MISS %:    83.9905   MPKI: 3.10932
LLC LOAD      NON_SPEC    ACCESS:     450424  HIT:      80234  MISS:     370190  HIT %:     17.813  MISS %:     82.187   MPKI: 1.85095
LLC LOAD      SPEC        ACCESS:     289974  HIT:      38300  MISS:     251674  HIT %:    13.2081  MISS %:    86.7919   MPKI: 1.25837
LLC RFO       NON_SPEC    ACCESS:      10042  HIT:         78  MISS:       9964  HIT %:   0.776738  MISS %:    99.2233   MPKI: 0.04982
LLC PREFETCH  NON_SPEC    ACCESS:    3591998  HIT:     125098  MISS:    3466900  HIT %:    3.48269  MISS %:    96.5173   MPKI: 17.3345
LLC WRITEBACK NON_SPEC    ACCESS:     331398  HIT:     329577  MISS:       1821  HIT %:    99.4505  MISS %:    0.54949   MPKI: 0.009105
LLC CLEAN_EVICTION NON_SPEC    ACCESS:    2348065  HIT:    2101103  MISS:     246962  HIT %:    89.4823  MISS %:    10.5177   MPKI: 1.23481
LLC COMMIT LOAD NON_SPEC    ACCESS:       2297  HIT:       1051  MISS:       1246  HIT %:    45.7553  MISS %:    54.2447   MPKI: 0.00623
LLC LOAD TRANSLATION NON_SPEC    ACCESS:      26285  HIT:        473  MISS:      25812  HIT %:    1.79951  MISS %:    98.2005   MPKI: 0.12906
LLC TRANSLATION FROM L1D PREFETCHER NON_SPEC    ACCESS:         28  HIT:          0  MISS:         28  HIT %:          0  MISS %:        100   MPKI: 0.00014
LLC PREFETCH  REQUESTED:          0  ISSUED:          0  USEFUL:      21798  USELESS:    3444660
LLC USEFUL LOAD PREFETCHES:      21798 PREFETCH ISSUED TO LOWER LEVEL:    3466900  ACCURACY: 0.628746
LLC TIMELY PREFETCHES:      21798 LATE PREFETCHES: 0 DROPPED PREFETCHES: 0
LLC COMMIT LATE PREFETCHES: 0 NORMAL LATE: 0 MISSED OPPORTUNITY: 0 UNCOVERED: 0
LLC PREFETCHES SAME FILL-ORIGIN LEVEL: 0 DIFFERENT FILL-ORIGIN LEVEL: 0
LLC AVERAGE MISS LATENCY: 160.388 cycles
LLC AVERAGE MISS LATENCY LOAD: 165.75 cycles
LLC AVERAGE MISS LATENCY PREFETCH: 170.378 cycles
LLC AVERAGE MSHR OCCUPANCY: 1.52021
LLC MSHR FULL: 0
LLC RQ	ACCESS:     779051	FORWARD:          0	MERGED:          0	TO_CACHE:     779050
LLC WQ	ACCESS:    2679463	FORWARD:          1	MERGED:          0	TO_CACHE:    2679463
LLC PQ	ACCESS:    3591999	FORWARD:          0	MERGED:          0	TO_CACHE:    3591999

LLC Dense regions hint to LLC: 0

RAW hits: 227275
Loads Generated: 48479808
Loads sent to L1D: 48252533
Stores Generated: 6802601
Stores sent to L1D: 6802601
Major fault: 0 Minor fault: 27134
Allocated PAGES: 27134
Total Load insts: 61209749
Total Non-spec loads: 15760624
Percentage of speculative loads: 74.2514

LeapFrogging counter: 37754
Commit hits: 21388738 miss: 11393380
Commit hit %: 65.2451 miss %: 34.7549
Commits not translated: 0
Loads retired: 2209224
Stores retired: 6802601
Cache fills: 2209224
L1D response latency: 77.0835 cycles
Load retirement latency: 101.782 cycles
OOO test counter: 0
Discarded buffer inserts: 21388738 hits: 5185 hit %: 0.0242417
Filter prediction accuracy: -nan

stream: 
stream:times selected: 11365675
stream:pref_filled: 3207882
stream:pref_useful: 727853
stream:pref_late: 87539
stream:misses: 226103
stream:misses_by_poll: 0

CS: 
CS:times selected: 5990720
CS:pref_filled: 3225283
CS:pref_useful: 2608954
CS:pref_late: 30725
CS:misses: 411031
CS:misses_by_poll: 11811

CPLX: 
CPLX:times selected: 5334975
CPLX:pref_filled: 106171
CPLX:pref_useful: 17652
CPLX:pref_late: 2607
CPLX:misses: 1004475
CPLX:misses_by_poll: 2317

NL_L1: 
NL:times selected: 24334
NL:pref_filled: 15183
NL:pref_useful: 3700
NL:pref_late: 685
NL:misses: 5487
NL:misses_by_poll: 252

total selections: 22715704
total_filled: 4679099
total_useful: 2540677
total_late: 124596
total_polluted: 14380
total_misses_after_warmup: 821213
conflicts: 617
Degree Incremented Times: 217993
Degree Decremented Times: 595390

L1 IP Table Write Accesses: 55280451
L1 IP Table Read Accesses: 55279834
L1 RST Write Accesses: 8295274
L1 RST Read Accesses: 16590548
L1 CSPT Write Accesses: 8295274
L1 CSPT Read Accesses: 11951980
L1 RR Filter Tag Write Accesses: 6349623
L1 RR Filter Tag Read Accesses: 618612255
L1 IP Table Tag Write Accesses: 55281817
L1 IP Table Tag Read Accesses: 55281817
L1 RST Tag Write Accesses: 0
L1 RST Tag Read Accesses: 74989407
L1 RR Filter Write Accesses: 0
L1 RR Filter Read Accesses: 21899714
test: 2980485

stream: 
stream:times selected: 9424836
stream:pref_filled: 3207882
stream:pref_useful: 727853
stream:pref_late: 87539
stream:misses: 540736
stream:misses_by_poll: 0

CS: 
CS:times selected: 3978206
CS:pref_filled: 3225283
CS:pref_useful: 2608954
CS:pref_late: 30725
CS:misses: 280031
CS:misses_by_poll: 13083

CPLX: 
CPLX:times selected: 5407177
CPLX:pref_filled: 106171
CPLX:pref_useful: 17652
CPLX:pref_late: 2607
CPLX:misses: 2326913
CPLX:misses_by_poll: 133

NL_L1: 
NL:times selected: 26924
NL:pref_filled: 15183
NL:pref_useful: 3700
NL:pref_late: 685
NL:misses: 14900
NL:misses_by_poll: 0

total selections: 18837143
total_filled: 4679099
total_useful: 2540677
total_late: 124596
total_polluted: 13216
total_misses_after_warmup: 2210028
conflicts: 232
Degree Incremented Times: 142645
Degree Decremented Times: 358317

L1 IP Table Write Accesses: 36927324
L1 IP Table Read Accesses: 36927092
L1 RST Write Accesses: 6999101
L1 RST Read Accesses: 13998202
L1 CSPT Write Accesses: 6999101
L1 CSPT Read Accesses: 10764563
L1 RR Filter Tag Write Accesses: 6090328
L1 RR Filter Tag Read Accesses: 469813801
L1 IP Table Tag Write Accesses: 36927569
L1 IP Table Tag Read Accesses: 36927569
L1 RST Tag Write Accesses: 0
L1 RST Tag Read Accesses: 63427179
L1 RR Filter Write Accesses: 0
L1 RR Filter Read Accesses: 16558761
test_pseudo: 2926010

DRAM Statistics
 CHANNEL 0
 RQ ROW_BUFFER_HIT:     534385  ROW_BUFFER_MISS:    3591360
 DBUS_CONGESTED:      10253
 WQ ROW_BUFFER_HIT:    1259236  ROW_BUFFER_MISS:    1377880  FULL:       1155

 AVG_CONGESTED_CYCLE: 4
 All warmup complete: 2
Channel 0 Bank busy for read cycles: 0
Channel 0 Bank busy for write cycles: 0
Channel 0
Rank 0
0banks busy for read cycles: 61490794
0banks busy for write cycles: 108569
1banks busy for read cycles: 247062008
1banks busy for write cycles: 16852576
2banks busy for read cycles: 96862865
2banks busy for write cycles: 16098545
3banks busy for read cycles: 28243699
3banks busy for write cycles: 15418290
4banks busy for read cycles: 6122813
4banks busy for write cycles: 14335035
5banks busy for read cycles: 1581137
5banks busy for write cycles: 13212574
6banks busy for read cycles: 722280
6banks busy for write cycles: 12725853
7banks busy for read cycles: 383580
7banks busy for write cycles: 15700241
8banks busy for read cycles: 225927
8banks busy for write cycles: 44673213

CPU 0 Branch Prediction Accuracy: 86.6486% MPKI: 29.0033 Average ROB Occupancy at Mispredict: 7.38786
Branch types
NOT_BRANCH: 156554093 78.277%
BRANCH_DIRECT_JUMP: 1976 0.000988%
BRANCH_INDIRECT: 3 1.5e-06%
BRANCH_CONDITIONAL: 43443275 21.7216%
BRANCH_DIRECT_CALL: 308 0.000154%
BRANCH_INDIRECT_CALL: 9 4.5e-06%
BRANCH_RETURN: 317 0.0001585%
BRANCH_OTHER: 0 0%

DRAM PAGES: 1048576
Allocated PAGES: 27134
