
*** ChampSim Multicore Out-of-Order Simulator ***

Warmup Instructions: 50000000
Simulation Instructions: 200000000
Number of CPUs: 1
LLC sets: 2048
LLC ways: 16
L0D sets: 16
L0D ways: 2
ROB size: 352
LQ size: 128
SQ size: 72
Secure Berti: OFF
Berti: OFF
Berti Fill: OFF
On commit prefetching: ON
Hit-based filter: OFF
Time-guarding: ON
Free-slotting: ON
Leap-frogging: ON
Train prefetcher on L0D bypass: OFF
No translation penalty for prefetchers: OFF
Prefetch to L0D only: OFF
Prefetch to L1D only: OFF
Clean evictions: ON
Commit loads: ON
Commit write: ON
Fill commit loads to L2C, LLC: ON
DRAM IO FREQUENCY: 6400
ROB SIZE: 352
Off-chip DRAM Size: 4096 MB Channels: 1 Width: 64-bit Data Rate: 6400 MT/s
CPU 0 runs /home/sumon/secure_berti/GhostMinion/../../traces/gap/bfs-3.trace.gz
.gz
BTB has LRU replacement policy
ITLB has LRU replacement policy
DTLB has LRU replacement policy
STLB has LRU replacement policy
L1I has LRU replacement policy
L0D has LRU replacement policy
IP Table Entries: 1024
CSPT Entries: 128
RR_ENTRIES: 32
RST_ENTRIES: 8
IP Table Entries: 1024
CSPT Entries: 128
RR_ENTRIES: 32
RST_ENTRIES: 8
L1D has LRU replacement policy
L2C has LRU replacement policy
LLC has LRU replacement policy
Heartbeat CPU 0 instructions: 10000002 cycles: 2973572 heartbeat IPC: 3.36296 cumulative IPC: 3.36296 (Simulation time: 0 hr 1 min 2 sec) 
Heartbeat CPU 0 instructions: 20000002 cycles: 6106664 heartbeat IPC: 3.19174 cumulative IPC: 3.27511 (Simulation time: 0 hr 2 min 33 sec) 
Heartbeat CPU 0 instructions: 30000000 cycles: 9230979 heartbeat IPC: 3.2007 cumulative IPC: 3.24993 (Simulation time: 0 hr 4 min 4 sec) 
Heartbeat CPU 0 instructions: 40000003 cycles: 12355724 heartbeat IPC: 3.20026 cumulative IPC: 3.23737 (Simulation time: 0 hr 5 min 36 sec) 
Heartbeat CPU 0 instructions: 50000003 cycles: 15508598 heartbeat IPC: 3.17171 cumulative IPC: 3.22402 (Simulation time: 0 hr 7 min 5 sec) 

Warmup complete CPU 0 instructions: 50000003 cycles: 15508598 (Simulation time: 0 hr 7 min 5 sec) 

Heartbeat CPU 0 instructions: 60000000 cycles: 60226654 heartbeat IPC: 0.223623 cumulative IPC: 0.223623 (Simulation time: 0 hr 8 min 28 sec) 
Heartbeat CPU 0 instructions: 70000001 cycles: 85688389 heartbeat IPC: 0.392746 cumulative IPC: 0.284982 (Simulation time: 0 hr 9 min 31 sec) 
Heartbeat CPU 0 instructions: 80000001 cycles: 99700634 heartbeat IPC: 0.713661 cumulative IPC: 0.356328 (Simulation time: 0 hr 10 min 20 sec) 
Heartbeat CPU 0 instructions: 90000000 cycles: 119348645 heartbeat IPC: 0.508957 cumulative IPC: 0.385208 (Simulation time: 0 hr 11 min 20 sec) 
Heartbeat CPU 0 instructions: 100000001 cycles: 157131583 heartbeat IPC: 0.26467 cumulative IPC: 0.35305 (Simulation time: 0 hr 12 min 42 sec) 
Heartbeat CPU 0 instructions: 110000000 cycles: 194910668 heartbeat IPC: 0.264697 cumulative IPC: 0.334444 (Simulation time: 0 hr 14 min 7 sec) 
Heartbeat CPU 0 instructions: 120000001 cycles: 234684651 heartbeat IPC: 0.251421 cumulative IPC: 0.319378 (Simulation time: 0 hr 15 min 30 sec) 
Heartbeat CPU 0 instructions: 130000000 cycles: 270149738 heartbeat IPC: 0.281967 cumulative IPC: 0.314168 (Simulation time: 0 hr 16 min 25 sec) 
Heartbeat CPU 0 instructions: 140000001 cycles: 290990599 heartbeat IPC: 0.479827 cumulative IPC: 0.3267 (Simulation time: 0 hr 16 min 58 sec) 
Heartbeat CPU 0 instructions: 150000000 cycles: 309645993 heartbeat IPC: 0.536038 cumulative IPC: 0.339977 (Simulation time: 0 hr 17 min 31 sec) 
Heartbeat CPU 0 instructions: 160000001 cycles: 333166476 heartbeat IPC: 0.425161 cumulative IPC: 0.346285 (Simulation time: 0 hr 18 min 7 sec) 
Heartbeat CPU 0 instructions: 170000002 cycles: 381939630 heartbeat IPC: 0.205031 cumulative IPC: 0.327483 (Simulation time: 0 hr 19 min 5 sec) 
Heartbeat CPU 0 instructions: 180000001 cycles: 427096016 heartbeat IPC: 0.221453 cumulative IPC: 0.31585 (Simulation time: 0 hr 20 min 6 sec) 
Heartbeat CPU 0 instructions: 190000000 cycles: 459850637 heartbeat IPC: 0.3053 cumulative IPC: 0.315073 (Simulation time: 0 hr 21 min 1 sec) 
Heartbeat CPU 0 instructions: 200000000 cycles: 503908117 heartbeat IPC: 0.226976 cumulative IPC: 0.307126 (Simulation time: 0 hr 21 min 47 sec) 
Heartbeat CPU 0 instructions: 210000002 cycles: 543190173 heartbeat IPC: 0.254569 cumulative IPC: 0.303213 (Simulation time: 0 hr 22 min 29 sec) 
Heartbeat CPU 0 instructions: 220000000 cycles: 566500553 heartbeat IPC: 0.428993 cumulative IPC: 0.308534 (Simulation time: 0 hr 23 min 0 sec) 
Heartbeat CPU 0 instructions: 230000000 cycles: 581907196 heartbeat IPC: 0.649071 cumulative IPC: 0.317797 (Simulation time: 0 hr 23 min 27 sec) 
Heartbeat CPU 0 instructions: 240000000 cycles: 603460304 heartbeat IPC: 0.46397 cumulative IPC: 0.323156 (Simulation time: 0 hr 23 min 58 sec) 
Heartbeat CPU 0 instructions: 250000001 cycles: 638387438 heartbeat IPC: 0.28631 cumulative IPC: 0.32109 (Simulation time: 0 hr 24 min 39 sec) 
Finished CPU 0 instructions: 200000000 cycles: 622878843 cumulative IPC: 0.32109 (Simulation time: 0 hr 24 min 39 sec) 
 Instruction ID: 250000003

ChampSim completed all CPUs

Region of Interest Statistics

CPU 0 cumulative IPC: 0.32109 instructions: 200000000 cycles: 622878843
ITLB SPEC fills:          0  NON-SPEC fills:          0
ITLB Test counter :          0
ITLB Leapfrog:          0
ITLB MSHR merge:          0
ITLB TOTAL     ACCESS:   33877414  HIT:   33877414  MISS:          0  HIT %:        100  MISS %:          0   MPKI: 0
ITLB LOAD TRANSLATION NON_SPEC    ACCESS:   33877414  HIT:   33877414  MISS:          0  HIT %:        100  MISS %:          0   MPKI: 0
ITLB PREFETCH  REQUESTED:          0  ISSUED:          0  USEFUL:          0  USELESS:          0
ITLB USEFUL LOAD PREFETCHES:          0 PREFETCH ISSUED TO LOWER LEVEL:          0  ACCURACY: -nan
ITLB TIMELY PREFETCHES:          0 LATE PREFETCHES: 0 DROPPED PREFETCHES: 0
ITLB COMMIT LATE PREFETCHES: 0 NORMAL LATE: 0 MISSED OPPORTUNITY: 0 UNCOVERED: 0
ITLB PREFETCHES SAME FILL-ORIGIN LEVEL: 0 DIFFERENT FILL-ORIGIN LEVEL: 0
ITLB AVERAGE MISS LATENCY: -nan cycles
ITLB AVERAGE MISS LATENCY LOAD: -nan cycles
ITLB AVERAGE MISS LATENCY PREFETCH: -nan cycles
ITLB AVERAGE MSHR OCCUPANCY: 0
ITLB MSHR FULL: 0
ITLB RQ	ACCESS:   41442716	FORWARD:          0	MERGED:    7565303	TO_CACHE:   33877413

DTLB SPEC fills:          0  NON-SPEC fills:          0
DTLB Test counter :          0
DTLB Leapfrog:          0
DTLB MSHR merge:          0
DTLB TOTAL     ACCESS:   44822643  HIT:   44090587  MISS:     732056  HIT %:    98.3668  MISS %:    1.63323   MPKI: 3.66028
DTLB LOAD TRANSLATION NON_SPEC    ACCESS:   44822643  HIT:   44090587  MISS:     732056  HIT %:    98.3668  MISS %:    1.63323   MPKI: 3.66028
DTLB PREFETCH  REQUESTED:          0  ISSUED:          0  USEFUL:          0  USELESS:          0
DTLB USEFUL LOAD PREFETCHES:          0 PREFETCH ISSUED TO LOWER LEVEL:          0  ACCURACY: -nan
DTLB TIMELY PREFETCHES:          0 LATE PREFETCHES: 0 DROPPED PREFETCHES: 0
DTLB COMMIT LATE PREFETCHES: 0 NORMAL LATE: 0 MISSED OPPORTUNITY: 0 UNCOVERED: 0
DTLB PREFETCHES SAME FILL-ORIGIN LEVEL: 0 DIFFERENT FILL-ORIGIN LEVEL: 0
DTLB AVERAGE MISS LATENCY: 39.1183 cycles
DTLB AVERAGE MISS LATENCY LOAD: -nan cycles
DTLB AVERAGE MISS LATENCY PREFETCH: -nan cycles
DTLB AVERAGE MSHR OCCUPANCY: 0.031634
DTLB MSHR FULL: 0.000196169
DTLB RQ	ACCESS:   47520168	FORWARD:          0	MERGED:    2633384	TO_CACHE:   44886784

STLB SPEC fills:          0  NON-SPEC fills:          0
STLB Test counter :          0
STLB Leapfrog:          0
STLB MSHR merge:          0
STLB TOTAL     ACCESS:    6298805  HIT:    6152606  MISS:     146199  HIT %:    97.6789  MISS %:    2.32106   MPKI: 0.730995
STLB LOAD TRANSLATION NON_SPEC    ACCESS:     732056  HIT:     585863  MISS:     146193  HIT %:    80.0298  MISS %:    19.9702   MPKI: 0.730965
STLB TRANSLATION FROM L1D PREFETCHER NON_SPEC    ACCESS:    5566749  HIT:    5566743  MISS:          6  HIT %:    99.9999  MISS %: 0.000107783   MPKI: 3e-05
STLB PREFETCH  REQUESTED:          0  ISSUED:          0  USEFUL:          6  USELESS:          0
STLB USEFUL LOAD PREFETCHES:          6 PREFETCH ISSUED TO LOWER LEVEL:          0  ACCURACY: inf
STLB TIMELY PREFETCHES:          6 LATE PREFETCHES: 0 DROPPED PREFETCHES: 0
STLB COMMIT LATE PREFETCHES: 0 NORMAL LATE: 0 MISSED OPPORTUNITY: 0 UNCOVERED: 0
STLB PREFETCHES SAME FILL-ORIGIN LEVEL: 0 DIFFERENT FILL-ORIGIN LEVEL: 0
STLB AVERAGE MISS LATENCY: 150.444 cycles
STLB AVERAGE MISS LATENCY LOAD: -nan cycles
STLB AVERAGE MISS LATENCY PREFETCH: -nan cycles
STLB AVERAGE MSHR OCCUPANCY: 0.0143316
STLB MSHR FULL: 0
STLB RQ	ACCESS:    7893139	FORWARD:          0	MERGED:    1593617	TO_CACHE:    6299522

STLB Hit, L1D data hit: 0
STLB Hit, L2C data hit: 0
STLB Hit, LLC data hit: 0
STLB Hit, LLC data miss: 0
STLB STLB hints to L2: 0
L0D SPEC fills:   21595102  NON-SPEC fills:          0
L0D TimeGuard Request with older TS:      82568 Restricted eviction:      32084 read:        380
L0D Test counter :          0
L0D Leapfrog:          0
L0D MSHR merge:     460654
L0D TOTAL     ACCESS:   39422699  HIT:    5364721  MISS:   34057978  HIT %:    13.6082  MISS %:    86.3918   MPKI: 170.29
L0D LOAD      TOTAL       ACCESS:   39422699  HIT:    5364721  MISS:   34057978  HIT %:    13.6082  MISS %:    86.3918   MPKI: 170.29
L0D LOAD      NON_SPEC    ACCESS:   12431513  HIT:        721  MISS:   12430792  HIT %: 0.00579978  MISS %:    99.9942   MPKI: 62.154
L0D LOAD      SPEC        ACCESS:   26991186  HIT:    5364000  MISS:   21627186  HIT %:    19.8732  MISS %:    80.1268   MPKI: 108.136
L0D PREFETCH  REQUESTED:          0  ISSUED:          0  USEFUL:          0  USELESS:          0
L0D USEFUL LOAD PREFETCHES:          0 PREFETCH ISSUED TO LOWER LEVEL:          0  ACCURACY: -nan
L0D TIMELY PREFETCHES:          0 LATE PREFETCHES: 0 DROPPED PREFETCHES: 0
L0D COMMIT LATE PREFETCHES: 0 NORMAL LATE: 0 MISSED OPPORTUNITY: 0 UNCOVERED: 0
L0D PREFETCHES SAME FILL-ORIGIN LEVEL: 0 DIFFERENT FILL-ORIGIN LEVEL: 0
L0D AVERAGE MISS LATENCY: 17.7345 cycles
L0D AVERAGE MISS LATENCY LOAD: 17.7345 cycles
L0D AVERAGE MISS LATENCY PREFETCH: -nan cycles
L0D AVERAGE MSHR OCCUPANCY: 1.28653
L0D MSHR FULL: 0.0758924
L0D RQ	ACCESS:   47480824	FORWARD:          0	MERGED:    7597476	TO_CACHE:   39883348
L0D WQ	ACCESS:    7636820	FORWARD:          0	MERGED:          0	TO_CACHE:    7636820

L1D SPEC fills:          0  NON-SPEC fills:    1585843
L1D Test counter :          0
L1D Leapfrog:          0
L1D MSHR merge:     271863
L1D TOTAL     ACCESS:   78974774  HIT:   66924925  MISS:   12049849  HIT %:    84.7422  MISS %:    15.2578   MPKI: 60.2492
L1D LOAD      TOTAL       ACCESS:   34057659  HIT:   30185394  MISS:    3872265  HIT %:    88.6303  MISS %:    11.3697   MPKI: 19.3613
L1D LOAD      NON_SPEC    ACCESS:   12430614  HIT:   10844771  MISS:    1585843  HIT %:    87.2424  MISS %:    12.7576   MPKI: 7.92922
L1D LOAD      SPEC        ACCESS:   21627045  HIT:   19340623  MISS:    2286422  HIT %:     89.428  MISS %:     10.572   MPKI: 11.4321
L1D RFO       NON_SPEC    ACCESS:    6185774  HIT:    6143353  MISS:      42421  HIT %:    99.3142  MISS %:   0.685783   MPKI: 0.212105
L1D PREFETCH  NON_SPEC    ACCESS:    6748199  HIT:     909179  MISS:    5839020  HIT %:    13.4729  MISS %:    86.5271   MPKI: 29.1951
L1D COMMIT LOAD NON_SPEC    ACCESS:   10435161  HIT:   10395859  MISS:      39302  HIT %:    99.6234  MISS %:   0.376631   MPKI: 0.19651
L1D COMMIT WRITE NON_SPEC    ACCESS:   21547981  HIT:   19291140  MISS:    2256841  HIT %:    89.5264  MISS %:    10.4736   MPKI: 11.2842
L1D PREFETCH  REQUESTED:    7175702  ISSUED:    7161083  USEFUL:    2207996  USELESS:    3631011
L1D USEFUL LOAD PREFETCHES:    2207996 PREFETCH ISSUED TO LOWER LEVEL:    6140121  ACCURACY: 35.9601
L1D TIMELY PREFETCHES:    2207996 LATE PREFETCHES: 278559 DROPPED PREFETCHES: 0
L1D COMMIT LATE PREFETCHES: 306996 NORMAL LATE: 310695 MISSED OPPORTUNITY: 14447 UNCOVERED: 3247199
L1D PREFETCHES SAME FILL-ORIGIN LEVEL: 6140121 DIFFERENT FILL-ORIGIN LEVEL: 0
L1D AVERAGE MISS LATENCY: 115.684 cycles
L1D AVERAGE MISS LATENCY LOAD: 110.362 cycles
L1D AVERAGE MISS LATENCY PREFETCH: 163.621 cycles
L1D AVERAGE MSHR OCCUPANCY: 2.38568
L1D MSHR FULL: 0.0357564
L1D RQ	ACCESS:   47558488	FORWARD:          0	MERGED:    1970969	TO_CACHE:   44493273
L1D WQ	ACCESS:   29128696	FORWARD:    1094246	MERGED:    1238730	TO_CACHE:   27889966
L1D PQ	ACCESS:    7161083	FORWARD:          0	MERGED:          0	TO_CACHE:    7161083

L1D UNIQUE REGIONS ACCESSED: 0
L1D REGIONS CONFLICTS: 0
L1D Cross Page Prefetch Requests: 0
L1D Same Page Prefetch Requests: 10757120
L1D ROI Sum of L1D PQ occupancy: 108103852
L1D PREFETCHES PUSHED FROM L2C: 0
L1I SPEC fills:          0  NON-SPEC fills:          0
L1I Test counter :          0
L1I Leapfrog:          0
L1I MSHR merge:          2
L1I TOTAL     ACCESS:   41442715  HIT:   41442698  MISS:         17  HIT %:        100  MISS %: 4.10205e-05   MPKI: 8.5e-05
L1I LOAD      TOTAL       ACCESS:   41442715  HIT:   41442698  MISS:         17  HIT %:        100  MISS %: 4.10205e-05   MPKI: 8.5e-05
L1I LOAD      NON_SPEC    ACCESS:   41442715  HIT:   41442698  MISS:         17  HIT %:        100  MISS %: 4.10205e-05   MPKI: 8.5e-05
L1I PREFETCH  REQUESTED:          0  ISSUED:          0  USEFUL:          0  USELESS:          0
L1I USEFUL LOAD PREFETCHES:          0 PREFETCH ISSUED TO LOWER LEVEL:          0  ACCURACY: -nan
L1I TIMELY PREFETCHES:          0 LATE PREFETCHES: 0 DROPPED PREFETCHES: 0
L1I COMMIT LATE PREFETCHES: 0 NORMAL LATE: 0 MISSED OPPORTUNITY: 0 UNCOVERED: 0
L1I PREFETCHES SAME FILL-ORIGIN LEVEL: 0 DIFFERENT FILL-ORIGIN LEVEL: 0
L1I AVERAGE MISS LATENCY: 277.824 cycles
L1I AVERAGE MISS LATENCY LOAD: 277.824 cycles
L1I AVERAGE MISS LATENCY PREFETCH: -nan cycles
L1I AVERAGE MSHR OCCUPANCY: 1.93038e-07
L1I MSHR FULL: 0
L1I RQ	ACCESS:   64760786	FORWARD:          0	MERGED:   23318070	TO_CACHE:   41442716

BTB SPEC fills:          0  NON-SPEC fills:          0
BTB Test counter :          0
BTB Leapfrog:          0
BTB MSHR merge:          0
BTB TOTAL     ACCESS:   40442036  HIT:   40441679  MISS:        357  HIT %:    99.9991  MISS %: 0.000882745   MPKI: 0.001785
BTB BRANCH_DIRECT_JUMP	ACCESS:      22041  HIT:      21996  MISS:         45
BTB BRANCH_INDIRECT	ACCESS:          3  HIT:          2  MISS:          1
BTB BRANCH_CONDITIONAL	ACCESS:   40419252  HIT:   40419148  MISS:        104
BTB BRANCH_DIRECT_CALL	ACCESS:        361  HIT:        318  MISS:         43
BTB BRANCH_INDIRECT_CALL	ACCESS:          9  HIT:          6  MISS:          3
BTB BRANCH_RETURN	ACCESS:        370  HIT:        209  MISS:        161
BTB BRANCH_OTHER ACCESS:          0  HIT:          0  MISS:          0

L2C SPEC fills:          0  NON-SPEC fills:     710999
L2C Test counter :          0
L2C Leapfrog:          0
L2C MSHR merge:          0
L2C TOTAL     ACCESS:   15161431  HIT:    5724196  MISS:    9437235  HIT %:     37.755  MISS %:     62.245   MPKI: 47.1862
L2C LOAD      TOTAL       ACCESS:    3600707  HIT:    1051119  MISS:    2549588  HIT %:     29.192  MISS %:     70.808   MPKI: 12.7479
L2C LOAD      NON_SPEC    ACCESS:    1399894  HIT:     688878  MISS:     711016  HIT %:    49.2093  MISS %:    50.7907   MPKI: 3.55508
L2C LOAD      SPEC        ACCESS:    2200813  HIT:     362241  MISS:    1838572  HIT %:    16.4594  MISS %:    83.5406   MPKI: 9.19286
L2C RFO       NON_SPEC    ACCESS:      19880  HIT:        633  MISS:      19247  HIT %:     3.1841  MISS %:    96.8159   MPKI: 0.096235
L2C PREFETCH  NON_SPEC    ACCESS:    6140101  HIT:    1101734  MISS:    5038367  HIT %:    17.9433  MISS %:    82.0567   MPKI: 25.1918
L2C WRITEBACK NON_SPEC    ACCESS:     603392  HIT:     603358  MISS:         34  HIT %:    99.9944  MISS %: 0.00563481   MPKI: 0.00017
L2C CLEAN_EVICTION NON_SPEC    ACCESS:    4034072  HIT:    2264674  MISS:    1769398  HIT %:    56.1387  MISS %:    43.8613   MPKI: 8.84699
L2C COMMIT LOAD NON_SPEC    ACCESS:      32285  HIT:       6011  MISS:      26274  HIT %:    18.6186  MISS %:    81.3814   MPKI: 0.13137
L2C LOAD TRANSLATION NON_SPEC    ACCESS:     730964  HIT:     696652  MISS:      34312  HIT %:    95.3059  MISS %:    4.69408   MPKI: 0.17156
L2C TRANSLATION FROM L1D PREFETCHER NON_SPEC    ACCESS:         30  HIT:         15  MISS:         15  HIT %:         50  MISS %:         50   MPKI: 7.5e-05
L2C PREFETCH  REQUESTED:          0  ISSUED:          0  USEFUL:      81338  USELESS:    4957006
L2C USEFUL LOAD PREFETCHES:      81338 PREFETCH ISSUED TO LOWER LEVEL:    5038368  ACCURACY: 1.61437
L2C TIMELY PREFETCHES:      81338 LATE PREFETCHES: 0 DROPPED PREFETCHES: 0
L2C COMMIT LATE PREFETCHES: 0 NORMAL LATE: 0 MISSED OPPORTUNITY: 0 UNCOVERED: 2549588
L2C PREFETCHES SAME FILL-ORIGIN LEVEL: 0 DIFFERENT FILL-ORIGIN LEVEL: 0
L2C AVERAGE MISS LATENCY: 137.381 cycles
L2C AVERAGE MISS LATENCY LOAD: 136.792 cycles
L2C AVERAGE MISS LATENCY PREFETCH: 184.49 cycles
L2C AVERAGE MSHR OCCUPANCY: 3.22837
L2C MSHR FULL: 0
L2C RQ	ACCESS:    4383899	FORWARD:          0	MERGED:          0	TO_CACHE:    4383866
L2C WQ	ACCESS:    4637473	FORWARD:         51	MERGED:          9	TO_CACHE:    4637464
L2C PQ	ACCESS:    6140121	FORWARD:          0	MERGED:          0	TO_CACHE:    6140103

L2C Instructions Evicting Data 17
L2C Translations Evicting Data 33712
L2C Data Evicting Data 5765380
L2C Instructions Evicting Instructions 0
L2C Translations Evicting Instructions 1
L2C Data Evicting Instructions 13
L2C Instructions Evicting Translations 0
L2C Translations Evicting Translations 614
L2C Data Evicting Translations 29494
L2C Dense regions hint from L2: 0
PSCL5 SPEC fills:          0  NON-SPEC fills:          0
PSCL5 Test counter :          0
PSCL5 Leapfrog:          0
PSCL5 MSHR merge:          0
PSCL5 TOTAL     ACCESS:          0  HIT:          0  MISS:          0  HIT %:       -nan  MISS %:       -nan   MPKI: 0
PSCL5 PREFETCH  REQUESTED:          0  ISSUED:          0  USEFUL:          0  USELESS:          0
PSCL5 USEFUL LOAD PREFETCHES:          0 PREFETCH ISSUED TO LOWER LEVEL:          0  ACCURACY: -nan
PSCL5 TIMELY PREFETCHES:          0 LATE PREFETCHES: 0 DROPPED PREFETCHES: 0
PSCL5 COMMIT LATE PREFETCHES: 0 NORMAL LATE: 0 MISSED OPPORTUNITY: 0 UNCOVERED: 0
PSCL5 PREFETCHES SAME FILL-ORIGIN LEVEL: 0 DIFFERENT FILL-ORIGIN LEVEL: 0

PSCL4 SPEC fills:          0  NON-SPEC fills:          0
PSCL4 Test counter :          0
PSCL4 Leapfrog:          0
PSCL4 MSHR merge:          0
PSCL4 TOTAL     ACCESS:          0  HIT:          0  MISS:          0  HIT %:       -nan  MISS %:       -nan   MPKI: 0
PSCL4 PREFETCH  REQUESTED:          0  ISSUED:          0  USEFUL:          0  USELESS:          0
PSCL4 USEFUL LOAD PREFETCHES:          0 PREFETCH ISSUED TO LOWER LEVEL:          0  ACCURACY: -nan
PSCL4 TIMELY PREFETCHES:          0 LATE PREFETCHES: 0 DROPPED PREFETCHES: 0
PSCL4 COMMIT LATE PREFETCHES: 0 NORMAL LATE: 0 MISSED OPPORTUNITY: 0 UNCOVERED: 0
PSCL4 PREFETCHES SAME FILL-ORIGIN LEVEL: 0 DIFFERENT FILL-ORIGIN LEVEL: 0

PSCL3 SPEC fills:          0  NON-SPEC fills:          0
PSCL3 Test counter :          0
PSCL3 Leapfrog:          0
PSCL3 MSHR merge:          0
PSCL3 TOTAL     ACCESS:          0  HIT:          0  MISS:          0  HIT %:       -nan  MISS %:       -nan   MPKI: 0
PSCL3 PREFETCH  REQUESTED:          0  ISSUED:          0  USEFUL:          0  USELESS:          0
PSCL3 USEFUL LOAD PREFETCHES:          0 PREFETCH ISSUED TO LOWER LEVEL:          0  ACCURACY: -nan
PSCL3 TIMELY PREFETCHES:          0 LATE PREFETCHES: 0 DROPPED PREFETCHES: 0
PSCL3 COMMIT LATE PREFETCHES: 0 NORMAL LATE: 0 MISSED OPPORTUNITY: 0 UNCOVERED: 0
PSCL3 PREFETCHES SAME FILL-ORIGIN LEVEL: 0 DIFFERENT FILL-ORIGIN LEVEL: 0

PSCL2 SPEC fills:          0  NON-SPEC fills:          0
PSCL2 Test counter :          0
PSCL2 Leapfrog:          0
PSCL2 MSHR merge:          0
PSCL2 TOTAL     ACCESS:          0  HIT:          0  MISS:          0  HIT %:       -nan  MISS %:       -nan   MPKI: 0
PSCL2 PREFETCH  REQUESTED:          0  ISSUED:          0  USEFUL:          0  USELESS:          0
PSCL2 USEFUL LOAD PREFETCHES:          0 PREFETCH ISSUED TO LOWER LEVEL:          0  ACCURACY: -nan
PSCL2 TIMELY PREFETCHES:          0 LATE PREFETCHES: 0 DROPPED PREFETCHES: 0
PSCL2 COMMIT LATE PREFETCHES: 0 NORMAL LATE: 0 MISSED OPPORTUNITY: 0 UNCOVERED: 0
PSCL2 PREFETCHES SAME FILL-ORIGIN LEVEL: 0 DIFFERENT FILL-ORIGIN LEVEL: 0

LLC SPEC fills:          0  NON-SPEC fills:     495482
LLC Test counter :          0
LLC Leapfrog:          0
LLC MSHR merge:          0
LLC TOTAL     ACCESS:   11835348  HIT:    5206436  MISS:    6628912  HIT %:    43.9906  MISS %:    56.0094   MPKI: 33.1446
LLC LOAD      TOTAL       ACCESS:    2549576  HIT:    1087919  MISS:    1461657  HIT %:    42.6706  MISS %:    57.3294   MPKI: 7.30828
LLC LOAD      NON_SPEC    ACCESS:     711014  HIT:     215515  MISS:     495499  HIT %:    30.3109  MISS %:    69.6891   MPKI: 2.47749
LLC LOAD      SPEC        ACCESS:    1838562  HIT:     872404  MISS:     966158  HIT %:    47.4503  MISS %:    52.5497   MPKI: 4.83079
LLC RFO       NON_SPEC    ACCESS:      19247  HIT:        291  MISS:      18956  HIT %:    1.51192  MISS %:    98.4881   MPKI: 0.09478
LLC PREFETCH  NON_SPEC    ACCESS:    5038363  HIT:     998557  MISS:    4039806  HIT %:    19.8191  MISS %:    80.1809   MPKI: 20.199
LLC WRITEBACK NON_SPEC    ACCESS:     467260  HIT:     464393  MISS:       2867  HIT %:    99.3864  MISS %:   0.613577   MPKI: 0.014335
LLC CLEAN_EVICTION NON_SPEC    ACCESS:    3700303  HIT:    2639379  MISS:    1060924  HIT %:    71.3287  MISS %:    28.6713   MPKI: 5.30462
LLC COMMIT LOAD NON_SPEC    ACCESS:      26272  HIT:      14641  MISS:      11631  HIT %:    55.7285  MISS %:    44.2715   MPKI: 0.058155
LLC LOAD TRANSLATION NON_SPEC    ACCESS:      34312  HIT:       1250  MISS:      33062  HIT %:    3.64304  MISS %:     96.357   MPKI: 0.16531
LLC TRANSLATION FROM L1D PREFETCHER NON_SPEC    ACCESS:         15  HIT:          6  MISS:          9  HIT %:         40  MISS %:         60   MPKI: 4.5e-05
LLC PREFETCH  REQUESTED:          0  ISSUED:          0  USEFUL:     187894  USELESS:    3851059
LLC USEFUL LOAD PREFETCHES:     187894 PREFETCH ISSUED TO LOWER LEVEL:    4039807  ACCURACY: 4.65106
LLC TIMELY PREFETCHES:     187894 LATE PREFETCHES: 0 DROPPED PREFETCHES: 0
LLC COMMIT LATE PREFETCHES: 0 NORMAL LATE: 0 MISSED OPPORTUNITY: 0 UNCOVERED: 0
LLC PREFETCHES SAME FILL-ORIGIN LEVEL: 0 DIFFERENT FILL-ORIGIN LEVEL: 0
LLC AVERAGE MISS LATENCY: 163.342 cycles
LLC AVERAGE MISS LATENCY LOAD: 197.553 cycles
LLC AVERAGE MISS LATENCY PREFETCH: 192.64 cycles
LLC AVERAGE MSHR OCCUPANCY: 3.222
LLC MSHR FULL: 0
LLC RQ	ACCESS:    2629436	FORWARD:          0	MERGED:          0	TO_CACHE:    2629422
LLC WQ	ACCESS:    4167563	FORWARD:         18	MERGED:          0	TO_CACHE:    4167563
LLC PQ	ACCESS:    5038368	FORWARD:          0	MERGED:          0	TO_CACHE:    5038364

LLC Dense regions hint to LLC: 0

RAW hits: 222724
Loads Generated: 47703547
Loads sent to L1D: 47480824
Stores Generated: 7636817
Stores sent to L1D: 7636820
Major fault: 0 Minor fault: 29015
Allocated PAGES: 29015
Total Load insts: 60238779
Total Non-spec loads: 12693243
Percentage of speculative loads: 78.9285

LeapFrogging counter: 451535
Commit hits: 21548786 miss: 13500515
Commit hit %: 61.4814 miss %: 38.5186
Commits not translated: 0
Loads retired: 3872265
Stores retired: 7636820
Cache fills: 3872265
L1D response latency: 110.362 cycles
Load retirement latency: 185.34 cycles
OOO test counter: 0
Discarded buffer inserts: 21548786 hits: 23643 hit %: 0.109718
Filter prediction accuracy: -nan

stream: 
stream:times selected: 12675569
stream:pref_filled: 4780557
stream:pref_useful: 672581
stream:pref_late: 140791
stream:misses: 600425
stream:misses_by_poll: 0

CS: 
CS:times selected: 5619131
CS:pref_filled: 2990444
CS:pref_useful: 2342995
CS:pref_late: 38283
CS:misses: 673017
CS:misses_by_poll: 19746

CPLX: 
CPLX:times selected: 7012534
CPLX:pref_filled: 182705
CPLX:pref_useful: 18518
CPLX:pref_late: 6147
CPLX:misses: 2881132
CPLX:misses_by_poll: 9995

NL_L1: 
NL:times selected: 27918
NL:pref_filled: 20144
NL:pref_useful: 3011
NL:pref_late: 497
NL:misses: 14297
NL:misses_by_poll: 876

total selections: 25335152
total_filled: 5839020
total_useful: 2207996
total_late: 193089
total_polluted: 30617
total_misses_after_warmup: 3023135
conflicts: 686
Degree Incremented Times: 207760
Degree Decremented Times: 661518

L1 IP Table Write Accesses: 55333240
L1 IP Table Read Accesses: 55332554
L1 RST Write Accesses: 9025906
L1 RST Read Accesses: 18051812
L1 CSPT Write Accesses: 9025906
L1 CSPT Read Accesses: 13629626
L1 RR Filter Tag Write Accesses: 7175702
L1 RR Filter Tag Read Accesses: 637908099
L1 IP Table Tag Write Accesses: 55334725
L1 IP Table Tag Read Accesses: 55334725
L1 RST Tag Write Accesses: 0
L1 RST Tag Read Accesses: 81038704
L1 RR Filter Write Accesses: 0
L1 RR Filter Read Accesses: 22127711
test: 3187829

stream: 
stream:times selected: 10344111
stream:pref_filled: 4780557
stream:pref_useful: 672581
stream:pref_late: 140791
stream:misses: 827576
stream:misses_by_poll: 0

CS: 
CS:times selected: 3604305
CS:pref_filled: 2990444
CS:pref_useful: 2342995
CS:pref_late: 38283
CS:misses: 329957
CS:misses_by_poll: 11874

CPLX: 
CPLX:times selected: 6698522
CPLX:pref_filled: 182705
CPLX:pref_useful: 18518
CPLX:pref_late: 6147
CPLX:misses: 3961351
CPLX:misses_by_poll: 162

NL_L1: 
NL:times selected: 31132
NL:pref_filled: 20144
NL:pref_useful: 3011
NL:pref_late: 497
NL:misses: 21449
NL:misses_by_poll: 1

total selections: 20678070
total_filled: 5839020
total_useful: 2207996
total_late: 193089
total_polluted: 12037
total_misses_after_warmup: 3872582
conflicts: 238
Degree Incremented Times: 126308
Degree Decremented Times: 356387

L1 IP Table Write Accesses: 34057721
L1 IP Table Read Accesses: 34057483
L1 RST Write Accesses: 7234268
L1 RST Read Accesses: 14468536
L1 CSPT Write Accesses: 7234268
L1 CSPT Read Accesses: 11511122
L1 RR Filter Tag Write Accesses: 6766532
L1 RR Filter Tag Read Accesses: 469622050
L1 IP Table Tag Write Accesses: 34057976
L1 IP Table Tag Read Accesses: 34057976
L1 RST Tag Write Accesses: 0
L1 RST Tag Read Accesses: 64857441
L1 RR Filter Write Accesses: 0
L1 RR Filter Read Accesses: 16123985
test_pseudo: 2984924

DRAM Statistics
 CHANNEL 0
 RQ ROW_BUFFER_HIT:     883068  ROW_BUFFER_MISS:    4680694
 DBUS_CONGESTED:       6837
 WQ ROW_BUFFER_HIT:    1592787  ROW_BUFFER_MISS:    1892609  FULL:       1951

 AVG_CONGESTED_CYCLE: 5
 All warmup complete: 2
Channel 0 Bank busy for read cycles: 0
Channel 0 Bank busy for write cycles: 0
Channel 0
Rank 0
0banks busy for read cycles: 51381701
0banks busy for write cycles: 25006
1banks busy for read cycles: 226657767
1banks busy for write cycles: 5981234
2banks busy for read cycles: 110882888
2banks busy for write cycles: 5027565
3banks busy for read cycles: 43956246
3banks busy for write cycles: 5172226
4banks busy for read cycles: 19499774
4banks busy for write cycles: 6033202
5banks busy for read cycles: 9658895
5banks busy for write cycles: 7447901
6banks busy for read cycles: 4561243
6banks busy for write cycles: 10989631
7banks busy for read cycles: 1895551
7banks busy for write cycles: 25933903
8banks busy for read cycles: 962717
8banks busy for write cycles: 86811394

CPU 0 Branch Prediction Accuracy: 88.7511% MPKI: 23.6813 Average ROB Occupancy at Mispredict: 10.0704
Branch types
NOT_BRANCH: 157895415 78.9477%
BRANCH_DIRECT_JUMP: 22041 0.0110205%
BRANCH_INDIRECT: 3 1.5e-06%
BRANCH_CONDITIONAL: 42081441 21.0407%
BRANCH_DIRECT_CALL: 361 0.0001805%
BRANCH_INDIRECT_CALL: 9 4.5e-06%
BRANCH_RETURN: 370 0.000185%
BRANCH_OTHER: 0 0%

DRAM PAGES: 1048576
Allocated PAGES: 29015
