
*** ChampSim Multicore Out-of-Order Simulator ***

Warmup Instructions: 50000000
Simulation Instructions: 200000000
Number of CPUs: 1
LLC sets: 2048
LLC ways: 16
L0D sets: 16
L0D ways: 2
ROB size: 352
LQ size: 128
SQ size: 72
Secure Berti: OFF
Berti: OFF
Berti Fill: OFF
On commit prefetching: ON
Hit-based filter: OFF
Time-guarding: ON
Free-slotting: ON
Leap-frogging: ON
Train prefetcher on L0D bypass: OFF
No translation penalty for prefetchers: OFF
Prefetch to L0D only: OFF
Prefetch to L1D only: OFF
Clean evictions: ON
Commit loads: ON
Commit write: ON
Fill commit loads to L2C, LLC: ON
DRAM IO FREQUENCY: 6400
ROB SIZE: 352
Off-chip DRAM Size: 4096 MB Channels: 1 Width: 64-bit Data Rate: 6400 MT/s
CPU 0 runs /home/sumon/secure_berti/GhostMinion/../../traces/gap/pr-10.trace.gz
.gz
BTB has LRU replacement policy
ITLB has LRU replacement policy
DTLB has LRU replacement policy
STLB has LRU replacement policy
L1I has LRU replacement policy
L0D has LRU replacement policy
IP Table Entries: 1024
CSPT Entries: 128
RR_ENTRIES: 32
RST_ENTRIES: 8
IP Table Entries: 1024
CSPT Entries: 128
RR_ENTRIES: 32
RST_ENTRIES: 8
L1D has LRU replacement policy
L2C has LRU replacement policy
LLC has LRU replacement policy
Heartbeat CPU 0 instructions: 10000002 cycles: 3333814 heartbeat IPC: 2.99957 cumulative IPC: 2.99957 (Simulation time: 0 hr 1 min 9 sec) 
Heartbeat CPU 0 instructions: 20000000 cycles: 19014974 heartbeat IPC: 0.637708 cumulative IPC: 1.0518 (Simulation time: 0 hr 3 min 28 sec) 
Heartbeat CPU 0 instructions: 30000003 cycles: 36920639 heartbeat IPC: 0.558483 cumulative IPC: 0.812554 (Simulation time: 0 hr 6 min 0 sec) 
Heartbeat CPU 0 instructions: 40000001 cycles: 54793655 heartbeat IPC: 0.559503 cumulative IPC: 0.730012 (Simulation time: 0 hr 8 min 31 sec) 
Heartbeat CPU 0 instructions: 50000001 cycles: 72526038 heartbeat IPC: 0.56394 cumulative IPC: 0.689408 (Simulation time: 0 hr 10 min 47 sec) 

Warmup complete CPU 0 instructions: 50000001 cycles: 72526038 (Simulation time: 0 hr 10 min 47 sec) 

Heartbeat CPU 0 instructions: 60000000 cycles: 283640237 heartbeat IPC: 0.0473677 cumulative IPC: 0.0473677 (Simulation time: 0 hr 13 min 34 sec) 
Heartbeat CPU 0 instructions: 70000000 cycles: 495093936 heartbeat IPC: 0.0472917 cumulative IPC: 0.0473297 (Simulation time: 0 hr 16 min 18 sec) 
Heartbeat CPU 0 instructions: 80000000 cycles: 706657093 heartbeat IPC: 0.0472672 cumulative IPC: 0.0473088 (Simulation time: 0 hr 18 min 53 sec) 
Heartbeat CPU 0 instructions: 90000000 cycles: 917192839 heartbeat IPC: 0.0474979 cumulative IPC: 0.0473559 (Simulation time: 0 hr 21 min 26 sec) 
Heartbeat CPU 0 instructions: 100000002 cycles: 1128523531 heartbeat IPC: 0.0473192 cumulative IPC: 0.0473486 (Simulation time: 0 hr 23 min 52 sec) 
Heartbeat CPU 0 instructions: 110000000 cycles: 1338612945 heartbeat IPC: 0.0475988 cumulative IPC: 0.0473901 (Simulation time: 0 hr 26 min 13 sec) 
Heartbeat CPU 0 instructions: 120000000 cycles: 1549643320 heartbeat IPC: 0.0473865 cumulative IPC: 0.0473896 (Simulation time: 0 hr 28 min 33 sec) 
Heartbeat CPU 0 instructions: 130000001 cycles: 1762416197 heartbeat IPC: 0.0469985 cumulative IPC: 0.0473404 (Simulation time: 0 hr 30 min 54 sec) 
Heartbeat CPU 0 instructions: 140000000 cycles: 1971412557 heartbeat IPC: 0.0478477 cumulative IPC: 0.0473962 (Simulation time: 0 hr 33 min 12 sec) 
Heartbeat CPU 0 instructions: 150000000 cycles: 2181938412 heartbeat IPC: 0.0475001 cumulative IPC: 0.0474066 (Simulation time: 0 hr 35 min 28 sec) 
Heartbeat CPU 0 instructions: 160000000 cycles: 2393093314 heartbeat IPC: 0.0473586 cumulative IPC: 0.0474022 (Simulation time: 0 hr 37 min 43 sec) 
Heartbeat CPU 0 instructions: 170000001 cycles: 2603091531 heartbeat IPC: 0.0476195 cumulative IPC: 0.0474202 (Simulation time: 0 hr 39 min 56 sec) 
Heartbeat CPU 0 instructions: 180000001 cycles: 2813923097 heartbeat IPC: 0.0474312 cumulative IPC: 0.0474211 (Simulation time: 0 hr 42 min 11 sec) 
Heartbeat CPU 0 instructions: 190000001 cycles: 2967875469 heartbeat IPC: 0.0649552 cumulative IPC: 0.0483534 (Simulation time: 0 hr 43 min 56 sec) 
Heartbeat CPU 0 instructions: 200000003 cycles: 3014207191 heartbeat IPC: 0.215835 cumulative IPC: 0.0509913 (Simulation time: 0 hr 44 min 47 sec) 
Heartbeat CPU 0 instructions: 210000000 cycles: 3225753498 heartbeat IPC: 0.047271 cumulative IPC: 0.0507417 (Simulation time: 0 hr 47 min 2 sec) 
Heartbeat CPU 0 instructions: 220000000 cycles: 3437343762 heartbeat IPC: 0.0472612 cumulative IPC: 0.0505228 (Simulation time: 0 hr 49 min 16 sec) 
Heartbeat CPU 0 instructions: 230000001 cycles: 3648752608 heartbeat IPC: 0.0473017 cumulative IPC: 0.0503324 (Simulation time: 0 hr 51 min 29 sec) 
Heartbeat CPU 0 instructions: 240000001 cycles: 3861835680 heartbeat IPC: 0.0469301 cumulative IPC: 0.0501411 (Simulation time: 0 hr 53 min 44 sec) 
Heartbeat CPU 0 instructions: 250000001 cycles: 4073057541 heartbeat IPC: 0.0473436 cumulative IPC: 0.0499934 (Simulation time: 0 hr 55 min 58 sec) 
Finished CPU 0 instructions: 200000000 cycles: 4000531503 cumulative IPC: 0.0499934 (Simulation time: 0 hr 55 min 58 sec) 
 Instruction ID: 250000130

ChampSim completed all CPUs

Region of Interest Statistics

CPU 0 cumulative IPC: 0.0499934 instructions: 200000000 cycles: 4000531503
ITLB SPEC fills:          0  NON-SPEC fills:          0
ITLB Test counter :          0
ITLB Leapfrog:          0
ITLB MSHR merge:          0
ITLB TOTAL     ACCESS:   59012994  HIT:   59012994  MISS:          0  HIT %:        100  MISS %:          0   MPKI: 0
ITLB LOAD TRANSLATION NON_SPEC    ACCESS:   59012994  HIT:   59012994  MISS:          0  HIT %:        100  MISS %:          0   MPKI: 0
ITLB PREFETCH  REQUESTED:          0  ISSUED:          0  USEFUL:          0  USELESS:          0
ITLB USEFUL LOAD PREFETCHES:          0 PREFETCH ISSUED TO LOWER LEVEL:          0  ACCURACY: -nan
ITLB TIMELY PREFETCHES:          0 LATE PREFETCHES: 0 DROPPED PREFETCHES: 0
ITLB COMMIT LATE PREFETCHES: 0 NORMAL LATE: 0 MISSED OPPORTUNITY: 0 UNCOVERED: 0
ITLB PREFETCHES SAME FILL-ORIGIN LEVEL: 0 DIFFERENT FILL-ORIGIN LEVEL: 0
ITLB AVERAGE MISS LATENCY: -nan cycles
ITLB AVERAGE MISS LATENCY LOAD: -nan cycles
ITLB AVERAGE MISS LATENCY PREFETCH: -nan cycles
ITLB AVERAGE MSHR OCCUPANCY: 0
ITLB MSHR FULL: 0
ITLB RQ	ACCESS:   60137926	FORWARD:          0	MERGED:    1124932	TO_CACHE:   59012994

DTLB SPEC fills:          0  NON-SPEC fills:          0
DTLB Test counter :          0
DTLB Leapfrog:          0
DTLB MSHR merge:          0
DTLB TOTAL     ACCESS:   70123659  HIT:   47168987  MISS:   22954672  HIT %:    67.2654  MISS %:    32.7346   MPKI: 114.773
DTLB LOAD TRANSLATION NON_SPEC    ACCESS:   70123659  HIT:   47168987  MISS:   22954672  HIT %:    67.2654  MISS %:    32.7346   MPKI: 114.773
DTLB PREFETCH  REQUESTED:          0  ISSUED:          0  USEFUL:          0  USELESS:          0
DTLB USEFUL LOAD PREFETCHES:          0 PREFETCH ISSUED TO LOWER LEVEL:          0  ACCURACY: -nan
DTLB TIMELY PREFETCHES:          0 LATE PREFETCHES: 0 DROPPED PREFETCHES: 0
DTLB COMMIT LATE PREFETCHES: 0 NORMAL LATE: 0 MISSED OPPORTUNITY: 0 UNCOVERED: 0
DTLB PREFETCHES SAME FILL-ORIGIN LEVEL: 0 DIFFERENT FILL-ORIGIN LEVEL: 0
DTLB AVERAGE MISS LATENCY: 9.31566 cycles
DTLB AVERAGE MISS LATENCY LOAD: -nan cycles
DTLB AVERAGE MISS LATENCY PREFETCH: -nan cycles
DTLB AVERAGE MSHR OCCUPANCY: 0.199552
DTLB MSHR FULL: 0
DTLB RQ	ACCESS:   71074113	FORWARD:          0	MERGED:     939632	TO_CACHE:   70134481

STLB SPEC fills:          0  NON-SPEC fills:          0
STLB Test counter :          0
STLB Leapfrog:          0
STLB MSHR merge:          0
STLB TOTAL     ACCESS:   57480346  HIT:   57439586  MISS:      40760  HIT %:    99.9291  MISS %:  0.0709112   MPKI: 0.2038
STLB LOAD TRANSLATION NON_SPEC    ACCESS:   22954672  HIT:   22913912  MISS:      40760  HIT %:    99.8224  MISS %:   0.177567   MPKI: 0.2038
STLB TRANSLATION FROM L1D PREFETCHER NON_SPEC    ACCESS:   34525674  HIT:   34525674  MISS:          0  HIT %:        100  MISS %:          0   MPKI: 0
STLB PREFETCH  REQUESTED:          0  ISSUED:          0  USEFUL:          0  USELESS:          0
STLB USEFUL LOAD PREFETCHES:          0 PREFETCH ISSUED TO LOWER LEVEL:          0  ACCURACY: -nan
STLB TIMELY PREFETCHES:          0 LATE PREFETCHES: 0 DROPPED PREFETCHES: 0
STLB COMMIT LATE PREFETCHES: 0 NORMAL LATE: 0 MISSED OPPORTUNITY: 0 UNCOVERED: 0
STLB PREFETCHES SAME FILL-ORIGIN LEVEL: 0 DIFFERENT FILL-ORIGIN LEVEL: 0
STLB AVERAGE MISS LATENCY: 168.016 cycles
STLB AVERAGE MISS LATENCY LOAD: -nan cycles
STLB AVERAGE MISS LATENCY PREFETCH: -nan cycles
STLB AVERAGE MSHR OCCUPANCY: 0.00105827
STLB MSHR FULL: 0
STLB RQ	ACCESS:   61177061	FORWARD:          0	MERGED:    3696683	TO_CACHE:   57480378

STLB Hit, L1D data hit: 0
STLB Hit, L2C data hit: 0
STLB Hit, LLC data hit: 0
STLB Hit, LLC data miss: 0
STLB STLB hints to L2: 0
L0D SPEC fills:    4596874  NON-SPEC fills:          0
L0D TimeGuard Request with older TS:      75406 Restricted eviction:      13208 read:      88246
L0D Test counter :          0
L0D Leapfrog:          0
L0D MSHR merge:    1413366
L0D TOTAL     ACCESS:   66361068  HIT:   24432345  MISS:   41928723  HIT %:    36.8173  MISS %:    63.1827   MPKI: 209.644
L0D LOAD      TOTAL       ACCESS:   66361068  HIT:   24432345  MISS:   41928723  HIT %:    36.8173  MISS %:    63.1827   MPKI: 209.644
L0D LOAD      NON_SPEC    ACCESS:   37330078  HIT:      11274  MISS:   37318804  HIT %:  0.0302008  MISS %:    99.9698   MPKI: 186.594
L0D LOAD      SPEC        ACCESS:   29030990  HIT:   24421071  MISS:    4609919  HIT %:    84.1207  MISS %:    15.8793   MPKI: 23.0496
L0D PREFETCH  REQUESTED:          0  ISSUED:          0  USEFUL:          0  USELESS:          0
L0D USEFUL LOAD PREFETCHES:          0 PREFETCH ISSUED TO LOWER LEVEL:          0  ACCURACY: -nan
L0D TIMELY PREFETCHES:          0 LATE PREFETCHES: 0 DROPPED PREFETCHES: 0
L0D COMMIT LATE PREFETCHES: 0 NORMAL LATE: 0 MISSED OPPORTUNITY: 0 UNCOVERED: 0
L0D PREFETCHES SAME FILL-ORIGIN LEVEL: 0 DIFFERENT FILL-ORIGIN LEVEL: 0
L0D AVERAGE MISS LATENCY: 83.31 cycles
L0D AVERAGE MISS LATENCY LOAD: 83.31 cycles
L0D AVERAGE MISS LATENCY PREFETCH: -nan cycles
L0D AVERAGE MSHR OCCUPANCY: 0.240492
L0D MSHR FULL: 0
L0D RQ	ACCESS:   77353834	FORWARD:          0	MERGED:    9579401	TO_CACHE:   67774433
L0D WQ	ACCESS:    3299680	FORWARD:          0	MERGED:          0	TO_CACHE:    3299680

L1D SPEC fills:          0  NON-SPEC fills:   32532376
L1D Test counter :          0
L1D Leapfrog:          0
L1D MSHR merge:     137221
L1D TOTAL     ACCESS:  120377540  HIT:   53551020  MISS:   66826520  HIT %:    44.4859  MISS %:    55.5141   MPKI: 334.133
L1D LOAD      TOTAL       ACCESS:   41928719  HIT:    9127125  MISS:   32801594  HIT %:    21.7682  MISS %:    78.2318   MPKI: 164.008
L1D LOAD      NON_SPEC    ACCESS:   37318803  HIT:    4786427  MISS:   32532376  HIT %:    12.8258  MISS %:    87.1742   MPKI: 162.662
L1D LOAD      SPEC        ACCESS:    4609916  HIT:    4340698  MISS:     269218  HIT %:      94.16  MISS %:    5.83998   MPKI: 1.34609
L1D RFO       NON_SPEC    ACCESS:    3278774  HIT:    3276785  MISS:       1989  HIT %:    99.9393  MISS %:  0.0606629   MPKI: 0.009945
L1D PREFETCH  NON_SPEC    ACCESS:   37345273  HIT:    3557346  MISS:   33787927  HIT %:    9.52556  MISS %:    90.4744   MPKI: 168.94
L1D COMMIT LOAD NON_SPEC    ACCESS:   33233493  HIT:   33233404  MISS:         89  HIT %:    99.9997  MISS %: 0.000267802   MPKI: 0.000445
L1D COMMIT WRITE NON_SPEC    ACCESS:    4591281  HIT:    4356360  MISS:     234921  HIT %:    94.8833  MISS %:    5.11668   MPKI: 1.1746
L1D PREFETCH  REQUESTED:   38222389  ISSUED:   38222389  USEFUL:    2424736  USELESS:   31363184
L1D USEFUL LOAD PREFETCHES:    2424736 PREFETCH ISSUED TO LOWER LEVEL:   33925625  ACCURACY: 7.14721
L1D TIMELY PREFETCHES:    2424736 LATE PREFETCHES: 137217 DROPPED PREFETCHES: 0
L1D COMMIT LATE PREFETCHES: 24830 NORMAL LATE: 875234 MISSED OPPORTUNITY: 887 UNCOVERED: 31900643
L1D PREFETCHES SAME FILL-ORIGIN LEVEL: 33925625 DIFFERENT FILL-ORIGIN LEVEL: 0
L1D AVERAGE MISS LATENCY: 105.301 cycles
L1D AVERAGE MISS LATENCY LOAD: 100.106 cycles
L1D AVERAGE MISS LATENCY PREFETCH: 111.072 cycles
L1D AVERAGE MSHR OCCUPANCY: 1.0899
L1D MSHR FULL: 0
L1D RQ	ACCESS:   77347115	FORWARD:          0	MERGED:    1950640	TO_CACHE:   75162216
L1D WQ	ACCESS:    7891073	FORWARD:     234259	MERGED:       1184	TO_CACHE:    7889889
L1D PQ	ACCESS:   38222389	FORWARD:          0	MERGED:          0	TO_CACHE:   38222389

L1D UNIQUE REGIONS ACCESSED: 0
L1D REGIONS CONFLICTS: 0
L1D Cross Page Prefetch Requests: 0
L1D Same Page Prefetch Requests: 46305299
L1D ROI Sum of L1D PQ occupancy: 540811666
L1D PREFETCHES PUSHED FROM L2C: 0
L1I SPEC fills:          0  NON-SPEC fills:          0
L1I Test counter :          0
L1I Leapfrog:          0
L1I MSHR merge:          1
L1I TOTAL     ACCESS:   60137925  HIT:   60137902  MISS:         23  HIT %:        100  MISS %: 3.82454e-05   MPKI: 0.000115
L1I LOAD      TOTAL       ACCESS:   60137925  HIT:   60137902  MISS:         23  HIT %:        100  MISS %: 3.82454e-05   MPKI: 0.000115
L1I LOAD      NON_SPEC    ACCESS:   60137925  HIT:   60137902  MISS:         23  HIT %:        100  MISS %: 3.82454e-05   MPKI: 0.000115
L1I PREFETCH  REQUESTED:          0  ISSUED:          0  USEFUL:          0  USELESS:          0
L1I USEFUL LOAD PREFETCHES:          0 PREFETCH ISSUED TO LOWER LEVEL:          0  ACCURACY: -nan
L1I TIMELY PREFETCHES:          0 LATE PREFETCHES: 0 DROPPED PREFETCHES: 0
L1I COMMIT LATE PREFETCHES: 0 NORMAL LATE: 0 MISSED OPPORTUNITY: 0 UNCOVERED: 0
L1I PREFETCHES SAME FILL-ORIGIN LEVEL: 0 DIFFERENT FILL-ORIGIN LEVEL: 0
L1I AVERAGE MISS LATENCY: 186 cycles
L1I AVERAGE MISS LATENCY LOAD: 186 cycles
L1I AVERAGE MISS LATENCY PREFETCH: -nan cycles
L1I AVERAGE MSHR OCCUPANCY: 1.33028e-07
L1I MSHR FULL: 0
L1I RQ	ACCESS:   71203831	FORWARD:          0	MERGED:   11065905	TO_CACHE:   60137926

BTB SPEC fills:          0  NON-SPEC fills:          0
BTB Test counter :          0
BTB Leapfrog:          0
BTB MSHR merge:          0
BTB TOTAL     ACCESS:   37027234  HIT:   37027062  MISS:        172  HIT %:    99.9995  MISS %: 0.000464523   MPKI: 0.00086
BTB BRANCH_DIRECT_JUMP	ACCESS:         67  HIT:         33  MISS:         34
BTB BRANCH_INDIRECT	ACCESS:          4  HIT:          0  MISS:          4
BTB BRANCH_CONDITIONAL	ACCESS:   37027097  HIT:   37027009  MISS:         88
BTB BRANCH_DIRECT_CALL	ACCESS:         28  HIT:         10  MISS:         18
BTB BRANCH_INDIRECT_CALL	ACCESS:          5  HIT:          1  MISS:          4
BTB BRANCH_RETURN	ACCESS:         33  HIT:          9  MISS:         24
BTB BRANCH_OTHER ACCESS:          0  HIT:          0  MISS:          0

L2C SPEC fills:          0  NON-SPEC fills:   25336425
L2C Test counter :          0
L2C Leapfrog:          0
L2C MSHR merge:          0
L2C TOTAL     ACCESS:   69433314  HIT:   16278474  MISS:   53154840  HIT %:    23.4448  MISS %:    76.5552   MPKI: 265.774
L2C LOAD      TOTAL       ACCESS:   32664387  HIT:    7188927  MISS:   25475460  HIT %:    22.0085  MISS %:    77.9915   MPKI: 127.377
L2C LOAD      NON_SPEC    ACCESS:   32443544  HIT:    7107096  MISS:   25336448  HIT %:     21.906  MISS %:     78.094   MPKI: 126.682
L2C LOAD      SPEC        ACCESS:     220843  HIT:      81831  MISS:     139012  HIT %:    37.0539  MISS %:    62.9461   MPKI: 0.69506
L2C RFO       NON_SPEC    ACCESS:       1507  HIT:          4  MISS:       1503  HIT %:   0.265428  MISS %:    99.7346   MPKI: 0.007515
L2C PREFETCH  NON_SPEC    ACCESS:   33925625  HIT:    6377414  MISS:   27548211  HIT %:    18.7982  MISS %:    81.2018   MPKI: 137.741
L2C WRITEBACK NON_SPEC    ACCESS:      83543  HIT:      83357  MISS:        186  HIT %:    99.7774  MISS %:    0.22264   MPKI: 0.00093
L2C CLEAN_EVICTION NON_SPEC    ACCESS:    2554410  HIT:    2442006  MISS:     112404  HIT %:    95.5996  MISS %:    4.40039   MPKI: 0.56202
L2C COMMIT LOAD NON_SPEC    ACCESS:         89  HIT:         83  MISS:          6  HIT %:    93.2584  MISS %:    6.74157   MPKI: 3e-05
L2C LOAD TRANSLATION NON_SPEC    ACCESS:     203753  HIT:     186683  MISS:      17070  HIT %:    91.6222  MISS %:    8.37779   MPKI: 0.08535
L2C PREFETCH  REQUESTED:          0  ISSUED:          0  USEFUL:    1087892  USELESS:   26460338
L2C USEFUL LOAD PREFETCHES:    1087892 PREFETCH ISSUED TO LOWER LEVEL:   27548211  ACCURACY: 3.94905
L2C TIMELY PREFETCHES:    1087892 LATE PREFETCHES: 0 DROPPED PREFETCHES: 0
L2C COMMIT LATE PREFETCHES: 0 NORMAL LATE: 0 MISSED OPPORTUNITY: 0 UNCOVERED: 25475460
L2C PREFETCHES SAME FILL-ORIGIN LEVEL: 0 DIFFERENT FILL-ORIGIN LEVEL: 0
L2C AVERAGE MISS LATENCY: 113.786 cycles
L2C AVERAGE MISS LATENCY LOAD: 109.062 cycles
L2C AVERAGE MISS LATENCY PREFETCH: 118.61 cycles
L2C AVERAGE MSHR OCCUPANCY: 1.09971
L2C MSHR FULL: 0
L2C RQ	ACCESS:   32869749	FORWARD:          0	MERGED:          0	TO_CACHE:   32869736
L2C WQ	ACCESS:    2637953	FORWARD:         13	MERGED:          0	TO_CACHE:    2637953
L2C PQ	ACCESS:   33925625	FORWARD:          0	MERGED:          0	TO_CACHE:   33925625

L2C Instructions Evicting Data 23
L2C Translations Evicting Data 17066
L2C Data Evicting Data 52869178
L2C Instructions Evicting Instructions 0
L2C Translations Evicting Instructions 0
L2C Data Evicting Instructions 21
L2C Instructions Evicting Translations 0
L2C Translations Evicting Translations 4
L2C Data Evicting Translations 16946
L2C Dense regions hint from L2: 0
PSCL5 SPEC fills:          0  NON-SPEC fills:          0
PSCL5 Test counter :          0
PSCL5 Leapfrog:          0
PSCL5 MSHR merge:          0
PSCL5 TOTAL     ACCESS:          0  HIT:          0  MISS:          0  HIT %:       -nan  MISS %:       -nan   MPKI: 0
PSCL5 PREFETCH  REQUESTED:          0  ISSUED:          0  USEFUL:          0  USELESS:          0
PSCL5 USEFUL LOAD PREFETCHES:          0 PREFETCH ISSUED TO LOWER LEVEL:          0  ACCURACY: -nan
PSCL5 TIMELY PREFETCHES:          0 LATE PREFETCHES: 0 DROPPED PREFETCHES: 0
PSCL5 COMMIT LATE PREFETCHES: 0 NORMAL LATE: 0 MISSED OPPORTUNITY: 0 UNCOVERED: 0
PSCL5 PREFETCHES SAME FILL-ORIGIN LEVEL: 0 DIFFERENT FILL-ORIGIN LEVEL: 0

PSCL4 SPEC fills:          0  NON-SPEC fills:          0
PSCL4 Test counter :          0
PSCL4 Leapfrog:          0
PSCL4 MSHR merge:          0
PSCL4 TOTAL     ACCESS:          0  HIT:          0  MISS:          0  HIT %:       -nan  MISS %:       -nan   MPKI: 0
PSCL4 PREFETCH  REQUESTED:          0  ISSUED:          0  USEFUL:          0  USELESS:          0
PSCL4 USEFUL LOAD PREFETCHES:          0 PREFETCH ISSUED TO LOWER LEVEL:          0  ACCURACY: -nan
PSCL4 TIMELY PREFETCHES:          0 LATE PREFETCHES: 0 DROPPED PREFETCHES: 0
PSCL4 COMMIT LATE PREFETCHES: 0 NORMAL LATE: 0 MISSED OPPORTUNITY: 0 UNCOVERED: 0
PSCL4 PREFETCHES SAME FILL-ORIGIN LEVEL: 0 DIFFERENT FILL-ORIGIN LEVEL: 0

PSCL3 SPEC fills:          0  NON-SPEC fills:          0
PSCL3 Test counter :          0
PSCL3 Leapfrog:          0
PSCL3 MSHR merge:          0
PSCL3 TOTAL     ACCESS:          0  HIT:          0  MISS:          0  HIT %:       -nan  MISS %:       -nan   MPKI: 0
PSCL3 PREFETCH  REQUESTED:          0  ISSUED:          0  USEFUL:          0  USELESS:          0
PSCL3 USEFUL LOAD PREFETCHES:          0 PREFETCH ISSUED TO LOWER LEVEL:          0  ACCURACY: -nan
PSCL3 TIMELY PREFETCHES:          0 LATE PREFETCHES: 0 DROPPED PREFETCHES: 0
PSCL3 COMMIT LATE PREFETCHES: 0 NORMAL LATE: 0 MISSED OPPORTUNITY: 0 UNCOVERED: 0
PSCL3 PREFETCHES SAME FILL-ORIGIN LEVEL: 0 DIFFERENT FILL-ORIGIN LEVEL: 0

PSCL2 SPEC fills:          0  NON-SPEC fills:          0
PSCL2 Test counter :          0
PSCL2 Leapfrog:          0
PSCL2 MSHR merge:          0
PSCL2 TOTAL     ACCESS:          0  HIT:          0  MISS:          0  HIT %:       -nan  MISS %:       -nan   MPKI: 0
PSCL2 PREFETCH  REQUESTED:          0  ISSUED:          0  USEFUL:          0  USELESS:          0
PSCL2 USEFUL LOAD PREFETCHES:          0 PREFETCH ISSUED TO LOWER LEVEL:          0  ACCURACY: -nan
PSCL2 TIMELY PREFETCHES:          0 LATE PREFETCHES: 0 DROPPED PREFETCHES: 0
PSCL2 COMMIT LATE PREFETCHES: 0 NORMAL LATE: 0 MISSED OPPORTUNITY: 0 UNCOVERED: 0
PSCL2 PREFETCHES SAME FILL-ORIGIN LEVEL: 0 DIFFERENT FILL-ORIGIN LEVEL: 0

LLC SPEC fills:          0  NON-SPEC fills:   12323950
LLC Test counter :          0
LLC Leapfrog:          0
LLC MSHR merge:          0
LLC TOTAL     ACCESS:   55626942  HIT:   27764265  MISS:   27862677  HIT %:    49.9115  MISS %:    50.0885   MPKI: 139.313
LLC LOAD      TOTAL       ACCESS:   25475460  HIT:   13015525  MISS:   12459935  HIT %:    51.0904  MISS %:    48.9096   MPKI: 62.2997
LLC LOAD      NON_SPEC    ACCESS:   25336448  HIT:   13012475  MISS:   12323973  HIT %:    51.3587  MISS %:    48.6413   MPKI: 61.6199
LLC LOAD      SPEC        ACCESS:     139012  HIT:       3050  MISS:     135962  HIT %:    2.19406  MISS %:    97.8059   MPKI: 0.67981
LLC RFO       NON_SPEC    ACCESS:       1503  HIT:         63  MISS:       1440  HIT %:    4.19162  MISS %:    95.8084   MPKI: 0.0072
LLC PREFETCH  NON_SPEC    ACCESS:   27548211  HIT:   12263641  MISS:   15284570  HIT %:     44.517  MISS %:     55.483   MPKI: 76.4228
LLC WRITEBACK NON_SPEC    ACCESS:      66870  HIT:      66477  MISS:        393  HIT %:    99.4123  MISS %:   0.587707   MPKI: 0.001965
LLC CLEAN_EVICTION NON_SPEC    ACCESS:    2517822  HIT:    2409907  MISS:     107915  HIT %:     95.714  MISS %:    4.28605   MPKI: 0.539575
LLC COMMIT LOAD NON_SPEC    ACCESS:          6  HIT:          5  MISS:          1  HIT %:    83.3333  MISS %:    16.6667   MPKI: 5e-06
LLC LOAD TRANSLATION NON_SPEC    ACCESS:      17070  HIT:       8647  MISS:       8423  HIT %:    50.6561  MISS %:    49.3439   MPKI: 0.042115
LLC PREFETCH  REQUESTED:          0  ISSUED:          0  USEFUL:    1848217  USELESS:   13436667
LLC USEFUL LOAD PREFETCHES:    1848217 PREFETCH ISSUED TO LOWER LEVEL:   15284570  ACCURACY: 12.092
LLC TIMELY PREFETCHES:    1848217 LATE PREFETCHES: 0 DROPPED PREFETCHES: 0
LLC COMMIT LATE PREFETCHES: 0 NORMAL LATE: 0 MISSED OPPORTUNITY: 0 UNCOVERED: 0
LLC PREFETCHES SAME FILL-ORIGIN LEVEL: 0 DIFFERENT FILL-ORIGIN LEVEL: 0
LLC AVERAGE MISS LATENCY: 159.977 cycles
LLC AVERAGE MISS LATENCY LOAD: 161.723 cycles
LLC AVERAGE MISS LATENCY PREFETCH: 159.671 cycles
LLC AVERAGE MSHR OCCUPANCY: 0.761791
LLC MSHR FULL: 0
LLC RQ	ACCESS:   25494039	FORWARD:          0	MERGED:          0	TO_CACHE:   25494039
LLC WQ	ACCESS:    2584692	FORWARD:          0	MERGED:          0	TO_CACHE:    2584692
LLC PQ	ACCESS:   27548211	FORWARD:          0	MERGED:          0	TO_CACHE:   27548211

LLC Dense regions hint to LLC: 0

RAW hits: 21
Loads Generated: 77353857
Loads sent to L1D: 77353834
Stores Generated: 3299680
Stores sent to L1D: 3299680
Major fault: 0 Minor fault: 34900
Allocated PAGES: 34900
Total Load insts: 95651032
Total Non-spec loads: 44649575
Percentage of speculative loads: 53.3203

LeapFrogging counter: 0
Commit hits: 4591393 miss: 35418393
Commit hit %: 11.4757 miss %: 88.5243
Commits not translated: 0
Loads retired: 32801593
Stores retired: 3299680
Cache fills: 32801594
L1D response latency: 100.106 cycles
Load retirement latency: 123.897 cycles
OOO test counter: 0
Discarded buffer inserts: 4591393 hits: 37701 hit %: 0.821123
Filter prediction accuracy: -nan

stream: 
stream:times selected: 43435641
stream:pref_filled: 36944153
stream:pref_useful: 439107
stream:pref_late: 60378
stream:misses: 33437
stream:misses_by_poll: 0

CS: 
CS:times selected: 3967356
CS:pref_filled: 3148595
CS:pref_useful: 2775499
CS:pref_late: 19531
CS:misses: 500784
CS:misses_by_poll: 23514

CPLX: 
CPLX:times selected: 39106066
CPLX:pref_filled: 740058
CPLX:pref_useful: 22002
CPLX:pref_late: 5083
CPLX:misses: 92065
CPLX:misses_by_poll: 899

NL_L1: 
NL:times selected: 323652
NL:pref_filled: 314552
NL:pref_useful: 1345
NL:pref_late: 114
NL:misses: 1211
NL:misses_by_poll: 461

total selections: 86832715
total_filled: 33787927
total_useful: 2424736
total_late: 90404
total_polluted: 24874
total_misses_after_warmup: 401562
conflicts: 112
Degree Incremented Times: 378984
Degree Decremented Times: 1125248

L1 IP Table Write Accesses: 80653423
L1 IP Table Read Accesses: 80653311
L1 RST Write Accesses: 35810590
L1 RST Read Accesses: 71621180
L1 CSPT Write Accesses: 35810590
L1 CSPT Read Accesses: 68286882
L1 RR Filter Tag Write Accesses: 38222389
L1 RR Filter Tag Read Accesses: 1376003722
L1 IP Table Tag Write Accesses: 80653538
L1 IP Table Tag Read Accesses: 80653538
L1 RST Tag Write Accesses: 0
L1 RST Tag Read Accesses: 321420982
L1 RR Filter Write Accesses: 0
L1 RR Filter Read Accesses: 44856349
test: 23140682

stream: 
stream:times selected: 43235162
stream:pref_filled: 36944153
stream:pref_useful: 439107
stream:pref_late: 60378
stream:misses: 9310802
stream:misses_by_poll: 0

CS: 
CS:times selected: 3755716
CS:pref_filled: 3148595
CS:pref_useful: 2775499
CS:pref_late: 19531
CS:misses: 465772
CS:misses_by_poll: 2871

CPLX: 
CPLX:times selected: 39117299
CPLX:pref_filled: 740058
CPLX:pref_useful: 22002
CPLX:pref_late: 5083
CPLX:misses: 29476980
CPLX:misses_by_poll: 286

NL_L1: 
NL:times selected: 53971
NL:pref_filled: 314552
NL:pref_useful: 1345
NL:pref_late: 114
NL:misses: 52980
NL:misses_by_poll: 0

total selections: 86162148
total_filled: 33787927
total_useful: 2424736
total_late: 90404
total_polluted: 3157
total_misses_after_warmup: 32801598
conflicts: 99
Degree Incremented Times: 197777
Degree Decremented Times: 601264

L1 IP Table Write Accesses: 41928684
L1 IP Table Read Accesses: 41928585
L1 RST Write Accesses: 35687630
L1 RST Read Accesses: 71375260
L1 CSPT Write Accesses: 35687630
L1 CSPT Read Accesses: 68174563
L1 RR Filter Tag Write Accesses: 37248829
L1 RR Filter Tag Read Accesses: 1339202009
L1 IP Table Tag Write Accesses: 41928723
L1 IP Table Tag Read Accesses: 41928723
L1 RST Tag Write Accesses: 0
L1 RST Tag Read Accesses: 320314612
L1 RR Filter Write Accesses: 0
L1 RR Filter Read Accesses: 44070788
test_pseudo: 23137346

DRAM Statistics
 CHANNEL 0
 RQ ROW_BUFFER_HIT:    4486400  ROW_BUFFER_MISS:   23267950
 DBUS_CONGESTED:      69843
 WQ ROW_BUFFER_HIT:    1036570  ROW_BUFFER_MISS:    1547610  FULL:          0

 AVG_CONGESTED_CYCLE: 2
 All warmup complete: 2
Channel 0 Bank busy for read cycles: 0
Channel 0 Bank busy for write cycles: 0
Channel 0
Rank 0
0banks busy for read cycles: 683763653
0banks busy for write cycles: 1115431
1banks busy for read cycles: 1640526195
1banks busy for write cycles: 369376149
2banks busy for read cycles: 851927034
2banks busy for write cycles: 176827721
3banks busy for read cycles: 106519487
3banks busy for write cycles: 78601918
4banks busy for read cycles: 11454091
4banks busy for write cycles: 34243132
5banks busy for read cycles: 988273
5banks busy for write cycles: 15846793
6banks busy for read cycles: 61494
6banks busy for write cycles: 8943070
7banks busy for read cycles: 2185
7banks busy for write cycles: 6755956
8banks busy for read cycles: 75
8banks busy for write cycles: 13578847

CPU 0 Branch Prediction Accuracy: 96.9594% MPKI: 5.62926 Average ROB Occupancy at Mispredict: 138.568
Branch types
NOT_BRANCH: 162972286 81.4861%
BRANCH_DIRECT_JUMP: 67 3.35e-05%
BRANCH_INDIRECT: 4 2e-06%
BRANCH_CONDITIONAL: 37027324 18.5137%
BRANCH_DIRECT_CALL: 28 1.4e-05%
BRANCH_INDIRECT_CALL: 5 2.5e-06%
BRANCH_RETURN: 33 1.65e-05%
BRANCH_OTHER: 0 0%

DRAM PAGES: 1048576
Allocated PAGES: 34900
