
*** ChampSim Multicore Out-of-Order Simulator ***

Warmup Instructions: 50000000
Simulation Instructions: 200000000
Number of CPUs: 1
LLC sets: 2048
LLC ways: 16
L0D sets: 16
L0D ways: 2
ROB size: 352
LQ size: 128
SQ size: 72
Secure Berti: OFF
Berti: OFF
Berti Fill: OFF
On commit prefetching: ON
Hit-based filter: OFF
Time-guarding: ON
Free-slotting: ON
Leap-frogging: ON
Train prefetcher on L0D bypass: OFF
No translation penalty for prefetchers: OFF
Prefetch to L0D only: OFF
Prefetch to L1D only: OFF
Clean evictions: ON
Commit loads: ON
Commit write: ON
Fill commit loads to L2C, LLC: ON
DRAM IO FREQUENCY: 6400
ROB SIZE: 352
Off-chip DRAM Size: 4096 MB Channels: 1 Width: 64-bit Data Rate: 6400 MT/s
CPU 0 runs /home/sumon/secure_berti/GhostMinion/../../traces/gap/pr-14.trace.gz
.gz
BTB has LRU replacement policy
ITLB has LRU replacement policy
DTLB has LRU replacement policy
STLB has LRU replacement policy
L1I has LRU replacement policy
L0D has LRU replacement policy
IP Table Entries: 1024
CSPT Entries: 128
RR_ENTRIES: 32
RST_ENTRIES: 8
IP Table Entries: 1024
CSPT Entries: 128
RR_ENTRIES: 32
RST_ENTRIES: 8
L1D has LRU replacement policy
L2C has LRU replacement policy
LLC has LRU replacement policy
Heartbeat CPU 0 instructions: 10000001 cycles: 3333805 heartbeat IPC: 2.99958 cumulative IPC: 2.99958 (Simulation time: 0 hr 0 min 53 sec) 
Heartbeat CPU 0 instructions: 20000001 cycles: 18977255 heartbeat IPC: 0.639245 cumulative IPC: 1.05389 (Simulation time: 0 hr 2 min 37 sec) 
Heartbeat CPU 0 instructions: 30000003 cycles: 36864975 heartbeat IPC: 0.559043 cumulative IPC: 0.813781 (Simulation time: 0 hr 4 min 30 sec) 
Heartbeat CPU 0 instructions: 40000003 cycles: 54691547 heartbeat IPC: 0.56096 cumulative IPC: 0.731375 (Simulation time: 0 hr 6 min 24 sec) 
Heartbeat CPU 0 instructions: 50000000 cycles: 72511940 heartbeat IPC: 0.561155 cumulative IPC: 0.689542 (Simulation time: 0 hr 8 min 19 sec) 

Warmup complete CPU 0 instructions: 50000004 cycles: 72511949 (Simulation time: 0 hr 8 min 19 sec) 

Heartbeat CPU 0 instructions: 60000000 cycles: 273494059 heartbeat IPC: 0.0497557 cumulative IPC: 0.0497557 (Simulation time: 0 hr 11 min 43 sec) 
Heartbeat CPU 0 instructions: 70000000 cycles: 475410336 heartbeat IPC: 0.0495255 cumulative IPC: 0.0496403 (Simulation time: 0 hr 15 min 1 sec) 
Heartbeat CPU 0 instructions: 80000001 cycles: 677068372 heartbeat IPC: 0.0495889 cumulative IPC: 0.0496232 (Simulation time: 0 hr 18 min 13 sec) 
Heartbeat CPU 0 instructions: 90000000 cycles: 878536239 heartbeat IPC: 0.0496357 cumulative IPC: 0.0496263 (Simulation time: 0 hr 21 min 27 sec) 
Heartbeat CPU 0 instructions: 100000001 cycles: 1080930133 heartbeat IPC: 0.0494086 cumulative IPC: 0.0495826 (Simulation time: 0 hr 24 min 14 sec) 
Heartbeat CPU 0 instructions: 110000000 cycles: 1281890690 heartbeat IPC: 0.049761 cumulative IPC: 0.0496122 (Simulation time: 0 hr 26 min 32 sec) 
Heartbeat CPU 0 instructions: 120000001 cycles: 1482952926 heartbeat IPC: 0.0497358 cumulative IPC: 0.0496299 (Simulation time: 0 hr 28 min 50 sec) 
Heartbeat CPU 0 instructions: 130000000 cycles: 1682490637 heartbeat IPC: 0.0501158 cumulative IPC: 0.0496901 (Simulation time: 0 hr 31 min 6 sec) 
Heartbeat CPU 0 instructions: 140000002 cycles: 1883818721 heartbeat IPC: 0.0496702 cumulative IPC: 0.0496879 (Simulation time: 0 hr 33 min 21 sec) 
Heartbeat CPU 0 instructions: 150000001 cycles: 2085129295 heartbeat IPC: 0.0496745 cumulative IPC: 0.0496865 (Simulation time: 0 hr 35 min 33 sec) 
Heartbeat CPU 0 instructions: 160000001 cycles: 2286549953 heartbeat IPC: 0.0496473 cumulative IPC: 0.049683 (Simulation time: 0 hr 37 min 44 sec) 
Heartbeat CPU 0 instructions: 170000003 cycles: 2486815581 heartbeat IPC: 0.0499337 cumulative IPC: 0.0497038 (Simulation time: 0 hr 39 min 54 sec) 
Heartbeat CPU 0 instructions: 180000001 cycles: 2687779411 heartbeat IPC: 0.0497602 cumulative IPC: 0.0497081 (Simulation time: 0 hr 42 min 4 sec) 
Heartbeat CPU 0 instructions: 190000001 cycles: 2835636207 heartbeat IPC: 0.067633 cumulative IPC: 0.0506673 (Simulation time: 0 hr 43 min 46 sec) 
Heartbeat CPU 0 instructions: 200000002 cycles: 2880762016 heartbeat IPC: 0.221603 cumulative IPC: 0.053414 (Simulation time: 0 hr 44 min 38 sec) 
Heartbeat CPU 0 instructions: 210000001 cycles: 3081943361 heartbeat IPC: 0.0497064 cumulative IPC: 0.0531662 (Simulation time: 0 hr 46 min 48 sec) 
Heartbeat CPU 0 instructions: 220000000 cycles: 3283562961 heartbeat IPC: 0.0495983 cumulative IPC: 0.0529422 (Simulation time: 0 hr 48 min 58 sec) 
Heartbeat CPU 0 instructions: 230000000 cycles: 3484469874 heartbeat IPC: 0.0497743 cumulative IPC: 0.0527556 (Simulation time: 0 hr 51 min 7 sec) 
Heartbeat CPU 0 instructions: 240000002 cycles: 3685996446 heartbeat IPC: 0.0496213 cumulative IPC: 0.0525808 (Simulation time: 0 hr 53 min 16 sec) 
Heartbeat CPU 0 instructions: 250000003 cycles: 3886351980 heartbeat IPC: 0.0499113 cumulative IPC: 0.0524406 (Simulation time: 0 hr 55 min 26 sec) 
Finished CPU 0 instructions: 200000000 cycles: 3813840032 cumulative IPC: 0.0524406 (Simulation time: 0 hr 55 min 26 sec) 
 Instruction ID: 250000385

ChampSim completed all CPUs

Region of Interest Statistics

CPU 0 cumulative IPC: 0.0524406 instructions: 200000000 cycles: 3813840032
ITLB SPEC fills:          0  NON-SPEC fills:          0
ITLB Test counter :          0
ITLB Leapfrog:          0
ITLB MSHR merge:          0
ITLB TOTAL     ACCESS:   58961637  HIT:   58961637  MISS:          0  HIT %:        100  MISS %:          0   MPKI: 0
ITLB LOAD TRANSLATION NON_SPEC    ACCESS:   58961637  HIT:   58961637  MISS:          0  HIT %:        100  MISS %:          0   MPKI: 0
ITLB PREFETCH  REQUESTED:          0  ISSUED:          0  USEFUL:          0  USELESS:          0
ITLB USEFUL LOAD PREFETCHES:          0 PREFETCH ISSUED TO LOWER LEVEL:          0  ACCURACY: -nan
ITLB TIMELY PREFETCHES:          0 LATE PREFETCHES: 0 DROPPED PREFETCHES: 0
ITLB COMMIT LATE PREFETCHES: 0 NORMAL LATE: 0 MISSED OPPORTUNITY: 0 UNCOVERED: 0
ITLB PREFETCHES SAME FILL-ORIGIN LEVEL: 0 DIFFERENT FILL-ORIGIN LEVEL: 0
ITLB AVERAGE MISS LATENCY: -nan cycles
ITLB AVERAGE MISS LATENCY LOAD: -nan cycles
ITLB AVERAGE MISS LATENCY PREFETCH: -nan cycles
ITLB AVERAGE MSHR OCCUPANCY: 0
ITLB MSHR FULL: 0
ITLB RQ	ACCESS:   60089645	FORWARD:          0	MERGED:    1128007	TO_CACHE:   58961638

DTLB SPEC fills:          0  NON-SPEC fills:          0
DTLB Test counter :          0
DTLB Leapfrog:          0
DTLB MSHR merge:          0
DTLB TOTAL     ACCESS:   70201945  HIT:   47204518  MISS:   22997427  HIT %:     67.241  MISS %:     32.759   MPKI: 114.987
DTLB LOAD TRANSLATION NON_SPEC    ACCESS:   70201945  HIT:   47204518  MISS:   22997427  HIT %:     67.241  MISS %:     32.759   MPKI: 114.987
DTLB PREFETCH  REQUESTED:          0  ISSUED:          0  USEFUL:          0  USELESS:          0
DTLB USEFUL LOAD PREFETCHES:          0 PREFETCH ISSUED TO LOWER LEVEL:          0  ACCURACY: -nan
DTLB TIMELY PREFETCHES:          0 LATE PREFETCHES: 0 DROPPED PREFETCHES: 0
DTLB COMMIT LATE PREFETCHES: 0 NORMAL LATE: 0 MISSED OPPORTUNITY: 0 UNCOVERED: 0
DTLB PREFETCHES SAME FILL-ORIGIN LEVEL: 0 DIFFERENT FILL-ORIGIN LEVEL: 0
DTLB AVERAGE MISS LATENCY: 9.31982 cycles
DTLB AVERAGE MISS LATENCY LOAD: -nan cycles
DTLB AVERAGE MISS LATENCY PREFETCH: -nan cycles
DTLB AVERAGE MSHR OCCUPANCY: 0.199408
DTLB MSHR FULL: 0
DTLB RQ	ACCESS:   71255387	FORWARD:          0	MERGED:    1043055	TO_CACHE:   70212332

STLB SPEC fills:          0  NON-SPEC fills:          0
STLB Test counter :          0
STLB Leapfrog:          0
STLB MSHR merge:          0
STLB TOTAL     ACCESS:   57549827  HIT:   57509054  MISS:      40773  HIT %:    99.9292  MISS %:  0.0708482   MPKI: 0.203865
STLB LOAD TRANSLATION NON_SPEC    ACCESS:   22997427  HIT:   22956654  MISS:      40773  HIT %:    99.8227  MISS %:   0.177294   MPKI: 0.203865
STLB TRANSLATION FROM L1D PREFETCHER NON_SPEC    ACCESS:   34552400  HIT:   34552400  MISS:          0  HIT %:        100  MISS %:          0   MPKI: 0
STLB PREFETCH  REQUESTED:          0  ISSUED:          0  USEFUL:          0  USELESS:          0
STLB USEFUL LOAD PREFETCHES:          0 PREFETCH ISSUED TO LOWER LEVEL:          0  ACCURACY: -nan
STLB TIMELY PREFETCHES:          0 LATE PREFETCHES: 0 DROPPED PREFETCHES: 0
STLB COMMIT LATE PREFETCHES: 0 NORMAL LATE: 0 MISSED OPPORTUNITY: 0 UNCOVERED: 0
STLB PREFETCHES SAME FILL-ORIGIN LEVEL: 0 DIFFERENT FILL-ORIGIN LEVEL: 0
STLB AVERAGE MISS LATENCY: 170.595 cycles
STLB AVERAGE MISS LATENCY LOAD: -nan cycles
STLB AVERAGE MISS LATENCY PREFETCH: -nan cycles
STLB AVERAGE MSHR OCCUPANCY: 0.00110694
STLB MSHR FULL: 0
STLB RQ	ACCESS:   61255010	FORWARD:          0	MERGED:    3705153	TO_CACHE:   57549857

STLB Hit, L1D data hit: 0
STLB Hit, L2C data hit: 0
STLB Hit, LLC data hit: 0
STLB Hit, LLC data miss: 0
STLB STLB hints to L2: 0
L0D SPEC fills:    4688369  NON-SPEC fills:          0
L0D TimeGuard Request with older TS:      99734 Restricted eviction:      12652 read:      79334
L0D Test counter :          0
L0D Leapfrog:          0
L0D MSHR merge:    1586319
L0D TOTAL     ACCESS:   66363252  HIT:   24382337  MISS:   41980915  HIT %:    36.7407  MISS %:    63.2593   MPKI: 209.905
L0D LOAD      TOTAL       ACCESS:   66363252  HIT:   24382337  MISS:   41980915  HIT %:    36.7407  MISS %:    63.2593   MPKI: 209.905
L0D LOAD      NON_SPEC    ACCESS:   37328579  HIT:      48643  MISS:   37279936  HIT %:    0.13031  MISS %:    99.8697   MPKI: 186.4
L0D LOAD      SPEC        ACCESS:   29034673  HIT:   24333694  MISS:    4700979  HIT %:    83.8091  MISS %:    16.1909   MPKI: 23.5049
L0D PREFETCH  REQUESTED:          0  ISSUED:          0  USEFUL:          0  USELESS:          0
L0D USEFUL LOAD PREFETCHES:          0 PREFETCH ISSUED TO LOWER LEVEL:          0  ACCURACY: -nan
L0D TIMELY PREFETCHES:          0 LATE PREFETCHES: 0 DROPPED PREFETCHES: 0
L0D COMMIT LATE PREFETCHES: 0 NORMAL LATE: 0 MISSED OPPORTUNITY: 0 UNCOVERED: 0
L0D PREFETCHES SAME FILL-ORIGIN LEVEL: 0 DIFFERENT FILL-ORIGIN LEVEL: 0
L0D AVERAGE MISS LATENCY: 78.8789 cycles
L0D AVERAGE MISS LATENCY LOAD: 78.8789 cycles
L0D AVERAGE MISS LATENCY PREFETCH: -nan cycles
L0D AVERAGE MSHR OCCUPANCY: 0.245228
L0D MSHR FULL: 0
L0D RQ	ACCESS:   77350916	FORWARD:          0	MERGED:    9401346	TO_CACHE:   67949570
L0D WQ	ACCESS:    3305817	FORWARD:          0	MERGED:          0	TO_CACHE:    3305817

L1D SPEC fills:          0  NON-SPEC fills:   32527135
L1D Test counter :          0
L1D Leapfrog:          0
L1D MSHR merge:     161096
L1D TOTAL     ACCESS:  120499222  HIT:   53657036  MISS:   66842186  HIT %:    44.5289  MISS %:    55.4711   MPKI: 334.211
L1D LOAD      TOTAL       ACCESS:   41980908  HIT:    9168534  MISS:   32812374  HIT %:    21.8398  MISS %:    78.1602   MPKI: 164.062
L1D LOAD      NON_SPEC    ACCESS:   37279934  HIT:    4752799  MISS:   32527135  HIT %:    12.7489  MISS %:    87.2511   MPKI: 162.636
L1D LOAD      SPEC        ACCESS:    4700974  HIT:    4415735  MISS:     285239  HIT %:    93.9323  MISS %:    6.06766   MPKI: 1.4262
L1D RFO       NON_SPEC    ACCESS:    3284263  HIT:    3282244  MISS:       2019  HIT %:    99.9385  MISS %:   0.061475   MPKI: 0.010095
L1D PREFETCH  NON_SPEC    ACCESS:   37346041  HIT:    3575762  MISS:   33770279  HIT %:    9.57467  MISS %:    90.4253   MPKI: 168.851
L1D COMMIT LOAD NON_SPEC    ACCESS:   33229255  HIT:   33229130  MISS:        125  HIT %:    99.9996  MISS %: 0.000376175   MPKI: 0.000625
L1D COMMIT WRITE NON_SPEC    ACCESS:    4658755  HIT:    4401366  MISS:     257389  HIT %:    94.4752  MISS %:    5.52485   MPKI: 1.28695
L1D PREFETCH  REQUESTED:   38257584  ISSUED:   38257584  USEFUL:    2403700  USELESS:   31366576
L1D USEFUL LOAD PREFETCHES:    2403700 PREFETCH ISSUED TO LOWER LEVEL:   33931876  ACCURACY: 7.0839
L1D TIMELY PREFETCHES:    2403700 LATE PREFETCHES: 161089 DROPPED PREFETCHES: 0
L1D COMMIT LATE PREFETCHES: 25045 NORMAL LATE: 909169 MISSED OPPORTUNITY: 948 UNCOVERED: 31877212
L1D PREFETCHES SAME FILL-ORIGIN LEVEL: 33931876 DIFFERENT FILL-ORIGIN LEVEL: 0
L1D AVERAGE MISS LATENCY: 100.167 cycles
L1D AVERAGE MISS LATENCY LOAD: 94.5292 cycles
L1D AVERAGE MISS LATENCY PREFETCH: 106.404 cycles
L1D AVERAGE MSHR OCCUPANCY: 1.11974
L1D MSHR FULL: 0
L1D RQ	ACCESS:   77327746	FORWARD:          0	MERGED:    1910106	TO_CACHE:   75210171
L1D WQ	ACCESS:    7964739	FORWARD:     207469	MERGED:       1294	TO_CACHE:    7963445
L1D PQ	ACCESS:   38257584	FORWARD:          0	MERGED:          0	TO_CACHE:   38257584

L1D UNIQUE REGIONS ACCESSED: 0
L1D REGIONS CONFLICTS: 0
L1D Cross Page Prefetch Requests: 0
L1D Same Page Prefetch Requests: 46352554
L1D ROI Sum of L1D PQ occupancy: 541368782
L1D PREFETCHES PUSHED FROM L2C: 0
L1I SPEC fills:          0  NON-SPEC fills:          0
L1I Test counter :          0
L1I Leapfrog:          0
L1I MSHR merge:          1
L1I TOTAL     ACCESS:   60089643  HIT:   60089622  MISS:         21  HIT %:        100  MISS %: 3.49478e-05   MPKI: 0.000105
L1I LOAD      TOTAL       ACCESS:   60089643  HIT:   60089622  MISS:         21  HIT %:        100  MISS %: 3.49478e-05   MPKI: 0.000105
L1I LOAD      NON_SPEC    ACCESS:   60089643  HIT:   60089622  MISS:         21  HIT %:        100  MISS %: 3.49478e-05   MPKI: 0.000105
L1I PREFETCH  REQUESTED:          0  ISSUED:          0  USEFUL:          0  USELESS:          0
L1I USEFUL LOAD PREFETCHES:          0 PREFETCH ISSUED TO LOWER LEVEL:          0  ACCURACY: -nan
L1I TIMELY PREFETCHES:          0 LATE PREFETCHES: 0 DROPPED PREFETCHES: 0
L1I COMMIT LATE PREFETCHES: 0 NORMAL LATE: 0 MISSED OPPORTUNITY: 0 UNCOVERED: 0
L1I PREFETCHES SAME FILL-ORIGIN LEVEL: 0 DIFFERENT FILL-ORIGIN LEVEL: 0
L1I AVERAGE MISS LATENCY: 166.381 cycles
L1I AVERAGE MISS LATENCY LOAD: 166.381 cycles
L1I AVERAGE MISS LATENCY PREFETCH: -nan cycles
L1I AVERAGE MSHR OCCUPANCY: 1.33134e-07
L1I MSHR FULL: 0
L1I RQ	ACCESS:   71163572	FORWARD:          0	MERGED:   11073927	TO_CACHE:   60089645

BTB SPEC fills:          0  NON-SPEC fills:          0
BTB Test counter :          0
BTB Leapfrog:          0
BTB MSHR merge:          0
BTB TOTAL     ACCESS:   37022761  HIT:   37022589  MISS:        172  HIT %:    99.9995  MISS %: 0.000464579   MPKI: 0.00086
BTB BRANCH_DIRECT_JUMP	ACCESS:         66  HIT:         33  MISS:         33
BTB BRANCH_INDIRECT	ACCESS:          4  HIT:          0  MISS:          4
BTB BRANCH_CONDITIONAL	ACCESS:   37022625  HIT:   37022536  MISS:         89
BTB BRANCH_DIRECT_CALL	ACCESS:         28  HIT:         10  MISS:         18
BTB BRANCH_INDIRECT_CALL	ACCESS:          5  HIT:          1  MISS:          4
BTB BRANCH_RETURN	ACCESS:         33  HIT:          9  MISS:         24
BTB BRANCH_OTHER ACCESS:          0  HIT:          0  MISS:          0

L2C SPEC fills:          0  NON-SPEC fills:   25061248
L2C Test counter :          0
L2C Leapfrog:          0
L2C MSHR merge:          0
L2C TOTAL     ACCESS:   69427625  HIT:   16787069  MISS:   52640556  HIT %:    24.1792  MISS %:    75.8208   MPKI: 263.203
L2C LOAD      TOTAL       ACCESS:   32651290  HIT:    7451139  MISS:   25200151  HIT %:    22.8204  MISS %:    77.1796   MPKI: 126.001
L2C LOAD      NON_SPEC    ACCESS:   32436982  HIT:    7375713  MISS:   25061269  HIT %:    22.7386  MISS %:    77.2614   MPKI: 125.306
L2C LOAD      SPEC        ACCESS:     214308  HIT:      75426  MISS:     138882  HIT %:    35.1951  MISS %:    64.8049   MPKI: 0.69441
L2C RFO       NON_SPEC    ACCESS:       1511  HIT:          8  MISS:       1503  HIT %:   0.529451  MISS %:    99.4705   MPKI: 0.007515
L2C PREFETCH  NON_SPEC    ACCESS:   33931876  HIT:    6622412  MISS:   27309464  HIT %:    19.5168  MISS %:    80.4832   MPKI: 136.547
L2C WRITEBACK NON_SPEC    ACCESS:      84878  HIT:      84205  MISS:        673  HIT %:    99.2071  MISS %:   0.792903   MPKI: 0.003365
L2C CLEAN_EVICTION NON_SPEC    ACCESS:    2554127  HIT:    2441545  MISS:     112582  HIT %:    95.5922  MISS %:    4.40785   MPKI: 0.56291
L2C COMMIT LOAD NON_SPEC    ACCESS:        125  HIT:        116  MISS:          9  HIT %:       92.8  MISS %:        7.2   MPKI: 4.5e-05
L2C LOAD TRANSLATION NON_SPEC    ACCESS:     203818  HIT:     187644  MISS:      16174  HIT %:    92.0645  MISS %:    7.93551   MPKI: 0.08087
L2C PREFETCH  REQUESTED:          0  ISSUED:          0  USEFUL:    1142628  USELESS:   26166890
L2C USEFUL LOAD PREFETCHES:    1142628 PREFETCH ISSUED TO LOWER LEVEL:   27309464  ACCURACY: 4.184
L2C TIMELY PREFETCHES:    1142628 LATE PREFETCHES: 0 DROPPED PREFETCHES: 0
L2C COMMIT LATE PREFETCHES: 0 NORMAL LATE: 0 MISSED OPPORTUNITY: 0 UNCOVERED: 25200151
L2C PREFETCHES SAME FILL-ORIGIN LEVEL: 0 DIFFERENT FILL-ORIGIN LEVEL: 0
L2C AVERAGE MISS LATENCY: 108.417 cycles
L2C AVERAGE MISS LATENCY LOAD: 102.819 cycles
L2C AVERAGE MISS LATENCY PREFETCH: 114.012 cycles
L2C AVERAGE MSHR OCCUPANCY: 1.12429
L2C MSHR FULL: 0
L2C RQ	ACCESS:   32856760	FORWARD:          0	MERGED:          0	TO_CACHE:   32856744
L2C WQ	ACCESS:    2639005	FORWARD:         16	MERGED:          0	TO_CACHE:    2639005
L2C PQ	ACCESS:   33931876	FORWARD:          0	MERGED:          0	TO_CACHE:   33931876

L2C Instructions Evicting Data 21
L2C Translations Evicting Data 16169
L2C Data Evicting Data 52356175
L2C Instructions Evicting Instructions 0
L2C Translations Evicting Instructions 0
L2C Data Evicting Instructions 20
L2C Instructions Evicting Translations 0
L2C Translations Evicting Translations 5
L2C Data Evicting Translations 16029
L2C Dense regions hint from L2: 0
PSCL5 SPEC fills:          0  NON-SPEC fills:          0
PSCL5 Test counter :          0
PSCL5 Leapfrog:          0
PSCL5 MSHR merge:          0
PSCL5 TOTAL     ACCESS:          0  HIT:          0  MISS:          0  HIT %:       -nan  MISS %:       -nan   MPKI: 0
PSCL5 PREFETCH  REQUESTED:          0  ISSUED:          0  USEFUL:          0  USELESS:          0
PSCL5 USEFUL LOAD PREFETCHES:          0 PREFETCH ISSUED TO LOWER LEVEL:          0  ACCURACY: -nan
PSCL5 TIMELY PREFETCHES:          0 LATE PREFETCHES: 0 DROPPED PREFETCHES: 0
PSCL5 COMMIT LATE PREFETCHES: 0 NORMAL LATE: 0 MISSED OPPORTUNITY: 0 UNCOVERED: 0
PSCL5 PREFETCHES SAME FILL-ORIGIN LEVEL: 0 DIFFERENT FILL-ORIGIN LEVEL: 0

PSCL4 SPEC fills:          0  NON-SPEC fills:          0
PSCL4 Test counter :          0
PSCL4 Leapfrog:          0
PSCL4 MSHR merge:          0
PSCL4 TOTAL     ACCESS:          0  HIT:          0  MISS:          0  HIT %:       -nan  MISS %:       -nan   MPKI: 0
PSCL4 PREFETCH  REQUESTED:          0  ISSUED:          0  USEFUL:          0  USELESS:          0
PSCL4 USEFUL LOAD PREFETCHES:          0 PREFETCH ISSUED TO LOWER LEVEL:          0  ACCURACY: -nan
PSCL4 TIMELY PREFETCHES:          0 LATE PREFETCHES: 0 DROPPED PREFETCHES: 0
PSCL4 COMMIT LATE PREFETCHES: 0 NORMAL LATE: 0 MISSED OPPORTUNITY: 0 UNCOVERED: 0
PSCL4 PREFETCHES SAME FILL-ORIGIN LEVEL: 0 DIFFERENT FILL-ORIGIN LEVEL: 0

PSCL3 SPEC fills:          0  NON-SPEC fills:          0
PSCL3 Test counter :          0
PSCL3 Leapfrog:          0
PSCL3 MSHR merge:          0
PSCL3 TOTAL     ACCESS:          0  HIT:          0  MISS:          0  HIT %:       -nan  MISS %:       -nan   MPKI: 0
PSCL3 PREFETCH  REQUESTED:          0  ISSUED:          0  USEFUL:          0  USELESS:          0
PSCL3 USEFUL LOAD PREFETCHES:          0 PREFETCH ISSUED TO LOWER LEVEL:          0  ACCURACY: -nan
PSCL3 TIMELY PREFETCHES:          0 LATE PREFETCHES: 0 DROPPED PREFETCHES: 0
PSCL3 COMMIT LATE PREFETCHES: 0 NORMAL LATE: 0 MISSED OPPORTUNITY: 0 UNCOVERED: 0
PSCL3 PREFETCHES SAME FILL-ORIGIN LEVEL: 0 DIFFERENT FILL-ORIGIN LEVEL: 0

PSCL2 SPEC fills:          0  NON-SPEC fills:          0
PSCL2 Test counter :          0
PSCL2 Leapfrog:          0
PSCL2 MSHR merge:          0
PSCL2 TOTAL     ACCESS:          0  HIT:          0  MISS:          0  HIT %:       -nan  MISS %:       -nan   MPKI: 0
PSCL2 PREFETCH  REQUESTED:          0  ISSUED:          0  USEFUL:          0  USELESS:          0
PSCL2 USEFUL LOAD PREFETCHES:          0 PREFETCH ISSUED TO LOWER LEVEL:          0  ACCURACY: -nan
PSCL2 TIMELY PREFETCHES:          0 LATE PREFETCHES: 0 DROPPED PREFETCHES: 0
PSCL2 COMMIT LATE PREFETCHES: 0 NORMAL LATE: 0 MISSED OPPORTUNITY: 0 UNCOVERED: 0
PSCL2 PREFETCHES SAME FILL-ORIGIN LEVEL: 0 DIFFERENT FILL-ORIGIN LEVEL: 0

LLC SPEC fills:          0  NON-SPEC fills:   11200958
LLC Test counter :          0
LLC Leapfrog:          0
LLC MSHR merge:          0
LLC TOTAL     ACCESS:   55113308  HIT:   29366721  MISS:   25746587  HIT %:    53.2843  MISS %:    46.7157   MPKI: 128.733
LLC LOAD      TOTAL       ACCESS:   25200151  HIT:   13863595  MISS:   11336556  HIT %:    55.0139  MISS %:    44.9861   MPKI: 56.6828
LLC LOAD      NON_SPEC    ACCESS:   25061269  HIT:   13860290  MISS:   11200979  HIT %:    55.3056  MISS %:    44.6944   MPKI: 56.0049
LLC LOAD      SPEC        ACCESS:     138882  HIT:       3305  MISS:     135577  HIT %:    2.37972  MISS %:    97.6203   MPKI: 0.677885
LLC RFO       NON_SPEC    ACCESS:       1503  HIT:         46  MISS:       1457  HIT %:    3.06055  MISS %:    96.9395   MPKI: 0.007285
LLC PREFETCH  NON_SPEC    ACCESS:   27309464  HIT:   13018865  MISS:   14290599  HIT %:    47.6716  MISS %:    52.3284   MPKI: 71.453
LLC WRITEBACK NON_SPEC    ACCESS:      67932  HIT:      67193  MISS:        739  HIT %:    98.9121  MISS %:    1.08785   MPKI: 0.003695
LLC CLEAN_EVICTION NON_SPEC    ACCESS:    2518075  HIT:    2409913  MISS:     108162  HIT %:    95.7046  MISS %:    4.29542   MPKI: 0.54081
LLC COMMIT LOAD NON_SPEC    ACCESS:          9  HIT:          7  MISS:          2  HIT %:    77.7778  MISS %:    22.2222   MPKI: 1e-05
LLC LOAD TRANSLATION NON_SPEC    ACCESS:      16174  HIT:       7102  MISS:       9072  HIT %:      43.91  MISS %:      56.09   MPKI: 0.04536
LLC PREFETCH  REQUESTED:          0  ISSUED:          0  USEFUL:    2056699  USELESS:   12234405
LLC USEFUL LOAD PREFETCHES:    2056699 PREFETCH ISSUED TO LOWER LEVEL:   14290600  ACCURACY: 14.392
LLC TIMELY PREFETCHES:    2056699 LATE PREFETCHES: 0 DROPPED PREFETCHES: 0
LLC COMMIT LATE PREFETCHES: 0 NORMAL LATE: 0 MISSED OPPORTUNITY: 0 UNCOVERED: 0
LLC PREFETCHES SAME FILL-ORIGIN LEVEL: 0 DIFFERENT FILL-ORIGIN LEVEL: 0
LLC AVERAGE MISS LATENCY: 160.473 cycles
LLC AVERAGE MISS LATENCY LOAD: 161.95 cycles
LLC AVERAGE MISS LATENCY PREFETCH: 160.506 cycles
LLC AVERAGE MSHR OCCUPANCY: 0.761549
LLC MSHR FULL: 0
LLC RQ	ACCESS:   25217837	FORWARD:          0	MERGED:          0	TO_CACHE:   25217837
LLC WQ	ACCESS:    2586007	FORWARD:          0	MERGED:          0	TO_CACHE:    2586007
LLC PQ	ACCESS:   27309464	FORWARD:          0	MERGED:          0	TO_CACHE:   27309464

LLC Dense regions hint to LLC: 0

RAW hits: 25
Loads Generated: 77350942
Loads sent to L1D: 77350916
Stores Generated: 3305817
Stores sent to L1D: 3305817
Major fault: 0 Minor fault: 34901
Allocated PAGES: 34901
Total Load insts: 95645184
Total Non-spec loads: 44619990
Percentage of speculative loads: 53.3484

LeapFrogging counter: 0
Commit hits: 4658922 miss: 35346831
Commit hit %: 11.6456 miss %: 88.3544
Commits not translated: 0
Loads retired: 32812373
Stores retired: 3305817
Cache fills: 32812374
L1D response latency: 94.5292 cycles
Load retirement latency: 117.41 cycles
OOO test counter: 0
Discarded buffer inserts: 4658922 hits: 40382 hit %: 0.866767
Filter prediction accuracy: -nan

stream: 
stream:times selected: 43446964
stream:pref_filled: 36952028
stream:pref_useful: 409373
stream:pref_late: 61868
stream:misses: 34237
stream:misses_by_poll: 0

CS: 
CS:times selected: 3955543
CS:pref_filled: 3104145
CS:pref_useful: 2745590
CS:pref_late: 19342
CS:misses: 517938
CS:misses_by_poll: 23023

CPLX: 
CPLX:times selected: 39123207
CPLX:pref_filled: 733601
CPLX:pref_useful: 18597
CPLX:pref_late: 5129
CPLX:misses: 92537
CPLX:misses_by_poll: 882

NL_L1: 
NL:times selected: 350959
NL:pref_filled: 339331
NL:pref_useful: 1230
NL:pref_late: 94
NL:misses: 1814
NL:misses_by_poll: 522

total selections: 86876673
total_filled: 33770279
total_useful: 2403700
total_late: 91689
total_polluted: 24427
total_misses_after_warmup: 418540
conflicts: 112
Degree Incremented Times: 371357
Degree Decremented Times: 1101302

L1 IP Table Write Accesses: 80656644
L1 IP Table Read Accesses: 80656532
L1 RST Write Accesses: 35807160
L1 RST Read Accesses: 71614320
L1 CSPT Write Accesses: 35807160
L1 CSPT Read Accesses: 68276431
L1 RR Filter Tag Write Accesses: 38257584
L1 RR Filter Tag Read Accesses: 1377463870
L1 IP Table Tag Write Accesses: 80656760
L1 IP Table Tag Read Accesses: 80656760
L1 RST Tag Write Accesses: 0
L1 RST Tag Read Accesses: 321860772
L1 RR Filter Write Accesses: 0
L1 RR Filter Read Accesses: 44883826
test: 23222203

stream: 
stream:times selected: 43248244
stream:pref_filled: 36952028
stream:pref_useful: 409373
stream:pref_late: 61868
stream:misses: 9298067
stream:misses_by_poll: 0

CS: 
CS:times selected: 3739152
CS:pref_filled: 3104145
CS:pref_useful: 2745590
CS:pref_late: 19342
CS:misses: 477774
CS:misses_by_poll: 2852

CPLX: 
CPLX:times selected: 39140913
CPLX:pref_filled: 733601
CPLX:pref_useful: 18597
CPLX:pref_late: 5129
CPLX:misses: 29538080
CPLX:misses_by_poll: 305

NL_L1: 
NL:times selected: 59216
NL:pref_filled: 339331
NL:pref_useful: 1230
NL:pref_late: 94
NL:misses: 58087
NL:misses_by_poll: 0

total selections: 86187525
total_filled: 33770279
total_useful: 2403700
total_late: 91689
total_polluted: 3157
total_misses_after_warmup: 32812381
conflicts: 100
Degree Incremented Times: 194534
Degree Decremented Times: 589792

L1 IP Table Write Accesses: 41980874
L1 IP Table Read Accesses: 41980774
L1 RST Write Accesses: 35686228
L1 RST Read Accesses: 71372456
L1 CSPT Write Accesses: 35686228
L1 CSPT Read Accesses: 68172681
L1 RR Filter Tag Write Accesses: 37255316
L1 RR Filter Tag Read Accesses: 1339436403
L1 IP Table Tag Write Accesses: 41980915
L1 IP Table Tag Read Accesses: 41980915
L1 RST Tag Write Accesses: 0
L1 RST Tag Read Accesses: 320675816
L1 RR Filter Write Accesses: 0
L1 RR Filter Read Accesses: 44070396
test_pseudo: 23218844

DRAM Statistics
 CHANNEL 0
 RQ ROW_BUFFER_HIT:    3950447  ROW_BUFFER_MISS:   21687229
 DBUS_CONGESTED:      67021
 WQ ROW_BUFFER_HIT:    1067496  ROW_BUFFER_MISS:    1516161  FULL:          0

 AVG_CONGESTED_CYCLE: 2
 All warmup complete: 2
Channel 0 Bank busy for read cycles: 0
Channel 0 Bank busy for write cycles: 0
Channel 0
Rank 0
0banks busy for read cycles: 702126022
0banks busy for write cycles: 1162254
1banks busy for read cycles: 1621868153
1banks busy for write cycles: 354902254
2banks busy for read cycles: 746739429
2banks busy for write cycles: 159933969
3banks busy for read cycles: 96235283
3banks busy for write cycles: 65816274
4banks busy for read cycles: 10662822
4banks busy for write cycles: 25906729
5banks busy for read cycles: 829322
5banks busy for write cycles: 10264905
6banks busy for read cycles: 28086
6banks busy for write cycles: 4618931
7banks busy for read cycles: 866
7banks busy for write cycles: 3404670
8banks busy for read cycles: 0
8banks busy for write cycles: 9340064

CPU 0 Branch Prediction Accuracy: 96.9509% MPKI: 5.6443 Average ROB Occupancy at Mispredict: 138.154
Branch types
NOT_BRANCH: 162977012 81.4885%
BRANCH_DIRECT_JUMP: 66 3.3e-05%
BRANCH_INDIRECT: 4 2e-06%
BRANCH_CONDITIONAL: 37022851 18.5114%
BRANCH_DIRECT_CALL: 28 1.4e-05%
BRANCH_INDIRECT_CALL: 5 2.5e-06%
BRANCH_RETURN: 33 1.65e-05%
BRANCH_OTHER: 0 0%

DRAM PAGES: 1048576
Allocated PAGES: 34901
