
*** ChampSim Multicore Out-of-Order Simulator ***

Warmup Instructions: 50000000
Simulation Instructions: 200000000
Number of CPUs: 1
LLC sets: 2048
LLC ways: 16
L0D sets: 16
L0D ways: 2
ROB size: 352
LQ size: 128
SQ size: 72
Secure Berti: OFF
Berti: OFF
Berti Fill: OFF
On commit prefetching: ON
Hit-based filter: OFF
Time-guarding: ON
Free-slotting: ON
Leap-frogging: ON
Train prefetcher on L0D bypass: OFF
No translation penalty for prefetchers: OFF
Prefetch to L0D only: OFF
Prefetch to L1D only: OFF
Clean evictions: ON
Commit loads: ON
Commit write: ON
Fill commit loads to L2C, LLC: ON
DRAM IO FREQUENCY: 6400
ROB SIZE: 352
Off-chip DRAM Size: 4096 MB Channels: 1 Width: 64-bit Data Rate: 6400 MT/s
CPU 0 runs /home/sumon/secure_berti/GhostMinion/../../traces/gap/sssp-14.trace.gz
.gz
BTB has LRU replacement policy
ITLB has LRU replacement policy
DTLB has LRU replacement policy
STLB has LRU replacement policy
L1I has LRU replacement policy
L0D has LRU replacement policy
IP Table Entries: 1024
CSPT Entries: 128
RR_ENTRIES: 32
RST_ENTRIES: 8
IP Table Entries: 1024
CSPT Entries: 128
RR_ENTRIES: 32
RST_ENTRIES: 8
L1D has LRU replacement policy
L2C has LRU replacement policy
LLC has LRU replacement policy
Heartbeat CPU 0 instructions: 10000000 cycles: 3988097 heartbeat IPC: 2.50746 cumulative IPC: 2.50746 (Simulation time: 0 hr 1 min 43 sec) 
Heartbeat CPU 0 instructions: 20000003 cycles: 7841148 heartbeat IPC: 2.59535 cumulative IPC: 2.55065 (Simulation time: 0 hr 3 min 38 sec) 
Heartbeat CPU 0 instructions: 30000001 cycles: 11645230 heartbeat IPC: 2.62875 cumulative IPC: 2.57616 (Simulation time: 0 hr 5 min 34 sec) 
Heartbeat CPU 0 instructions: 40000003 cycles: 15422129 heartbeat IPC: 2.64768 cumulative IPC: 2.59368 (Simulation time: 0 hr 7 min 30 sec) 
Heartbeat CPU 0 instructions: 50000000 cycles: 19181877 heartbeat IPC: 2.65975 cumulative IPC: 2.60663 (Simulation time: 0 hr 9 min 25 sec) 

Warmup complete CPU 0 instructions: 50000004 cycles: 19181878 (Simulation time: 0 hr 9 min 25 sec) 

Heartbeat CPU 0 instructions: 60000002 cycles: 51424630 heartbeat IPC: 0.310147 cumulative IPC: 0.310147 (Simulation time: 0 hr 11 min 10 sec) 
Heartbeat CPU 0 instructions: 70000001 cycles: 82542016 heartbeat IPC: 0.321364 cumulative IPC: 0.315656 (Simulation time: 0 hr 12 min 55 sec) 
Heartbeat CPU 0 instructions: 80000003 cycles: 112668456 heartbeat IPC: 0.331934 cumulative IPC: 0.320902 (Simulation time: 0 hr 14 min 41 sec) 
Heartbeat CPU 0 instructions: 90000003 cycles: 142330566 heartbeat IPC: 0.33713 cumulative IPC: 0.324811 (Simulation time: 0 hr 16 min 27 sec) 
Heartbeat CPU 0 instructions: 100000002 cycles: 171589595 heartbeat IPC: 0.341775 cumulative IPC: 0.328067 (Simulation time: 0 hr 17 min 44 sec) 
Heartbeat CPU 0 instructions: 110000000 cycles: 201074764 heartbeat IPC: 0.339153 cumulative IPC: 0.329864 (Simulation time: 0 hr 18 min 48 sec) 
Heartbeat CPU 0 instructions: 120000001 cycles: 230253551 heartbeat IPC: 0.342715 cumulative IPC: 0.331641 (Simulation time: 0 hr 19 min 53 sec) 
Heartbeat CPU 0 instructions: 130000003 cycles: 258840776 heartbeat IPC: 0.349807 cumulative IPC: 0.333808 (Simulation time: 0 hr 20 min 57 sec) 
Heartbeat CPU 0 instructions: 140000003 cycles: 287864643 heartbeat IPC: 0.344544 cumulative IPC: 0.334968 (Simulation time: 0 hr 21 min 59 sec) 
Heartbeat CPU 0 instructions: 150000000 cycles: 316633146 heartbeat IPC: 0.347602 cumulative IPC: 0.33619 (Simulation time: 0 hr 22 min 57 sec) 
Heartbeat CPU 0 instructions: 160000001 cycles: 345056911 heartbeat IPC: 0.351818 cumulative IPC: 0.337553 (Simulation time: 0 hr 23 min 51 sec) 
Heartbeat CPU 0 instructions: 170000003 cycles: 373516216 heartbeat IPC: 0.351379 cumulative IPC: 0.338663 (Simulation time: 0 hr 24 min 45 sec) 
Heartbeat CPU 0 instructions: 180000003 cycles: 401711354 heartbeat IPC: 0.354671 cumulative IPC: 0.339843 (Simulation time: 0 hr 25 min 35 sec) 
Heartbeat CPU 0 instructions: 190000001 cycles: 429916235 heartbeat IPC: 0.354548 cumulative IPC: 0.340853 (Simulation time: 0 hr 26 min 26 sec) 
Heartbeat CPU 0 instructions: 200000001 cycles: 458070642 heartbeat IPC: 0.355184 cumulative IPC: 0.341772 (Simulation time: 0 hr 27 min 16 sec) 
Heartbeat CPU 0 instructions: 210000002 cycles: 486407824 heartbeat IPC: 0.352893 cumulative IPC: 0.342447 (Simulation time: 0 hr 28 min 6 sec) 
Heartbeat CPU 0 instructions: 220000000 cycles: 514489363 heartbeat IPC: 0.356106 cumulative IPC: 0.343221 (Simulation time: 0 hr 28 min 56 sec) 
Heartbeat CPU 0 instructions: 230000001 cycles: 542217614 heartbeat IPC: 0.360643 cumulative IPC: 0.344145 (Simulation time: 0 hr 29 min 44 sec) 
Heartbeat CPU 0 instructions: 240000003 cycles: 570401418 heartbeat IPC: 0.354814 cumulative IPC: 0.34469 (Simulation time: 0 hr 30 min 33 sec) 
Heartbeat CPU 0 instructions: 250000001 cycles: 598332179 heartbeat IPC: 0.358028 cumulative IPC: 0.345333 (Simulation time: 0 hr 31 min 22 sec) 
Finished CPU 0 instructions: 200000001 cycles: 579150302 cumulative IPC: 0.345334 (Simulation time: 0 hr 31 min 22 sec) 
 Instruction ID: 250000167

ChampSim completed all CPUs

Region of Interest Statistics

CPU 0 cumulative IPC: 0.345334 instructions: 200000001 cycles: 579150302
ITLB SPEC fills:          0  NON-SPEC fills:          0
ITLB Test counter :          0
ITLB Leapfrog:          0
ITLB MSHR merge:          0
ITLB TOTAL     ACCESS:   24249818  HIT:   24249818  MISS:          0  HIT %:        100  MISS %:          0   MPKI: 0
ITLB LOAD TRANSLATION NON_SPEC    ACCESS:   24249818  HIT:   24249818  MISS:          0  HIT %:        100  MISS %:          0   MPKI: 0
ITLB PREFETCH  REQUESTED:          0  ISSUED:          0  USEFUL:          0  USELESS:          0
ITLB USEFUL LOAD PREFETCHES:          0 PREFETCH ISSUED TO LOWER LEVEL:          0  ACCURACY: -nan
ITLB TIMELY PREFETCHES:          0 LATE PREFETCHES: 0 DROPPED PREFETCHES: 0
ITLB COMMIT LATE PREFETCHES: 0 NORMAL LATE: 0 MISSED OPPORTUNITY: 0 UNCOVERED: 0
ITLB PREFETCHES SAME FILL-ORIGIN LEVEL: 0 DIFFERENT FILL-ORIGIN LEVEL: 0
ITLB AVERAGE MISS LATENCY: -nan cycles
ITLB AVERAGE MISS LATENCY LOAD: -nan cycles
ITLB AVERAGE MISS LATENCY PREFETCH: -nan cycles
ITLB AVERAGE MSHR OCCUPANCY: 0
ITLB MSHR FULL: 0
ITLB RQ	ACCESS:   24917518	FORWARD:          0	MERGED:     667699	TO_CACHE:   24249819

DTLB SPEC fills:          0  NON-SPEC fills:          0
DTLB Test counter :          0
DTLB Leapfrog:          0
DTLB MSHR merge:          0
DTLB TOTAL     ACCESS:   48596578  HIT:   44048387  MISS:    4548191  HIT %:    90.6409  MISS %:    9.35908   MPKI: 22.741
DTLB LOAD TRANSLATION NON_SPEC    ACCESS:   48596578  HIT:   44048387  MISS:    4548191  HIT %:    90.6409  MISS %:    9.35908   MPKI: 22.741
DTLB PREFETCH  REQUESTED:          0  ISSUED:          0  USEFUL:          0  USELESS:          0
DTLB USEFUL LOAD PREFETCHES:          0 PREFETCH ISSUED TO LOWER LEVEL:          0  ACCURACY: -nan
DTLB TIMELY PREFETCHES:          0 LATE PREFETCHES: 0 DROPPED PREFETCHES: 0
DTLB COMMIT LATE PREFETCHES: 0 NORMAL LATE: 0 MISSED OPPORTUNITY: 0 UNCOVERED: 0
DTLB PREFETCHES SAME FILL-ORIGIN LEVEL: 0 DIFFERENT FILL-ORIGIN LEVEL: 0
DTLB AVERAGE MISS LATENCY: 12.7241 cycles
DTLB AVERAGE MISS LATENCY LOAD: -nan cycles
DTLB AVERAGE MISS LATENCY PREFETCH: -nan cycles
DTLB AVERAGE MSHR OCCUPANCY: 0.226374
DTLB MSHR FULL: 2.85763e-07
DTLB RQ	ACCESS:   53036715	FORWARD:          0	MERGED:    4045038	TO_CACHE:   48991677

STLB SPEC fills:          0  NON-SPEC fills:          0
STLB Test counter :          0
STLB Leapfrog:          0
STLB MSHR merge:          0
STLB TOTAL     ACCESS:   13189419  HIT:   13129430  MISS:      59989  HIT %:    99.5452  MISS %:   0.454827   MPKI: 0.299945
STLB LOAD TRANSLATION NON_SPEC    ACCESS:    4548191  HIT:    4488203  MISS:      59988  HIT %:    98.6811  MISS %:    1.31894   MPKI: 0.29994
STLB TRANSLATION FROM L1D PREFETCHER NON_SPEC    ACCESS:    8641228  HIT:    8641227  MISS:          1  HIT %:        100  MISS %: 1.15724e-05   MPKI: 5e-06
STLB PREFETCH  REQUESTED:          0  ISSUED:          0  USEFUL:          1  USELESS:          0
STLB USEFUL LOAD PREFETCHES:          1 PREFETCH ISSUED TO LOWER LEVEL:          0  ACCURACY: inf
STLB TIMELY PREFETCHES:          1 LATE PREFETCHES: 0 DROPPED PREFETCHES: 0
STLB COMMIT LATE PREFETCHES: 0 NORMAL LATE: 0 MISSED OPPORTUNITY: 0 UNCOVERED: 0
STLB PREFETCHES SAME FILL-ORIGIN LEVEL: 0 DIFFERENT FILL-ORIGIN LEVEL: 0
STLB AVERAGE MISS LATENCY: 273.364 cycles
STLB AVERAGE MISS LATENCY LOAD: -nan cycles
STLB AVERAGE MISS LATENCY PREFETCH: -nan cycles
STLB AVERAGE MSHR OCCUPANCY: 0.00943289
STLB MSHR FULL: 0
STLB RQ	ACCESS:   16898045	FORWARD:          0	MERGED:    3708346	TO_CACHE:   13189699

STLB Hit, L1D data hit: 0
STLB Hit, L2C data hit: 0
STLB Hit, LLC data hit: 0
STLB Hit, LLC data miss: 0
STLB STLB hints to L2: 0
L0D SPEC fills:   26348740  NON-SPEC fills:          0
L0D TimeGuard Request with older TS:    2340252 Restricted eviction:     239431 read:    4365373
L0D Test counter :          0
L0D Leapfrog:          0
L0D MSHR merge:    2089232
L0D TOTAL     ACCESS:   48716894  HIT:   17102819  MISS:   31614075  HIT %:    35.1065  MISS %:    64.8935   MPKI: 158.07
L0D LOAD      TOTAL       ACCESS:   48716894  HIT:   17102819  MISS:   31614075  HIT %:    35.1065  MISS %:    64.8935   MPKI: 158.07
L0D LOAD      NON_SPEC    ACCESS:    5123539  HIT:      97635  MISS:    5025904  HIT %:    1.90562  MISS %:    98.0944   MPKI: 25.1295
L0D LOAD      SPEC        ACCESS:   43593355  HIT:   17005184  MISS:   26588171  HIT %:    39.0087  MISS %:    60.9913   MPKI: 132.941
L0D PREFETCH  REQUESTED:          0  ISSUED:          0  USEFUL:          0  USELESS:          0
L0D USEFUL LOAD PREFETCHES:          0 PREFETCH ISSUED TO LOWER LEVEL:          0  ACCURACY: -nan
L0D TIMELY PREFETCHES:          0 LATE PREFETCHES: 0 DROPPED PREFETCHES: 0
L0D COMMIT LATE PREFETCHES: 0 NORMAL LATE: 0 MISSED OPPORTUNITY: 0 UNCOVERED: 0
L0D PREFETCHES SAME FILL-ORIGIN LEVEL: 0 DIFFERENT FILL-ORIGIN LEVEL: 0
L0D AVERAGE MISS LATENCY: 36.6423 cycles
L0D AVERAGE MISS LATENCY LOAD: 36.6423 cycles
L0D AVERAGE MISS LATENCY PREFETCH: -nan cycles
L0D AVERAGE MSHR OCCUPANCY: 2.23489
L0D MSHR FULL: 0.060722
L0D RQ	ACCESS:   76714326	FORWARD:          0	MERGED:   25908199	TO_CACHE:   50806127
L0D WQ	ACCESS:    2230588	FORWARD:          0	MERGED:          0	TO_CACHE:    2230588

L1D SPEC fills:          0  NON-SPEC fills:    1699631
L1D Test counter :          0
L1D Leapfrog:          0
L1D MSHR merge:      92935
L1D TOTAL     ACCESS:   88393856  HIT:   60077692  MISS:   28316164  HIT %:    67.9659  MISS %:    32.0341   MPKI: 141.581
L1D LOAD      TOTAL       ACCESS:   31613028  HIT:   22343765  MISS:    9269263  HIT %:     70.679  MISS %:     29.321   MPKI: 46.3463
L1D LOAD      NON_SPEC    ACCESS:    5025070  HIT:    3325439  MISS:    1699631  HIT %:     66.177  MISS %:     33.823   MPKI: 8.49815
L1D LOAD      SPEC        ACCESS:   26587958  HIT:   19018326  MISS:    7569632  HIT %:    71.5298  MISS %:    28.4702   MPKI: 37.8482
L1D RFO       NON_SPEC    ACCESS:    2063319  HIT:    1525292  MISS:     538027  HIT %:    73.9242  MISS %:    26.0758   MPKI: 2.69013
L1D PREFETCH  NON_SPEC    ACCESS:   12065455  HIT:    1137924  MISS:   10927531  HIT %:    9.43126  MISS %:    90.5687   MPKI: 54.6377
L1D COMMIT LOAD NON_SPEC    ACCESS:   18529151  HIT:   18401589  MISS:     127562  HIT %:    99.3116  MISS %:    0.68844   MPKI: 0.63781
L1D COMMIT WRITE NON_SPEC    ACCESS:   24122903  HIT:   16669122  MISS:    7453781  HIT %:    69.1008  MISS %:    30.8992   MPKI: 37.2689
L1D PREFETCH  REQUESTED:   12350643  ISSUED:   12349853  USEFUL:    1235983  USELESS:    9691554
L1D USEFUL LOAD PREFETCHES:    1235983 PREFETCH ISSUED TO LOWER LEVEL:   11071511  ACCURACY: 11.1636
L1D TIMELY PREFETCHES:    1235983 LATE PREFETCHES: 106358 DROPPED PREFETCHES: 0
L1D COMMIT LATE PREFETCHES: 414639 NORMAL LATE: 136986 MISSED OPPORTUNITY: 33857 UNCOVERED: 8699020
L1D PREFETCHES SAME FILL-ORIGIN LEVEL: 11071511 DIFFERENT FILL-ORIGIN LEVEL: 0
L1D AVERAGE MISS LATENCY: 93.2985 cycles
L1D AVERAGE MISS LATENCY LOAD: 107.462 cycles
L1D AVERAGE MISS LATENCY PREFETCH: 147.582 cycles
L1D AVERAGE MSHR OCCUPANCY: 4.98245
L1D MSHR FULL: 0.0347425
L1D RQ	ACCESS:   78954596	FORWARD:          0	MERGED:   23590844	TO_CACHE:   50144174
L1D WQ	ACCESS:   26377139	FORWARD:    5219578	MERGED:      25403	TO_CACHE:   26351736
L1D PQ	ACCESS:   12349853	FORWARD:          0	MERGED:          0	TO_CACHE:   12349853

L1D UNIQUE REGIONS ACCESSED: 0
L1D REGIONS CONFLICTS: 0
L1D Cross Page Prefetch Requests: 0
L1D Same Page Prefetch Requests: 15994940
L1D ROI Sum of L1D PQ occupancy: 183929710
L1D PREFETCHES PUSHED FROM L2C: 0
L1I SPEC fills:          0  NON-SPEC fills:          0
L1I Test counter :          0
L1I Leapfrog:          0
L1I MSHR merge:          0
L1I TOTAL     ACCESS:   24917517  HIT:   24917517  MISS:          0  HIT %:        100  MISS %:          0   MPKI: 0
L1I LOAD      TOTAL       ACCESS:   24917517  HIT:   24917517  MISS:          0  HIT %:        100  MISS %:          0   MPKI: 0
L1I LOAD      NON_SPEC    ACCESS:   24917517  HIT:   24917517  MISS:          0  HIT %:        100  MISS %:          0   MPKI: 0
L1I PREFETCH  REQUESTED:          0  ISSUED:          0  USEFUL:          0  USELESS:          0
L1I USEFUL LOAD PREFETCHES:          0 PREFETCH ISSUED TO LOWER LEVEL:          0  ACCURACY: -nan
L1I TIMELY PREFETCHES:          0 LATE PREFETCHES: 0 DROPPED PREFETCHES: 0
L1I COMMIT LATE PREFETCHES: 0 NORMAL LATE: 0 MISSED OPPORTUNITY: 0 UNCOVERED: 0
L1I PREFETCHES SAME FILL-ORIGIN LEVEL: 0 DIFFERENT FILL-ORIGIN LEVEL: 0
L1I AVERAGE MISS LATENCY: -nan cycles
L1I AVERAGE MISS LATENCY LOAD: -nan cycles
L1I AVERAGE MISS LATENCY PREFETCH: -nan cycles
L1I AVERAGE MSHR OCCUPANCY: 0
L1I MSHR FULL: 0
L1I RQ	ACCESS:   38841313	FORWARD:          0	MERGED:   13923795	TO_CACHE:   24917518

BTB SPEC fills:          0  NON-SPEC fills:          0
BTB Test counter :          0
BTB Leapfrog:          0
BTB MSHR merge:          0
BTB TOTAL     ACCESS:   29059515  HIT:   29059368  MISS:        147  HIT %:    99.9995  MISS %: 0.000505858   MPKI: 0.000735
BTB BRANCH_DIRECT_JUMP	ACCESS:    9220889  HIT:    9220848  MISS:         41
BTB BRANCH_INDIRECT	ACCESS:          0  HIT:          0  MISS:          0
BTB BRANCH_CONDITIONAL	ACCESS:   19836026  HIT:   19835944  MISS:         82
BTB BRANCH_DIRECT_CALL	ACCESS:       1300  HIT:       1290  MISS:         10
BTB BRANCH_INDIRECT_CALL	ACCESS:          0  HIT:          0  MISS:          0
BTB BRANCH_RETURN	ACCESS:       1300  HIT:       1286  MISS:         14
BTB BRANCH_OTHER ACCESS:          0  HIT:          0  MISS:          0

L2C SPEC fills:          0  NON-SPEC fills:    1189126
L2C Test counter :          0
L2C Leapfrog:          0
L2C MSHR merge:          0
L2C TOTAL     ACCESS:   30716150  HIT:    7268380  MISS:   23447770  HIT %:    23.6631  MISS %:    76.3369   MPKI: 117.239
L2C LOAD      TOTAL       ACCESS:    9177288  HIT:    1659228  MISS:    7518060  HIT %:    18.0797  MISS %:    81.9203   MPKI: 37.5903
L2C LOAD      NON_SPEC    ACCESS:    1635450  HIT:     446324  MISS:    1189126  HIT %:    27.2906  MISS %:    72.7094   MPKI: 5.94563
L2C LOAD      SPEC        ACCESS:    7541838  HIT:    1212904  MISS:    6328934  HIT %:    16.0823  MISS %:    83.9177   MPKI: 31.6447
L2C RFO       NON_SPEC    ACCESS:     500351  HIT:     342694  MISS:     157657  HIT %:    68.4907  MISS %:    31.5093   MPKI: 0.788285
L2C PREFETCH  NON_SPEC    ACCESS:   11071444  HIT:    1711732  MISS:    9359712  HIT %:    15.4608  MISS %:    84.5392   MPKI: 46.7986
L2C WRITEBACK NON_SPEC    ACCESS:     959849  HIT:     956656  MISS:       3193  HIT %:    99.6673  MISS %:   0.332656   MPKI: 0.015965
L2C CLEAN_EVICTION NON_SPEC    ACCESS:    8594185  HIT:    2316233  MISS:    6277952  HIT %:    26.9512  MISS %:    73.0488   MPKI: 31.3898
L2C COMMIT LOAD NON_SPEC    ACCESS:     113090  HIT:      29670  MISS:      83420  HIT %:    26.2357  MISS %:    73.7643   MPKI: 0.4171
L2C LOAD TRANSLATION NON_SPEC    ACCESS:     299938  HIT:     252163  MISS:      47775  HIT %:    84.0717  MISS %:    15.9283   MPKI: 0.238875
L2C TRANSLATION FROM L1D PREFETCHER NON_SPEC    ACCESS:          5  HIT:          4  MISS:          1  HIT %:         80  MISS %:         20   MPKI: 5e-06
L2C PREFETCH  REQUESTED:          0  ISSUED:          0  USEFUL:     272997  USELESS:    9086927
L2C USEFUL LOAD PREFETCHES:     272997 PREFETCH ISSUED TO LOWER LEVEL:    9359715  ACCURACY: 2.91672
L2C TIMELY PREFETCHES:     272997 LATE PREFETCHES: 0 DROPPED PREFETCHES: 0
L2C COMMIT LATE PREFETCHES: 0 NORMAL LATE: 0 MISSED OPPORTUNITY: 0 UNCOVERED: 7518061
L2C PREFETCHES SAME FILL-ORIGIN LEVEL: 0 DIFFERENT FILL-ORIGIN LEVEL: 0
L2C AVERAGE MISS LATENCY: 101.946 cycles
L2C AVERAGE MISS LATENCY LOAD: 115.73 cycles
L2C AVERAGE MISS LATENCY PREFETCH: 158.845 cycles
L2C AVERAGE MSHR OCCUPANCY: 4.68909
L2C MSHR FULL: 0
L2C RQ	ACCESS:   10090822	FORWARD:          0	MERGED:          0	TO_CACHE:   10090674
L2C WQ	ACCESS:    9554044	FORWARD:        210	MERGED:         10	TO_CACHE:    9554034
L2C PQ	ACCESS:   11071511	FORWARD:          0	MERGED:          0	TO_CACHE:   11071449

L2C Instructions Evicting Data 0
L2C Translations Evicting Data 47643
L2C Data Evicting Data 10760188
L2C Instructions Evicting Instructions 0
L2C Translations Evicting Instructions 0
L2C Data Evicting Instructions 0
L2C Instructions Evicting Translations 0
L2C Translations Evicting Translations 133
L2C Data Evicting Translations 29727
L2C Dense regions hint from L2: 0
PSCL5 SPEC fills:          0  NON-SPEC fills:          0
PSCL5 Test counter :          0
PSCL5 Leapfrog:          0
PSCL5 MSHR merge:          0
PSCL5 TOTAL     ACCESS:          0  HIT:          0  MISS:          0  HIT %:       -nan  MISS %:       -nan   MPKI: 0
PSCL5 PREFETCH  REQUESTED:          0  ISSUED:          0  USEFUL:          0  USELESS:          0
PSCL5 USEFUL LOAD PREFETCHES:          0 PREFETCH ISSUED TO LOWER LEVEL:          0  ACCURACY: -nan
PSCL5 TIMELY PREFETCHES:          0 LATE PREFETCHES: 0 DROPPED PREFETCHES: 0
PSCL5 COMMIT LATE PREFETCHES: 0 NORMAL LATE: 0 MISSED OPPORTUNITY: 0 UNCOVERED: 0
PSCL5 PREFETCHES SAME FILL-ORIGIN LEVEL: 0 DIFFERENT FILL-ORIGIN LEVEL: 0

PSCL4 SPEC fills:          0  NON-SPEC fills:          0
PSCL4 Test counter :          0
PSCL4 Leapfrog:          0
PSCL4 MSHR merge:          0
PSCL4 TOTAL     ACCESS:          0  HIT:          0  MISS:          0  HIT %:       -nan  MISS %:       -nan   MPKI: 0
PSCL4 PREFETCH  REQUESTED:          0  ISSUED:          0  USEFUL:          0  USELESS:          0
PSCL4 USEFUL LOAD PREFETCHES:          0 PREFETCH ISSUED TO LOWER LEVEL:          0  ACCURACY: -nan
PSCL4 TIMELY PREFETCHES:          0 LATE PREFETCHES: 0 DROPPED PREFETCHES: 0
PSCL4 COMMIT LATE PREFETCHES: 0 NORMAL LATE: 0 MISSED OPPORTUNITY: 0 UNCOVERED: 0
PSCL4 PREFETCHES SAME FILL-ORIGIN LEVEL: 0 DIFFERENT FILL-ORIGIN LEVEL: 0

PSCL3 SPEC fills:          0  NON-SPEC fills:          0
PSCL3 Test counter :          0
PSCL3 Leapfrog:          0
PSCL3 MSHR merge:          0
PSCL3 TOTAL     ACCESS:          0  HIT:          0  MISS:          0  HIT %:       -nan  MISS %:       -nan   MPKI: 0
PSCL3 PREFETCH  REQUESTED:          0  ISSUED:          0  USEFUL:          0  USELESS:          0
PSCL3 USEFUL LOAD PREFETCHES:          0 PREFETCH ISSUED TO LOWER LEVEL:          0  ACCURACY: -nan
PSCL3 TIMELY PREFETCHES:          0 LATE PREFETCHES: 0 DROPPED PREFETCHES: 0
PSCL3 COMMIT LATE PREFETCHES: 0 NORMAL LATE: 0 MISSED OPPORTUNITY: 0 UNCOVERED: 0
PSCL3 PREFETCHES SAME FILL-ORIGIN LEVEL: 0 DIFFERENT FILL-ORIGIN LEVEL: 0

PSCL2 SPEC fills:          0  NON-SPEC fills:          0
PSCL2 Test counter :          0
PSCL2 Leapfrog:          0
PSCL2 MSHR merge:          0
PSCL2 TOTAL     ACCESS:          0  HIT:          0  MISS:          0  HIT %:       -nan  MISS %:       -nan   MPKI: 0
PSCL2 PREFETCH  REQUESTED:          0  ISSUED:          0  USEFUL:          0  USELESS:          0
PSCL2 USEFUL LOAD PREFETCHES:          0 PREFETCH ISSUED TO LOWER LEVEL:          0  ACCURACY: -nan
PSCL2 TIMELY PREFETCHES:          0 LATE PREFETCHES: 0 DROPPED PREFETCHES: 0
PSCL2 COMMIT LATE PREFETCHES: 0 NORMAL LATE: 0 MISSED OPPORTUNITY: 0 UNCOVERED: 0
PSCL2 PREFETCHES SAME FILL-ORIGIN LEVEL: 0 DIFFERENT FILL-ORIGIN LEVEL: 0

LLC SPEC fills:          0  NON-SPEC fills:     524273
LLC Test counter :          0
LLC Leapfrog:          0
LLC MSHR merge:          0
LLC TOTAL     ACCESS:   25305839  HIT:   13225428  MISS:   12080411  HIT %:    52.2624  MISS %:    47.7376   MPKI: 60.4021
LLC LOAD      TOTAL       ACCESS:    7517980  HIT:    4138493  MISS:    3379487  HIT %:    55.0479  MISS %:    44.9521   MPKI: 16.8974
LLC LOAD      NON_SPEC    ACCESS:    1189111  HIT:     664838  MISS:     524273  HIT %:    55.9105  MISS %:    44.0895   MPKI: 2.62136
LLC LOAD      SPEC        ACCESS:    6328869  HIT:    3473655  MISS:    2855214  HIT %:    54.8859  MISS %:    45.1141   MPKI: 14.2761
LLC RFO       NON_SPEC    ACCESS:     157653  HIT:     117411  MISS:      40242  HIT %:    74.4743  MISS %:    25.5257   MPKI: 0.20121
LLC PREFETCH  NON_SPEC    ACCESS:    9359690  HIT:    4037803  MISS:    5321887  HIT %:    43.1403  MISS %:    56.8597   MPKI: 26.6094
LLC WRITEBACK NON_SPEC    ACCESS:     377803  HIT:     360393  MISS:      17410  HIT %:    95.3918  MISS %:    4.60822   MPKI: 0.08705
LLC CLEAN_EVICTION NON_SPEC    ACCESS:    7761519  HIT:    4499660  MISS:    3261859  HIT %:     57.974  MISS %:     42.026   MPKI: 16.3093
LLC COMMIT LOAD NON_SPEC    ACCESS:      83418  HIT:      62982  MISS:      20436  HIT %:    75.5017  MISS %:    24.4983   MPKI: 0.10218
LLC LOAD TRANSLATION NON_SPEC    ACCESS:      47775  HIT:       8686  MISS:      39089  HIT %:    18.1811  MISS %:    81.8189   MPKI: 0.195445
LLC TRANSLATION FROM L1D PREFETCHER NON_SPEC    ACCESS:          1  HIT:          0  MISS:          1  HIT %:          0  MISS %:        100   MPKI: 5e-06
LLC PREFETCH  REQUESTED:          0  ISSUED:          0  USEFUL:     665000  USELESS:    4657598
LLC USEFUL LOAD PREFETCHES:     665000 PREFETCH ISSUED TO LOWER LEVEL:    5321889  ACCURACY: 12.4956
LLC TIMELY PREFETCHES:     665000 LATE PREFETCHES: 0 DROPPED PREFETCHES: 0
LLC COMMIT LATE PREFETCHES: 0 NORMAL LATE: 0 MISSED OPPORTUNITY: 0 UNCOVERED: 0
LLC PREFETCHES SAME FILL-ORIGIN LEVEL: 0 DIFFERENT FILL-ORIGIN LEVEL: 0
LLC AVERAGE MISS LATENCY: 159.802 cycles
LLC AVERAGE MISS LATENCY LOAD: 207.332 cycles
LLC AVERAGE MISS LATENCY PREFETCH: 226.406 cycles
LLC AVERAGE MSHR OCCUPANCY: 3.67491
LLC MSHR FULL: 0
LLC RQ	ACCESS:    7806914	FORWARD:          0	MERGED:          0	TO_CACHE:    7806828
LLC WQ	ACCESS:    8139322	FORWARD:        108	MERGED:          0	TO_CACHE:    8139322
LLC PQ	ACCESS:    9359715	FORWARD:          0	MERGED:          0	TO_CACHE:    9359693

LLC Dense regions hint to LLC: 0

RAW hits: 65673
Loads Generated: 76780004
Loads sent to L1D: 76714326
Stores Generated: 2230587
Stores sent to L1D: 2230588
Major fault: 0 Minor fault: 36865
Allocated PAGES: 36865
Total Load insts: 93538865
Total Non-spec loads: 6286058
Percentage of speculative loads: 93.2797

LeapFrogging counter: 103269
Commit hits: 24146552 miss: 47340520
Commit hit %: 33.7775 miss %: 66.2225
Commits not translated: 0
Loads retired: 9269263
Stores retired: 2230588
Cache fills: 9269263
L1D response latency: 107.462 cycles
Load retirement latency: 209.94 cycles
OOO test counter: 0
Discarded buffer inserts: 24146552 hits: 22873 hit %: 0.0947257
Filter prediction accuracy: -nan

stream: 
stream:times selected: 19948791
stream:pref_filled: 10888920
stream:pref_useful: 198517
stream:pref_late: 58428
stream:misses: 2021669
stream:misses_by_poll: 0

CS: 
CS:times selected: 3767504
CS:pref_filled: 1572668
CS:pref_useful: 1359081
CS:pref_late: 22570
CS:misses: 654080
CS:misses_by_poll: 15757

CPLX: 
CPLX:times selected: 16255754
CPLX:pref_filled: 1171237
CPLX:pref_useful: 36696
CPLX:pref_late: 4448
CPLX:misses: 7717651
CPLX:misses_by_poll: 69632

NL_L1: 
NL:times selected: 92674
NL:pref_filled: 74461
NL:pref_useful: 1224
NL:pref_late: 259
NL:misses: 66595
NL:misses_by_poll: 5326

total selections: 40064723
total_filled: 10927531
total_useful: 1235983
total_late: 87388
total_polluted: 90715
total_misses_after_warmup: 8618994
conflicts: 808
Degree Incremented Times: 316308
Degree Decremented Times: 1135489

L1 IP Table Write Accesses: 78995939
L1 IP Table Read Accesses: 78995131
L1 RST Write Accesses: 14893281
L1 RST Read Accesses: 29786562
L1 CSPT Write Accesses: 14893281
L1 CSPT Read Accesses: 26845685
L1 RR Filter Tag Write Accesses: 12350643
L1 RR Filter Tag Read Accesses: 658626250
L1 IP Table Tag Write Accesses: 79002174
L1 IP Table Tag Read Accesses: 79002174
L1 RST Tag Write Accesses: 0
L1 RST Tag Read Accesses: 132480719
L1 RR Filter Write Accesses: 0
L1 RR Filter Read Accesses: 24218670
test: 6819498

stream: 
stream:times selected: 15461926
stream:pref_filled: 10888920
stream:pref_useful: 198517
stream:pref_late: 58428
stream:misses: 2163052
stream:misses_by_poll: 0

CS: 
CS:times selected: 2915045
CS:pref_filled: 1572668
CS:pref_useful: 1359081
CS:pref_late: 22570
CS:misses: 211221
CS:misses_by_poll: 1992

CPLX: 
CPLX:times selected: 12527367
CPLX:pref_filled: 1171237
CPLX:pref_useful: 36696
CPLX:pref_late: 4448
CPLX:misses: 8594429
CPLX:misses_by_poll: 716

NL_L1: 
NL:times selected: 70470
NL:pref_filled: 74461
NL:pref_useful: 1224
NL:pref_late: 259
NL:misses: 65405
NL:misses_by_poll: 20

total selections: 30974808
total_filled: 10927531
total_useful: 1235983
total_late: 87388
total_polluted: 2728
total_misses_after_warmup: 9270311
conflicts: 89
Degree Incremented Times: 125011
Degree Decremented Times: 442874

L1 IP Table Write Accesses: 31613208
L1 IP Table Read Accesses: 31613119
L1 RST Write Accesses: 12531727
L1 RST Read Accesses: 25063454
L1 CSPT Write Accesses: 12531727
L1 CSPT Read Accesses: 22612896
L1 RR Filter Tag Write Accesses: 11190459
L1 RR Filter Tag Read Accesses: 525744938
L1 IP Table Tag Write Accesses: 31614076
L1 IP Table Tag Read Accesses: 31614076
L1 RST Tag Write Accesses: 0
L1 RST Tag Read Accesses: 113328694
L1 RR Filter Write Accesses: 0
L1 RR Filter Read Accesses: 19936761
test_pseudo: 4885697

DRAM Statistics
 CHANNEL 0
 RQ ROW_BUFFER_HIT:    2079320  ROW_BUFFER_MISS:    6715915
 DBUS_CONGESTED:       1717
 WQ ROW_BUFFER_HIT:    1355762  ROW_BUFFER_MISS:    3942018  FULL:         73

 AVG_CONGESTED_CYCLE: 5
 All warmup complete: 2
Channel 0 Bank busy for read cycles: 0
Channel 0 Bank busy for write cycles: 0
Channel 0
Rank 0
0banks busy for read cycles: 1369747
0banks busy for write cycles: 164
1banks busy for read cycles: 99686310
1banks busy for write cycles: 1166471
2banks busy for read cycles: 107752063
2banks busy for write cycles: 1161057
3banks busy for read cycles: 93477441
3banks busy for write cycles: 1162992
4banks busy for read cycles: 64689231
4banks busy for write cycles: 1168430
5banks busy for read cycles: 33775961
5banks busy for write cycles: 1277709
6banks busy for read cycles: 12714012
6banks busy for write cycles: 3514509
7banks busy for read cycles: 3498503
7banks busy for write cycles: 28010649
8banks busy for read cycles: 1774579
8banks busy for write cycles: 122950475

CPU 0 Branch Prediction Accuracy: 97.7755% MPKI: 3.30878 Average ROB Occupancy at Mispredict: 163.247
Branch types
NOT_BRANCH: 170251423 85.1257%
BRANCH_DIRECT_JUMP: 9220889 4.61044%
BRANCH_INDIRECT: 0 0%
BRANCH_CONDITIONAL: 20524871 10.2624%
BRANCH_DIRECT_CALL: 1300 0.00065%
BRANCH_INDIRECT_CALL: 0 0%
BRANCH_RETURN: 1300 0.00065%
BRANCH_OTHER: 0 0%

DRAM PAGES: 1048576
Allocated PAGES: 36865
