
*** ChampSim Multicore Out-of-Order Simulator ***

Warmup Instructions: 50000000
Simulation Instructions: 200000000
Number of CPUs: 1
LLC sets: 2048
LLC ways: 16
Secure Berti: OFF
Berti: OFF
Berti Fill: OFF
On commit prefetching: OFF
L2 LLC Bypass speculative loads: OFF
Off-chip DRAM Size: 4096 MB Channels: 1 Width: 64-bit Data Rate: 6400 MT/s
CPU 0 runs /home/sumon/secure_berti/Berti_Baseline/../../traces/spec/603.bwaves_s-891B.champsimtrace.xz
.xz
BTB has LRU replacement policy
ITLB has LRU replacement policy
DTLB has LRU replacement policy
STLB has LRU replacement policy
L1I has LRU replacement policy
L1D has LRU replacement policy
Bingo PHT WAYS: 16 and PHT_SIZE: 16384
L2C has LRU replacement policy
LLC has LRU replacement policy
Heartbeat CPU 0 instructions: 10000003 cycles: 2715421 heartbeat IPC: 3.68267 cumulative IPC: 3.68267 (Simulation time: 0 hr 0 min 8 sec) 
Heartbeat CPU 0 instructions: 20000003 cycles: 5430816 heartbeat IPC: 3.68271 cumulative IPC: 3.68269 (Simulation time: 0 hr 0 min 17 sec) 
Heartbeat CPU 0 instructions: 30000002 cycles: 8146190 heartbeat IPC: 3.68273 cumulative IPC: 3.6827 (Simulation time: 0 hr 0 min 25 sec) 
Heartbeat CPU 0 instructions: 40000000 cycles: 10861585 heartbeat IPC: 3.6827 cumulative IPC: 3.6827 (Simulation time: 0 hr 0 min 33 sec) 
Heartbeat CPU 0 instructions: 50000002 cycles: 13778226 heartbeat IPC: 3.4286 cumulative IPC: 3.62891 (Simulation time: 0 hr 0 min 40 sec) 

Warmup complete CPU 0 instructions: 50000002 cycles: 13778226 (Simulation time: 0 hr 0 min 40 sec) 

Heartbeat CPU 0 instructions: 60000001 cycles: 27532463 heartbeat IPC: 0.727049 cumulative IPC: 0.727049 (Simulation time: 0 hr 0 min 58 sec) 
Heartbeat CPU 0 instructions: 70000001 cycles: 41286523 heartbeat IPC: 0.727058 cumulative IPC: 0.727053 (Simulation time: 0 hr 1 min 17 sec) 
Heartbeat CPU 0 instructions: 80000002 cycles: 55040596 heartbeat IPC: 0.727057 cumulative IPC: 0.727055 (Simulation time: 0 hr 1 min 36 sec) 
Heartbeat CPU 0 instructions: 90000001 cycles: 68794227 heartbeat IPC: 0.727081 cumulative IPC: 0.727061 (Simulation time: 0 hr 1 min 55 sec) 
Heartbeat CPU 0 instructions: 100000000 cycles: 82547847 heartbeat IPC: 0.727081 cumulative IPC: 0.727065 (Simulation time: 0 hr 2 min 13 sec) 
Heartbeat CPU 0 instructions: 110000000 cycles: 96302103 heartbeat IPC: 0.727048 cumulative IPC: 0.727062 (Simulation time: 0 hr 2 min 32 sec) 
Heartbeat CPU 0 instructions: 120000001 cycles: 110056266 heartbeat IPC: 0.727053 cumulative IPC: 0.727061 (Simulation time: 0 hr 2 min 51 sec) 
Heartbeat CPU 0 instructions: 130000000 cycles: 123810069 heartbeat IPC: 0.727072 cumulative IPC: 0.727062 (Simulation time: 0 hr 3 min 8 sec) 
Heartbeat CPU 0 instructions: 140000001 cycles: 137564738 heartbeat IPC: 0.727026 cumulative IPC: 0.727058 (Simulation time: 0 hr 3 min 25 sec) 
Heartbeat CPU 0 instructions: 150000001 cycles: 151319082 heartbeat IPC: 0.727043 cumulative IPC: 0.727057 (Simulation time: 0 hr 3 min 41 sec) 
Heartbeat CPU 0 instructions: 160000000 cycles: 165073157 heartbeat IPC: 0.727057 cumulative IPC: 0.727057 (Simulation time: 0 hr 3 min 58 sec) 
Heartbeat CPU 0 instructions: 170000000 cycles: 178750417 heartbeat IPC: 0.731141 cumulative IPC: 0.727395 (Simulation time: 0 hr 4 min 15 sec) 
Heartbeat CPU 0 instructions: 180000001 cycles: 192270853 heartbeat IPC: 0.739621 cumulative IPC: 0.728321 (Simulation time: 0 hr 4 min 31 sec) 
Heartbeat CPU 0 instructions: 190000002 cycles: 205856690 heartbeat IPC: 0.736061 cumulative IPC: 0.728869 (Simulation time: 0 hr 4 min 50 sec) 
Heartbeat CPU 0 instructions: 200000002 cycles: 218696162 heartbeat IPC: 0.778848 cumulative IPC: 0.732 (Simulation time: 0 hr 5 min 11 sec) 
Heartbeat CPU 0 instructions: 210000002 cycles: 231534724 heartbeat IPC: 0.778903 cumulative IPC: 0.734766 (Simulation time: 0 hr 5 min 32 sec) 
Heartbeat CPU 0 instructions: 220000000 cycles: 244373787 heartbeat IPC: 0.778873 cumulative IPC: 0.737221 (Simulation time: 0 hr 5 min 53 sec) 
Heartbeat CPU 0 instructions: 230000000 cycles: 257211451 heartbeat IPC: 0.778958 cumulative IPC: 0.739423 (Simulation time: 0 hr 6 min 14 sec) 
Heartbeat CPU 0 instructions: 240000002 cycles: 270049182 heartbeat IPC: 0.778954 cumulative IPC: 0.741403 (Simulation time: 0 hr 6 min 35 sec) 
Heartbeat CPU 0 instructions: 250000002 cycles: 282888070 heartbeat IPC: 0.778884 cumulative IPC: 0.743191 (Simulation time: 0 hr 6 min 56 sec) 
Finished CPU 0 instructions: 200000000 cycles: 269109844 cumulative IPC: 0.743191 (Simulation time: 0 hr 6 min 56 sec) 

ChampSim completed all CPUs

Region of Interest Statistics

CPU 0 cumulative IPC: 0.743191 instructions: 200000000 cycles: 269109844
ITLB TOTAL     ACCESS:   33512970  HIT:   33512969  MISS:          1  HIT %:        100  MISS %: 2.98392e-06   MPKI: 5e-06
ITLB Test counter:          0
ITLB LOAD TRANSLATION ACCESS:   33512970  HIT:   33512969  MISS:          1  HIT %:        100  MISS %: 2.98392e-06   MPKI: 5e-06
ITLB PREFETCH  REQUESTED:          0  ISSUED:          0  USEFUL:          0  USELESS:          0
ITLB USEFUL LOAD PREFETCHES:          0 PREFETCH ISSUED TO LOWER LEVEL:          0  ACCURACY: -nan
ITLB TIMELY PREFETCHES:          0 LATE PREFETCHES: 0 DROPPED PREFETCHES: 0
ITLB COMMIT LATE PREFETCHES: 0 MISSED OPPORTUNITY: 0 LATE IN PQ: 0 UNCOVERED: 0
ITLB COMMIT LATE MSHR PREFETCHES: 0
ITLB MPKI TOTAL: 0 MSHR LATE: 0 PQ LATE: 0 COMMIT LATE: 0 MISSED OPPORTUNITY: 0 UNCOVERED: 0
ITLB PREFETCHES SAME FILL-ORIGIN LEVEL: 0 DIFFERENT FILL-ORIGIN LEVEL: 0
ITLB AVERAGE MISS LATENCY: 431 cycles
ITLB AVERAGE MISS LATENCY LOAD: -nan cycles
ITLB AVERAGE MISS LATENCY PREFETCH: -nan cycles
ITLB AVERAGE MSHR OCCUPANCY: 2.98392e-08
ITLB MSHR FULL: 0
ITLB RQ	ACCESS:   34895810	FORWARD:          0	MERGED:    1382838	TO_CACHE:   33512972

DTLB TOTAL     ACCESS:   22452143  HIT:   22391489  MISS:      60654  HIT %:    99.7299  MISS %:   0.270148   MPKI: 0.30327
DTLB Test counter:          0
DTLB LOAD TRANSLATION ACCESS:   22452143  HIT:   22391489  MISS:      60654  HIT %:    99.7299  MISS %:   0.270148   MPKI: 0.30327
DTLB PREFETCH  REQUESTED:          0  ISSUED:          0  USEFUL:          0  USELESS:          0
DTLB USEFUL LOAD PREFETCHES:          0 PREFETCH ISSUED TO LOWER LEVEL:          0  ACCURACY: -nan
DTLB TIMELY PREFETCHES:          0 LATE PREFETCHES: 0 DROPPED PREFETCHES: 0
DTLB COMMIT LATE PREFETCHES: 0 MISSED OPPORTUNITY: 0 LATE IN PQ: 0 UNCOVERED: 0
DTLB COMMIT LATE MSHR PREFETCHES: 0
DTLB MPKI TOTAL: 0 MSHR LATE: 0 PQ LATE: 0 COMMIT LATE: 0 MISSED OPPORTUNITY: 0 UNCOVERED: 0
DTLB PREFETCHES SAME FILL-ORIGIN LEVEL: 0 DIFFERENT FILL-ORIGIN LEVEL: 0
DTLB AVERAGE MISS LATENCY: 118.572 cycles
DTLB AVERAGE MISS LATENCY LOAD: -nan cycles
DTLB AVERAGE MISS LATENCY PREFETCH: -nan cycles
DTLB AVERAGE MSHR OCCUPANCY: 0.00267784
DTLB MSHR FULL: 0
DTLB RQ	ACCESS:   23095812	FORWARD:          0	MERGED:     626173	TO_CACHE:   22469639

STLB TOTAL     ACCESS:      60655  HIT:        337  MISS:      60318  HIT %:   0.555601  MISS %:    99.4444   MPKI: 0.30159
STLB Test counter:          0
STLB LOAD TRANSLATION ACCESS:      60655  HIT:        337  MISS:      60318  HIT %:   0.555601  MISS %:    99.4444   MPKI: 0.30159
STLB PREFETCH  REQUESTED:          0  ISSUED:          0  USEFUL:          0  USELESS:          0
STLB USEFUL LOAD PREFETCHES:          0 PREFETCH ISSUED TO LOWER LEVEL:          0  ACCURACY: -nan
STLB TIMELY PREFETCHES:          0 LATE PREFETCHES: 0 DROPPED PREFETCHES: 0
STLB COMMIT LATE PREFETCHES: 0 MISSED OPPORTUNITY: 0 LATE IN PQ: 0 UNCOVERED: 0
STLB COMMIT LATE MSHR PREFETCHES: 0
STLB MPKI TOTAL: 0 MSHR LATE: 0 PQ LATE: 0 COMMIT LATE: 0 MISSED OPPORTUNITY: 0 UNCOVERED: 0
STLB PREFETCHES SAME FILL-ORIGIN LEVEL: 0 DIFFERENT FILL-ORIGIN LEVEL: 0
STLB AVERAGE MISS LATENCY: 110.189 cycles
STLB AVERAGE MISS LATENCY LOAD: -nan cycles
STLB AVERAGE MISS LATENCY PREFETCH: -nan cycles
STLB AVERAGE MSHR OCCUPANCY: 3.29734e-05
STLB MSHR FULL: 0
STLB RQ	ACCESS:      60655	FORWARD:          0	MERGED:          0	TO_CACHE:      60655

STLB Hit, L1D data hit: 0
STLB Hit, L2C data hit: 0
STLB Hit, LLC data hit: 0
STLB Hit, LLC data miss: 0
STLB STLB hints to L2: 0
L1D TOTAL     ACCESS:   22072839  HIT:   18211754  MISS:    3861085  HIT %:    82.5075  MISS %:    17.4925   MPKI: 19.3054
L1D Test counter:          0
L1D LOAD      ACCESS:   18774785  HIT:   14913702  MISS:    4884056  HIT %:    79.4347  MISS %:    20.5653   MPKI: 19.3054
L1D RFO       ACCESS:    3298054  HIT:    3298052  MISS:          2  HIT %:    99.9999  MISS %: 6.06418e-05   MPKI: 1e-05
L1D PREFETCH  REQUESTED:          0  ISSUED:          0  USEFUL:          0  USELESS:          0
L1D USEFUL LOAD PREFETCHES:          0 PREFETCH ISSUED TO LOWER LEVEL:          0  ACCURACY: -nan
L1D TIMELY PREFETCHES:          0 LATE PREFETCHES: 0 DROPPED PREFETCHES: 0
L1D COMMIT LATE PREFETCHES: 0 MISSED OPPORTUNITY: 0 LATE IN PQ: 0 UNCOVERED: 0
L1D COMMIT LATE MSHR PREFETCHES: 0
L1D MPKI TOTAL: 24.4203 MSHR LATE: 0 PQ LATE: 0 COMMIT LATE: 0 MISSED OPPORTUNITY: 0 UNCOVERED: 0
L1D PREFETCHES SAME FILL-ORIGIN LEVEL: 0 DIFFERENT FILL-ORIGIN LEVEL: 0
L1D AVERAGE MISS LATENCY: 23.0972 cycles
L1D AVERAGE MISS LATENCY LOAD: 23.0971 cycles
L1D AVERAGE MISS LATENCY PREFETCH: -nan cycles
L1D AVERAGE MSHR OCCUPANCY: 0.208776
L1D MSHR FULL: 0
L1D RQ	ACCESS:   35804826	FORWARD:          0	MERGED:   16007067	TO_CACHE:   19797759
L1D WQ	ACCESS:    3375822	FORWARD:          0	MERGED:      77769	TO_CACHE:    3298053

L1D UNIQUE REGIONS ACCESSED: 0
L1D REGIONS CONFLICTS: 0
L1D Cross Page Prefetch Requests: 0
L1D Same Page Prefetch Requests: 0
L1D ROI Sum of L1D PQ occupancy: 0
L1D PREFETCHES PUSHED FROM L2C: 0
4027d7: 1
40344d: 1
4026ec: 1
402746: 98
4027f6: 98
402804: 98
402730: 98
403381: 238
403400: 239
4027a4: 875162
4027a0: 875162
4033c0: 2109887
L1I TOTAL     ACCESS:   34895808  HIT:   34895801  MISS:          7  HIT %:        100  MISS %: 2.00597e-05   MPKI: 3.5e-05
L1I Test counter:          0
L1I LOAD      ACCESS:   34895808  HIT:   34895801  MISS:          8  HIT %:        100  MISS %: 2.00597e-05   MPKI: 3.5e-05
L1I PREFETCH  REQUESTED:          0  ISSUED:          0  USEFUL:          0  USELESS:          0
L1I USEFUL LOAD PREFETCHES:          0 PREFETCH ISSUED TO LOWER LEVEL:          0  ACCURACY: -nan
L1I TIMELY PREFETCHES:          0 LATE PREFETCHES: 0 DROPPED PREFETCHES: 0
L1I COMMIT LATE PREFETCHES: 0 MISSED OPPORTUNITY: 0 LATE IN PQ: 0 UNCOVERED: 0
L1I COMMIT LATE MSHR PREFETCHES: 0
L1I MPKI TOTAL: 4e-05 MSHR LATE: 0 PQ LATE: 0 COMMIT LATE: 0 MISSED OPPORTUNITY: 0 UNCOVERED: 0
L1I PREFETCHES SAME FILL-ORIGIN LEVEL: 0 DIFFERENT FILL-ORIGIN LEVEL: 0
L1I AVERAGE MISS LATENCY: 214.143 cycles
L1I AVERAGE MISS LATENCY LOAD: 214.143 cycles
L1I AVERAGE MISS LATENCY PREFETCH: -nan cycles
L1I AVERAGE MSHR OCCUPANCY: 1.43284e-07
L1I MSHR FULL: 0
L1I RQ	ACCESS:   43909493	FORWARD:          0	MERGED:    9013683	TO_CACHE:   34895810

402781: 1
403444: 1
402801: 1
4026e0: 1
402702: 1
402746: 1
4027c3: 1
BTB TOTAL     ACCESS:   30088227  HIT:   30088216  MISS:         11  HIT %:        100  MISS %: 3.65591e-05   MPKI: 5.5e-05
BTB Test counter:          0
BTB BRANCH_DIRECT_JUMP	ACCESS:    1387298  HIT:    1387296  MISS:          2
BTB BRANCH_INDIRECT	ACCESS:          0  HIT:          0  MISS:          0
BTB BRANCH_CONDITIONAL	ACCESS:   28700929  HIT:   28700920  MISS:          9
BTB BRANCH_DIRECT_CALL	ACCESS:          0  HIT:          0  MISS:          0
BTB BRANCH_INDIRECT_CALL	ACCESS:          0  HIT:          0  MISS:          0
BTB BRANCH_RETURN	ACCESS:          0  HIT:          0  MISS:          0
BTB BRANCH_OTHER ACCESS:          0  HIT:          0  MISS:          0

L2C TOTAL     ACCESS:    7555765  HIT:    3687020  MISS:    3868745  HIT %:    48.7974  MISS %:    51.2026   MPKI: 19.3437
L2C Test counter:          0
L2C LOAD      ACCESS:    3861090  HIT:    3634325  MISS:     226765  HIT %:    94.1269  MISS %:    5.87308   MPKI: 1.13383
L2C DATA LOAD MPKI: 1.13379
L2C INSTRUCTION LOAD MPKI: 3.5e-05
L2C RFO       ACCESS:          2  HIT:          0  MISS:          2  HIT %:          0  MISS %:        100   MPKI: 1e-05
L2C PREFETCH  ACCESS:    3634312  HIT:          0  MISS:    3634312  HIT %:          0  MISS %:        100   MPKI: 18.1716
L2C DATA PREFETCH MPKI: 18.1716
L2C INSTRUCTION PREFETCH MPKI: 0
L2C WRITEBACK ACCESS:          4  HIT:          1  MISS:          3  HIT %:         25  MISS %:         75   MPKI: 1.5e-05
L2C LOAD TRANSLATION ACCESS:      60357  HIT:      52694  MISS:       7663  HIT %:    87.3039  MISS %:    12.6961   MPKI: 0.038315
L2C PREFETCH  REQUESTED:    3735738  ISSUED:    3735738  USEFUL:    3634280  USELESS:          9
L2C USEFUL LOAD PREFETCHES:    3634280 PREFETCH ISSUED TO LOWER LEVEL:    3707205  ACCURACY: 98.0329
L2C TIMELY PREFETCHES:    3634280 LATE PREFETCHES: 72880 DROPPED PREFETCHES: 0
L2C COMMIT LATE PREFETCHES: 0 MISSED OPPORTUNITY: 0 LATE IN PQ: 0 UNCOVERED: 0
L2C COMMIT LATE MSHR PREFETCHES: 0
L2C MPKI TOTAL: 1.13383 MSHR LATE: 0.3644 PQ LATE: 0 COMMIT LATE: 0 MISSED OPPORTUNITY: 0 UNCOVERED: 0
L2C PREFETCHES SAME FILL-ORIGIN LEVEL: 3707205 DIFFERENT FILL-ORIGIN LEVEL: 0
L2C AVERAGE MISS LATENCY: 174.056 cycles
L2C AVERAGE MISS LATENCY LOAD: 141.005 cycles
L2C AVERAGE MISS LATENCY PREFETCH: 176.037 cycles
L2C AVERAGE MSHR OCCUPANCY: 2.4572
L2C MSHR FULL: 2.77951e-05
L2C RQ	ACCESS:    3921449	FORWARD:          0	MERGED:          0	TO_CACHE:    3921449
L2C WQ	ACCESS:          4	FORWARD:          0	MERGED:          0	TO_CACHE:          4
L2C PQ	ACCESS:    3735738	FORWARD:          0	MERGED:          0	TO_CACHE:    3735738

L2C Instructions Evicting Data 7
L2C Translations Evicting Data 7663
L2C Data Evicting Data 3853401
L2C Instructions Evicting Instructions 0
L2C Translations Evicting Instructions 0
L2C Data Evicting Instructions 7
L2C Instructions Evicting Translations 0
L2C Translations Evicting Translations 0
L2C Data Evicting Translations 7664
L2C Dense regions hint from L2: 0
403444: 1
4027d7: 1
4027c3: 1
402781: 1
402801: 1
402702: 1
4026e0: 1
40344d: 1
402804: 96
402730: 96
4027f6: 98
402746: 99
403400: 214
403381: 219
4027a4: 50853
4027a0: 50918
4033c0: 124164
PSCL5 TOTAL     ACCESS:      60318  HIT:      60318  MISS:          0  HIT %:        100  MISS %:          0   MPKI: 0
PSCL5 Test counter:          0
PSCL5 LOAD TRANSLATION ACCESS:      60318  HIT:      60318  MISS:          0  HIT %:        100  MISS %:          0   MPKI: 0
PSCL5 PREFETCH  REQUESTED:          0  ISSUED:          0  USEFUL:          0  USELESS:          0
PSCL5 USEFUL LOAD PREFETCHES:          0 PREFETCH ISSUED TO LOWER LEVEL:          0  ACCURACY: -nan
PSCL5 TIMELY PREFETCHES:          0 LATE PREFETCHES: 0 DROPPED PREFETCHES: 0
PSCL5 COMMIT LATE PREFETCHES: 0 MISSED OPPORTUNITY: 0 LATE IN PQ: 0 UNCOVERED: 0
PSCL5 COMMIT LATE MSHR PREFETCHES: 0
PSCL5 MPKI TOTAL: 0 MSHR LATE: 0 PQ LATE: 0 COMMIT LATE: 0 MISSED OPPORTUNITY: 0 UNCOVERED: 0
PSCL5 PREFETCHES SAME FILL-ORIGIN LEVEL: 0 DIFFERENT FILL-ORIGIN LEVEL: 0

PSCL4 TOTAL     ACCESS:      60318  HIT:      60318  MISS:          0  HIT %:        100  MISS %:          0   MPKI: 0
PSCL4 Test counter:          0
PSCL4 LOAD TRANSLATION ACCESS:      60318  HIT:      60318  MISS:          0  HIT %:        100  MISS %:          0   MPKI: 0
PSCL4 PREFETCH  REQUESTED:          0  ISSUED:          0  USEFUL:          0  USELESS:          0
PSCL4 USEFUL LOAD PREFETCHES:          0 PREFETCH ISSUED TO LOWER LEVEL:          0  ACCURACY: -nan
PSCL4 TIMELY PREFETCHES:          0 LATE PREFETCHES: 0 DROPPED PREFETCHES: 0
PSCL4 COMMIT LATE PREFETCHES: 0 MISSED OPPORTUNITY: 0 LATE IN PQ: 0 UNCOVERED: 0
PSCL4 COMMIT LATE MSHR PREFETCHES: 0
PSCL4 MPKI TOTAL: 0 MSHR LATE: 0 PQ LATE: 0 COMMIT LATE: 0 MISSED OPPORTUNITY: 0 UNCOVERED: 0
PSCL4 PREFETCHES SAME FILL-ORIGIN LEVEL: 0 DIFFERENT FILL-ORIGIN LEVEL: 0

PSCL3 TOTAL     ACCESS:      60318  HIT:      60318  MISS:          0  HIT %:        100  MISS %:          0   MPKI: 0
PSCL3 Test counter:          0
PSCL3 LOAD TRANSLATION ACCESS:      60318  HIT:      60318  MISS:          0  HIT %:        100  MISS %:          0   MPKI: 0
PSCL3 PREFETCH  REQUESTED:          0  ISSUED:          0  USEFUL:          0  USELESS:          0
PSCL3 USEFUL LOAD PREFETCHES:          0 PREFETCH ISSUED TO LOWER LEVEL:          0  ACCURACY: -nan
PSCL3 TIMELY PREFETCHES:          0 LATE PREFETCHES: 0 DROPPED PREFETCHES: 0
PSCL3 COMMIT LATE PREFETCHES: 0 MISSED OPPORTUNITY: 0 LATE IN PQ: 0 UNCOVERED: 0
PSCL3 COMMIT LATE MSHR PREFETCHES: 0
PSCL3 MPKI TOTAL: 0 MSHR LATE: 0 PQ LATE: 0 COMMIT LATE: 0 MISSED OPPORTUNITY: 0 UNCOVERED: 0
PSCL3 PREFETCHES SAME FILL-ORIGIN LEVEL: 0 DIFFERENT FILL-ORIGIN LEVEL: 0

PSCL2 TOTAL     ACCESS:      60318  HIT:      60198  MISS:        120  HIT %:    99.8011  MISS %:   0.198946   MPKI: 0.0006
PSCL2 Test counter:          0
PSCL2 LOAD TRANSLATION ACCESS:      60318  HIT:      60198  MISS:        120  HIT %:    99.8011  MISS %:   0.198946   MPKI: 0.0006
PSCL2 PREFETCH  REQUESTED:          0  ISSUED:          0  USEFUL:          0  USELESS:          0
PSCL2 USEFUL LOAD PREFETCHES:          0 PREFETCH ISSUED TO LOWER LEVEL:          0  ACCURACY: -nan
PSCL2 TIMELY PREFETCHES:          0 LATE PREFETCHES: 0 DROPPED PREFETCHES: 0
PSCL2 COMMIT LATE PREFETCHES: 0 MISSED OPPORTUNITY: 0 LATE IN PQ: 0 UNCOVERED: 0
PSCL2 COMMIT LATE MSHR PREFETCHES: 0
PSCL2 MPKI TOTAL: 0 MSHR LATE: 0 PQ LATE: 0 COMMIT LATE: 0 MISSED OPPORTUNITY: 0 UNCOVERED: 0
PSCL2 PREFETCHES SAME FILL-ORIGIN LEVEL: 0 DIFFERENT FILL-ORIGIN LEVEL: 0

LLC TOTAL     ACCESS:    3868746  HIT:        837  MISS:    3867909  HIT %:  0.0216349  MISS %:    99.9784   MPKI: 19.3395
LLC Test counter:          0
LLC LOAD      ACCESS:     153885  HIT:        820  MISS:     153065  HIT %:   0.532865  MISS %:    99.4671   MPKI: 0.765325
LLC RFO       ACCESS:          2  HIT:          0  MISS:          2  HIT %:          0  MISS %:        100   MPKI: 1e-05
LLC PREFETCH  ACCESS:    3707192  HIT:          4  MISS:    3707188  HIT %: 0.000107898  MISS %:    99.9999   MPKI: 18.5359
LLC WRITEBACK ACCESS:          4  HIT:          1  MISS:          3  HIT %:         25  MISS %:         75   MPKI: 1.5e-05
LLC LOAD TRANSLATION ACCESS:       7663  HIT:         12  MISS:       7651  HIT %:   0.156597  MISS %:    99.8434   MPKI: 0.038255
LLC PREFETCH  REQUESTED:          0  ISSUED:          0  USEFUL:          0  USELESS:    3707615
LLC USEFUL LOAD PREFETCHES:          0 PREFETCH ISSUED TO LOWER LEVEL:    3707189  ACCURACY: 0
LLC TIMELY PREFETCHES:          0 LATE PREFETCHES: 0 DROPPED PREFETCHES: 0
LLC COMMIT LATE PREFETCHES: 0 MISSED OPPORTUNITY: 0 LATE IN PQ: 0 UNCOVERED: 0
LLC COMMIT LATE MSHR PREFETCHES: 0
LLC MPKI TOTAL: 0.765325 MSHR LATE: 0 PQ LATE: 0 COMMIT LATE: 0 MISSED OPPORTUNITY: 0 UNCOVERED: 0
LLC PREFETCHES SAME FILL-ORIGIN LEVEL: 0 DIFFERENT FILL-ORIGIN LEVEL: 0
LLC AVERAGE MISS LATENCY: 145.18 cycles
LLC AVERAGE MISS LATENCY LOAD: 142.423 cycles
LLC AVERAGE MISS LATENCY PREFETCH: 145.216 cycles
LLC AVERAGE MSHR OCCUPANCY: 4.37263
LLC MSHR FULL: 0
LLC RQ	ACCESS:     161550	FORWARD:          0	MERGED:          0	TO_CACHE:     161550
LLC WQ	ACCESS:          4	FORWARD:          0	MERGED:          0	TO_CACHE:          4
LLC PQ	ACCESS:    3707205	FORWARD:          0	MERGED:          0	TO_CACHE:    3707205

LLC Dense regions hint to LLC: 0
4027d7: 1
4027f6: 1
4027c3: 1
402781: 1
403444: 1
40344d: 1
402801: 1
402702: 1
4026e0: 1
402746: 1
4027a0: 30727
4027a4: 50788
4033c0: 71540

RAW hits: 1
Loads Generated: 35804828
Loads sent to L1D: 35804826
Stores Generated: 3375822
Stores sent to L1D: 3375822
Major fault: 0 Minor fault: 62153
Allocated PAGES: 62153
Total Load insts: 43896024
Total Non-spec loads: 8196355
Percentage of speculative loads: 81.3278
L1D response latency: 23.0971 cycles
Load retirement latency: 39.247 cycles

[Bingo] PHT Access: 121263
[Bingo] PHT Hit PC+Addr: 212
[Bingo] PHT Hit PC+Offs: 120386
[Bingo] PHT Miss: 665
[Bingo] Prefetch PC+Addr: 0
[Bingo] Prefetch PC+Offs: 0
[Bingo] Useful PC+Addr: 0
[Bingo] Useful PC+Offs: 0
[Bingo] Useless PC+Addr: 0
[Bingo] Useless PC+Offs: 0
[Bingo] L1 Prefetch per Region: 0
[Bingo] L2 Prefetch per Region: 31.9769
[Bingo] L3 Prefetch per Region: 0
[Bingo] No Prefetch per Region: 0.023085
[Bingo] Number of Voters Mean: 15.9944
[Bingo] Number of Voters SD: 9.15404
PHT read accesses: 1926901
PHT write accesses: 120733
AT read accesses: 3742206
AT write accesses: 3860508
FT read accesses: 362821
FT write accesses: 121263
PS read accesses: 480909
PS write accesses: 120598
PHT tag read accesses: 5797873
PHT tag write accesses: 120945
AT tag read accesses: 129454833
AT tag write accesses: 3862939
FT tag read accesses: 69801293
FT tag write accesses: 363306
PS tag read accesses: 65761212
PS tag write accesses: 601507

DRAM Statistics
 CHANNEL 0
 RQ ROW_BUFFER_HIT:    3235685  ROW_BUFFER_MISS:     632221
 DBUS_CONGESTED:          0
 WQ ROW_BUFFER_HIT:          0  ROW_BUFFER_MISS:          2  FULL:          0

 AVG_CONGESTED_CYCLE: -
 All warmup complete: 2
Channel 0 Bank busy for read cycles: 0
Channel 0 Bank busy for write cycles: 0
Channel 0
Rank 0
0banks busy for read cycles: 227053720
0banks busy for write cycles: 2
1banks busy for read cycles: 9259207
1banks busy for write cycles: 354
2banks busy for read cycles: 676843
2banks busy for write cycles: 0
3banks busy for read cycles: 315005
3banks busy for write cycles: 0
4banks busy for read cycles: 292206
4banks busy for write cycles: 0
5banks busy for read cycles: 292786
5banks busy for write cycles: 0
6banks busy for read cycles: 497562
6banks busy for write cycles: 0
7banks busy for read cycles: 6335750
7banks busy for write cycles: 0
8banks busy for read cycles: 24386410
8banks busy for write cycles: 0

CPU 0 Branch Prediction Accuracy: 99.8669% MPKI: 0.223155 Average ROB Occupancy at Mispredict: 43.4716
Branch types
NOT_BRANCH: 166478571 83.2393%
BRANCH_DIRECT_JUMP: 1387298 0.693649%
BRANCH_INDIRECT: 0 0%
BRANCH_CONDITIONAL: 32134381 16.0672%
BRANCH_DIRECT_CALL: 0 0%
BRANCH_INDIRECT_CALL: 0 0%
BRANCH_RETURN: 0 0%
BRANCH_OTHER: 0 0%

DRAM PAGES: 1048576
Allocated PAGES: 62153
