
*** ChampSim Multicore Out-of-Order Simulator ***

Warmup Instructions: 50000000
Simulation Instructions: 200000000
Number of CPUs: 1
LLC sets: 2048
LLC ways: 16
Secure Berti: OFF
Berti: OFF
Berti Fill: OFF
On commit prefetching: OFF
L2 LLC Bypass speculative loads: OFF
Off-chip DRAM Size: 4096 MB Channels: 1 Width: 64-bit Data Rate: 6400 MT/s
CPU 0 runs /home/sumon/secure_berti/Berti_Baseline/../../traces/spec/605.mcf_s-484B.champsimtrace.xz
.xz
BTB has LRU replacement policy
ITLB has LRU replacement policy
DTLB has LRU replacement policy
STLB has LRU replacement policy
L1I has LRU replacement policy
L1D has LRU replacement policy
Bingo PHT WAYS: 16 and PHT_SIZE: 16384
L2C has LRU replacement policy
LLC has LRU replacement policy
Heartbeat CPU 0 instructions: 10000001 cycles: 3160904 heartbeat IPC: 3.16365 cumulative IPC: 3.16365 (Simulation time: 0 hr 0 min 26 sec) 
Heartbeat CPU 0 instructions: 20000000 cycles: 6357501 heartbeat IPC: 3.12833 cumulative IPC: 3.14589 (Simulation time: 0 hr 0 min 50 sec) 
Heartbeat CPU 0 instructions: 30000001 cycles: 9533627 heartbeat IPC: 3.14849 cumulative IPC: 3.14676 (Simulation time: 0 hr 1 min 14 sec) 
Heartbeat CPU 0 instructions: 40000000 cycles: 12680617 heartbeat IPC: 3.17764 cumulative IPC: 3.15442 (Simulation time: 0 hr 1 min 37 sec) 
Heartbeat CPU 0 instructions: 50000002 cycles: 15861505 heartbeat IPC: 3.14378 cumulative IPC: 3.15229 (Simulation time: 0 hr 1 min 59 sec) 

Warmup complete CPU 0 instructions: 50000002 cycles: 15861505 (Simulation time: 0 hr 1 min 59 sec) 

Heartbeat CPU 0 instructions: 60000003 cycles: 34012869 heartbeat IPC: 0.550923 cumulative IPC: 0.550923 (Simulation time: 0 hr 2 min 35 sec) 
Heartbeat CPU 0 instructions: 70000002 cycles: 55183738 heartbeat IPC: 0.472347 cumulative IPC: 0.508618 (Simulation time: 0 hr 3 min 14 sec) 
Heartbeat CPU 0 instructions: 80000000 cycles: 78414295 heartbeat IPC: 0.430467 cumulative IPC: 0.479595 (Simulation time: 0 hr 3 min 53 sec) 
Heartbeat CPU 0 instructions: 90000000 cycles: 98222708 heartbeat IPC: 0.504836 cumulative IPC: 0.485666 (Simulation time: 0 hr 4 min 35 sec) 
Heartbeat CPU 0 instructions: 100000000 cycles: 116241915 heartbeat IPC: 0.554963 cumulative IPC: 0.498105 (Simulation time: 0 hr 5 min 18 sec) 
Heartbeat CPU 0 instructions: 110000000 cycles: 134329767 heartbeat IPC: 0.552857 cumulative IPC: 0.506465 (Simulation time: 0 hr 6 min 3 sec) 
Heartbeat CPU 0 instructions: 120000001 cycles: 150774068 heartbeat IPC: 0.608113 cumulative IPC: 0.518855 (Simulation time: 0 hr 6 min 47 sec) 
Heartbeat CPU 0 instructions: 130000000 cycles: 167712149 heartbeat IPC: 0.590386 cumulative IPC: 0.526833 (Simulation time: 0 hr 7 min 32 sec) 
Heartbeat CPU 0 instructions: 140000001 cycles: 185592350 heartbeat IPC: 0.559278 cumulative IPC: 0.530251 (Simulation time: 0 hr 8 min 14 sec) 
Heartbeat CPU 0 instructions: 150000002 cycles: 202613614 heartbeat IPC: 0.587501 cumulative IPC: 0.535469 (Simulation time: 0 hr 8 min 54 sec) 
Heartbeat CPU 0 instructions: 160000000 cycles: 220689668 heartbeat IPC: 0.553218 cumulative IPC: 0.537036 (Simulation time: 0 hr 9 min 32 sec) 
Heartbeat CPU 0 instructions: 170000000 cycles: 239471827 heartbeat IPC: 0.53242 cumulative IPC: 0.536648 (Simulation time: 0 hr 10 min 7 sec) 
Heartbeat CPU 0 instructions: 180000001 cycles: 257604436 heartbeat IPC: 0.551493 cumulative IPC: 0.537761 (Simulation time: 0 hr 10 min 41 sec) 
Heartbeat CPU 0 instructions: 190000000 cycles: 275795656 heartbeat IPC: 0.549716 cumulative IPC: 0.538598 (Simulation time: 0 hr 11 min 15 sec) 
Heartbeat CPU 0 instructions: 200000002 cycles: 296165785 heartbeat IPC: 0.490915 cumulative IPC: 0.535133 (Simulation time: 0 hr 11 min 51 sec) 
Heartbeat CPU 0 instructions: 210000002 cycles: 318049609 heartbeat IPC: 0.456959 cumulative IPC: 0.529472 (Simulation time: 0 hr 12 min 27 sec) 
Heartbeat CPU 0 instructions: 220000000 cycles: 335242722 heartbeat IPC: 0.581628 cumulative IPC: 0.532279 (Simulation time: 0 hr 12 min 59 sec) 
Heartbeat CPU 0 instructions: 230000002 cycles: 353576350 heartbeat IPC: 0.545446 cumulative IPC: 0.532994 (Simulation time: 0 hr 13 min 36 sec) 
Heartbeat CPU 0 instructions: 240000000 cycles: 372433145 heartbeat IPC: 0.530313 cumulative IPC: 0.532852 (Simulation time: 0 hr 14 min 41 sec) 
Heartbeat CPU 0 instructions: 250000001 cycles: 392129961 heartbeat IPC: 0.507696 cumulative IPC: 0.531535 (Simulation time: 0 hr 15 min 21 sec) 
Finished CPU 0 instructions: 200000003 cycles: 376268458 cumulative IPC: 0.531535 (Simulation time: 0 hr 15 min 21 sec) 

ChampSim completed all CPUs

Region of Interest Statistics

CPU 0 cumulative IPC: 0.531535 instructions: 200000003 cycles: 376268458
ITLB TOTAL     ACCESS:   32397276  HIT:   32397276  MISS:          0  HIT %:        100  MISS %:          0   MPKI: 0
ITLB Test counter:          0
ITLB LOAD TRANSLATION ACCESS:   32397276  HIT:   32397276  MISS:          0  HIT %:        100  MISS %:          0   MPKI: 0
ITLB PREFETCH  REQUESTED:          0  ISSUED:          0  USEFUL:          0  USELESS:          0
ITLB USEFUL LOAD PREFETCHES:          0 PREFETCH ISSUED TO LOWER LEVEL:          0  ACCURACY: -nan
ITLB TIMELY PREFETCHES:          0 LATE PREFETCHES: 0 DROPPED PREFETCHES: 0
ITLB COMMIT LATE PREFETCHES: 0 MISSED OPPORTUNITY: 0 LATE IN PQ: 0 UNCOVERED: 0
ITLB COMMIT LATE MSHR PREFETCHES: 0
ITLB MPKI TOTAL: 0 MSHR LATE: 0 PQ LATE: 0 COMMIT LATE: 0 MISSED OPPORTUNITY: 0 UNCOVERED: 0
ITLB PREFETCHES SAME FILL-ORIGIN LEVEL: 0 DIFFERENT FILL-ORIGIN LEVEL: 0
ITLB AVERAGE MISS LATENCY: -nan cycles
ITLB AVERAGE MISS LATENCY LOAD: -nan cycles
ITLB AVERAGE MISS LATENCY PREFETCH: -nan cycles
ITLB AVERAGE MSHR OCCUPANCY: 0
ITLB MSHR FULL: 0
ITLB RQ	ACCESS:   42659815	FORWARD:          0	MERGED:   10262539	TO_CACHE:   32397276

DTLB TOTAL     ACCESS:   52908225  HIT:   52430779  MISS:     477446  HIT %:    99.0976  MISS %:   0.902404   MPKI: 2.38723
DTLB Test counter:          0
DTLB LOAD TRANSLATION ACCESS:   52908225  HIT:   52430779  MISS:     477446  HIT %:    99.0976  MISS %:   0.902404   MPKI: 2.38723
DTLB PREFETCH  REQUESTED:          0  ISSUED:          0  USEFUL:          0  USELESS:          0
DTLB USEFUL LOAD PREFETCHES:          0 PREFETCH ISSUED TO LOWER LEVEL:          0  ACCURACY: -nan
DTLB TIMELY PREFETCHES:          0 LATE PREFETCHES: 0 DROPPED PREFETCHES: 0
DTLB COMMIT LATE PREFETCHES: 0 MISSED OPPORTUNITY: 0 LATE IN PQ: 0 UNCOVERED: 0
DTLB COMMIT LATE MSHR PREFETCHES: 0
DTLB MPKI TOTAL: 0 MSHR LATE: 0 PQ LATE: 0 COMMIT LATE: 0 MISSED OPPORTUNITY: 0 UNCOVERED: 0
DTLB PREFETCHES SAME FILL-ORIGIN LEVEL: 0 DIFFERENT FILL-ORIGIN LEVEL: 0
DTLB AVERAGE MISS LATENCY: 33.9687 cycles
DTLB AVERAGE MISS LATENCY LOAD: -nan cycles
DTLB AVERAGE MISS LATENCY PREFETCH: -nan cycles
DTLB AVERAGE MSHR OCCUPANCY: 0.0157294
DTLB MSHR FULL: 0
DTLB RQ	ACCESS:   93208154	FORWARD:          0	MERGED:   40231142	TO_CACHE:   52977012

STLB TOTAL     ACCESS:     477446  HIT:     331447  MISS:     145999  HIT %:    69.4208  MISS %:    30.5792   MPKI: 0.729995
STLB Test counter:          0
STLB LOAD TRANSLATION ACCESS:     477446  HIT:     331447  MISS:     145999  HIT %:    69.4208  MISS %:    30.5792   MPKI: 0.729995
STLB PREFETCH  REQUESTED:          0  ISSUED:          0  USEFUL:          0  USELESS:          0
STLB USEFUL LOAD PREFETCHES:          0 PREFETCH ISSUED TO LOWER LEVEL:          0  ACCURACY: -nan
STLB TIMELY PREFETCHES:          0 LATE PREFETCHES: 0 DROPPED PREFETCHES: 0
STLB COMMIT LATE PREFETCHES: 0 MISSED OPPORTUNITY: 0 LATE IN PQ: 0 UNCOVERED: 0
STLB COMMIT LATE MSHR PREFETCHES: 0
STLB MPKI TOTAL: 0 MSHR LATE: 0 PQ LATE: 0 COMMIT LATE: 0 MISSED OPPORTUNITY: 0 UNCOVERED: 0
STLB PREFETCHES SAME FILL-ORIGIN LEVEL: 0 DIFFERENT FILL-ORIGIN LEVEL: 0
STLB AVERAGE MISS LATENCY: 81.489 cycles
STLB AVERAGE MISS LATENCY LOAD: -nan cycles
STLB AVERAGE MISS LATENCY PREFETCH: -nan cycles
STLB AVERAGE MSHR OCCUPANCY: 0.00736209
STLB MSHR FULL: 0
STLB RQ	ACCESS:     477446	FORWARD:          0	MERGED:          0	TO_CACHE:     477446

STLB Hit, L1D data hit: 0
STLB Hit, L2C data hit: 0
STLB Hit, LLC data hit: 0
STLB Hit, LLC data miss: 0
STLB STLB hints to L2: 0
L1D TOTAL     ACCESS:   91442510  HIT:   86024090  MISS:    5418420  HIT %:    94.0745  MISS %:    5.92549   MPKI: 27.0921
L1D Test counter:          0
L1D LOAD      ACCESS:   36287388  HIT:   31362197  MISS:    5022753  HIT %:    86.4273  MISS %:    13.5727   MPKI: 24.626
L1D RFO       ACCESS:   55155122  HIT:   54661893  MISS:     493229  HIT %:    99.1057  MISS %:   0.894258   MPKI: 2.46614
L1D PREFETCH  REQUESTED:          0  ISSUED:          0  USEFUL:          0  USELESS:          0
L1D USEFUL LOAD PREFETCHES:          0 PREFETCH ISSUED TO LOWER LEVEL:          0  ACCURACY: -nan
L1D TIMELY PREFETCHES:          0 LATE PREFETCHES: 0 DROPPED PREFETCHES: 0
L1D COMMIT LATE PREFETCHES: 0 MISSED OPPORTUNITY: 0 LATE IN PQ: 0 UNCOVERED: 0
L1D COMMIT LATE MSHR PREFETCHES: 0
L1D MPKI TOTAL: 25.1138 MSHR LATE: 0 PQ LATE: 0 COMMIT LATE: 0 MISSED OPPORTUNITY: 0 UNCOVERED: 0
L1D PREFETCHES SAME FILL-ORIGIN LEVEL: 0 DIFFERENT FILL-ORIGIN LEVEL: 0
L1D AVERAGE MISS LATENCY: 62.816 cycles
L1D AVERAGE MISS LATENCY LOAD: 49.1163 cycles
L1D AVERAGE MISS LATENCY PREFETCH: -nan cycles
L1D AVERAGE MSHR OCCUPANCY: 0.751371
L1D MSHR FULL: 0
L1D RQ	ACCESS:   62778451	FORWARD:          0	MERGED:   26335806	TO_CACHE:   36384951
L1D WQ	ACCESS:   57343188	FORWARD:      57694	MERGED:     519985	TO_CACHE:   56823203

L1D UNIQUE REGIONS ACCESSED: 0
L1D REGIONS CONFLICTS: 0
L1D Cross Page Prefetch Requests: 0
L1D Same Page Prefetch Requests: 0
L1D ROI Sum of L1D PQ occupancy: 0
L1D PREFETCHES PUSHED FROM L2C: 0
403124: 1
403162: 2
402d96: 6
402dab: 6
41a843: 8
402ffb: 36
41a9be: 39
402c88: 45
402d79: 47
402d40: 47
402c90: 47
41d3be: 47
41d3b5: 47
402c93: 47
41a7ae: 47
41d375: 47
402cad: 47
41d3c2: 47
41d38c: 47
41d3a0: 47
402e04: 47
41acb6: 47
402c8d: 47
402d9f: 47
41ac71: 47
4030c1: 277
402f72: 421
402f40: 518
402f3c: 521
402e18: 722
402f85: 732
402fbc: 773
402fc5: 774
403039: 27884
40301c: 29360
403012: 70676
402dc7: 305782
403083: 410889
40307e: 449785
402dc0: 582469
402dcb: 873709
402dfb: 1003995
402dc3: 1164962
L1I TOTAL     ACCESS:   42659814  HIT:   42659814  MISS:          0  HIT %:        100  MISS %:          0   MPKI: 0
L1I Test counter:          0
L1I LOAD      ACCESS:   42659814  HIT:   42659814  MISS:          0  HIT %:        100  MISS %:          0   MPKI: 0
L1I PREFETCH  REQUESTED:          0  ISSUED:          0  USEFUL:          0  USELESS:          0
L1I USEFUL LOAD PREFETCHES:          0 PREFETCH ISSUED TO LOWER LEVEL:          0  ACCURACY: -nan
L1I TIMELY PREFETCHES:          0 LATE PREFETCHES: 0 DROPPED PREFETCHES: 0
L1I COMMIT LATE PREFETCHES: 0 MISSED OPPORTUNITY: 0 LATE IN PQ: 0 UNCOVERED: 0
L1I COMMIT LATE MSHR PREFETCHES: 0
L1I MPKI TOTAL: 0 MSHR LATE: 0 PQ LATE: 0 COMMIT LATE: 0 MISSED OPPORTUNITY: 0 UNCOVERED: 0
L1I PREFETCHES SAME FILL-ORIGIN LEVEL: 0 DIFFERENT FILL-ORIGIN LEVEL: 0
L1I AVERAGE MISS LATENCY: -nan cycles
L1I AVERAGE MISS LATENCY LOAD: -nan cycles
L1I AVERAGE MISS LATENCY PREFETCH: -nan cycles
L1I AVERAGE MSHR OCCUPANCY: 0
L1I MSHR FULL: 0
L1I RQ	ACCESS:   58492195	FORWARD:          0	MERGED:   15832380	TO_CACHE:   42659815

BTB TOTAL     ACCESS:   19468370  HIT:   19468336  MISS:         34  HIT %:    99.9998  MISS %: 0.000174642   MPKI: 0.00017
BTB Test counter:          0
BTB BRANCH_DIRECT_JUMP	ACCESS:     976614  HIT:     976608  MISS:          6
BTB BRANCH_INDIRECT	ACCESS:          0  HIT:          0  MISS:          0
BTB BRANCH_CONDITIONAL	ACCESS:   18491568  HIT:   18491544  MISS:         24
BTB BRANCH_DIRECT_CALL	ACCESS:         94  HIT:         92  MISS:          2
BTB BRANCH_INDIRECT_CALL	ACCESS:          0  HIT:          0  MISS:          0
BTB BRANCH_RETURN	ACCESS:         94  HIT:         92  MISS:          2
BTB BRANCH_OTHER ACCESS:          0  HIT:          0  MISS:          0

L2C TOTAL     ACCESS:   12528886  HIT:    5387448  MISS:    7141438  HIT %:    43.0002  MISS %:    56.9998   MPKI: 35.7072
L2C Test counter:          0
L2C LOAD      ACCESS:    4925173  HIT:    3913576  MISS:    1011597  HIT %:    79.4607  MISS %:    20.5393   MPKI: 5.05798
L2C DATA LOAD MPKI: 5.05798
L2C INSTRUCTION LOAD MPKI: 0
L2C RFO       ACCESS:     493222  HIT:      50914  MISS:     442308  HIT %:    10.3227  MISS %:    89.6773   MPKI: 2.21154
L2C PREFETCH  ACCESS:    5726461  HIT:      63270  MISS:    5663191  HIT %:    1.10487  MISS %:    98.8951   MPKI: 28.316
L2C DATA PREFETCH MPKI: 28.316
L2C INSTRUCTION PREFETCH MPKI: 0
L2C WRITEBACK ACCESS:    1237672  HIT:    1234659  MISS:       3013  HIT %:    99.7566  MISS %:   0.243441   MPKI: 0.015065
L2C LOAD TRANSLATION ACCESS:     146358  HIT:     125029  MISS:      21329  HIT %:    85.4268  MISS %:    14.5732   MPKI: 0.106645
L2C PREFETCH  REQUESTED:    6234418  ISSUED:    6234418  USEFUL:    3874544  USELESS:    1787269
L2C USEFUL LOAD PREFETCHES:    3874544 PREFETCH ISSUED TO LOWER LEVEL:    6090049  ACCURACY: 63.6209
L2C TIMELY PREFETCHES:    3874544 LATE PREFETCHES: 426858 DROPPED PREFETCHES: 0
L2C COMMIT LATE PREFETCHES: 0 MISSED OPPORTUNITY: 0 LATE IN PQ: 0 UNCOVERED: 0
L2C COMMIT LATE MSHR PREFETCHES: 0
L2C MPKI TOTAL: 5.05798 MSHR LATE: 2.13429 PQ LATE: 0 COMMIT LATE: 0 MISSED OPPORTUNITY: 0 UNCOVERED: 0
L2C PREFETCHES SAME FILL-ORIGIN LEVEL: 6090049 DIFFERENT FILL-ORIGIN LEVEL: 0
L2C AVERAGE MISS LATENCY: 199.372 cycles
L2C AVERAGE MISS LATENCY LOAD: 168.827 cycles
L2C AVERAGE MISS LATENCY PREFETCH: 204.339 cycles
L2C AVERAGE MSHR OCCUPANCY: 8.42617
L2C MSHR FULL: 0.0538149
L2C RQ	ACCESS:    5564778	FORWARD:          0	MERGED:          0	TO_CACHE:    5564753
L2C WQ	ACCESS:    1237672	FORWARD:         30	MERGED:          0	TO_CACHE:    1237672
L2C PQ	ACCESS:    6234418	FORWARD:          0	MERGED:          0	TO_CACHE:    6234413

L2C Instructions Evicting Data 0
L2C Translations Evicting Data 21290
L2C Data Evicting Data 7095830
L2C Instructions Evicting Instructions 0
L2C Translations Evicting Instructions 0
L2C Data Evicting Instructions 0
L2C Instructions Evicting Translations 0
L2C Translations Evicting Translations 39
L2C Data Evicting Translations 21266
L2C Dense regions hint from L2: 0
402f40: 1
403162: 2
402d96: 2
402f85: 6
402dab: 6
402e18: 7
402d79: 18
402fbc: 22
402c93: 34
41a9be: 36
402c88: 45
41acb6: 45
402cad: 46
41d3c2: 47
402d40: 47
41ac71: 47
41d3be: 47
41a7ae: 47
41d3a0: 47
402e04: 47
41d375: 47
41d3b5: 47
402c90: 47
41d38c: 47
402d9f: 47
402f3c: 49
4030c1: 57
402f72: 62
403039: 3378
40301c: 4765
403012: 13194
402dc0: 23167
402dcb: 51156
403083: 63172
402dc7: 69187
40307e: 130475
402dfb: 134827
402dc3: 517274
PSCL5 TOTAL     ACCESS:     145999  HIT:     145999  MISS:          0  HIT %:        100  MISS %:          0   MPKI: 0
PSCL5 Test counter:          0
PSCL5 LOAD TRANSLATION ACCESS:     145999  HIT:     145999  MISS:          0  HIT %:        100  MISS %:          0   MPKI: 0
PSCL5 PREFETCH  REQUESTED:          0  ISSUED:          0  USEFUL:          0  USELESS:          0
PSCL5 USEFUL LOAD PREFETCHES:          0 PREFETCH ISSUED TO LOWER LEVEL:          0  ACCURACY: -nan
PSCL5 TIMELY PREFETCHES:          0 LATE PREFETCHES: 0 DROPPED PREFETCHES: 0
PSCL5 COMMIT LATE PREFETCHES: 0 MISSED OPPORTUNITY: 0 LATE IN PQ: 0 UNCOVERED: 0
PSCL5 COMMIT LATE MSHR PREFETCHES: 0
PSCL5 MPKI TOTAL: 0 MSHR LATE: 0 PQ LATE: 0 COMMIT LATE: 0 MISSED OPPORTUNITY: 0 UNCOVERED: 0
PSCL5 PREFETCHES SAME FILL-ORIGIN LEVEL: 0 DIFFERENT FILL-ORIGIN LEVEL: 0

PSCL4 TOTAL     ACCESS:     145999  HIT:     145999  MISS:          0  HIT %:        100  MISS %:          0   MPKI: 0
PSCL4 Test counter:          0
PSCL4 LOAD TRANSLATION ACCESS:     145999  HIT:     145999  MISS:          0  HIT %:        100  MISS %:          0   MPKI: 0
PSCL4 PREFETCH  REQUESTED:          0  ISSUED:          0  USEFUL:          0  USELESS:          0
PSCL4 USEFUL LOAD PREFETCHES:          0 PREFETCH ISSUED TO LOWER LEVEL:          0  ACCURACY: -nan
PSCL4 TIMELY PREFETCHES:          0 LATE PREFETCHES: 0 DROPPED PREFETCHES: 0
PSCL4 COMMIT LATE PREFETCHES: 0 MISSED OPPORTUNITY: 0 LATE IN PQ: 0 UNCOVERED: 0
PSCL4 COMMIT LATE MSHR PREFETCHES: 0
PSCL4 MPKI TOTAL: 0 MSHR LATE: 0 PQ LATE: 0 COMMIT LATE: 0 MISSED OPPORTUNITY: 0 UNCOVERED: 0
PSCL4 PREFETCHES SAME FILL-ORIGIN LEVEL: 0 DIFFERENT FILL-ORIGIN LEVEL: 0

PSCL3 TOTAL     ACCESS:     145999  HIT:     145999  MISS:          0  HIT %:        100  MISS %:          0   MPKI: 0
PSCL3 Test counter:          0
PSCL3 LOAD TRANSLATION ACCESS:     145999  HIT:     145999  MISS:          0  HIT %:        100  MISS %:          0   MPKI: 0
PSCL3 PREFETCH  REQUESTED:          0  ISSUED:          0  USEFUL:          0  USELESS:          0
PSCL3 USEFUL LOAD PREFETCHES:          0 PREFETCH ISSUED TO LOWER LEVEL:          0  ACCURACY: -nan
PSCL3 TIMELY PREFETCHES:          0 LATE PREFETCHES: 0 DROPPED PREFETCHES: 0
PSCL3 COMMIT LATE PREFETCHES: 0 MISSED OPPORTUNITY: 0 LATE IN PQ: 0 UNCOVERED: 0
PSCL3 COMMIT LATE MSHR PREFETCHES: 0
PSCL3 MPKI TOTAL: 0 MSHR LATE: 0 PQ LATE: 0 COMMIT LATE: 0 MISSED OPPORTUNITY: 0 UNCOVERED: 0
PSCL3 PREFETCHES SAME FILL-ORIGIN LEVEL: 0 DIFFERENT FILL-ORIGIN LEVEL: 0

PSCL2 TOTAL     ACCESS:     145999  HIT:     145543  MISS:        456  HIT %:    99.6877  MISS %:   0.312331   MPKI: 0.00228
PSCL2 Test counter:          0
PSCL2 LOAD TRANSLATION ACCESS:     145999  HIT:     145543  MISS:        456  HIT %:    99.6877  MISS %:   0.312331   MPKI: 0.00228
PSCL2 PREFETCH  REQUESTED:          0  ISSUED:          0  USEFUL:          0  USELESS:          0
PSCL2 USEFUL LOAD PREFETCHES:          0 PREFETCH ISSUED TO LOWER LEVEL:          0  ACCURACY: -nan
PSCL2 TIMELY PREFETCHES:          0 LATE PREFETCHES: 0 DROPPED PREFETCHES: 0
PSCL2 COMMIT LATE PREFETCHES: 0 MISSED OPPORTUNITY: 0 LATE IN PQ: 0 UNCOVERED: 0
PSCL2 COMMIT LATE MSHR PREFETCHES: 0
PSCL2 MPKI TOTAL: 0 MSHR LATE: 0 PQ LATE: 0 COMMIT LATE: 0 MISSED OPPORTUNITY: 0 UNCOVERED: 0
PSCL2 PREFETCHES SAME FILL-ORIGIN LEVEL: 0 DIFFERENT FILL-ORIGIN LEVEL: 0

LLC TOTAL     ACCESS:    8309455  HIT:    1216875  MISS:    7092580  HIT %:    14.6445  MISS %:    85.3555   MPKI: 35.4629
LLC Test counter:          0
LLC LOAD      ACCESS:     584889  HIT:       9395  MISS:     575494  HIT %:    1.60629  MISS %:    98.3937   MPKI: 2.87747
LLC RFO       ACCESS:     442158  HIT:        883  MISS:     441275  HIT %:   0.199702  MISS %:    99.8003   MPKI: 2.20637
LLC PREFETCH  ACCESS:    6090049  HIT:      37425  MISS:    6052624  HIT %:   0.614527  MISS %:    99.3855   MPKI: 30.2631
LLC WRITEBACK ACCESS:    1171030  HIT:    1168255  MISS:       2775  HIT %:     99.763  MISS %:   0.236971   MPKI: 0.013875
LLC LOAD TRANSLATION ACCESS:      21329  HIT:        917  MISS:      20412  HIT %:    4.29931  MISS %:    95.7007   MPKI: 0.10206
LLC PREFETCH  REQUESTED:          0  ISSUED:          0  USEFUL:       8101  USELESS:    6042492
LLC USEFUL LOAD PREFETCHES:       8101 PREFETCH ISSUED TO LOWER LEVEL:    6052624  ACCURACY: 0.133843
LLC TIMELY PREFETCHES:       8101 LATE PREFETCHES: 0 DROPPED PREFETCHES: 0
LLC COMMIT LATE PREFETCHES: 0 MISSED OPPORTUNITY: 0 LATE IN PQ: 0 UNCOVERED: 0
LLC COMMIT LATE MSHR PREFETCHES: 0
LLC MPKI TOTAL: 2.87747 MSHR LATE: 0 PQ LATE: 0 COMMIT LATE: 0 MISSED OPPORTUNITY: 0 UNCOVERED: 0
LLC PREFETCHES SAME FILL-ORIGIN LEVEL: 0 DIFFERENT FILL-ORIGIN LEVEL: 0
LLC AVERAGE MISS LATENCY: 174.544 cycles
LLC AVERAGE MISS LATENCY LOAD: 159.019 cycles
LLC AVERAGE MISS LATENCY PREFETCH: 175.912 cycles
LLC AVERAGE MSHR OCCUPANCY: 3.93262
LLC MSHR FULL: 0
LLC RQ	ACCESS:    1048376	FORWARD:          0	MERGED:          0	TO_CACHE:    1048376
LLC WQ	ACCESS:    1171029	FORWARD:          0	MERGED:          0	TO_CACHE:    1171029
LLC PQ	ACCESS:    6090049	FORWARD:          0	MERGED:          0	TO_CACHE:    6090049

LLC Dense regions hint to LLC: 0
402d96: 2
402c93: 5
402dab: 6
402d79: 18
4030c1: 21
402f72: 26
41a9be: 36
41acb6: 44
41d3be: 47
402c90: 47
41d38c: 47
402d40: 47
41d3b5: 47
41ac71: 47
402d9f: 47
41a7ae: 47
41d3a0: 47
402e04: 47
41d375: 47
41d3c2: 47
403039: 2978
40301c: 4283
403012: 12015
402dc0: 19907
402dcb: 24560
402dc7: 30514
403083: 53035
402dfb: 80860
40307e: 124476
402dc3: 222144

RAW hits: 1389069
Loads Generated: 64167520
Loads sent to L1D: 62778451
Stores Generated: 57343186
Stores sent to L1D: 57343188
Major fault: 0 Minor fault: 60491
Allocated PAGES: 60491
Total Load insts: 78207921
Total Non-spec loads: 10398674
Percentage of speculative loads: 86.7038
L1D response latency: 49.1163 cycles
Load retirement latency: 124.914 cycles

[Bingo] PHT Access: 292098
[Bingo] PHT Hit PC+Addr: 10320
[Bingo] PHT Hit PC+Offs: 281356
[Bingo] PHT Miss: 422
[Bingo] Prefetch PC+Addr: 0
[Bingo] Prefetch PC+Offs: 0
[Bingo] Useful PC+Addr: 0
[Bingo] Useful PC+Offs: 0
[Bingo] Useless PC+Addr: 0
[Bingo] Useless PC+Offs: 0
[Bingo] L1 Prefetch per Region: 0
[Bingo] L2 Prefetch per Region: 22.5303
[Bingo] L3 Prefetch per Region: 0
[Bingo] No Prefetch per Region: 9.4697
[Bingo] Number of Voters Mean: 15.9402
[Bingo] Number of Voters SD: 7.65988
PHT read accesses: 4575395
PHT write accesses: 287549
AT read accesses: 4651006
AT write accesses: 4918778
FT read accesses: 870891
FT write accesses: 292098
PS read accesses: 1059255
PS write accesses: 291676
PHT tag read accesses: 13636475
PHT tag write accesses: 297869
AT tag read accesses: 206719576
AT tag write accesses: 4938557
FT tag read accesses: 133344812
FT tag write accesses: 873590
PS tag read accesses: 90196179
PS tag write accesses: 1350727

DRAM Statistics
 CHANNEL 0
 RQ ROW_BUFFER_HIT:    4975845  ROW_BUFFER_MISS:    2113959
 DBUS_CONGESTED:       4313
 WQ ROW_BUFFER_HIT:     273613  ROW_BUFFER_MISS:     890912  FULL:          0

 AVG_CONGESTED_CYCLE: 4
 All warmup complete: 2
Channel 0 Bank busy for read cycles: 0
Channel 0 Bank busy for write cycles: 0
Channel 0
Rank 0
0banks busy for read cycles: 188435318
0banks busy for write cycles: 126301
1banks busy for read cycles: 55463179
1banks busy for write cycles: 14140224
2banks busy for read cycles: 9427885
2banks busy for write cycles: 5857970
3banks busy for read cycles: 6501549
3banks busy for write cycles: 4176931
4banks busy for read cycles: 5265683
4banks busy for write cycles: 3561114
5banks busy for read cycles: 5426158
5banks busy for write cycles: 3363849
6banks busy for read cycles: 6491455
6banks busy for write cycles: 3335243
7banks busy for read cycles: 11514049
7banks busy for write cycles: 3984369
8banks busy for read cycles: 38253931
8banks busy for write cycles: 10943251

CPU 0 Branch Prediction Accuracy: 99.1376% MPKI: 0.85602 Average ROB Occupancy at Mispredict: 247.504
Branch types
NOT_BRANCH: 180147937 90.074%
BRANCH_DIRECT_JUMP: 976614 0.488307%
BRANCH_INDIRECT: 0 0%
BRANCH_CONDITIONAL: 18875257 9.43763%
BRANCH_DIRECT_CALL: 94 4.7e-05%
BRANCH_INDIRECT_CALL: 0 0%
BRANCH_RETURN: 94 4.7e-05%
BRANCH_OTHER: 0 0%

DRAM PAGES: 1048576
Allocated PAGES: 60491
