
*** ChampSim Multicore Out-of-Order Simulator ***

Warmup Instructions: 50000000
Simulation Instructions: 200000000
Number of CPUs: 1
LLC sets: 2048
LLC ways: 16
Secure Berti: OFF
Berti: OFF
Berti Fill: OFF
On commit prefetching: OFF
L2 LLC Bypass speculative loads: OFF
Off-chip DRAM Size: 4096 MB Channels: 1 Width: 64-bit Data Rate: 6400 MT/s
CPU 0 runs /home/sumon/secure_berti/Berti_Baseline/../../traces/spec/605.mcf_s-782B.champsimtrace.xz
.xz
BTB has LRU replacement policy
ITLB has LRU replacement policy
DTLB has LRU replacement policy
STLB has LRU replacement policy
L1I has LRU replacement policy
L1D has LRU replacement policy
Bingo PHT WAYS: 16 and PHT_SIZE: 16384
L2C has LRU replacement policy
LLC has LRU replacement policy
Heartbeat CPU 0 instructions: 10000001 cycles: 3722514 heartbeat IPC: 2.68636 cumulative IPC: 2.68636 (Simulation time: 0 hr 0 min 31 sec) 
Heartbeat CPU 0 instructions: 20000000 cycles: 7425186 heartbeat IPC: 2.70075 cumulative IPC: 2.69354 (Simulation time: 0 hr 1 min 6 sec) 
Heartbeat CPU 0 instructions: 30000000 cycles: 11175075 heartbeat IPC: 2.66675 cumulative IPC: 2.68455 (Simulation time: 0 hr 1 min 40 sec) 
Heartbeat CPU 0 instructions: 40000002 cycles: 14902121 heartbeat IPC: 2.68309 cumulative IPC: 2.68418 (Simulation time: 0 hr 2 min 12 sec) 
Heartbeat CPU 0 instructions: 50000000 cycles: 18661322 heartbeat IPC: 2.66014 cumulative IPC: 2.67934 (Simulation time: 0 hr 2 min 45 sec) 

Warmup complete CPU 0 instructions: 50000001 cycles: 18661323 (Simulation time: 0 hr 2 min 45 sec) 

Heartbeat CPU 0 instructions: 60000000 cycles: 71287056 heartbeat IPC: 0.190021 cumulative IPC: 0.190021 (Simulation time: 0 hr 3 min 38 sec) 
Heartbeat CPU 0 instructions: 70000002 cycles: 123503480 heartbeat IPC: 0.191511 cumulative IPC: 0.190763 (Simulation time: 0 hr 4 min 31 sec) 
Heartbeat CPU 0 instructions: 80000002 cycles: 175740690 heartbeat IPC: 0.191434 cumulative IPC: 0.190986 (Simulation time: 0 hr 5 min 23 sec) 
Heartbeat CPU 0 instructions: 90000000 cycles: 230984337 heartbeat IPC: 0.181016 cumulative IPC: 0.188392 (Simulation time: 0 hr 6 min 16 sec) 
Heartbeat CPU 0 instructions: 100000001 cycles: 287535044 heartbeat IPC: 0.176832 cumulative IPC: 0.185961 (Simulation time: 0 hr 7 min 9 sec) 
Heartbeat CPU 0 instructions: 110000000 cycles: 345218431 heartbeat IPC: 0.17336 cumulative IPC: 0.183735 (Simulation time: 0 hr 8 min 1 sec) 
Heartbeat CPU 0 instructions: 120000000 cycles: 400276738 heartbeat IPC: 0.181626 cumulative IPC: 0.183431 (Simulation time: 0 hr 8 min 50 sec) 
Heartbeat CPU 0 instructions: 130000000 cycles: 454067956 heartbeat IPC: 0.185904 cumulative IPC: 0.183736 (Simulation time: 0 hr 9 min 41 sec) 
Heartbeat CPU 0 instructions: 140000001 cycles: 506632493 heartbeat IPC: 0.190242 cumulative IPC: 0.184437 (Simulation time: 0 hr 10 min 34 sec) 
Heartbeat CPU 0 instructions: 150000000 cycles: 560016747 heartbeat IPC: 0.187321 cumulative IPC: 0.184722 (Simulation time: 0 hr 11 min 24 sec) 
Heartbeat CPU 0 instructions: 160000002 cycles: 614289191 heartbeat IPC: 0.184256 cumulative IPC: 0.184679 (Simulation time: 0 hr 12 min 13 sec) 
Heartbeat CPU 0 instructions: 170000001 cycles: 669313558 heartbeat IPC: 0.181738 cumulative IPC: 0.18443 (Simulation time: 0 hr 13 min 0 sec) 
Heartbeat CPU 0 instructions: 180000002 cycles: 723824151 heartbeat IPC: 0.183451 cumulative IPC: 0.184355 (Simulation time: 0 hr 13 min 52 sec) 
Heartbeat CPU 0 instructions: 190000003 cycles: 783078612 heartbeat IPC: 0.168764 cumulative IPC: 0.183146 (Simulation time: 0 hr 14 min 51 sec) 
Heartbeat CPU 0 instructions: 200000002 cycles: 842100392 heartbeat IPC: 0.169429 cumulative IPC: 0.182163 (Simulation time: 0 hr 15 min 48 sec) 
Heartbeat CPU 0 instructions: 210000001 cycles: 900318847 heartbeat IPC: 0.171767 cumulative IPC: 0.181476 (Simulation time: 0 hr 16 min 43 sec) 
Heartbeat CPU 0 instructions: 220000000 cycles: 957655664 heartbeat IPC: 0.174408 cumulative IPC: 0.181045 (Simulation time: 0 hr 17 min 37 sec) 
Heartbeat CPU 0 instructions: 230000001 cycles: 1014709878 heartbeat IPC: 0.175272 cumulative IPC: 0.180714 (Simulation time: 0 hr 18 min 31 sec) 
Heartbeat CPU 0 instructions: 240000003 cycles: 1070815286 heartbeat IPC: 0.178236 cumulative IPC: 0.180582 (Simulation time: 0 hr 19 min 24 sec) 
Heartbeat CPU 0 instructions: 250000002 cycles: 1125753368 heartbeat IPC: 0.182023 cumulative IPC: 0.180653 (Simulation time: 0 hr 20 min 16 sec) 
Finished CPU 0 instructions: 200000001 cycles: 1107092045 cumulative IPC: 0.180653 (Simulation time: 0 hr 20 min 16 sec) 

ChampSim completed all CPUs

Region of Interest Statistics

CPU 0 cumulative IPC: 0.180653 instructions: 200000001 cycles: 1107092045
ITLB TOTAL     ACCESS:   32643204  HIT:   32643204  MISS:          0  HIT %:        100  MISS %:          0   MPKI: 0
ITLB Test counter:          0
ITLB LOAD TRANSLATION ACCESS:   32643204  HIT:   32643204  MISS:          0  HIT %:        100  MISS %:          0   MPKI: 0
ITLB PREFETCH  REQUESTED:          0  ISSUED:          0  USEFUL:          0  USELESS:          0
ITLB USEFUL LOAD PREFETCHES:          0 PREFETCH ISSUED TO LOWER LEVEL:          0  ACCURACY: -nan
ITLB TIMELY PREFETCHES:          0 LATE PREFETCHES: 0 DROPPED PREFETCHES: 0
ITLB COMMIT LATE PREFETCHES: 0 MISSED OPPORTUNITY: 0 LATE IN PQ: 0 UNCOVERED: 0
ITLB COMMIT LATE MSHR PREFETCHES: 0
ITLB MPKI TOTAL: 0 MSHR LATE: 0 PQ LATE: 0 COMMIT LATE: 0 MISSED OPPORTUNITY: 0 UNCOVERED: 0
ITLB PREFETCHES SAME FILL-ORIGIN LEVEL: 0 DIFFERENT FILL-ORIGIN LEVEL: 0
ITLB AVERAGE MISS LATENCY: -nan cycles
ITLB AVERAGE MISS LATENCY LOAD: -nan cycles
ITLB AVERAGE MISS LATENCY PREFETCH: -nan cycles
ITLB AVERAGE MSHR OCCUPANCY: 0
ITLB MSHR FULL: 0
ITLB RQ	ACCESS:   33003760	FORWARD:          0	MERGED:     360556	TO_CACHE:   32643204

DTLB TOTAL     ACCESS:   41463945  HIT:   23841895  MISS:   17622050  HIT %:    57.5003  MISS %:    42.4997   MPKI: 88.1102
DTLB Test counter:          0
DTLB LOAD TRANSLATION ACCESS:   41463945  HIT:   23841895  MISS:   17622050  HIT %:    57.5003  MISS %:    42.4997   MPKI: 88.1102
DTLB PREFETCH  REQUESTED:          0  ISSUED:          0  USEFUL:          0  USELESS:          0
DTLB USEFUL LOAD PREFETCHES:          0 PREFETCH ISSUED TO LOWER LEVEL:          0  ACCURACY: -nan
DTLB TIMELY PREFETCHES:          0 LATE PREFETCHES: 0 DROPPED PREFETCHES: 0
DTLB COMMIT LATE PREFETCHES: 0 MISSED OPPORTUNITY: 0 LATE IN PQ: 0 UNCOVERED: 0
DTLB COMMIT LATE MSHR PREFETCHES: 0
DTLB MPKI TOTAL: 0 MSHR LATE: 0 PQ LATE: 0 COMMIT LATE: 0 MISSED OPPORTUNITY: 0 UNCOVERED: 0
DTLB PREFETCHES SAME FILL-ORIGIN LEVEL: 0 DIFFERENT FILL-ORIGIN LEVEL: 0
DTLB AVERAGE MISS LATENCY: 11.2256 cycles
DTLB AVERAGE MISS LATENCY LOAD: -nan cycles
DTLB AVERAGE MISS LATENCY PREFETCH: -nan cycles
DTLB AVERAGE MSHR OCCUPANCY: 0.263088
DTLB MSHR FULL: 0
DTLB RQ	ACCESS:   45642527	FORWARD:          0	MERGED:    3887075	TO_CACHE:   41755452

STLB TOTAL     ACCESS:   17622050  HIT:   17384198  MISS:     237852  HIT %:    98.6503  MISS %:    1.34974   MPKI: 1.18926
STLB Test counter:          0
STLB LOAD TRANSLATION ACCESS:   17622050  HIT:   17384198  MISS:     237852  HIT %:    98.6503  MISS %:    1.34974   MPKI: 1.18926
STLB PREFETCH  REQUESTED:          0  ISSUED:          0  USEFUL:          0  USELESS:          0
STLB USEFUL LOAD PREFETCHES:          0 PREFETCH ISSUED TO LOWER LEVEL:          0  ACCURACY: -nan
STLB TIMELY PREFETCHES:          0 LATE PREFETCHES: 0 DROPPED PREFETCHES: 0
STLB COMMIT LATE PREFETCHES: 0 MISSED OPPORTUNITY: 0 LATE IN PQ: 0 UNCOVERED: 0
STLB COMMIT LATE MSHR PREFETCHES: 0
STLB MPKI TOTAL: 0 MSHR LATE: 0 PQ LATE: 0 COMMIT LATE: 0 MISSED OPPORTUNITY: 0 UNCOVERED: 0
STLB PREFETCHES SAME FILL-ORIGIN LEVEL: 0 DIFFERENT FILL-ORIGIN LEVEL: 0
STLB AVERAGE MISS LATENCY: 143.812 cycles
STLB AVERAGE MISS LATENCY LOAD: -nan cycles
STLB AVERAGE MISS LATENCY PREFETCH: -nan cycles
STLB AVERAGE MSHR OCCUPANCY: 0.0147562
STLB MSHR FULL: 0
STLB RQ	ACCESS:   17622050	FORWARD:          0	MERGED:          0	TO_CACHE:   17622050

STLB Hit, L1D data hit: 0
STLB Hit, L2C data hit: 0
STLB Hit, LLC data hit: 0
STLB Hit, LLC data miss: 0
STLB STLB hints to L2: 0
L1D TOTAL     ACCESS:   44982195  HIT:   14032504  MISS:   30949691  HIT %:    31.1957  MISS %:    68.8043   MPKI: 154.748
L1D Test counter:          0
L1D LOAD      ACCESS:   41686638  HIT:   10797469  MISS:   31390179  HIT %:    25.9015  MISS %:    74.0985   MPKI: 154.446
L1D RFO       ACCESS:    3295557  HIT:    3235035  MISS:      60522  HIT %:    98.1635  MISS %:    1.83647   MPKI: 0.30261
L1D PREFETCH  REQUESTED:          0  ISSUED:          0  USEFUL:          0  USELESS:          0
L1D USEFUL LOAD PREFETCHES:          0 PREFETCH ISSUED TO LOWER LEVEL:          0  ACCURACY: -nan
L1D TIMELY PREFETCHES:          0 LATE PREFETCHES: 0 DROPPED PREFETCHES: 0
L1D COMMIT LATE PREFETCHES: 0 MISSED OPPORTUNITY: 0 LATE IN PQ: 0 UNCOVERED: 0
L1D COMMIT LATE MSHR PREFETCHES: 0
L1D MPKI TOTAL: 156.951 MSHR LATE: 0 PQ LATE: 0 COMMIT LATE: 0 MISSED OPPORTUNITY: 0 UNCOVERED: 0
L1D PREFETCHES SAME FILL-ORIGIN LEVEL: 0 DIFFERENT FILL-ORIGIN LEVEL: 0
L1D AVERAGE MISS LATENCY: 71.3099 cycles
L1D AVERAGE MISS LATENCY LOAD: 71.3104 cycles
L1D AVERAGE MISS LATENCY PREFETCH: -nan cycles
L1D AVERAGE MSHR OCCUPANCY: 2.02008
L1D MSHR FULL: 0
L1D RQ	ACCESS:   71274707	FORWARD:          0	MERGED:   28535750	TO_CACHE:   42187650
L1D WQ	ACCESS:    3578449	FORWARD:     551307	MERGED:     123572	TO_CACHE:    3454877

L1D UNIQUE REGIONS ACCESSED: 0
L1D REGIONS CONFLICTS: 0
L1D Cross Page Prefetch Requests: 0
L1D Same Page Prefetch Requests: 0
L1D ROI Sum of L1D PQ occupancy: 0
L1D PREFETCHES PUSHED FROM L2C: 0
404648: 1
404076: 1
404a65: 1
407bb5: 2
4048cd: 5
403d20: 5
403d86: 8
403db8: 9
403d28: 12
403d76: 15
403e42: 15
4048e9: 15
403d17: 18
4044b7: 22
404684: 22
403d7d: 22
4046c8: 23
403d44: 24
403cf4: 25
403d6c: 25
403d4d: 37
4048a0: 61
403d13: 93
403d8d: 95
40459f: 150
4045e1: 194
403ca9: 205
403ce0: 211
403ed7: 216
403ea0: 223
403f18: 252
403e60: 395
403e64: 402
4048a6: 443
403e54: 455
403e50: 456
4045db: 612
404caa: 635
404990: 733
40499c: 733
404b90: 883
404cae: 1018
4044bf: 1750
404ce3: 1750
40465d: 1750
4045bd: 1750
4044fc: 1750
404cec: 1750
403f02: 2101
4048b1: 2267
4048aa: 2718
404a08: 3680
404a4b: 3857
403eb0: 4176
404820: 4316
403ef3: 4403
404a14: 4652
403ee8: 6537
404841: 6540
404844: 7944
404823: 8564
404826: 9584
4048e0: 10106
4048b8: 11678
4048b4: 17112
4048bf: 17451
4048c3: 20280
403eb4: 20813
403eec: 26708
403e9a: 27387
403ee2: 34028
403cc6: 38630
403ce9: 40621
403e90: 44633
403e94: 47690
40482f: 61028
4048bc: 89920
40483c: 90846
40483f: 101903
403cc0: 154290
4049d6: 1239437
4049de: 9197818
4049e5: 9572815
4049cc: 9933364
L1I TOTAL     ACCESS:   33003759  HIT:   33003759  MISS:          0  HIT %:        100  MISS %:          0   MPKI: 0
L1I Test counter:          0
L1I LOAD      ACCESS:   33003759  HIT:   33003759  MISS:          0  HIT %:        100  MISS %:          0   MPKI: 0
L1I PREFETCH  REQUESTED:          0  ISSUED:          0  USEFUL:          0  USELESS:          0
L1I USEFUL LOAD PREFETCHES:          0 PREFETCH ISSUED TO LOWER LEVEL:          0  ACCURACY: -nan
L1I TIMELY PREFETCHES:          0 LATE PREFETCHES: 0 DROPPED PREFETCHES: 0
L1I COMMIT LATE PREFETCHES: 0 MISSED OPPORTUNITY: 0 LATE IN PQ: 0 UNCOVERED: 0
L1I COMMIT LATE MSHR PREFETCHES: 0
L1I MPKI TOTAL: 0 MSHR LATE: 0 PQ LATE: 0 COMMIT LATE: 0 MISSED OPPORTUNITY: 0 UNCOVERED: 0
L1I PREFETCHES SAME FILL-ORIGIN LEVEL: 0 DIFFERENT FILL-ORIGIN LEVEL: 0
L1I AVERAGE MISS LATENCY: -nan cycles
L1I AVERAGE MISS LATENCY LOAD: -nan cycles
L1I AVERAGE MISS LATENCY PREFETCH: -nan cycles
L1I AVERAGE MSHR OCCUPANCY: 0
L1I MSHR FULL: 0
L1I RQ	ACCESS:   43442779	FORWARD:          0	MERGED:   10439019	TO_CACHE:   33003760

BTB TOTAL     ACCESS:   60210751  HIT:   60015906  MISS:     194845  HIT %:    99.6764  MISS %:   0.323605   MPKI: 0.974225
BTB Test counter:          0
BTB BRANCH_DIRECT_JUMP	ACCESS:    7722187  HIT:    7722150  MISS:         37
BTB BRANCH_INDIRECT	ACCESS:          0  HIT:          0  MISS:          0
BTB BRANCH_CONDITIONAL	ACCESS:   51083206  HIT:   51083124  MISS:         82
BTB BRANCH_DIRECT_CALL	ACCESS:     648846  HIT:     648828  MISS:         18
BTB BRANCH_INDIRECT_CALL	ACCESS:      53834  HIT:      53826  MISS:          8
BTB BRANCH_RETURN	ACCESS:     702678  HIT:     507978  MISS:     194700
BTB BRANCH_OTHER ACCESS:          0  HIT:          0  MISS:          0

L2C TOTAL     ACCESS:   59539449  HIT:   18105667  MISS:   41433782  HIT %:    30.4095  MISS %:    69.5905   MPKI: 207.169
L2C Test counter:          0
L2C LOAD      ACCESS:   30889154  HIT:   13888488  MISS:   17000665  HIT %:    44.9623  MISS %:    55.0377   MPKI: 85.0033
L2C DATA LOAD MPKI: 85.0033
L2C INSTRUCTION LOAD MPKI: 0
L2C RFO       ACCESS:      60522  HIT:       3251  MISS:      57271  HIT %:     5.3716  MISS %:    94.6284   MPKI: 0.286355
L2C PREFETCH  ACCESS:   27845107  HIT:    3549756  MISS:   24295351  HIT %:    12.7482  MISS %:    87.2518   MPKI: 121.477
L2C DATA PREFETCH MPKI: 121.477
L2C INSTRUCTION PREFETCH MPKI: 0
L2C WRITEBACK ACCESS:     503730  HIT:     503524  MISS:        206  HIT %:    99.9591  MISS %:  0.0408949   MPKI: 0.00103
L2C LOAD TRANSLATION ACCESS:     240936  HIT:     160648  MISS:      80288  HIT %:    66.6766  MISS %:    33.3234   MPKI: 0.40144
L2C PREFETCH  REQUESTED:   29270903  ISSUED:   29270903  USEFUL:   11607784  USELESS:   12686781
L2C USEFUL LOAD PREFETCHES:   11607784 PREFETCH ISSUED TO LOWER LEVEL:   25118795  ACCURACY: 46.2115
L2C TIMELY PREFETCHES:   11607784 LATE PREFETCHES: 823444 DROPPED PREFETCHES: 0
L2C COMMIT LATE PREFETCHES: 0 MISSED OPPORTUNITY: 0 LATE IN PQ: 0 UNCOVERED: 0
L2C COMMIT LATE MSHR PREFETCHES: 0
L2C MPKI TOTAL: 85.0033 MSHR LATE: 4.11722 PQ LATE: 0 COMMIT LATE: 0 MISSED OPPORTUNITY: 0 UNCOVERED: 0
L2C PREFETCHES SAME FILL-ORIGIN LEVEL: 25118795 DIFFERENT FILL-ORIGIN LEVEL: 0
L2C AVERAGE MISS LATENCY: 124.806 cycles
L2C AVERAGE MISS LATENCY LOAD: 101.984 cycles
L2C AVERAGE MISS LATENCY PREFETCH: 140.854 cycles
L2C AVERAGE MSHR OCCUPANCY: 5.53061
L2C MSHR FULL: 0.0049636
L2C RQ	ACCESS:   31190625	FORWARD:          0	MERGED:          0	TO_CACHE:   31190611
L2C WQ	ACCESS:     503730	FORWARD:         15	MERGED:          0	TO_CACHE:     503730
L2C PQ	ACCESS:   29270903	FORWARD:          0	MERGED:          1	TO_CACHE:   29270901

L2C Instructions Evicting Data 0
L2C Translations Evicting Data 80147
L2C Data Evicting Data 41273132
L2C Instructions Evicting Instructions 0
L2C Translations Evicting Instructions 0
L2C Data Evicting Instructions 0
L2C Instructions Evicting Translations 0
L2C Translations Evicting Translations 141
L2C Data Evicting Translations 80156
L2C Dense regions hint from L2: 0
403db8: 1
40459f: 1
404a65: 1
404cec: 2
4048cd: 2
404ce3: 3
403d20: 4
403d86: 4
403e42: 5
403cf4: 6
403d17: 9
403d7d: 9
403d4d: 10
403d28: 10
403d44: 11
4046c8: 11
4044b7: 12
403d76: 12
4048a0: 13
403d6c: 13
4048a6: 14
4045e1: 21
403e64: 38
403e60: 40
403ce0: 43
403d8d: 49
403d13: 50
404caa: 53
403ca9: 55
404cae: 92
403e50: 94
403e54: 98
4045db: 108
403f18: 110
404820: 175
403ed7: 182
403ea0: 188
40465d: 214
4044bf: 238
4048b1: 284
4048aa: 469
4048e0: 492
40499c: 508
404990: 516
404b90: 546
4048b8: 550
404823: 584
4048bf: 1116
403f02: 1263
4048b4: 1430
4045bd: 1745
4044fc: 1746
404a4b: 1861
404a14: 1912
404a08: 1976
403eb0: 2501
403ef3: 3772
404841: 4127
403ee8: 5492
404844: 7100
404826: 8202
4048c3: 9580
40482f: 15558
403e9a: 15961
403eec: 17565
403eb4: 17625
403ce9: 24316
403ee2: 25425
403cc6: 30921
403e90: 35568
403e94: 36700
40483c: 48577
4048bc: 63688
40483f: 96080
403cc0: 115944
4049d6: 156398
4049cc: 1429109
4049e5: 6842084
4049de: 7969374
PSCL5 TOTAL     ACCESS:     237852  HIT:     237852  MISS:          0  HIT %:        100  MISS %:          0   MPKI: 0
PSCL5 Test counter:          0
PSCL5 LOAD TRANSLATION ACCESS:     237852  HIT:     237852  MISS:          0  HIT %:        100  MISS %:          0   MPKI: 0
PSCL5 PREFETCH  REQUESTED:          0  ISSUED:          0  USEFUL:          0  USELESS:          0
PSCL5 USEFUL LOAD PREFETCHES:          0 PREFETCH ISSUED TO LOWER LEVEL:          0  ACCURACY: -nan
PSCL5 TIMELY PREFETCHES:          0 LATE PREFETCHES: 0 DROPPED PREFETCHES: 0
PSCL5 COMMIT LATE PREFETCHES: 0 MISSED OPPORTUNITY: 0 LATE IN PQ: 0 UNCOVERED: 0
PSCL5 COMMIT LATE MSHR PREFETCHES: 0
PSCL5 MPKI TOTAL: 0 MSHR LATE: 0 PQ LATE: 0 COMMIT LATE: 0 MISSED OPPORTUNITY: 0 UNCOVERED: 0
PSCL5 PREFETCHES SAME FILL-ORIGIN LEVEL: 0 DIFFERENT FILL-ORIGIN LEVEL: 0

PSCL4 TOTAL     ACCESS:     237852  HIT:     237852  MISS:          0  HIT %:        100  MISS %:          0   MPKI: 0
PSCL4 Test counter:          0
PSCL4 LOAD TRANSLATION ACCESS:     237852  HIT:     237852  MISS:          0  HIT %:        100  MISS %:          0   MPKI: 0
PSCL4 PREFETCH  REQUESTED:          0  ISSUED:          0  USEFUL:          0  USELESS:          0
PSCL4 USEFUL LOAD PREFETCHES:          0 PREFETCH ISSUED TO LOWER LEVEL:          0  ACCURACY: -nan
PSCL4 TIMELY PREFETCHES:          0 LATE PREFETCHES: 0 DROPPED PREFETCHES: 0
PSCL4 COMMIT LATE PREFETCHES: 0 MISSED OPPORTUNITY: 0 LATE IN PQ: 0 UNCOVERED: 0
PSCL4 COMMIT LATE MSHR PREFETCHES: 0
PSCL4 MPKI TOTAL: 0 MSHR LATE: 0 PQ LATE: 0 COMMIT LATE: 0 MISSED OPPORTUNITY: 0 UNCOVERED: 0
PSCL4 PREFETCHES SAME FILL-ORIGIN LEVEL: 0 DIFFERENT FILL-ORIGIN LEVEL: 0

PSCL3 TOTAL     ACCESS:     237852  HIT:     237852  MISS:          0  HIT %:        100  MISS %:          0   MPKI: 0
PSCL3 Test counter:          0
PSCL3 LOAD TRANSLATION ACCESS:     237852  HIT:     237852  MISS:          0  HIT %:        100  MISS %:          0   MPKI: 0
PSCL3 PREFETCH  REQUESTED:          0  ISSUED:          0  USEFUL:          0  USELESS:          0
PSCL3 USEFUL LOAD PREFETCHES:          0 PREFETCH ISSUED TO LOWER LEVEL:          0  ACCURACY: -nan
PSCL3 TIMELY PREFETCHES:          0 LATE PREFETCHES: 0 DROPPED PREFETCHES: 0
PSCL3 COMMIT LATE PREFETCHES: 0 MISSED OPPORTUNITY: 0 LATE IN PQ: 0 UNCOVERED: 0
PSCL3 COMMIT LATE MSHR PREFETCHES: 0
PSCL3 MPKI TOTAL: 0 MSHR LATE: 0 PQ LATE: 0 COMMIT LATE: 0 MISSED OPPORTUNITY: 0 UNCOVERED: 0
PSCL3 PREFETCHES SAME FILL-ORIGIN LEVEL: 0 DIFFERENT FILL-ORIGIN LEVEL: 0

PSCL2 TOTAL     ACCESS:     237852  HIT:     234325  MISS:       3527  HIT %:    98.5171  MISS %:    1.48285   MPKI: 0.017635
PSCL2 Test counter:          0
PSCL2 LOAD TRANSLATION ACCESS:     237852  HIT:     234325  MISS:       3527  HIT %:    98.5171  MISS %:    1.48285   MPKI: 0.017635
PSCL2 PREFETCH  REQUESTED:          0  ISSUED:          0  USEFUL:          0  USELESS:          0
PSCL2 USEFUL LOAD PREFETCHES:          0 PREFETCH ISSUED TO LOWER LEVEL:          0  ACCURACY: -nan
PSCL2 TIMELY PREFETCHES:          0 LATE PREFETCHES: 0 DROPPED PREFETCHES: 0
PSCL2 COMMIT LATE PREFETCHES: 0 MISSED OPPORTUNITY: 0 LATE IN PQ: 0 UNCOVERED: 0
PSCL2 COMMIT LATE MSHR PREFETCHES: 0
PSCL2 MPKI TOTAL: 0 MSHR LATE: 0 PQ LATE: 0 COMMIT LATE: 0 MISSED OPPORTUNITY: 0 UNCOVERED: 0
PSCL2 PREFETCHES SAME FILL-ORIGIN LEVEL: 0 DIFFERENT FILL-ORIGIN LEVEL: 0

LLC TOTAL     ACCESS:   41923647  HIT:   21960746  MISS:   19962901  HIT %:    52.3827  MISS %:    47.6173   MPKI: 99.8145
LLC Test counter:          0
LLC LOAD      ACCESS:   16177219  HIT:   10622408  MISS:    5554811  HIT %:    65.6628  MISS %:    34.3372   MPKI: 27.7741
LLC RFO       ACCESS:      57269  HIT:      47454  MISS:       9815  HIT %:    82.8616  MISS %:    17.1384   MPKI: 0.049075
LLC PREFETCH  ACCESS:   25118794  HIT:   10770921  MISS:   14347873  HIT %:    42.8799  MISS %:    57.1201   MPKI: 71.7394
LLC WRITEBACK ACCESS:     490077  HIT:     489487  MISS:        590  HIT %:    99.8796  MISS %:   0.120389   MPKI: 0.00295
LLC LOAD TRANSLATION ACCESS:      80288  HIT:      30476  MISS:      49812  HIT %:    37.9583  MISS %:    62.0417   MPKI: 0.24906
LLC PREFETCH  REQUESTED:          0  ISSUED:          0  USEFUL:     520524  USELESS:   13822455
LLC USEFUL LOAD PREFETCHES:     520524 PREFETCH ISSUED TO LOWER LEVEL:   14347873  ACCURACY: 3.62788
LLC TIMELY PREFETCHES:     520524 LATE PREFETCHES: 0 DROPPED PREFETCHES: 0
LLC COMMIT LATE PREFETCHES: 0 MISSED OPPORTUNITY: 0 LATE IN PQ: 0 UNCOVERED: 0
LLC COMMIT LATE MSHR PREFETCHES: 0
LLC MPKI TOTAL: 27.7741 MSHR LATE: 0 PQ LATE: 0 COMMIT LATE: 0 MISSED OPPORTUNITY: 0 UNCOVERED: 0
LLC PREFETCHES SAME FILL-ORIGIN LEVEL: 0 DIFFERENT FILL-ORIGIN LEVEL: 0
LLC AVERAGE MISS LATENCY: 198.898 cycles
LLC AVERAGE MISS LATENCY LOAD: 202.992 cycles
LLC AVERAGE MISS LATENCY PREFETCH: 197.371 cycles
LLC AVERAGE MSHR OCCUPANCY: 4.24194
LLC MSHR FULL: 0
LLC RQ	ACCESS:   16314780	FORWARD:          0	MERGED:          0	TO_CACHE:   16314775
LLC WQ	ACCESS:     490077	FORWARD:          6	MERGED:          0	TO_CACHE:     490077
LLC PQ	ACCESS:   25118795	FORWARD:          0	MERGED:          0	TO_CACHE:   25118794

LLC Dense regions hint to LLC: 0
4044b7: 1
404a65: 1
403ca9: 1
404820: 1
403d7d: 1
404990: 1
403d6c: 1
403d20: 1
4048a6: 2
403d76: 2
404b90: 2
403d44: 2
404cae: 2
4048a0: 3
403d28: 3
4045e1: 3
404a4b: 4
403d8d: 4
403ce0: 4
4046c8: 4
403e60: 4
404a08: 5
403e64: 6
4045db: 6
403e50: 7
403e54: 9
403d13: 11
404823: 20
403f18: 25
4048b8: 35
4048e0: 59
4048b1: 75
4045bd: 81
4044bf: 103
403ed7: 113
404a14: 113
4044fc: 116
403ea0: 121
4048aa: 125
40465d: 143
4048bf: 160
4048b4: 214
404841: 269
403f02: 293
404844: 533
404826: 551
4048c3: 877
403eb0: 965
403ef3: 1131
40482f: 1224
403ee8: 2130
4048bc: 2369
40483c: 3078
403e9a: 3960
403eec: 5189
403eb4: 5580
40483f: 6478
403ee2: 6839
403e94: 10965
403e90: 11542
403ce9: 19914
403cc6: 25888
403cc0: 74938
4049d6: 80001
4049e5: 599239
4049cc: 736005
4049de: 3953259

RAW hits: 477794
Loads Generated: 71752504
Loads sent to L1D: 71274707
Stores Generated: 3578449
Stores sent to L1D: 3578449
Major fault: 0 Minor fault: 219750
Allocated PAGES: 219750
Total Load insts: 89036030
Total Non-spec loads: 10144802
Percentage of speculative loads: 88.606
L1D response latency: 71.3104 cycles
Load retirement latency: 221.729 cycles

[Bingo] PHT Access: 17186463
[Bingo] PHT Hit PC+Addr: 1957883
[Bingo] PHT Hit PC+Offs: 15205254
[Bingo] PHT Miss: 23326
[Bingo] Prefetch PC+Addr: 0
[Bingo] Prefetch PC+Offs: 0
[Bingo] Useful PC+Addr: 0
[Bingo] Useful PC+Offs: 0
[Bingo] Useless PC+Addr: 0
[Bingo] Useless PC+Offs: 0
[Bingo] L1 Prefetch per Region: 0
[Bingo] L2 Prefetch per Region: 2.73388
[Bingo] L3 Prefetch per Region: 0
[Bingo] No Prefetch per Region: 29.2661
[Bingo] Number of Voters Mean: 15.923
[Bingo] Number of Voters SD: 7.81151
PHT read accesses: 260008640
PHT write accesses: 1529297
AT read accesses: 14715855
AT write accesses: 15231072
FT read accesses: 5272923
FT write accesses: 17186463
PS read accesses: 35862476
PS write accesses: 17163137
PHT tag read accesses: 300111059
PHT tag write accesses: 3487180
AT tag read accesses: 1222385017
AT tag write accesses: 16245146
FT tag read accesses: 1520144880
FT tag write accesses: 20929186
PS tag read accesses: 1094627419
PS tag write accesses: 52808813

DRAM Statistics
 CHANNEL 0
 RQ ROW_BUFFER_HIT:    8769818  ROW_BUFFER_MISS:   11192308
 DBUS_CONGESTED:        644
 WQ ROW_BUFFER_HIT:      41247  ROW_BUFFER_MISS:     171987  FULL:          0

 AVG_CONGESTED_CYCLE: 4
 All warmup complete: 2
Channel 0 Bank busy for read cycles: 0
Channel 0 Bank busy for write cycles: 0
Channel 0
Rank 0
0banks busy for read cycles: 372999512
0banks busy for write cycles: 93267
1banks busy for read cycles: 254592532
1banks busy for write cycles: 17263139
2banks busy for read cycles: 153232479
2banks busy for write cycles: 3196424
3banks busy for read cycles: 93658074
3banks busy for write cycles: 1210719
4banks busy for read cycles: 56548688
4banks busy for write cycles: 708636
5banks busy for read cycles: 31999939
5banks busy for write cycles: 514612
6banks busy for read cycles: 19142728
6banks busy for write cycles: 465240
7banks busy for read cycles: 25214118
7banks busy for write cycles: 562485
8banks busy for read cycles: 74755789
8banks busy for write cycles: 933665

CPU 0 Branch Prediction Accuracy: 96.9705% MPKI: 9.2675 Average ROB Occupancy at Mispredict: 55.3724
Branch types
NOT_BRANCH: 138818930 69.4095%
BRANCH_DIRECT_JUMP: 7722187 3.86109%
BRANCH_INDIRECT: 0 0%
BRANCH_CONDITIONAL: 52053297 26.0266%
BRANCH_DIRECT_CALL: 648846 0.324423%
BRANCH_INDIRECT_CALL: 53834 0.026917%
BRANCH_RETURN: 702678 0.351339%
BRANCH_OTHER: 0 0%

DRAM PAGES: 1048576
Allocated PAGES: 219750
