
*** ChampSim Multicore Out-of-Order Simulator ***

Warmup Instructions: 50000000
Simulation Instructions: 200000000
Number of CPUs: 1
LLC sets: 2048
LLC ways: 16
Secure Berti: OFF
Berti: OFF
Berti Fill: OFF
On commit prefetching: OFF
L2 LLC Bypass speculative loads: OFF
Off-chip DRAM Size: 4096 MB Channels: 1 Width: 64-bit Data Rate: 6400 MT/s
CPU 0 runs /home/sumon/secure_berti/Berti_Baseline/../../traces/spec/605.mcf_s-472B.champsimtrace.xz
.xz
BTB has LRU replacement policy
ITLB has LRU replacement policy
DTLB has LRU replacement policy
STLB has LRU replacement policy
L1I has LRU replacement policy
L1D has LRU replacement policy
Bingo PHT WAYS: 16 and PHT_SIZE: 16384
L2C has LRU replacement policy
LLC has LRU replacement policy
Heartbeat CPU 0 instructions: 10000001 cycles: 3195258 heartbeat IPC: 3.12964 cumulative IPC: 3.12964 (Simulation time: 0 hr 0 min 22 sec) 
Heartbeat CPU 0 instructions: 20000003 cycles: 6548443 heartbeat IPC: 2.98224 cumulative IPC: 3.05416 (Simulation time: 0 hr 0 min 46 sec) 
Heartbeat CPU 0 instructions: 30000002 cycles: 9979188 heartbeat IPC: 2.91482 cumulative IPC: 3.00626 (Simulation time: 0 hr 1 min 9 sec) 
Heartbeat CPU 0 instructions: 40000003 cycles: 13198894 heartbeat IPC: 3.10587 cumulative IPC: 3.03056 (Simulation time: 0 hr 1 min 31 sec) 
Heartbeat CPU 0 instructions: 50000001 cycles: 16447940 heartbeat IPC: 3.07783 cumulative IPC: 3.03989 (Simulation time: 0 hr 1 min 53 sec) 

Warmup complete CPU 0 instructions: 50000001 cycles: 16447940 (Simulation time: 0 hr 1 min 53 sec) 

Heartbeat CPU 0 instructions: 60000001 cycles: 36534478 heartbeat IPC: 0.497846 cumulative IPC: 0.497846 (Simulation time: 0 hr 2 min 30 sec) 
Heartbeat CPU 0 instructions: 70000002 cycles: 56290899 heartbeat IPC: 0.506165 cumulative IPC: 0.501971 (Simulation time: 0 hr 3 min 7 sec) 
Heartbeat CPU 0 instructions: 80000003 cycles: 79000295 heartbeat IPC: 0.440346 cumulative IPC: 0.479598 (Simulation time: 0 hr 3 min 49 sec) 
Heartbeat CPU 0 instructions: 90000000 cycles: 98396539 heartbeat IPC: 0.515564 cumulative IPC: 0.488111 (Simulation time: 0 hr 4 min 30 sec) 
Heartbeat CPU 0 instructions: 100000002 cycles: 119827270 heartbeat IPC: 0.46662 cumulative IPC: 0.483656 (Simulation time: 0 hr 5 min 15 sec) 
Heartbeat CPU 0 instructions: 110000000 cycles: 139186317 heartbeat IPC: 0.516554 cumulative IPC: 0.488845 (Simulation time: 0 hr 5 min 58 sec) 
Heartbeat CPU 0 instructions: 120000002 cycles: 160475326 heartbeat IPC: 0.469726 cumulative IPC: 0.486019 (Simulation time: 0 hr 6 min 44 sec) 
Heartbeat CPU 0 instructions: 130000002 cycles: 181413332 heartbeat IPC: 0.4776 cumulative IPC: 0.48495 (Simulation time: 0 hr 7 min 32 sec) 
Heartbeat CPU 0 instructions: 140000003 cycles: 202907428 heartbeat IPC: 0.465244 cumulative IPC: 0.482679 (Simulation time: 0 hr 8 min 19 sec) 
Heartbeat CPU 0 instructions: 150000002 cycles: 224122498 heartbeat IPC: 0.471363 cumulative IPC: 0.481523 (Simulation time: 0 hr 9 min 7 sec) 
Heartbeat CPU 0 instructions: 160000003 cycles: 245142086 heartbeat IPC: 0.475747 cumulative IPC: 0.480992 (Simulation time: 0 hr 9 min 52 sec) 
Heartbeat CPU 0 instructions: 170000001 cycles: 265289376 heartbeat IPC: 0.496345 cumulative IPC: 0.482235 (Simulation time: 0 hr 10 min 32 sec) 
Heartbeat CPU 0 instructions: 180000000 cycles: 284360390 heartbeat IPC: 0.524356 cumulative IPC: 0.485233 (Simulation time: 0 hr 11 min 10 sec) 
Heartbeat CPU 0 instructions: 190000000 cycles: 307258474 heartbeat IPC: 0.436718 cumulative IPC: 0.481413 (Simulation time: 0 hr 11 min 49 sec) 
Heartbeat CPU 0 instructions: 200000002 cycles: 327538601 heartbeat IPC: 0.493094 cumulative IPC: 0.482175 (Simulation time: 0 hr 12 min 25 sec) 
Heartbeat CPU 0 instructions: 210000003 cycles: 347856871 heartbeat IPC: 0.492168 cumulative IPC: 0.482787 (Simulation time: 0 hr 12 min 59 sec) 
Heartbeat CPU 0 instructions: 220000000 cycles: 368784285 heartbeat IPC: 0.477842 cumulative IPC: 0.482494 (Simulation time: 0 hr 13 min 38 sec) 
Heartbeat CPU 0 instructions: 230000002 cycles: 389539063 heartbeat IPC: 0.481817 cumulative IPC: 0.482456 (Simulation time: 0 hr 14 min 26 sec) 
Heartbeat CPU 0 instructions: 240000002 cycles: 410168372 heartbeat IPC: 0.484747 cumulative IPC: 0.482576 (Simulation time: 0 hr 15 min 13 sec) 
Heartbeat CPU 0 instructions: 250000000 cycles: 426700931 heartbeat IPC: 0.604867 cumulative IPC: 0.487504 (Simulation time: 0 hr 16 min 21 sec) 
Finished CPU 0 instructions: 200000000 cycles: 410252993 cumulative IPC: 0.487504 (Simulation time: 0 hr 16 min 21 sec) 

ChampSim completed all CPUs

Region of Interest Statistics

CPU 0 cumulative IPC: 0.487504 instructions: 200000000 cycles: 410252993
ITLB TOTAL     ACCESS:   34804849  HIT:   34804849  MISS:          0  HIT %:        100  MISS %:          0   MPKI: 0
ITLB Test counter:          0
ITLB LOAD TRANSLATION ACCESS:   34804849  HIT:   34804849  MISS:          0  HIT %:        100  MISS %:          0   MPKI: 0
ITLB PREFETCH  REQUESTED:          0  ISSUED:          0  USEFUL:          0  USELESS:          0
ITLB USEFUL LOAD PREFETCHES:          0 PREFETCH ISSUED TO LOWER LEVEL:          0  ACCURACY: -nan
ITLB TIMELY PREFETCHES:          0 LATE PREFETCHES: 0 DROPPED PREFETCHES: 0
ITLB COMMIT LATE PREFETCHES: 0 MISSED OPPORTUNITY: 0 LATE IN PQ: 0 UNCOVERED: 0
ITLB COMMIT LATE MSHR PREFETCHES: 0
ITLB MPKI TOTAL: 0 MSHR LATE: 0 PQ LATE: 0 COMMIT LATE: 0 MISSED OPPORTUNITY: 0 UNCOVERED: 0
ITLB PREFETCHES SAME FILL-ORIGIN LEVEL: 0 DIFFERENT FILL-ORIGIN LEVEL: 0
ITLB AVERAGE MISS LATENCY: -nan cycles
ITLB AVERAGE MISS LATENCY LOAD: -nan cycles
ITLB AVERAGE MISS LATENCY PREFETCH: -nan cycles
ITLB AVERAGE MSHR OCCUPANCY: 0
ITLB MSHR FULL: 0
ITLB RQ	ACCESS:   44486529	FORWARD:          0	MERGED:    9681680	TO_CACHE:   34804849

DTLB TOTAL     ACCESS:   53535742  HIT:   52820787  MISS:     714955  HIT %:    98.6645  MISS %:    1.33547   MPKI: 3.57477
DTLB Test counter:          0
DTLB LOAD TRANSLATION ACCESS:   53535742  HIT:   52820787  MISS:     714955  HIT %:    98.6645  MISS %:    1.33547   MPKI: 3.57477
DTLB PREFETCH  REQUESTED:          0  ISSUED:          0  USEFUL:          0  USELESS:          0
DTLB USEFUL LOAD PREFETCHES:          0 PREFETCH ISSUED TO LOWER LEVEL:          0  ACCURACY: -nan
DTLB TIMELY PREFETCHES:          0 LATE PREFETCHES: 0 DROPPED PREFETCHES: 0
DTLB COMMIT LATE PREFETCHES: 0 MISSED OPPORTUNITY: 0 LATE IN PQ: 0 UNCOVERED: 0
DTLB COMMIT LATE MSHR PREFETCHES: 0
DTLB MPKI TOTAL: 0 MSHR LATE: 0 PQ LATE: 0 COMMIT LATE: 0 MISSED OPPORTUNITY: 0 UNCOVERED: 0
DTLB PREFETCHES SAME FILL-ORIGIN LEVEL: 0 DIFFERENT FILL-ORIGIN LEVEL: 0
DTLB AVERAGE MISS LATENCY: 34.7328 cycles
DTLB AVERAGE MISS LATENCY LOAD: -nan cycles
DTLB AVERAGE MISS LATENCY PREFETCH: -nan cycles
DTLB AVERAGE MSHR OCCUPANCY: 0.0282836
DTLB MSHR FULL: 0
DTLB RQ	ACCESS:   87532490	FORWARD:          0	MERGED:   33799899	TO_CACHE:   53732591

STLB TOTAL     ACCESS:     714955  HIT:     455073  MISS:     259882  HIT %:    63.6506  MISS %:    36.3494   MPKI: 1.29941
STLB Test counter:          0
STLB LOAD TRANSLATION ACCESS:     714955  HIT:     455073  MISS:     259882  HIT %:    63.6506  MISS %:    36.3494   MPKI: 1.29941
STLB PREFETCH  REQUESTED:          0  ISSUED:          0  USEFUL:          0  USELESS:          0
STLB USEFUL LOAD PREFETCHES:          0 PREFETCH ISSUED TO LOWER LEVEL:          0  ACCURACY: -nan
STLB TIMELY PREFETCHES:          0 LATE PREFETCHES: 0 DROPPED PREFETCHES: 0
STLB COMMIT LATE PREFETCHES: 0 MISSED OPPORTUNITY: 0 LATE IN PQ: 0 UNCOVERED: 0
STLB COMMIT LATE MSHR PREFETCHES: 0
STLB MPKI TOTAL: 0 MSHR LATE: 0 PQ LATE: 0 COMMIT LATE: 0 MISSED OPPORTUNITY: 0 UNCOVERED: 0
STLB PREFETCHES SAME FILL-ORIGIN LEVEL: 0 DIFFERENT FILL-ORIGIN LEVEL: 0
STLB AVERAGE MISS LATENCY: 70.6432 cycles
STLB AVERAGE MISS LATENCY LOAD: -nan cycles
STLB AVERAGE MISS LATENCY PREFETCH: -nan cycles
STLB AVERAGE MSHR OCCUPANCY: 0.0100454
STLB MSHR FULL: 0
STLB RQ	ACCESS:     714955	FORWARD:          0	MERGED:          0	TO_CACHE:     714955

STLB Hit, L1D data hit: 0
STLB Hit, L2C data hit: 0
STLB Hit, LLC data hit: 0
STLB Hit, LLC data miss: 0
STLB STLB hints to L2: 0
L1D TOTAL     ACCESS:   85786145  HIT:   75315209  MISS:   10470936  HIT %:    87.7941  MISS %:    12.2059   MPKI: 52.3547
L1D Test counter:          0
L1D LOAD      ACCESS:   41776794  HIT:   31742910  MISS:   10339937  HIT %:    75.9822  MISS %:    24.0178   MPKI: 50.1694
L1D RFO       ACCESS:   44009351  HIT:   43572299  MISS:     437052  HIT %:    99.0069  MISS %:   0.993089   MPKI: 2.18526
L1D PREFETCH  REQUESTED:          0  ISSUED:          0  USEFUL:          0  USELESS:          0
L1D USEFUL LOAD PREFETCHES:          0 PREFETCH ISSUED TO LOWER LEVEL:          0  ACCURACY: -nan
L1D TIMELY PREFETCHES:          0 LATE PREFETCHES: 0 DROPPED PREFETCHES: 0
L1D COMMIT LATE PREFETCHES: 0 MISSED OPPORTUNITY: 0 LATE IN PQ: 0 UNCOVERED: 0
L1D COMMIT LATE MSHR PREFETCHES: 0
L1D MPKI TOTAL: 51.6997 MSHR LATE: 0 PQ LATE: 0 COMMIT LATE: 0 MISSED OPPORTUNITY: 0 UNCOVERED: 0
L1D PREFETCHES SAME FILL-ORIGIN LEVEL: 0 DIFFERENT FILL-ORIGIN LEVEL: 0
L1D AVERAGE MISS LATENCY: 54.3044 cycles
L1D AVERAGE MISS LATENCY LOAD: 48.2324 cycles
L1D AVERAGE MISS LATENCY PREFETCH: -nan cycles
L1D AVERAGE MSHR OCCUPANCY: 1.23436
L1D MSHR FULL: 0
L1D RQ	ACCESS:   66808414	FORWARD:          0	MERGED:   24673422	TO_CACHE:   42082846
L1D WQ	ACCESS:   46248418	FORWARD:      52146	MERGED:     798774	TO_CACHE:   45449644

L1D UNIQUE REGIONS ACCESSED: 0
L1D REGIONS CONFLICTS: 0
L1D Cross Page Prefetch Requests: 0
L1D Same Page Prefetch Requests: 0
L1D ROI Sum of L1D PQ occupancy: 0
L1D PREFETCHES PUSHED FROM L2C: 0
41a843: 12
402dab: 15
402d96: 15
402ffb: 69
41a9be: 108
41ac71: 120
402d40: 120
402d79: 120
41d375: 120
41d3b5: 120
402d9f: 120
402e04: 120
41d3be: 120
41d38c: 120
41a7ae: 120
41d3a0: 120
41acb6: 120
41d3c2: 120
402c8d: 121
402cad: 121
402c90: 121
402c93: 121
403162: 121
4030c1: 662
402f72: 1109
402f3c: 1248
402fbc: 1462
402f85: 1524
402fc5: 1561
402e18: 1705
40301c: 18790
403039: 20631
403012: 43487
403083: 296979
40307e: 318159
402828: 417793
402dc7: 767284
402818: 837182
402dc0: 1197191
402dcb: 1795803
402dfb: 1914487
402dc3: 2394443
L1I TOTAL     ACCESS:   44486528  HIT:   44486522  MISS:          6  HIT %:        100  MISS %: 1.34872e-05   MPKI: 3e-05
L1I Test counter:          0
L1I LOAD      ACCESS:   44486528  HIT:   44486522  MISS:          6  HIT %:        100  MISS %: 1.34872e-05   MPKI: 3e-05
L1I PREFETCH  REQUESTED:          0  ISSUED:          0  USEFUL:          0  USELESS:          0
L1I USEFUL LOAD PREFETCHES:          0 PREFETCH ISSUED TO LOWER LEVEL:          0  ACCURACY: -nan
L1I TIMELY PREFETCHES:          0 LATE PREFETCHES: 0 DROPPED PREFETCHES: 0
L1I COMMIT LATE PREFETCHES: 0 MISSED OPPORTUNITY: 0 LATE IN PQ: 0 UNCOVERED: 0
L1I COMMIT LATE MSHR PREFETCHES: 0
L1I MPKI TOTAL: 3e-05 MSHR LATE: 0 PQ LATE: 0 COMMIT LATE: 0 MISSED OPPORTUNITY: 0 UNCOVERED: 0
L1I PREFETCHES SAME FILL-ORIGIN LEVEL: 0 DIFFERENT FILL-ORIGIN LEVEL: 0
L1I AVERAGE MISS LATENCY: 164 cycles
L1I AVERAGE MISS LATENCY LOAD: 164 cycles
L1I AVERAGE MISS LATENCY PREFETCH: -nan cycles
L1I AVERAGE MSHR OCCUPANCY: 4.49574e-08
L1I MSHR FULL: 0
L1I RQ	ACCESS:   60069195	FORWARD:          0	MERGED:   15582666	TO_CACHE:   44486529

4027c4: 1
402975: 1
4027a0: 1
402801: 1
402cc3: 1
402d01: 1
BTB TOTAL     ACCESS:   25427186  HIT:   25427147  MISS:         39  HIT %:    99.9998  MISS %: 0.000153379   MPKI: 0.000195
BTB Test counter:          0
BTB BRANCH_DIRECT_JUMP	ACCESS:    2120382  HIT:    2120376  MISS:          6
BTB BRANCH_INDIRECT	ACCESS:          0  HIT:          0  MISS:          0
BTB BRANCH_CONDITIONAL	ACCESS:   23306323  HIT:   23306295  MISS:         28
BTB BRANCH_DIRECT_CALL	ACCESS:        241  HIT:        238  MISS:          3
BTB BRANCH_INDIRECT_CALL	ACCESS:          0  HIT:          0  MISS:          0
BTB BRANCH_RETURN	ACCESS:        240  HIT:        238  MISS:          2
BTB BRANCH_OTHER ACCESS:          0  HIT:          0  MISS:          0

L2C TOTAL     ACCESS:   22049475  HIT:    8826674  MISS:   13222801  HIT %:    40.0312  MISS %:    59.9688   MPKI: 66.114
L2C Test counter:          0
L2C LOAD      ACCESS:   10033849  HIT:    7551495  MISS:    2482354  HIT %:    75.2602  MISS %:    24.7398   MPKI: 12.4118
L2C DATA LOAD MPKI: 12.4117
L2C INSTRUCTION LOAD MPKI: 3e-05
L2C RFO       ACCESS:     437047  HIT:      42517  MISS:     394530  HIT %:    9.72824  MISS %:    90.2718   MPKI: 1.97265
L2C PREFETCH  ACCESS:   10371836  HIT:      67605  MISS:   10304231  HIT %:   0.651813  MISS %:    99.3482   MPKI: 51.5212
L2C DATA PREFETCH MPKI: 51.5212
L2C INSTRUCTION PREFETCH MPKI: 0
L2C WRITEBACK ACCESS:     946503  HIT:     942285  MISS:       4218  HIT %:    99.5544  MISS %:    0.44564   MPKI: 0.02109
L2C LOAD TRANSLATION ACCESS:     260240  HIT:     222772  MISS:      37468  HIT %:    85.6025  MISS %:    14.3975   MPKI: 0.18734
L2C PREFETCH  REQUESTED:   12026240  ISSUED:   12026240  USEFUL:    7468729  USELESS:    2837331
L2C USEFUL LOAD PREFETCHES:    7468729 PREFETCH ISSUED TO LOWER LEVEL:   11679360  ACCURACY: 63.9481
L2C TIMELY PREFETCHES:    7468729 LATE PREFETCHES: 1375129 DROPPED PREFETCHES: 0
L2C COMMIT LATE PREFETCHES: 0 MISSED OPPORTUNITY: 0 LATE IN PQ: 0 UNCOVERED: 0
L2C COMMIT LATE MSHR PREFETCHES: 0
L2C MPKI TOTAL: 12.4118 MSHR LATE: 6.87564 PQ LATE: 0 COMMIT LATE: 0 MISSED OPPORTUNITY: 0 UNCOVERED: 0
L2C PREFETCHES SAME FILL-ORIGIN LEVEL: 11679360 DIFFERENT FILL-ORIGIN LEVEL: 0
L2C AVERAGE MISS LATENCY: 180.688 cycles
L2C AVERAGE MISS LATENCY LOAD: 138.671 cycles
L2C AVERAGE MISS LATENCY PREFETCH: 190.093 cycles
L2C AVERAGE MSHR OCCUPANCY: 10.2875
L2C MSHR FULL: 0.0553718
L2C RQ	ACCESS:   10731179	FORWARD:          0	MERGED:          0	TO_CACHE:   10731136
L2C WQ	ACCESS:     946503	FORWARD:         48	MERGED:          0	TO_CACHE:     946503
L2C PQ	ACCESS:   12026240	FORWARD:          0	MERGED:          0	TO_CACHE:   12026235

L2C Instructions Evicting Data 6
L2C Translations Evicting Data 37425
L2C Data Evicting Data 13143702
L2C Instructions Evicting Instructions 0
L2C Translations Evicting Instructions 0
L2C Data Evicting Instructions 6
L2C Instructions Evicting Translations 0
L2C Translations Evicting Translations 43
L2C Data Evicting Translations 37401
L2C Dense regions hint from L2: 0
41a843: 1
4027c4: 1
402cc3: 1
402fbc: 1
402975: 1
402801: 1
402d01: 1
4027a0: 1
402d96: 2
402f85: 5
402dab: 11
402d79: 16
402e04: 37
41a9be: 94
41acb6: 113
402cad: 115
402e18: 119
41d3c2: 120
402d9f: 120
41ac71: 120
41d3a0: 120
41d3be: 120
41d375: 120
402d40: 120
41d3b5: 120
41a7ae: 120
41d38c: 120
403162: 121
402c93: 121
402c90: 121
402f3c: 122
4030c1: 123
402f72: 150
403039: 2594
40301c: 3406
403012: 9143
403083: 48732
402dc0: 50394
40307e: 95980
402dcb: 118183
402828: 148724
402dc7: 189052
402818: 269568
402dfb: 292057
402dc3: 1252043
PSCL5 TOTAL     ACCESS:     259882  HIT:     259882  MISS:          0  HIT %:        100  MISS %:          0   MPKI: 0
PSCL5 Test counter:          0
PSCL5 LOAD TRANSLATION ACCESS:     259882  HIT:     259882  MISS:          0  HIT %:        100  MISS %:          0   MPKI: 0
PSCL5 PREFETCH  REQUESTED:          0  ISSUED:          0  USEFUL:          0  USELESS:          0
PSCL5 USEFUL LOAD PREFETCHES:          0 PREFETCH ISSUED TO LOWER LEVEL:          0  ACCURACY: -nan
PSCL5 TIMELY PREFETCHES:          0 LATE PREFETCHES: 0 DROPPED PREFETCHES: 0
PSCL5 COMMIT LATE PREFETCHES: 0 MISSED OPPORTUNITY: 0 LATE IN PQ: 0 UNCOVERED: 0
PSCL5 COMMIT LATE MSHR PREFETCHES: 0
PSCL5 MPKI TOTAL: 0 MSHR LATE: 0 PQ LATE: 0 COMMIT LATE: 0 MISSED OPPORTUNITY: 0 UNCOVERED: 0
PSCL5 PREFETCHES SAME FILL-ORIGIN LEVEL: 0 DIFFERENT FILL-ORIGIN LEVEL: 0

PSCL4 TOTAL     ACCESS:     259882  HIT:     259882  MISS:          0  HIT %:        100  MISS %:          0   MPKI: 0
PSCL4 Test counter:          0
PSCL4 LOAD TRANSLATION ACCESS:     259882  HIT:     259882  MISS:          0  HIT %:        100  MISS %:          0   MPKI: 0
PSCL4 PREFETCH  REQUESTED:          0  ISSUED:          0  USEFUL:          0  USELESS:          0
PSCL4 USEFUL LOAD PREFETCHES:          0 PREFETCH ISSUED TO LOWER LEVEL:          0  ACCURACY: -nan
PSCL4 TIMELY PREFETCHES:          0 LATE PREFETCHES: 0 DROPPED PREFETCHES: 0
PSCL4 COMMIT LATE PREFETCHES: 0 MISSED OPPORTUNITY: 0 LATE IN PQ: 0 UNCOVERED: 0
PSCL4 COMMIT LATE MSHR PREFETCHES: 0
PSCL4 MPKI TOTAL: 0 MSHR LATE: 0 PQ LATE: 0 COMMIT LATE: 0 MISSED OPPORTUNITY: 0 UNCOVERED: 0
PSCL4 PREFETCHES SAME FILL-ORIGIN LEVEL: 0 DIFFERENT FILL-ORIGIN LEVEL: 0

PSCL3 TOTAL     ACCESS:     259050  HIT:     259039  MISS:         11  HIT %:    99.9958  MISS %: 0.00424628   MPKI: 5.5e-05
PSCL3 Test counter:          0
PSCL3 LOAD TRANSLATION ACCESS:     259050  HIT:     259039  MISS:         11  HIT %:    99.9958  MISS %: 0.00424628   MPKI: 5.5e-05
PSCL3 PREFETCH  REQUESTED:          0  ISSUED:          0  USEFUL:          0  USELESS:          0
PSCL3 USEFUL LOAD PREFETCHES:          0 PREFETCH ISSUED TO LOWER LEVEL:          0  ACCURACY: -nan
PSCL3 TIMELY PREFETCHES:          0 LATE PREFETCHES: 0 DROPPED PREFETCHES: 0
PSCL3 COMMIT LATE PREFETCHES: 0 MISSED OPPORTUNITY: 0 LATE IN PQ: 0 UNCOVERED: 0
PSCL3 COMMIT LATE MSHR PREFETCHES: 0
PSCL3 MPKI TOTAL: 0 MSHR LATE: 0 PQ LATE: 0 COMMIT LATE: 0 MISSED OPPORTUNITY: 0 UNCOVERED: 0
PSCL3 PREFETCHES SAME FILL-ORIGIN LEVEL: 0 DIFFERENT FILL-ORIGIN LEVEL: 0

PSCL2 TOTAL     ACCESS:     259882  HIT:     259399  MISS:        483  HIT %:    99.8141  MISS %:   0.185854   MPKI: 0.002415
PSCL2 Test counter:          0
PSCL2 LOAD TRANSLATION ACCESS:     259882  HIT:     259399  MISS:        483  HIT %:    99.8141  MISS %:   0.185854   MPKI: 0.002415
PSCL2 PREFETCH  REQUESTED:          0  ISSUED:          0  USEFUL:          0  USELESS:          0
PSCL2 USEFUL LOAD PREFETCHES:          0 PREFETCH ISSUED TO LOWER LEVEL:          0  ACCURACY: -nan
PSCL2 TIMELY PREFETCHES:          0 LATE PREFETCHES: 0 DROPPED PREFETCHES: 0
PSCL2 COMMIT LATE PREFETCHES: 0 MISSED OPPORTUNITY: 0 LATE IN PQ: 0 UNCOVERED: 0
PSCL2 COMMIT LATE MSHR PREFETCHES: 0
PSCL2 MPKI TOTAL: 0 MSHR LATE: 0 PQ LATE: 0 COMMIT LATE: 0 MISSED OPPORTUNITY: 0 UNCOVERED: 0
PSCL2 PREFETCHES SAME FILL-ORIGIN LEVEL: 0 DIFFERENT FILL-ORIGIN LEVEL: 0

LLC TOTAL     ACCESS:   14073076  HIT:     902756  MISS:   13170320  HIT %:    6.41477  MISS %:    93.5852   MPKI: 65.8516
LLC Test counter:          0
LLC LOAD      ACCESS:    1107325  HIT:      12196  MISS:    1095129  HIT %:    1.10139  MISS %:    98.8986   MPKI: 5.47565
LLC RFO       ACCESS:     394429  HIT:       1241  MISS:     393188  HIT %:   0.314632  MISS %:    99.6854   MPKI: 1.96594
LLC PREFETCH  ACCESS:   11679360  HIT:      37646  MISS:   11641714  HIT %:   0.322329  MISS %:    99.6777   MPKI: 58.2086
LLC WRITEBACK ACCESS:     854494  HIT:     850402  MISS:       4092  HIT %:    99.5211  MISS %:    0.47888   MPKI: 0.02046
LLC LOAD TRANSLATION ACCESS:      37468  HIT:       1271  MISS:      36197  HIT %:    3.39223  MISS %:    96.6078   MPKI: 0.180985
LLC PREFETCH  REQUESTED:          0  ISSUED:          0  USEFUL:       9905  USELESS:   11621894
LLC USEFUL LOAD PREFETCHES:       9905 PREFETCH ISSUED TO LOWER LEVEL:   11641714  ACCURACY: 0.085082
LLC TIMELY PREFETCHES:       9905 LATE PREFETCHES: 0 DROPPED PREFETCHES: 0
LLC COMMIT LATE PREFETCHES: 0 MISSED OPPORTUNITY: 0 LATE IN PQ: 0 UNCOVERED: 0
LLC COMMIT LATE MSHR PREFETCHES: 0
LLC MPKI TOTAL: 5.47565 MSHR LATE: 0 PQ LATE: 0 COMMIT LATE: 0 MISSED OPPORTUNITY: 0 UNCOVERED: 0
LLC PREFETCHES SAME FILL-ORIGIN LEVEL: 0 DIFFERENT FILL-ORIGIN LEVEL: 0
LLC AVERAGE MISS LATENCY: 158.25 cycles
LLC AVERAGE MISS LATENCY LOAD: 140.131 cycles
LLC AVERAGE MISS LATENCY PREFETCH: 159.567 cycles
LLC AVERAGE MSHR OCCUPANCY: 4.76503
LLC MSHR FULL: 0
LLC RQ	ACCESS:    1539223	FORWARD:          0	MERGED:          0	TO_CACHE:    1539222
LLC WQ	ACCESS:     854494	FORWARD:          1	MERGED:          0	TO_CACHE:     854494
LLC PQ	ACCESS:   11679360	FORWARD:          0	MERGED:          0	TO_CACHE:   11679360

LLC Dense regions hint to LLC: 0
4027a0: 1
4027c4: 1
402d01: 1
402975: 1
402801: 1
402cc3: 1
402d96: 2
402f3c: 6
402dab: 11
402c93: 11
402d79: 16
402e04: 37
403162: 51
4030c1: 55
402f72: 64
402e18: 67
41a9be: 93
41acb6: 111
41d3c2: 120
402d9f: 120
41d38c: 120
41ac71: 120
41d3be: 120
41a7ae: 120
41d3b5: 120
41d3a0: 120
41d375: 120
402d40: 120
402c90: 121
403039: 2231
40301c: 2981
403012: 7904
403083: 40311
402dc0: 42100
402828: 45243
402dcb: 54779
402818: 69685
402dc7: 80868
40307e: 88575
402dfb: 162281
402dc3: 496320

RAW hits: 2410018
Loads Generated: 69218432
Loads sent to L1D: 66808414
Stores Generated: 46248414
Stores sent to L1D: 46248418
Major fault: 0 Minor fault: 63874
Allocated PAGES: 63874
Total Load insts: 83606378
Total Non-spec loads: 10397517
Percentage of speculative loads: 87.5637
L1D response latency: 48.2324 cycles
Load retirement latency: 121.481 cycles

[Bingo] PHT Access: 527914
[Bingo] PHT Hit PC+Addr: 18029
[Bingo] PHT Hit PC+Offs: 508479
[Bingo] PHT Miss: 1406
[Bingo] Prefetch PC+Addr: 0
[Bingo] Prefetch PC+Offs: 0
[Bingo] Useful PC+Addr: 0
[Bingo] Useful PC+Offs: 0
[Bingo] Useless PC+Addr: 0
[Bingo] Useless PC+Offs: 0
[Bingo] L1 Prefetch per Region: 0
[Bingo] L2 Prefetch per Region: 24.0223
[Bingo] L3 Prefetch per Region: 0
[Bingo] No Prefetch per Region: 7.97775
[Bingo] Number of Voters Mean: 15.9638
[Bingo] Number of Voters SD: 8.35415
PHT read accesses: 8280179
PHT write accesses: 520709
AT read accesses: 9522248
AT write accesses: 10021300
FT read accesses: 1580010
FT write accesses: 527914
PS read accesses: 2371097
PS write accesses: 526508
PHT tag read accesses: 24684484
PHT tag write accesses: 538738
AT tag read accesses: 396937729
AT tag write accesses: 10042957
FT tag read accesses: 246101508
FT tag write accesses: 1581877
PS tag read accesses: 181257457
PS tag write accesses: 2897225

DRAM Statistics
 CHANNEL 0
 RQ ROW_BUFFER_HIT:   10742027  ROW_BUFFER_MISS:    2424194
 DBUS_CONGESTED:       8623
 WQ ROW_BUFFER_HIT:     227028  ROW_BUFFER_MISS:     619331  FULL:          0

 AVG_CONGESTED_CYCLE: 4
 All warmup complete: 2
Channel 0 Bank busy for read cycles: 0
Channel 0 Bank busy for write cycles: 0
Channel 0
Rank 0
0banks busy for read cycles: 192553879
0banks busy for write cycles: 47328
1banks busy for read cycles: 54564908
1banks busy for write cycles: 5878938
2banks busy for read cycles: 12576349
2banks busy for write cycles: 3035237
3banks busy for read cycles: 8073763
3banks busy for write cycles: 2274695
4banks busy for read cycles: 6738692
4banks busy for write cycles: 1949762
5banks busy for read cycles: 7592724
5banks busy for write cycles: 1760529
6banks busy for read cycles: 9936945
6banks busy for write cycles: 1846251
7banks busy for read cycles: 19710968
7banks busy for write cycles: 2803188
8banks busy for read cycles: 67051907
8banks busy for write cycles: 11856931

CPU 0 Branch Prediction Accuracy: 99.1418% MPKI: 1.10599 Average ROB Occupancy at Mispredict: 204.024
Branch types
NOT_BRANCH: 174224390 87.1122%
BRANCH_DIRECT_JUMP: 2120382 1.06019%
BRANCH_INDIRECT: 0 0%
BRANCH_CONDITIONAL: 23654424 11.8272%
BRANCH_DIRECT_CALL: 241 0.0001205%
BRANCH_INDIRECT_CALL: 0 0%
BRANCH_RETURN: 240 0.00012%
BRANCH_OTHER: 0 0%

DRAM PAGES: 1048576
Allocated PAGES: 63874
