
*** ChampSim Multicore Out-of-Order Simulator ***

Warmup Instructions: 50000000
Simulation Instructions: 200000000
Number of CPUs: 1
LLC sets: 2048
LLC ways: 16
Secure Berti: OFF
Berti: OFF
Berti Fill: OFF
On commit prefetching: OFF
L2 LLC Bypass speculative loads: OFF
Off-chip DRAM Size: 4096 MB Channels: 1 Width: 64-bit Data Rate: 6400 MT/s
CPU 0 runs /home/sumon/secure_berti/Berti_Baseline/../../traces/spec/619.lbm_s-2677B.champsimtrace.xz
.xz
BTB has LRU replacement policy
ITLB has LRU replacement policy
DTLB has LRU replacement policy
STLB has LRU replacement policy
L1I has LRU replacement policy
L1D has LRU replacement policy
Bingo PHT WAYS: 16 and PHT_SIZE: 16384
L2C has LRU replacement policy
LLC has LRU replacement policy
Heartbeat CPU 0 instructions: 10000001 cycles: 2917594 heartbeat IPC: 3.42748 cumulative IPC: 3.42748 (Simulation time: 0 hr 0 min 20 sec) 
Heartbeat CPU 0 instructions: 20000001 cycles: 5824551 heartbeat IPC: 3.44002 cumulative IPC: 3.43374 (Simulation time: 0 hr 0 min 39 sec) 
Heartbeat CPU 0 instructions: 30000000 cycles: 8739001 heartbeat IPC: 3.43118 cumulative IPC: 3.43289 (Simulation time: 0 hr 0 min 59 sec) 
Heartbeat CPU 0 instructions: 40000000 cycles: 11650605 heartbeat IPC: 3.43453 cumulative IPC: 3.4333 (Simulation time: 0 hr 1 min 18 sec) 
Heartbeat CPU 0 instructions: 50000001 cycles: 14570541 heartbeat IPC: 3.42473 cumulative IPC: 3.43158 (Simulation time: 0 hr 1 min 37 sec) 

Warmup complete CPU 0 instructions: 50000001 cycles: 14570541 (Simulation time: 0 hr 1 min 37 sec) 

Heartbeat CPU 0 instructions: 60000001 cycles: 34165050 heartbeat IPC: 0.510347 cumulative IPC: 0.510347 (Simulation time: 0 hr 2 min 23 sec) 
Heartbeat CPU 0 instructions: 70000002 cycles: 53467817 heartbeat IPC: 0.518061 cumulative IPC: 0.514175 (Simulation time: 0 hr 3 min 9 sec) 
Heartbeat CPU 0 instructions: 80000002 cycles: 72986363 heartbeat IPC: 0.512333 cumulative IPC: 0.51356 (Simulation time: 0 hr 3 min 55 sec) 
Heartbeat CPU 0 instructions: 90000000 cycles: 92809487 heartbeat IPC: 0.504461 cumulative IPC: 0.511254 (Simulation time: 0 hr 4 min 42 sec) 
Heartbeat CPU 0 instructions: 100000000 cycles: 112467358 heartbeat IPC: 0.508702 cumulative IPC: 0.510742 (Simulation time: 0 hr 5 min 29 sec) 
Heartbeat CPU 0 instructions: 110000000 cycles: 132390871 heartbeat IPC: 0.50192 cumulative IPC: 0.50925 (Simulation time: 0 hr 6 min 17 sec) 
Heartbeat CPU 0 instructions: 120000000 cycles: 151969855 heartbeat IPC: 0.510752 cumulative IPC: 0.509464 (Simulation time: 0 hr 7 min 4 sec) 
Heartbeat CPU 0 instructions: 130000001 cycles: 171506196 heartbeat IPC: 0.511867 cumulative IPC: 0.509763 (Simulation time: 0 hr 7 min 51 sec) 
Heartbeat CPU 0 instructions: 140000002 cycles: 191153350 heartbeat IPC: 0.50898 cumulative IPC: 0.509676 (Simulation time: 0 hr 8 min 36 sec) 
Heartbeat CPU 0 instructions: 150000002 cycles: 210992425 heartbeat IPC: 0.504056 cumulative IPC: 0.509108 (Simulation time: 0 hr 9 min 22 sec) 
Heartbeat CPU 0 instructions: 160000003 cycles: 230487953 heartbeat IPC: 0.512938 cumulative IPC: 0.509454 (Simulation time: 0 hr 10 min 7 sec) 
Heartbeat CPU 0 instructions: 170000000 cycles: 249857870 heartbeat IPC: 0.516264 cumulative IPC: 0.510015 (Simulation time: 0 hr 10 min 52 sec) 
Heartbeat CPU 0 instructions: 180000000 cycles: 268686564 heartbeat IPC: 0.531104 cumulative IPC: 0.511577 (Simulation time: 0 hr 11 min 36 sec) 
Heartbeat CPU 0 instructions: 190000001 cycles: 288290181 heartbeat IPC: 0.51011 cumulative IPC: 0.511472 (Simulation time: 0 hr 12 min 20 sec) 
Heartbeat CPU 0 instructions: 200000000 cycles: 307608463 heartbeat IPC: 0.517644 cumulative IPC: 0.511879 (Simulation time: 0 hr 13 min 3 sec) 
Heartbeat CPU 0 instructions: 210000000 cycles: 326959715 heartbeat IPC: 0.516762 cumulative IPC: 0.512182 (Simulation time: 0 hr 13 min 50 sec) 
Heartbeat CPU 0 instructions: 220000000 cycles: 346709353 heartbeat IPC: 0.506338 cumulative IPC: 0.511834 (Simulation time: 0 hr 14 min 41 sec) 
Heartbeat CPU 0 instructions: 230000002 cycles: 366715578 heartbeat IPC: 0.499845 cumulative IPC: 0.511153 (Simulation time: 0 hr 15 min 33 sec) 
Heartbeat CPU 0 instructions: 240000001 cycles: 387352754 heartbeat IPC: 0.484562 cumulative IPC: 0.509681 (Simulation time: 0 hr 16 min 26 sec) 
Heartbeat CPU 0 instructions: 250000003 cycles: 407659194 heartbeat IPC: 0.492455 cumulative IPC: 0.508791 (Simulation time: 0 hr 17 min 17 sec) 
Finished CPU 0 instructions: 200000002 cycles: 393088653 cumulative IPC: 0.508791 (Simulation time: 0 hr 17 min 17 sec) 

ChampSim completed all CPUs

Region of Interest Statistics

CPU 0 cumulative IPC: 0.508791 instructions: 200000002 cycles: 393088653
ITLB TOTAL     ACCESS:   26859552  HIT:   26859552  MISS:          0  HIT %:        100  MISS %:          0   MPKI: 0
ITLB Test counter:          0
ITLB LOAD TRANSLATION ACCESS:   26859552  HIT:   26859552  MISS:          0  HIT %:        100  MISS %:          0   MPKI: 0
ITLB PREFETCH  REQUESTED:          0  ISSUED:          0  USEFUL:          0  USELESS:          0
ITLB USEFUL LOAD PREFETCHES:          0 PREFETCH ISSUED TO LOWER LEVEL:          0  ACCURACY: -nan
ITLB TIMELY PREFETCHES:          0 LATE PREFETCHES: 0 DROPPED PREFETCHES: 0
ITLB COMMIT LATE PREFETCHES: 0 MISSED OPPORTUNITY: 0 LATE IN PQ: 0 UNCOVERED: 0
ITLB COMMIT LATE MSHR PREFETCHES: 0
ITLB MPKI TOTAL: 0 MSHR LATE: 0 PQ LATE: 0 COMMIT LATE: 0 MISSED OPPORTUNITY: 0 UNCOVERED: 0
ITLB PREFETCHES SAME FILL-ORIGIN LEVEL: 0 DIFFERENT FILL-ORIGIN LEVEL: 0
ITLB AVERAGE MISS LATENCY: -nan cycles
ITLB AVERAGE MISS LATENCY LOAD: -nan cycles
ITLB AVERAGE MISS LATENCY PREFETCH: -nan cycles
ITLB AVERAGE MSHR OCCUPANCY: 0
ITLB MSHR FULL: 0
ITLB RQ	ACCESS:   34690049	FORWARD:          0	MERGED:    7830497	TO_CACHE:   26859552

DTLB TOTAL     ACCESS:   38343077  HIT:   38067030  MISS:     276047  HIT %:    99.2801  MISS %:    0.71994   MPKI: 1.38023
DTLB Test counter:          0
DTLB LOAD TRANSLATION ACCESS:   38343077  HIT:   38067030  MISS:     276047  HIT %:    99.2801  MISS %:    0.71994   MPKI: 1.38023
DTLB PREFETCH  REQUESTED:          0  ISSUED:          0  USEFUL:          0  USELESS:          0
DTLB USEFUL LOAD PREFETCHES:          0 PREFETCH ISSUED TO LOWER LEVEL:          0  ACCURACY: -nan
DTLB TIMELY PREFETCHES:          0 LATE PREFETCHES: 0 DROPPED PREFETCHES: 0
DTLB COMMIT LATE PREFETCHES: 0 MISSED OPPORTUNITY: 0 LATE IN PQ: 0 UNCOVERED: 0
DTLB COMMIT LATE MSHR PREFETCHES: 0
DTLB MPKI TOTAL: 0 MSHR LATE: 0 PQ LATE: 0 COMMIT LATE: 0 MISSED OPPORTUNITY: 0 UNCOVERED: 0
DTLB PREFETCHES SAME FILL-ORIGIN LEVEL: 0 DIFFERENT FILL-ORIGIN LEVEL: 0
DTLB AVERAGE MISS LATENCY: 106.035 cycles
DTLB AVERAGE MISS LATENCY LOAD: -nan cycles
DTLB AVERAGE MISS LATENCY PREFETCH: -nan cycles
DTLB AVERAGE MSHR OCCUPANCY: 0.0760197
DTLB MSHR FULL: 0
DTLB RQ	ACCESS:   55770392	FORWARD:          0	MERGED:   17306644	TO_CACHE:   38463748

STLB TOTAL     ACCESS:     276047  HIT:     126263  MISS:     149784  HIT %:    45.7397  MISS %:    54.2603   MPKI: 0.74892
STLB Test counter:          0
STLB LOAD TRANSLATION ACCESS:     276047  HIT:     126263  MISS:     149784  HIT %:    45.7397  MISS %:    54.2603   MPKI: 0.74892
STLB PREFETCH  REQUESTED:          0  ISSUED:          0  USEFUL:          0  USELESS:          0
STLB USEFUL LOAD PREFETCHES:          0 PREFETCH ISSUED TO LOWER LEVEL:          0  ACCURACY: -nan
STLB TIMELY PREFETCHES:          0 LATE PREFETCHES: 0 DROPPED PREFETCHES: 0
STLB COMMIT LATE PREFETCHES: 0 MISSED OPPORTUNITY: 0 LATE IN PQ: 0 UNCOVERED: 0
STLB COMMIT LATE MSHR PREFETCHES: 0
STLB MPKI TOTAL: 0 MSHR LATE: 0 PQ LATE: 0 COMMIT LATE: 0 MISSED OPPORTUNITY: 0 UNCOVERED: 0
STLB PREFETCHES SAME FILL-ORIGIN LEVEL: 0 DIFFERENT FILL-ORIGIN LEVEL: 0
STLB AVERAGE MISS LATENCY: 178.173 cycles
STLB AVERAGE MISS LATENCY LOAD: -nan cycles
STLB AVERAGE MISS LATENCY PREFETCH: -nan cycles
STLB AVERAGE MSHR OCCUPANCY: 0.161284
STLB MSHR FULL: 0
STLB RQ	ACCESS:     276047	FORWARD:          0	MERGED:          0	TO_CACHE:     276047

STLB Hit, L1D data hit: 0
STLB Hit, L2C data hit: 0
STLB Hit, LLC data hit: 0
STLB Hit, LLC data miss: 0
STLB STLB hints to L2: 0
L1D TOTAL     ACCESS:   55263064  HIT:   39450025  MISS:   15813039  HIT %:    71.3859  MISS %:    28.6141   MPKI: 79.0652
L1D Test counter:          0
L1D LOAD      ACCESS:   19511071  HIT:   17115006  MISS:    2676564  HIT %:    87.7195  MISS %:    12.2805   MPKI: 11.9803
L1D RFO       ACCESS:   35751993  HIT:   22335019  MISS:   13416974  HIT %:    62.4721  MISS %:    37.5279   MPKI: 67.0849
L1D PREFETCH  REQUESTED:          0  ISSUED:          0  USEFUL:          0  USELESS:          0
L1D USEFUL LOAD PREFETCHES:          0 PREFETCH ISSUED TO LOWER LEVEL:          0  ACCURACY: -nan
L1D TIMELY PREFETCHES:          0 LATE PREFETCHES: 0 DROPPED PREFETCHES: 0
L1D COMMIT LATE PREFETCHES: 0 MISSED OPPORTUNITY: 0 LATE IN PQ: 0 UNCOVERED: 0
L1D COMMIT LATE MSHR PREFETCHES: 0
L1D MPKI TOTAL: 13.3828 MSHR LATE: 0 PQ LATE: 0 COMMIT LATE: 0 MISSED OPPORTUNITY: 0 UNCOVERED: 0
L1D PREFETCHES SAME FILL-ORIGIN LEVEL: 0 DIFFERENT FILL-ORIGIN LEVEL: 0
L1D AVERAGE MISS LATENCY: 321.598 cycles
L1D AVERAGE MISS LATENCY LOAD: 82.1758 cycles
L1D AVERAGE MISS LATENCY PREFETCH: -nan cycles
L1D AVERAGE MSHR OCCUPANCY: 15.6558
L1D MSHR FULL: 0.952964
L1D RQ	ACCESS:   49652016	FORWARD:          0	MERGED:   26266229	TO_CACHE:   19791568
L1D WQ	ACCESS:   36944937	FORWARD:    3594219	MERGED:     966113	TO_CACHE:   35978824

L1D UNIQUE REGIONS ACCESSED: 0
L1D REGIONS CONFLICTS: 0
L1D Cross Page Prefetch Requests: 0
L1D Same Page Prefetch Requests: 0
L1D ROI Sum of L1D PQ occupancy: 0
L1D PREFETCHES PUSHED FROM L2C: 0
402065: 12
40208c: 74
40206d: 90
4023cc: 94
401d43: 183678
401cdb: 183678
401d14: 183713
401e33: 295446
401e67: 295481
401e02: 295481
401cb0: 958318
L1I TOTAL     ACCESS:   34690047  HIT:   34690047  MISS:          0  HIT %:        100  MISS %:          0   MPKI: 0
L1I Test counter:          0
L1I LOAD      ACCESS:   34690047  HIT:   34690047  MISS:          0  HIT %:        100  MISS %:          0   MPKI: 0
L1I PREFETCH  REQUESTED:          0  ISSUED:          0  USEFUL:          0  USELESS:          0
L1I USEFUL LOAD PREFETCHES:          0 PREFETCH ISSUED TO LOWER LEVEL:          0  ACCURACY: -nan
L1I TIMELY PREFETCHES:          0 LATE PREFETCHES: 0 DROPPED PREFETCHES: 0
L1I COMMIT LATE PREFETCHES: 0 MISSED OPPORTUNITY: 0 LATE IN PQ: 0 UNCOVERED: 0
L1I COMMIT LATE MSHR PREFETCHES: 0
L1I MPKI TOTAL: 0 MSHR LATE: 0 PQ LATE: 0 COMMIT LATE: 0 MISSED OPPORTUNITY: 0 UNCOVERED: 0
L1I PREFETCHES SAME FILL-ORIGIN LEVEL: 0 DIFFERENT FILL-ORIGIN LEVEL: 0
L1I AVERAGE MISS LATENCY: -nan cycles
L1I AVERAGE MISS LATENCY LOAD: -nan cycles
L1I AVERAGE MISS LATENCY PREFETCH: -nan cycles
L1I AVERAGE MSHR OCCUPANCY: 0
L1I MSHR FULL: 0
L1I RQ	ACCESS:   49980877	FORWARD:          0	MERGED:   15290828	TO_CACHE:   34690049

BTB TOTAL     ACCESS:    3609719  HIT:    3609713  MISS:          6  HIT %:    99.9998  MISS %: 0.000166218   MPKI: 3e-05
BTB Test counter:          0
BTB BRANCH_DIRECT_JUMP	ACCESS:     590927  HIT:     590926  MISS:          1
BTB BRANCH_INDIRECT	ACCESS:          0  HIT:          0  MISS:          0
BTB BRANCH_CONDITIONAL	ACCESS:    3018792  HIT:    3018787  MISS:          5
BTB BRANCH_DIRECT_CALL	ACCESS:          0  HIT:          0  MISS:          0
BTB BRANCH_INDIRECT_CALL	ACCESS:          0  HIT:          0  MISS:          0
BTB BRANCH_RETURN	ACCESS:          0  HIT:          0  MISS:          0
BTB BRANCH_OTHER ACCESS:          0  HIT:          0  MISS:          0

L2C TOTAL     ACCESS:   31508925  HIT:   21815302  MISS:    9693623  HIT %:    69.2353  MISS %:    30.7647   MPKI: 48.4681
L2C Test counter:          0
L2C LOAD      ACCESS:    2396065  HIT:    2129109  MISS:     266956  HIT %:    88.8586  MISS %:    11.1414   MPKI: 1.33478
L2C DATA LOAD MPKI: 1.33478
L2C INSTRUCTION LOAD MPKI: 0
L2C RFO       ACCESS:   13416968  HIT:    6138766  MISS:    7278202  HIT %:    45.7538  MISS %:    54.2462   MPKI: 36.391
L2C PREFETCH  ACCESS:    2129123  HIT:          1  MISS:    2129122  HIT %: 4.69677e-05  MISS %:        100   MPKI: 10.6456
L2C DATA PREFETCH MPKI: 10.6456
L2C INSTRUCTION PREFETCH MPKI: 0
L2C WRITEBACK ACCESS:   13416977  HIT:   13416553  MISS:        424  HIT %:    99.9968  MISS %: 0.00316018   MPKI: 0.00212
L2C LOAD TRANSLATION ACCESS:     149792  HIT:     130873  MISS:      18919  HIT %:    87.3698  MISS %:    12.6302   MPKI: 0.094595
L2C PREFETCH  REQUESTED:    2320193  ISSUED:    2320193  USEFUL:    2129058  USELESS:         51
L2C USEFUL LOAD PREFETCHES:    2129058 PREFETCH ISSUED TO LOWER LEVEL:    2270339  ACCURACY: 93.7771
L2C TIMELY PREFETCHES:    2129058 LATE PREFETCHES: 141217 DROPPED PREFETCHES: 0
L2C COMMIT LATE PREFETCHES: 0 MISSED OPPORTUNITY: 0 LATE IN PQ: 0 UNCOVERED: 0
L2C COMMIT LATE MSHR PREFETCHES: 0
L2C MPKI TOTAL: 1.33478 MSHR LATE: 0.706085 PQ LATE: 0 COMMIT LATE: 0 MISSED OPPORTUNITY: 0 UNCOVERED: 0
L2C PREFETCHES SAME FILL-ORIGIN LEVEL: 2270339 DIFFERENT FILL-ORIGIN LEVEL: 0
L2C AVERAGE MISS LATENCY: 650.658 cycles
L2C AVERAGE MISS LATENCY LOAD: 602.364 cycles
L2C AVERAGE MISS LATENCY PREFETCH: 688.043 cycles
L2C AVERAGE MSHR OCCUPANCY: 18.0603
L2C MSHR FULL: 0.25237
L2C RQ	ACCESS:   15962838	FORWARD:          0	MERGED:          0	TO_CACHE:   15962833
L2C WQ	ACCESS:   13416977	FORWARD:          5	MERGED:          0	TO_CACHE:   13416977
L2C PQ	ACCESS:    2320193	FORWARD:          0	MERGED:          0	TO_CACHE:    2320193

L2C Instructions Evicting Data 0
L2C Translations Evicting Data 18834
L2C Data Evicting Data 9655450
L2C Instructions Evicting Instructions 0
L2C Translations Evicting Instructions 0
L2C Data Evicting Instructions 0
L2C Instructions Evicting Translations 0
L2C Translations Evicting Translations 85
L2C Data Evicting Translations 18830
L2C Dense regions hint from L2: 0
402065: 9
4023cc: 28
40208c: 59
40206d: 66
401cdb: 9646
401d14: 10955
401d43: 13242
401e02: 32165
401e67: 34784
401e33: 38537
401cb0: 127465
PSCL5 TOTAL     ACCESS:     149784  HIT:     149784  MISS:          0  HIT %:        100  MISS %:          0   MPKI: 0
PSCL5 Test counter:          0
PSCL5 LOAD TRANSLATION ACCESS:     149784  HIT:     149784  MISS:          0  HIT %:        100  MISS %:          0   MPKI: 0
PSCL5 PREFETCH  REQUESTED:          0  ISSUED:          0  USEFUL:          0  USELESS:          0
PSCL5 USEFUL LOAD PREFETCHES:          0 PREFETCH ISSUED TO LOWER LEVEL:          0  ACCURACY: -nan
PSCL5 TIMELY PREFETCHES:          0 LATE PREFETCHES: 0 DROPPED PREFETCHES: 0
PSCL5 COMMIT LATE PREFETCHES: 0 MISSED OPPORTUNITY: 0 LATE IN PQ: 0 UNCOVERED: 0
PSCL5 COMMIT LATE MSHR PREFETCHES: 0
PSCL5 MPKI TOTAL: 0 MSHR LATE: 0 PQ LATE: 0 COMMIT LATE: 0 MISSED OPPORTUNITY: 0 UNCOVERED: 0
PSCL5 PREFETCHES SAME FILL-ORIGIN LEVEL: 0 DIFFERENT FILL-ORIGIN LEVEL: 0

PSCL4 TOTAL     ACCESS:     149784  HIT:     149784  MISS:          0  HIT %:        100  MISS %:          0   MPKI: 0
PSCL4 Test counter:          0
PSCL4 LOAD TRANSLATION ACCESS:     149784  HIT:     149784  MISS:          0  HIT %:        100  MISS %:          0   MPKI: 0
PSCL4 PREFETCH  REQUESTED:          0  ISSUED:          0  USEFUL:          0  USELESS:          0
PSCL4 USEFUL LOAD PREFETCHES:          0 PREFETCH ISSUED TO LOWER LEVEL:          0  ACCURACY: -nan
PSCL4 TIMELY PREFETCHES:          0 LATE PREFETCHES: 0 DROPPED PREFETCHES: 0
PSCL4 COMMIT LATE PREFETCHES: 0 MISSED OPPORTUNITY: 0 LATE IN PQ: 0 UNCOVERED: 0
PSCL4 COMMIT LATE MSHR PREFETCHES: 0
PSCL4 MPKI TOTAL: 0 MSHR LATE: 0 PQ LATE: 0 COMMIT LATE: 0 MISSED OPPORTUNITY: 0 UNCOVERED: 0
PSCL4 PREFETCHES SAME FILL-ORIGIN LEVEL: 0 DIFFERENT FILL-ORIGIN LEVEL: 0

PSCL3 TOTAL     ACCESS:     149784  HIT:     149784  MISS:          0  HIT %:        100  MISS %:          0   MPKI: 0
PSCL3 Test counter:          0
PSCL3 LOAD TRANSLATION ACCESS:     149784  HIT:     149784  MISS:          0  HIT %:        100  MISS %:          0   MPKI: 0
PSCL3 PREFETCH  REQUESTED:          0  ISSUED:          0  USEFUL:          0  USELESS:          0
PSCL3 USEFUL LOAD PREFETCHES:          0 PREFETCH ISSUED TO LOWER LEVEL:          0  ACCURACY: -nan
PSCL3 TIMELY PREFETCHES:          0 LATE PREFETCHES: 0 DROPPED PREFETCHES: 0
PSCL3 COMMIT LATE PREFETCHES: 0 MISSED OPPORTUNITY: 0 LATE IN PQ: 0 UNCOVERED: 0
PSCL3 COMMIT LATE MSHR PREFETCHES: 0
PSCL3 MPKI TOTAL: 0 MSHR LATE: 0 PQ LATE: 0 COMMIT LATE: 0 MISSED OPPORTUNITY: 0 UNCOVERED: 0
PSCL3 PREFETCHES SAME FILL-ORIGIN LEVEL: 0 DIFFERENT FILL-ORIGIN LEVEL: 0

PSCL2 TOTAL     ACCESS:     149784  HIT:     149630  MISS:        154  HIT %:    99.8972  MISS %:   0.102815   MPKI: 0.00077
PSCL2 Test counter:          0
PSCL2 LOAD TRANSLATION ACCESS:     149784  HIT:     149630  MISS:        154  HIT %:    99.8972  MISS %:   0.102815   MPKI: 0.00077
PSCL2 PREFETCH  REQUESTED:          0  ISSUED:          0  USEFUL:          0  USELESS:          0
PSCL2 USEFUL LOAD PREFETCHES:          0 PREFETCH ISSUED TO LOWER LEVEL:          0  ACCURACY: -nan
PSCL2 TIMELY PREFETCHES:          0 LATE PREFETCHES: 0 DROPPED PREFETCHES: 0
PSCL2 COMMIT LATE PREFETCHES: 0 MISSED OPPORTUNITY: 0 LATE IN PQ: 0 UNCOVERED: 0
PSCL2 COMMIT LATE MSHR PREFETCHES: 0
PSCL2 MPKI TOTAL: 0 MSHR LATE: 0 PQ LATE: 0 COMMIT LATE: 0 MISSED OPPORTUNITY: 0 UNCOVERED: 0
PSCL2 PREFETCHES SAME FILL-ORIGIN LEVEL: 0 DIFFERENT FILL-ORIGIN LEVEL: 0

LLC TOTAL     ACCESS:   16971134  HIT:    7368473  MISS:    9602661  HIT %:    43.4177  MISS %:    56.5823   MPKI: 48.0133
LLC Test counter:          0
LLC LOAD      ACCESS:     125739  HIT:         35  MISS:     125704  HIT %:  0.0278354  MISS %:    99.9722   MPKI: 0.62852
LLC RFO       ACCESS:    7278175  HIT:      90799  MISS:    7187376  HIT %:    1.24755  MISS %:    98.7524   MPKI: 35.9369
LLC PREFETCH  ACCESS:    2270339  HIT:         30  MISS:    2270309  HIT %: 0.00132139  MISS %:    99.9987   MPKI: 11.3515
LLC WRITEBACK ACCESS:    7277962  HIT:    7277609  MISS:        353  HIT %:    99.9951  MISS %: 0.00485026   MPKI: 0.001765
LLC LOAD TRANSLATION ACCESS:      18919  HIT:          0  MISS:      18919  HIT %:          0  MISS %:        100   MPKI: 0.094595
LLC PREFETCH  REQUESTED:          0  ISSUED:          0  USEFUL:         12  USELESS:    2271667
LLC USEFUL LOAD PREFETCHES:         12 PREFETCH ISSUED TO LOWER LEVEL:    2270309  ACCURACY: 0.000528562
LLC TIMELY PREFETCHES:         12 LATE PREFETCHES: 0 DROPPED PREFETCHES: 0
LLC COMMIT LATE PREFETCHES: 0 MISSED OPPORTUNITY: 0 LATE IN PQ: 0 UNCOVERED: 0
LLC COMMIT LATE MSHR PREFETCHES: 0
LLC MPKI TOTAL: 0.62852 MSHR LATE: 0 PQ LATE: 0 COMMIT LATE: 0 MISSED OPPORTUNITY: 0 UNCOVERED: 0
LLC PREFETCHES SAME FILL-ORIGIN LEVEL: 0 DIFFERENT FILL-ORIGIN LEVEL: 0
LLC AVERAGE MISS LATENCY: 631.739 cycles
LLC AVERAGE MISS LATENCY LOAD: 655.404 cycles
LLC AVERAGE MISS LATENCY PREFETCH: 673.321 cycles
LLC AVERAGE MSHR OCCUPANCY: 12.853
LLC MSHR FULL: 0
LLC RQ	ACCESS:    7422868	FORWARD:          0	MERGED:          0	TO_CACHE:    7422841
LLC WQ	ACCESS:    7277962	FORWARD:         27	MERGED:          0	TO_CACHE:    7277962
LLC PQ	ACCESS:    2270339	FORWARD:          0	MERGED:          0	TO_CACHE:    2270339

LLC Dense regions hint to LLC: 0
402065: 7
4023cc: 9
40208c: 44
40206d: 49
401d14: 4865
401cdb: 5404
401d43: 5727
401e33: 7357
401e67: 8598
401e02: 9686
401cb0: 83958

RAW hits: 2579457
Loads Generated: 52231474
Loads sent to L1D: 49652016
Stores Generated: 36944938
Stores sent to L1D: 36944937
Major fault: 0 Minor fault: 96650
Allocated PAGES: 96650
Total Load insts: 61184809
Total Non-spec loads: 3225023
Percentage of speculative loads: 94.729
L1D response latency: 82.1758 cycles
Load retirement latency: 553.259 cycles

[Bingo] PHT Access: 74964
[Bingo] PHT Hit PC+Addr: 402
[Bingo] PHT Hit PC+Offs: 74532
[Bingo] PHT Miss: 30
[Bingo] Prefetch PC+Addr: 0
[Bingo] Prefetch PC+Offs: 0
[Bingo] Useful PC+Addr: 0
[Bingo] Useful PC+Offs: 0
[Bingo] Useless PC+Addr: 0
[Bingo] Useless PC+Offs: 0
[Bingo] L1 Prefetch per Region: 0
[Bingo] L2 Prefetch per Region: 31.9632
[Bingo] L3 Prefetch per Region: 0
[Bingo] No Prefetch per Region: 0.0368324
[Bingo] Number of Voters Mean: 15.9721
[Bingo] Number of Voters SD: 7.92386
PHT read accesses: 1193462
PHT write accesses: 74956
AT read accesses: 2395022
AT write accesses: 2396044
FT read accesses: 224850
FT write accesses: 74964
PS read accesses: 427398
PS write accesses: 74934
PHT tag read accesses: 3586685
PHT tag write accesses: 75358
AT tag read accesses: 196188671
AT tag write accesses: 2469965
FT tag read accesses: 159970239
FT tag write accesses: 224871
PS tag read accesses: 40809864
PS tag write accesses: 502332

DRAM Statistics
 CHANNEL 0
 RQ ROW_BUFFER_HIT:    1370990  ROW_BUFFER_MISS:    8231318
 DBUS_CONGESTED:          0
 WQ ROW_BUFFER_HIT:    1627496  ROW_BUFFER_MISS:    5557939  FULL:          0

 AVG_CONGESTED_CYCLE: -
 All warmup complete: 2
Channel 0 Bank busy for read cycles: 0
Channel 0 Bank busy for write cycles: 0
Channel 0
Rank 0
0banks busy for read cycles: 64317
0banks busy for write cycles: 0
1banks busy for read cycles: 3770439
1banks busy for write cycles: 709590
2banks busy for read cycles: 6851688
2banks busy for write cycles: 709583
3banks busy for read cycles: 13301148
3banks busy for write cycles: 709570
4banks busy for read cycles: 16236681
4banks busy for write cycles: 709561
5banks busy for read cycles: 38261766
5banks busy for write cycles: 709551
6banks busy for read cycles: 43638919
6banks busy for write cycles: 710083
7banks busy for read cycles: 47298774
7banks busy for write cycles: 7905289
8banks busy for read cycles: 73369894
8banks busy for write cycles: 138131801

CPU 0 Branch Prediction Accuracy: 97.0951% MPKI: 0.52429 Average ROB Occupancy at Mispredict: 182.681
Branch types
NOT_BRANCH: 196389972 98.195%
BRANCH_DIRECT_JUMP: 590927 0.295463%
BRANCH_INDIRECT: 0 0%
BRANCH_CONDITIONAL: 3018804 1.5094%
BRANCH_DIRECT_CALL: 0 0%
BRANCH_INDIRECT_CALL: 0 0%
BRANCH_RETURN: 0 0%
BRANCH_OTHER: 0 0%

DRAM PAGES: 1048576
Allocated PAGES: 96650
