
*** ChampSim Multicore Out-of-Order Simulator ***

Warmup Instructions: 50000000
Simulation Instructions: 200000000
Number of CPUs: 1
LLC sets: 2048
LLC ways: 16
Secure Berti: OFF
Berti: OFF
Berti Fill: OFF
On commit prefetching: OFF
L2 LLC Bypass speculative loads: OFF
Off-chip DRAM Size: 4096 MB Channels: 1 Width: 64-bit Data Rate: 6400 MT/s
CPU 0 runs /home/sumon/secure_berti/Berti_Baseline/../../traces/spec/620.omnetpp_s-141B.champsimtrace.xz
.xz
BTB has LRU replacement policy
ITLB has LRU replacement policy
DTLB has LRU replacement policy
STLB has LRU replacement policy
L1I has LRU replacement policy
L1D has LRU replacement policy
Bingo PHT WAYS: 16 and PHT_SIZE: 16384
L2C has LRU replacement policy
LLC has LRU replacement policy
Heartbeat CPU 0 instructions: 10000001 cycles: 3912781 heartbeat IPC: 2.55573 cumulative IPC: 2.55573 (Simulation time: 0 hr 0 min 36 sec) 
Heartbeat CPU 0 instructions: 20000003 cycles: 7839076 heartbeat IPC: 2.54693 cumulative IPC: 2.55132 (Simulation time: 0 hr 1 min 0 sec) 
Heartbeat CPU 0 instructions: 30000000 cycles: 11769774 heartbeat IPC: 2.54408 cumulative IPC: 2.5489 (Simulation time: 0 hr 1 min 24 sec) 
Heartbeat CPU 0 instructions: 40000001 cycles: 15689864 heartbeat IPC: 2.55096 cumulative IPC: 2.54942 (Simulation time: 0 hr 1 min 48 sec) 
Heartbeat CPU 0 instructions: 50000003 cycles: 19622887 heartbeat IPC: 2.54257 cumulative IPC: 2.54805 (Simulation time: 0 hr 2 min 12 sec) 

Warmup complete CPU 0 instructions: 50000003 cycles: 19622887 (Simulation time: 0 hr 2 min 12 sec) 

Heartbeat CPU 0 instructions: 60000001 cycles: 63053767 heartbeat IPC: 0.230251 cumulative IPC: 0.230251 (Simulation time: 0 hr 2 min 48 sec) 
Heartbeat CPU 0 instructions: 70000000 cycles: 106613911 heartbeat IPC: 0.229568 cumulative IPC: 0.229909 (Simulation time: 0 hr 3 min 25 sec) 
Heartbeat CPU 0 instructions: 80000003 cycles: 149900307 heartbeat IPC: 0.23102 cumulative IPC: 0.230278 (Simulation time: 0 hr 4 min 4 sec) 
Heartbeat CPU 0 instructions: 90000003 cycles: 193265634 heartbeat IPC: 0.230599 cumulative IPC: 0.230358 (Simulation time: 0 hr 4 min 42 sec) 
Heartbeat CPU 0 instructions: 100000000 cycles: 236206180 heartbeat IPC: 0.23288 cumulative IPC: 0.230858 (Simulation time: 0 hr 5 min 19 sec) 
Heartbeat CPU 0 instructions: 110000000 cycles: 279416785 heartbeat IPC: 0.231425 cumulative IPC: 0.230952 (Simulation time: 0 hr 5 min 56 sec) 
Heartbeat CPU 0 instructions: 120000000 cycles: 322531300 heartbeat IPC: 0.23194 cumulative IPC: 0.231093 (Simulation time: 0 hr 6 min 33 sec) 
Heartbeat CPU 0 instructions: 130000000 cycles: 365985702 heartbeat IPC: 0.230126 cumulative IPC: 0.230972 (Simulation time: 0 hr 7 min 10 sec) 
Heartbeat CPU 0 instructions: 140000000 cycles: 409280893 heartbeat IPC: 0.230973 cumulative IPC: 0.230972 (Simulation time: 0 hr 7 min 46 sec) 
Heartbeat CPU 0 instructions: 150000003 cycles: 452972387 heartbeat IPC: 0.228878 cumulative IPC: 0.230761 (Simulation time: 0 hr 8 min 23 sec) 
Heartbeat CPU 0 instructions: 160000001 cycles: 496202186 heartbeat IPC: 0.231322 cumulative IPC: 0.230812 (Simulation time: 0 hr 8 min 58 sec) 
Heartbeat CPU 0 instructions: 170000001 cycles: 539315930 heartbeat IPC: 0.231945 cumulative IPC: 0.230906 (Simulation time: 0 hr 9 min 33 sec) 
Heartbeat CPU 0 instructions: 180000000 cycles: 582476974 heartbeat IPC: 0.23169 cumulative IPC: 0.230966 (Simulation time: 0 hr 10 min 12 sec) 
Heartbeat CPU 0 instructions: 190000000 cycles: 625528276 heartbeat IPC: 0.232281 cumulative IPC: 0.231059 (Simulation time: 0 hr 10 min 51 sec) 
Heartbeat CPU 0 instructions: 200000000 cycles: 669515126 heartbeat IPC: 0.227341 cumulative IPC: 0.230807 (Simulation time: 0 hr 11 min 27 sec) 
Heartbeat CPU 0 instructions: 210000000 cycles: 713031803 heartbeat IPC: 0.229797 cumulative IPC: 0.230744 (Simulation time: 0 hr 12 min 2 sec) 
Heartbeat CPU 0 instructions: 220000000 cycles: 756767933 heartbeat IPC: 0.228644 cumulative IPC: 0.230619 (Simulation time: 0 hr 12 min 35 sec) 
Heartbeat CPU 0 instructions: 230000001 cycles: 800211881 heartbeat IPC: 0.230182 cumulative IPC: 0.230595 (Simulation time: 0 hr 13 min 9 sec) 
Heartbeat CPU 0 instructions: 240000001 cycles: 843838684 heartbeat IPC: 0.229217 cumulative IPC: 0.230522 (Simulation time: 0 hr 13 min 50 sec) 
Heartbeat CPU 0 instructions: 250000000 cycles: 886559267 heartbeat IPC: 0.234079 cumulative IPC: 0.230697 (Simulation time: 0 hr 14 min 49 sec) 
Finished CPU 0 instructions: 200000001 cycles: 866936381 cumulative IPC: 0.230697 (Simulation time: 0 hr 14 min 49 sec) 

ChampSim completed all CPUs

Region of Interest Statistics

CPU 0 cumulative IPC: 0.230697 instructions: 200000001 cycles: 866936381
ITLB TOTAL     ACCESS:   33296985  HIT:   33006847  MISS:     290138  HIT %:    99.1286  MISS %:   0.871364   MPKI: 1.45069
ITLB Test counter:          0
ITLB LOAD TRANSLATION ACCESS:   33296985  HIT:   33006847  MISS:     290138  HIT %:    99.1286  MISS %:   0.871364   MPKI: 1.45069
ITLB PREFETCH  REQUESTED:          0  ISSUED:          0  USEFUL:          0  USELESS:          0
ITLB USEFUL LOAD PREFETCHES:          0 PREFETCH ISSUED TO LOWER LEVEL:          0  ACCURACY: -nan
ITLB TIMELY PREFETCHES:          0 LATE PREFETCHES: 0 DROPPED PREFETCHES: 0
ITLB COMMIT LATE PREFETCHES: 0 MISSED OPPORTUNITY: 0 LATE IN PQ: 0 UNCOVERED: 0
ITLB COMMIT LATE MSHR PREFETCHES: 0
ITLB MPKI TOTAL: 0 MSHR LATE: 0 PQ LATE: 0 COMMIT LATE: 0 MISSED OPPORTUNITY: 0 UNCOVERED: 0
ITLB PREFETCHES SAME FILL-ORIGIN LEVEL: 0 DIFFERENT FILL-ORIGIN LEVEL: 0
ITLB AVERAGE MISS LATENCY: 9.9196 cycles
ITLB AVERAGE MISS LATENCY LOAD: -nan cycles
ITLB AVERAGE MISS LATENCY PREFETCH: -nan cycles
ITLB AVERAGE MSHR OCCUPANCY: 0.00793012
ITLB MSHR FULL: 0
ITLB RQ	ACCESS:   37406655	FORWARD:          0	MERGED:    4019382	TO_CACHE:   33387273

DTLB TOTAL     ACCESS:   77243971  HIT:   73082905  MISS:    4161066  HIT %:    94.6131  MISS %:    5.38691   MPKI: 20.8053
DTLB Test counter:          0
DTLB LOAD TRANSLATION ACCESS:   77243971  HIT:   73082905  MISS:    4161066  HIT %:    94.6131  MISS %:    5.38691   MPKI: 20.8053
DTLB PREFETCH  REQUESTED:          0  ISSUED:          0  USEFUL:          0  USELESS:          0
DTLB USEFUL LOAD PREFETCHES:          0 PREFETCH ISSUED TO LOWER LEVEL:          0  ACCURACY: -nan
DTLB TIMELY PREFETCHES:          0 LATE PREFETCHES: 0 DROPPED PREFETCHES: 0
DTLB COMMIT LATE PREFETCHES: 0 MISSED OPPORTUNITY: 0 LATE IN PQ: 0 UNCOVERED: 0
DTLB COMMIT LATE MSHR PREFETCHES: 0
DTLB MPKI TOTAL: 0 MSHR LATE: 0 PQ LATE: 0 COMMIT LATE: 0 MISSED OPPORTUNITY: 0 UNCOVERED: 0
DTLB PREFETCHES SAME FILL-ORIGIN LEVEL: 0 DIFFERENT FILL-ORIGIN LEVEL: 0
DTLB AVERAGE MISS LATENCY: 34.3262 cycles
DTLB AVERAGE MISS LATENCY LOAD: -nan cycles
DTLB AVERAGE MISS LATENCY PREFETCH: -nan cycles
DTLB AVERAGE MSHR OCCUPANCY: 0.11079
DTLB MSHR FULL: 3.14689e-05
DTLB RQ	ACCESS:   87362558	FORWARD:          0	MERGED:   10018786	TO_CACHE:   77343772

STLB TOTAL     ACCESS:    4451204  HIT:    3480877  MISS:     970327  HIT %:    78.2008  MISS %:    21.7992   MPKI: 4.85163
STLB Test counter:          0
STLB LOAD TRANSLATION ACCESS:    4451204  HIT:    3480877  MISS:     970327  HIT %:    78.2008  MISS %:    21.7992   MPKI: 4.85163
STLB PREFETCH  REQUESTED:          0  ISSUED:          0  USEFUL:          0  USELESS:          0
STLB USEFUL LOAD PREFETCHES:          0 PREFETCH ISSUED TO LOWER LEVEL:          0  ACCURACY: -nan
STLB TIMELY PREFETCHES:          0 LATE PREFETCHES: 0 DROPPED PREFETCHES: 0
STLB COMMIT LATE PREFETCHES: 0 MISSED OPPORTUNITY: 0 LATE IN PQ: 0 UNCOVERED: 0
STLB COMMIT LATE MSHR PREFETCHES: 0
STLB MPKI TOTAL: 0 MSHR LATE: 0 PQ LATE: 0 COMMIT LATE: 0 MISSED OPPORTUNITY: 0 UNCOVERED: 0
STLB PREFETCHES SAME FILL-ORIGIN LEVEL: 0 DIFFERENT FILL-ORIGIN LEVEL: 0
STLB AVERAGE MISS LATENCY: 108.699 cycles
STLB AVERAGE MISS LATENCY LOAD: -nan cycles
STLB AVERAGE MISS LATENCY PREFETCH: -nan cycles
STLB AVERAGE MSHR OCCUPANCY: 0.0957858
STLB MSHR FULL: 0
STLB RQ	ACCESS:    4451204	FORWARD:          0	MERGED:          0	TO_CACHE:    4451204

STLB Hit, L1D data hit: 0
STLB Hit, L2C data hit: 0
STLB Hit, LLC data hit: 0
STLB Hit, LLC data miss: 0
STLB STLB hints to L2: 0
L1D TOTAL     ACCESS:   86388055  HIT:   82684921  MISS:    3703134  HIT %:    95.7134  MISS %:    4.28663   MPKI: 18.5157
L1D Test counter:          0
L1D LOAD      ACCESS:   50428235  HIT:   47208708  MISS:    3409638  HIT %:    93.6156  MISS %:    6.38437   MPKI: 16.0976
L1D RFO       ACCESS:   35959820  HIT:   35476213  MISS:     483607  HIT %:    98.6551  MISS %:    1.34485   MPKI: 2.41803
L1D PREFETCH  REQUESTED:          0  ISSUED:          0  USEFUL:          0  USELESS:          0
L1D USEFUL LOAD PREFETCHES:          0 PREFETCH ISSUED TO LOWER LEVEL:          0  ACCURACY: -nan
L1D TIMELY PREFETCHES:          0 LATE PREFETCHES: 0 DROPPED PREFETCHES: 0
L1D COMMIT LATE PREFETCHES: 0 MISSED OPPORTUNITY: 0 LATE IN PQ: 0 UNCOVERED: 0
L1D COMMIT LATE MSHR PREFETCHES: 0
L1D MPKI TOTAL: 17.0482 MSHR LATE: 0 PQ LATE: 0 COMMIT LATE: 0 MISSED OPPORTUNITY: 0 UNCOVERED: 0
L1D PREFETCHES SAME FILL-ORIGIN LEVEL: 0 DIFFERENT FILL-ORIGIN LEVEL: 0
L1D AVERAGE MISS LATENCY: 91.6366 cycles
L1D AVERAGE MISS LATENCY LOAD: 88.3869 cycles
L1D AVERAGE MISS LATENCY PREFETCH: -nan cycles
L1D AVERAGE MSHR OCCUPANCY: 0.214415
L1D MSHR FULL: 0
L1D RQ	ACCESS:   63590476	FORWARD:          0	MERGED:   10254840	TO_CACHE:   50618343
L1D WQ	ACCESS:   37145107	FORWARD:    2717293	MERGED:     400892	TO_CACHE:   36744215

L1D UNIQUE REGIONS ACCESSED: 0
L1D REGIONS CONFLICTS: 0
L1D Cross Page Prefetch Requests: 0
L1D Same Page Prefetch Requests: 0
L1D ROI Sum of L1D PQ occupancy: 0
L1D PREFETCHES PUSHED FROM L2C: 0
558d53: 1
558ed9: 1
558cce: 1
680e22: 1
4c7067: 1
550bba: 1
4ebf37: 1
411c77: 1
550c04: 1
4c74d9: 1
4cce4f: 1
545061: 1
544ff8: 1
4c8937: 1
498162: 1
4cce59: 1
412229: 1
550fab: 1
59068b: 1
552c80: 1
55009f: 1
5125e7: 1
590696: 1
558d88: 1
558ad6: 1
558cf0: 1
558d23: 1
558d2d: 1
511a8f: 1
511c1a: 1
554ab2: 1
550b50: 1
4c862b: 1
4cce80: 1
4ccea2: 1
4c86bf: 1
4c703e: 1
498169: 1
4ebf72: 1
498148: 1
4e0583: 1
507547: 2
549fb0: 2
558e90: 2
41d1c7: 2
553cdd: 2
549884: 2
4113bf: 2
471349: 2
546b80: 2
412417: 2
4714bb: 2
558eb4: 2
6220e6: 2
4c79fa: 2
549d41: 2
553c0c: 2
4123f4: 2
4c8516: 2
47d471: 2
4ebada: 2
501cd7: 2
558edf: 2
4117fe: 2
410751: 2
549ce3: 3
47d5ae: 3
557005: 3
49815f: 3
623fa3: 3
4e0580: 3
622124: 3
621ede: 3
412409: 3
556d4b: 3
549788: 3
550083: 3
621ee1: 3
4714b4: 3
550657: 3
4e057c: 3
553ca9: 3
553cf2: 3
549d61: 3
549efe: 4
4123e1: 4
549ef6: 4
55948c: 4
412246: 4
54492b: 4
620b25: 4
556fd9: 4
549ee8: 4
556fe3: 4
4ebaeb: 4
544d49: 4
556f94: 4
54cae0: 4
4ebae4: 4
549cdc: 5
47d3b2: 5
512590: 5
41d437: 5
4c8508: 5
411c7a: 5
620ad3: 5
549b73: 6
549774: 6
550bb3: 6
553cac: 6
558a37: 6
558e48: 6
558eae: 6
558ed3: 6
410754: 6
558c3d: 6
41077b: 6
5502e6: 6
558c2c: 6
549b06: 6
623fa2: 6
555da8: 6
4714a7: 7
556e38: 7
550cd8: 7
550280: 7
64caa6: 7
5555c3: 7
550cb3: 8
5012c3: 8
622591: 8
41241d: 8
400670: 8
545080: 9
550e48: 9
5504e0: 9
55b73b: 9
556dd4: 9
556f4d: 9
4e0578: 9
549741: 9
556e5c: 9
556dfe: 9
41d422: 10
5498b1: 10
549c8f: 10
55005b: 10
622088: 10
549afd: 10
54976a: 10
549adf: 10
544cdb: 10
5125c3: 10
4714ac: 11
550cba: 11
629270: 11
5453bb: 11
623f49: 11
550114: 11
621edd: 11
55002d: 11
550680: 12
549f7c: 12
622260: 12
41631a: 12
47d4b7: 13
55055b: 13
623f65: 13
67c88c: 13
67c788: 13
47148a: 14
639783: 14
623f34: 14
471483: 14
67c33b: 14
549c81: 14
5502ec: 14
67c67b: 14
550cbd: 14
550d03: 14
549d13: 15
410666: 15
67c76c: 15
67c885: 15
501cbe: 15
5502ef: 15
41066e: 15
550010: 15
47d5ba: 15
549cd5: 15
54971f: 15
4c2586: 16
41065f: 16
5525b8: 16
4714db: 17
4710ce: 17
47d4a3: 17
55030c: 17
54eedc: 17
623f79: 17
550f70: 17
54ff9a: 17
5012ed: 18
41ccb1: 18
5012f6: 18
439bb0: 18
5012bc: 18
41cc22: 18
51a66d: 18
43ad21: 18
55b752: 19
55023a: 19
47128d: 19
4c269a: 20
4117f3: 20
411804: 21
620ac1: 21
549fa0: 21
53f48a: 21
51a684: 21
550af9: 22
47d4ab: 22
49bf82: 23
550406: 24
550f8e: 25
550d38: 27
4712b7: 27
55842d: 28
620af7: 28
621dee: 29
620980: 30
4714df: 31
621ec1: 32
55040d: 32
55063a: 33
62096e: 33
62098c: 33
621e1e: 35
47ea73: 37
552757: 41
62207f: 42
621ffe: 43
544c9b: 44
47d477: 45
555bb1: 45
62201f: 46
622108: 47
620d89: 47
62215a: 47
622090: 47
47148e: 48
550629: 50
558426: 50
47ea6d: 53
62093b: 54
54c958: 61
47d53a: 69
5507b5: 71
4713dc: 74
55241b: 75
41d235: 79
4106b3: 85
62257c: 86
4c2595: 94
620aad: 97
620aa5: 97
620ab7: 97
55003d: 100
621fdb: 102
620b09: 103
620aff: 103
621fc8: 116
5525f5: 116
5549c3: 120
44ab20: 124
552760: 129
63f85e: 136
47d608: 146
43b8f6: 146
4c2667: 150
53e1b9: 166
41cc4c: 166
41cc4f: 172
545247: 178
545370: 179
4713b5: 185
55833c: 186
4c26a3: 186
550005: 187
41072e: 187
552173: 194
556079: 197
555f38: 203
44416b: 218
54ff23: 220
410781: 229
4ebf7c: 242
5525eb: 243
550853: 245
556275: 247
550965: 249
552252: 258
4441d5: 295
6225ab: 306
6225da: 306
622010: 321
545380: 329
5525ac: 346
4441ba: 359
5555ea: 360
55b745: 387
5507d2: 404
55b176: 405
555504: 419
550091: 428
6408a3: 481
55218c: 487
55100a: 491
4712c4: 504
55b1e5: 509
544907: 514
555bbb: 563
5125d4: 588
4713bc: 623
4ebaf4: 663
552130: 692
4713a9: 701
44512a: 711
55b1c0: 716
4ea00b: 737
55214d: 748
41cc70: 764
545190: 767
6291bb: 781
47e5da: 787
620961: 789
544914: 797
6291b5: 835
4ea0c7: 881
5583d5: 895
4ea048: 930
552270: 940
55b6fe: 951
620b35: 965
4e9fc4: 970
6291c1: 976
47d3b5: 979
54fff8: 994
55bb00: 1005
43b43b: 1007
552182: 1015
5525be: 1020
43b438: 1020
54515b: 1021
54490e: 1021
411780: 1021
5524d8: 1021
5524c9: 1021
552274: 1030
506f34: 1051
624580: 1094
63fad6: 1114
550144: 1129
4441ae: 1140
63fb0d: 1148
4441c7: 1194
621e95: 1209
550931: 1234
555f8f: 1250
4ebfa0: 1274
620a3f: 1315
400640: 1320
55bb22: 1341
443ff4: 1405
623f09: 1439
620b3f: 1450
550075: 1476
471411: 1499
549390: 1547
621435: 1659
54ff8c: 1693
4713a4: 1706
623f20: 1782
545180: 1840
63f85a: 1857
4712bc: 1930
621e83: 1949
4441eb: 1967
444186: 2150
416e91: 2174
55b7b0: 2269
400580: 2360
47d5c0: 2615
41d1f7: 2644
50754a: 2656
44427d: 2689
55bb37: 2861
411aac: 3030
549100: 3057
444197: 3095
5507ee: 3229
555f2e: 3238
555f7c: 3239
471398: 3320
555d9d: 3323
5555bc: 3347
41055f: 3546
411c3e: 3579
4ebf44: 3580
411afa: 3616
4117af: 3725
54c9b1: 3947
416eb9: 3993
444028: 4047
623f81: 4290
550b49: 4353
416e8e: 4749
555b54: 5053
550ab2: 5053
55b6eb: 5063
55039d: 5130
550397: 5177
445148: 5198
4450fb: 5249
62919a: 5306
44415f: 5319
549370: 5348
555b1a: 5450
4168b0: 6241
4712ab: 6263
4105d4: 6676
41053f: 6740
62241f: 6837
444216: 8247
47d45d: 8519
62200b: 8731
444178: 8846
47eb9a: 9307
554a73: 9445
555f5c: 9582
411c4a: 10453
411b0d: 11314
6408a0: 11460
411c5f: 11770
4168cb: 11776
4ebb70: 12173
555f6d: 12827
4ebf76: 12836
4ebf40: 12836
4168b4: 12882
4ebe6b: 13131
5507af: 13161
410737: 13176
5555a4: 13233
41054e: 13405
41d1f4: 14022
49c1ec: 14351
433dff: 15014
622407: 15014
412730: 15484
620a5d: 16000
507571: 16213
62094f: 16358
55bb1e: 17440
55bb33: 18385
621e9a: 19085
621ea4: 19093
4340f0: 19187
416e84: 19485
433def: 19678
41218b: 20165
555b34: 20165
550a73: 20283
4ea01d: 21930
55b173: 22730
620aeb: 23105
444020: 23217
47136d: 23262
471366: 26107
41191a: 27325
4712af: 27354
41195a: 28060
621e17: 30759
47d453: 34064
416eb3: 34178
544edb: 34324
416e72: 35591
416eb6: 35751
4168ba: 40273
5124e1: 41784
624599: 42847
47e5d4: 47493
416ef9: 52194
471394: 54340
41cc81: 55826
4ec000: 57517
471359: 57638
47135d: 58717
41cc78: 62032
54fe9b: 67411
4ea019: 76522
550ff8: 80321
54fefc: 80327
4e9fc1: 87271
5432c8: 88383
55bb13: 90982
47133d: 221712
471351: 263936
47134d: 322222
L1I TOTAL     ACCESS:   37367290  HIT:   37246352  MISS:     120938  HIT %:    99.6764  MISS %:   0.323647   MPKI: 0.60469
L1I Test counter:          0
L1I LOAD      ACCESS:   37367290  HIT:   37246352  MISS:     160301  HIT %:    99.6764  MISS %:   0.323647   MPKI: 0.60469
L1I PREFETCH  REQUESTED:          0  ISSUED:          0  USEFUL:          0  USELESS:          0
L1I USEFUL LOAD PREFETCHES:          0 PREFETCH ISSUED TO LOWER LEVEL:          0  ACCURACY: -nan
L1I TIMELY PREFETCHES:          0 LATE PREFETCHES: 0 DROPPED PREFETCHES: 0
L1I COMMIT LATE PREFETCHES: 0 MISSED OPPORTUNITY: 0 LATE IN PQ: 0 UNCOVERED: 0
L1I COMMIT LATE MSHR PREFETCHES: 0
L1I MPKI TOTAL: 0.801505 MSHR LATE: 0 PQ LATE: 0 COMMIT LATE: 0 MISSED OPPORTUNITY: 0 UNCOVERED: 0
L1I PREFETCHES SAME FILL-ORIGIN LEVEL: 0 DIFFERENT FILL-ORIGIN LEVEL: 0
L1I AVERAGE MISS LATENCY: 31.6067 cycles
L1I AVERAGE MISS LATENCY LOAD: 31.6067 cycles
L1I AVERAGE MISS LATENCY PREFETCH: -nan cycles
L1I AVERAGE MSHR OCCUPANCY: 0.00493629
L1I MSHR FULL: 0
L1I RQ	ACCESS:   56660021	FORWARD:          0	MERGED:   19253366	TO_CACHE:   37406655

4117c0: 1
445101: 1
4c8cd0: 1
4c862b: 1
511c10: 1
4cd041: 1
558c20: 1
550910: 1
4c7044: 1
507688: 1
4cced6: 1
550a40: 1
498140: 1
590680: 1
4c7086: 1
4c8db1: 1
55ba90: 1
558d80: 1
552753: 1
550e84: 1
4c868c: 1
67cd4f: 1
49c0e0: 1
4e0570: 1
4714ec: 1
4c7020: 1
558ca2: 1
511a84: 1
554a73: 1
680e01: 1
5906e0: 1
67cd04: 1
519a30: 1
63fad2: 1
622088: 1
4c8923: 1
449d70: 1
558a20: 1
549d41: 1
5557ef: 1
4c86c4: 1
55be85: 1
64e1c0: 1
511ce1: 1
680de2: 1
444281: 1
556dc0: 1
55b280: 1
549700: 1
498180: 1
558d02: 1
558a8b: 1
556067: 1
4c2680: 1
4cce40: 1
4c8dc1: 1
620e58: 1
558b46: 1
558b0a: 1
558ac4: 1
558d40: 1
511c80: 1
556d4b: 1
511c40: 1
511a50: 1
550043: 1
47d441: 1
4c7a42: 1
4c7a04: 1
4c79c9: 1
4c8740: 1
59071d: 1
4c8703: 1
519a81: 1
501d02: 1
555bc2: 1
552703: 1
629200: 1
545942: 1
6814e2: 1
67c748: 1
67c681: 1
501d6e: 1
501d8c: 1
4c8d53: 1
556d8f: 1
54a71e: 1
5504c0: 1
67cda3: 1
620b82: 1
54cad0: 1
54975c: 1
550690: 1
4cce80: 1
4c8d01: 1
544c40: 1
519a46: 1
558c41: 1
61d150: 1
552ad0: 1
558cc1: 1
552c90: 1
555a70: 1
4c74c0: 1
4c7697: 1
4cd010: 1
552686: 1
4c8500: 1
544cc3: 2
63fb00: 2
4ebe60: 2
553c02: 2
6220c0: 2
544e90: 2
552470: 2
5503c1: 2
55be88: 2
550c30: 2
5494b0: 2
558dc0: 2
553be0: 2
55c055: 2
6222c1: 2
55bcd0: 2
553c42: 2
47e640: 2
55bbe0: 2
410520: 2
54531d: 3
55c043: 3
51a630: 3
550120: 3
552603: 3
5508f0: 3
5511ce: 3
55ba40: 3
544c2c: 3
554ab7: 3
555e96: 3
545902: 3
55bf2d: 3
545947: 3
550849: 3
411b46: 3
550608: 4
55bc90: 4
55bebd: 4
550b40: 4
555b45: 4
443f6c: 4
556302: 4
55bed0: 4
550338: 4
5522cd: 4
55c028: 4
5592d2: 4
68062a: 4
553c80: 5
408910: 5
555e47: 5
433e41: 5
629241: 5
549370: 5
558ec2: 5
558e89: 5
558a41: 5
64caa0: 5
5505ce: 5
553cc0: 5
61d900: 6
55bec1: 6
6292d0: 6
55bc80: 6
558e48: 6
54ff84: 6
443ff4: 6
54ff6a: 6
620b35: 6
49bf82: 6
553440: 6
549490: 6
4e0580: 6
548301: 7
412442: 7
550942: 7
629282: 7
41242d: 7
559488: 7
629304: 7
41244b: 8
61ec00: 8
55bfb0: 8
411a80: 8
412400: 8
556500: 8
622260: 8
54a680: 8
55beb5: 8
550bc0: 8
5432b0: 8
544c60: 8
549bc2: 8
501cc2: 8
41cc10: 8
4c2570: 9
556f42: 9
556f19: 9
556fb0: 9
557190: 9
556fc1: 9
548570: 9
6408a0: 9
51a7f1: 9
5448f0: 9
5012c3: 9
6157d0: 9
553500: 9
557002: 9
6225c0: 9
557041: 9
5571c1: 9
556344: 9
552c80: 9
556e40: 9
556e80: 9
61d7e0: 9
548582: 9
550341: 9
67c7c7: 9
6802fd: 9
51a843: 9
68021d: 9
412241: 9
5500c0: 9
553340: 9
552bd0: 9
54ff04: 9
412200: 9
546502: 9
6806af: 9
43b442: 9
439c05: 9
556cc0: 9
54a500: 9
556ec2: 9
61d146: 9
68024f: 9
5498c3: 10
680307: 10
617100: 10
549a83: 10
67ca58: 10
549c70: 10
549c81: 10
67ce80: 10
51a680: 10
550241: 10
67c310: 10
549881: 10
680f80: 10
67c520: 10
471501: 10
550201: 10
549870: 10
622042: 10
54efe0: 10
550c80: 10
680f1c: 10
67cc4f: 10
54c8c4: 10
61ec70: 10
680f68: 10
443880: 10
67c5c0: 10
67ceeb: 10
544c81: 10
67c843: 10
617080: 10
550505: 10
67c340: 10
67c661: 10
5458c0: 10
681460: 10
447960: 10
550c4c: 10
61cef0: 10
549cc1: 10
680286: 10
549a7b: 10
550ecd: 10
54eec1: 10
443870: 10
61d0d3: 10
67cf4e: 10
5493c0: 10
41d441: 10
411482: 10
556281: 10
555f40: 10
4340c1: 10
549ec9: 10
545300: 10
61d842: 10
545882: 10
411460: 10
61d881: 10
55bc40: 10
5502c1: 10
67c544: 10
67cc81: 10
67c880: 10
550ac4: 10
67ce6f: 10
61d108: 10
545870: 10
61d081: 10
549b81: 10
61d040: 10
61cf00: 10
549ace: 10
6170c4: 10
54c8a0: 10
544ec4: 10
54cb10: 10
67c280: 10
68102b: 10
545042: 10
549b03: 10
47ea60: 10
61ec81: 10
41d410: 10
550cc3: 10
410543: 10
67ccc1: 10
549b40: 10
67cf86: 10
501cb0: 10
546960: 11
501300: 11
5453c6: 12
4340b6: 12
55bf3b: 12
5505f1: 12
55c0cc: 12
55008b: 13
5555c3: 13
54a650: 13
5463e0: 13
555fc7: 13
545341: 13
5583d5: 13
550027: 13
4123c0: 13
546b30: 13
5592a0: 13
549fc1: 13
41d150: 14
559300: 14
559340: 14
4113c4: 14
4ebb8b: 14
53e170: 14
55bb46: 14
546b50: 14
416300: 14
546b90: 14
55233a: 15
549f00: 15
64cb45: 15
67c585: 15
55bfc0: 15
680599: 15
558320: 15
558342: 15
554a84: 15
54cae0: 15
549f83: 15
549f70: 15
550eb0: 16
546ad0: 16
54ef00: 17
47eac0: 17
550f84: 17
54ab40: 17
5504bd: 17
550f03: 17
550280: 17
54aa80: 17
471481: 17
550f40: 17
550e40: 17
54eeb0: 17
55044a: 17
55bf64: 17
550542: 17
47ea80: 17
4ebb63: 18
550a80: 18
555a84: 18
501280: 18
51a641: 18
544e62: 18
62257c: 20
55010d: 20
5525c4: 20
621440: 20
55bf10: 21
544fc0: 21
550400: 22
55000d: 22
550583: 22
6223dc: 22
55bf41: 23
641120: 23
550591: 24
5465c0: 26
55baa0: 26
621ffe: 26
552282: 26
555540: 27
412110: 27
545283: 28
544b74: 29
55be45: 31
622083: 31
548440: 32
622190: 32
62228f: 32
622108: 33
62215a: 35
55bf30: 39
43b430: 47
543401: 47
55c086: 50
551090: 53
64e080: 53
620ae0: 56
4441a6: 62
49c100: 65
545080: 66
47eb80: 75
622581: 85
55bf00: 88
411ba0: 107
47d480: 107
412640: 108
55c010: 109
410641: 115
507650: 117
4c2660: 117
49bf40: 131
55bf60: 149
621f42: 158
433f40: 160
4ebf40: 163
411b01: 169
64cb03: 169
555f06: 173
64e1d0: 174
621f84: 188
49bfab: 197
55b1c0: 212
55c020: 229
4ebf82: 256
555f83: 257
5451c1: 259
55bf83: 273
55115d: 280
64e150: 293
55bac3: 302
416f03: 319
552482: 326
55bad3: 331
412180: 337
558441: 354
443f82: 356
5524a0: 361
544f9e: 371
552440: 371
54547e: 372
545190: 386
49c1c2: 424
4ea002: 436
550002: 446
4ec000: 455
623f00: 461
545180: 473
551001: 474
622407: 510
552120: 528
549100: 533
629184: 583
544b81: 595
55011a: 601
4ebb80: 609
411ac2: 613
64cac3: 613
550b86: 617
555b80: 621
55bba0: 623
544f08: 639
54510b: 641
546640: 641
546401: 644
545000: 644
55564d: 649
55067b: 650
434103: 651
5465b0: 695
5521c1: 759
444180: 761
621435: 794
629170: 809
550b25: 817
544acf: 817
64e1e0: 820
555b04: 822
55bb00: 823
4ebb04: 837
555afa: 838
554ac0: 838
4ebac0: 838
556495: 838
545481: 854
552411: 855
55548c: 856
552598: 857
55214a: 859
552182: 861
552142: 862
555400: 870
545140: 877
5555a4: 881
55b160: 893
5501c2: 916
507581: 989
445142: 995
53f5b0: 1050
558405: 1055
443f00: 1191
62241f: 1215
445148: 1224
6291c1: 1225
4441c1: 1286
621f26: 1450
49c1b0: 1476
550191: 1511
64e160: 1521
506f20: 1549
622002: 1583
548420: 1675
444004: 1698
555f27: 1740
47d430: 1865
549030: 1879
433f36: 1886
54f002: 1889
4ebf30: 1907
556027: 1919
556420: 2077
444140: 2533
550140: 2621
47e5a0: 3568
624580: 3935
47d596: 4622
410598: 4888
4c2586: 4908
400580: 4912
BTB TOTAL     ACCESS:   32873216  HIT:   30947953  MISS:    1925263  HIT %:    94.1434  MISS %:    5.85663   MPKI: 9.62631
BTB Test counter:          0
BTB BRANCH_DIRECT_JUMP	ACCESS:    2330259  HIT:    2330115  MISS:        144
BTB BRANCH_INDIRECT	ACCESS:     674228  HIT:     571149  MISS:     103079
BTB BRANCH_CONDITIONAL	ACCESS:   17721650  HIT:   17721121  MISS:        529
BTB BRANCH_DIRECT_CALL	ACCESS:    3701835  HIT:    3701543  MISS:        292
BTB BRANCH_INDIRECT_CALL	ACCESS:    2371706  HIT:    2363088  MISS:       8618
BTB BRANCH_RETURN	ACCESS:    6073538  HIT:    4260937  MISS:    1812601
BTB BRANCH_OTHER ACCESS:          0  HIT:          0  MISS:          0

L2C TOTAL     ACCESS:   10932594  HIT:    5244489  MISS:    5688105  HIT %:    47.9711  MISS %:    52.0289   MPKI: 28.4405
L2C Test counter:          0
L2C LOAD      ACCESS:    3340395  HIT:    1737010  MISS:    1603385  HIT %:    52.0001  MISS %:    47.9999   MPKI: 8.01692
L2C DATA LOAD MPKI: 7.86475
L2C INSTRUCTION LOAD MPKI: 0.152175
L2C RFO       ACCESS:     483603  HIT:     148672  MISS:     334931  HIT %:    30.7426  MISS %:    69.2574   MPKI: 1.67465
L2C PREFETCH  ACCESS:    3901924  HIT:     830612  MISS:    3071312  HIT %:    21.2872  MISS %:    78.7128   MPKI: 15.3566
L2C DATA PREFETCH MPKI: 15.3566
L2C INSTRUCTION PREFETCH MPKI: 0
L2C WRITEBACK ACCESS:    1815959  HIT:    1808736  MISS:       7223  HIT %:    99.6022  MISS %:   0.397751   MPKI: 0.036115
L2C LOAD TRANSLATION ACCESS:    1390713  HIT:     719459  MISS:     671254  HIT %:    51.7331  MISS %:    48.2669   MPKI: 3.35627
L2C PREFETCH  REQUESTED:    4028428  ISSUED:    4028428  USEFUL:    1069508  USELESS:    2001963
L2C USEFUL LOAD PREFETCHES:    1069508 PREFETCH ISSUED TO LOWER LEVEL:    3085131  ACCURACY: 34.6665
L2C TIMELY PREFETCHES:    1069508 LATE PREFETCHES: 13819 DROPPED PREFETCHES: 0
L2C COMMIT LATE PREFETCHES: 0 MISSED OPPORTUNITY: 0 LATE IN PQ: 0 UNCOVERED: 0
L2C COMMIT LATE MSHR PREFETCHES: 0
L2C MPKI TOTAL: 8.01692 MSHR LATE: 0.069095 PQ LATE: 0 COMMIT LATE: 0 MISSED OPPORTUNITY: 0 UNCOVERED: 0
L2C PREFETCHES SAME FILL-ORIGIN LEVEL: 3085131 DIFFERENT FILL-ORIGIN LEVEL: 0
L2C AVERAGE MISS LATENCY: 149.728 cycles
L2C AVERAGE MISS LATENCY LOAD: 148.606 cycles
L2C AVERAGE MISS LATENCY PREFETCH: 162.089 cycles
L2C AVERAGE MSHR OCCUPANCY: 0.58326
L2C MSHR FULL: 0
L2C RQ	ACCESS:    5214784	FORWARD:          0	MERGED:          0	TO_CACHE:    5214711
L2C WQ	ACCESS:    1815959	FORWARD:         79	MERGED:          0	TO_CACHE:    1815959
L2C PQ	ACCESS:    4028428	FORWARD:          0	MERGED:          0	TO_CACHE:    4028422

L2C Instructions Evicting Data 26635
L2C Translations Evicting Data 588266
L2C Data Evicting Data 4365259
L2C Instructions Evicting Instructions 516
L2C Translations Evicting Instructions 3406
L2C Data Evicting Instructions 26438
L2C Instructions Evicting Translations 3284
L2C Translations Evicting Translations 79582
L2C Data Evicting Translations 587496
L2C Dense regions hint from L2: 0
54a71e: 1
67c748: 1
4c2680: 1
558ca2: 1
4c8500: 1
4c7a04: 1
552ad0: 1
411c77: 1
498169: 1
4c2595: 1
558d40: 1
4cce40: 1
620b82: 1
519a46: 1
552703: 1
550b50: 1
4c79c9: 1
549c8f: 1
558d80: 1
4117c0: 1
4c8dc1: 1
552c90: 1
680e22: 1
498140: 1
680e01: 1
680de2: 1
61d150: 1
4c868c: 1
550bba: 1
4e0570: 1
4c8d53: 1
558426: 1
47d441: 1
410751: 1
558c41: 1
4c8937: 1
4123f4: 1
412246: 1
4c7a42: 1
501d02: 1
63fad2: 1
445101: 1
4c86c4: 1
5504c0: 1
4c74d9: 1
555504: 1
550114: 1
4cce4f: 1
558a20: 1
412417: 1
55be85: 1
501d8c: 1
498162: 1
501d6e: 1
550e84: 1
511c10: 1
4c8cd0: 1
550629: 1
4113bf: 1
558e90: 1
5906e0: 1
620b25: 1
558ac4: 1
549700: 1
4106b3: 1
558cc1: 1
55ba90: 1
4c7067: 1
544c40: 1
4c8d01: 1
550120: 1
4c74c0: 1
558c3d: 1
558c20: 1
552686: 1
4cce59: 1
6814e2: 1
511a84: 1
507688: 1
552470: 1
49c0e0: 1
552753: 1
558eb4: 1
5557ef: 1
54cad0: 1
47d4b7: 1
54975c: 1
444281: 1
550690: 1
555a70: 1
550a40: 1
4714ec: 1
556067: 1
55b280: 1
550910: 1
558d88: 1
558b46: 1
558b0a: 1
55063a: 1
558d53: 1
558d2d: 1
558d02: 1
629200: 1
47d5ae: 1
550bb3: 1
555bc2: 1
553c0c: 1
545942: 1
4ebada: 1
549ce3: 1
411804: 1
544ff8: 1
554ab2: 1
558a8b: 1
67cda3: 1
67cd4f: 1
67cd04: 1
67c681: 1
556dc0: 1
556d8f: 1
549b73: 1
558ad6: 1
558cce: 1
4cd010: 1
59071d: 1
511a8f: 1
519a81: 1
590696: 1
59068b: 1
590680: 1
519a30: 1
4cd041: 1
4cced6: 1
4ccea2: 1
4c8703: 1
550043: 1
4c86bf: 1
4c7697: 1
4c703e: 1
4c7020: 1
498180: 1
498148: 1
4e0583: 1
449d70: 1
4c7086: 1
511c1a: 1
4c8740: 1
511a50: 1
511c40: 1
4c7044: 1
4c8db1: 1
620e58: 1
4c8923: 1
511c80: 1
511ce1: 1
5494b0: 2
544e90: 2
5525eb: 2
549d61: 2
553cac: 2
63fb00: 2
544cc3: 2
5503c1: 2
558dc0: 2
550c30: 2
553c42: 2
553be0: 2
412409: 2
55040d: 2
55c055: 2
55bbe0: 2
549fb0: 2
549741: 2
54492b: 2
47e640: 2
55be88: 2
620980: 2
6220c0: 2
6220e6: 2
4c8516: 2
4cce80: 2
558c2c: 2
4c862b: 2
4c79fa: 2
549ef6: 2
47ea6d: 2
553c02: 2
6222c1: 2
552130: 2
4ebe60: 2
47d471: 2
55bcd0: 2
549d41: 2
41d1c7: 2
553cdd: 2
410520: 2
5508f0: 3
54531d: 3
554ab7: 3
622124: 3
55c043: 3
555e96: 3
5511ce: 3
552603: 3
51a630: 3
4c26a3: 3
544c2c: 3
4ebaeb: 3
49815f: 3
550144: 3
55bf2d: 3
5453bb: 3
550d38: 3
411b46: 3
545947: 3
4e057c: 3
558eae: 3
545902: 3
555da8: 3
4ebae4: 3
55ba40: 3
550849: 3
550cb3: 3
55c028: 4
55b73b: 4
5498b1: 4
555e47: 4
550f70: 4
443f6c: 4
400670: 4
550608: 4
5522cd: 4
55bebd: 4
550b40: 4
555b45: 4
550338: 4
556d4b: 4
550b49: 4
4713dc: 4
5592d2: 4
55bed0: 4
55bfb0: 4
55bc90: 4
68062a: 4
4123e1: 4
439bb0: 4
556302: 4
4e0580: 4
553cc0: 5
411c7a: 5
553c80: 5
620ad3: 5
64caa0: 5
408910: 5
41cc70: 5
4c8508: 5
549adf: 5
558e89: 5
558ec2: 5
433e41: 5
558a41: 5
5505ce: 5
556f4d: 5
41077b: 5
410754: 5
629241: 5
621e1e: 6
620af7: 6
41066e: 6
549490: 6
558a37: 6
553440: 6
6292d0: 6
54ff6a: 6
550027: 6
55bc80: 6
550cbd: 6
54ff84: 6
550010: 6
558ed3: 6
54976a: 6
61d900: 6
55bec1: 6
550cba: 7
559488: 7
556dfe: 7
550942: 7
41242d: 7
629282: 7
412442: 7
622088: 7
629304: 7
41d422: 7
44416b: 7
549f7c: 7
556e38: 7
54ff9a: 7
548301: 7
556e5c: 7
64caa6: 7
61ec00: 8
550bc0: 8
411a80: 8
41cc10: 8
5432b0: 8
544c60: 8
41244b: 8
412400: 8
545247: 8
55beb5: 8
556500: 8
55030c: 8
501cc2: 8
620b3f: 8
54a680: 8
55002d: 8
41241d: 8
549bc2: 8
6806af: 9
557041: 9
556cc0: 9
51a843: 9
68021d: 9
6225c0: 9
553340: 9
412241: 9
5448f0: 9
43b442: 9
553500: 9
548570: 9
5571c1: 9
67c7c7: 9
558e48: 9
546502: 9
556344: 9
54a500: 9
556f42: 9
548582: 9
556fb0: 9
556ec2: 9
6157d0: 9
557002: 9
550341: 9
5500c0: 9
51a7f1: 9
68024f: 9
54ff04: 9
556fc1: 9
61d146: 9
556dd4: 9
4c2570: 9
552bd0: 9
556f19: 9
550ac4: 9
412200: 9
621e95: 9
5012c3: 9
61d7e0: 9
556e40: 9
4e0578: 9
55214d: 9
6802fd: 9
439c05: 9
544c9b: 9
556e80: 9
557190: 9
61cf00: 10
447960: 10
411460: 10
680599: 10
4340c1: 10
54c8c4: 10
51a680: 10
5502ec: 10
67c788: 10
61d842: 10
54c8a0: 10
544ec4: 10
555f40: 10
549b40: 10
67c67b: 10
545042: 10
549ace: 10
549c70: 10
617080: 10
680307: 10
67c520: 10
549b03: 10
550c4c: 10
471501: 10
47d5ba: 10
41d441: 10
550ecd: 10
549a7b: 10
549a83: 10
61d108: 10
67ce6f: 10
54cb10: 10
67c340: 10
549870: 10
549ec9: 10
544c81: 10
47ea60: 10
549881: 10
5493c0: 10
67cc81: 10
550505: 10
556281: 10
549cc1: 10
67c544: 10
680286: 10
55bc40: 10
639783: 10
61d881: 10
410543: 10
443870: 10
501cb0: 10
5502c1: 10
550c80: 10
549b81: 10
67c885: 10
550241: 10
67c33b: 10
61d040: 10
5498c3: 10
545300: 10
67c661: 10
67c280: 10
552c80: 10
681460: 10
67c585: 10
61ec70: 10
6170c4: 10
550cc3: 10
53f48a: 10
5458c0: 10
67cc4f: 10
550201: 10
617100: 10
411482: 10
549afd: 10
67c5c0: 10
61ec81: 10
67c843: 10
67ceeb: 10
4712b7: 10
54eec1: 10
545870: 10
61d0d3: 10
61cef0: 10
67cf86: 10
622042: 10
67ce80: 10
54efe0: 10
67c88c: 10
443880: 10
67ccc1: 10
680f1c: 10
680f80: 10
67ca58: 10
41d410: 10
680f68: 10
68102b: 10
67c310: 10
67c880: 10
67cf4e: 10
61d081: 10
629270: 10
67c76c: 10
545882: 10
55bf3b: 11
546960: 11
501300: 11
501cbe: 11
4340b6: 12
623f34: 12
4ebb8b: 12
5012bc: 12
5505f1: 12
5453c6: 12
55bf64: 12
55c0cc: 12
549d13: 12
4123c0: 13
5592a0: 13
555fc7: 13
54a650: 13
545341: 13
546b30: 13
623f65: 13
55008b: 13
55000d: 13
55010d: 13
549fc1: 13
5463e0: 13
47d596: 13
546b90: 14
41d150: 14
64cb45: 14
53e170: 14
621dee: 14
416300: 14
546b50: 14
55bb46: 14
4113c4: 14
559340: 14
559300: 14
55bfc0: 15
55233a: 15
554a84: 15
4712c4: 15
549f83: 15
558320: 15
62093b: 15
621e83: 15
549f00: 15
549cd5: 15
549f70: 15
558342: 15
555f06: 16
550eb0: 16
55bf41: 16
54cae0: 16
55b752: 16
5525ac: 16
55bf10: 16
54eedc: 16
63f85a: 16
62096e: 16
546ad0: 16
400640: 16
41065f: 16
54ef00: 17
5555c3: 17
471481: 17
620b35: 17
55044a: 17
4c269a: 17
54eeb0: 17
5504bd: 17
47ea80: 17
54aa80: 17
550f40: 17
47d4a3: 17
54ab40: 17
47eac0: 17
550542: 17
550280: 17
550400: 17
550f03: 17
550591: 17
550e40: 17
550f84: 17
5012f6: 18
41cc22: 18
550a80: 18
501280: 18
550965: 18
5012ed: 18
555a84: 18
4441a6: 18
51a641: 18
544e62: 18
43ad21: 18
51a66d: 18
4ebb63: 18
549c81: 19
47128d: 19
621440: 19
620ac1: 19
55842d: 20
51a684: 20
622260: 20
5525c4: 20
555bb1: 20
549fa0: 21
544fc0: 21
47e5a0: 21
6223dc: 22
4c2667: 22
55833c: 22
621ec1: 22
47d4ab: 22
49bf82: 22
641120: 23
55b745: 23
621ffe: 25
55baa0: 26
54c958: 26
5465c0: 26
62201f: 26
552282: 26
555540: 27
412110: 27
545283: 28
544b74: 29
548440: 29
54ff8c: 30
622083: 30
4713b5: 31
622190: 31
55be45: 31
622581: 31
62228f: 32
556275: 32
5507b5: 33
55bf30: 33
54515b: 34
47d477: 35
43b430: 36
62207f: 37
543401: 37
620d89: 37
4712bc: 38
544907: 39
555bbb: 40
550075: 41
4441ba: 42
55003d: 42
4ea048: 42
506f20: 42
47d53a: 44
622090: 45
506f34: 45
550853: 45
4c2586: 46
41072e: 46
47d608: 48
622002: 49
63f85e: 49
55c086: 50
551090: 53
64e080: 53
620ae0: 53
4713a4: 53
4713bc: 58
549390: 59
621f26: 59
49c100: 59
443f00: 60
5525be: 60
64e150: 60
545080: 61
47eb80: 61
63fad6: 62
5525f5: 62
62257c: 63
4713a9: 63
410598: 65
444140: 67
400580: 68
64e1d0: 68
4ebaf4: 69
4441ae: 70
5549c3: 70
55c010: 71
443ff4: 71
55b6fe: 72
621fdb: 73
55241b: 75
55bf00: 75
62215a: 77
622108: 77
445142: 78
623f09: 79
47d3b5: 80
550005: 81
622010: 84
4ebfa0: 85
50754a: 86
411ba0: 88
47d480: 88
556079: 88
412640: 88
550091: 89
507650: 91
621fc8: 93
410641: 94
620aa5: 94
620aad: 95
620ab7: 96
411aac: 96
4ebf7c: 98
4117af: 98
4ea00b: 98
4c2660: 102
550140: 103
620aff: 103
620b09: 103
49bf40: 107
47d5c0: 107
47e5da: 109
43b8f6: 110
544914: 112
416e91: 113
555f2e: 113
55bf60: 116
54fff8: 116
54ff23: 118
41055f: 119
555d9d: 120
444028: 120
555f7c: 121
552142: 127
433f40: 127
444186: 128
621f42: 129
555b1a: 129
552252: 131
64cb03: 131
555f38: 132
411b01: 133
55bac3: 133
556420: 135
444197: 135
620a3f: 137
411afa: 138
53e1b9: 139
621f84: 139
41cc4f: 140
41cc4c: 140
55bad3: 140
55214a: 141
5507ee: 148
555f27: 148
552482: 148
44415f: 149
5507d2: 150
555b34: 150
49bfab: 153
4e9fc4: 154
55c020: 162
44512a: 162
4441c1: 165
545370: 165
549370: 168
47d430: 170
4ebf30: 173
4ebf82: 174
55100a: 175
623f20: 175
556027: 176
444004: 176
555f83: 178
5524a0: 179
433f36: 183
549030: 184
5451c1: 194
54f002: 198
4ea0c7: 200
416f03: 204
5583d5: 206
55bf83: 210
411c3e: 210
620961: 211
555b54: 214
4ea002: 219
550191: 221
6408a3: 221
55115d: 223
556495: 226
4105d4: 229
6225ab: 230
412180: 230
55b176: 234
550ab2: 235
550002: 243
6225da: 247
471411: 248
548420: 249
49c1b0: 250
49c1c2: 252
444180: 256
4441d5: 259
544f9e: 260
443f82: 264
552274: 264
558441: 265
63fb0d: 269
43b438: 269
55548c: 270
545000: 270
41d1f7: 272
5501c2: 272
6291bb: 273
551001: 273
55b1e5: 276
64e160: 278
4ebb80: 280
55b1c0: 281
555afa: 281
55b160: 282
624580: 285
623f00: 285
55bba0: 288
55b7b0: 290
558405: 291
550b25: 293
55011a: 294
555f8f: 294
555b80: 294
552440: 295
41053f: 297
4ebb04: 298
43b43b: 298
54547e: 298
64cac3: 299
545380: 301
411ac2: 301
550b86: 302
555f5c: 303
552120: 303
545481: 305
545140: 305
546640: 306
54510b: 307
555b04: 307
62241f: 308
555400: 310
507581: 314
550931: 314
629170: 315
554ac0: 317
5465b0: 318
629184: 319
4ebac0: 319
55067b: 319
544acf: 321
5521c1: 321
55564d: 323
546401: 325
6291b5: 330
55218c: 332
64e1e0: 346
544b81: 350
434103: 360
552411: 373
544f08: 385
53f5b0: 405
549100: 406
552598: 414
5125d4: 416
554a73: 428
444216: 442
54490e: 488
444178: 495
621435: 574
55b6eb: 588
4441eb: 651
4712ab: 654
6291c1: 686
62919a: 691
545190: 743
416eb9: 746
5524d8: 791
47136d: 872
41054e: 898
62094f: 909
552270: 939
41191a: 966
411780: 1016
5524c9: 1021
4441c7: 1030
552182: 1036
410737: 1129
471366: 1243
55bb00: 1252
55bb22: 1287
471398: 1341
54c9b1: 1575
5555bc: 1591
620a5d: 1741
41218b: 1875
545180: 1889
47135d: 1919
471359: 2036
623f81: 2308
44427d: 2313
4450fb: 2475
55bb37: 2653
445148: 2749
416e8e: 2825
555f6d: 2873
55bb33: 2903
550397: 3087
55039d: 3488
4ebf44: 3572
41d1f4: 3758
4168b0: 3787
621ea4: 4559
5124e1: 5162
4ea01d: 5281
550a73: 5473
47d45d: 6129
411c4a: 6287
47eb9a: 6379
6408a0: 6686
411c5f: 6869
411b0d: 6950
62200b: 7674
5555a4: 8291
4712af: 8340
54fe9b: 8447
4ec000: 8449
507571: 8664
4168cb: 9564
620aeb: 9667
433dff: 9956
4168b4: 10656
4ea019: 11085
4e9fc1: 11969
41195a: 12135
4ebb70: 12160
416e84: 12543
444020: 12671
4ebf76: 12834
412730: 12876
4ebe6b: 12922
4ebf40: 12955
55bb1e: 12973
5507af: 13129
433def: 13527
621e17: 13864
49c1ec: 14119
550ff8: 14566
622407: 14945
544edb: 16245
4340f0: 17360
621e9a: 18808
55b173: 20292
47d453: 24773
416eb6: 25259
4168ba: 27876
416eb3: 28794
416e72: 32192
471394: 36440
47e5d4: 37208
624599: 38793
41cc78: 42692
41cc81: 46353
416ef9: 49556
54fefc: 55512
5432c8: 66559
47133d: 84793
55bb13: 88240
471351: 159150
47134d: 195855
PSCL5 TOTAL     ACCESS:     970327  HIT:     970327  MISS:          0  HIT %:        100  MISS %:          0   MPKI: 0
PSCL5 Test counter:          0
PSCL5 LOAD TRANSLATION ACCESS:     970327  HIT:     970327  MISS:          0  HIT %:        100  MISS %:          0   MPKI: 0
PSCL5 PREFETCH  REQUESTED:          0  ISSUED:          0  USEFUL:          0  USELESS:          0
PSCL5 USEFUL LOAD PREFETCHES:          0 PREFETCH ISSUED TO LOWER LEVEL:          0  ACCURACY: -nan
PSCL5 TIMELY PREFETCHES:          0 LATE PREFETCHES: 0 DROPPED PREFETCHES: 0
PSCL5 COMMIT LATE PREFETCHES: 0 MISSED OPPORTUNITY: 0 LATE IN PQ: 0 UNCOVERED: 0
PSCL5 COMMIT LATE MSHR PREFETCHES: 0
PSCL5 MPKI TOTAL: 0 MSHR LATE: 0 PQ LATE: 0 COMMIT LATE: 0 MISSED OPPORTUNITY: 0 UNCOVERED: 0
PSCL5 PREFETCHES SAME FILL-ORIGIN LEVEL: 0 DIFFERENT FILL-ORIGIN LEVEL: 0

PSCL4 TOTAL     ACCESS:     970327  HIT:     970327  MISS:          0  HIT %:        100  MISS %:          0   MPKI: 0
PSCL4 Test counter:          0
PSCL4 LOAD TRANSLATION ACCESS:     970327  HIT:     970327  MISS:          0  HIT %:        100  MISS %:          0   MPKI: 0
PSCL4 PREFETCH  REQUESTED:          0  ISSUED:          0  USEFUL:          0  USELESS:          0
PSCL4 USEFUL LOAD PREFETCHES:          0 PREFETCH ISSUED TO LOWER LEVEL:          0  ACCURACY: -nan
PSCL4 TIMELY PREFETCHES:          0 LATE PREFETCHES: 0 DROPPED PREFETCHES: 0
PSCL4 COMMIT LATE PREFETCHES: 0 MISSED OPPORTUNITY: 0 LATE IN PQ: 0 UNCOVERED: 0
PSCL4 COMMIT LATE MSHR PREFETCHES: 0
PSCL4 MPKI TOTAL: 0 MSHR LATE: 0 PQ LATE: 0 COMMIT LATE: 0 MISSED OPPORTUNITY: 0 UNCOVERED: 0
PSCL4 PREFETCHES SAME FILL-ORIGIN LEVEL: 0 DIFFERENT FILL-ORIGIN LEVEL: 0

PSCL3 TOTAL     ACCESS:     970327  HIT:     970327  MISS:          0  HIT %:        100  MISS %:          0   MPKI: 0
PSCL3 Test counter:          0
PSCL3 LOAD TRANSLATION ACCESS:     970327  HIT:     970327  MISS:          0  HIT %:        100  MISS %:          0   MPKI: 0
PSCL3 PREFETCH  REQUESTED:          0  ISSUED:          0  USEFUL:          0  USELESS:          0
PSCL3 USEFUL LOAD PREFETCHES:          0 PREFETCH ISSUED TO LOWER LEVEL:          0  ACCURACY: -nan
PSCL3 TIMELY PREFETCHES:          0 LATE PREFETCHES: 0 DROPPED PREFETCHES: 0
PSCL3 COMMIT LATE PREFETCHES: 0 MISSED OPPORTUNITY: 0 LATE IN PQ: 0 UNCOVERED: 0
PSCL3 COMMIT LATE MSHR PREFETCHES: 0
PSCL3 MPKI TOTAL: 0 MSHR LATE: 0 PQ LATE: 0 COMMIT LATE: 0 MISSED OPPORTUNITY: 0 UNCOVERED: 0
PSCL3 PREFETCHES SAME FILL-ORIGIN LEVEL: 0 DIFFERENT FILL-ORIGIN LEVEL: 0

PSCL2 TOTAL     ACCESS:     970327  HIT:     549941  MISS:     420386  HIT %:    56.6758  MISS %:    43.3242   MPKI: 2.10193
PSCL2 Test counter:          0
PSCL2 LOAD TRANSLATION ACCESS:     970327  HIT:     549941  MISS:     420386  HIT %:    56.6758  MISS %:    43.3242   MPKI: 2.10193
PSCL2 PREFETCH  REQUESTED:          0  ISSUED:          0  USEFUL:          0  USELESS:          0
PSCL2 USEFUL LOAD PREFETCHES:          0 PREFETCH ISSUED TO LOWER LEVEL:          0  ACCURACY: -nan
PSCL2 TIMELY PREFETCHES:          0 LATE PREFETCHES: 0 DROPPED PREFETCHES: 0
PSCL2 COMMIT LATE PREFETCHES: 0 MISSED OPPORTUNITY: 0 LATE IN PQ: 0 UNCOVERED: 0
PSCL2 COMMIT LATE MSHR PREFETCHES: 0
PSCL2 MPKI TOTAL: 0 MSHR LATE: 0 PQ LATE: 0 COMMIT LATE: 0 MISSED OPPORTUNITY: 0 UNCOVERED: 0
PSCL2 PREFETCHES SAME FILL-ORIGIN LEVEL: 0 DIFFERENT FILL-ORIGIN LEVEL: 0

LLC TOTAL     ACCESS:    7165659  HIT:    3242054  MISS:    3923605  HIT %:    45.2443  MISS %:    54.7557   MPKI: 19.618
LLC Test counter:          0
LLC LOAD      ACCESS:    1593644  HIT:     465637  MISS:    1128007  HIT %:    29.2184  MISS %:    70.7816   MPKI: 5.64003
LLC RFO       ACCESS:     330848  HIT:     111007  MISS:     219841  HIT %:    33.5523  MISS %:    66.4477   MPKI: 1.0992
LLC PREFETCH  ACCESS:    3085123  HIT:     793369  MISS:    2291754  HIT %:     25.716  MISS %:     74.284   MPKI: 11.4588
LLC WRITEBACK ACCESS:    1484790  HIT:    1475310  MISS:       9480  HIT %:    99.3615  MISS %:   0.638474   MPKI: 0.0474
LLC LOAD TRANSLATION ACCESS:     671254  HIT:     396731  MISS:     274523  HIT %:     59.103  MISS %:     40.897   MPKI: 1.37261
LLC PREFETCH  REQUESTED:          0  ISSUED:          0  USEFUL:     115861  USELESS:    2176154
LLC USEFUL LOAD PREFETCHES:     115861 PREFETCH ISSUED TO LOWER LEVEL:    2291754  ACCURACY: 5.05556
LLC TIMELY PREFETCHES:     115861 LATE PREFETCHES: 0 DROPPED PREFETCHES: 0
LLC COMMIT LATE PREFETCHES: 0 MISSED OPPORTUNITY: 0 LATE IN PQ: 0 UNCOVERED: 0
LLC COMMIT LATE MSHR PREFETCHES: 0
LLC MPKI TOTAL: 5.64003 MSHR LATE: 0 PQ LATE: 0 COMMIT LATE: 0 MISSED OPPORTUNITY: 0 UNCOVERED: 0
LLC PREFETCHES SAME FILL-ORIGIN LEVEL: 0 DIFFERENT FILL-ORIGIN LEVEL: 0
LLC AVERAGE MISS LATENCY: 174.035 cycles
LLC AVERAGE MISS LATENCY LOAD: 168.011 cycles
LLC AVERAGE MISS LATENCY PREFETCH: 178.074 cycles
LLC AVERAGE MSHR OCCUPANCY: 0.483905
LLC MSHR FULL: 0
LLC RQ	ACCESS:    2595751	FORWARD:          0	MERGED:          0	TO_CACHE:    2595746
LLC WQ	ACCESS:    1484790	FORWARD:         13	MERGED:          0	TO_CACHE:    1484790
LLC PQ	ACCESS:    3085131	FORWARD:          0	MERGED:          0	TO_CACHE:    3085123

LLC Dense regions hint to LLC: 0
620b25: 1
558c3d: 1
67c748: 1
552686: 1
558c20: 1
4c2680: 1
620980: 1
55010d: 1
4c74c0: 1
558cc1: 1
549700: 1
4cce59: 1
4c8d53: 1
553cac: 1
4c7a04: 1
4117c0: 1
558d80: 1
64e1d0: 1
6814e2: 1
55ba90: 1
519a46: 1
621e83: 1
4e0583: 1
4113bf: 1
498162: 1
552c90: 1
680e22: 1
498140: 1
680de2: 1
61d150: 1
63fad2: 1
620e58: 1
4441a6: 1
555da8: 1
501d02: 1
47d441: 1
558a20: 1
4123f4: 1
4c8dc1: 1
5504c0: 1
552130: 1
4e0570: 1
4c7067: 1
4c8d01: 1
4cce4f: 1
449d70: 1
4c86c4: 1
552703: 1
558d40: 1
558ca2: 1
550e84: 1
501d6e: 1
511c10: 1
4c74d9: 1
445101: 1
511a84: 1
411c77: 1
558eb4: 1
558cce: 1
4c8937: 1
549b73: 1
5906e0: 1
5525ac: 1
4c868c: 1
4c79c9: 1
550010: 1
55bf2d: 1
4c8500: 1
4cce40: 1
4ebb8b: 1
620b82: 1
680e01: 1
55be85: 1
501d8c: 1
54ff9a: 1
4c8cd0: 1
558c41: 1
558ac4: 1
47d4b7: 1
412417: 1
498169: 1
550a40: 1
552ad0: 1
552753: 1
4c7a42: 1
5557ef: 1
54cad0: 1
54975c: 1
444281: 1
550690: 1
555a70: 1
4714ec: 1
49c0e0: 1
556067: 1
498148: 1
550910: 1
558d88: 1
558b46: 1
558b0a: 1
621e1e: 1
558ad6: 1
629200: 1
47d5ae: 1
550027: 1
5502ec: 1
555bc2: 1
553c0c: 1
545942: 1
544ff8: 1
544c40: 1
55030c: 1
55b280: 1
67cda3: 1
67cd4f: 1
67cd04: 1
67c681: 1
556dc0: 1
556d8f: 1
507688: 1
549d41: 1
4cced6: 1
4c8923: 1
4c8740: 1
59071d: 1
4c8703: 1
519a81: 1
590696: 1
59068b: 1
590680: 1
519a30: 1
4cd041: 1
558d53: 1
4ccea2: 1
558e90: 1
4cd010: 1
550043: 1
4c86bf: 1
54a71e: 1
4c7697: 1
4c703e: 1
4c7020: 1
498180: 1
511c1a: 1
558a8b: 1
558d2d: 1
558d02: 1
511a8f: 1
4c7086: 1
511ce1: 1
511c80: 1
511c40: 1
511a50: 1
4c7044: 1
4c8db1: 1
5494b0: 2
4ebe60: 2
544e90: 2
5525eb: 2
63fb00: 2
4712b7: 2
553c42: 2
6220c0: 2
55bcd0: 2
41d1c7: 2
544cc3: 2
550c30: 2
5507b5: 2
55bbe0: 2
549d61: 2
54c958: 2
47e640: 2
558dc0: 2
553be0: 2
55c055: 2
6222c1: 2
4c8516: 2
4cce80: 2
4712bc: 2
558c2c: 2
5503c1: 2
4c862b: 2
553cdd: 2
4c79fa: 2
55be88: 2
55000d: 2
549fb0: 2
47d471: 2
63f85a: 2
553c02: 2
6220e6: 2
410520: 2
63fad6: 3
4ebaeb: 3
54531d: 3
554ab7: 3
5505ce: 3
55c043: 3
549adf: 3
55003d: 3
544c2c: 3
5511ce: 3
550849: 3
49815f: 3
622124: 3
411b46: 3
5508f0: 3
545902: 3
55ba40: 3
545947: 3
550cb3: 3
5453bb: 3
552603: 3
555e96: 3
4e057c: 3
4ebae4: 3
555bb1: 3
51a630: 3
55bf41: 4
433e41: 4
55b73b: 4
55bc90: 4
4e0580: 4
4123e1: 4
68062a: 4
400670: 4
439bb0: 4
558a41: 4
55bf3b: 4
550b40: 4
550b49: 4
622088: 4
5592d2: 4
408910: 4
555b45: 4
550608: 4
55bebd: 4
55b745: 4
55bed0: 4
443f6c: 4
555e47: 4
411c7a: 4
550338: 4
5498b1: 4
558e89: 4
55bf64: 4
5522cd: 4
556d4b: 4
556302: 4
5012bc: 5
558ed3: 5
558ec2: 5
553cc0: 5
64e150: 5
556f4d: 5
629241: 5
544907: 5
64caa0: 5
553440: 5
549490: 5
552598: 5
553c80: 5
41d422: 5
620ad3: 5
41077b: 5
558a37: 5
4c8508: 5
410754: 5
412442: 6
55bc80: 6
550cba: 6
6292d0: 6
41242d: 6
41244b: 6
412400: 6
41066e: 6
54ff6a: 6
54976a: 6
61d900: 6
55bf10: 6
54ff84: 6
55bec1: 6
620af7: 6
629304: 7
41072e: 7
629282: 7
559488: 7
4e0578: 7
556079: 7
556e38: 7
621dee: 7
64caa6: 7
548301: 7
47d608: 7
41241d: 7
67c76c: 7
67c788: 7
549f7c: 7
556e5c: 7
556dd4: 7
550942: 7
556dfe: 7
62201f: 7
55beb5: 7
64e1e0: 7
54a680: 8
6225c0: 8
501cc2: 8
550853: 8
629270: 8
61ec00: 8
558e48: 8
545247: 8
411a80: 8
556500: 8
623f65: 8
552bd0: 8
5507ee: 8
41cc10: 8
620b35: 8
5432b0: 8
550bc0: 8
544c60: 8
4ebf7c: 8
549bc2: 8
400640: 8
556e40: 9
6802fd: 9
54a500: 9
6157d0: 9
556fc1: 9
556e80: 9
549ec9: 9
68021d: 9
548570: 9
545300: 9
5012c3: 9
556ec2: 9
51a843: 9
5448f0: 9
556344: 9
6806af: 9
43b442: 9
556cc0: 9
546502: 9
5500c0: 9
54ff04: 9
4c2570: 9
68024f: 9
412200: 9
548582: 9
61d7e0: 9
557041: 9
5571c1: 9
557002: 9
556fb0: 9
553500: 9
553340: 9
557190: 9
556f19: 9
556f42: 9
62093b: 9
5507d2: 9
53f48a: 9
412241: 9
439c05: 9
4ea048: 9
51a7f1: 9
550ac4: 9
67c7c7: 9
550341: 9
61d146: 9
549870: 10
61d842: 10
54c8a0: 10
550ecd: 10
549a83: 10
67c340: 10
549b40: 10
61cf00: 10
617080: 10
447960: 10
471501: 10
544ec4: 10
55c010: 10
67c544: 10
549b03: 10
67c520: 10
555f40: 10
54cb10: 10
5493c0: 10
556281: 10
67c310: 10
4340c1: 10
545882: 10
51a680: 10
623f34: 10
55bc40: 10
410543: 10
67c661: 10
67ce80: 10
680307: 10
68102b: 10
680f68: 10
680f80: 10
501cb0: 10
443870: 10
680f1c: 10
67c88c: 10
67c880: 10
4713b5: 10
61d040: 10
639783: 10
67c885: 10
411460: 10
67c5c0: 10
411482: 10
552c80: 10
67c585: 10
61ec70: 10
6170c4: 10
67ceeb: 10
67cc81: 10
549afd: 10
443880: 10
54ff8c: 10
67ccc1: 10
67cf86: 10
545870: 10
61d081: 10
549c70: 10
67c67b: 10
67cf4e: 10
67ca58: 10
5458c0: 10
681460: 10
5525f5: 10
67c33b: 10
67c280: 10
549cc1: 10
680286: 10
622042: 10
546960: 10
61d0d3: 10
549b81: 10
41d410: 10
54efe0: 10
54eec1: 10
47d5ba: 10
54c8c4: 10
5498c3: 10
550201: 10
617100: 10
550505: 10
680599: 10
550c4c: 10
61d881: 10
549a7b: 10
544c81: 10
41d441: 10
67ce6f: 10
47ea60: 10
545042: 10
61cef0: 10
549ace: 10
5502c1: 10
67cc4f: 10
549881: 10
67c843: 10
61ec81: 10
550cc3: 10
550241: 10
61d108: 10
550c80: 10
501300: 11
55bad3: 11
552482: 11
53f5b0: 11
501cbe: 11
54fff8: 11
64e160: 11
549f00: 12
5463e0: 12
5505f1: 12
552142: 12
545341: 12
5453c6: 12
621ec1: 12
549f83: 12
549f70: 12
555fc7: 12
549cd5: 12
4340b6: 12
5592a0: 12
5549c3: 12
55c0cc: 12
62096e: 12
64cb45: 12
47d596: 12
549d13: 12
55008b: 12
4123c0: 12
549fc1: 13
546b30: 13
555d9d: 13
55b752: 13
559340: 13
54cae0: 13
558342: 13
554a84: 13
55100a: 13
54a650: 13
555f38: 13
55bac3: 13
555b80: 13
546ad0: 13
558320: 13
4113c4: 13
550091: 14
559300: 14
53e170: 14
546b50: 14
546b90: 14
41d150: 14
416300: 14
550eb0: 14
55bb46: 14
55bfc0: 14
55233a: 14
5524a0: 14
54aa80: 15
550e40: 15
54eedc: 15
54eeb0: 15
550542: 15
41065f: 15
5504bd: 15
4ea002: 15
550f03: 15
54ef00: 15
471481: 15
55044a: 15
55842d: 15
549030: 15
550400: 15
550f40: 15
55b160: 15
5555c3: 15
47ea80: 15
54ab40: 15
550591: 15
47eac0: 15
51a66d: 16
5012f6: 16
4c269a: 16
501280: 16
550a80: 16
550005: 16
550965: 16
43ad21: 16
544e62: 16
63f85e: 16
4ebb63: 16
555a84: 16
550f84: 16
550280: 16
41cc22: 16
5501c2: 17
4713bc: 17
47d4a3: 17
47e5a0: 17
621440: 17
51a641: 17
5012ed: 17
5525c4: 17
506f34: 17
47e5da: 18
51a684: 18
549c81: 18
47d3b5: 18
49bf82: 18
55bf30: 18
550002: 18
545000: 18
620ac1: 19
47128d: 19
4ebb80: 19
5521c1: 19
545140: 19
544fc0: 19
622260: 20
443ff4: 20
4ea0c7: 20
641120: 20
552411: 21
6223dc: 21
55b1e5: 21
444180: 21
544acf: 21
549fa0: 21
545481: 21
55b6fe: 22
621ffe: 22
4713a4: 22
558441: 22
623f09: 22
558405: 22
55564d: 22
556275: 22
47d4ab: 22
4c2667: 22
4ebb04: 22
5465b0: 22
4ebaf4: 23
55c020: 23
555540: 23
629170: 23
552282: 23
5465c0: 23
4117af: 23
443f82: 24
544b74: 24
555b04: 24
548440: 24
412110: 24
4ebfa0: 24
556027: 24
507581: 24
55011a: 24
55baa0: 24
555afa: 25
4ebac0: 25
622190: 25
55067b: 25
550075: 25
55214a: 25
556495: 25
550b25: 25
54547e: 25
64cac3: 25
433f36: 25
554ac0: 25
545283: 25
551001: 26
622581: 26
552120: 26
49c1c2: 26
54515b: 26
54510b: 26
546401: 26
445142: 26
43b438: 26
622083: 26
47d477: 27
620d89: 27
62228f: 27
54f002: 27
4713a9: 27
54ff23: 28
43b43b: 28
55be45: 28
550b86: 29
544f08: 29
623f00: 29
55bf00: 29
43b430: 30
4c2586: 30
555400: 30
544914: 30
444004: 30
55bba0: 31
4e9fc4: 31
629184: 31
47d53a: 31
543401: 32
471411: 32
4ebf30: 33
434103: 33
620a3f: 33
546640: 33
621f84: 33
433f40: 34
55548c: 34
506f20: 34
555f8f: 34
544b81: 34
552440: 34
555f27: 35
620ae0: 35
62207f: 35
64e080: 35
49bf40: 36
4ebf82: 36
411ac2: 36
620961: 37
551090: 37
444140: 37
550191: 38
623f20: 38
545080: 38
412180: 38
63fb0d: 38
621fdb: 39
55c086: 39
622002: 39
416f03: 40
555bbb: 40
4441ba: 41
50754a: 41
622010: 41
49bfab: 42
444028: 42
400580: 42
621f26: 42
443f00: 42
49c1b0: 42
622090: 43
4441eb: 44
49c100: 44
5451c1: 44
544f9e: 44
548420: 45
47eb80: 45
4441c1: 46
47d430: 46
410598: 46
621f42: 47
47d480: 47
507650: 48
410641: 48
55115d: 48
555f83: 49
41cc4c: 49
4c2660: 51
62919a: 51
556420: 51
55bf60: 52
416e91: 52
43b8f6: 52
412640: 54
62257c: 56
41cc4f: 57
5525be: 59
411ba0: 60
550140: 61
411b01: 62
55b176: 62
53e1b9: 62
621fc8: 64
64cb03: 64
621435: 65
55bf83: 65
55b7b0: 66
47d5c0: 66
4441ae: 67
62215a: 67
622108: 68
55241b: 75
55b1c0: 75
62241f: 75
4712ab: 81
624580: 81
41d1f7: 82
444197: 85
620aad: 88
620ab7: 90
411aac: 91
620aa5: 91
4ea00b: 98
620b09: 98
620aff: 99
416eb9: 100
549100: 106
41055f: 107
555f2e: 110
5125d4: 110
555f7c: 121
411afa: 123
555b1a: 129
552252: 130
55b6eb: 139
6291bb: 140
6291b5: 143
555b34: 148
545370: 157
44512a: 158
549370: 168
550397: 192
6291c1: 201
5583d5: 203
55039d: 204
411c3e: 207
4105d4: 208
6225ab: 208
550ab2: 209
555b54: 213
6408a3: 221
47136d: 237
4441d5: 244
6225da: 245
552274: 246
471366: 275
41053f: 280
545380: 290
555f5c: 296
550931: 303
41191a: 309
55218c: 325
554a73: 427
54490e: 481
471398: 515
62094f: 531
4ebe6b: 565
545190: 582
5524d8: 692
47135d: 706
552182: 734
471359: 754
41054e: 832
552270: 934
55bb00: 977
4441c7: 990
411780: 1016
5524c9: 1018
410737: 1126
55bb22: 1269
54c9b1: 1467
5555bc: 1526
545180: 1666
620a5d: 1733
41218b: 1850
623f81: 2032
4450fb: 2262
44427d: 2278
47eb9a: 2551
55bb37: 2605
411c4a: 2666
445148: 2691
416e8e: 2726
55bb33: 2866
555f6d: 2870
4712af: 2879
411b0d: 3245
411c5f: 3281
5124e1: 3349
4168b0: 3403
41d1f4: 3545
4ebf44: 3558
621ea4: 4495
4ea01d: 5258
550a73: 5354
507571: 5577
47d45d: 5713
54fe9b: 5738
621e17: 6209
62200b: 6337
6408a0: 6497
412730: 6539
41195a: 6744
4ec000: 7516
5555a4: 7750
4168cb: 8227
550ff8: 9604
620aeb: 9625
4168b4: 9629
433dff: 9656
416eb6: 10405
4168ba: 10977
4ea019: 10979
444020: 11698
4e9fc1: 11879
4ebb70: 12110
5507af: 12125
416e84: 12146
55bb1e: 12686
4ebf40: 12793
4ebf76: 12805
433def: 13033
49c1ec: 13144
622407: 14374
544edb: 15676
47e5d4: 16299
621e9a: 16803
4340f0: 17236
55b173: 20122
471394: 21130
47133d: 23363
47d453: 23380
41cc78: 24199
416eb3: 25844
416e72: 28477
54fefc: 33763
41cc81: 33881
624599: 38633
416ef9: 47858
5432c8: 66421
55bb13: 86675
471351: 89867
47134d: 111232

RAW hits: 3282060
Loads Generated: 66872536
Loads sent to L1D: 63590476
Stores Generated: 37145093
Stores sent to L1D: 37145107
Major fault: 0 Minor fault: 53031
Allocated PAGES: 53031
Total Load insts: 78674799
Total Non-spec loads: 27525928
Percentage of speculative loads: 65.013
L1D response latency: 88.3869 cycles
Load retirement latency: 177.785 cycles

[Bingo] PHT Access: 1550893
[Bingo] PHT Hit PC+Addr: 195456
[Bingo] PHT Hit PC+Offs: 1251291
[Bingo] PHT Miss: 104146
[Bingo] Prefetch PC+Addr: 0
[Bingo] Prefetch PC+Offs: 0
[Bingo] Useful PC+Addr: 0
[Bingo] Useful PC+Offs: 0
[Bingo] Useless PC+Addr: 0
[Bingo] Useless PC+Offs: 0
[Bingo] L1 Prefetch per Region: 0
[Bingo] L2 Prefetch per Region: 3.79036
[Bingo] L3 Prefetch per Region: 0
[Bingo] No Prefetch per Region: 28.2096
[Bingo] Number of Voters Mean: 11.209
[Bingo] Number of Voters SD: 7.1771
PHT read accesses: 22964240
PHT write accesses: 535641
AT read accesses: 1714612
AT write accesses: 2202793
FT read accesses: 1642611
FT write accesses: 1550893
PS read accesses: 2906315
PS write accesses: 1446747
PHT tag read accesses: 38829846
PHT tag write accesses: 731097
AT tag read accesses: 167876601
AT tag write accesses: 2250256
FT tag read accesses: 178300577
FT tag write accesses: 2656445
PS tag read accesses: 108167281
PS tag write accesses: 4351577

DRAM Statistics
 CHANNEL 0
 RQ ROW_BUFFER_HIT:     580159  ROW_BUFFER_MISS:    3333934
 DBUS_CONGESTED:        184
 WQ ROW_BUFFER_HIT:     173317  ROW_BUFFER_MISS:     891745  FULL:          0

 AVG_CONGESTED_CYCLE: 4
 All warmup complete: 2
Channel 0 Bank busy for read cycles: 0
Channel 0 Bank busy for write cycles: 0
Channel 0
Rank 0
0banks busy for read cycles: 522253882
0banks busy for write cycles: 416078
1banks busy for read cycles: 111930215
1banks busy for write cycles: 57212304
2banks busy for read cycles: 44431294
2banks busy for write cycles: 26409575
3banks busy for read cycles: 39133765
3banks busy for write cycles: 13691152
4banks busy for read cycles: 12054936
4banks busy for write cycles: 7411617
5banks busy for read cycles: 8205664
5banks busy for write cycles: 3845864
6banks busy for read cycles: 6931373
6banks busy for write cycles: 1780287
7banks busy for read cycles: 4051050
7banks busy for write cycles: 594902
8banks busy for read cycles: 6464357
8banks busy for write cycles: 118067

CPU 0 Branch Prediction Accuracy: 98.172% MPKI: 3.83776 Average ROB Occupancy at Mispredict: 37.562
Branch types
NOT_BRANCH: 158010842 79.0054%
BRANCH_DIRECT_JUMP: 2330259 1.16513%
BRANCH_INDIRECT: 674228 0.337114%
BRANCH_CONDITIONAL: 26837265 13.4186%
BRANCH_DIRECT_CALL: 3701835 1.85092%
BRANCH_INDIRECT_CALL: 2371706 1.18585%
BRANCH_RETURN: 6073538 3.03677%
BRANCH_OTHER: 0 0%

DRAM PAGES: 1048576
Allocated PAGES: 53031
