
*** ChampSim Multicore Out-of-Order Simulator ***

Warmup Instructions: 50000000
Simulation Instructions: 200000000
Number of CPUs: 1
LLC sets: 2048
LLC ways: 16
Secure Berti: OFF
Berti: OFF
Berti Fill: OFF
On commit prefetching: OFF
L2 LLC Bypass speculative loads: OFF
Off-chip DRAM Size: 4096 MB Channels: 1 Width: 64-bit Data Rate: 6400 MT/s
CPU 0 runs /home/sumon/secure_berti/Berti_Baseline/../../traces/spec/628.pop2_s-17B.champsimtrace.xz
.xz
BTB has LRU replacement policy
ITLB has LRU replacement policy
DTLB has LRU replacement policy
STLB has LRU replacement policy
L1I has LRU replacement policy
L1D has LRU replacement policy
Bingo PHT WAYS: 16 and PHT_SIZE: 16384
L2C has LRU replacement policy
LLC has LRU replacement policy
Heartbeat CPU 0 instructions: 10000003 cycles: 3000744 heartbeat IPC: 3.33251 cumulative IPC: 3.33251 (Simulation time: 0 hr 0 min 14 sec) 
Heartbeat CPU 0 instructions: 20000001 cycles: 6000952 heartbeat IPC: 3.3331 cumulative IPC: 3.3328 (Simulation time: 0 hr 0 min 27 sec) 
Heartbeat CPU 0 instructions: 30000003 cycles: 9000757 heartbeat IPC: 3.33355 cumulative IPC: 3.33305 (Simulation time: 0 hr 0 min 40 sec) 
Heartbeat CPU 0 instructions: 40000003 cycles: 12000365 heartbeat IPC: 3.33377 cumulative IPC: 3.33323 (Simulation time: 0 hr 0 min 53 sec) 
Heartbeat CPU 0 instructions: 50000002 cycles: 15001738 heartbeat IPC: 3.33181 cumulative IPC: 3.33295 (Simulation time: 0 hr 1 min 6 sec) 

Warmup complete CPU 0 instructions: 50000002 cycles: 15001738 (Simulation time: 0 hr 1 min 6 sec) 

Heartbeat CPU 0 instructions: 60000000 cycles: 26953598 heartbeat IPC: 0.83669 cumulative IPC: 0.83669 (Simulation time: 0 hr 1 min 25 sec) 
Heartbeat CPU 0 instructions: 70000002 cycles: 38814234 heartbeat IPC: 0.843125 cumulative IPC: 0.839895 (Simulation time: 0 hr 1 min 45 sec) 
Heartbeat CPU 0 instructions: 80000000 cycles: 50632673 heartbeat IPC: 0.846135 cumulative IPC: 0.841965 (Simulation time: 0 hr 2 min 3 sec) 
Heartbeat CPU 0 instructions: 90000003 cycles: 64339754 heartbeat IPC: 0.72955 cumulative IPC: 0.810734 (Simulation time: 0 hr 2 min 22 sec) 
Heartbeat CPU 0 instructions: 100000001 cycles: 76192110 heartbeat IPC: 0.843714 cumulative IPC: 0.817122 (Simulation time: 0 hr 2 min 42 sec) 
Heartbeat CPU 0 instructions: 110000000 cycles: 88709586 heartbeat IPC: 0.798883 cumulative IPC: 0.814025 (Simulation time: 0 hr 3 min 0 sec) 
Heartbeat CPU 0 instructions: 120000000 cycles: 101898945 heartbeat IPC: 0.758187 cumulative IPC: 0.805549 (Simulation time: 0 hr 3 min 18 sec) 
Heartbeat CPU 0 instructions: 130000002 cycles: 115436121 heartbeat IPC: 0.738707 cumulative IPC: 0.79654 (Simulation time: 0 hr 3 min 37 sec) 
Heartbeat CPU 0 instructions: 140000002 cycles: 129824353 heartbeat IPC: 0.695012 cumulative IPC: 0.783818 (Simulation time: 0 hr 3 min 57 sec) 
Heartbeat CPU 0 instructions: 150000000 cycles: 143139116 heartbeat IPC: 0.751046 cumulative IPC: 0.780412 (Simulation time: 0 hr 4 min 13 sec) 
Heartbeat CPU 0 instructions: 160000000 cycles: 157658511 heartbeat IPC: 0.688734 cumulative IPC: 0.771082 (Simulation time: 0 hr 4 min 32 sec) 
Heartbeat CPU 0 instructions: 170000003 cycles: 168472741 heartbeat IPC: 0.924708 cumulative IPC: 0.781907 (Simulation time: 0 hr 4 min 52 sec) 
Heartbeat CPU 0 instructions: 180000003 cycles: 180070884 heartbeat IPC: 0.862207 cumulative IPC: 0.787549 (Simulation time: 0 hr 5 min 14 sec) 
Heartbeat CPU 0 instructions: 190000000 cycles: 191913873 heartbeat IPC: 0.844381 cumulative IPC: 0.791353 (Simulation time: 0 hr 5 min 36 sec) 
Heartbeat CPU 0 instructions: 200000000 cycles: 203688938 heartbeat IPC: 0.849252 cumulative IPC: 0.794966 (Simulation time: 0 hr 5 min 58 sec) 
Heartbeat CPU 0 instructions: 210000000 cycles: 215460704 heartbeat IPC: 0.84949 cumulative IPC: 0.798168 (Simulation time: 0 hr 6 min 20 sec) 
Heartbeat CPU 0 instructions: 220000000 cycles: 227285435 heartbeat IPC: 0.845685 cumulative IPC: 0.800815 (Simulation time: 0 hr 6 min 42 sec) 
Heartbeat CPU 0 instructions: 230000000 cycles: 239222842 heartbeat IPC: 0.837703 cumulative IPC: 0.802779 (Simulation time: 0 hr 7 min 5 sec) 
Heartbeat CPU 0 instructions: 240000002 cycles: 251161704 heartbeat IPC: 0.837601 cumulative IPC: 0.804539 (Simulation time: 0 hr 7 min 28 sec) 
Heartbeat CPU 0 instructions: 250000002 cycles: 263116048 heartbeat IPC: 0.836516 cumulative IPC: 0.80608 (Simulation time: 0 hr 7 min 51 sec) 
Finished CPU 0 instructions: 200000000 cycles: 248114310 cumulative IPC: 0.80608 (Simulation time: 0 hr 7 min 51 sec) 

ChampSim completed all CPUs

Region of Interest Statistics

CPU 0 cumulative IPC: 0.80608 instructions: 200000000 cycles: 248114310
ITLB TOTAL     ACCESS:   34302273  HIT:   34296104  MISS:       6169  HIT %:     99.982  MISS %:  0.0179842   MPKI: 0.030845
ITLB Test counter:          0
ITLB LOAD TRANSLATION ACCESS:   34302273  HIT:   34296104  MISS:       6169  HIT %:     99.982  MISS %:  0.0179842   MPKI: 0.030845
ITLB PREFETCH  REQUESTED:          0  ISSUED:          0  USEFUL:          0  USELESS:          0
ITLB USEFUL LOAD PREFETCHES:          0 PREFETCH ISSUED TO LOWER LEVEL:          0  ACCURACY: -nan
ITLB TIMELY PREFETCHES:          0 LATE PREFETCHES: 0 DROPPED PREFETCHES: 0
ITLB COMMIT LATE PREFETCHES: 0 MISSED OPPORTUNITY: 0 LATE IN PQ: 0 UNCOVERED: 0
ITLB COMMIT LATE MSHR PREFETCHES: 0
ITLB MPKI TOTAL: 0 MSHR LATE: 0 PQ LATE: 0 COMMIT LATE: 0 MISSED OPPORTUNITY: 0 UNCOVERED: 0
ITLB PREFETCHES SAME FILL-ORIGIN LEVEL: 0 DIFFERENT FILL-ORIGIN LEVEL: 0
ITLB AVERAGE MISS LATENCY: 13.6401 cycles
ITLB AVERAGE MISS LATENCY LOAD: -nan cycles
ITLB AVERAGE MISS LATENCY PREFETCH: -nan cycles
ITLB AVERAGE MSHR OCCUPANCY: 9.67523e-05
ITLB MSHR FULL: 0
ITLB RQ	ACCESS:   39047984	FORWARD:          0	MERGED:    4743890	TO_CACHE:   34304094

DTLB TOTAL     ACCESS:   38274541  HIT:   38174434  MISS:     100107  HIT %:    99.7385  MISS %:    0.26155   MPKI: 0.500535
DTLB Test counter:          0
DTLB LOAD TRANSLATION ACCESS:   38274541  HIT:   38174434  MISS:     100107  HIT %:    99.7385  MISS %:    0.26155   MPKI: 0.500535
DTLB PREFETCH  REQUESTED:          0  ISSUED:          0  USEFUL:          0  USELESS:          0
DTLB USEFUL LOAD PREFETCHES:          0 PREFETCH ISSUED TO LOWER LEVEL:          0  ACCURACY: -nan
DTLB TIMELY PREFETCHES:          0 LATE PREFETCHES: 0 DROPPED PREFETCHES: 0
DTLB COMMIT LATE PREFETCHES: 0 MISSED OPPORTUNITY: 0 LATE IN PQ: 0 UNCOVERED: 0
DTLB COMMIT LATE MSHR PREFETCHES: 0
DTLB MPKI TOTAL: 0 MSHR LATE: 0 PQ LATE: 0 COMMIT LATE: 0 MISSED OPPORTUNITY: 0 UNCOVERED: 0
DTLB PREFETCHES SAME FILL-ORIGIN LEVEL: 0 DIFFERENT FILL-ORIGIN LEVEL: 0
DTLB AVERAGE MISS LATENCY: 23.7911 cycles
DTLB AVERAGE MISS LATENCY LOAD: -nan cycles
DTLB AVERAGE MISS LATENCY PREFETCH: -nan cycles
DTLB AVERAGE MSHR OCCUPANCY: 0.00618289
DTLB MSHR FULL: 3.87148e-05
DTLB RQ	ACCESS:   41985002	FORWARD:          0	MERGED:    3680744	TO_CACHE:   38304258

STLB TOTAL     ACCESS:     106276  HIT:      96606  MISS:       9670  HIT %:    90.9011  MISS %:    9.09895   MPKI: 0.04835
STLB Test counter:          0
STLB LOAD TRANSLATION ACCESS:     106276  HIT:      96606  MISS:       9670  HIT %:    90.9011  MISS %:    9.09895   MPKI: 0.04835
STLB PREFETCH  REQUESTED:          0  ISSUED:          0  USEFUL:          0  USELESS:          0
STLB USEFUL LOAD PREFETCHES:          0 PREFETCH ISSUED TO LOWER LEVEL:          0  ACCURACY: -nan
STLB TIMELY PREFETCHES:          0 LATE PREFETCHES: 0 DROPPED PREFETCHES: 0
STLB COMMIT LATE PREFETCHES: 0 MISSED OPPORTUNITY: 0 LATE IN PQ: 0 UNCOVERED: 0
STLB COMMIT LATE MSHR PREFETCHES: 0
STLB MPKI TOTAL: 0 MSHR LATE: 0 PQ LATE: 0 COMMIT LATE: 0 MISSED OPPORTUNITY: 0 UNCOVERED: 0
STLB PREFETCHES SAME FILL-ORIGIN LEVEL: 0 DIFFERENT FILL-ORIGIN LEVEL: 0
STLB AVERAGE MISS LATENCY: 155.106 cycles
STLB AVERAGE MISS LATENCY LOAD: -nan cycles
STLB AVERAGE MISS LATENCY PREFETCH: -nan cycles
STLB AVERAGE MSHR OCCUPANCY: 0.0247657
STLB MSHR FULL: 0
STLB RQ	ACCESS:     106276	FORWARD:          0	MERGED:          0	TO_CACHE:     106276

STLB Hit, L1D data hit: 0
STLB Hit, L2C data hit: 0
STLB Hit, LLC data hit: 0
STLB Hit, LLC data miss: 0
STLB STLB hints to L2: 0
L1D TOTAL     ACCESS:   39663711  HIT:   36752833  MISS:    2910878  HIT %:    92.6611  MISS %:    7.33889   MPKI: 14.5544
L1D Test counter:          0
L1D LOAD      ACCESS:   28246228  HIT:   26325250  MISS:    2282733  HIT %:    93.1992  MISS %:    6.80083   MPKI: 9.60489
L1D RFO       ACCESS:   11417483  HIT:   10427583  MISS:     989900  HIT %:      91.33  MISS %:    8.67004   MPKI: 4.9495
L1D PREFETCH  REQUESTED:          0  ISSUED:          0  USEFUL:          0  USELESS:          0
L1D USEFUL LOAD PREFETCHES:          0 PREFETCH ISSUED TO LOWER LEVEL:          0  ACCURACY: -nan
L1D TIMELY PREFETCHES:          0 LATE PREFETCHES: 0 DROPPED PREFETCHES: 0
L1D COMMIT LATE PREFETCHES: 0 MISSED OPPORTUNITY: 0 LATE IN PQ: 0 UNCOVERED: 0
L1D COMMIT LATE MSHR PREFETCHES: 0
L1D MPKI TOTAL: 11.4137 MSHR LATE: 0 PQ LATE: 0 COMMIT LATE: 0 MISSED OPPORTUNITY: 0 UNCOVERED: 0
L1D PREFETCHES SAME FILL-ORIGIN LEVEL: 0 DIFFERENT FILL-ORIGIN LEVEL: 0
L1D AVERAGE MISS LATENCY: 40.5154 cycles
L1D AVERAGE MISS LATENCY LOAD: 22.8652 cycles
L1D AVERAGE MISS LATENCY PREFETCH: -nan cycles
L1D AVERAGE MSHR OCCUPANCY: 0.468007
L1D MSHR FULL: 0.000544132
L1D RQ	ACCESS:   39827392	FORWARD:          0	MERGED:   11011509	TO_CACHE:   28607983
L1D WQ	ACCESS:   13600317	FORWARD:     207900	MERGED:     223298	TO_CACHE:   13377019

L1D UNIQUE REGIONS ACCESSED: 0
L1D REGIONS CONFLICTS: 0
L1D Cross Page Prefetch Requests: 0
L1D Same Page Prefetch Requests: 0
L1D ROI Sum of L1D PQ occupancy: 0
L1D PREFETCHES PUSHED FROM L2C: 0
77e491: 1
7865a0: 1
87de2c: 1
786550: 1
786549: 1
786616: 1
786651: 1
87646e: 1
8764d9: 1
7a4be7: 1
7d8a5d: 1
87a9ce: 1
786840: 1
786850: 1
786969: 1
78651f: 1
77ec3e: 1
77ec56: 1
77ec84: 1
77ec9e: 1
7d85ce: 1
7d9e05: 1
786976: 1
7869e1: 1
7869f1: 1
7869fa: 1
786a0a: 1
786a03: 1
96b870: 1
785909: 1
876366: 1
87bb25: 1
77f524: 1
7a5f6f: 1
7856a9: 1
785761: 1
77acb8: 1
78576f: 1
7da13b: 1
7857ae: 1
7d8868: 1
785860: 1
785859: 1
77fb8c: 1
7859bc: 1
7859c3: 1
7859f9: 1
785b0a: 1
785b21: 1
785c3c: 1
7d8893: 1
872139: 1
7864f2: 1
78966e: 1
77d26a: 1
8727a9: 1
7864dd: 1
7897e6: 1
8763c7: 1
788318: 1
788353: 1
788387: 1
788671: 1
87de40: 1
7896c8: 1
789708: 1
789787: 1
7897aa: 1
789744: 1
789813: 1
78979d: 1
787ce1: 1
78986d: 1
7898d6: 1
7898e5: 1
879e7a: 1
789914: 1
78988b: 1
7d9721: 1
789981: 1
7899f4: 1
789e7e: 1
879c38: 1
789804: 1
87b961: 1
77fdfb: 1
7d8405: 1
77fba8: 1
77fcc0: 1
77fe4e: 1
77fe5b: 1
77b8de: 1
780184: 1
7a4c22: 1
87558d: 1
66335a: 1
7898f9: 1
78fe13: 1
780719: 1
7da4dd: 1
780955: 1
78095c: 1
780a7a: 1
780a83: 1
7d8673: 1
786d93: 1
786dde: 1
787635: 1
787601: 1
7875eb: 1
78768b: 1
86eb2a: 1
879527: 1
879cb4: 1
7a4bd1: 1
78c502: 1
78079a: 1
7d9b44: 1
785c5b: 1
87c091: 1
8758b4: 1
7d8360: 1
874220: 1
87ba18: 1
84824e: 1
7857a7: 1
7d89f5: 1
87578a: 1
7896db: 1
7a4d53: 1
77acb1: 1
785c2f: 1
7d4d5d: 1
87dbf9: 1
91fe07: 1
7d994e: 1
8727b3: 1
87a059: 1
7a482f: 1
7a35dd: 1
8756a3: 1
87bb3a: 1
77ffb4: 1
77b1cc: 1
7d9367: 1
78c3c3: 1
77fb33: 1
87a798: 1
874280: 1
7a419a: 1
87967f: 1
87c0c6: 1
786d9a: 1
87ba20: 1
64bd94: 1
786dd7: 1
879e51: 1
7d9387: 1
78697d: 1
87ba44: 1
87bea9: 1
9203e2: 1
77cead: 1
788511: 1
87ded9: 1
7a485e: 1
8731d4: 1
77b1f9: 1
78c3bc: 1
77e568: 1
77fd98: 1
87ba5f: 1
87573a: 1
789661: 1
65f809: 1
65f064: 1
77d296: 1
789771: 1
66345f: 1
876560: 1
87ce5a: 1
7a4819: 1
8741ea: 1
7800a5: 1
77b8f5: 1
78d20c: 1
87ddeb: 1
830837: 1
7d998d: 1
77cfa1: 1
789831: 1
7a41bc: 1
64d7f2: 1
77d17f: 1
77fe69: 1
872482: 1
7d5690: 1
87a6e3: 1
77b181: 1
86ecea: 1
77acc6: 1
87b8f9: 1
785b39: 1
789780: 1
872302: 1
77d49b: 1
87c082: 1
78769a: 1
875ae2: 1
77ec69: 1
7a4869: 1
7d4cc5: 1
78969b: 1
86eb7e: 1
77d222: 1
8750bc: 1
65f7fa: 1
91fdff: 1
87644b: 1
87ba4c: 1
77dd67: 1
786534: 1
796e29: 1
87ba69: 1
789941: 1
7d99b0: 1
7d89d8: 1
7d8bbf: 1
7a4886: 1
874623: 1
77b442: 1
874670: 1
874838: 1
874730: 1
8747ce: 1
7d92c4: 1
7d92ea: 1
7d93a7: 1
7d940e: 1
7d9679: 1
7d89ca: 1
8750e6: 1
7d9aae: 1
7d9b4b: 1
87ded4: 1
7d9f56: 1
7da0f9: 1
7da10f: 1
7da108: 1
7da2ed: 1
8755e3: 1
8755a5: 1
7da8b2: 1
7da8b7: 1
87bb49: 1
77acf7: 1
77acd4: 1
77acdb: 1
879287: 1
8792be: 1
77af0e: 1
87929b: 1
8794a8: 1
78d0fa: 1
8794e4: 1
78d0e0: 1
78d102: 1
78d246: 1
8757f2: 1
78d4d0: 1
875af7: 1
87428a: 1
87444f: 1
7d833e: 1
7d85a7: 1
7d85af: 1
7d8806: 1
7d885b: 1
7d888b: 1
8744d2: 1
7d8910: 1
78a990: 1
7a48a6: 1
65dc44: 1
8744ea: 1
7a3fc0: 1
7dc82a: 1
7d4cb0: 1
7d4cba: 1
7d4d3f: 1
65e148: 1
7a4005: 1
7a41a1: 1
7a418b: 1
650c46: 1
7a41e1: 1
7a41d2: 1
77d4ab: 1
7a4bbb: 1
830e30: 1
831c78: 1
831e48: 1
65f7ff: 1
8756fa: 1
7a50a0: 1
7a5b95: 1
78c318: 1
7dbb3a: 1
789717: 1
7f9236: 1
7897c8: 1
87c0b9: 1
875852: 1
91fe7f: 1
8758a0: 1
8759aa: 1
8759c8: 1
77b423: 1
876151: 1
87bbe0: 1
873225: 1
87599d: 1
86ebf1: 1
7da426: 1
87c0e7: 1
7d8a39: 1
87c257: 1
6633c2: 1
87cea4: 1
87ce8e: 1
87cf4c: 1
87dddc: 1
86eb63: 1
786d7e: 1
86ebe6: 1
86eca9: 1
86ece3: 1
86ed01: 1
663368: 1
77b899: 1
78c4e1: 1
78c59e: 1
78c5a7: 1
77b1a1: 1
77b1b7: 1
77b46f: 1
77b518: 1
77b769: 1
77b7d6: 1
77b7a2: 1
77b836: 1
77b806: 1
78c46f: 1
77b8c3: 1
77b8ec: 1
8762e6: 1
8765d7: 1
876592: 1
8724b8: 1
876a08: 1
876814: 1
91d8f8: 1
86ef6d: 1
7d9bfe: 1
77b863: 1
78adf2: 1
78af6a: 1
78af76: 1
78b570: 1
879ed5: 1
879ef6: 1
879f2a: 1
87a6f5: 1
87a7ab: 1
87a97f: 1
87465a: 1
64bbed: 1
77e462: 1
77d2bb: 1
879f0b: 1
64e53e: 1
87ba2d: 1
785951: 1
8726af: 1
873d81: 1
78c302: 1
78c35b: 1
876194: 1
78c376: 1
8307bf: 1
8759f4: 1
8780e0: 1
872a24: 1
7d93bd: 1
876553: 1
7da4a3: 1
830714: 1
77d2ac: 1
77d931: 1
77d271: 1
77d2e8: 1
83076d: 1
7da14a: 1
788075: 1
77d2fe: 1
830848: 1
651c29: 1
77d0a2: 1
875599: 1
77dc5c: 1
877412: 1
77df51: 1
879224: 1
77d305: 1
77e459: 1
97acd6: 1
873444: 2
84856f: 2
7a3b7b: 2
872a0c: 2
785f10: 2
787cc2: 2
64b992: 2
64b9c4: 2
665fb9: 2
872dc5: 2
7eed73: 2
77e590: 2
64e44d: 2
650ec2: 2
665fac: 2
7f9467: 2
7f9403: 2
7f9328: 2
64bb44: 2
78f422: 2
7f95f7: 2
7d798d: 2
77f478: 2
87577c: 2
7a4b30: 2
650e9f: 2
7d6948: 2
8727d4: 2
8789ce: 2
8744b7: 2
64be56: 2
64bbd7: 2
788838: 2
92a99a: 2
8726a6: 2
7919ec: 2
7d6941: 2
87896c: 2
66dfa1: 2
791888: 2
64bc87: 2
665f92: 2
650eb4: 2
7d6a1b: 2
794d7c: 2
66df71: 2
87576d: 2
8727c6: 2
878915: 2
77df57: 2
876390: 2
66df83: 2
86e420: 2
77fdc5: 2
7d9319: 2
791880: 2
7d6933: 2
87289d: 2
66df53: 2
8744c8: 2
66322c: 2
66df4b: 2
8726d0: 2
86e433: 2
875886: 2
787bb0: 2
876514: 2
735bc4: 2
86e419: 2
86e40d: 2
77dd71: 2
64b9ab: 2
7d92a4: 2
87c4cf: 3
7d7731: 3
87ce2a: 3
87ce38: 3
77de68: 3
87c32f: 3
7f9657: 3
86e0fc: 3
77dc40: 3
7d94c9: 3
92a755: 3
7f95ec: 3
78eb80: 3
78f376: 3
78f359: 3
8789c9: 3
64e460: 3
7a4540: 3
875fbc: 3
7f9690: 4
7f94a0: 4
87b832: 4
64ba61: 4
64e4f5: 4
7f9241: 4
876f28: 4
77dd7d: 4
7dc769: 4
77d9a7: 4
7f9297: 4
91130e: 5
78d291: 5
64eebc: 5
87b72d: 5
7da2d9: 5
8fa07c: 5
77dd77: 5
92ab0b: 5
77de62: 5
650e55: 5
64b110: 5
874616: 6
780334: 6
797121: 6
87b81d: 7
7da2e3: 7
64bab0: 7
8740c9: 7
91fa1c: 7
91f97d: 7
7d8b74: 7
797f69: 7
91f9a1: 7
77be30: 7
91f9cc: 7
7d9bbe: 7
87a930: 7
877bcf: 7
77e690: 7
77d6e0: 7
8740e2: 7
77adda: 8
87dde2: 8
8797ee: 8
7804d8: 8
77be26: 8
8765fe: 8
87dc62: 8
78679c: 8
87da35: 8
65f874: 8
7919e1: 8
77e8f7: 8
77ade4: 8
830940: 8
7eee2d: 8
78f40b: 8
87b78f: 8
87bc08: 8
87a703: 8
7f92d0: 8
7d9c44: 8
7eeddb: 8
875af1: 8
7eede1: 9
872896: 9
78afc0: 9
7eee32: 9
7da6fb: 9
78d2b4: 9
7da7b9: 10
87b79e: 10
735b7f: 10
77d160: 10
78e386: 11
78b004: 11
78aff4: 11
7f93f8: 11
735bec: 11
797881: 11
7eee0d: 11
7935b6: 12
78afd8: 12
78afec: 12
77e110: 12
78fb4a: 12
78afd0: 13
77c776: 13
91f92f: 13
77b047: 13
7da715: 13
77f45c: 14
78e0d1: 14
78b010: 14
7db387: 14
794ec6: 15
77f457: 15
7eedc4: 15
7eee04: 15
7dafa5: 15
830784: 15
735dcd: 15
77da6b: 15
7db391: 15
77c16b: 16
78f3d0: 16
77d6f2: 16
77c0c6: 16
77c81a: 16
8754ff: 16
97acd1: 16
7a3fd1: 17
873a46: 17
77bf38: 17
7a3fb0: 17
873a52: 17
77bf2b: 17
7db0ed: 17
7eedce: 17
7a3730: 17
7db08d: 17
878052: 18
7d6a12: 18
77dda0: 18
830937: 19
84857a: 19
77d7ca: 19
77d6ea: 19
78ec19: 20
7daf8f: 20
794ec1: 20
87c654: 21
7dc5a9: 21
7911be: 21
87bddd: 21
87bbfe: 22
77d7c0: 22
78f419: 23
7a58e5: 24
77d9bb: 24
7a5905: 24
87b7f5: 24
79508b: 24
79519b: 24
874960: 24
796b8b: 25
87bde5: 25
77fd90: 25
77af03: 25
8764d0: 25
7a5915: 25
77e560: 25
78050e: 26
8747a0: 26
920383: 26
875880: 26
787b15: 26
87be0d: 26
65ebd9: 26
78f3eb: 26
77ee8a: 26
797d89: 26
87dca3: 26
77d176: 26
785eb5: 26
77e6d8: 26
77d169: 26
830869: 27
780508: 27
77d9b0: 27
87b73c: 27
87cf00: 27
875893: 27
7d90f5: 27
77dbcb: 27
77bf20: 27
787b10: 27
87dc90: 27
785eb0: 27
77c77b: 27
875730: 27
77db1b: 27
7a3e90: 27
7d8f05: 27
8744b0: 27
7d8990: 27
7da3b0: 27
86d9a4: 27
7d99f0: 28
875b20: 28
77c9ab: 28
7d8fdf: 28
7d9909: 28
7d992d: 28
875f2a: 28
7951e7: 29
77db10: 29
875ffa: 29
875f3a: 29
792d3e: 29
875f85: 29
78fb68: 29
7d8def: 29
792cf2: 29
8789a8: 29
875fc9: 29
875f12: 29
650f30: 30
77ee6a: 30
77da60: 30
87889c: 30
77ee6e: 30
878895: 30
79337e: 30
77cd43: 30
77c230: 30
875f63: 31
875fae: 31
87ab11: 31
65ec16: 31
78fb2b: 31
77dbc0: 32
7919db: 32
77c81e: 32
7d5526: 32
793c6b: 32
77ca4e: 32
87aac3: 33
78f402: 33
735e05: 33
735df2: 33
64b3ad: 34
77c16f: 34
64bcd0: 34
77c0cb: 34
735bfc: 34
77c2da: 34
735ddc: 35
735c13: 35
77c37e: 35
8fa04a: 37
78090a: 37
874946: 37
7a3933: 37
87984c: 37
7803b0: 37
7dbda2: 37
64c2f0: 37
8736f3: 39
92a683: 39
92a697: 39
400500: 39
873a5a: 39
92a68b: 39
8747d4: 39
87368f: 39
873703: 39
8737ab: 39
794dac: 40
78c0ee: 41
78c166: 41
78c1ed: 41
87498f: 41
78bf81: 41
78c0e6: 41
78bfa4: 41
797870: 41
77af73: 43
797591: 43
7dbdd0: 43
876f00: 43
64b3c0: 43
80db57: 43
797580: 43
879b68: 43
7dbde1: 43
78c038: 44
793b89: 44
7db037: 44
87a89e: 44
65eeb6: 45
780520: 45
7d567a: 45
794df8: 45
87bbed: 46
792b6c: 46
794d47: 46
78a3ab: 46
78a3bd: 46
65eeb1: 47
78bfac: 47
7a1bac: 47
7a38f2: 47
8730b7: 47
7a0f43: 48
7a264b: 48
877bbd: 48
7d55e6: 49
794d6d: 49
64a2d5: 49
87b80f: 49
78ebb9: 50
64b51b: 51
8756d2: 51
64bced: 51
7a0fa9: 52
792ba3: 52
877c3c: 52
8733f4: 52
7d9cfa: 52
875914: 53
875925: 53
64c277: 53
87921c: 54
879cb0: 54
87594b: 54
875958: 54
78b560: 54
8758d9: 54
8761e0: 54
879218: 54
8761e8: 54
8763aa: 54
87480b: 54
7db248: 54
8758bc: 54
874802: 54
65f056: 54
8763bd: 54
8748c2: 55
7a4000: 55
7a4ee5: 55
8763ec: 55
873220: 55
780180: 55
7a4b35: 55
786800: 55
78681f: 55
7a4ef2: 55
8762e0: 55
7a4b41: 55
7d55bc: 55
8748cb: 55
8775df: 55
87486a: 55
7d88d0: 55
8792ce: 55
874873: 55
77ce08: 56
7919f6: 56
7db360: 56
77cd47: 56
8797cd: 56
7d6a25: 56
7dbbe9: 57
735b02: 57
7a1c20: 57
873504: 57
7dbc00: 57
87a777: 57
878aab: 57
7803d0: 57
7a0f88: 57
8733b6: 58
876f2d: 58
7801f4: 58
848588: 58
848010: 58
7a5ecd: 58
7a35e5: 58
876e95: 59
7a25f9: 59
877ef5: 59
8797df: 59
8751b4: 59
7a1e64: 59
7a2571: 59
7a35c7: 59
7da9ea: 59
7a375d: 59
7a3900: 59
7a396e: 59
7a3bf0: 59
7a25bc: 59
7a3c15: 59
7a1e2b: 59
8754ca: 59
875193: 59
877baf: 59
877b40: 59
7da962: 59
873344: 59
873468: 59
7a3726: 59
7a1e90: 59
87779d: 59
877bc5: 59
7a34c0: 59
877b9f: 59
877e9f: 59
7a34b2: 59
7a34b9: 59
7a2957: 59
7a2a60: 59
87763c: 59
874136: 59
7a2927: 59
7a28fb: 59
7a25b1: 59
877be8: 59
7a1e9f: 59
7a1592: 59
7a157c: 59
7a2e8e: 59
7a0f59: 59
7a0fc9: 59
87a0f0: 59
7a0fbb: 59
7a58b4: 59
7a2911: 59
9203c4: 59
77c445: 59
873c14: 59
7dae57: 59
874113: 59
7a15f1: 59
87518e: 59
8787bd: 59
8787b6: 59
77c234: 59
877f01: 59
7802bd: 59
78028d: 59
7802df: 59
8740b4: 59
7802c5: 59
7a3ba7: 59
7802cf: 59
877fb4: 59
87410b: 59
8740a4: 59
7a1e3a: 59
7a2587: 59
7a3949: 59
7a25d9: 59
877c24: 59
7a15a8: 59
7a2d9e: 59
7da99d: 59
7a15dc: 59
87344c: 59
7a1fa3: 59
7a3ea5: 60
7dae1e: 60
875170: 60
7daed2: 60
7dae3d: 60
7daedf: 60
828480: 60
7db1fa: 60
7db2d0: 60
7db3e0: 60
8e3bb5: 60
7db6a9: 60
8756e0: 60
87517d: 60
7dae30: 60
8754f1: 60
7a3efd: 60
7dae87: 60
87519b: 60
7da9b6: 60
87b331: 60
87b3c8: 60
64bd90: 60
87a770: 60
830697: 60
7da9e3: 60
87b342: 60
7db129: 60
7dab41: 60
7dad22: 60
8756e8: 60
7db412: 60
7dacde: 60
875472: 60
97a5f0: 60
87a7be: 60
7da953: 60
7daa21: 60
7daa63: 60
7daa9f: 60
7db214: 60
872f84: 61
873f93: 61
7daefd: 61
87481f: 61
920467: 61
91fa93: 62
873f31: 62
92045b: 62
920473: 62
91fb3d: 62
91fb2f: 62
873fd1: 62
8730a0: 62
8748de: 62
873fc1: 62
873f8b: 62
87488a: 62
873f26: 62
87dc9a: 62
873ec4: 62
7dae4a: 63
794f93: 63
790fa4: 63
78fb33: 64
7d6a0b: 64
7973a0: 65
650f5a: 65
650361: 65
650354: 65
797389: 65
875120: 66
792ff3: 66
7d90dd: 67
65f7f5: 67
7d8eed: 67
7d8dde: 68
8308e9: 68
7d8fce: 68
91f8d6: 69
77e11d: 69
91f826: 69
91f83d: 69
4004b0: 69
91d80c: 69
91d800: 69
8650bf: 69
794d33: 69
786349: 69
794dee: 69
91d7f0: 69
7d5d96: 69
78e0c7: 70
7d4e97: 70
78da60: 71
8308e0: 71
794a03: 72
796c59: 72
64b68d: 72
7d5ab0: 72
79494a: 72
7948aa: 73
79496f: 74
78d312: 74
794e16: 74
7948b2: 74
78d237: 74
794988: 74
78d279: 74
794976: 74
7948c4: 74
78da21: 74
78d1e8: 74
790f89: 74
7948a3: 74
790f81: 74
78e314: 74
78d1fe: 74
78d21b: 74
78f785: 74
78da63: 74
78da6e: 74
794896: 74
78d288: 74
78d3aa: 74
78d4e6: 74
78f068: 74
79492c: 74
78d344: 74
78d299: 74
78da4a: 74
78d255: 74
796c68: 74
78d37e: 74
78e342: 74
78da88: 74
78d3e2: 74
78e31d: 74
785fa1: 75
64e9f5: 75
7d5de3: 75
785f6e: 75
650dc1: 75
785f7b: 75
64f598: 75
650d95: 75
848564: 75
64e9e5: 75
650e5a: 75
7d5dc5: 75
650dcf: 75
7d5d26: 75
78d1a8: 76
78eeb2: 76
78fb86: 76
790120: 76
78ff2d: 76
64ef56: 76
795b45: 76
794fcc: 76
78ded1: 76
794d5e: 76
78f584: 76
78dd9d: 76
78e70b: 76
78deb5: 76
795b65: 76
790205: 76
95f96f: 76
78ff0f: 76
86ed52: 76
78ff3c: 76
78e66e: 76
78ff78: 76
78fef1: 76
78dee3: 76
7900b7: 76
794c02: 76
78e402: 76
78eef0: 76
7aa436: 76
78ee86: 76
78dea7: 76
78e6d3: 76
80deb6: 76
795451: 76
78df0e: 76
78573a: 76
785fc6: 76
7900f3: 76
78e7cc: 76
78e753: 76
96175b: 76
794c49: 76
790012: 76
7901f6: 76
790021: 76
80dea7: 76
78fee2: 76
78e73d: 76
795914: 76
7d5cab: 76
7862ee: 76
78f50f: 76
78ff96: 76
78e7bc: 76
78fec8: 76
786387: 76
78e6e9: 76
7900d5: 76
78e7a6: 76
7d5e54: 76
650cdc: 76
78e766: 76
795b7b: 76
95faa2: 76
87b670: 76
78e3a8: 76
7aa43e: 76
78e3b7: 76
78e3e4: 76
795f1a: 76
7950fa: 76
78f4f9: 76
795fa8: 76
78fe06: 76
864e7b: 76
78f566: 76
7d5d53: 76
78fe28: 76
78f5ed: 76
78e04e: 76
79007b: 76
794ff0: 76
790099: 76
7950d6: 76
78fe36: 76
79531d: 76
7953f5: 76
795627: 76
795b2b: 76
95fa42: 76
7d5e79: 76
95f9fa: 76
961866: 76
795c7e: 76
78e34c: 76
7953fd: 76
79543b: 76
78fff4: 76
78d175: 76
78ed53: 76
7d5e36: 76
795fa0: 76
795458: 76
790111: 76
7862ad: 76
95faa8: 76
96179f: 76
78fe62: 76
78fe1a: 76
78fb59: 76
78fe44: 76
78e6f0: 76
848259: 76
80c6a9: 76
78eb41: 76
80c6b8: 76
78ee94: 76
78e71f: 76
78f597: 76
78f5f5: 76
78f548: 76
65e162: 76
78eea3: 76
78fb1c: 76
78f5d7: 76
650d14: 76
7901d8: 76
8650df: 76
796a6b: 77
864e58: 77
65eb8c: 77
7f91cb: 77
960100: 77
64f893: 77
64b43f: 77
796078: 77
86d6c0: 77
64b4cc: 77
64f4e0: 77
86de0d: 77
7d5ecb: 77
65df90: 77
66028f: 77
64b491: 77
64f427: 77
6643a2: 77
80dc66: 77
65f7d3: 77
64b336: 77
7d4fe5: 77
86d702: 77
848228: 77
7972cf: 77
7d5a5b: 77
6645b8: 77
665841: 77
650fb9: 77
97a40a: 77
7a896c: 77
64b34f: 77
64f57f: 77
64b4a4: 77
7de789: 77
7d4ed6: 77
872b2c: 77
7d5ee9: 77
80c4f7: 77
64c43b: 77
7d5701: 77
65dce6: 77
6656b8: 77
97a406: 77
6632fc: 77
6656cd: 77
7960ab: 77
797fe0: 77
64fa69: 77
872b4b: 77
64f7b4: 77
64b4b9: 77
7d5746: 77
649fad: 77
7d538f: 77
64b485: 77
65e73d: 77
64b403: 77
7d53ff: 77
7d5710: 77
7d57c2: 77
961615: 77
7d4e3c: 77
65f7d9: 77
64e422: 77
86d68c: 77
64b421: 77
80db62: 77
64fb17: 77
7d53e2: 77
960bb5: 77
64b58b: 77
64b34a: 77
65f3bc: 77
650419: 77
7d5589: 77
7d53db: 77
796588: 77
791529: 77
798255: 77
7a8ad7: 77
6510b2: 77
7965bb: 77
7969c0: 77
64b47b: 77
663515: 77
96161a: 77
8e3fff: 77
7d5638: 77
7d53c5: 77
64e4ac: 77
7d5036: 77
65f81f: 77
7d5380: 77
86e14e: 77
7972c7: 77
64b45d: 77
64fa74: 77
8309ad: 77
80c51f: 77
64b18c: 77
796da8: 77
86d6f8: 77
64ffa9: 77
86d72e: 77
64ae29: 77
65e682: 77
7a8940: 77
64d82d: 77
80dc3f: 77
64f4d0: 77
6994f4: 77
86da2b: 77
830e89: 77
86d73b: 77
66354a: 77
961603: 77
831a64: 77
86d750: 77
7d5a53: 77
7d4e0f: 77
7d5d08: 78
848052: 78
9773ce: 78
650f50: 78
86d9a9: 78
873126: 79
64b5b8: 79
78ecdb: 80
825c5b: 80
84803f: 80
78ed13: 80
827628: 82
7d5d8f: 83
7d5d71: 83
7d565b: 83
7d5e18: 84
864e74: 85
78eda9: 85
735c27: 85
78e0be: 86
78ed74: 86
78edc2: 86
7d561a: 87
86507c: 87
794e55: 87
7d5eb5: 88
9773f5: 88
7964b0: 89
7d78e2: 91
7934fd: 93
7914b0: 96
78eca7: 99
7d780e: 99
78e0da: 100
649c82: 103
7d65e8: 105
7d78ae: 106
7a44d4: 107
794e24: 107
64b114: 108
792462: 109
64b5b0: 109
872dc0: 110
64bb40: 110
7d78a6: 110
64e51b: 111
64a26a: 111
7d7701: 112
7d78fc: 113
64b8f4: 113
7d76eb: 113
792c1b: 115
77d920: 116
780395: 119
873e84: 119
64b674: 119
7daf3c: 120
873da6: 121
793410: 122
7a1d4b: 123
7daf0b: 125
79243e: 126
78c020: 127
77dc4b: 127
920405: 127
78c0c0: 130
78c050: 131
78c090: 132
8d02f2: 132
78bfc0: 132
64b65b: 133
91d8ac: 136
84234b: 136
8e38c0: 137
97a5f3: 137
8e33fc: 137
8d02d1: 137
87a934: 140
792b64: 141
831ae1: 142
78f430: 143
64b61f: 145
7d7980: 148
794797: 151
786250: 151
78ee12: 152
78edfc: 152
795fa4: 152
78ed3b: 152
8e4089: 153
8e3ef8: 154
97a431: 154
7964b4: 154
649bdb: 154
7969c4: 154
8650d8: 154
97a434: 154
793cb3: 155
7a2871: 157
864e32: 157
864e51: 160
920365: 160
64bcf1: 162
65f0c4: 162
7919d0: 162
87c4b0: 162
7d6a17: 162
87c4be: 162
64bc3c: 162
7d6a00: 162
827b90: 163
64be80: 164
64bc30: 165
87c4b8: 165
7919e7: 168
78c070: 173
78bf90: 173
7d5675: 173
64b180: 175
78bff0: 176
7a38a0: 177
64a4ab: 177
7a38c0: 177
7a3860: 177
7a3840: 177
7a3800: 177
827855: 179
827931: 179
82794d: 180
793ccc: 181
793c86: 187
97a6e3: 190
87bfc4: 194
91d8be: 200
64becb: 203
64b783: 211
848130: 216
84804a: 217
793065: 222
79153b: 222
78f3e1: 225
831a20: 228
7f91b9: 229
5416d0: 230
5416e3: 230
7d73d0: 230
5416e9: 230
649d16: 231
64a605: 231
831990: 231
64a587: 231
64a622: 231
64a637: 231
864e5b: 231
64a596: 231
831930: 231
649cdb: 231
649d25: 231
64a5ac: 231
649cb6: 231
64a5d1: 231
831a50: 231
8319c0: 231
649c91: 231
847fed: 231
649d3b: 231
64a613: 231
649d42: 231
649ccc: 231
649ca7: 231
649d00: 231
64a5e0: 231
64a5bb: 231
7d65fb: 233
8751e0: 235
7a3880: 236
7a3820: 236
7a37e0: 236
7d561f: 237
650060: 237
827640: 237
86507f: 237
787bb4: 240
7887c0: 240
78dc10: 245
78fcd7: 254
977420: 254
7a3b46: 258
977500: 260
8273c4: 261
827556: 262
7a3de6: 270
8e3ba1: 274
7db6a0: 283
8262ad: 286
92a732: 293
78f3f4: 294
848031: 295
82741e: 297
8319f0: 306
831960: 308
831900: 308
865075: 308
7dafd7: 308
864e8d: 311
5416a0: 314
5416b9: 314
825bdc: 314
5416b3: 315
864e3f: 316
827465: 318
8274f9: 319
8274c4: 319
5e95e0: 320
8276d4: 320
97985d: 323
64ba08: 324
64ba18: 324
4004f0: 330
64ba00: 330
825be2: 336
87bea0: 345
78f309: 346
7a2270: 347
64e538: 351
873899: 357
8737b3: 357
7db2d9: 360
64e4c6: 371
794f13: 372
825d78: 379
864e92: 379
827391: 379
825e03: 380
825cf3: 380
865011: 383
7de7ae: 385
7de781: 385
864e9a: 388
8273ea: 388
825c63: 392
7d563d: 405
848567: 408
7dbbe0: 420
7db2f0: 420
7f958c: 423
7eedb0: 423
7eee1a: 423
87bee9: 434
875573: 441
84855c: 444
7eedb7: 444
7eee20: 444
879bd0: 453
78f3bf: 456
791557: 458
864ea8: 460
865020: 460
865091: 460
864f2c: 460
96159e: 461
64e401: 462
961597: 468
7f93b0: 485
7955ad: 491
7dbbf2: 493
7955a3: 504
84854e: 508
7f9580: 514
797392: 519
78e5f0: 522
848572: 522
848021: 524
9600e1: 529
78f990: 530
78f8c0: 532
64e521: 538
64e411: 539
78f324: 559
843064: 568
7d6610: 569
9636b4: 580
78fcfa: 584
64b1f0: 588
879be8: 606
7f91ee: 611
961641: 620
9636a0: 623
78f367: 627
963689: 636
963d00: 636
9636c9: 637
96156e: 638
78fd39: 660
847ff8: 660
875601: 660
87a910: 661
7eed90: 693
78fd15: 730
735b4f: 757
64ace1: 757
735b8c: 775
735b6d: 802
735bb2: 820
7db980: 822
78f340: 830
7a1c88: 845
7db02d: 845
7dafcd: 845
7a1c08: 845
7db0f7: 886
794f0b: 896
794f8b: 896
78633c: 920
7863fc: 920
7f9229: 923
7d4f4b: 928
7d4e8b: 928
879630: 944
7d65b3: 944
7a3a67: 965
780383: 984
78d8b4: 991
786404: 1005
84305d: 1011
7d4f53: 1012
65035d: 1014
7951a3: 1028
7d4e83: 1052
7db097: 1067
7a3cf7: 1087
78037a: 1090
879642: 1096
650e40: 1125
7f93eb: 1132
650350: 1155
797380: 1155
873df4: 1157
64a109: 1171
735d6c: 1190
7d5955: 1193
780707: 1261
878018: 1263
780a19: 1263
87da67: 1263
87a86a: 1283
78039a: 1292
7d592f: 1299
831ac2: 1307
7eedee: 1334
7eed9d: 1334
795093: 1345
7eeda7: 1363
735d92: 1368
7eedf7: 1369
735d4d: 1422
786344: 1426
735d2f: 1427
7d4e93: 1437
9774bc: 1476
9774c3: 1476
842355: 1483
7f95df: 1493
79309d: 1554
793ca5: 1554
791569: 1554
78fd08: 1554
879e61: 1560
7d6622: 1575
7d7405: 1575
7d78d2: 1575
878014: 1593
7a1c00: 1593
780370: 1593
78fcf1: 1596
64aa49: 1617
7dafc3: 1620
7db2eb: 1620
878860: 1649
879e40: 1652
873160: 1674
794ce8: 1717
7d6609: 1718
977492: 1725
977499: 1730
7a11d0: 1746
831bbd: 1766
873101: 1813
875569: 1828
64a414: 1848
7861f5: 1950
87aa38: 1974
795f0c: 1976
795efe: 1976
97a6e0: 1981
79640e: 1988
79641c: 1996
79691e: 2002
79692c: 2002
92a76e: 2019
7861f0: 2024
64ebc4: 2025
86da84: 2036
795f07: 2052
794f03: 2052
786334: 2052
795ef9: 2052
87b872: 2064
796919: 2079
796927: 2079
7a89a0: 2079
64b3a0: 2079
875580: 2080
796409: 2081
796417: 2085
64a40e: 2086
848295: 2156
8481e4: 2156
64a0d4: 2241
7d65b9: 2321
794cd6: 2326
7d6596: 2432
64a104: 2437
794c55: 2452
7914f2: 2538
7914d0: 2548
77e1b9: 2567
64acc0: 2581
77e3c9: 2582
77e319: 2583
77e1b5: 2583
77e269: 2598
78e033: 2640
794c82: 2660
794bdf: 2662
794c39: 2724
7dc3f9: 2737
7dadb4: 2750
7dad9b: 2759
7dadc6: 2760
64e4ef: 2786
831bb0: 2797
7dad14: 2813
7dad71: 2817
7dacd1: 2818
7dacbf: 2819
7dad5c: 2819
7dad2e: 2820
7dacfc: 2820
86da91: 2824
873458: 2838
794cbd: 2888
64a0f2: 2914
873c80: 2942
873ce0: 2942
92a744: 2957
794c97: 2974
794bf3: 2978
7a5e50: 3014
64b270: 3071
7a1d24: 3079
7a5e63: 3103
788765: 3120
787b1e: 3120
873440: 3121
788760: 3122
787b19: 3122
87dd00: 3124
87351c: 3147
64e4cc: 3153
64e3e3: 3154
64e3d0: 3155
873500: 3156
7a5d80: 3165
87bec9: 3173
87bedf: 3173
87beb2: 3174
794c20: 3181
875614: 3181
876eb5: 3186
7a5cd0: 3186
87ab70: 3186
7a5ab0: 3186
8780d4: 3186
879635: 3186
873454: 3186
7a1514: 3186
873514: 3186
877630: 3186
877c20: 3186
876eb0: 3186
879647: 3186
876ec2: 3186
876ec7: 3186
877634: 3186
87bc30: 3186
7a1b44: 3186
873340: 3218
87565c: 3225
64aa53: 3234
875625: 3235
7a11d5: 3235
7a3565: 3238
8755b1: 3239
879840: 3240
875682: 3240
87a740: 3240
87b320: 3240
87aa30: 3241
87564b: 3241
7a2882: 3243
7801f0: 3243
7a58b0: 3245
7a1825: 3245
7a3571: 3245
7a2876: 3245
7a2bf3: 3245
7a2be6: 3245
7a5cd4: 3245
8755ce: 3256
64a0bc: 3268
87b869: 3294
7db16d: 3300
7db1cd: 3300
7d78a0: 3310
78d90a: 3318
873e00: 3355
872f80: 3463
64b810: 3499
7d73e6: 3501
7d6584: 3533
7d78ec: 3554
7d58f6: 3559
7d73a7: 3562
78fa3f: 3572
78fa08: 3572
64a9f1: 3580
78f9ed: 3595
78d8f1: 3600
78fcd2: 3616
7d597d: 3619
797bc9: 3639
78f90a: 3648
78fa8b: 3648
78f9ac: 3648
78f9d1: 3648
78fa57: 3648
78f968: 3648
78fa6a: 3648
64a9bc: 3652
8306d0: 3672
7d59b0: 3696
7d5915: 3696
7d5947: 3696
64b828: 3704
7d7382: 3838
64a9d3: 3878
78f305: 3924
78d8c1: 3996
78f160: 3996
78d917: 3996
78eaf9: 4006
78e540: 4010
78e00c: 4018
78ea64: 4025
78ead7: 4028
78ebf4: 4028
78ebb0: 4028
78eb11: 4028
78eb31: 4028
78eaa1: 4028
78ec46: 4028
78ec2e: 4028
78e5e0: 4033
78e01e: 4034
78d86c: 4045
78d8e1: 4046
78d898: 4046
64e97d: 4050
78d804: 4052
78d856: 4053
78d840: 4053
78d81b: 4053
7d55d7: 4066
78d8fa: 4070
78d932: 4070
78d8aa: 4070
78d883: 4070
78f165: 4070
7d5544: 4073
78e045: 4080
7d55aa: 4081
64ea30: 4087
7d556d: 4087
86da89: 4098
64f830: 4158
64f7bc: 4158
651046: 4158
651039: 4158
64f7b0: 4158
86de69: 4169
795249: 4180
7952d8: 4180
86da8d: 4203
830a00: 4235
797110: 4235
6645d6: 4235
796e20: 4235
64a0b6: 4371
8e3f10: 4429
7d65d1: 4435
7d7354: 4493
793c80: 4698
64a0b0: 4727
792816: 5039
64a15c: 5066
65ebd0: 5171
7914ec: 5190
64a9ea: 5201
64aa02: 5205
7914aa: 5299
792fa1: 5301
64a0ce: 5348
79307b: 5362
793888: 5363
793cbd: 5389
79303b: 5398
7927ea: 5403
793847: 5484
7914bd: 5518
64aa40: 5603
8e40a7: 5738
65f374: 5941
79286a: 5968
792feb: 5972
792fb4: 5974
791551: 5976
792835: 5977
793802: 5981
791512: 5982
7937ca: 5986
793ca0: 5989
7914fc: 5994
793c95: 5994
7914e2: 5994
793026: 5994
792fd9: 5994
7d65a9: 6067
7d7378: 6070
7d78cb: 6075
7d65c3: 6075
7d78d8: 6075
7d78be: 6075
7d7391: 6075
64b8f0: 6176
64a9e4: 6190
793caa: 6216
64a0e6: 6237
64a0ec: 6258
78680d: 6361
7867f0: 6361
64a140: 6468
78bcdc: 6481
78be2c: 6481
873e70: 6595
786816: 6600
7867f8: 6600
64acdc: 6989
843168: 7198
64a9b6: 7339
64a9b0: 7737
64a9cd: 7848
78f332: 7848
78dcf0: 8140
64ffb1: 8316
650071: 8316
7d5994: 8399
7d59be: 8501
7a88f4: 9141
7a2214: 9388
87c89e: 9558
87c8a3: 9558
78fd47: 10667
78fd2c: 10711
78fccd: 10944
64b718: 11662
64b724: 11664
64b82c: 11664
64b710: 11880
78f300: 11884
7d557c: 11888
78f31a: 12075
7d5556: 12176
64bf00: 12312
65f370: 12427
65e6f9: 12474
65dca0: 12474
64bf70: 12495
78e5e8: 12540
78e549: 12540
7a88f0: 12551
65e6f0: 12551
872bd4: 12705
97751b: 15227
977406: 15388
848138: 18676
8306df: 20297
825ca0: 22829
825db0: 27946
848660: 63834
848668: 79871
L1I TOTAL     ACCESS:   38999992  HIT:   38885187  MISS:     114805  HIT %:    99.7056  MISS %:   0.294372   MPKI: 0.574025
L1I Test counter:          0
L1I LOAD      ACCESS:   38999992  HIT:   38885187  MISS:     162797  HIT %:    99.7056  MISS %:   0.294372   MPKI: 0.574025
L1I PREFETCH  REQUESTED:          0  ISSUED:          0  USEFUL:          0  USELESS:          0
L1I USEFUL LOAD PREFETCHES:          0 PREFETCH ISSUED TO LOWER LEVEL:          0  ACCURACY: -nan
L1I TIMELY PREFETCHES:          0 LATE PREFETCHES: 0 DROPPED PREFETCHES: 0
L1I COMMIT LATE PREFETCHES: 0 MISSED OPPORTUNITY: 0 LATE IN PQ: 0 UNCOVERED: 0
L1I COMMIT LATE MSHR PREFETCHES: 0
L1I MPKI TOTAL: 0.813985 MSHR LATE: 0 PQ LATE: 0 COMMIT LATE: 0 MISSED OPPORTUNITY: 0 UNCOVERED: 0
L1I PREFETCHES SAME FILL-ORIGIN LEVEL: 0 DIFFERENT FILL-ORIGIN LEVEL: 0
L1I AVERAGE MISS LATENCY: 49.4568 cycles
L1I AVERAGE MISS LATENCY LOAD: 49.4568 cycles
L1I AVERAGE MISS LATENCY PREFETCH: -nan cycles
L1I AVERAGE MSHR OCCUPANCY: 0.00444663
L1I MSHR FULL: 0
L1I RQ	ACCESS:   60596711	FORWARD:          0	MERGED:   21548727	TO_CACHE:   39047984

7a2f40: 1
876501: 1
876584: 1
7a2d06: 1
78c181: 1
8765c0: 1
7a2d42: 1
876603: 1
786a41: 1
78c200: 1
8767be: 1
8764c0: 1
876e83: 1
876ec2: 1
77c3c0: 1
8772c0: 1
877343: 1
785b83: 1
8775c1: 1
8775b5: 1
877607: 1
8762d0: 1
873d80: 1
87bac3: 1
87ba85: 1
87bb15: 1
78a641: 1
876160: 1
876184: 1
8761c3: 1
7a4ee0: 1
876303: 1
7a3100: 1
7a1140: 1
64bdc0: 1
78bf44: 1
87bb86: 1
876403: 1
77b8c3: 1
876442: 1
77c58b: 1
876485: 1
4004b0: 1
77e880: 1
878045: 1
8780c1: 1
7a4882: 1
878880: 1
7a5002: 1
77dd40: 1
878a83: 1
8fa290: 1
91fc40: 1
877fc2: 1
87d9c3: 1
91f884: 1
874882: 1
91f901: 1
91f943: 1
91f9c8: 1
91fa01: 1
91fa41: 1
91d7c0: 1
873ec2: 1
872af3: 1
877644: 1
877780: 1
8777c1: 1
77cc81: 1
877b30: 1
7a5bc4: 1
877b81: 1
873e00: 1
873e80: 1
873cc2: 1
874084: 1
874180: 1
877bc5: 1
877c44: 1
877e8b: 1
877f01: 1
877f40: 1
877f81: 1
786584: 1
7808c5: 1
789d07: 1
77e100: 1
8734c3: 1
873500: 1
873540: 1
789dc6: 1
8735c1: 1
77e240: 1
873641: 1
8736ab: 1
873481: 1
7db387: 1
8736c2: 1
787c03: 1
8787c4: 1
786d86: 1
873741: 1
787981: 1
7a5682: 1
77e3c0: 1
796b00: 1
87b843: 1
78bc81: 1
87b888: 1
87b8c6: 1
7a1c00: 1
873286: 1
7a5443: 1
8279c2: 1
77b406: 1
7a2707: 1
8737c5: 1
827b40: 1
827b80: 1
786542: 1
827bc0: 1
8732c2: 1
873307: 1
7dc509: 1
91f8c3: 1
873386: 1
873b40: 1
7a3b40: 1
92a683: 1
92a6c2: 1
878947: 1
7a3c40: 1
92a783: 1
788545: 1
9112f0: 1
912888: 1
7a2502: 1
7a5cd0: 1
78a3c6: 1
873b80: 1
7a5ac1: 1
876df6: 1
873bc0: 1
7dbc00: 1
7d89ca: 1
873c00: 1
873c80: 1
873a01: 1
77e444: 1
873800: 1
873880: 1
78a106: 1
8738c0: 1
873900: 1
873940: 1
87b707: 1
873980: 1
91d882: 1
8791c0: 1
873a40: 1
787c80: 1
7a5981: 1
8fa010: 1
400500: 1
87c101: 1
92a630: 1
92a640: 1
87be81: 1
876103: 1
91d800: 1
78bd00: 1
87bbc1: 1
7a2b84: 1
786840: 1
87bc81: 1
786900: 1
7da400: 1
87bddd: 1
8760c0: 1
7a2e44: 1
87bee9: 1
87bf0e: 1
87bf46: 1
735ae0: 1
735b84: 1
7898c7: 1
77dcc0: 1
735bc4: 1
77ae80: 1
8756c0: 1
8757c0: 1
7a4d40: 1
875847: 1
875880: 1
875981: 1
7d81f0: 1
8759c0: 1
78c246: 1
874645: 1
96b842: 1
875a03: 1
875a41: 1
7a21c3: 1
7806c0: 1
875b41: 1
875b80: 1
875eb0: 1
875f80: 1
876081: 1
87d842: 1
87c85f: 1
77f784: 1
87c880: 1
9773c0: 1
87c8c2: 1
87ce86: 1
87cec5: 1
87cf46: 1
7a3280: 1
87d81d: 1
87c800: 1
87d881: 1
77d582: 1
87d8c5: 1
64be80: 1
87da42: 1
7886c1: 1
87dac0: 1
87db03: 1
788782: 1
87c3c1: 1
7dbec1: 1
87bf83: 1
87c042: 1
7a4a01: 1
77bd43: 1
664f8b: 1
87c082: 1
87c0c6: 1
87c181: 1
87c381: 1
7d97c3: 1
87c441: 1
87c49d: 1
874740: 1
87c4c7: 1
87c544: 1
77c245: 1
87c5c3: 1
87c602: 1
87c645: 1
874200: 1
879240: 1
78a307: 1
7a5543: 1
787842: 1
879280: 1
78a347: 1
8792c6: 1
7a55c5: 1
879302: 1
7a5a84: 1
7a5503: 1
874240: 1
91fb00: 1
91fef8: 1
920442: 1
920480: 1
86eb85: 1
7a5e05: 1
7a2be1: 1
874280: 1
7a4781: 1
91d941: 1
91fac1: 1
91fd10: 1
878ec2: 1
7a2420: 1
878eb0: 1
77bb81: 1
873f04: 1
8725e9: 1
872603: 1
874503: 1
8729c2: 1
87d940: 1
86eb15: 1
77d641: 1
879140: 1
830740: 1
8307c9: 1
830883: 1
830940: 1
8754c7: 1
78a601: 1
8750b4: 1
7a13c3: 1
875100: 1
7a1882: 1
875142: 1
875184: 1
875483: 1
780102: 1
7a49c0: 1
874a04: 1
875507: 1
7a1000: 1
875580: 1
7d9701: 1
8755c2: 1
875601: 1
780280: 1
875642: 1
785a80: 1
874802: 1
8fa603: 1
874600: 1
874683: 1
92a702: 1
8746c6: 1
874701: 1
8747c1: 1
7a0f43: 1
78bcd0: 1
87b7c4: 1
874840: 1
7a0fc2: 1
8748c2: 1
7a1044: 1
874900: 1
874984: 1
874946: 1
8749c0: 1
7d8b41: 1
87a965: 1
78bec4: 1
78a507: 1
77e344: 1
7a0d80: 1
7db682: 1
7a5400: 1
827981: 1
77cecb: 1
91daf8: 1
87ba44: 1
77c184: 1
87cf00: 1
77cc01: 1
7db2c2: 1
7a3502: 1
7a5583: 1
8724c3: 1
873780: 1
788600: 1
7a5342: 1
879e00: 1
876547: 1
7a2040: 1
7d9980: 1
77df00: 1
77aec0: 1
91fe07: 1
87c247: 1
8744c0: 1
86ed01: 1
780806: 1
7a4743: 1
812aaa: 1
77f2c0: 1
7d87c2: 1
77b082: 1
7a3301: 1
87b480: 1
786882: 1
7a4e02: 1
7a4c04: 1
87da85: 1
7d8740: 1
7a3581: 1
787c40: 1
787683: 1
879840: 1
7a5b03: 1
873400: 1
87c580: 1
7d9288: 1
77f3c4: 1
77b985: 1
877300: 1
876200: 1
7a5d80: 1
787ac2: 1
77cac0: 1
7dc301: 1
7a4286: 1
830780: 1
77d800: 1
7db842: 1
7a12c0: 1
87da00: 1
78c3c3: 1
87de01: 1
873d00: 1
77c040: 1
92035e: 1
7db800: 1
7878c1: 1
87de50: 1
7a1200: 1
789ec6: 1
665007: 1
875201: 1
7a3380: 1
87941c: 1
7a3603: 1
7d9ac2: 1
879b84: 1
786942: 1
7a2c03: 1
78bc20: 1
875682: 1
7a5c00: 1
8773c2: 1
87b440: 1
780900: 1
7a24c0: 1
831ec3: 1
77be87: 1
87bc40: 1
920383: 1
7dc6c0: 1
77ccc1: 1
872a40: 1
78c003: 1
91db03: 1
735c05: 1
77ebc1: 1
7a29c1: 1
87d980: 1
77ed01: 1
7a3e80: 1
7f9480: 1
789e03: 1
77c6c1: 1
8fa5c0: 1
77dbc0: 1
7d9a00: 1
7a2cc7: 1
7daf03: 1
780640: 1
77d681: 1
873b08: 1
78a242: 1
7a36c1: 1
87c680: 1
812a41: 1
77c503: 1
7a27c3: 1
77b501: 1
789f40: 1
87c2c0: 1
7a2f02: 1
7805c0: 1
7885e8: 1
7db1c0: 1
735b40: 1
789883: 1
7dbe85: 1
8741c0: 1
7877c0: 1
87b905: 1
77fa81: 1
7a3880: 1
780786: 1
7d8d00: 1
77fdc0: 1
7d92c2: 1
875907: 1
78b500: 1
77b803: 1
7a44c1: 1
7a3142: 1
8788c1: 1
878843: 1
786a01: 1
87c341: 1
78c143: 1
87ab80: 1
53c6c0: 1
87b68e: 1
7a2e00: 1
872474: 1
77e300: 1
7a5140: 1
878000: 1
875a85: 1
77bb41: 1
7803d0: 1
873d41: 1
77e9c0: 1
78a5c7: 1
77f282: 1
879c00: 1
77f0c0: 1
879c81: 1
879d02: 1
874543: 1
77f1c2: 1
879d42: 1
77f202: 1
78a180: 1
879dc2: 1
77e383: 1
78a200: 1
879e40: 1
77f300: 1
788484: 1
879ec2: 1
77f181: 1
7d8884: 1
879f05: 1
879f40: 1
735e01: 1
8308c1: 1
879780: 1
879770: 1
735cb0: 1
735cc1: 1
8790bb: 1
735d01: 1
735d80: 1
735dc3: 1
830903: 1
91f800: 1
77c801: 1
735e42: 1
879802: 1
874043: 1
77ecc2: 1
879886: 1
7db640: 1
789cc4: 1
879b4c: 1
87b385: 1
87ab03: 1
87ab42: 1
87abc2: 1
87ac02: 1
78b040: 1
87b301: 1
7807c1: 1
87b2f0: 1
8735bb: 1
87b342: 1
87aac3: 1
87b400: 1
77eac6: 1
87b4c1: 1
87b581: 1
87b5c0: 1
87b646: 1
87b6c0: 1
875f01: 1
7d9440: 1
87a740: 1
874781: 1
7d9ec0: 1
879f82: 1
87a000: 1
87a042: 1
7d8a04: 1
87a0c4: 1
87a6e0: 1
87a700: 1
785842: 1
77fc00: 1
87a7c5: 1
87a883: 1
8750c4: 1
87a902: 1
7da941: 1
87aa03: 1
7d93c5: 1
87aa40: 1
875942: 1
87a844: 1
87403f: 1
77e543: 1
8731c0: 1
7a5101: 1
789a46: 1
7a3086: 1
7a2e82: 1
874582: 1
7dab41: 1
77c8c3: 1
7a5b45: 1
7a5b81: 1
87c6c5: 1
7db785: 1
7a1942: 1
91fde8: 1
7a18c0: 1
7da443: 1
87899c: 1
77df40: 1
7dc604: 1
77d043: 1
78a881: 1
874481: 1
77f100: 1
7d8602: 1
877c01: 1
87c745: 1
77d7c0: 1
786d52: 1
876803: 1
7dc803: 1
77d940: 1
7a46f0: 1
78830a: 1
77d084: 1
77d9c0: 1
7a4103: 1
8fa644: 1
77b200: 1
7a50c3: 1
7a1fc7: 1
7d9b01: 1
7db7c9: 1
77e800: 1
7a4245: 1
7a4e81: 1
7a4f02: 1
77dc40: 1
788704: 1
788075: 1
7d9600: 1
77de01: 1
87ba03: 1
8794f0: 1
879501: 1
78ad38: 1
879540: 1
77fec1: 1
879686: 1
877280: 1
780081: 1
77ce42: 1
77d6c1: 1
77e841: 1
875540: 1
77f081: 1
77d141: 1
7d4d02: 1
91fe43: 1
7d9942: 1
87db84: 1
7a2146: 1
77dd02: 1
7a4cc7: 1
7da980: 1
7a3fc0: 1
87bfc0: 1
873a8a: 1
7a2f83: 1
7a1c80: 1
789c42: 1
789941: 1
789981: 1
7899c7: 1
789a81: 1
87b540: 1
789b02: 1
789b80: 1
7db540: 1
789bc4: 1
789c00: 1
789900: 1
77ed86: 1
87b781: 1
789d43: 1
789e40: 1
789f06: 1
789fc6: 1
78a040: 1
78a080: 1
78a0c2: 1
788681: 1
787b00: 1
827c01: 1
876347: 1
77cb82: 1
787b43: 1
787bc3: 1
7883c3: 1
788401: 1
788505: 1
788641: 1
78a141: 1
788750: 1
7887c0: 1
788840: 1
789661: 1
77e703: 1
7896c0: 1
789700: 1
7897c0: 1
789804: 1
7a5270: 1
78bd42: 1
7a1d00: 1
78bd86: 1
77cf5b: 1
78bdc1: 1
78be20: 1
78be40: 1
78bfc0: 1
872ac1: 1
78c040: 1
78b9c2: 1
78c0c0: 1
78c1c3: 1
78c302: 1
78c340: 1
78c401: 1
5416d0: 1
78c442: 1
77bd05: 1
87dec3: 1
78ad45: 1
78a2c7: 1
78a380: 1
7dbd81: 1
78a405: 1
78a485: 1
77f5c7: 1
78a584: 1
78a8c0: 1
78a901: 1
77ae4d: 1
787a81: 1
77fe03: 1
78adc0: 1
78af82: 1
78b545: 1
7a51c5: 1
7d8e40: 1
78b5c0: 1
78b603: 1
78b902: 1
77ffc1: 1
77fac0: 1
7869e1: 1
786d22: 1
77fb80: 1
77fc44: 1
77fc84: 1
77fd02: 1
77fd44: 1
77fe86: 1
77ff02: 1
7d82c1: 1
780042: 1
780003: 1
78afc0: 1
77ce1e: 1
77fe41: 1
7d9544: 1
780180: 1
7d9682: 1
7d98c6: 1
911300: 1
77f241: 1
77f347: 1
77f384: 1
77f403: 1
77f4c1: 1
77f685: 1
77f66e: 1
77f700: 1
77f74e: 1
77f7c0: 1
7801c3: 1
77f800: 1
77f882: 1
78a800: 1
77f902: 1
77f993: 1
7d9107: 1
77fa04: 1
7dc381: 1
77fa48: 1
7a5602: 1
780a81: 1
786dd7: 1
786e03: 1
78708a: 1
787601: 1
7d9080: 1
787704: 1
787746: 1
787784: 1
787803: 1
78b943: 1
787901: 1
7a5642: 1
787941: 1
77ca04: 1
7a56c2: 1
7879c1: 1
876e40: 1
78b86e: 1
787a40: 1
780500: 1
780200: 1
780243: 1
7802c5: 1
780305: 1
780405: 1
87ce40: 1
780445: 1
7804c0: 1
77ad01: 1
78c485: 1
7d9c44: 1
780541: 1
7d9e03: 1
780700: 1
780741: 1
780982: 1
77b1c3: 1
78b982: 1
7809c5: 1
7d8201: 1
77ad44: 1
77adc2: 1
77ae07: 1
77af20: 1
92a741: 1
77af40: 1
77af8d: 1
77afc0: 1
77b142: 1
77e950: 1
7a3a02: 1
7d8247: 1
7a4605: 1
7d8280: 1
7d8302: 1
7d8345: 1
7d8405: 1
7a4845: 1
7d84c0: 1
7d8544: 1
77e146: 1
77db43: 1
77dc01: 1
77ddbc: 1
77de40: 1
77dec0: 1
87c1c3: 1
77dead: 1
77df9d: 1
77dfc0: 1
77e0c5: 1
7d85c5: 1
77e182: 1
77e1c5: 1
77e280: 1
77e2c2: 1
77d850: 1
77d881: 1
77d705: 1
77aca0: 1
77acc6: 1
7d9400: 1
787644: 1
7d8fc0: 1
7d9043: 1
7d90c0: 1
7d9181: 1
91f7c0: 1
7d91d0: 1
7d9202: 1
7d9307: 1
7d9340: 1
7d8f40: 1
879582: 1
7d94c0: 1
7d9503: 1
97acd1: 1
7d96c3: 1
7d97ac: 1
7d9886: 1
7d9a42: 1
7d9a81: 1
7d8a83: 1
7d8645: 1
7d86c7: 1
7d8700: 1
7d8787: 1
77bec7: 1
7d8800: 1
7a4c45: 1
7d88c0: 1
7a4dc5: 1
7d8a40: 1
77db00: 1
7d8ac0: 1
7d8b03: 1
7d8c40: 1
7d8c82: 1
7a5045: 1
7d8cc0: 1
7d8d81: 1
7d8e01: 1
7d8ec1: 1
77c2c1: 1
77c000: 1
77c086: 1
77c0c0: 1
8758c5: 1
77c100: 1
873fea: 1
77c140: 1
77c1c0: 1
77c200: 1
77c284: 1
77bfc0: 1
7a4fc0: 1
7a36a5: 1
77c302: 1
77c347: 1
77c393: 1
77c403: 1
77c456: 1
77c5c7: 1
77c600: 1
77b845: 1
78c4c2: 1
78c502: 1
77b280: 1
77b303: 1
77b3c3: 1
77b485: 1
77b600: 1
77b686: 1
77b700: 1
77b741: 1
77c681: 1
77b885: 1
77b942: 1
77ba81: 1
77bbc2: 1
7a4900: 1
77bc42: 1
77bc81: 1
77bdc0: 1
77bf50: 1
77d501: 1
77d0c0: 1
77d105: 1
77d187: 1
77d240: 1
77d2c2: 1
77d385: 1
77d401: 1
879e82: 1
788444: 1
77d487: 1
77cf84: 1
77d540: 1
788580: 1
77d5c3: 1
77d600: 1
77d778: 1
77d980: 1
77da02: 1
77da43: 1
77dac6: 1
879481: 1
77c701: 1
77c741: 1
77c783: 1
77c7c2: 1
77c881: 1
77c941: 1
77c980: 1
77c9c2: 1
77ca40: 1
77f146: 1
77ca86: 1
77cb02: 1
77b442: 1
77cd5d: 1
77fd80: 1
7d9483: 1
77cd81: 1
77cdc7: 1
77ce80: 1
873724: 1
7a5dc0: 1
7a5e40: 1
7a5e81: 1
7a5ec0: 1
7a0f80: 1
7a10c7: 1
7a1100: 1
7a1182: 1
7a11d0: 1
7a1243: 1
789a01: 1
7a1302: 1
7a1342: 1
7d8d41: 1
7a1383: 1
7a1407: 1
7a1446: 1
7a1481: 1
7a14c0: 1
7d83c1: 1
7d9580: 1
7a5704: 1
7a5790: 1
7a57c2: 1
7a5802: 1
7a5882: 1
77e5c0: 1
827c81: 1
8763c7: 1
7a58c0: 1
879642: 1
7a1510: 1
7a5905: 1
77e643: 1
7a5a01: 1
7a5a41: 1
7a5c80: 1
7a5d00: 1
7d8bc9: 1
7d99c0: 1
7a5d45: 1
77b7c7: 1
7a1b01: 1
796b83: 1
7a1b40: 1
7a1bc3: 1
7a1c41: 1
77cd07: 1
7d9640: 1
7a1cc3: 1
7a1e00: 1
78bf04: 1
77ff41: 1
7a1ec3: 1
7a1f83: 1
879c45: 1
780480: 1
872b07: 1
7a2000: 1
7a2083: 1
780580: 1
7a2184: 1
7a1781: 1
7a1583: 1
7d8f82: 1
7a15c5: 1
9203c2: 1
7a1606: 1
7a1682: 1
7a16c2: 1
7a1700: 1
7a1741: 1
7d9140: 1
879441: 1
7a17c3: 1
77fcc0: 1
873c42: 1
7a1820: 1
7a1902: 1
7a19c2: 1
7a1a02: 1
875781: 1
7a1a44: 1
7a0e00: 1
77f8c2: 1
78a840: 1
7a38c0: 1
77d287: 1
7a3d01: 1
7a5942: 1
812a00: 1
7a5842: 1
77e580: 1
97ae28: 1
7a1e41: 1
7a0e41: 1
7a0ec6: 1
7a0f07: 1
7a3e40: 1
7a3ec1: 1
7a3f05: 1
7a3f40: 1
7a41c3: 1
7a42c0: 1
86ec81: 1
87dc00: 1
87dc81: 1
87dd00: 1
91f7a0: 1
87ddc3: 1
86eb42: 1
77ef80: 1
86ebc1: 1
86ec09: 1
876a08: 1
7a4300: 1
86ecc1: 1
7a5742: 1
92a990: 1
91d8c7: 1
7a1d41: 1
786686: 1
92ab0b: 1
64bd43: 1
87d905: 1
7a5080: 1
7a4a42: 1
77d780: 1
7a4ac0: 1
7a4bc2: 1
77d900: 1
878ac0: 1
7a4d83: 1
7a4e40: 1
77f490: 1
7a4f81: 1
77bd84: 1
77f6d0: 1
7a5181: 1
7a52c1: 1
7a5383: 1
77c542: 1
7a5200: 1
7a53c0: 1
7a5486: 1
7a54c2: 1
7a4582: 1
7a4340: 1
878100: 1
7a43c3: 1
872482: 1
7a4400: 1
77b784: 1
7a4442: 1
7a4500: 1
7a4540: 1
7a22c1: 1
77b904: 1
7a45c2: 1
7a4645: 1
786983: 1
7a4684: 1
77d3c2: 1
7a48c3: 1
7a4940: 1
786cea: 1
7a28c3: 1
785f02: 1
785f43: 1
786480: 1
872218: 1
872500: 1
872541: 1
872582: 1
77d201: 1
8725c5: 1
872b02: 1
785ec2: 1
7864dd: 1
91fd88: 1
786501: 1
77b583: 1
7865c1: 1
7d4d46: 1
91fe87: 1
786600: 1
77b643: 1
785c80: 1
785900: 1
7a3641: 1
785940: 1
785981: 1
785a01: 1
785a42: 1
785ac1: 1
785b00: 1
785bc3: 1
785c00: 1
786640: 1
785cc1: 1
7a5f4b: 1
78b480: 1
785d04: 1
77ad86: 1
785d43: 1
785d81: 1
785dc3: 1
785e20: 1
77eea0: 1
78a4c7: 1
77e980: 1
77ea06: 1
77ea41: 1
77ea82: 1
77eb40: 1
77eb87: 1
77ec00: 1
77ee04: 1
77ee40: 1
77e8c0: 1
77eec0: 1
77ef00: 1
77ef40: 1
7a47c7: 1
7d8442: 1
77efc0: 1
77f000: 1
77f040: 1
87bb41: 1
77e4c4: 1
7866c4: 1
78be83: 1
786703: 1
786740: 1
7a4481: 1
786780: 1
7867c2: 1
78bf81: 1
7868c4: 1
7858c0: 1
77e501: 1
77e681: 1
78a288: 1
77e6c2: 1
77e744: 1
77e781: 1
77e7c6: 1
789744: 1
878085: 1
7a2d81: 1
7a2871: 1
7a2882: 1
77b5c0: 1
7a2941: 1
7a2a05: 1
7a2a87: 1
7a2b05: 1
7a2c41: 1
87ce2a: 1
7a2c81: 1
77b543: 1
7a3003: 1
7a30c2: 1
77be00: 1
7a3184: 1
876f00: 1
7a31c3: 1
7a3201: 1
7a3243: 1
873dc7: 1
7a2600: 1
7a2300: 1
7a2341: 1
7a2380: 1
87de85: 1
7a23c1: 1
7a2440: 1
78c544: 1
7a2481: 1
7a2541: 1
7a2580: 1
7a32c0: 1
876380: 1
7a2643: 1
7a2682: 1
7a26c1: 1
7a2743: 1
7a2782: 1
77b4c0: 1
7a2805: 1
7a4201: 1
7a3d46: 1
7a3a40: 1
7a3a81: 1
7a3b07: 1
7a3bc4: 1
7a3c06: 1
92a7c3: 1
7a3c80: 1
91f846: 1
7a3cc0: 1
7a3d85: 1
7a39c1: 1
77e000: 1
785784: 1
830843: 1
7857c4: 1
785800: 1
785886: 1
878a02: 1
7d8940: 1
7a35c1: 1
7a3700: 1
7a3342: 1
7a33c1: 1
7a3442: 1
7a3431: 1
7a3486: 1
7a34c0: 1
7a3540: 1
7d9840: 1
77cf07: 1
7f9548: 1
7a3740: 1
7a3782: 1
77c4c0: 1
7a37c4: 1
7a3800: 1
879bc2: 1
77d1c7: 1
7a3840: 1
7a3900: 1
789b47: 1
789e85: 1
78b8e7: 1
7dc0c1: 1
873841: 1
87dbc2: 1
87c2b0: 1
77b243: 1
877730: 1
87a083: 1
7d9fc1: 1
7dc043: 1
7d8980: 1
78c080: 1
7875eb: 1
77b05a: 1
7db4c3: 1
7a4d01: 1
77edc3: 1
78af62: 1
77eb01: 1
7a4a81: 1
78c281: 1
77ec45: 1
735e80: 1
876004: 1
7a40c5: 1
77e040: 1
876e02: 1
87bc03: 1
7876c0: 1
7d9cc1: 1
78a940: 1
963d00: 1
77b000: 1
78ad85: 1
7d95c6: 1
875445: 1
7a3941: 1
780383: 1
785b42: 1
7a2200: 1
78c2c5: 1
873201: 1
735d44: 1
7dbb41: 1
77ed40: 1
8740c1: 1
87db42: 1
77dc80: 1
831e40: 1
878801: 1
786800: 1
7a2104: 1
789ac5: 1
87b503: 1
7db441: 1
878a40: 1
785e42: 1
87ac43: 1
7d8e82: 1
875742: 1
77ba42: 1
7a4700: 1
780880: 1
87b3c0: 1
77b100: 1
7daf45: 1
77bcc0: 1
7f9530: 1
789684: 1
7db000: 1
87a804: 1
8fa045: 1
875fc4: 1
7d8680: 1
831d83: 1
87be44: 1
97ad01: 1
77ff82: 1
7a1a85: 1
77e203: 1
780842: 1
77b0c2: 1
78b880: 1
875ec2: 1
879d82: 1
788344: 1
7da846: 1
877406: 1
7d8585: 1
86ec45: 1
77cb40: 1
7a3e02: 1
877680: 1
7d8500: 1
77b190: 1
780a01: 1
77fb40: 1
7a4046: 1
77f500: 1
77b9c3: 1
78c100: 1
7dc541: 1
8790c3: 1
77bf05: 1
9128c4: 1
7a1986: 1
873ac2: 1
789780: 1
7dab06: 1
91fa86: 1
874153: 1
874442: 1
87b743: 1
7f9382: 1
87a986: 1
78a1c0: 1
87a8c2: 1
7a0dc6: 1
879204: 1
877450: 1
77d8e1: 1
8789c1: 1
77bc07: 1
7a2240: 1
77bb00: 1
77c641: 1
872980: 1
7a4b41: 1
7a1640: 1
78c381: 1
7d9003: 1
7a59c3: 1
787cc2: 1
77cbc0: 1
785c43: 1
8795c1: 1
796b42: 1
7a1ac0: 1
78bc41: 1
87dd9e: 1
876044: 1
87b803: 1
7db741: 1
77d341: 1
913397: 1
7d9241: 1
77ec84: 1
8797c4: 1
87c506: 1
878f01: 1
87c7c0: 1
7a1b86: 1
7a3983: 1
87c941: 1
7a4806: 1
7d8481: 1
77e481: 1
7a0e80: 1
780140: 1
92a800: 1
873e42: 1
780941: 1
77b6c3: 1
7a2985: 1
7a1080: 1
8787ab: 1
7a1e81: 1
7dc145: 1
878c10: 1
7d9d02: 1
873242: 1
7a5280: 1
77b340: 1
77d4c0: 1
8745c3: 1
780340: 1
7a4080: 1
87260f: 1
7a4383: 1
77e09c: 1
87be00: 1
876641: 1
789c86: 1
77da80: 1
830802: 1
7884c5: 1
78b4f0: 1
77b380: 1
788383: 1
91fb45: 1
77c842: 1
875f42: 1
7a1286: 1
77f840: 1
879187: 1
77f9c2: 1
787a01: 1
7db906: 1
873f80: 1
7d8b84: 1
788807: 1
877740: 1
7a3ac2: 1
7a2b43: 1
8fa2c0: 1
77ddc3: 1
878903: 1
7d8841: 1
8767c0: 1
7d9800: 1
7da603: 1
77fb00: 1
787b86: 1
7a2284: 1
77db80: 1
87a783: 1
7da6c1: 1
796ac5: 1
830e40: 1
78a544: 1
879107: 1
875803: 1
7a1f47: 1
7d9385: 1
830980: 1
7a2ac0: 1
7a1dc1: 1
8fa329: 1
77fbc4: 1
77b2c5: 1
7a2a41: 1
7dbc8a: 1
7db6c3: 1
7db700: 1
7db883: 1
7db8c3: 1
7db940: 1
7db980: 1
7db9c1: 1
7dba09: 1
7dba41: 1
7dba89: 1
7dbb03: 1
7dbb85: 1
7dbbc6: 1
7dbc46: 1
7db60a: 1
7dbccb: 1
7dbd47: 1
7dbd0b: 1
7dbdc2: 1
7dbe00: 1
7dbe41: 1
7dbf03: 1
7dbf42: 1
7dbf83: 1
7dbfc7: 1
7dc00b: 1
7dc083: 1
7dc102: 1
7dc1c5: 1
7db040: 1
7dab84: 1
7dac42: 1
7dac82: 1
7dacc4: 1
7dad02: 1
7dad41: 1
7dad88: 1
7dadc2: 1
7dae03: 1
7dae42: 1
7dae87: 1
7daec2: 1
7daf83: 1
7dafc0: 1
7dc189: 1
7db080: 1
7db0c3: 1
7db100: 1
7db141: 1
7db207: 1
7db244: 1
7db281: 1
7db341: 1
7db3c6: 1
7db405: 1
7db483: 1
7db500: 1
7db582: 1
831d02: 1
64be03: 1
64be42: 1
65053e: 1
650c41: 1
650d3a: 1
86d981: 1
86d9c0: 1
65f087: 1
65f0c0: 1
65f102: 1
7aa480: 1
80dec8: 1
831c80: 1
831cc7: 1
64bd81: 1
831d43: 1
831dc1: 1
831e21: 1
831e83: 1
65f805: 1
664f00: 1
664f40: 1
665090: 1
6650c0: 1
80c692: 1
80c6ca: 1
7f9320: 1
7f9684: 1
7dc704: 1
7dc202: 1
7dc240: 1
7dc282: 1
7dc2c1: 1
7dc341: 1
7dc3c0: 1
7dc402: 1
7dc441: 1
7dc481: 1
7dc4c5: 1
7dc581: 1
7dc5c8: 1
7dc644: 1
7dc680: 1
7daac3: 1
7dc744: 1
7dc788: 1
7dc7c2: 1
7d4cc5: 1
7d4d83: 1
7d4dc0: 1
7d4e05: 1
64bbc2: 1
64bc03: 1
64bc40: 1
64bc87: 1
64bcc0: 1
64bd01: 1
735c45: 1
879604: 1
7a5f05: 1
7a5c45: 1
789d81: 1
7d8385: 1
8739c0: 1
789840: 1
78a685: 1
663500: 1
7a3dc0: 1
77f580: 1
7dbac0: 1
8751c1: 1
87a9c0: 1
920401: 1
877246: 1
7a2ec2: 1
77bf80: 1
87c401: 1
87c781: 1
78b580: 1
65e140: 1
7d9e80: 1
7da0c1: 1
7a4000: 1
7da282: 1
7db183: 1
7db301: 1
77cfc0: 1
87aa80: 1
827a80: 1
87ac84: 1
77e404: 1
78b466: 1
77d305: 1
877ec6: 1
87723d: 1
77d443: 1
87c000: 1
87dc42: 1
9113a0: 1
78b020: 1
7a4140: 1
789f82: 1
77d000: 1
877b40: 1
7da500: 1
7daa06: 1
7806a0: 1
7d9905: 1
7a1f06: 1
873605: 1
872a00: 1
7a4980: 1
77e603: 1
873340: 1
7d8c01: 1
7da582: 1
7da100: 1
7da142: 1
7da186: 1
7da1c0: 1
7da207: 1
7da242: 1
7da2c1: 1
7da306: 1
7da381: 1
7da379: 1
7da3c1: 1
7da480: 1
7da4c0: 1
7da544: 1
7da081: 1
7da5c1: 1
7da640: 1
7da681: 1
7da700: 1
7da740: 1
7da780: 1
7da7c2: 1
7da802: 1
7da887: 1
7da8c0: 1
7da902: 1
7daa46: 1
7daa81: 1
7d9b44: 1
77e901: 1
874100: 1
8fa083: 1
7a3044: 1
7859c3: 1
7dabc1: 1
77be43: 1
78c580: 1
87c142: 1
87dd41: 1
879fc2: 1
7a5304: 1
8733c3: 1
873440: 1
87c900: 1
7d9b81: 1
7d9bc8: 1
7d9c0c: 1
7d9c82: 1
7d9d41: 1
7d9d81: 1
7d9dc5: 1
7d9e42: 1
7d9f02: 1
7d9f40: 1
7d9f82: 1
7da000: 1
7da041: 1
77ba06: 1
7a4b83: 1
877380: 1
785e83: 1
77c900: 1
7a2dc6: 1
7d8dc0: 1
91d843: 1
7a1841: 1
7a20c7: 1
77f441: 1
735b02: 1
77f550: 1
77f945: 1
77cc41: 1
77e470: 1
879cc0: 1
78a441: 1
780a40: 1
77bac6: 1
87c305: 1
7a2fc1: 1
875b02: 1
7a3f80: 1
7a1d84: 1
876f42: 1
87c701: 1
7a4186: 1
7a3b82: 1
78a000: 1
91f985: 1
7a25c3: 1
87b600: 1
7d8f05: 1
91d901: 1
7d8900: 1
77f610: 1
7dac01: 1
7a2902: 1
8722f7: 1
787884: 1
7a1540: 1
78a980: 1
875ac0: 1
87dcc0: 1
87c202: 1
7a4c83: 1
7db5c2: 1
7da9c5: 1
875701: 1
664fc1: 1
7a4b30: 1
77c487: 1
780609: 1
7a4f41: 1
864f82: 2
64ba80: 2
96018d: 2
872f80: 2
86e403: 2
8730c0: 2
865181: 2
791942: 2
64b982: 2
7919c2: 2
64ba44: 2
791a40: 2
64bac4: 2
64bb03: 2
66322c: 2
53c6d0: 2
7f9736: 2
64bb80: 2
7f9600: 2
78dd9d: 2
872ec3: 2
64eb45: 2
873006: 2
872e46: 2
64be05: 2
872e84: 2
872f40: 2
872fc1: 2
87b9c5: 2
7d69c3: 2
7f9640: 2
873044: 2
86e3c2: 2
8723bb: 2
86e442: 2
8723c0: 2
87b981: 2
827882: 2
791903: 2
873082: 2
873101: 2
7d68e0: 2
873182: 2
87b970: 2
86eafb: 2
86eb04: 2
64ba00: 2
848940: 2
66df83: 2
961b9f: 2
7f91a0: 2
7f9378: 2
6660af: 2
873140: 2
872f02: 2
7f9403: 2
8727c1: 2
7d6a81: 2
827b00: 2
665fc1: 2
872783: 2
827941: 2
791980: 2
827a01: 2
827ac1: 2
663245: 2
872110: 2
827c41: 2
5416c2: 2
6660c0: 2
872302: 2
47dac0: 2
872942: 2
872840: 2
872800: 2
872744: 2
872700: 2
8726c0: 2
872690: 2
7918c1: 2
872640: 2
66df40: 2
7f9360: 2
650e8f: 2
872d80: 2
7f92c5: 2
7f9740: 2
872880: 2
64bb40: 2
848939: 2
7d6a43: 2
872e03: 2
8277f0: 2
7d6a00: 2
7d6983: 2
872141: 2
872dc0: 2
872911: 2
791a00: 2
791880: 2
7d6941: 2
8278c3: 2
7d6900: 2
827900: 2
7f9442: 2
791a84: 2
64b9c4: 2
864f24: 3
8e40d0: 3
961582: 3
9600c2: 3
8e3ff0: 3
8e4100: 3
9636c9: 3
64bbb8: 3
8e4086: 3
963701: 3
8e4041: 3
8e4030: 3
960070: 3
864fc1: 3
864e82: 3
960100: 3
864e46: 3
864e20: 3
8cff40: 3
960081: 3
961530: 3
96014c: 3
827804: 3
961541: 3
961641: 3
827840: 3
7f9241: 4
7f9280: 4
64b970: 5
64a100: 29
650f41: 30
7955c0: 30
797b0d: 30
64b3d5: 34
831b43: 35
831be0: 35
831ac2: 35
7eee43: 35
7a8a80: 36
786402: 36
7a89c0: 36
786342: 36
786351: 40
786410: 40
7a89d0: 41
7a8a94: 41
831bc3: 42
831af3: 42
831b4c: 42
7eee4d: 42
64b3c0: 43
7955c9: 46
650f50: 47
797b00: 47
64a104: 48
7eedc0: 70
7eee00: 70
64b6c1: 72
64b740: 72
64b900: 72
65e6bd: 72
64b647: 72
64b704: 72
64b842: 72
64b783: 72
64b7c3: 72
64b681: 72
64b800: 72
64b880: 72
64b944: 72
64b8c3: 72
78dc86: 74
791402: 74
791103: 74
78d306: 74
78d5c2: 74
792f80: 74
792d81: 74
78f046: 74
7932c7: 74
792541: 74
792602: 74
78f0c0: 74
78f103: 74
7917c0: 74
64be20: 74
791142: 74
79236b: 74
78f081: 74
78d344: 74
792842: 74
78d883: 74
791287: 74
792481: 74
793440: 74
78d4c1: 74
792882: 74
791780: 74
7925c7: 74
792fc1: 74
78d680: 74
8e3f30: 74
78d982: 74
78d641: 74
78d540: 74
793640: 74
78d703: 74
793786: 74
793041: 74
793743: 74
791541: 74
792dc1: 74
7923c2: 74
792581: 74
792ec2: 74
792383: 74
792b82: 74
793600: 74
847fed: 74
792701: 74
78dcc0: 74
792a41: 74
791442: 74
792b44: 74
793cc7: 74
78db42: 74
793408: 74
78efc6: 74
793502: 74
793680: 74
792501: 74
790fc4: 74
792e04: 74
7936c0: 74
793ac4: 74
792a81: 74
78d6c2: 74
7930c0: 74
790f81: 74
78d7c5: 74
78d205: 74
7926c0: 74
7933d4: 74
792bc5: 74
791306: 74
78dc40: 74
78d747: 74
78db06: 74
7937c4: 74
78dbc3: 74
791343: 74
7924c2: 74
793582: 74
848010: 74
78d602: 74
793a6e: 74
78d385: 74
78d900: 74
7911c6: 74
78d840: 74
78d800: 74
78dd10: 74
78d581: 74
793880: 74
793c40: 74
791087: 74
7914c4: 74
792c41: 74
78d481: 74
78d445: 74
78d404: 74
78d3c0: 74
78d9c2: 74
793c00: 74
792ac5: 74
78d280: 74
791206: 74
78d246: 74
7928c1: 74
791246: 74
7912c2: 74
791385: 74
791482: 74
791752: 74
791844: 74
792641: 74
792785: 74
793bc1: 74
793c80: 74
78f004: 74
792446: 74
78d941: 74
792400: 74
793a84: 74
793080: 74
792800: 74
791585: 74
78d8c1: 74
793d06: 74
7910c2: 74
78d2c0: 74
7927c5: 74
791804: 74
793b41: 74
793480: 74
793847: 74
792e44: 74
843050: 74
78dd80: 74
78db80: 74
793802: 74
78da81: 74
78da42: 74
78dd50: 74
78da01: 74
793343: 74
791041: 74
792745: 74
792f02: 74
792f41: 74
793007: 74
78d783: 74
793299: 74
792cc2: 74
78f160: 74
78dac3: 74
78dc30: 74
793307: 74
792c03: 74
793386: 74
7934c1: 74
792b05: 74
7938c3: 74
793546: 74
792a33: 74
791186: 74
792680: 74
793702: 74
7935c7: 74
7913c2: 74
793b00: 74
792c87: 74
791000: 74
78d503: 74
792e84: 74
792d46: 74
791502: 74
793b82: 74
792d02: 74
8485c2: 75
7d5e80: 75
7d6042: 75
7d65c3: 75
7d6505: 75
7d7102: 75
7d6c85: 75
7d6f02: 75
7d7945: 75
7d6301: 75
8e7b02: 75
7d67c6: 75
64ea86: 75
7d7141: 75
7d6247: 75
7d7802: 75
7d71c7: 75
7d6541: 75
7d6446: 75
7d6286: 75
7d6201: 75
7d7786: 75
7d68c1: 75
7d6402: 75
7d6ec4: 75
7d7603: 75
7d7280: 75
7d7240: 75
64ea04: 75
7d5e01: 75
7d6e83: 75
7d61c0: 75
7d6c41: 75
650d43: 75
7d6bc3: 75
7f9751: 75
7d7882: 75
64e9c0: 75
64eb81: 75
7d6dc3: 75
7d6d41: 75
64ec06: 75
7d6cc1: 75
7d6f81: 75
7d6fc2: 75
7d78c4: 75
650e01: 75
7d5f85: 75
7d6082: 75
7f9190: 75
7d7382: 75
7d6c02: 75
7d7904: 75
64eb5e: 75
64ebc0: 75
650dc1: 75
7d75b9: 75
7d6143: 75
7d6f41: 75
64ea40: 75
7d63c7: 75
64e981: 75
7d7340: 75
7d6601: 75
7d73c3: 75
650e87: 75
8e7b67: 75
7d5f44: 75
7d60c1: 75
785f5d: 75
7d7740: 75
7d7000: 75
7d76c0: 75
7d6b83: 75
7d6102: 75
7d6346: 75
7d6803: 75
7d6383: 75
7d72c1: 75
7d75c1: 75
650e40: 75
7d5f06: 75
7d5e45: 75
7d6480: 75
7d7304: 75
7d6ac0: 75
7d64c1: 75
7d7083: 75
7d6642: 75
7d6185: 75
7d77c6: 75
7d6883: 75
7d62c1: 75
7d6584: 75
7d5ec3: 75
96b800: 75
7d6aa4: 75
7d6d04: 75
7d7840: 75
7d6002: 75
7d5fc2: 75
650d87: 75
96b872: 75
7d5d44: 75
7d70c3: 75
7d7181: 75
7d67be: 75
7d6e06: 75
7d5d02: 75
7d7405: 75
7d7041: 75
7d5dc5: 75
7d5d80: 75
7d6b41: 75
7d5cc0: 75
7d6d82: 75
7d7200: 75
7d7683: 75
7d6e40: 75
7d7643: 75
7d6843: 75
7d7701: 75
64e940: 75
7d7447: 75
7d6b01: 75
794881: 76
7956c2: 76
790003: 76
78f5c0: 76
794f00: 76
794b04: 76
785681: 76
96b7c2: 76
795283: 76
78ff43: 76
95f9fa: 76
78ee01: 76
78ff00: 76
795401: 76
7950c6: 76
78fd81: 76
795540: 76
95f950: 76
786100: 76
961b5c: 76
794f80: 76
790a82: 76
790e43: 76
795e41: 76
786380: 76
78f500: 76
7a87d6: 76
78e6d3: 76
786442: 76
65dc01: 76
78eb41: 76
7953f5: 76
794fc6: 76
78e108: 76
78eb80: 76
78f781: 76
7862c2: 76
794a40: 76
795b42: 76
795e80: 76
785f82: 76
7a8750: 76
78f600: 76
7863c0: 76
786182: 76
794e86: 76
786202: 76
78fa05: 76
78fdc1: 76
795606: 76
86d9df: 76
78f284: 76
786283: 76
78f446: 76
795200: 76
795301: 76
9615e9: 76
78f6c0: 76
78fb42: 76
786300: 76
7949c7: 76
78ee80: 76
650500: 76
795844: 76
7954c3: 76
786080: 76
78fa83: 76
78e040: 76
796b8b: 76
785fc6: 76
78fc88: 76
78ee44: 76
786001: 76
64bf80: 76
795f40: 76
7aa446: 76
786040: 76
795dc7: 76
78ef07: 76
790981: 76
790606: 76
7909c4: 76
795ec0: 76
7860c1: 76
786160: 76
795180: 76
78f684: 76
78ea84: 76
795c05: 76
795143: 76
78e3c6: 76
78f700: 76
78e386: 76
795101: 76
795707: 76
795780: 76
78f642: 76
790b05: 76
790a06: 76
847f40: 76
795b2b: 76
790400: 76
790946: 76
795240: 76
795442: 76
78e540: 76
78ef40: 76
961680: 76
794a03: 76
78ed00: 76
95f988: 76
95fa42: 76
663407: 76
794942: 76
7906c1: 76
790745: 76
794750: 76
65e15a: 76
7947c4: 76
790ec4: 76
790e83: 76
794841: 76
794d01: 76
78e744: 76
664f05: 76
7948c4: 76
65f817: 76
794d84: 76
790342: 76
78ec07: 76
6650f0: 76
794ac5: 76
790f06: 76
794c40: 76
84315e: 76
794ec1: 76
831eff: 76
78e5c0: 76
795882: 76
78e284: 76
785660: 76
795c86: 76
961a41: 76
7d81c0: 76
95fa05: 76
7958c6: 76
830e56: 76
796007: 76
790906: 76
78eac2: 76
7902c0: 76
961e02: 76
790840: 76
961782: 76
790280: 76
7a8780: 76
78d102: 76
790547: 76
790c00: 76
794c02: 76
795d81: 76
790082: 76
78fe44: 76
663440: 76
790800: 76
961d40: 76
7900c6: 76
961704: 76
78e4c1: 76
65dc44: 76
790686: 76
78ecc0: 76
790701: 76
795f04: 76
650c50: 76
64bf00: 76
65dbf0: 76
78eb03: 76
794981: 76
961a0f: 76
961bcf: 76
78df80: 76
78e780: 76
7905c7: 76
78f9c7: 76
795bc0: 76
9627fd: 76
78ff87: 76
790d40: 76
86ed40: 76
7957c1: 76
794801: 76
78e941: 76
78eec2: 76
78fac7: 76
790646: 76
78e880: 76
78e704: 76
78e7c4: 76
78de94: 76
78df00: 76
795486: 76
78f942: 76
78e2c4: 76
78df42: 76
790bc3: 76
790e03: 76
790181: 76
7f9392: 76
78e9c1: 76
790b40: 76
78dfc0: 76
78f1c2: 76
790447: 76
96177e: 76
78f2c0: 76
785701: 76
78d181: 76
794901: 76
78fcc0: 76
78fec0: 76
790b81: 76
790a46: 76
794c82: 76
78ea45: 76
78f402: 76
78e080: 76
864f45: 76
790205: 76
961cfc: 76
7a8800: 76
795580: 76
7908c0: 76
795805: 76
790f40: 76
78fb04: 76
790046: 76
78e985: 76
794b80: 76
64bec0: 76
794a86: 76
78f882: 76
78fe87: 76
78f3c8: 76
790881: 76
961dc1: 76
80dec2: 76
795904: 76
795644: 76
78e904: 76
961d01: 76
78fc40: 76
794e46: 76
7f9562: 76
961840: 76
78e402: 76
78e184: 76
78dec3: 76
7901c1: 76
7952c0: 76
795080: 76
790482: 76
795c41: 76
80c695: 76
790d00: 76
790780: 76
78e482: 76
78fe06: 76
6634c4: 76
78e442: 76
78e241: 76
78e0c7: 76
78e143: 76
790d86: 76
961da0: 76
78d0e0: 76
650d00: 76
7907c3: 76
78e842: 76
78e200: 76
78e302: 76
795f83: 76
790241: 76
78e804: 76
78e342: 76
78f982: 76
78fbc0: 76
78ea02: 76
794dc6: 76
78f1b3: 76
795cc4: 76
78d140: 76
795d42: 76
78fb86: 76
78ebc2: 76
78e582: 76
7861c3: 76
790501: 76
794cc3: 76
78e645: 76
7aa48f: 76
78ef83: 76
78ed84: 76
78e000: 76
78f486: 76
78e1c2: 76
78f805: 76
7903c0: 76
790102: 76
78f540: 76
78f201: 76
794d43: 76
86ef61: 76
78f340: 76
78ec83: 76
78f7c5: 76
790583: 76
78f300: 76
790145: 76
790ac0: 76
78f844: 76
795e02: 76
663484: 76
78f380: 76
794e06: 76
790c42: 76
7d4e0f: 76
790cc3: 76
80c6c0: 76
95fae0: 76
795fc0: 76
794b43: 76
786242: 76
6633c2: 76
78f8c0: 76
785741: 76
650cc0: 76
795682: 76
795006: 76
7856c3: 76
790301: 76
78ec40: 76
790c86: 76
794f46: 76
78f4c0: 76
78ed40: 76
795501: 76
64bf45: 76
78fd42: 76
78e8c5: 76
78d1c0: 76
78fa45: 76
795740: 76
795d05: 76
78ffc5: 76
7951c0: 76
95faa2: 76
7904c6: 76
9617c2: 76
78fd03: 76
794bc2: 76
795b82: 76
78f743: 76
663381: 76
9616c2: 76
790dc3: 76
650c85: 76
78fc00: 76
795041: 76
78f247: 76
790385: 76
962801: 76
78e500: 76
78edc2: 76
78f584: 76
794787: 76
78f907: 76
78e600: 76
797e82: 77
86e082: 77
64f944: 77
86d786: 77
797003: 77
64c380: 77
64c407: 77
797702: 77
97a441: 77
7d58c8: 77
64f882: 77
796c41: 77
796900: 77
64fa82: 77
7d5083: 77
797802: 77
64a206: 77
664441: 77
7d59c3: 77
64b547: 77
6500c2: 77
64fa02: 77
797689: 77
665680: 77
7d5781: 77
650281: 77
796846: 77
649e47: 77
7d7ec2: 77
80dcb7: 77
64e1c5: 77
6503c1: 77
7d4ec6: 77
64e343: 77
796307: 77
64e2c7: 77
649dc1: 77
7d5b86: 77
796881: 77
80dc46: 77
664543: 77
650480: 77
650042: 77
796642: 77
7d5504: 77
64f909: 77
7eed42: 77
7aa430: 77
796942: 77
65dc72: 77
64a1c6: 77
848244: 77
64e548: 77
64ffc2: 77
960bb5: 77
796800: 77
960606: 77
86e008: 77
7987c1: 77
64a587: 77
826297: 77
664970: 77
6635c9: 77
848183: 77
8e3702: 77
649ac2: 77
64ef43: 77
64eeb5: 77
796482: 77
796f41: 77
64fb02: 77
664b82: 77
65f3c3: 77
797ac0: 77
64ab90: 77
64a181: 77
7d5942: 77
649b46: 77
796dc0: 77
7962c0: 77
663608: 77
797601: 77
651086: 77
797845: 77
7f93c2: 77
64f783: 77
665d80: 77
7d5801: 77
7a8842: 77
6509b4: 77
64ab04: 77
64e140: 77
830dfe: 77
663941: 77
7d5042: 77
665140: 77
649fc7: 77
796282: 77
64d800: 77
8277c0: 77
650b56: 77
64b401: 77
7d4e43: 77
65e675: 77
797c85: 77
64ad03: 77
7979c0: 77
832202: 77
7964c0: 77
86d8c5: 77
64adf0: 77
64f442: 77
6456c1: 77
64e125: 77
664480: 77
7975c1: 77
65f7d3: 77
8e344b: 77
650380: 77
7d7980: 77
64a6c6: 77
650002: 77
64a605: 77
651a13: 77
796f05: 77
7d5380: 77
7d5c8b: 77
797989: 77
64a5c2: 77
64a506: 77
80ca4b: 77
64a4c2: 77
7a8900: 77
7970c0: 77
65eb84: 77
64a401: 77
64b607: 77
86da00: 77
7d56c5: 77
827740: 77
796a80: 77
64a985: 77
825c82: 77
64a344: 77
797c44: 77
6f4644: 77
8e3480: 77
650ec2: 77
8e3838: 77
64a380: 77
7d5647: 77
649c06: 77
8e35c0: 77
797305: 77
64aa85: 77
64a9c3: 77
86d900: 77
64a940: 77
831983: 77
64b446: 77
664503: 77
64a8c2: 77
7971c5: 77
7eed30: 77
797140: 77
84821f: 77
64a801: 77
64a904: 77
8e3680: 77
96b89e: 77
64ab40: 77
7966c3: 77
64a281: 77
796bc5: 77
80c622: 77
650102: 77
797c01: 77
64c302: 77
649a40: 77
651501: 77
8e3783: 77
64b302: 77
796443: 77
797b47: 77
797100: 77
64ac42: 77
8e33c0: 77
64a301: 77
796d89: 77
86de81: 77
663987: 77
64abc1: 77
7d5544: 77
650082: 77
831a80: 77
7d4e80: 77
65eb77: 77
7a88c4: 77
64c277: 77
797e04: 77
64b201: 77
649c82: 77
7d81b0: 77
796342: 77
8d02c1: 77
64c344: 77
797485: 77
64f840: 77
796781: 77
651003: 77
827a5e: 77
797dc7: 77
6ef705: 77
665ab5: 77
650541: 77
6504c1: 77
650a86: 77
872b87: 77
796cc5: 77
7961c0: 77
64a783: 77
80dc3f: 77
797ec5: 77
797f04: 77
960bc0: 77
64b481: 77
6644c5: 77
797941: 77
80c504: 77
7965c2: 77
64f8c2: 77
960500: 77
796fc0: 77
650304: 77
797881: 77
649d81: 77
7d57c2: 77
797a00: 77
64b180: 77
64f7c0: 77
64a001: 77
796140: 77
64b385: 77
7d5a05: 77
645840: 77
64f983: 77
64ef07: 77
86e044: 77
650bca: 77
663d70: 77
664bc3: 77
64b503: 77
64f228: 77
64e200: 77
797580: 77
664982: 77
65ec00: 77
64f76c: 77
796185: 77
6637d1: 77
664600: 77
86e100: 77
65f846: 77
6509c0: 77
7f9200: 77
64b58b: 77
7d5684: 77
663a10: 77
64b4c0: 77
797a43: 77
649e85: 77
650f82: 77
86d660: 77
8e3562: 77
797d43: 77
80de90: 77
649c45: 77
831942: 77
86da40: 77
664c47: 77
64e8eb: 77
665106: 77
86da80: 77
86dac2: 77
64e900: 77
7d4f86: 77
664cc9: 77
64e503: 77
86e3b3: 77
797645: 77
650475: 77
86df90: 77
7d5406: 77
65f980: 77
86e0c6: 77
7d5484: 77
65ebc0: 77
6651ac: 77
7a8a03: 77
872c01: 77
64e70c: 77
7977cb: 77
64a3c1: 77
64e587: 77
64ad7d: 77
7968c3: 77
64a140: 77
86d681: 77
832244: 77
797282: 77
796740: 77
664a42: 77
649cc5: 77
7d53c1: 77
8319c0: 77
649d00: 77
8e3647: 77
650f04: 77
796086: 77
797d00: 77
86de40: 77
64fa4a: 77
796580: 77
664680: 77
86d7c0: 77
663580: 77
86d842: 77
64b5c3: 77
6f4620: 77
86d883: 77
649d42: 77
8309c0: 77
64c284: 77
86d801: 77
796041: 77
872b40: 77
64a681: 77
6502c4: 77
872bc0: 77
872c8f: 77
872d02: 77
872cfd: 77
830990: 77
64e3c0: 77
649b00: 77
663515: 77
7f95c2: 77
830a44: 77
86d742: 77
80e0f0: 77
8d0304: 77
7d7c03: 77
650fc1: 77
796507: 77
8d0341: 77
64a2c6: 77
7963c8: 77
796e84: 77
8e34f4: 77
64aa40: 77
65f053: 77
664b72: 77
6f49c5: 77
86d702: 77
65f300: 77
64a700: 77
961603: 77
80db40: 77
64e485: 77
663b32: 77
7d5360: 77
832281: 77
64e440: 77
797fc4: 77
7d4f40: 77
7eed80: 77
665700: 77
64e401: 77
825bc0: 77
9605d8: 77
64f804: 77
80dcc1: 77
64f586: 77
64f40f: 77
65e682: 77
796380: 77
7d5881: 77
7a8882: 77
7d5600: 77
797901: 77
651311: 77
7d4c70: 77
86d940: 77
7d5742: 77
64b1c2: 77
830e02: 77
796e04: 77
64a884: 77
665a40: 77
7d5841: 77
64ff60: 77
64a045: 77
64b240: 77
64b0dd: 77
663687: 77
9602c3: 77
664ac3: 77
8e3752: 77
7a8940: 77
796c03: 77
64fac1: 77
8e3f23: 77
649980: 77
7d5a82: 77
663303: 77
7d4fc0: 77
64aa02: 77
64b143: 77
6516b3: 77
64a242: 77
7d4f00: 77
7d5444: 77
649ec3: 77
650341: 77
64a7c3: 77
796d02: 77
796ec5: 77
645740: 77
797e4a: 77
664a86: 77
663342: 77
7d5003: 77
872d6b: 77
8e36c2: 77
7d50c0: 77
832181: 77
65e702: 77
796400: 77
7d4c81: 77
7d55c1: 77
797a84: 77
796685: 77
797341: 77
8e38da: 77
7f91c3: 77
64f4c2: 77
7978c2: 77
650583: 77
6632c7: 77
64b2c1: 77
7f9942: 77
649bd0: 77
64ae01: 77
960302: 77
651863: 77
7a8817: 77
8482c2: 77
798795: 77
649b82: 77
64e280: 77
64ac01: 77
960202: 77
64f482: 77
649f47: 77
64e4c1: 77
64ac80: 77
797f46: 77
64ae45: 77
798241: 77
97a431: 77
7960c0: 77
7d5b03: 77
7d5902: 77
650743: 77
665d70: 77
8e3505: 77
65dcc3: 77
65f901: 77
65f880: 77
8e3b90: 77
65f944: 77
6499c4: 77
64b100: 77
664c05: 77
7d5c7f: 77
7a8984: 77
8321c1: 77
796f80: 77
797380: 77
651bc3: 77
8e3581: 77
796207: 77
65e742: 77
64c440: 77
796c80: 77
64a541: 77
64d782: 77
665f70: 77
665841: 77
665640: 77
796e43: 77
64a741: 77
86e144: 77
797043: 77
64a440: 77
64eed0: 77
796701: 77
64c2c3: 77
797404: 77
64ef87: 77
7974c4: 77
7d5ac0: 77
65df90: 77
65f2c1: 77
649f80: 77
65dc80: 77
797542: 77
8e7ad0: 77
872b20: 77
7969c0: 77
65f2af: 77
7a8a42: 77
797444: 77
664a07: 77
663710: 77
64b285: 77
664b03: 77
663280: 77
8481c3: 77
664eb0: 77
7d5b44: 77
645660: 77
797cc1: 77
664ec6: 77
64a481: 77
6643c0: 77
64e380: 77
6656c5: 77
65e135: 77
665390: 77
665744: 77
66582b: 77
80c4e0: 77
797205: 77
797b85: 77
665ac5: 77
665f81: 77
7973c2: 77
797500: 77
651042: 77
831c42: 77
650c07: 77
64f56d: 77
64ad85: 77
6508f3: 77
7967c0: 77
830a00: 77
796d42: 77
825dc1: 77
825d81: 77
663740: 77
6510c4: 77
825cc2: 77
825d41: 77
64ff81: 77
797249: 77
64a645: 77
7d5c00: 77
825d01: 77
7f9580: 77
796102: 77
86dfc0: 77
796606: 77
8e39bb: 77
649a80: 77
7de780: 77
664592: 77
797746: 77
64a083: 77
64e744: 77
665b1f: 77
64a0c4: 77
65f342: 77
649a01: 77
797787: 77
797184: 77
7d54c1: 77
797f88: 77
65e6c2: 77
663640: 77
832141: 77
6994e0: 77
7d5581: 77
651c01: 77
64d750: 77
6ef360: 77
651107: 77
830e85: 77
7a8ac2: 77
663a40: 77
960283: 77
831900: 77
7d5982: 77
831b83: 77
831c04: 77
831a02: 77
848280: 77
831f04: 77
86d6c0: 77
797bc5: 77
832132: 77
64d7c0: 77
796983: 77
65f380: 77
64a845: 77
645808: 77
796a47: 77
796a01: 77
8e39c1: 77
7984cc: 77
8e38a8: 77
65f8c2: 77
663543: 77
6ef384: 77
797d80: 77
7d5bc7: 77
827543: 77
8e3600: 77
660283: 77
650403: 77
6645c0: 77
7976c1: 77
665b89: 77
796551: 77
65026e: 77
8e3e00: 77
7d5a44: 77
80c541: 77
64f9c2: 77
64aac4: 77
86de00: 77
8318e5: 77
69a205: 77
8e3bc0: 77
64e183: 77
831a41: 77
64e242: 77
8e3402: 77
64b340: 77
649e02: 77
64e302: 77
6649c4: 77
831b00: 77
664046: 77
6638c2: 77
65eeb1: 77
663901: 77
645700: 77
663ad1: 77
796243: 77
663f90: 77
663fc3: 77
663832: 77
7d5701: 77
7972c2: 77
6640a1: 77
66440b: 77
960260: 77
664390: 77
8e3840: 77
663882: 77
64acc0: 77
663840: 77
80e100: 77
645682: 77
9601c4: 77
664642: 77
649f00: 77
64c3c7: 77
797083: 77
97a5f0: 78
827440: 78
8d03a8: 78
848604: 78
8274c0: 78
825c5b: 78
825e01: 78
828480: 78
848143: 78
5e95e0: 78
86515b: 78
825e40: 78
827600: 78
830690: 78
842340: 78
5416a0: 78
827481: 78
8d02b0: 78
848081: 78
8273c0: 78
97a682: 78
827587: 78
827501: 78
8650c6: 78
8275c0: 78
97a6e0: 78
8306c0: 78
827400: 78
828479: 78
5e9600: 78
830700: 78
865000: 78
827389: 78
977500: 78
865086: 78
827780: 79
827640: 80
827703: 80
865043: 80
825e82: 80
827682: 80
963680: 80
8276c0: 81
848650: 147
848581: 149
848682: 149
842481: 149
8e7c60: 149
8e6296: 149
84854e: 149
8e5ed0: 150
8e3ec0: 151
977480: 152
8e3eb0: 152
977440: 152
97ae4f: 152
9774c3: 152
8e5f02: 153
979840: 154
848047: 154
8129b0: 155
4004f0: 155
848120: 155
8480c2: 155
8129c0: 155
865100: 156
BTB TOTAL     ACCESS:   29674718  HIT:   29620843  MISS:      53875  HIT %:    99.8184  MISS %:   0.181552   MPKI: 0.269375
BTB Test counter:          0
BTB BRANCH_DIRECT_JUMP	ACCESS:     633395  HIT:     632983  MISS:        412
BTB BRANCH_INDIRECT	ACCESS:       8917  HIT:       8176  MISS:        741
BTB BRANCH_CONDITIONAL	ACCESS:   27681844  HIT:   27678194  MISS:       3650
BTB BRANCH_DIRECT_CALL	ACCESS:     675281  HIT:     673574  MISS:       1707
BTB BRANCH_INDIRECT_CALL	ACCESS:          0  HIT:          0  MISS:          0
BTB BRANCH_RETURN	ACCESS:     675281  HIT:     627916  MISS:      47365
BTB BRANCH_OTHER ACCESS:          0  HIT:          0  MISS:          0

L2C TOTAL     ACCESS:    5453043  HIT:    4037196  MISS:    1415847  HIT %:    74.0357  MISS %:    25.9643   MPKI: 7.07923
L2C Test counter:          0
L2C LOAD      ACCESS:    2035748  HIT:    1787400  MISS:     248348  HIT %:    87.8007  MISS %:    12.1993   MPKI: 1.24174
L2C DATA LOAD MPKI: 0.6936
L2C INSTRUCTION LOAD MPKI: 0.54814
L2C RFO       ACCESS:     989869  HIT:     583245  MISS:     406624  HIT %:    58.9214  MISS %:    41.0786   MPKI: 2.03312
L2C PREFETCH  ACCESS:    1114647  HIT:     360869  MISS:     753778  HIT %:    32.3752  MISS %:    67.6248   MPKI: 3.76889
L2C DATA PREFETCH MPKI: 3.76889
L2C INSTRUCTION PREFETCH MPKI: 0
L2C WRITEBACK ACCESS:    1301453  HIT:    1300171  MISS:       1282  HIT %:    99.9015  MISS %:  0.0985053   MPKI: 0.00641
L2C LOAD TRANSLATION ACCESS:      11326  HIT:       5511  MISS:       5815  HIT %:     48.658  MISS %:     51.342   MPKI: 0.029075
L2C PREFETCH  REQUESTED:    1130164  ISSUED:    1130164  USEFUL:     672700  USELESS:      81142
L2C USEFUL LOAD PREFETCHES:     672700 PREFETCH ISSUED TO LOWER LEVEL:     765796  ACCURACY: 87.8432
L2C TIMELY PREFETCHES:     672700 LATE PREFETCHES: 12018 DROPPED PREFETCHES: 0
L2C COMMIT LATE PREFETCHES: 0 MISSED OPPORTUNITY: 0 LATE IN PQ: 0 UNCOVERED: 0
L2C COMMIT LATE MSHR PREFETCHES: 0
L2C MPKI TOTAL: 1.24174 MSHR LATE: 0.06009 PQ LATE: 0 COMMIT LATE: 0 MISSED OPPORTUNITY: 0 UNCOVERED: 0
L2C PREFETCHES SAME FILL-ORIGIN LEVEL: 765796 DIFFERENT FILL-ORIGIN LEVEL: 0
L2C AVERAGE MISS LATENCY: 124.827 cycles
L2C AVERAGE MISS LATENCY LOAD: 76.5118 cycles
L2C AVERAGE MISS LATENCY PREFETCH: 130.199 cycles
L2C AVERAGE MSHR OCCUPANCY: 1.33882
L2C MSHR FULL: 0.00141561
L2C RQ	ACCESS:    3037009	FORWARD:          0	MERGED:          0	TO_CACHE:    3036943
L2C WQ	ACCESS:    1301453	FORWARD:        105	MERGED:          0	TO_CACHE:    1301453
L2C PQ	ACCESS:    1130164	FORWARD:          0	MERGED:          0	TO_CACHE:    1130125

L2C Instructions Evicting Data 99719
L2C Translations Evicting Data 5435
L2C Data Evicting Data 1193803
L2C Instructions Evicting Instructions 9415
L2C Translations Evicting Instructions 359
L2C Data Evicting Instructions 100043
L2C Instructions Evicting Translations 494
L2C Translations Evicting Translations 21
L2C Data Evicting Translations 5276
L2C Dense regions hint from L2: 0
77d6c1: 1
7a2200: 1
830883: 1
830802: 1
87c6c5: 1
78969b: 1
87a97f: 1
7a1942: 1
91fde8: 1
87ba69: 1
7a18c0: 1
78c2c5: 1
7886c1: 1
77e841: 1
875540: 1
879107: 1
831ec3: 1
77be87: 1
878843: 1
7d4d02: 1
91fe43: 1
91daf8: 1
7a5101: 1
876553: 1
7a5270: 1
64bf70: 1
875142: 1
77da43: 1
7a4103: 1
87a844: 1
87403f: 1
77e543: 1
8731c0: 1
7a2146: 1
7a3086: 1
87de2c: 1
780640: 1
875942: 1
7a5b45: 1
78697d: 1
873fd1: 1
7a5b81: 1
873d00: 1
7a1d84: 1
7d55e6: 1
87db84: 1
77c245: 1
7da3c1: 1
78a485: 1
77c456: 1
8795c1: 1
8fa045: 1
7a3044: 1
87a804: 1
7d8302: 1
87bb25: 1
876366: 1
7dabc1: 1
7a3dc0: 1
7d9942: 1
77b1f9: 1
87c745: 1
87c247: 1
8744c0: 1
77e470: 1
8797c4: 1
830780: 1
77d800: 1
872474: 1
7db301: 1
920383: 1
77eac6: 1
87b4c1: 1
7db4c3: 1
789b47: 1
7a5280: 1
879e51: 1
7a35c7: 1
8727b3: 1
91fa01: 1
7db682: 1
7a5400: 1
7db785: 1
7a5583: 1
874442: 1
878f01: 1
87de50: 1
785c3c: 1
87de01: 1
77c393: 1
7a34c0: 1
92035e: 1
77b1a1: 1
877b30: 1
7a5bc4: 1
7db800: 1
7878c1: 1
87da00: 1
7db842: 1
789ec6: 1
7d9288: 1
87c580: 1
8767c0: 1
80c6ca: 1
830837: 1
87c941: 1
665007: 1
875201: 1
77d2ac: 1
8787bd: 1
875599: 1
77f902: 1
87a8c2: 1
7a4e02: 1
87b440: 1
87ded9: 1
7a5342: 1
7a4c04: 1
7db500: 1
7a3380: 1
86ecea: 1
77ce42: 1
786d7e: 1
77e344: 1
786d86: 1
8787c4: 1
827981: 1
785859: 1
7a12c0: 1
7d8e01: 1
87da85: 1
875ec2: 1
77e182: 1
879f0b: 1
7dbd81: 1
78a405: 1
877300: 1
876200: 1
77f74e: 1
7a5d80: 1
65f7ff: 1
8790bb: 1
735d01: 1
5416e3: 1
7a4e40: 1
7a4286: 1
874481: 1
877c01: 1
77f2c0: 1
812aaa: 1
77df40: 1
787c40: 1
7a3603: 1
7d9ac2: 1
879b84: 1
7dbc00: 1
873780: 1
785c5b: 1
7d8980: 1
788840: 1
874582: 1
7a3581: 1
7d9bfe: 1
7a5b03: 1
77f6d0: 1
788344: 1
879d82: 1
8745c3: 1
7f9548: 1
77ae80: 1
735ddc: 1
874645: 1
879780: 1
879540: 1
873d81: 1
7d94c0: 1
879582: 1
873201: 1
77fec1: 1
879686: 1
877280: 1
785842: 1
8308c1: 1
78ad38: 1
8726af: 1
879770: 1
735cb0: 1
735cc1: 1
735d80: 1
735dc3: 1
91d7f0: 1
830903: 1
735e05: 1
8732c2: 1
65053e: 1
77b643: 1
91fe87: 1
786600: 1
7d8a40: 1
7a4dc5: 1
78c442: 1
7a4e81: 1
7a4f02: 1
788704: 1
91fa1c: 1
77c801: 1
785b39: 1
7867c2: 1
7a50c3: 1
8731d4: 1
87ba03: 1
7859f9: 1
8794f0: 1
879501: 1
77aca0: 1
7d9ec0: 1
87ab03: 1
788484: 1
879ec2: 1
879f05: 1
7a2f83: 1
873a8a: 1
879ef6: 1
879f40: 1
91f800: 1
874781: 1
879e7a: 1
879f82: 1
87a000: 1
8754f1: 1
87a042: 1
87a0c4: 1
864e51: 1
87a6e0: 1
87a700: 1
7a2341: 1
7da6c1: 1
879c45: 1
735e42: 1
879802: 1
874043: 1
8797cd: 1
879886: 1
77b836: 1
879b4c: 1
87c0e7: 1
879c00: 1
780480: 1
7d4d46: 1
879c38: 1
879cb4: 1
879d02: 1
874543: 1
879d42: 1
879dc2: 1
77d487: 1
788444: 1
879e82: 1
7a2e44: 1
78fe62: 1
87c800: 1
92a7c3: 1
7a3c80: 1
7a48a6: 1
7a1682: 1
78be20: 1
7a4743: 1
7eee2d: 1
87be81: 1
7a44c1: 1
780580: 1
7a2d81: 1
876485: 1
92a68b: 1
7d93c5: 1
7a54c2: 1
7857a7: 1
812a41: 1
8733c3: 1
7a5304: 1
8792c6: 1
879cc0: 1
7a4b30: 1
7a0d80: 1
8fa5c0: 1
87ddeb: 1
875445: 1
879fc2: 1
786900: 1
7d8a04: 1
7db2c2: 1
873400: 1
77ae4d: 1
7a3142: 1
8fa644: 1
77acdb: 1
87db42: 1
7d9682: 1
7a3e40: 1
79691e: 1
77b803: 1
8736ab: 1
78b580: 1
91f9c8: 1
77bac6: 1
794dac: 1
78b4f0: 1
7d8c40: 1
91fb45: 1
64be05: 1
77f882: 1
7899f4: 1
65e140: 1
77c4c0: 1
7eed73: 1
7db7c9: 1
78a200: 1
786d52: 1
787941: 1
7a5642: 1
785951: 1
77b7a2: 1
7a4245: 1
87dddc: 1
873900: 1
78e0d1: 1
87c381: 1
78c4c2: 1
785a01: 1
78b480: 1
7a5f4b: 1
875184: 1
87b832: 1
7a3502: 1
78d0fa: 1
87ab11: 1
873a40: 1
787c80: 1
7a5981: 1
77ae07: 1
876547: 1
7a2040: 1
7a2dc6: 1
7d9cc1: 1
876044: 1
793c86: 1
872980: 1
7d82c1: 1
91f826: 1
785c43: 1
7db141: 1
66345f: 1
86eb7e: 1
7db741: 1
87b803: 1
7a4b41: 1
87dd9e: 1
7a3301: 1
7a2240: 1
735df2: 1
92a697: 1
77c347: 1
877450: 1
87a6e3: 1
78b943: 1
7d9d02: 1
8fa2c0: 1
874946: 1
7da603: 1
86ece3: 1
77b3c3: 1
875f42: 1
87b68e: 1
7a2e00: 1
87d980: 1
7d8841: 1
878903: 1
878c10: 1
7a2b43: 1
92a800: 1
7a5f05: 1
77e280: 1
77eb87: 1
77c941: 1
78c46f: 1
77cd81: 1
78bd42: 1
77f0c0: 1
78c485: 1
87dec3: 1
7d9241: 1
77cf5b: 1
875ac0: 1
7898d6: 1
78a544: 1
830e40: 1
7a3ac2: 1
873e42: 1
87c506: 1
7a1e81: 1
8787ab: 1
7a1080: 1
77c5c7: 1
7876c0: 1
735d44: 1
7a1640: 1
78a1c0: 1
87a965: 1
7a4b83: 1
796b42: 1
78b86e: 1
876e40: 1
7a2985: 1
7f9328: 1
780609: 1
7a1540: 1
7d9385: 1
7d8ec1: 1
789771: 1
7a2a41: 1
875803: 1
77c000: 1
7a3bc4: 1
7a1b86: 1
875a85: 1
87c7c0: 1
7a1841: 1
7a4f41: 1
7a1c80: 1
87dd41: 1
87b540: 1
77c701: 1
8724c3: 1
913397: 1
874136: 1
7a5140: 1
878000: 1
7a4d01: 1
77d582: 1
8737ab: 1
789b02: 1
7da9c5: 1
78a242: 1
7dc803: 1
78ad85: 1
786976: 1
78a8c0: 1
785f43: 1
877740: 1
78028d: 1
77c040: 1
7d8b41: 1
77c6c1: 1
87bfc0: 1
7d8cc0: 1
7a5045: 1
873468: 1
875a03: 1
77f500: 1
64d7f2: 1
7a4140: 1
77e100: 1
7a4cc7: 1
7a1286: 1
7da980: 1
7da443: 1
77d0c0: 1
91d901: 1
87cf4c: 1
78c040: 1
872ac1: 1
7887c0: 1
87bb3a: 1
77ea06: 1
7dc301: 1
77d084: 1
77b769: 1
6656cd: 1
876641: 1
87be00: 1
8fa083: 1
874100: 1
77ba06: 1
7a4383: 1
91f83d: 1
5416e9: 1
87260f: 1
77d222: 1
7868c4: 1
77fbc4: 1
8fa329: 1
788545: 1
7a2ac0: 1
830980: 1
78a3c6: 1
877c44: 1
77c641: 1
7dbac0: 1
87a9ce: 1
87c900: 1
77d4c0: 1
735bc4: 1
873f80: 1
7db906: 1
780a7a: 1
8724b8: 1
77acb1: 1
8740c1: 1
78830a: 1
7a46f0: 1
86e433: 1
78a106: 1
7a4bd1: 1
77d105: 1
785e42: 1
878a40: 1
785b42: 1
872a40: 1
78c003: 1
91db03: 1
7d86c7: 1
7a29c1: 1
87c341: 1
872b02: 1
78c143: 1
77c140: 1
873fea: 1
64bcc0: 1
77cb02: 1
7a3ea5: 1
7a2fc1: 1
735c05: 1
878a83: 1
7da14a: 1
7a4080: 1
873440: 1
873e80: 1
785ac1: 1
7a27c3: 1
77d940: 1
780982: 1
77ce80: 1
77b543: 1
7a4201: 1
879c81: 1
7dc541: 1
7a24c0: 1
7a36c1: 1
87c680: 1
7d9400: 1
8773c2: 1
77d401: 1
791512: 1
87c1c3: 1
7a2e82: 1
7d9580: 1
87bc40: 1
7a2c03: 1
7da780: 1
77db80: 1
7d8d00: 1
875907: 1
7a1200: 1
7d9980: 1
77df00: 1
87410b: 1
7a4c22: 1
7a4186: 1
91fe07: 1
7a1dc1: 1
735b40: 1
7a1f47: 1
7a5c00: 1
875b02: 1
7a2284: 1
7db540: 1
789bc4: 1
879e00: 1
77e580: 1
87b480: 1
786882: 1
7db1c0: 1
7d97c3: 1
873d41: 1
7daa9f: 1
77fa81: 1
7a2f02: 1
785c80: 1
7885e8: 1
77e1c5: 1
77c0c0: 1
7a0e80: 1
7da2ed: 1
7dbe85: 1
8741c0: 1
7877c0: 1
87c2c0: 1
7a1fc7: 1
7eed90: 1
7a3880: 1
87899c: 1
876803: 1
78d3aa: 1
91f8d6: 1
8722f7: 1
77dcc0: 1
873242: 1
77ecc2: 1
87dcc0: 1
7db5c2: 1
920401: 1
7db412: 1
91f985: 1
7dac01: 1
876f42: 1
87c701: 1
7a3b82: 1
77d9c0: 1
78e766: 1
7a20c7: 1
8788c1: 1
77dc01: 1
7dc145: 1
7d8481: 1
7d92c2: 1
87b600: 1
7a25c3: 1
77d1c7: 1
879bc2: 1
7a58b4: 1
87c305: 1
77acf7: 1
7a59c3: 1
7d90c0: 1
7a3f80: 1
7a4806: 1
77b806: 1
8797df: 1
87ab80: 1
7dc6c0: 1
7a3700: 1
77bd43: 1
87a059: 1
7a4a01: 1
877380: 1
77dd02: 1
78a180: 1
7a2902: 1
77cb82: 1
876347: 1
827c01: 1
78ad45: 1
7da0f9: 1
87bb49: 1
875701: 1
7a3e80: 1
7862ad: 1
7d8e40: 1
7a51c5: 1
7a1ac0: 1
7a3941: 1
8775b5: 1
7dbc46: 1
7a2cc7: 1
873b08: 1
87c142: 1
7d9721: 1
91d80c: 1
7d8a39: 1
77c100: 1
8758c5: 1
78c59e: 1
87c202: 1
7a4500: 1
7daf03: 1
77d980: 1
785e83: 1
87a783: 1
[...]
97a40a: 1
875f80: 1
7a1c00: 1
77f202: 1
78bc41: 1
879d42: 1
87b803: 1
7db741: 1
7f9442: 1
873242: 1
86e433: 1
7a5a84: 1
87bfc0: 1
875880: 1
879f40: 1
7a16c2: 1
874900: 1
879302: 1
873dc7: 1
7a1841: 1
7a55c5: 1
874984: 1
7dad2e: 1
8d0304: 1
8748cb: 1
874701: 1
663640: 1
87941c: 1
78a601: 1
8307c9: 1
874a04: 1
7a37c4: 1
8750b4: 1
650583: 1
87bf83: 1
7dbec1: 1
6632c7: 1
7a32c0: 1
77c4c0: 1
8fa644: 1
78e66e: 1
7a0d80: 1
874582: 1
7a41bc: 1
8fa603: 1
8fa5c0: 1
875701: 1
7a3782: 1
786cea: 1
7a4940: 1
86d6c0: 1
7a21c3: 1
64a3c1: 1
879d02: 1
77f6d0: 1
77f1c2: 1
7a17c3: 1
875742: 1
65e135: 1
874683: 1
7dacde: 1
7da142: 1
78d4d0: 1
7a2743: 1
7dc82a: 1
66345f: 1
780280: 1
87ded9: 1
876553: 1
7db301: 1
785c80: 1
735e05: 1
7a13c3: 1
875100: 1
8732c2: 1
7a4e40: 1
7a36c1: 1
8756c0: 1
77f0c0: 1
7a1342: 1
92035e: 1
873225: 1
8757c0: 1
7a3880: 1
64d782: 1
91fef8: 1
8309ad: 1
874136: 1
7eed90: 1
77d780: 1
7d6e83: 1
7a15c5: 1
87b843: 1
77cc81: 1
8777c1: 1
8748de: 1
663ad1: 1
92045b: 1
830e02: 1
65f102: 1
875142: 1
7dab06: 1
780580: 1
7a2083: 1
78bc81: 1
87d980: 1
875445: 1
830802: 1
77b863: 1
873c42: 1
77d3c2: 1
7a1820: 1
7a4684: 1
786983: 1
831a02: 1
780102: 1
7d9701: 1
7d8d41: 1
6f4620: 1
7da941: 1
87b301: 1
87aa03: 1
877740: 1
7d93c5: 1
7a3184: 1
735ae0: 1
879604: 1
7a15dc: 1
7da780: 1
7a1481: 1
7a3486: 1
78b040: 1
7807c1: 1
780880: 1
87b3c0: 1
664f8b: 1
7a0fbb: 1
86da80: 1
77f550: 1
87c0c6: 1
7a8817: 1
663a10: 1
735c05: 1
7a1986: 1
786882: 1
7a22c1: 1
64e485: 1
87a0c4: 1
87bf0e: 1
830980: 1
920401: 1
873841: 1
87bc03: 1
7a49c0: 1
87a965: 1
87bf46: 1
86ed52: 1
87ac02: 1
7dbb41: 1
77cc01: 1
873e80: 1
7a4a01: 1
874840: 1
645840: 1
77bd43: 1
7a0fc2: 1
878843: 1
663b32: 1
64b547: 1
878947: 1
664a86: 1
665640: 1
785909: 1
87b400: 1
77dc40: 1
7d7340: 1
7db6c3: 1
77cf07: 1
876044: 1
87a7c5: 1
87dc42: 1
735bc4: 1
77e383: 1
64a045: 1
8722f7: 1
7859bc: 1
87a700: 1
7a4e02: 1
77db80: 1
873286: 1
664982: 1
65f980: 1
91f97d: 1
92a6c2: 1
879501: 1
872d6b: 1
77e040: 1
8791c0: 1
87c042: 1
7a2200: 1
87c544: 1
87be0d: 1
87be81: 1
87c247: 1
87dcc0: 1
874084: 1
7a4442: 1
879fc2: 1
77b784: 1
7da400: 1
87c202: 1
7da603: 1
785860: 1
91f943: 1
7a1700: 1
87c142: 1
876184: 1
7d99b0: 1
876485: 1
86ece3: 1
87c2c0: 1
78966e: 1
7a2e44: 1
77d6c1: 1
77c783: 1
78fee2: 1
7d5ecb: 1
8767be: 1
7d4f86: 1
87ab03: 1
7a2f40: 1
7897e6: 1
7a2b84: 1
7d9800: 1
650281: 1
87a7be: 1
87ab42: 1
6456c1: 1
8775b5: 1
64f482: 1
832244: 1
87c900: 1
873e00: 1
7dc043: 1
650d87: 1
87c101: 1
7a3044: 1
78e0d1: 1
7da6c1: 1
87c381: 1
87bee9: 1
7d8b41: 1
8754c7: 1
87a783: 1
735c45: 1
86ef6d: 1
87ac43: 1
87dddc: 1
879f2a: 1
650a86: 1
7862ee: 1
7a2e00: 1
78c580: 1
87b68e: 1
87dbf9: 1
77d7ca: 1
87de2c: 1
8790c3: 1
7d9385: 1
7a5486: 1
77be43: 1
87abc2: 1
875eb0: 1
87dc00: 1
77e11d: 1
8749c0: 1
793c80: 2
78e744: 2
961cfc: 2
78e941: 2
78e880: 2
78e582: 2
796e43: 2
78e904: 2
78e5e0: 2
8e344b: 2
790583: 2
792b05: 2
791804: 2
794c49: 2
7a5905: 2
78ef83: 2
872e03: 2
848572: 2
78f300: 2
84315e: 2
78f340: 2
827703: 2
78dd10: 2
78f3c8: 2
77e590: 2
785f82: 2
828479: 2
78f402: 2
97a682: 2
78f486: 2
78e8c5: 2
78f4c0: 2
78efc6: 2
872110: 2
792bc5: 2
78ea02: 2
78eac2: 2
78eb03: 2
665fb9: 2
78eb80: 2
78ee44: 2
790d40: 2
78ebc2: 2
78ec40: 2
78ec83: 2
78e985: 2
78ed84: 2
78ed00: 2
78dd80: 2
78edc2: 2
78ee80: 2
797645: 2
78eec2: 2
78ef07: 2
78ef40: 2
78e7c4: 2
7d6a43: 2
793600: 2
8e5f02: 2
792f80: 2
78e386: 2
7919c2: 2
78f743: 2
786202: 2
961b9f: 2
5e9600: 2
78dd50: 2
797444: 2
7d65fb: 2
791903: 2
7d5c00: 2
796482: 2
7928c1: 2
87b9c5: 2
7d6900: 2
77b442: 2
792c03: 2
78d181: 2
78d205: 2
78d280: 2
78f9ac: 2
78fa05: 2
8e38da: 2
78d2c0: 2
78d237: 2
78d306: 2
792e44: 2
797881: 2
792a33: 2
6634c4: 2
795904: 2
793743: 2
78f046: 2
7d6941: 2
78d279: 2
872dc5: 2
665fc1: 2
78db80: 2
796007: 2
78e804: 2
790145: 2
792ac5: 2
828480: 2
872ec3: 2
5416d0: 2
797b00: 2
78da42: 2
78f2c0: 2
78eb41: 2
95f950: 2
785660: 2
735bfc: 2
65e682: 2
77acc6: 2
7909c4: 2
78db06: 2
78e108: 2
848259: 2
78dc30: 2
794d01: 2
78de94: 2
797500: 2
78df42: 2
78dfc0: 2
795dc7: 2
78e040: 2
827900: 2
793386: 2
793786: 2
92ab0b: 2
78f781: 2
78dc40: 2
78e0c7: 2
78e143: 2
78e241: 2
78e284: 2
790881: 2
78f1c2: 2
78e2c4: 2
796c03: 2
78e302: 2
795606: 2
7961c0: 2
78e402: 2
793bc1: 2
95fa42: 2
792dc1: 2
78d344: 2
78d385: 2
78d404: 2
78d445: 2
78ee01: 2
78d4e6: 2
795240: 2
872942: 2
78d5c2: 2
960283: 2
66df40: 2
78fd42: 2
792d81: 2
9602c3: 2
78e4c1: 2
78d641: 2
78d6c2: 2
78d703: 2
792ec2: 2
797a43: 2
78d783: 2
827556: 2
78d900: 2
87b981: 2
78d941: 2
794f00: 2
790b40: 2
78dbc3: 2
86e442: 2
797901: 2
796282: 2
796443: 2
877f01: 2
796400: 2
796307: 2
796243: 2
80dc3f: 2
796207: 2
796078: 2
960302: 2
873140: 2
872911: 2
960500: 2
97a434: 2
796041: 2
65dc44: 2
7960c0: 2
8e7b67: 2
8e7ad0: 2
790d00: 2
872744: 2
8e3562: 2
8e34f4: 2
872840: 2
8e33fc: 2
8e3402: 2
8e3e00: 2
785f7b: 2
796dc0: 2
796d42: 2
796c80: 2
8e6296: 2
796983: 2
798241: 2
7967c0: 2
7966c3: 2
796551: 2
791a00: 2
795e41: 2
796507: 2
78e780: 2
795740: 2
795b42: 2
827ac1: 2
792785: 2
790dc3: 2
848031: 2
8730a0: 2
842340: 2
795882: 2
795844: 2
7957c1: 2
793480: 2
874802: 2
795707: 2
7956c2: 2
795682: 2
872800: 2
795644: 2
8e39bb: 2
795442: 2
79531d: 2
961840: 2
795f40: 2
795f1a: 2
795d81: 2
795c86: 2
961e02: 2
962801: 2
961d40: 2
961bcf: 2
794a86: 2
827b00: 2
66df53: 2
9617c2: 2
96177e: 2
961704: 2
9616c2: 2
8e33c0: 2
9615e9: 2
78f7c5: 2
795c05: 2
843050: 2
790b05: 2
795d42: 2
663245: 2
78ffc5: 2
78a3bd: 2
78ff00: 2
797fc4: 2
78d3c0: 2
961782: 2
87aac3: 2
663484: 2
7d8def: 2
8d02b0: 2
7d8405: 2
795bc0: 2
7918c1: 2
665fac: 2
961603: 2
7a8842: 2
7987c1: 2
7984cc: 2
786250: 2
78e500: 2
7938c3: 2
7f93f8: 2
793702: 2
827640: 2
793343: 2
9605d8: 2
792b44: 2
7d65b9: 2
792a41: 2
790745: 2
785f5d: 2
793007: 2
78dcc0: 2
872d80: 2
78f500: 2
790e03: 2
792701: 2
848940: 2
796bc5: 2
96b89e: 2
793041: 2
797083: 2
791942: 2
797043: 2
796fc0: 2
65dc01: 2
796f80: 2
796e84: 2
78fe87: 2
796e04: 2
795780: 2
96b872: 2
797f04: 2
8e3838: 2
8e36c2: 2
8e3680: 2
8e3647: 2
8e3600: 2
8e35c0: 2
8e3581: 2
797601: 2
797f46: 2
797e4a: 2
797e04: 2
797c01: 2
797ac0: 2
797a00: 2
797941: 2
797802: 2
797787: 2
797689: 2
795401: 2
797580: 2
873044: 2
7974c4: 2
797404: 2
7973c2: 2
96b800: 2
872fc1: 2
797205: 2
797184: 2
790646: 2
797ec5: 2
790906: 2
790800: 2
7907c3: 2
872f02: 2
795f04: 2
795ec0: 2
790701: 2
795e80: 2
7906c1: 2
790a06: 2
790606: 2
790501: 2
795c41: 2
790482: 2
790400: 2
7903c0: 2
790385: 2
7902c0: 2
790241: 2
797cc1: 2
796800: 2
791041: 2
86e420: 2
790fc4: 2
7f9600: 2
795180: 2
796740: 2
796642: 2
790e83: 2
790e43: 2
7901c1: 2
790d86: 2
790c42: 2
790c00: 2
790bc3: 2
7dadc6: 2
873101: 2
790a82: 2
790a46: 2
847f40: 2
78f882: 2
78f9c7: 2
7951c0: 2
78f982: 2
960260: 2
872640: 2
7950c6: 2
78f907: 2
7963c8: 2
78f8c0: 2
795041: 2
78fa45: 2
64bb40: 2
64bc87: 2
78f844: 2
78f805: 2
8e3702: 2
78f6c0: 2
78f684: 2
78f642: 2
78f5c0: 2
795540: 2
790181: 2
790102: 2
790003: 2
795805: 2
790046: 2
86ed40: 2
78ff43: 2
795580: 2
78fdc1: 2
64bb03: 2
791087: 2
78fd81: 2
78fc40: 2
78fbc0: 2
78fb86: 2
795301: 2
78fb42: 2
78fb04: 2
78fa83: 2
7900c6: 2
7935c7: 2
793b41: 2
793b00: 2
793a6e: 2
78d602: 2
793a84: 2
793880: 2
7937c4: 2
7936c0: 2
793680: 2
793640: 2
793b82: 2
793546: 2
793582: 2
7934c1: 2
825e40: 2
793408: 2
793307: 2
7930c0: 2
792fc1: 2
792f41: 2
794e86: 2
7953f5: 2
795283: 2
796342: 2
795200: 2
64bb80: 2
795143: 2
790f40: 2
794ff0: 2
794fcc: 2
794fc6: 2
792f02: 2
827600: 2
794c02: 2
794bc2: 2
794a40: 2
7949c7: 2
7947c4: 2
794750: 2
793d06: 2
793c00: 2
8726d0: 2
7923c2: 2
797003: 2
791844: 2
7917c0: 2
791752: 2
7914c4: 2
796c41: 2
791482: 2
78d982: 2
791442: 2
792400: 2
791402: 2
7913c2: 2
791343: 2
7911c6: 2
791103: 2
796881: 2
8275c0: 2
7910c2: 2
796846: 2
7926c0: 2
792e04: 2
793ac4: 2
7972c2: 2
792d02: 2
792c41: 2
792a81: 2
792882: 2
792842: 2
792800: 2
796a01: 2
792680: 2
797542: 2
792581: 2
873006: 2
797d00: 2
792541: 2
7924c2: 2
792481: 2
78e1c2: 2
794c82: 2
786380: 2
797305: 2
794e06: 2
790447: 2
794cc3: 2
7958c6: 2
795b45: 2
78ec07: 2
8e3505: 2
795080: 2
8e3480: 2
793502: 2
78da81: 2
78ff87: 2
87b342: 2
78f600: 2
793299: 2
827682: 2
790c86: 2
796942: 2
796606: 2
7927c5: 2
795fc0: 2
825e01: 2
790082: 2
78bf90: 2
827501: 2
796781: 2
78fec0: 2
663440: 2
8726a6: 2
8e3bc0: 2
78d540: 2
78d7c5: 2
7952c0: 2
78d747: 2
8e5ed0: 2
795006: 2
827389: 2
793440: 2
794e46: 2
793080: 2
7d6983: 2
78f247: 2
790946: 2
792745: 2
78e184: 2
961d01: 2
790b81: 2
8e3b90: 2
87b970: 2
786300: 2
78fcc0: 2
7a8780: 2
872690: 2
78ea84: 2
789744: 2
8277f0: 2
8e7b02: 2
8274c0: 2
78e342: 2
827481: 2
796580: 2
796685: 2
78d503: 2
7955c9: 2
78ed40: 2
796a80: 2
9627fd: 2
78f004: 2
864f82: 2
8273c0: 2
792cc2: 2
8306c0: 2
794841: 2
827882: 2
7932c7: 2
827a01: 2
7875eb: 2
787601: 2
920365: 2
9601c4: 2
960bc0: 2
796086: 2
8723c0: 2
77fcc0: 2
7904c6: 2
78e842: 2
7971c5: 2
7978c2: 2
842481: 2
794942: 2
961680: 2
797989: 2
78d481: 2
791385: 2
787bb0: 2
873182: 2
796380: 2
66df4b: 2
961a41: 2
872e46: 2
78d140: 2
7962c0: 2
827855: 2
86e3c2: 2
8278c3: 2
961b5c: 2
790ac0: 2
790f06: 2
7968c3: 2
7964c0: 2
791186: 2
96018d: 2
95fa05: 2
790301: 2
78edfc: 2
7a8882: 2
827440: 2
66df71: 2
797140: 2
797dc7: 2
7965c2: 2
77b8c3: 2
7869e1: 2
797d43: 2
78e704: 2
786182: 2
795e02: 2
793c40: 2
796ec5: 2
792383: 2
794d43: 2
796f05: 2
78f584: 2
8e39c1: 2
794a03: 2
6660c0: 2
797845: 2
796cc5: 2
792e84: 2
961da0: 2
78dc86: 2
78afc0: 2
791287: 2
795f83: 2
78d581: 2
794ec1: 2
796140: 2
790981: 2
78f380: 2
78ea45: 2
797249: 2
78e5c0: 2
796185: 2
848567: 2
735bec: 2
791880: 2
792446: 2
64ba44: 2
7862c2: 2
798795: 2
663381: 2
78f700: 2
8d03a8: 2
795101: 2
78f942: 2
78e482: 2
47dac0: 2
825e82: 2
8727c1: 2
847fed: 2
86ed01: 2
735c27: 2
872700: 2
92a683: 2
795486: 2
872f40: 2
794787: 2
872141: 2
796102: 2
735b02: 2
790780: 2
78e3c6: 2
78f446: 2
7970c0: 2
877b40: 2
7954c3: 2
961a0f: 2
792c87: 2
7f9736: 2
400500: 2
785741: 2
960202: 2
794881: 2
872880: 2
830700: 2
785681: 2
7976c1: 2
830690: 2
791541: 2
78dec3: 2
797a84: 2
791246: 2
873082: 2
791a40: 2
87c082: 2
864e92: 2
7975c1: 2
79236b: 2
64b9c4: 2
8726c0: 2
78d4c1: 2
78e9c1: 2
7d5380: 2
795d05: 2
78dac3: 2
7908c0: 2
7a8750: 2
786349: 2
791306: 2
7912c2: 2
797702: 2
7a87d6: 2
786342: 2
7969c0: 2
786283: 2
7863c0: 2
786242: 2
796900: 2
796701: 2
65dbf0: 2
7861c3: 2
786160: 2
790280: 2
786100: 2
87ba44: 2
961dc1: 2
794f80: 2
7f9640: 2
78e645: 2
8723bb: 2
796d02: 2
78d255: 2
794c40: 2
795b82: 2
792501: 2
797746: 2
794dc6: 2
78e6d3: 2
5416b9: 2
793cc7: 2
7856c3: 2
8129b0: 2
78f081: 2
960606: 2
87bddd: 2
872482: 2
848052: 2
78e442: 2
794901: 2
785701: 2
8e3840: 2
848939: 2
864e5b: 2
794f46: 2
77ec84: 2
794b80: 2
794801: 2
797c44: 2
827587: 2
7a8940: 2
86ef61: 2
7860c1: 2
786080: 2
5416c2: 2
786040: 2
786001: 2
872783: 2
794981: 2
663407: 2
8129c0: 2
8e38c0: 2
786840: 2
790205: 2
785f10: 2
9600e1: 2
790ec4: 2
53c6d0: 2
786402: 2
794b04: 2
86eb04: 2
7d89ca: 2
790840: 2
792641: 2
797d80: 2
78f284: 2
791a84: 2
78f103: 2
8e3783: 2
797282: 2
7d6a00: 2
64b982: 2
8308e0: 2
797bc5: 2
78e080: 2
6660af: 2
78ecc0: 2
78fe06: 2
797341: 2
7d5036: 2
64ba00: 2
827c41: 2
64ba80: 2
78fc88: 2
78e200: 2
794ac5: 2
791780: 2
827400: 2
796a47: 2
8e38a8: 2
66dfa1: 2
7d9b44: 2
792b82: 2
791502: 2
791206: 2
786442: 2
796d89: 2
78f540: 2
78d680: 2
78fe44: 2
95f988: 2
795cc4: 2
95fae0: 2
78f0c0: 2
87a703: 2
78f201: 2
797c85: 2
790cc3: 2
7859c3: 2
78fd03: 2
78f1b3: 2
872e84: 2
797b47: 2
7d69c3: 2
78fac7: 2
827941: 2
77f478: 2
86eafb: 2
795501: 2
791000: 2
78d9c2: 2
78e5f0: 2
8e3752: 2
78da01: 2
797b85: 2
7f9241: 2
64bac4: 2
7dbbe9: 2
7905c7: 2
791585: 2
7d4cc5: 2
735c13: 2
790547: 2
7933d4: 2
797485: 2
790342: 2
792d46: 2
794d84: 2
797380: 2
797100: 2
78e000: 2
791980: 2
7925c7: 2
797e82: 2
8730c0: 2
7948c4: 2
865181: 2
78db42: 2
7979c0: 2
792602: 2
97a5f3: 2
791142: 2
86e403: 2
78fc00: 2
797f88: 2
7dab41: 2
8e7c60: 2
78e600: 2
7977cb: 2
790686: 2
7d5dc5: 2
796f41: 3
8e4030: 3
86515b: 3
960100: 3
848682: 3
8e4086: 3
8e4041: 3
9600c2: 3
8d02f2: 3
961541: 3
8e4100: 3
963680: 3
827931: 3
78d800: 3
865000: 3
97a5f0: 3
961641: 3
86da84: 3
96014c: 3
8d02d1: 3
794b43: 3
977440: 3
78f90a: 3
847ff8: 3
78d2b4: 3
864f45: 3
8e40d0: 3
95f9fa: 3
963701: 3
8cff40: 3
872302: 3
960070: 3
790f81: 3
864fc1: 3
827804: 3
961597: 3
864f2c: 3
64e51b: 3
864e20: 3
864e8d: 3
961530: 3
865086: 3
848143: 3
8e3ff0: 3
78c090: 3
960081: 3
78c050: 3
864f24: 3
78bff0: 3
9203c4: 3
848604: 3
96b7c2: 3
78d0e0: 3
797bc9: 3
78d102: 3
8276c0: 3
977480: 3
78c020: 3
95faa2: 3
8485c2: 3
865043: 3
864e3f: 3
78eaa1: 3
78d246: 3
82794d: 3
7dafcd: 3
827b90: 3
848081: 3
97a431: 3
795914: 3
9636b4: 3
8650c6: 3
7db391: 3
78df80: 3
6633c2: 3
9636c9: 3
78df00: 3
827840: 3
9636a0: 3
78d1c0: 3
78d175: 3
827780: 3
848650: 3
7d8fdf: 3
7d73d0: 3
848581: 3
848120: 3
7a8800: 3
961582: 3
864e46: 3
864e82: 3
848010: 3
8274c4: 4
8e3ba1: 4
8262ad: 4
8273c4: 4
78c070: 4
825c5b: 4
864e9a: 4
825bdc: 4
8274f9: 4
7f92d0: 4
78c0c0: 4
78ebb0: 4
97985d: 4
785fc6: 4
78d1a8: 4
78e00c: 4
873899: 4
66df83: 4
78fa08: 4
96156e: 4
960bb5: 4
87c89e: 4
8765fe: 4
7a4540: 4
8273ea: 4
66322c: 4
84855c: 4
7f91ee: 4
7f93b0: 4
8737b3: 4
7f958c: 4
7d7701: 5
7d4f4b: 5
4004f0: 5
7d4e8b: 5
84305d: 5
84854e: 5
843064: 5
848228: 5
64b3ad: 5
872896: 5
793cbd: 5
865100: 5
7f9580: 5
64a15c: 5
5416a0: 5
7964b0: 5
64b3c0: 5
87dde2: 5
7db02d: 5
64a9d3: 6
8480c2: 6
5e95e0: 6
7f9229: 6
78fa6a: 6
963689: 6
97a6e0: 6
7f93eb: 6
64a9bc: 6
7a88f0: 6
7d90f5: 6
7955ad: 6
78f160: 7
7da2e3: 7
848021: 7
7a4ef2: 7
64a0bc: 7
78a3ab: 7
848047: 7
77be30: 7
64e521: 7
64e411: 7
7d9bbe: 7
877e9f: 7
795b2b: 7
7d8b74: 7
7db1cd: 7
865011: 7
865091: 7
864ea8: 7
77be26: 7
77e690: 7
87518e: 7
64b674: 7
64b783: 7
7d4e93: 7
87c654: 7
865020: 7
979840: 8
77ee6a: 8
87da35: 8
64becb: 8
7db129: 8
78679c: 8
8797ee: 8
7d65c3: 8
78ebf4: 8
77e8f7: 8
64a109: 8
794c55: 8
78f165: 9
78e0da: 9
77f45c: 9
7de781: 9
64b65b: 9
977500: 9
793cb3: 9
7802c5: 9
7d9c44: 9
7d7405: 9
77d7c0: 9
7d6622: 9
64e538: 9
80dea7: 10
65f81f: 10
78f3f4: 10
86da2b: 10
64b68d: 10
77d160: 10
7d7378: 10
64a9f1: 10
78d288: 10
794f0b: 11
64a0f2: 11
7db387: 11
78e540: 11
64b34a: 11
7919f6: 11
77af03: 11
7f95df: 11
875730: 11
77e110: 12
78eb11: 12
87aa38: 12
7a2270: 12
77f457: 12
7d5556: 12
64bc30: 12
64e401: 12
78f31a: 12
91f92f: 13
7863fc: 13
77b047: 13
77c776: 13
91d8ac: 13
78633c: 14
786404: 14
7964b4: 14
64a0d4: 15
78fa3f: 15
92a732: 15
78ead7: 15
7eedee: 15
64aa53: 15
794f03: 15
830784: 15
77c0c6: 16
91d8be: 16
77c16b: 16
77c81a: 16
7d7391: 16
7a3fb0: 17
77bf2b: 17
77bf38: 17
794c97: 17
64a0ce: 17
87b320: 17
7a3fd1: 17
794f8b: 17
97acd1: 17
8748c2: 18
64a9e4: 18
794bf3: 19
77ee6e: 19
78ee12: 19
7d5544: 20
7d5915: 20
7d5675: 20
87a740: 20
78f968: 20
64e4cc: 21
651046: 21
8764d0: 21
794c39: 22
825cf3: 22
7dad5c: 22
795249: 23
64e3e3: 23
64aa40: 23
77e6d8: 24
8e3f10: 24
87488a: 25
64a9cd: 25
77e560: 25
64a9ea: 25
795093: 25
77c77b: 26
787b15: 26
77ee8a: 26
7861f5: 26
785eb5: 26
77d169: 26
87dca3: 26
77c9ab: 26
78d8f1: 26
77d176: 26
8789a8: 26
785eb0: 27
77bf20: 27
87bfc4: 27
787b10: 27
87cf00: 27
64a0b0: 27
64a0e6: 27
64a140: 27
64a9b6: 27
7861f0: 27
7951a3: 28
64a0b6: 28
8e40a7: 28
825c63: 28
77d920: 28
7d99f0: 28
848295: 28
64a0ec: 28
7d992d: 28
8481e4: 28
7d9909: 28
77cd43: 28
78d8c1: 29
842355: 29
786344: 29
793065: 29
77c230: 30
78b560: 30
86da91: 31
825e03: 31
64a9b0: 31
77c2da: 32
825d78: 32
77c37e: 32
77c0cb: 32
77c16f: 32
77ca4e: 32
77c81e: 32
97751b: 33
78e033: 34
827391: 34
7d557c: 34
830a00: 34
7eed9d: 35
64e4c6: 37
7dc3f9: 38
78ec2e: 39
7952d8: 40
7a2bf3: 41
794cd6: 42
77dc4b: 42
977420: 43
77af73: 43
735bb2: 46
735b4f: 46
735b6d: 46
735b8c: 46
735d6c: 47
735d92: 47
735d2f: 47
735d4d: 47
7dad71: 49
7dacbf: 51
873160: 51
86da89: 52
8306d0: 52
7d9cfa: 52
78d90a: 53
8763aa: 54
8761e8: 54
79309d: 54
87480b: 54
8761e0: 54
876eb0: 54
879630: 54
8763bd: 54
879642: 55
78681f: 55
8763ec: 55
7d88d0: 55
7a1b44: 55
873220: 55
876ec2: 55
77ce08: 56
7a4000: 56
780180: 56
78d917: 56
77cd47: 56
786800: 56
78d8fa: 58
7dadb4: 59
77c234: 59
77c445: 59
87481f: 61
7d65a9: 64
7dad9b: 65
7d8eed: 67
7d90dd: 67
7d8fce: 68
7d8dde: 68
78d804: 70
793caa: 72
92a76e: 74
7dacd1: 77
86d9a9: 78
79640e: 82
7d7354: 83
796409: 89
78f9d1: 90
848130: 93
843168: 104
7a44d4: 107
872dc0: 112
87c4b0: 115
87c8a3: 117
7d55aa: 125
7937ca: 126
92a744: 127
64bcf1: 132
7dad14: 132
65dca0: 144
7d73a7: 145
6645d6: 151
78d840: 157
7d7382: 160
793802: 160
65f0c4: 162
7dacfc: 170
793847: 171
877c20: 174
64e3d0: 177
64e4ef: 181
793888: 186
7d73e6: 187
7d55d7: 191
7d59b0: 196
78d8e1: 198
78fa8b: 199
977406: 204
7d597d: 210
7d556d: 220
796417: 221
78e5e8: 232
78e549: 241
78d81b: 243
9774bc: 253
9774c3: 262
78e045: 263
87bc30: 264
79641c: 270
78f332: 271
876eb5: 276
78ec46: 280
848138: 281
876ec7: 282
977499: 300
977492: 304
7de7ae: 311
78d883: 320
848660: 322
7a5cd4: 330
7a2214: 333
878018: 335
78d8aa: 349
78d932: 350
78d856: 353
78e01e: 377
792fd9: 428
87a86a: 431
873c80: 437
7a58b0: 437
64b82c: 438
793026: 451
87dd00: 480
87ab70: 494
873ce0: 506
78dcf0: 510
87aa30: 540
87b869: 552
78eb31: 590
78d86c: 595
7d5947: 660
87bedf: 663
78d898: 681
873340: 697
77e319: 771
77e1b5: 789
77e1b9: 797
879635: 810
87bec9: 815
77e269: 863
87beb2: 864
77e3c9: 866
78039a: 916
86da8d: 929
872bd4: 955
7867f0: 1023
879647: 1122
78680d: 1197
87da67: 1263
7867f8: 1340
825db0: 1352
7801f0: 1490
872f80: 1524
786816: 1576
8306df: 2699
848668: 4482

RAW hits: 667149
Loads Generated: 40494544
Loads sent to L1D: 39827392
Stores Generated: 13600306
Stores sent to L1D: 13600317
Major fault: 0 Minor fault: 9397
Allocated PAGES: 9397
Total Load insts: 51020925
Total Non-spec loads: 5323849
Percentage of speculative loads: 89.5654
L1D response latency: 22.8652 cycles
Load retirement latency: 45.6125 cycles

[Bingo] PHT Access: 81502
[Bingo] PHT Hit PC+Addr: 31398
[Bingo] PHT Hit PC+Offs: 36152
[Bingo] PHT Miss: 13952
[Bingo] Prefetch PC+Addr: 0
[Bingo] Prefetch PC+Offs: 0
[Bingo] Useful PC+Addr: 0
[Bingo] Useful PC+Offs: 0
[Bingo] Useless PC+Addr: 0
[Bingo] Useless PC+Offs: 0
[Bingo] L1 Prefetch per Region: 0
[Bingo] L2 Prefetch per Region: 17.8695
[Bingo] L3 Prefetch per Region: 0
[Bingo] No Prefetch per Region: 14.1305
[Bingo] Number of Voters Mean: 11.2575
[Bingo] Number of Voters SD: 8.17222
PHT read accesses: 860775
PHT write accesses: 65338
AT read accesses: 1837940
AT write accesses: 1890715
FT read accesses: 228511
FT write accesses: 81502
PS read accesses: 196498
PS write accesses: 67550
PHT tag read accesses: 2533750
PHT tag write accesses: 96736
AT tag read accesses: 56429369
AT tag write accesses: 1903275
FT tag read accesses: 28224748
FT tag write accesses: 230617
PS tag read accesses: 33028148
PS tag write accesses: 263774

DRAM Statistics
 CHANNEL 0
 RQ ROW_BUFFER_HIT:     363976  ROW_BUFFER_MISS:     320350
 DBUS_CONGESTED:       1065
 WQ ROW_BUFFER_HIT:     109795  ROW_BUFFER_MISS:     218597  FULL:        771

 AVG_CONGESTED_CYCLE: 5
 All warmup complete: 2
Channel 0 Bank busy for read cycles: 0
Channel 0 Bank busy for write cycles: 0
Channel 0
Rank 0
0banks busy for read cycles: 217838057
0banks busy for write cycles: 20940
1banks busy for read cycles: 7008903
1banks busy for write cycles: 1840690
2banks busy for read cycles: 4760921
2banks busy for write cycles: 1142056
3banks busy for read cycles: 1603694
3banks busy for write cycles: 768200
4banks busy for read cycles: 900968
4banks busy for write cycles: 627817
5banks busy for read cycles: 581883
5banks busy for write cycles: 593413
6banks busy for read cycles: 641961
6banks busy for write cycles: 577905
7banks busy for read cycles: 915301
7banks busy for write cycles: 827449
8banks busy for read cycles: 3597517
8banks busy for write cycles: 3866636

CPU 0 Branch Prediction Accuracy: 99.215% MPKI: 1.19675 Average ROB Occupancy at Mispredict: 22.4855
Branch types
NOT_BRANCH: 169508340 84.7542%
BRANCH_DIRECT_JUMP: 633395 0.316698%
BRANCH_INDIRECT: 8917 0.0044585%
BRANCH_CONDITIONAL: 28498607 14.2493%
BRANCH_DIRECT_CALL: 675281 0.337641%
BRANCH_INDIRECT_CALL: 0 0%
BRANCH_RETURN: 675281 0.337641%
BRANCH_OTHER: 0 0%

DRAM PAGES: 1048576
Allocated PAGES: 9397
