
*** ChampSim Multicore Out-of-Order Simulator ***

Warmup Instructions: 50000000
Simulation Instructions: 200000000
Number of CPUs: 1
LLC sets: 2048
LLC ways: 16
Secure Berti: OFF
Berti: OFF
Berti Fill: OFF
On commit prefetching: OFF
L2 LLC Bypass speculative loads: OFF
Off-chip DRAM Size: 4096 MB Channels: 1 Width: 64-bit Data Rate: 6400 MT/s
CPU 0 runs /home/sumon/secure_berti/Berti_Baseline/../../traces/spec/649.fotonik3d_s-8225B.champsimtrace.xz
.xz
BTB has LRU replacement policy
ITLB has LRU replacement policy
DTLB has LRU replacement policy
STLB has LRU replacement policy
L1I has LRU replacement policy
L1D has LRU replacement policy
Bingo PHT WAYS: 16 and PHT_SIZE: 16384
L2C has LRU replacement policy
LLC has LRU replacement policy
Heartbeat CPU 0 instructions: 10000001 cycles: 2911278 heartbeat IPC: 3.43492 cumulative IPC: 3.43492 (Simulation time: 0 hr 0 min 20 sec) 
Heartbeat CPU 0 instructions: 20000001 cycles: 5821815 heartbeat IPC: 3.43579 cumulative IPC: 3.43535 (Simulation time: 0 hr 0 min 37 sec) 
Heartbeat CPU 0 instructions: 30000000 cycles: 8732332 heartbeat IPC: 3.43582 cumulative IPC: 3.43551 (Simulation time: 0 hr 0 min 53 sec) 
Heartbeat CPU 0 instructions: 40000002 cycles: 11642868 heartbeat IPC: 3.43579 cumulative IPC: 3.43558 (Simulation time: 0 hr 1 min 9 sec) 
Heartbeat CPU 0 instructions: 50000001 cycles: 14553386 heartbeat IPC: 3.43581 cumulative IPC: 3.43563 (Simulation time: 0 hr 1 min 25 sec) 

Warmup complete CPU 0 instructions: 50000001 cycles: 14553386 (Simulation time: 0 hr 1 min 25 sec) 

Heartbeat CPU 0 instructions: 60000000 cycles: 24544428 heartbeat IPC: 1.0009 cumulative IPC: 1.0009 (Simulation time: 0 hr 1 min 46 sec) 
Heartbeat CPU 0 instructions: 70000001 cycles: 34527120 heartbeat IPC: 1.00173 cumulative IPC: 1.00131 (Simulation time: 0 hr 2 min 6 sec) 
Heartbeat CPU 0 instructions: 80000002 cycles: 44508987 heartbeat IPC: 1.00182 cumulative IPC: 1.00148 (Simulation time: 0 hr 2 min 26 sec) 
Heartbeat CPU 0 instructions: 90000003 cycles: 54491949 heartbeat IPC: 1.00171 cumulative IPC: 1.00154 (Simulation time: 0 hr 2 min 47 sec) 
Heartbeat CPU 0 instructions: 100000000 cycles: 64473605 heartbeat IPC: 1.00184 cumulative IPC: 1.0016 (Simulation time: 0 hr 3 min 7 sec) 
Heartbeat CPU 0 instructions: 110000000 cycles: 74457133 heartbeat IPC: 1.00165 cumulative IPC: 1.00161 (Simulation time: 0 hr 3 min 26 sec) 
Heartbeat CPU 0 instructions: 120000002 cycles: 84437893 heartbeat IPC: 1.00193 cumulative IPC: 1.00165 (Simulation time: 0 hr 3 min 47 sec) 
Heartbeat CPU 0 instructions: 130000003 cycles: 94420436 heartbeat IPC: 1.00175 cumulative IPC: 1.00166 (Simulation time: 0 hr 4 min 7 sec) 
Heartbeat CPU 0 instructions: 140000002 cycles: 104402694 heartbeat IPC: 1.00178 cumulative IPC: 1.00168 (Simulation time: 0 hr 4 min 27 sec) 
Heartbeat CPU 0 instructions: 150000003 cycles: 114384401 heartbeat IPC: 1.00183 cumulative IPC: 1.00169 (Simulation time: 0 hr 4 min 46 sec) 
Heartbeat CPU 0 instructions: 160000000 cycles: 124364424 heartbeat IPC: 1.002 cumulative IPC: 1.00172 (Simulation time: 0 hr 5 min 6 sec) 
Heartbeat CPU 0 instructions: 170000001 cycles: 134346562 heartbeat IPC: 1.00179 cumulative IPC: 1.00173 (Simulation time: 0 hr 5 min 25 sec) 
Heartbeat CPU 0 instructions: 180000000 cycles: 144327241 heartbeat IPC: 1.00194 cumulative IPC: 1.00174 (Simulation time: 0 hr 5 min 44 sec) 
Heartbeat CPU 0 instructions: 190000003 cycles: 154307979 heartbeat IPC: 1.00193 cumulative IPC: 1.00176 (Simulation time: 0 hr 6 min 4 sec) 
Heartbeat CPU 0 instructions: 200000003 cycles: 164290526 heartbeat IPC: 1.00175 cumulative IPC: 1.00176 (Simulation time: 0 hr 6 min 23 sec) 
Heartbeat CPU 0 instructions: 210000000 cycles: 174271614 heartbeat IPC: 1.00189 cumulative IPC: 1.00176 (Simulation time: 0 hr 6 min 42 sec) 
Heartbeat CPU 0 instructions: 220000000 cycles: 184253504 heartbeat IPC: 1.00181 cumulative IPC: 1.00177 (Simulation time: 0 hr 7 min 1 sec) 
Heartbeat CPU 0 instructions: 230000000 cycles: 194233926 heartbeat IPC: 1.00196 cumulative IPC: 1.00178 (Simulation time: 0 hr 7 min 20 sec) 
Heartbeat CPU 0 instructions: 240000000 cycles: 204215813 heartbeat IPC: 1.00181 cumulative IPC: 1.00178 (Simulation time: 0 hr 7 min 39 sec) 
Heartbeat CPU 0 instructions: 250000003 cycles: 214195741 heartbeat IPC: 1.00201 cumulative IPC: 1.00179 (Simulation time: 0 hr 7 min 57 sec) 
Finished CPU 0 instructions: 200000002 cycles: 199642355 cumulative IPC: 1.00179 (Simulation time: 0 hr 7 min 57 sec) 

ChampSim completed all CPUs

Region of Interest Statistics

CPU 0 cumulative IPC: 1.00179 instructions: 200000002 cycles: 199642355
ITLB TOTAL     ACCESS:   28071018  HIT:   28071018  MISS:          0  HIT %:        100  MISS %:          0   MPKI: 0
ITLB Test counter:          0
ITLB LOAD TRANSLATION ACCESS:   28071018  HIT:   28071018  MISS:          0  HIT %:        100  MISS %:          0   MPKI: 0
ITLB PREFETCH  REQUESTED:          0  ISSUED:          0  USEFUL:          0  USELESS:          0
ITLB USEFUL LOAD PREFETCHES:          0 PREFETCH ISSUED TO LOWER LEVEL:          0  ACCURACY: -nan
ITLB TIMELY PREFETCHES:          0 LATE PREFETCHES: 0 DROPPED PREFETCHES: 0
ITLB COMMIT LATE PREFETCHES: 0 MISSED OPPORTUNITY: 0 LATE IN PQ: 0 UNCOVERED: 0
ITLB COMMIT LATE MSHR PREFETCHES: 0
ITLB MPKI TOTAL: 0 MSHR LATE: 0 PQ LATE: 0 COMMIT LATE: 0 MISSED OPPORTUNITY: 0 UNCOVERED: 0
ITLB PREFETCHES SAME FILL-ORIGIN LEVEL: 0 DIFFERENT FILL-ORIGIN LEVEL: 0
ITLB AVERAGE MISS LATENCY: -nan cycles
ITLB AVERAGE MISS LATENCY LOAD: -nan cycles
ITLB AVERAGE MISS LATENCY PREFETCH: -nan cycles
ITLB AVERAGE MSHR OCCUPANCY: 0
ITLB MSHR FULL: 0
ITLB RQ	ACCESS:   35091341	FORWARD:          0	MERGED:    7020323	TO_CACHE:   28071018

DTLB TOTAL     ACCESS:   31155972  HIT:   31109103  MISS:      46869  HIT %:    99.8496  MISS %:   0.150433   MPKI: 0.234345
DTLB Test counter:          0
DTLB LOAD TRANSLATION ACCESS:   31155972  HIT:   31109103  MISS:      46869  HIT %:    99.8496  MISS %:   0.150433   MPKI: 0.234345
DTLB PREFETCH  REQUESTED:          0  ISSUED:          0  USEFUL:          0  USELESS:          0
DTLB USEFUL LOAD PREFETCHES:          0 PREFETCH ISSUED TO LOWER LEVEL:          0  ACCURACY: -nan
DTLB TIMELY PREFETCHES:          0 LATE PREFETCHES: 0 DROPPED PREFETCHES: 0
DTLB COMMIT LATE PREFETCHES: 0 MISSED OPPORTUNITY: 0 LATE IN PQ: 0 UNCOVERED: 0
DTLB COMMIT LATE MSHR PREFETCHES: 0
DTLB MPKI TOTAL: 0 MSHR LATE: 0 PQ LATE: 0 COMMIT LATE: 0 MISSED OPPORTUNITY: 0 UNCOVERED: 0
DTLB PREFETCHES SAME FILL-ORIGIN LEVEL: 0 DIFFERENT FILL-ORIGIN LEVEL: 0
DTLB AVERAGE MISS LATENCY: 89.2579 cycles
DTLB AVERAGE MISS LATENCY LOAD: -nan cycles
DTLB AVERAGE MISS LATENCY PREFETCH: -nan cycles
DTLB AVERAGE MSHR OCCUPANCY: 0.00450778
DTLB MSHR FULL: 0
DTLB RQ	ACCESS:   48974684	FORWARD:          0	MERGED:   17815912	TO_CACHE:   31158772

STLB TOTAL     ACCESS:      46869  HIT:      19420  MISS:      27449  HIT %:    41.4346  MISS %:    58.5654   MPKI: 0.137245
STLB Test counter:          0
STLB LOAD TRANSLATION ACCESS:      46869  HIT:      19420  MISS:      27449  HIT %:    41.4346  MISS %:    58.5654   MPKI: 0.137245
STLB PREFETCH  REQUESTED:          0  ISSUED:          0  USEFUL:          0  USELESS:          0
STLB USEFUL LOAD PREFETCHES:          0 PREFETCH ISSUED TO LOWER LEVEL:          0  ACCURACY: -nan
STLB TIMELY PREFETCHES:          0 LATE PREFETCHES: 0 DROPPED PREFETCHES: 0
STLB COMMIT LATE PREFETCHES: 0 MISSED OPPORTUNITY: 0 LATE IN PQ: 0 UNCOVERED: 0
STLB COMMIT LATE MSHR PREFETCHES: 0
STLB MPKI TOTAL: 0 MSHR LATE: 0 PQ LATE: 0 COMMIT LATE: 0 MISSED OPPORTUNITY: 0 UNCOVERED: 0
STLB PREFETCHES SAME FILL-ORIGIN LEVEL: 0 DIFFERENT FILL-ORIGIN LEVEL: 0
STLB AVERAGE MISS LATENCY: 136.806 cycles
STLB AVERAGE MISS LATENCY LOAD: -nan cycles
STLB AVERAGE MISS LATENCY PREFETCH: -nan cycles
STLB AVERAGE MSHR OCCUPANCY: 0.00245365
STLB MSHR FULL: 0
STLB RQ	ACCESS:      46869	FORWARD:          0	MERGED:          0	TO_CACHE:      46869

STLB Hit, L1D data hit: 0
STLB Hit, L2C data hit: 0
STLB Hit, LLC data hit: 0
STLB Hit, LLC data miss: 0
STLB STLB hints to L2: 0
L1D TOTAL     ACCESS:   48685697  HIT:   46038950  MISS:    2646747  HIT %:    94.5636  MISS %:     5.4364   MPKI: 13.2337
L1D Test counter:          0
L1D LOAD      ACCESS:   34650827  HIT:   32006713  MISS:    2926876  HIT %:    92.3693  MISS %:    7.63074   MPKI: 13.2206
L1D RFO       ACCESS:   14034870  HIT:   14032237  MISS:       2633  HIT %:    99.9812  MISS %:  0.0187604   MPKI: 0.013165
L1D PREFETCH  REQUESTED:          0  ISSUED:          0  USEFUL:          0  USELESS:          0
L1D USEFUL LOAD PREFETCHES:          0 PREFETCH ISSUED TO LOWER LEVEL:          0  ACCURACY: -nan
L1D TIMELY PREFETCHES:          0 LATE PREFETCHES: 0 DROPPED PREFETCHES: 0
L1D COMMIT LATE PREFETCHES: 0 MISSED OPPORTUNITY: 0 LATE IN PQ: 0 UNCOVERED: 0
L1D COMMIT LATE MSHR PREFETCHES: 0
L1D MPKI TOTAL: 14.6344 MSHR LATE: 0 PQ LATE: 0 COMMIT LATE: 0 MISSED OPPORTUNITY: 0 UNCOVERED: 0
L1D PREFETCHES SAME FILL-ORIGIN LEVEL: 0 DIFFERENT FILL-ORIGIN LEVEL: 0
L1D AVERAGE MISS LATENCY: 20.9407 cycles
L1D AVERAGE MISS LATENCY LOAD: 20.9379 cycles
L1D AVERAGE MISS LATENCY PREFETCH: -nan cycles
L1D AVERAGE MSHR OCCUPANCY: 0.183752
L1D MSHR FULL: 0
L1D RQ	ACCESS:   70165931	FORWARD:          0	MERGED:   35232038	TO_CACHE:   34933588
L1D WQ	ACCESS:   14041096	FORWARD:        305	MERGED:          0	TO_CACHE:   14041096

L1D UNIQUE REGIONS ACCESSED: 0
L1D REGIONS CONFLICTS: 0
L1D Cross Page Prefetch Requests: 0
L1D Same Page Prefetch Requests: 0
L1D ROI Sum of L1D PQ occupancy: 0
L1D PREFETCHES PUSHED FROM L2C: 0
405d70: 15
405c2a: 42
40452b: 54
404bb2: 54
404533: 56
404b43: 136
405c30: 397
405d6a: 423
405afe: 433
40451c: 437
404a26: 438
404a74: 438
405cd4: 438
405b8e: 438
405bd6: 438
405bdd: 438
404b33: 438
404bb7: 438
404580: 438
404bfc: 438
40450c: 438
4043c6: 438
404552: 438
405ac3: 438
404578: 438
404375: 438
405ce9: 438
404561: 438
405e1a: 438
405bc0: 438
404ba3: 438
405acd: 438
405d1d: 438
405d00: 438
405b0d: 438
405d16: 438
404be8: 438
405ce0: 438
405df2: 370566
405cb2: 378877
405d32: 438000
405bf2: 438748
405cac: 497959
405dec: 505653
L1I TOTAL     ACCESS:   35091340  HIT:   35091340  MISS:          0  HIT %:        100  MISS %:          0   MPKI: 0
L1I Test counter:          0
L1I LOAD      ACCESS:   35091340  HIT:   35091340  MISS:          0  HIT %:        100  MISS %:          0   MPKI: 0
L1I PREFETCH  REQUESTED:          0  ISSUED:          0  USEFUL:          0  USELESS:          0
L1I USEFUL LOAD PREFETCHES:          0 PREFETCH ISSUED TO LOWER LEVEL:          0  ACCURACY: -nan
L1I TIMELY PREFETCHES:          0 LATE PREFETCHES: 0 DROPPED PREFETCHES: 0
L1I COMMIT LATE PREFETCHES: 0 MISSED OPPORTUNITY: 0 LATE IN PQ: 0 UNCOVERED: 0
L1I COMMIT LATE MSHR PREFETCHES: 0
L1I MPKI TOTAL: 0 MSHR LATE: 0 PQ LATE: 0 COMMIT LATE: 0 MISSED OPPORTUNITY: 0 UNCOVERED: 0
L1I PREFETCHES SAME FILL-ORIGIN LEVEL: 0 DIFFERENT FILL-ORIGIN LEVEL: 0
L1I AVERAGE MISS LATENCY: -nan cycles
L1I AVERAGE MISS LATENCY LOAD: -nan cycles
L1I AVERAGE MISS LATENCY PREFETCH: -nan cycles
L1I AVERAGE MSHR OCCUPANCY: 0
L1I MSHR FULL: 0
L1I RQ	ACCESS:   45628406	FORWARD:          0	MERGED:   10537065	TO_CACHE:   35091341

BTB TOTAL     ACCESS:    3509174  HIT:    3509165  MISS:          9  HIT %:    99.9997  MISS %: 0.000256471   MPKI: 4.5e-05
BTB Test counter:          0
BTB BRANCH_DIRECT_JUMP	ACCESS:        876  HIT:        874  MISS:          2
BTB BRANCH_INDIRECT	ACCESS:          0  HIT:          0  MISS:          0
BTB BRANCH_CONDITIONAL	ACCESS:    3506546  HIT:    3506543  MISS:          3
BTB BRANCH_DIRECT_CALL	ACCESS:        876  HIT:        874  MISS:          2
BTB BRANCH_INDIRECT_CALL	ACCESS:          0  HIT:          0  MISS:          0
BTB BRANCH_RETURN	ACCESS:        876  HIT:        874  MISS:          2
BTB BRANCH_OTHER ACCESS:          0  HIT:          0  MISS:          0

L2C TOTAL     ACCESS:    6944169  HIT:    5155200  MISS:    1788969  HIT %:    74.2378  MISS %:    25.7622   MPKI: 8.94484
L2C Test counter:          0
L2C LOAD      ACCESS:    2644113  HIT:    2549863  MISS:      94250  HIT %:    96.4355  MISS %:    3.56452   MPKI: 0.47125
L2C DATA LOAD MPKI: 0.47125
L2C INSTRUCTION LOAD MPKI: 0
L2C RFO       ACCESS:       2633  HIT:       1864  MISS:        769  HIT %:    70.7938  MISS %:    29.2062   MPKI: 0.003845
L2C PREFETCH  ACCESS:    2512528  HIT:     822127  MISS:    1690401  HIT %:    32.7211  MISS %:    67.2789   MPKI: 8.452
L2C DATA PREFETCH MPKI: 8.452
L2C INSTRUCTION PREFETCH MPKI: 0
L2C WRITEBACK ACCESS:    1757432  HIT:    1757432  MISS:          0  HIT %:        100  MISS %:          0   MPKI: 0
L2C LOAD TRANSLATION ACCESS:      27463  HIT:      23914  MISS:       3549  HIT %:    87.0772  MISS %:    12.9228   MPKI: 0.017745
L2C PREFETCH  REQUESTED:    2550550  ISSUED:    2550550  USEFUL:    1689190  USELESS:       1175
L2C USEFUL LOAD PREFETCHES:    1689190 PREFETCH ISSUED TO LOWER LEVEL:    1725564  ACCURACY: 97.8921
L2C TIMELY PREFETCHES:    1689190 LATE PREFETCHES: 35162 DROPPED PREFETCHES: 0
L2C COMMIT LATE PREFETCHES: 0 MISSED OPPORTUNITY: 0 LATE IN PQ: 0 UNCOVERED: 0
L2C COMMIT LATE MSHR PREFETCHES: 0
L2C MPKI TOTAL: 0.47125 MSHR LATE: 0.17581 PQ LATE: 0 COMMIT LATE: 0 MISSED OPPORTUNITY: 0 UNCOVERED: 0
L2C PREFETCHES SAME FILL-ORIGIN LEVEL: 1725564 DIFFERENT FILL-ORIGIN LEVEL: 0
L2C AVERAGE MISS LATENCY: 218.552 cycles
L2C AVERAGE MISS LATENCY LOAD: 169.097 cycles
L2C AVERAGE MISS LATENCY PREFETCH: 221.437 cycles
L2C AVERAGE MSHR OCCUPANCY: 1.17632
L2C MSHR FULL: 0
L2C RQ	ACCESS:    2674209	FORWARD:          0	MERGED:          0	TO_CACHE:    2674209
L2C WQ	ACCESS:    1757433	FORWARD:          0	MERGED:          0	TO_CACHE:    1757433
L2C PQ	ACCESS:    2550550	FORWARD:          0	MERGED:          0	TO_CACHE:    2550550

L2C Instructions Evicting Data 0
L2C Translations Evicting Data 3549
L2C Data Evicting Data 1781871
L2C Instructions Evicting Instructions 0
L2C Translations Evicting Instructions 0
L2C Data Evicting Instructions 0
L2C Instructions Evicting Translations 0
L2C Translations Evicting Translations 0
L2C Data Evicting Translations 3549
L2C Dense regions hint from L2: 0
405bd6: 1
4043c6: 1
404375: 1
405bc0: 1
405bdd: 1
404a74: 6
404a26: 7
405acd: 12
405ac3: 12
405d16: 16
405d00: 16
405d1d: 16
404ba3: 17
404b43: 33
404be8: 40
404bfc: 49
40452b: 51
404bb2: 51
404533: 55
404578: 75
404580: 79
404552: 81
40451c: 88
404b33: 89
404561: 92
40450c: 115
405bf2: 155
405d32: 233
405b0d: 377
405afe: 380
405cb2: 21915
405df2: 21927
405cac: 24128
405dec: 24130
PSCL5 TOTAL     ACCESS:      27449  HIT:      27449  MISS:          0  HIT %:        100  MISS %:          0   MPKI: 0
PSCL5 Test counter:          0
PSCL5 LOAD TRANSLATION ACCESS:      27449  HIT:      27449  MISS:          0  HIT %:        100  MISS %:          0   MPKI: 0
PSCL5 PREFETCH  REQUESTED:          0  ISSUED:          0  USEFUL:          0  USELESS:          0
PSCL5 USEFUL LOAD PREFETCHES:          0 PREFETCH ISSUED TO LOWER LEVEL:          0  ACCURACY: -nan
PSCL5 TIMELY PREFETCHES:          0 LATE PREFETCHES: 0 DROPPED PREFETCHES: 0
PSCL5 COMMIT LATE PREFETCHES: 0 MISSED OPPORTUNITY: 0 LATE IN PQ: 0 UNCOVERED: 0
PSCL5 COMMIT LATE MSHR PREFETCHES: 0
PSCL5 MPKI TOTAL: 0 MSHR LATE: 0 PQ LATE: 0 COMMIT LATE: 0 MISSED OPPORTUNITY: 0 UNCOVERED: 0
PSCL5 PREFETCHES SAME FILL-ORIGIN LEVEL: 0 DIFFERENT FILL-ORIGIN LEVEL: 0

PSCL4 TOTAL     ACCESS:      27449  HIT:      27449  MISS:          0  HIT %:        100  MISS %:          0   MPKI: 0
PSCL4 Test counter:          0
PSCL4 LOAD TRANSLATION ACCESS:      27449  HIT:      27449  MISS:          0  HIT %:        100  MISS %:          0   MPKI: 0
PSCL4 PREFETCH  REQUESTED:          0  ISSUED:          0  USEFUL:          0  USELESS:          0
PSCL4 USEFUL LOAD PREFETCHES:          0 PREFETCH ISSUED TO LOWER LEVEL:          0  ACCURACY: -nan
PSCL4 TIMELY PREFETCHES:          0 LATE PREFETCHES: 0 DROPPED PREFETCHES: 0
PSCL4 COMMIT LATE PREFETCHES: 0 MISSED OPPORTUNITY: 0 LATE IN PQ: 0 UNCOVERED: 0
PSCL4 COMMIT LATE MSHR PREFETCHES: 0
PSCL4 MPKI TOTAL: 0 MSHR LATE: 0 PQ LATE: 0 COMMIT LATE: 0 MISSED OPPORTUNITY: 0 UNCOVERED: 0
PSCL4 PREFETCHES SAME FILL-ORIGIN LEVEL: 0 DIFFERENT FILL-ORIGIN LEVEL: 0

PSCL3 TOTAL     ACCESS:      26933  HIT:      26923  MISS:         10  HIT %:    99.9629  MISS %:  0.0371292   MPKI: 5e-05
PSCL3 Test counter:          0
PSCL3 LOAD TRANSLATION ACCESS:      26933  HIT:      26923  MISS:         10  HIT %:    99.9629  MISS %:  0.0371292   MPKI: 5e-05
PSCL3 PREFETCH  REQUESTED:          0  ISSUED:          0  USEFUL:          0  USELESS:          0
PSCL3 USEFUL LOAD PREFETCHES:          0 PREFETCH ISSUED TO LOWER LEVEL:          0  ACCURACY: -nan
PSCL3 TIMELY PREFETCHES:          0 LATE PREFETCHES: 0 DROPPED PREFETCHES: 0
PSCL3 COMMIT LATE PREFETCHES: 0 MISSED OPPORTUNITY: 0 LATE IN PQ: 0 UNCOVERED: 0
PSCL3 COMMIT LATE MSHR PREFETCHES: 0
PSCL3 MPKI TOTAL: 0 MSHR LATE: 0 PQ LATE: 0 COMMIT LATE: 0 MISSED OPPORTUNITY: 0 UNCOVERED: 0
PSCL3 PREFETCHES SAME FILL-ORIGIN LEVEL: 0 DIFFERENT FILL-ORIGIN LEVEL: 0

PSCL2 TOTAL     ACCESS:      27449  HIT:      27356  MISS:         93  HIT %:    99.6612  MISS %:    0.33881   MPKI: 0.000465
PSCL2 Test counter:          0
PSCL2 LOAD TRANSLATION ACCESS:      27449  HIT:      27356  MISS:         93  HIT %:    99.6612  MISS %:    0.33881   MPKI: 0.000465
PSCL2 PREFETCH  REQUESTED:          0  ISSUED:          0  USEFUL:          0  USELESS:          0
PSCL2 USEFUL LOAD PREFETCHES:          0 PREFETCH ISSUED TO LOWER LEVEL:          0  ACCURACY: -nan
PSCL2 TIMELY PREFETCHES:          0 LATE PREFETCHES: 0 DROPPED PREFETCHES: 0
PSCL2 COMMIT LATE PREFETCHES: 0 MISSED OPPORTUNITY: 0 LATE IN PQ: 0 UNCOVERED: 0
PSCL2 COMMIT LATE MSHR PREFETCHES: 0
PSCL2 MPKI TOTAL: 0 MSHR LATE: 0 PQ LATE: 0 COMMIT LATE: 0 MISSED OPPORTUNITY: 0 UNCOVERED: 0
PSCL2 PREFETCHES SAME FILL-ORIGIN LEVEL: 0 DIFFERENT FILL-ORIGIN LEVEL: 0

LLC TOTAL     ACCESS:    3543213  HIT:    1776299  MISS:    1766914  HIT %:    50.1324  MISS %:    49.8676   MPKI: 8.83457
LLC Test counter:          0
LLC LOAD      ACCESS:      59088  HIT:       1197  MISS:      57891  HIT %:    2.02579  MISS %:    97.9742   MPKI: 0.289455
LLC RFO       ACCESS:        769  HIT:        769  MISS:          0  HIT %:        100  MISS %:          0   MPKI: 0
LLC PREFETCH  ACCESS:    1725563  HIT:      20088  MISS:    1705475  HIT %:    1.16414  MISS %:    98.8359   MPKI: 8.52737
LLC WRITEBACK ACCESS:    1754244  HIT:    1754244  MISS:          0  HIT %:        100  MISS %:          0   MPKI: 0
LLC LOAD TRANSLATION ACCESS:       3549  HIT:          1  MISS:       3548  HIT %:   0.028177  MISS %:    99.9718   MPKI: 0.01774
LLC PREFETCH  REQUESTED:          0  ISSUED:          0  USEFUL:        177  USELESS:    1705307
LLC USEFUL LOAD PREFETCHES:        177 PREFETCH ISSUED TO LOWER LEVEL:    1705476  ACCURACY: 0.0103783
LLC TIMELY PREFETCHES:        177 LATE PREFETCHES: 0 DROPPED PREFETCHES: 0
LLC COMMIT LATE PREFETCHES: 0 MISSED OPPORTUNITY: 0 LATE IN PQ: 0 UNCOVERED: 0
LLC COMMIT LATE MSHR PREFETCHES: 0
LLC MPKI TOTAL: 0.289455 MSHR LATE: 0 PQ LATE: 0 COMMIT LATE: 0 MISSED OPPORTUNITY: 0 UNCOVERED: 0
LLC PREFETCHES SAME FILL-ORIGIN LEVEL: 0 DIFFERENT FILL-ORIGIN LEVEL: 0
LLC AVERAGE MISS LATENCY: 192.391 cycles
LLC AVERAGE MISS LATENCY LOAD: 169.901 cycles
LLC AVERAGE MISS LATENCY PREFETCH: 193.203 cycles
LLC AVERAGE MSHR OCCUPANCY: 0.0710658
LLC MSHR FULL: 0
LLC RQ	ACCESS:      63406	FORWARD:          0	MERGED:          0	TO_CACHE:      63406
LLC WQ	ACCESS:    1754244	FORWARD:          0	MERGED:          0	TO_CACHE:    1754244
LLC PQ	ACCESS:    1725564	FORWARD:          0	MERGED:          0	TO_CACHE:    1725564

LLC Dense regions hint to LLC: 0
405bd6: 1
4043c6: 1
404a74: 1
405bc0: 1
404a26: 1
405bdd: 1
404375: 1
404b33: 3
404b43: 5
405ac3: 9
405acd: 9
404ba3: 9
40451c: 9
40450c: 10
405d1d: 13
405d00: 13
405d16: 13
404bb2: 18
40452b: 22
404533: 29
404578: 30
404580: 31
404bfc: 31
404be8: 31
404552: 33
404561: 35
405bf2: 74
405d32: 129
405df2: 12512
405cb2: 12655
405cac: 16016
405dec: 16145

RAW hits: 3180
Loads Generated: 70169121
Loads sent to L1D: 70165931
Stores Generated: 14041094
Stores sent to L1D: 14041096
Major fault: 0 Minor fault: 34487
Allocated PAGES: 34487
Total Load insts: 87707000
Total Non-spec loads: 7730897
Percentage of speculative loads: 91.1855
L1D response latency: 20.9379 cycles
Load retirement latency: 36.7715 cycles

[Bingo] PHT Access: 84985
[Bingo] PHT Hit PC+Addr: 14975
[Bingo] PHT Hit PC+Offs: 69579
[Bingo] PHT Miss: 431
[Bingo] Prefetch PC+Addr: 0
[Bingo] Prefetch PC+Offs: 0
[Bingo] Useful PC+Addr: 0
[Bingo] Useful PC+Offs: 0
[Bingo] Useless PC+Addr: 0
[Bingo] Useless PC+Offs: 0
[Bingo] L1 Prefetch per Region: 0
[Bingo] L2 Prefetch per Region: 31.1681
[Bingo] L3 Prefetch per Region: 0
[Bingo] No Prefetch per Region: 0.831883
[Bingo] Number of Voters Mean: 15.6341
[Bingo] Number of Voters SD: 8.18365
PHT read accesses: 1210096
PHT write accesses: 83415
AT read accesses: 2556890
AT write accesses: 2639289
FT read accesses: 258326
FT write accesses: 84985
PS read accesses: 290760
PS write accesses: 84554
PHT tag read accesses: 3886743
PHT tag write accesses: 98390
AT tag read accesses: 74925844
AT tag write accesses: 2640305
FT tag read accesses: 34300413
FT tag write accesses: 256642
PS tag read accesses: 45096852
PS tag write accesses: 375306

DRAM Statistics
 CHANNEL 0
 RQ ROW_BUFFER_HIT:    1141872  ROW_BUFFER_MISS:     625043
 DBUS_CONGESTED:       2354
 WQ ROW_BUFFER_HIT:    1245885  ROW_BUFFER_MISS:     507294  FULL:          0

 AVG_CONGESTED_CYCLE: 4
 All warmup complete: 2
Channel 0 Bank busy for read cycles: 0
Channel 0 Bank busy for write cycles: 0
Channel 0
Rank 0
0banks busy for read cycles: 153683873
0banks busy for write cycles: 56874
1banks busy for read cycles: 5130353
1banks busy for write cycles: 1616125
2banks busy for read cycles: 235198
2banks busy for write cycles: 604223
3banks busy for read cycles: 175955
3banks busy for write cycles: 368306
4banks busy for read cycles: 170662
4banks busy for write cycles: 295639
5banks busy for read cycles: 164079
5banks busy for write cycles: 254386
6banks busy for read cycles: 384854
6banks busy for write cycles: 319042
7banks busy for read cycles: 3452445
7banks busy for write cycles: 1607716
8banks busy for read cycles: 14594291
8banks busy for write cycles: 16528335

CPU 0 Branch Prediction Accuracy: 99.9751% MPKI: 0.00438 Average ROB Occupancy at Mispredict: 65.1176
Branch types
NOT_BRANCH: 196487514 98.2438%
BRANCH_DIRECT_JUMP: 876 0.000438%
BRANCH_INDIRECT: 0 0%
BRANCH_CONDITIONAL: 3509612 1.75481%
BRANCH_DIRECT_CALL: 876 0.000438%
BRANCH_INDIRECT_CALL: 0 0%
BRANCH_RETURN: 876 0.000438%
BRANCH_OTHER: 0 0%

DRAM PAGES: 1048576
Allocated PAGES: 34487
