
*** ChampSim Multicore Out-of-Order Simulator ***

Warmup Instructions: 50000000
Simulation Instructions: 200000000
Number of CPUs: 1
LLC sets: 2048
LLC ways: 16
Secure Berti: OFF
Berti: OFF
Berti Fill: OFF
On commit prefetching: OFF
L2 LLC Bypass speculative loads: OFF
Off-chip DRAM Size: 4096 MB Channels: 1 Width: 64-bit Data Rate: 6400 MT/s
CPU 0 runs /home/sumon/secure_berti/Berti_Baseline/../../traces/spec/654.roms_s-1070B.champsimtrace.xz
.xz
BTB has LRU replacement policy
ITLB has LRU replacement policy
DTLB has LRU replacement policy
STLB has LRU replacement policy
L1I has LRU replacement policy
L1D has LRU replacement policy
Bingo PHT WAYS: 16 and PHT_SIZE: 16384
L2C has LRU replacement policy
LLC has LRU replacement policy
Heartbeat CPU 0 instructions: 10000002 cycles: 3114196 heartbeat IPC: 3.2111 cumulative IPC: 3.2111 (Simulation time: 0 hr 0 min 23 sec) 
Heartbeat CPU 0 instructions: 20000002 cycles: 6332781 heartbeat IPC: 3.10696 cumulative IPC: 3.15817 (Simulation time: 0 hr 0 min 42 sec) 
Heartbeat CPU 0 instructions: 30000000 cycles: 9362980 heartbeat IPC: 3.30011 cumulative IPC: 3.20411 (Simulation time: 0 hr 1 min 0 sec) 
Heartbeat CPU 0 instructions: 40000001 cycles: 12666947 heartbeat IPC: 3.02666 cumulative IPC: 3.15782 (Simulation time: 0 hr 1 min 18 sec) 
Heartbeat CPU 0 instructions: 50000001 cycles: 15854089 heartbeat IPC: 3.13761 cumulative IPC: 3.15376 (Simulation time: 0 hr 1 min 37 sec) 

Warmup complete CPU 0 instructions: 50000001 cycles: 15854089 (Simulation time: 0 hr 1 min 37 sec) 

Heartbeat CPU 0 instructions: 60000000 cycles: 30486584 heartbeat IPC: 0.68341 cumulative IPC: 0.68341 (Simulation time: 0 hr 2 min 11 sec) 
Heartbeat CPU 0 instructions: 70000002 cycles: 39822124 heartbeat IPC: 1.07118 cumulative IPC: 0.834445 (Simulation time: 0 hr 2 min 36 sec) 
Heartbeat CPU 0 instructions: 80000003 cycles: 50297321 heartbeat IPC: 0.954636 cumulative IPC: 0.870998 (Simulation time: 0 hr 3 min 2 sec) 
Heartbeat CPU 0 instructions: 90000000 cycles: 63722899 heartbeat IPC: 0.744847 cumulative IPC: 0.835617 (Simulation time: 0 hr 3 min 35 sec) 
Heartbeat CPU 0 instructions: 100000003 cycles: 72528340 heartbeat IPC: 1.13566 cumulative IPC: 0.882235 (Simulation time: 0 hr 3 min 57 sec) 
Heartbeat CPU 0 instructions: 110000000 cycles: 87603977 heartbeat IPC: 0.663322 cumulative IPC: 0.836238 (Simulation time: 0 hr 4 min 30 sec) 
Heartbeat CPU 0 instructions: 120000002 cycles: 96365028 heartbeat IPC: 1.14142 cumulative IPC: 0.869447 (Simulation time: 0 hr 4 min 51 sec) 
Heartbeat CPU 0 instructions: 130000002 cycles: 107828174 heartbeat IPC: 0.872361 cumulative IPC: 0.86981 (Simulation time: 0 hr 5 min 18 sec) 
Heartbeat CPU 0 instructions: 140000001 cycles: 120211294 heartbeat IPC: 0.807551 cumulative IPC: 0.862422 (Simulation time: 0 hr 5 min 46 sec) 
Heartbeat CPU 0 instructions: 150000003 cycles: 129011644 heartbeat IPC: 1.13632 cumulative IPC: 0.883724 (Simulation time: 0 hr 6 min 8 sec) 
Heartbeat CPU 0 instructions: 160000000 cycles: 144017636 heartbeat IPC: 0.6664 cumulative IPC: 0.858278 (Simulation time: 0 hr 6 min 40 sec) 
Heartbeat CPU 0 instructions: 170000000 cycles: 152799594 heartbeat IPC: 1.1387 cumulative IPC: 0.876261 (Simulation time: 0 hr 7 min 2 sec) 
Heartbeat CPU 0 instructions: 180000002 cycles: 165311706 heartbeat IPC: 0.799226 cumulative IPC: 0.869812 (Simulation time: 0 hr 7 min 30 sec) 
Heartbeat CPU 0 instructions: 190000000 cycles: 176835491 heartbeat IPC: 0.86777 cumulative IPC: 0.869666 (Simulation time: 0 hr 7 min 56 sec) 
Heartbeat CPU 0 instructions: 200000002 cycles: 187471213 heartbeat IPC: 0.940228 cumulative IPC: 0.874039 (Simulation time: 0 hr 8 min 18 sec) 
Heartbeat CPU 0 instructions: 210000001 cycles: 203576582 heartbeat IPC: 0.620911 cumulative IPC: 0.852322 (Simulation time: 0 hr 8 min 51 sec) 
Heartbeat CPU 0 instructions: 220000000 cycles: 215831300 heartbeat IPC: 0.816012 cumulative IPC: 0.850097 (Simulation time: 0 hr 9 min 11 sec) 
Heartbeat CPU 0 instructions: 230000002 cycles: 230970584 heartbeat IPC: 0.660533 cumulative IPC: 0.836756 (Simulation time: 0 hr 9 min 38 sec) 
Heartbeat CPU 0 instructions: 240000000 cycles: 244603281 heartbeat IPC: 0.73353 cumulative IPC: 0.830604 (Simulation time: 0 hr 10 min 4 sec) 
Heartbeat CPU 0 instructions: 250000001 cycles: 257173190 heartbeat IPC: 0.795551 cumulative IPC: 0.828778 (Simulation time: 0 hr 10 min 25 sec) 
Finished CPU 0 instructions: 200000000 cycles: 241319101 cumulative IPC: 0.828778 (Simulation time: 0 hr 10 min 25 sec) 

ChampSim completed all CPUs

Region of Interest Statistics

CPU 0 cumulative IPC: 0.828778 instructions: 200000000 cycles: 241319101
ITLB TOTAL     ACCESS:   30901136  HIT:   30901135  MISS:          1  HIT %:        100  MISS %: 3.23613e-06   MPKI: 5e-06
ITLB Test counter:          0
ITLB LOAD TRANSLATION ACCESS:   30901136  HIT:   30901135  MISS:          1  HIT %:        100  MISS %: 3.23613e-06   MPKI: 5e-06
ITLB PREFETCH  REQUESTED:          0  ISSUED:          0  USEFUL:          0  USELESS:          0
ITLB USEFUL LOAD PREFETCHES:          0 PREFETCH ISSUED TO LOWER LEVEL:          0  ACCURACY: -nan
ITLB TIMELY PREFETCHES:          0 LATE PREFETCHES: 0 DROPPED PREFETCHES: 0
ITLB COMMIT LATE PREFETCHES: 0 MISSED OPPORTUNITY: 0 LATE IN PQ: 0 UNCOVERED: 0
ITLB COMMIT LATE MSHR PREFETCHES: 0
ITLB MPKI TOTAL: 0 MSHR LATE: 0 PQ LATE: 0 COMMIT LATE: 0 MISSED OPPORTUNITY: 0 UNCOVERED: 0
ITLB PREFETCHES SAME FILL-ORIGIN LEVEL: 0 DIFFERENT FILL-ORIGIN LEVEL: 0
ITLB AVERAGE MISS LATENCY: 220 cycles
ITLB AVERAGE MISS LATENCY LOAD: -nan cycles
ITLB AVERAGE MISS LATENCY PREFETCH: -nan cycles
ITLB AVERAGE MSHR OCCUPANCY: 0
ITLB MSHR FULL: 0
ITLB RQ	ACCESS:   35127911	FORWARD:          0	MERGED:    4226776	TO_CACHE:   30901135

DTLB TOTAL     ACCESS:   53622983  HIT:   53516421  MISS:     106562  HIT %:    99.8013  MISS %:   0.198724   MPKI: 0.53281
DTLB Test counter:          0
DTLB LOAD TRANSLATION ACCESS:   53622983  HIT:   53516421  MISS:     106562  HIT %:    99.8013  MISS %:   0.198724   MPKI: 0.53281
DTLB PREFETCH  REQUESTED:          0  ISSUED:          0  USEFUL:          0  USELESS:          0
DTLB USEFUL LOAD PREFETCHES:          0 PREFETCH ISSUED TO LOWER LEVEL:          0  ACCURACY: -nan
DTLB TIMELY PREFETCHES:          0 LATE PREFETCHES: 0 DROPPED PREFETCHES: 0
DTLB COMMIT LATE PREFETCHES: 0 MISSED OPPORTUNITY: 0 LATE IN PQ: 0 UNCOVERED: 0
DTLB COMMIT LATE MSHR PREFETCHES: 0
DTLB MPKI TOTAL: 0 MSHR LATE: 0 PQ LATE: 0 COMMIT LATE: 0 MISSED OPPORTUNITY: 0 UNCOVERED: 0
DTLB PREFETCHES SAME FILL-ORIGIN LEVEL: 0 DIFFERENT FILL-ORIGIN LEVEL: 0
DTLB AVERAGE MISS LATENCY: 163.957 cycles
DTLB AVERAGE MISS LATENCY LOAD: -nan cycles
DTLB AVERAGE MISS LATENCY PREFETCH: -nan cycles
DTLB AVERAGE MSHR OCCUPANCY: 0.0231614
DTLB MSHR FULL: 2.90038e-05
DTLB RQ	ACCESS:   57938114	FORWARD:          0	MERGED:    4222587	TO_CACHE:   53715527

STLB TOTAL     ACCESS:     106563  HIT:      10349  MISS:      96214  HIT %:    9.71163  MISS %:    90.2884   MPKI: 0.48107
STLB Test counter:          0
STLB LOAD TRANSLATION ACCESS:     106563  HIT:      10349  MISS:      96214  HIT %:    9.71163  MISS %:    90.2884   MPKI: 0.48107
STLB PREFETCH  REQUESTED:          0  ISSUED:          0  USEFUL:          0  USELESS:          0
STLB USEFUL LOAD PREFETCHES:          0 PREFETCH ISSUED TO LOWER LEVEL:          0  ACCURACY: -nan
STLB TIMELY PREFETCHES:          0 LATE PREFETCHES: 0 DROPPED PREFETCHES: 0
STLB COMMIT LATE PREFETCHES: 0 MISSED OPPORTUNITY: 0 LATE IN PQ: 0 UNCOVERED: 0
STLB COMMIT LATE MSHR PREFETCHES: 0
STLB MPKI TOTAL: 0 MSHR LATE: 0 PQ LATE: 0 COMMIT LATE: 0 MISSED OPPORTUNITY: 0 UNCOVERED: 0
STLB PREFETCHES SAME FILL-ORIGIN LEVEL: 0 DIFFERENT FILL-ORIGIN LEVEL: 0
STLB AVERAGE MISS LATENCY: 169.573 cycles
STLB AVERAGE MISS LATENCY LOAD: -nan cycles
STLB AVERAGE MISS LATENCY PREFETCH: -nan cycles
STLB AVERAGE MSHR OCCUPANCY: 0.441251
STLB MSHR FULL: 0
STLB RQ	ACCESS:     106563	FORWARD:          0	MERGED:          0	TO_CACHE:     106563

STLB Hit, L1D data hit: 0
STLB Hit, L2C data hit: 0
STLB Hit, LLC data hit: 0
STLB Hit, LLC data miss: 0
STLB STLB hints to L2: 0
L1D TOTAL     ACCESS:   50270813  HIT:   45551745  MISS:    4719068  HIT %:    90.6127  MISS %:    9.38729   MPKI: 23.5953
L1D Test counter:          0
L1D LOAD      ACCESS:   46700743  HIT:   43330209  MISS:    3888620  HIT %:    92.7827  MISS %:     7.2173   MPKI: 16.8527
L1D RFO       ACCESS:    3570070  HIT:    2221536  MISS:    1348534  HIT %:    62.2267  MISS %:    37.7733   MPKI: 6.74267
L1D PREFETCH  REQUESTED:          0  ISSUED:          0  USEFUL:          0  USELESS:          0
L1D USEFUL LOAD PREFETCHES:          0 PREFETCH ISSUED TO LOWER LEVEL:          0  ACCURACY: -nan
L1D TIMELY PREFETCHES:          0 LATE PREFETCHES: 0 DROPPED PREFETCHES: 0
L1D COMMIT LATE PREFETCHES: 0 MISSED OPPORTUNITY: 0 LATE IN PQ: 0 UNCOVERED: 0
L1D COMMIT LATE MSHR PREFETCHES: 0
L1D MPKI TOTAL: 19.4431 MSHR LATE: 0 PQ LATE: 0 COMMIT LATE: 0 MISSED OPPORTUNITY: 0 UNCOVERED: 0
L1D PREFETCHES SAME FILL-ORIGIN LEVEL: 0 DIFFERENT FILL-ORIGIN LEVEL: 0
L1D AVERAGE MISS LATENCY: 99.6367 cycles
L1D AVERAGE MISS LATENCY LOAD: 32.4684 cycles
L1D AVERAGE MISS LATENCY PREFETCH: -nan cycles
L1D AVERAGE MSHR OCCUPANCY: 2.27648
L1D MSHR FULL: 0.0531587
L1D RQ	ACCESS:   73913361	FORWARD:          0	MERGED:   26694534	TO_CACHE:   47218827
L1D WQ	ACCESS:   10719287	FORWARD:          0	MERGED:          0	TO_CACHE:   10719287

L1D UNIQUE REGIONS ACCESSED: 0
L1D REGIONS CONFLICTS: 0
L1D Cross Page Prefetch Requests: 0
L1D Same Page Prefetch Requests: 0
L1D ROI Sum of L1D PQ occupancy: 0
L1D PREFETCHES PUSHED FROM L2C: 0
467a13: 1
466dc7: 1
466c65: 1
466e2b: 1
46726b: 1
466d27: 1
4679cb: 1
4677de: 2
466daa: 2
4675e5: 2
4676cf: 2
4674fb: 2
4679db: 2
4679b5: 2
4679fb: 2
467519: 2
4675a3: 2
467538: 2
4676d7: 2
4677ed: 2
4676ab: 2
467a5b: 2
466c5d: 5
4667fc: 5
466d9a: 6
466950: 6
466a47: 6
466824: 6
466996: 6
466940: 6
466a5e: 6
466b7d: 6
466a56: 6
4669c8: 6
466928: 6
466a76: 6
466920: 6
466d92: 7
466d3c: 7
466ce9: 8
466ce1: 8
466ca3: 8
46795a: 12
466b0f: 13
466af8: 14
466d17: 14
466b00: 26
466b4e: 38
4677a5: 54
4675d0: 130
467619: 130
467499: 195
467486: 195
4668b5: 768
4668a6: 768
467990: 968
467962: 1010
4677c5: 1020
46796a: 1022
46793f: 1022
467768: 1022
467921: 1022
467770: 1022
466980: 2302
4669d0: 2310
466bd5: 2338
466bea: 2339
466bb0: 2406
466b90: 18582
467871: 66174
467857: 66174
46785d: 66174
467809: 66175
467817: 66175
46786b: 66176
467834: 66303
46761e: 66304
4675d5: 66304
46784d: 66430
4677e6: 66430
467825: 66430
467848: 66430
4677d5: 66430
4677f5: 66430
467493: 75868
467480: 75868
466b97: 183324
4669dd: 196608
466986: 196610
466bf1: 199564
466bdc: 199565
4668a0: 199680
4668af: 199680
466ba2: 200276
466b77: 202682
466bbe: 202682
466b65: 202683
L1I TOTAL     ACCESS:   35127883  HIT:   35127833  MISS:         50  HIT %:    99.9999  MISS %: 0.000142337   MPKI: 0.00025
L1I Test counter:          0
L1I LOAD      ACCESS:   35127883  HIT:   35127833  MISS:         78  HIT %:    99.9999  MISS %: 0.000142337   MPKI: 0.00025
L1I PREFETCH  REQUESTED:          0  ISSUED:          0  USEFUL:          0  USELESS:          0
L1I USEFUL LOAD PREFETCHES:          0 PREFETCH ISSUED TO LOWER LEVEL:          0  ACCURACY: -nan
L1I TIMELY PREFETCHES:          0 LATE PREFETCHES: 0 DROPPED PREFETCHES: 0
L1I COMMIT LATE PREFETCHES: 0 MISSED OPPORTUNITY: 0 LATE IN PQ: 0 UNCOVERED: 0
L1I COMMIT LATE MSHR PREFETCHES: 0
L1I MPKI TOTAL: 0.00039 MSHR LATE: 0 PQ LATE: 0 COMMIT LATE: 0 MISSED OPPORTUNITY: 0 UNCOVERED: 0
L1I PREFETCHES SAME FILL-ORIGIN LEVEL: 0 DIFFERENT FILL-ORIGIN LEVEL: 0
L1I AVERAGE MISS LATENCY: 192.42 cycles
L1I AVERAGE MISS LATENCY LOAD: 192.42 cycles
L1I AVERAGE MISS LATENCY PREFETCH: -nan cycles
L1I AVERAGE MSHR OCCUPANCY: 2.07812e-06
L1I MSHR FULL: 0
L1I RQ	ACCESS:   54014033	FORWARD:          0	MERGED:   18886122	TO_CACHE:   35127911

467347: 1
4675c1: 1
466ec0: 1
467903: 1
466fc1: 1
466e85: 1
467206: 1
467240: 1
467985: 1
467446: 1
467281: 1
467001: 1
467540: 1
467610: 1
467650: 1
4672c5: 1
467401: 1
467181: 1
4676c0: 1
467480: 1
467787: 1
467384: 1
4674c0: 1
467502: 1
467580: 1
467303: 1
467947: 1
4678c2: 1
4679c0: 1
467884: 1
467840: 1
467801: 1
4677c5: 1
467740: 1
467707: 1
4671c0: 1
4670c3: 1
467044: 1
467a03: 1
466f82: 1
467682: 1
466e47: 1
466e00: 1
466f03: 1
467a43: 1
467101: 1
4673c0: 1
467146: 1
466f40: 1
467082: 1
BTB TOTAL     ACCESS:   10637190  HIT:   10637169  MISS:         21  HIT %:    99.9998  MISS %: 0.000197421   MPKI: 0.000105
BTB Test counter:          0
BTB BRANCH_DIRECT_JUMP	ACCESS:      26624  HIT:      26622  MISS:          2
BTB BRANCH_INDIRECT	ACCESS:          0  HIT:          0  MISS:          0
BTB BRANCH_CONDITIONAL	ACCESS:   10610566  HIT:   10610547  MISS:         19
BTB BRANCH_DIRECT_CALL	ACCESS:          0  HIT:          0  MISS:          0
BTB BRANCH_INDIRECT_CALL	ACCESS:          0  HIT:          0  MISS:          0
BTB BRANCH_RETURN	ACCESS:          0  HIT:          0  MISS:          0
BTB BRANCH_OTHER ACCESS:          0  HIT:          0  MISS:          0

L2C TOTAL     ACCESS:    9286443  HIT:    4598650  MISS:    4687793  HIT %:      49.52  MISS %:      50.48   MPKI: 23.439
L2C Test counter:          0
L2C LOAD      ACCESS:    3370584  HIT:    3171712  MISS:     198872  HIT %:    94.0998  MISS %:    5.90022   MPKI: 0.99436
L2C DATA LOAD MPKI: 0.99411
L2C INSTRUCTION LOAD MPKI: 0.00025
L2C RFO       ACCESS:    1348534  HIT:          0  MISS:    1348534  HIT %:          0  MISS %:        100   MPKI: 6.74267
L2C PREFETCH  ACCESS:    3120616  HIT:         23  MISS:    3120593  HIT %: 0.000737034  MISS %:    99.9993   MPKI: 15.603
L2C DATA PREFETCH MPKI: 15.603
L2C INSTRUCTION PREFETCH MPKI: 0
L2C WRITEBACK ACCESS:    1350366  HIT:    1350335  MISS:         31  HIT %:    99.9977  MISS %: 0.00229567   MPKI: 0.000155
L2C LOAD TRANSLATION ACCESS:      96343  HIT:      76580  MISS:      19763  HIT %:    79.4868  MISS %:    20.5132   MPKI: 0.098815
L2C PREFETCH  REQUESTED:    3154331  ISSUED:    3154331  USEFUL:    2766613  USELESS:     354375
L2C USEFUL LOAD PREFETCHES:    2766613 PREFETCH ISSUED TO LOWER LEVEL:    3145459  ACCURACY: 87.9558
L2C TIMELY PREFETCHES:    2766613 LATE PREFETCHES: 24860 DROPPED PREFETCHES: 0
L2C COMMIT LATE PREFETCHES: 0 MISSED OPPORTUNITY: 0 LATE IN PQ: 0 UNCOVERED: 0
L2C COMMIT LATE MSHR PREFETCHES: 0
L2C MPKI TOTAL: 0.99436 MSHR LATE: 0.1243 PQ LATE: 0 COMMIT LATE: 0 MISSED OPPORTUNITY: 0 UNCOVERED: 0
L2C PREFETCHES SAME FILL-ORIGIN LEVEL: 3145459 DIFFERENT FILL-ORIGIN LEVEL: 0
L2C AVERAGE MISS LATENCY: 258.362 cycles
L2C AVERAGE MISS LATENCY LOAD: 277.219 cycles
L2C AVERAGE MISS LATENCY PREFETCH: 260.579 cycles
L2C AVERAGE MSHR OCCUPANCY: 9.2714
L2C MSHR FULL: 0.181845
L2C RQ	ACCESS:    4815472	FORWARD:          0	MERGED:          0	TO_CACHE:    4815472
L2C WQ	ACCESS:    1350366	FORWARD:          0	MERGED:          0	TO_CACHE:    1350366
L2C PQ	ACCESS:    3154331	FORWARD:          0	MERGED:          0	TO_CACHE:    3154331

L2C Instructions Evicting Data 50
L2C Translations Evicting Data 19705
L2C Data Evicting Data 4648180
L2C Instructions Evicting Instructions 0
L2C Translations Evicting Instructions 0
L2C Data Evicting Instructions 50
L2C Instructions Evicting Translations 0
L2C Translations Evicting Translations 58
L2C Data Evicting Translations 19719
L2C Dense regions hint from L2: 0
467206: 1
466fc1: 1
466e85: 1
467a13: 1
467a43: 1
467101: 1
467181: 1
4675c1: 1
467281: 1
4671c0: 1
467650: 1
46726b: 1
466f82: 1
4672c5: 1
467401: 1
467082: 1
467240: 1
467384: 1
4674c0: 1
4679cb: 1
467347: 1
466f40: 1
466ec0: 1
466ce9: 1
466c5d: 1
4678c2: 1
467001: 1
466e47: 1
466e2b: 1
467303: 1
467446: 1
467044: 1
467146: 1
4670c3: 1
466f03: 1
467787: 1
466dc7: 1
467985: 1
467502: 1
467990: 1
467947: 1
467707: 1
467682: 1
467a03: 1
4676c0: 1
467740: 1
4673c0: 1
467610: 1
4677c5: 1
467801: 1
467840: 1
467884: 1
467580: 1
467903: 1
4679c0: 1
467540: 1
466e00: 1
467768: 2
467a5b: 2
4679fb: 2
4679b5: 2
466daa: 2
4676cf: 2
46793f: 2
467770: 2
466d17: 2
4677de: 2
4676d7: 2
4677ed: 2
4676ab: 2
467519: 2
46796a: 2
4675a3: 2
4674fb: 2
467538: 2
4675e5: 2
466d9a: 3
4667fc: 4
466b7d: 5
4669c8: 5
466920: 6
466a76: 6
466928: 6
466a5e: 6
466d3c: 6
466950: 6
466a56: 6
466824: 6
466940: 6
466d92: 6
466996: 6
466a47: 6
466b0f: 7
466af8: 12
466b00: 20
466b4e: 34
46785d: 67
467619: 68
4675d0: 75
466980: 76
467834: 77
4669d0: 78
46784d: 78
466bd5: 79
466bea: 79
467871: 80
467499: 96
467809: 101
4677f5: 130
4668a6: 164
467486: 195
466b90: 238
4668b5: 421
466bb0: 2406
467857: 2466
46786b: 2638
467817: 2650
4675d5: 3781
46761e: 3802
4677d5: 4119
467848: 4597
4677e6: 5829
467825: 5936
466b97: 6200
466bf1: 6252
4669dd: 6260
466bdc: 6515
466986: 6752
467480: 8144
466ba2: 10062
466b65: 10332
467493: 12602
4668a0: 16837
466bbe: 17225
466b77: 21491
4668af: 29617
PSCL5 TOTAL     ACCESS:      96214  HIT:      96214  MISS:          0  HIT %:        100  MISS %:          0   MPKI: 0
PSCL5 Test counter:          0
PSCL5 LOAD TRANSLATION ACCESS:      96214  HIT:      96214  MISS:          0  HIT %:        100  MISS %:          0   MPKI: 0
PSCL5 PREFETCH  REQUESTED:          0  ISSUED:          0  USEFUL:          0  USELESS:          0
PSCL5 USEFUL LOAD PREFETCHES:          0 PREFETCH ISSUED TO LOWER LEVEL:          0  ACCURACY: -nan
PSCL5 TIMELY PREFETCHES:          0 LATE PREFETCHES: 0 DROPPED PREFETCHES: 0
PSCL5 COMMIT LATE PREFETCHES: 0 MISSED OPPORTUNITY: 0 LATE IN PQ: 0 UNCOVERED: 0
PSCL5 COMMIT LATE MSHR PREFETCHES: 0
PSCL5 MPKI TOTAL: 0 MSHR LATE: 0 PQ LATE: 0 COMMIT LATE: 0 MISSED OPPORTUNITY: 0 UNCOVERED: 0
PSCL5 PREFETCHES SAME FILL-ORIGIN LEVEL: 0 DIFFERENT FILL-ORIGIN LEVEL: 0

PSCL4 TOTAL     ACCESS:      96214  HIT:      96214  MISS:          0  HIT %:        100  MISS %:          0   MPKI: 0
PSCL4 Test counter:          0
PSCL4 LOAD TRANSLATION ACCESS:      96214  HIT:      96214  MISS:          0  HIT %:        100  MISS %:          0   MPKI: 0
PSCL4 PREFETCH  REQUESTED:          0  ISSUED:          0  USEFUL:          0  USELESS:          0
PSCL4 USEFUL LOAD PREFETCHES:          0 PREFETCH ISSUED TO LOWER LEVEL:          0  ACCURACY: -nan
PSCL4 TIMELY PREFETCHES:          0 LATE PREFETCHES: 0 DROPPED PREFETCHES: 0
PSCL4 COMMIT LATE PREFETCHES: 0 MISSED OPPORTUNITY: 0 LATE IN PQ: 0 UNCOVERED: 0
PSCL4 COMMIT LATE MSHR PREFETCHES: 0
PSCL4 MPKI TOTAL: 0 MSHR LATE: 0 PQ LATE: 0 COMMIT LATE: 0 MISSED OPPORTUNITY: 0 UNCOVERED: 0
PSCL4 PREFETCHES SAME FILL-ORIGIN LEVEL: 0 DIFFERENT FILL-ORIGIN LEVEL: 0

PSCL3 TOTAL     ACCESS:      95109  HIT:      95102  MISS:          7  HIT %:    99.9926  MISS %: 0.00735998   MPKI: 3.5e-05
PSCL3 Test counter:          0
PSCL3 LOAD TRANSLATION ACCESS:      95109  HIT:      95102  MISS:          7  HIT %:    99.9926  MISS %: 0.00735998   MPKI: 3.5e-05
PSCL3 PREFETCH  REQUESTED:          0  ISSUED:          0  USEFUL:          0  USELESS:          0
PSCL3 USEFUL LOAD PREFETCHES:          0 PREFETCH ISSUED TO LOWER LEVEL:          0  ACCURACY: -nan
PSCL3 TIMELY PREFETCHES:          0 LATE PREFETCHES: 0 DROPPED PREFETCHES: 0
PSCL3 COMMIT LATE PREFETCHES: 0 MISSED OPPORTUNITY: 0 LATE IN PQ: 0 UNCOVERED: 0
PSCL3 COMMIT LATE MSHR PREFETCHES: 0
PSCL3 MPKI TOTAL: 0 MSHR LATE: 0 PQ LATE: 0 COMMIT LATE: 0 MISSED OPPORTUNITY: 0 UNCOVERED: 0
PSCL3 PREFETCHES SAME FILL-ORIGIN LEVEL: 0 DIFFERENT FILL-ORIGIN LEVEL: 0

PSCL2 TOTAL     ACCESS:      96214  HIT:      95941  MISS:        273  HIT %:    99.7163  MISS %:   0.283742   MPKI: 0.001365
PSCL2 Test counter:          0
PSCL2 LOAD TRANSLATION ACCESS:      96214  HIT:      95941  MISS:        273  HIT %:    99.7163  MISS %:   0.283742   MPKI: 0.001365
PSCL2 PREFETCH  REQUESTED:          0  ISSUED:          0  USEFUL:          0  USELESS:          0
PSCL2 USEFUL LOAD PREFETCHES:          0 PREFETCH ISSUED TO LOWER LEVEL:          0  ACCURACY: -nan
PSCL2 TIMELY PREFETCHES:          0 LATE PREFETCHES: 0 DROPPED PREFETCHES: 0
PSCL2 COMMIT LATE PREFETCHES: 0 MISSED OPPORTUNITY: 0 LATE IN PQ: 0 UNCOVERED: 0
PSCL2 COMMIT LATE MSHR PREFETCHES: 0
PSCL2 MPKI TOTAL: 0 MSHR LATE: 0 PQ LATE: 0 COMMIT LATE: 0 MISSED OPPORTUNITY: 0 UNCOVERED: 0
PSCL2 PREFETCHES SAME FILL-ORIGIN LEVEL: 0 DIFFERENT FILL-ORIGIN LEVEL: 0

LLC TOTAL     ACCESS:    6033347  HIT:    1345619  MISS:    4687728  HIT %:     22.303  MISS %:     77.697   MPKI: 23.4386
LLC Test counter:          0
LLC LOAD      ACCESS:     174012  HIT:         11  MISS:     174001  HIT %:  0.0063214  MISS %:    99.9937   MPKI: 0.870005
LLC RFO       ACCESS:    1348534  HIT:          0  MISS:    1348534  HIT %:          0  MISS %:        100   MPKI: 6.74267
LLC PREFETCH  ACCESS:    3145453  HIT:          9  MISS:    3145444  HIT %: 0.000286127  MISS %:    99.9997   MPKI: 15.7272
LLC WRITEBACK ACCESS:    1345585  HIT:    1345554  MISS:         31  HIT %:    99.9977  MISS %: 0.00230383   MPKI: 0.000155
LLC LOAD TRANSLATION ACCESS:      19763  HIT:         45  MISS:      19718  HIT %:   0.227698  MISS %:    99.7723   MPKI: 0.09859
LLC PREFETCH  REQUESTED:          0  ISSUED:          0  USEFUL:          4  USELESS:    3156186
LLC USEFUL LOAD PREFETCHES:          4 PREFETCH ISSUED TO LOWER LEVEL:    3145450  ACCURACY: 0.000127168
LLC TIMELY PREFETCHES:          4 LATE PREFETCHES: 0 DROPPED PREFETCHES: 0
LLC COMMIT LATE PREFETCHES: 0 MISSED OPPORTUNITY: 0 LATE IN PQ: 0 UNCOVERED: 0
LLC COMMIT LATE MSHR PREFETCHES: 0
LLC MPKI TOTAL: 0.870005 MSHR LATE: 0 PQ LATE: 0 COMMIT LATE: 0 MISSED OPPORTUNITY: 0 UNCOVERED: 0
LLC PREFETCHES SAME FILL-ORIGIN LEVEL: 0 DIFFERENT FILL-ORIGIN LEVEL: 0
LLC AVERAGE MISS LATENCY: 228.486 cycles
LLC AVERAGE MISS LATENCY LOAD: 241.759 cycles
LLC AVERAGE MISS LATENCY PREFETCH: 231.605 cycles
LLC AVERAGE MSHR OCCUPANCY: 4.75827
LLC MSHR FULL: 0
LLC RQ	ACCESS:    1542319	FORWARD:          0	MERGED:          0	TO_CACHE:    1542319
LLC WQ	ACCESS:    1345585	FORWARD:          0	MERGED:          0	TO_CACHE:    1345585
LLC PQ	ACCESS:    3145459	FORWARD:          0	MERGED:          0	TO_CACHE:    3145459

LLC Dense regions hint to LLC: 0
466d17: 1
4675c1: 1
466f40: 1
467281: 1
466e47: 1
467985: 1
466e2b: 1
467044: 1
4670c3: 1
467787: 1
467a13: 1
467446: 1
467101: 1
467082: 1
467240: 1
467181: 1
4671c0: 1
467206: 1
4679cb: 1
46726b: 1
466ce9: 1
467303: 1
467001: 1
467347: 1
466daa: 1
4678c2: 1
467146: 1
466c5d: 1
4667fc: 1
466b0f: 1
467990: 1
466f03: 1
466ec0: 1
467502: 1
467650: 1
466fc1: 1
466e85: 1
466b7d: 1
467a43: 1
467a03: 1
467540: 1
4673c0: 1
466e00: 1
4674c0: 1
467884: 1
467840: 1
467801: 1
467740: 1
467947: 1
467707: 1
467682: 1
4676c0: 1
467384: 1
467401: 1
467610: 1
4672c5: 1
466f82: 1
4679c0: 1
467903: 1
467580: 1
4677c5: 1
4677de: 2
467a5b: 2
4675e5: 2
4674fb: 2
4676d7: 2
467770: 2
4679fb: 2
4677ed: 2
466d9a: 2
4675a3: 2
4679b5: 2
467538: 2
467768: 2
4676cf: 2
467519: 2
4669c8: 2
4676ab: 2
46793f: 2
46796a: 2
466d92: 6
466824: 6
466940: 6
466d3c: 6
466950: 6
466a47: 6
466996: 6
466928: 6
466a76: 6
466920: 6
466a5e: 6
466a56: 6
466af8: 9
466b00: 17
466b4e: 31
4668b5: 62
46785d: 67
467619: 67
4675d0: 74
466980: 76
467834: 77
46784d: 78
4669d0: 78
466bea: 79
466bd5: 79
467871: 80
4668a6: 82
467499: 92
467809: 101
4677f5: 130
467486: 195
466b90: 238
466bb0: 2406
467857: 2466
46786b: 2638
467817: 2650
4675d5: 3768
46761e: 3791
4677d5: 4069
467848: 4564
4677e6: 5730
467825: 5891
467480: 6012
466b97: 6196
4669dd: 6225
466bf1: 6250
466bdc: 6420
466986: 6458
467493: 9305
466ba2: 9802
466b65: 9844
4668a0: 11346
466bbe: 16892
4668af: 18386
466b77: 21009

RAW hits: 17
Loads Generated: 73913377
Loads sent to L1D: 73913361
Stores Generated: 10719286
Stores sent to L1D: 10719287
Major fault: 0 Minor fault: 51871
Allocated PAGES: 51871
Total Load insts: 92757191
Total Non-spec loads: 8699981
Percentage of speculative loads: 90.6207
L1D response latency: 32.4684 cycles
Load retirement latency: 96.805 cycles

[Bingo] PHT Access: 117074
[Bingo] PHT Hit PC+Addr: 3212
[Bingo] PHT Hit PC+Offs: 112604
[Bingo] PHT Miss: 1258
[Bingo] Prefetch PC+Addr: 0
[Bingo] Prefetch PC+Offs: 0
[Bingo] Useful PC+Addr: 0
[Bingo] Useful PC+Offs: 0
[Bingo] Useless PC+Addr: 0
[Bingo] Useless PC+Offs: 0
[Bingo] L1 Prefetch per Region: 0
[Bingo] L2 Prefetch per Region: 28.8211
[Bingo] L3 Prefetch per Region: 0
[Bingo] No Prefetch per Region: 3.17891
[Bingo] Number of Voters Mean: 15.5787
[Bingo] Number of Voters SD: 7.94407
PHT read accesses: 1809390
PHT write accesses: 115442
AT read accesses: 3278454
AT write accesses: 3367681
FT read accesses: 350397
FT write accesses: 117074
PS read accesses: 457383
PS write accesses: 115816
PHT tag read accesses: 5473266
PHT tag write accesses: 118654
AT tag read accesses: 134275123
AT tag write accesses: 3393895
FT tag read accesses: 82670841
FT tag write accesses: 350810
PS tag read accesses: 58488108
PS tag write accesses: 572976

DRAM Statistics
 CHANNEL 0
 RQ ROW_BUFFER_HIT:    2281509  ROW_BUFFER_MISS:    2406188
 DBUS_CONGESTED:       2188
 WQ ROW_BUFFER_HIT:     637437  ROW_BUFFER_MISS:     700066  FULL:          0

 AVG_CONGESTED_CYCLE: 4
 All warmup complete: 2
Channel 0 Bank busy for read cycles: 0
Channel 0 Bank busy for write cycles: 0
Channel 0
Rank 0
0banks busy for read cycles: 48057298
0banks busy for write cycles: 55342
1banks busy for read cycles: 61331431
1banks busy for write cycles: 6985045
2banks busy for read cycles: 29551509
2banks busy for write cycles: 3188699
3banks busy for read cycles: 5900047
3banks busy for write cycles: 2529602
4banks busy for read cycles: 4033076
4banks busy for write cycles: 2293432
5banks busy for read cycles: 3127436
5banks busy for write cycles: 2196974
6banks busy for read cycles: 3364966
6banks busy for write cycles: 2423775
7banks busy for read cycles: 6771429
7banks busy for write cycles: 3491348
8banks busy for read cycles: 30712120
8banks busy for write cycles: 25305573

CPU 0 Branch Prediction Accuracy: 99.8819% MPKI: 0.062825 Average ROB Occupancy at Mispredict: 187.874
Branch types
NOT_BRANCH: 189359363 94.6797%
BRANCH_DIRECT_JUMP: 26624 0.013312%
BRANCH_INDIRECT: 0 0%
BRANCH_CONDITIONAL: 10613669 5.30683%
BRANCH_DIRECT_CALL: 0 0%
BRANCH_INDIRECT_CALL: 0 0%
BRANCH_RETURN: 0 0%
BRANCH_OTHER: 0 0%

DRAM PAGES: 1048576
Allocated PAGES: 51871
