
*** ChampSim Multicore Out-of-Order Simulator ***

Warmup Instructions: 50000000
Simulation Instructions: 200000000
Number of CPUs: 1
LLC sets: 2048
LLC ways: 16
Secure Berti: OFF
Berti: OFF
Berti Fill: OFF
On commit prefetching: OFF
L2 LLC Bypass speculative loads: OFF
Off-chip DRAM Size: 4096 MB Channels: 1 Width: 64-bit Data Rate: 6400 MT/s
CPU 0 runs /home/sumon/secure_berti/Berti_Baseline/../../traces/spec/654.roms_s-1390B.champsimtrace.xz
.xz
BTB has LRU replacement policy
ITLB has LRU replacement policy
DTLB has LRU replacement policy
STLB has LRU replacement policy
L1I has LRU replacement policy
L1D has LRU replacement policy
Bingo PHT WAYS: 16 and PHT_SIZE: 16384
L2C has LRU replacement policy
LLC has LRU replacement policy
Heartbeat CPU 0 instructions: 10000001 cycles: 3756873 heartbeat IPC: 2.66179 cumulative IPC: 2.66179 (Simulation time: 0 hr 0 min 34 sec) 
Heartbeat CPU 0 instructions: 20000000 cycles: 7250726 heartbeat IPC: 2.86217 cumulative IPC: 2.75834 (Simulation time: 0 hr 0 min 47 sec) 
Heartbeat CPU 0 instructions: 30000003 cycles: 10667450 heartbeat IPC: 2.92678 cumulative IPC: 2.81229 (Simulation time: 0 hr 0 min 58 sec) 
Heartbeat CPU 0 instructions: 40000002 cycles: 14439945 heartbeat IPC: 2.65077 cumulative IPC: 2.77009 (Simulation time: 0 hr 1 min 18 sec) 
Heartbeat CPU 0 instructions: 50000000 cycles: 18779024 heartbeat IPC: 2.30464 cumulative IPC: 2.66255 (Simulation time: 0 hr 1 min 40 sec) 

Warmup complete CPU 0 instructions: 50000002 cycles: 18779025 (Simulation time: 0 hr 1 min 40 sec) 

Heartbeat CPU 0 instructions: 60000001 cycles: 31166417 heartbeat IPC: 0.807272 cumulative IPC: 0.807272 (Simulation time: 0 hr 2 min 0 sec) 
Heartbeat CPU 0 instructions: 70000003 cycles: 42569284 heartbeat IPC: 0.876973 cumulative IPC: 0.84068 (Simulation time: 0 hr 2 min 18 sec) 
Heartbeat CPU 0 instructions: 80000002 cycles: 53961946 heartbeat IPC: 0.877758 cumulative IPC: 0.852686 (Simulation time: 0 hr 2 min 37 sec) 
Heartbeat CPU 0 instructions: 90000003 cycles: 66572438 heartbeat IPC: 0.792991 cumulative IPC: 0.836935 (Simulation time: 0 hr 3 min 2 sec) 
Heartbeat CPU 0 instructions: 100000000 cycles: 81034952 heartbeat IPC: 0.691442 cumulative IPC: 0.803136 (Simulation time: 0 hr 3 min 27 sec) 
Heartbeat CPU 0 instructions: 110000000 cycles: 94217501 heartbeat IPC: 0.758579 cumulative IPC: 0.79535 (Simulation time: 0 hr 3 min 49 sec) 
Heartbeat CPU 0 instructions: 120000001 cycles: 106554442 heartbeat IPC: 0.810574 cumulative IPC: 0.79749 (Simulation time: 0 hr 4 min 7 sec) 
Heartbeat CPU 0 instructions: 130000000 cycles: 118671600 heartbeat IPC: 0.825276 cumulative IPC: 0.80086 (Simulation time: 0 hr 4 min 26 sec) 
Heartbeat CPU 0 instructions: 140000001 cycles: 132673731 heartbeat IPC: 0.714177 cumulative IPC: 0.790204 (Simulation time: 0 hr 4 min 58 sec) 
Heartbeat CPU 0 instructions: 150000001 cycles: 145169871 heartbeat IPC: 0.800247 cumulative IPC: 0.791197 (Simulation time: 0 hr 5 min 26 sec) 
Heartbeat CPU 0 instructions: 160000002 cycles: 156296946 heartbeat IPC: 0.898709 cumulative IPC: 0.799896 (Simulation time: 0 hr 6 min 1 sec) 
Heartbeat CPU 0 instructions: 170000000 cycles: 168366978 heartbeat IPC: 0.828498 cumulative IPC: 0.802204 (Simulation time: 0 hr 6 min 34 sec) 
Heartbeat CPU 0 instructions: 180000003 cycles: 180312366 heartbeat IPC: 0.837143 cumulative IPC: 0.804787 (Simulation time: 0 hr 7 min 5 sec) 
Heartbeat CPU 0 instructions: 190000000 cycles: 192034087 heartbeat IPC: 0.853117 cumulative IPC: 0.808057 (Simulation time: 0 hr 7 min 30 sec) 
Heartbeat CPU 0 instructions: 200000003 cycles: 207196093 heartbeat IPC: 0.659544 cumulative IPC: 0.796106 (Simulation time: 0 hr 7 min 52 sec) 
Heartbeat CPU 0 instructions: 210000002 cycles: 217741489 heartbeat IPC: 0.948281 cumulative IPC: 0.804172 (Simulation time: 0 hr 8 min 22 sec) 
Heartbeat CPU 0 instructions: 220000000 cycles: 231168444 heartbeat IPC: 0.74477 cumulative IPC: 0.800417 (Simulation time: 0 hr 8 min 50 sec) 
Heartbeat CPU 0 instructions: 230000002 cycles: 247011321 heartbeat IPC: 0.631199 cumulative IPC: 0.78867 (Simulation time: 0 hr 9 min 15 sec) 
Heartbeat CPU 0 instructions: 240000002 cycles: 260352946 heartbeat IPC: 0.749534 cumulative IPC: 0.786509 (Simulation time: 0 hr 9 min 48 sec) 
Heartbeat CPU 0 instructions: 250000003 cycles: 272146341 heartbeat IPC: 0.847932 cumulative IPC: 0.789368 (Simulation time: 0 hr 10 min 23 sec) 
Finished CPU 0 instructions: 200000001 cycles: 253367316 cumulative IPC: 0.789368 (Simulation time: 0 hr 10 min 23 sec) 

ChampSim completed all CPUs

Region of Interest Statistics

CPU 0 cumulative IPC: 0.789368 instructions: 200000001 cycles: 253367316
ITLB TOTAL     ACCESS:   29790621  HIT:   29790614  MISS:          7  HIT %:        100  MISS %: 2.34973e-05   MPKI: 3.5e-05
ITLB Test counter:          0
ITLB LOAD TRANSLATION ACCESS:   29790621  HIT:   29790614  MISS:          7  HIT %:        100  MISS %: 2.34973e-05   MPKI: 3.5e-05
ITLB PREFETCH  REQUESTED:          0  ISSUED:          0  USEFUL:          0  USELESS:          0
ITLB USEFUL LOAD PREFETCHES:          0 PREFETCH ISSUED TO LOWER LEVEL:          0  ACCURACY: -nan
ITLB TIMELY PREFETCHES:          0 LATE PREFETCHES: 0 DROPPED PREFETCHES: 0
ITLB COMMIT LATE PREFETCHES: 0 MISSED OPPORTUNITY: 0 LATE IN PQ: 0 UNCOVERED: 0
ITLB COMMIT LATE MSHR PREFETCHES: 0
ITLB MPKI TOTAL: 0 MSHR LATE: 0 PQ LATE: 0 COMMIT LATE: 0 MISSED OPPORTUNITY: 0 UNCOVERED: 0
ITLB PREFETCHES SAME FILL-ORIGIN LEVEL: 0 DIFFERENT FILL-ORIGIN LEVEL: 0
ITLB AVERAGE MISS LATENCY: 454.429 cycles
ITLB AVERAGE MISS LATENCY LOAD: -nan cycles
ITLB AVERAGE MISS LATENCY PREFETCH: -nan cycles
ITLB AVERAGE MSHR OCCUPANCY: 3.35676e-08
ITLB MSHR FULL: 0
ITLB RQ	ACCESS:   35660674	FORWARD:          0	MERGED:    5870051	TO_CACHE:   29790623

DTLB TOTAL     ACCESS:   51666842  HIT:   51494485  MISS:     172357  HIT %:    99.6664  MISS %:   0.333593   MPKI: 0.861785
DTLB Test counter:          0
DTLB LOAD TRANSLATION ACCESS:   51666842  HIT:   51494485  MISS:     172357  HIT %:    99.6664  MISS %:   0.333593   MPKI: 0.861785
DTLB PREFETCH  REQUESTED:          0  ISSUED:          0  USEFUL:          0  USELESS:          0
DTLB USEFUL LOAD PREFETCHES:          0 PREFETCH ISSUED TO LOWER LEVEL:          0  ACCURACY: -nan
DTLB TIMELY PREFETCHES:          0 LATE PREFETCHES: 0 DROPPED PREFETCHES: 0
DTLB COMMIT LATE PREFETCHES: 0 MISSED OPPORTUNITY: 0 LATE IN PQ: 0 UNCOVERED: 0
DTLB COMMIT LATE MSHR PREFETCHES: 0
DTLB MPKI TOTAL: 0 MSHR LATE: 0 PQ LATE: 0 COMMIT LATE: 0 MISSED OPPORTUNITY: 0 UNCOVERED: 0
DTLB PREFETCHES SAME FILL-ORIGIN LEVEL: 0 DIFFERENT FILL-ORIGIN LEVEL: 0
DTLB AVERAGE MISS LATENCY: 108.054 cycles
DTLB AVERAGE MISS LATENCY LOAD: -nan cycles
DTLB AVERAGE MISS LATENCY PREFETCH: -nan cycles
DTLB AVERAGE MSHR OCCUPANCY: 0.0824213
DTLB MSHR FULL: 0.00703489
DTLB RQ	ACCESS:   58640898	FORWARD:          0	MERGED:    6900723	TO_CACHE:   51740175

STLB TOTAL     ACCESS:     172364  HIT:      57045  MISS:     115319  HIT %:    33.0957  MISS %:    66.9043   MPKI: 0.576595
STLB Test counter:          0
STLB LOAD TRANSLATION ACCESS:     172364  HIT:      57045  MISS:     115319  HIT %:    33.0957  MISS %:    66.9043   MPKI: 0.576595
STLB PREFETCH  REQUESTED:          0  ISSUED:          0  USEFUL:          0  USELESS:          0
STLB USEFUL LOAD PREFETCHES:          0 PREFETCH ISSUED TO LOWER LEVEL:          0  ACCURACY: -nan
STLB TIMELY PREFETCHES:          0 LATE PREFETCHES: 0 DROPPED PREFETCHES: 0
STLB COMMIT LATE PREFETCHES: 0 MISSED OPPORTUNITY: 0 LATE IN PQ: 0 UNCOVERED: 0
STLB COMMIT LATE MSHR PREFETCHES: 0
STLB MPKI TOTAL: 0 MSHR LATE: 0 PQ LATE: 0 COMMIT LATE: 0 MISSED OPPORTUNITY: 0 UNCOVERED: 0
STLB PREFETCHES SAME FILL-ORIGIN LEVEL: 0 DIFFERENT FILL-ORIGIN LEVEL: 0
STLB AVERAGE MISS LATENCY: 147.203 cycles
STLB AVERAGE MISS LATENCY LOAD: -nan cycles
STLB AVERAGE MISS LATENCY PREFETCH: -nan cycles
STLB AVERAGE MSHR OCCUPANCY: 0.262543
STLB MSHR FULL: 0
STLB RQ	ACCESS:     172364	FORWARD:          0	MERGED:          0	TO_CACHE:     172364

STLB Hit, L1D data hit: 0
STLB Hit, L2C data hit: 0
STLB Hit, LLC data hit: 0
STLB Hit, LLC data miss: 0
STLB STLB hints to L2: 0
L1D TOTAL     ACCESS:   52646359  HIT:   46972485  MISS:    5673874  HIT %:    89.2227  MISS %:    10.7773   MPKI: 28.3694
L1D Test counter:          0
L1D LOAD      ACCESS:   45498569  HIT:   40957168  MISS:    5365285  HIT %:    90.0186  MISS %:    9.98142   MPKI: 22.707
L1D RFO       ACCESS:    7147790  HIT:    6015317  MISS:    1132473  HIT %:    84.1563  MISS %:    15.8437   MPKI: 5.66236
L1D PREFETCH  REQUESTED:          0  ISSUED:          0  USEFUL:          0  USELESS:          0
L1D USEFUL LOAD PREFETCHES:          0 PREFETCH ISSUED TO LOWER LEVEL:          0  ACCURACY: -nan
L1D TIMELY PREFETCHES:          0 LATE PREFETCHES: 0 DROPPED PREFETCHES: 0
L1D COMMIT LATE PREFETCHES: 0 MISSED OPPORTUNITY: 0 LATE IN PQ: 0 UNCOVERED: 0
L1D COMMIT LATE MSHR PREFETCHES: 0
L1D MPKI TOTAL: 26.8264 MSHR LATE: 0 PQ LATE: 0 COMMIT LATE: 0 MISSED OPPORTUNITY: 0 UNCOVERED: 0
L1D PREFETCHES SAME FILL-ORIGIN LEVEL: 0 DIFFERENT FILL-ORIGIN LEVEL: 0
L1D AVERAGE MISS LATENCY: 82.8994 cycles
L1D AVERAGE MISS LATENCY LOAD: 36.9505 cycles
L1D AVERAGE MISS LATENCY PREFETCH: -nan cycles
L1D AVERAGE MSHR OCCUPANCY: 1.95976
L1D MSHR FULL: 0.00977143
L1D RQ	ACCESS:   76277992	FORWARD:          0	MERGED:   29924118	TO_CACHE:   46322452
L1D WQ	ACCESS:   12318465	FORWARD:      31422	MERGED:         19	TO_CACHE:   12318446

L1D UNIQUE REGIONS ACCESSED: 0
L1D REGIONS CONFLICTS: 0
L1D Cross Page Prefetch Requests: 0
L1D Same Page Prefetch Requests: 0
L1D ROI Sum of L1D PQ occupancy: 0
L1D PREFETCHES PUSHED FROM L2C: 0
44ca3b: 1
44def2: 1
453fe4: 1
44e869: 1
455cbb: 1
44e489: 1
44bf38: 1
453f86: 1
4561dd: 1
449226: 1
45216f: 1
401fbb: 1
449fcc: 1
4560a0: 1
42fa44: 1
454f21: 1
456010: 1
4560ec: 1
42faa0: 1
44dfcf: 1
44cb7f: 1
4568e1: 1
45173b: 1
44cdc9: 1
44fe96: 1
430a73: 1
42fa1e: 1
44ccff: 1
449e57: 1
430a53: 1
4567cd: 1
449bae: 1
44fe8f: 1
449271: 1
44cee4: 1
401d96: 1
455f94: 1
58c509: 1
455f74: 1
4567a1: 1
455e90: 1
44ea75: 1
4565c7: 1
44de69: 1
44f654: 1
44dea2: 1
44ddc3: 1
430b33: 1
44e3c1: 1
402256: 1
44be68: 1
455fe0: 1
44e368: 1
44cb25: 1
44fe7c: 1
40208b: 1
45603c: 1
4022ee: 1
44fb99: 1
45016e: 1
4578ae: 1
44be0e: 1
44ca33: 1
45604c: 1
4508d2: 1
449fd8: 1
456612: 1
401daf: 1
4536be: 1
449ba6: 1
42fa9c: 1
4500ec: 1
44bdac: 1
4578fb: 1
4568d7: 1
44f985: 1
448ce6: 1
448e49: 1
401e0b: 1
44cbe6: 1
44f785: 1
451000: 1
44ef17: 1
44ce2e: 1
402272: 1
42fb67: 1
44cab4: 1
4cf855: 1
44cd56: 1
455fc4: 1
449ade: 1
456599: 1
4514ba: 1
44d4cd: 1
450ac6: 1
455d3d: 1
44931d: 1
44a0c0: 1
44ca74: 1
44ee74: 1
430af1: 1
4528a2: 1
44e365: 1
456a8e: 1
42fa68: 1
44eded: 1
44e34d: 1
4498e2: 1
44f041: 1
448f22: 1
4302ea: 1
40207a: 1
44f81a: 1
4513cc: 1
45163e: 1
449d9d: 1
4022f2: 1
44ca94: 1
40214c: 1
55f8fb: 1
44fb78: 1
449e3a: 1
44f16a: 1
44e848: 1
4516f0: 1
44cb95: 1
450040: 1
402151: 1
4565f6: 1
430a82: 1
44f795: 1
40206b: 1
42fa03: 1
456663: 1
454969: 1
454948: 1
448c9f: 1
4568c4: 1
44a77c: 1
449bd2: 1
449106: 1
45406a: 1
44bd8e: 1
430ab5: 1
453fd8: 1
4522af: 1
4490b0: 1
449436: 1
4566ec: 1
454957: 1
4549bd: 1
454f2d: 1
456591: 1
44f822: 1
44e0ce: 1
44eaae: 1
4522fd: 1
4549c8: 1
452197: 1
452867: 1
45688e: 1
452018: 1
454a7b: 1
4569ed: 1
4531cb: 1
456959: 1
44f4b5: 1
4531f5: 1
4531e5: 1
456eae: 1
4531c0: 1
4531dd: 1
449ffb: 1
456074: 1
4531c8: 1
45692c: 1
402315: 1
452bf6: 1
449288: 1
455ea7: 1
44e35d: 1
452c25: 1
4514d1: 1
456775: 1
4578f4: 1
453011: 1
42fa0a: 1
45305c: 1
448f68: 1
58c515: 1
453652: 1
453f5b: 1
45285f: 1
4516e0: 1
453f53: 1
453fec: 1
44e7fc: 1
44ef69: 1
44e390: 1
56103f: 1
42fb30: 1
448fc1: 1
455cb3: 1
449fef: 1
44e016: 1
45183c: 1
44ea0d: 1
401dbe: 1
44e13f: 1
450ba4: 1
4568f4: 1
455cf7: 1
40204f: 1
455cc3: 1
455d45: 1
455e6f: 1
44cb73: 1
44e2b9: 1
4492c7: 1
44ca2b: 1
44e133: 1
44f887: 1
44e6a4: 1
455f84: 1
449442: 1
55e967: 1
44c1e2: 1
45353f: 1
4491f3: 1
4536cd: 1
4517da: 1
455edf: 1
454a88: 1
4560b0: 1
454ac9: 1
44f4f5: 1
44e506: 1
453f48: 1
44a7a6: 1
454cb8: 1
449ebe: 1
4536ec: 1
454db4: 1
454e16: 1
454f56: 1
44e2a9: 1
454e21: 1
448d78: 1
456626: 1
40221b: 1
450ace: 1
448eec: 1
44caf0: 1
456827: 1
448fec: 1
451a66: 1
44a223: 1
457940: 1
4561ec: 1
452bb4: 1
450b1d: 1
44a619: 1
4494cf: 1
449807: 1
449456: 1
4cf858: 1
45176d: 1
44fe84: 1
44a636: 1
45681c: 1
450fa1: 1
450327: 1
456872: 1
4568a3: 1
401db2: 1
44a65f: 1
44cc90: 1
430a76: 1
44a62c: 1
4568fe: 1
44a1a6: 1
448d39: 1
44a0eb: 1
4508b9: 1
456609: 1
449fb6: 1
449f60: 1
44941f: 1
45691a: 1
448d50: 1
44fb84: 1
44af80: 1
44b665: 1
44af6c: 1
4cf894: 1
430a5a: 1
456eb7: 1
44acf4: 1
448e32: 1
450e80: 1
4494b8: 1
44ad07: 1
44acec: 1
44f86c: 1
449246: 1
449dd7: 1
44acfd: 1
44bf8c: 1
457911: 1
449498: 1
449ad6: 1
452daf: 1
4494ef: 1
456801: 1
44fde1: 1
44a7d1: 1
450c5c: 1
456ac6: 1
44a7ae: 1
4492a7: 1
55fa3a: 1
449348: 1
449159: 1
449e6b: 1
44ca84: 1
44921e: 1
449251: 1
44cd13: 1
401eec: 1
563540: 1
45102e: 1
4497db: 1
451152: 1
44929c: 1
4528fb: 1
4516d9: 1
45128a: 1
44ff74: 1
4512d7: 1
44ea6d: 1
455ccb: 1
450166: 1
4514c9: 1
42fa26: 1
4535b2: 1
4492f2: 1
449373: 1
4493a9: 1
449071: 1
45120f: 1
448d83: 1
402072: 1
454f0d: 1
448dea: 1
401e12: 1
448f51: 1
449d50: 1
449d39: 1
450abf: 1
449bf0: 1
449051: 1
44939e: 1
430ae0: 1
44c9c6: 1
450c3e: 1
450c8e: 1
449be4: 1
4491df: 1
4490ef: 1
40226f: 1
449f58: 1
562ec9: 1
451975: 1
449cc4: 1
44911a: 1
449170: 1
44f51b: 1
44a763: 1
448e88: 1
4536d5: 1
4565b4: 1
44987a: 1
451949: 1
450b70: 1
430af5: 1
4cf849: 1
44cd4a: 1
4cf875: 1
451693: 1
44e3fe: 1
430ab8: 1
4497ff: 1
44ebd8: 1
44d0fb: 1
454012: 1
44d14a: 1
4497ad: 1
451746: 1
456651: 1
44983f: 1
42fa8b: 1
55fd60: 1
44af93: 1
55f9ff: 1
45673c: 1
451dbc: 1
449799: 1
449af2: 1
401d8f: 1
44c9b1: 1
449b1d: 1
45683b: 1
44cac4: 1
401e32: 1
449f98: 1
40224f: 1
44cca8: 1
401def: 1
44a20e: 1
449af9: 1
44bda3: 1
401ef1: 1
401dd6: 1
401e2b: 1
451502: 1
44c48b: 1
44f352: 1
44991e: 1
402286: 1
55faf5: 1
44cca0: 1
456699: 1
4491c8: 1
44bfa4: 1
44dfd7: 1
44bd78: 1
4566a4: 1
44bf7f: 1
44bdc4: 1
450610: 1
44f2ad: 1
44f332: 1
44907c: 1
44bdb8: 1
448db7: 1
4566f4: 1
45156c: 1
44f35e: 1
44f3d2: 1
450b84: 1
44f459: 1
4566d7: 1
4560c0: 1
44f4bd: 1
44cc88: 1
44af88: 1
4567cc: 1
44bd86: 1
401e1a: 1
449723: 1
44f825: 1
44f82c: 1
450beb: 1
455cd3: 1
449737: 1
44be70: 1
449f90: 1
55fd49: 1
562ee0: 1
454072: 1
4508e2: 1
449850: 1
42fa3d: 1
450ca2: 1
55fefd: 1
44f150: 1
44f055: 1
44efa9: 1
42fa60: 1
44c012: 1
456687: 1
44cd90: 1
4023b1: 2
453185: 2
4022eb: 2
4022da: 2
45316d: 2
4022d2: 2
4022cb: 2
40247b: 2
4023ac: 2
45315f: 2
4022af: 2
55fa1d: 2
4525ce: 2
453054: 2
45303d: 2
452e5a: 3
44f770: 3
44d9cd: 3
44ff5a: 4
45034e: 4
44eba6: 4
450317: 5
450309: 6
450f51: 6
450fb1: 6
452f7f: 7
450f8e: 7
450fc1: 8
450f86: 8
44da76: 9
450e03: 9
450dfd: 10
450df5: 10
44ff50: 11
44c64f: 11
44ebf7: 12
44ec07: 13
452feb: 14
451c92: 16
563559: 20
452f6b: 23
451623: 27
451635: 38
44f252: 51
455165: 52
44d3c5: 52
455032: 56
45503a: 58
45030e: 59
44ebab: 61
45274f: 61
4513d2: 64
44fbdb: 64
44fb7e: 64
44fb9f: 64
44f156: 64
452ab1: 65
42fb3a: 65
44f15d: 65
44e50e: 65
45033f: 65
452fff: 65
44fbd5: 65
44f67f: 65
42fbda: 65
44e500: 65
430b70: 65
4509d6: 65
449f02: 65
44e5d0: 65
44ebce: 65
44f671: 65
450715: 65
44fe6a: 65
44fe60: 65
430bf0: 65
44d4bd: 67
452ff0: 81
452f70: 90
44d213: 109
451daf: 128
40213a: 128
44f7a8: 128
44ef1f: 128
44f79d: 128
451680: 128
44e01e: 128
44e031: 129
44f77a: 129
401eda: 129
452606: 196
44f613: 222
450e92: 240
40239a: 257
44c657: 362
44c265: 373
44c687: 373
44c68f: 373
44c677: 373
44c639: 373
44c601: 373
44c619: 373
44c609: 373
44c641: 373
44c285: 374
44c27d: 374
44d202: 401
44d4a7: 445
451d84: 450
4527a7: 452
44d3dc: 460
451f15: 496
402130: 508
401ed0: 509
44dddb: 510
44d565: 510
44d1b0: 510
44d168: 510
44db21: 511
451c67: 511
44de12: 511
44da8b: 511
44dd93: 511
44db09: 511
44d968: 511
44ddab: 511
44db12: 511
44dd80: 511
44d837: 511
44d9e0: 511
451f58: 512
44d31b: 512
451f50: 512
451ecf: 512
451f3d: 512
451c59: 512
451c61: 512
451f48: 512
452506: 512
4527f7: 513
452739: 513
452500: 513
4524f8: 513
4527c7: 513
452837: 513
452fd8: 521
44fbbf: 531
44ef25: 574
452f58: 576
4502f6: 604
44f649: 698
44ebb9: 734
44e7a3: 748
402390: 1018
451611: 1119
44f626: 1503
44d4fd: 1693
44c3d8: 2525
44d4db: 2842
44d9d2: 2928
44da7c: 2941
4550fa: 4008
4550e2: 4010
44da1e: 4655
452630: 4815
44e024: 4944
44dad7: 5409
450ea7: 6102
45265a: 6249
44e2c1: 7775
44d40d: 7858
44e2ce: 8095
44e290: 8536
44e29c: 8980
44d9ff: 10131
44d428: 10620
44e045: 12608
44dab0: 13503
452aa5: 15610
452a80: 15859
4513f6: 16320
4513c6: 16320
451136: 16384
44f187: 16384
451168: 16384
44f182: 16717
4513c0: 16767
4513f0: 16767
451130: 16768
451162: 16768
452a87: 17421
452a9f: 17670
44e037: 20416
44c3e6: 21675
44d422: 22532
44c950: 22745
44e2a3: 24172
44c3eb: 24200
44c3f9: 24200
44c4fc: 24293
44c457: 24293
44c412: 24293
44c41f: 24293
44c49b: 24293
44c435: 24293
44c473: 24293
44c406: 24293
44c4c3: 24293
44e296: 24744
44e2d4: 25057
44d402: 25294
44e2c7: 25377
452668: 27006
450eae: 27178
44e010: 28464
45263e: 28530
44d4d5: 30310
44d4f7: 31459
44f62b: 31487
4515fb: 31970
44f639: 32261
44e790: 32469
44ebbe: 32611
452f5d: 32639
4502fb: 32676
44fbc5: 32684
452fdd: 32694
44d96d: 32704
44d9e5: 32704
44da91: 32704
44d3cc: 32768
44d4ad: 32768
44d321: 32768
44ef10: 32769
451d91: 32830
44f66c: 32959
44f679: 32959
4550b6: 33034
4525de: 33049
452f79: 33080
452ff9: 33087
4509e4: 33087
44daab: 33087
44dad2: 33087
453019: 33087
44da19: 33087
4509d0: 33087
4509c0: 33087
44d9fa: 33088
4550dc: 33088
44fbe9: 33088
453750: 33088
455f30: 33088
4550f4: 33088
455113: 33088
450355: 33092
45031d: 33093
4550ca: 33140
450345: 33152
455e00: 33152
451d6e: 33152
452ac7: 33152
453610: 33152
450710: 33152
452a8e: 33152
450700: 33152
452aab: 33152
450722: 33152
454ce5: 33152
450e88: 33152
454caa: 33152
454cc4: 33153
44ec01: 33204
44ebf0: 33205
4550a8: 33215
455101: 33215
4550bc: 33215
453754: 33215
44ebc7: 33216
44a830: 33217
4525c8: 33217
449efe: 33217
451da2: 33279
450e98: 33280
453614: 33280
454c70: 33280
451dc6: 33280
450eb4: 33280
4540a4: 33280
4540a0: 33280
44e514: 33280
451d60: 33280
451e24: 33280
451e3f: 33280
451de0: 33280
451dd3: 33280
451dff: 33280
450ec0: 33280
451df1: 33280
454cd0: 33280
451e0c: 33280
454c8f: 33280
450e9e: 33280
451e16: 33280
449ccc: 33282
44a730: 33282
452694: 33345
45264c: 33345
4525c3: 33345
44a838: 33345
45267e: 33345
4525f8: 33345
4525eb: 33345
452688: 33345
45262a: 33345
4526b0: 33345
44a738: 33410
449ef0: 33601
449f0a: 33602
449aa4: 33666
449cc0: 33666
449cdc: 33668
449aa0: 33668
L1I TOTAL     ACCESS:   35660289  HIT:   35659519  MISS:        770  HIT %:    99.9978  MISS %: 0.00215926   MPKI: 0.00385
L1I Test counter:          0
L1I LOAD      ACCESS:   35660289  HIT:   35659519  MISS:       1153  HIT %:    99.9978  MISS %: 0.00215926   MPKI: 0.00385
L1I PREFETCH  REQUESTED:          0  ISSUED:          0  USEFUL:          0  USELESS:          0
L1I USEFUL LOAD PREFETCHES:          0 PREFETCH ISSUED TO LOWER LEVEL:          0  ACCURACY: -nan
L1I TIMELY PREFETCHES:          0 LATE PREFETCHES: 0 DROPPED PREFETCHES: 0
L1I COMMIT LATE PREFETCHES: 0 MISSED OPPORTUNITY: 0 LATE IN PQ: 0 UNCOVERED: 0
L1I COMMIT LATE MSHR PREFETCHES: 0
L1I MPKI TOTAL: 0.005765 MSHR LATE: 0 PQ LATE: 0 COMMIT LATE: 0 MISSED OPPORTUNITY: 0 UNCOVERED: 0
L1I PREFETCHES SAME FILL-ORIGIN LEVEL: 0 DIFFERENT FILL-ORIGIN LEVEL: 0
L1I AVERAGE MISS LATENCY: 233.013 cycles
L1I AVERAGE MISS LATENCY LOAD: 233.013 cycles
L1I AVERAGE MISS LATENCY PREFETCH: -nan cycles
L1I AVERAGE MSHR OCCUPANCY: 2.65839e-05
L1I MSHR FULL: 0
L1I RQ	ACCESS:   50641889	FORWARD:          0	MERGED:   14981215	TO_CACHE:   35660674

452c80: 1
452a80: 1
55ea03: 1
451981: 1
452b00: 1
44a646: 1
5613c7: 1
449dc1: 1
452b46: 1
449bc3: 1
452c01: 1
561203: 1
451b01: 1
449c86: 1
451b81: 1
450a02: 1
452d00: 1
455101: 1
452d40: 1
456482: 1
451e86: 1
453005: 1
450a86: 1
452d84: 1
455185: 1
454ac5: 1
452485: 1
449481: 1
450202: 1
452500: 1
452586: 1
44f143: 1
4525c0: 1
452606: 1
452707: 1
44f2c4: 1
452741: 1
449d80: 1
4527c7: 1
452807: 1
55ff04: 1
561658: 1
452903: 1
4517c1: 1
452940: 1
452986: 1
4506c7: 1
4529c5: 1
44e282: 1
44e885: 1
55f9e0: 1
453580: 1
44ce06: 1
450283: 1
453700: 1
453780: 1
450b06: 1
453f83: 1
453fc0: 1
448e80: 1
451d02: 1
453537: 1
454000: 1
456401: 1
448ec0: 1
454041: 1
454980: 1
4549c5: 1
44e107: 1
454a01: 1
4498c1: 1
454a42: 1
454d07: 1
455000: 1
44f785: 1
454f00: 1
4551c5: 1
44c3c0: 1
45788b: 1
452e05: 1
44af80: 1
449e01: 1
451d45: 1
456341: 1
452ec4: 1
4496c1: 1
452f01: 1
44e944: 1
452f40: 1
450cc2: 1
452fc0: 1
453045: 1
45315f: 1
4cbb60: 1
42fb44: 1
449382: 1
453185: 1
44e841: 1
5618f8: 1
44e301: 1
44dd70: 1
44e345: 1
44cb47: 1
451143: 1
44e6c1: 1
44f840: 1
451941: 1
44e4c4: 1
454e02: 1
44cf42: 1
44f9c0: 1
451f80: 1
44d984: 1
44eb03: 1
44e804: 1
44e980: 1
44ea40: 1
44eac1: 1
451802: 1
402341: 1
44eb83: 1
456680: 1
44dfc6: 1
44e601: 1
44d482: 1
44f285: 1
44e0c0: 1
4540c0: 1
451dc2: 1
44fac4: 1
44e1c1: 1
454dc4: 1
450591: 1
451885: 1
44f081: 1
44e206: 1
44e241: 1
44cec3: 1
44e547: 1
451743: 1
4528c2: 1
454bc0: 1
452b87: 1
454e85: 1
44f240: 1
452242: 1
44cf03: 1
44f201: 1
450bc1: 1
55fec9: 1
452142: 1
449403: 1
452183: 1
4520c4: 1
4566c0: 1
452201: 1
449787: 1
44e082: 1
4522c3: 1
452305: 1
456842: 1
452342: 1
5656d0: 1
452383: 1
4523c1: 1
452400: 1
44fc00: 1
5617db: 1
44a840: 1
44ee80: 1
451341: 1
453742: 1
44da44: 1
44ebc3: 1
457902: 1
44d341: 1
44ed50: 1
44df87: 1
456cc6: 1
44ff81: 1
44ee02: 1
449902: 1
44eec3: 1
451cc3: 1
44f001: 1
44c100: 1
55fa04: 1
44f182: 1
44cbc3: 1
450040: 1
452787: 1
40247b: 1
449987: 1
449046: 1
456d86: 1
44f347: 1
456dc0: 1
456e06: 1
456e47: 1
449641: 1
448c50: 1
448e41: 1
44fa00: 1
449106: 1
44c4c3: 1
456d46: 1
4490c7: 1
4492c7: 1
562f09: 1
4493c1: 1
561e6b: 1
4500c1: 1
44cc44: 1
44ddc3: 1
4497c7: 1
560e29: 1
401e81: 1
456d06: 1
449b40: 1
4568c4: 1
456906: 1
456940: 1
448fc1: 1
4cf7c6: 1
451245: 1
4569c0: 1
456a05: 1
452445: 1
456a41: 1
560ec0: 1
456b06: 1
456b46: 1
42fb02: 1
449340: 1
456b86: 1
456bc6: 1
456c06: 1
454948: 1
456c46: 1
456c86: 1
560ea8: 1
4302c2: 1
561801: 1
449681: 1
450001: 1
449707: 1
44de03: 1
449807: 1
449848: 1
449941: 1
4499c3: 1
449a01: 1
449a81: 1
561a01: 1
449b00: 1
44bf40: 1
449c42: 1
449ec7: 1
448d83: 1
449f02: 1
449f47: 1
561e84: 1
449f84: 1
44f741: 1
449fc6: 1
561dcf: 1
560f02: 1
560f44: 1
560fc2: 1
561002: 1
561080: 1
4524c5: 1
5611f8: 1
561043: 1
56124f: 1
561480: 1
452ac7: 1
4578d0: 1
561300: 1
561904: 1
5616a8: 1
561850: 1
449cc0: 1
561715: 1
44e041: 1
561945: 1
561980: 1
44bdc0: 1
5619c2: 1
455e00: 1
452dc4: 1
4550c2: 1
452e47: 1
455145: 1
449d40: 1
452884: 1
455d01: 1
455d45: 1
4cf840: 1
44f506: 1
454c81: 1
450ac6: 1
401ec7: 1
455e41: 1
455e80: 1
455ec3: 1
430301: 1
455f00: 1
455fc4: 1
44c382: 1
401dc6: 1
452bc7: 1
456044: 1
55f902: 1
4516c3: 1
454b40: 1
454b80: 1
560d81: 1
454c00: 1
449ac0: 1
452a42: 1
454d40: 1
449c00: 1
450844: 1
454e40: 1
44e647: 1
449d00: 1
454ec2: 1
451ac3: 1
454f40: 1
454f82: 1
448cc3: 1
449e42: 1
456140: 1
454fc1: 1
456204: 1
455085: 1
454c42: 1
449541: 1
401fbb: 1
449202: 1
563540: 1
55fd40: 1
560400: 1
5603f5: 1
44dec5: 1
453640: 1
55faa0: 1
58c540: 1
44a6c0: 1
455dc1: 1
5bab50: 1
448dc2: 1
55e9c4: 1
450f86: 1
456701: 1
4491c0: 1
4cf884: 1
4cf92d: 1
449140: 1
44e703: 1
456305: 1
4560c0: 1
402140: 1
42fa41: 1
430290: 1
42fa83: 1
449301: 1
42fac3: 1
42fb80: 1
42fbc1: 1
456285: 1
448d44: 1
449280: 1
44ad05: 1
430348: 1
430382: 1
451f45: 1
456541: 1
402005: 1
448f87: 1
402083: 1
42fa03: 1
402102: 1
401d70: 1
44f802: 1
44fa87: 1
456381: 1
456e95: 1
561400: 1
451c01: 1
44f903: 1
44f601: 1
44f884: 1
448c81: 1
449506: 1
44e7c0: 1
55f8c1: 1
4563c5: 1
44c043: 1
44f4c0: 1
4519c1: 1
44f6c3: 1
401e03: 1
44b65d: 1
44f684: 1
4511e5: 1
452283: 1
451045: 1
450a70: 1
44ffc7: 1
450641: 1
455d81: 1
450606: 1
452a07: 1
451b45: 1
450242: 1
44de41: 1
44ca84: 1
450146: 1
450104: 1
4513c0: 1
4567c0: 1
452103: 1
42f9e0: 1
456640: 1
451201: 1
453602: 1
450fc1: 1
44fe42: 1
456780: 1
450345: 1
44fe01: 1
449747: 1
44d3c0: 1
44d803: 1
44e3c1: 1
44eb40: 1
402286: 1
44cb87: 1
451a06: 1
4514c2: 1
44cf85: 1
44ccc0: 1
44d441: 1
456180: 1
450c80: 1
44d844: 1
401e41: 1
450e00: 1
450740: 1
44d2c3: 1
44cd42: 1
453680: 1
44d286: 1
44cfc1: 1
561128: 1
44db01: 1
44f402: 1
44f640: 1
44d543: 1
4509c0: 1
44f5c3: 1
44c004: 1
44f481: 1
456084: 1
451680: 1
4502c1: 1
44cd80: 1
44d8c2: 1
560fbe: 1
44d001: 1
451600: 1
44f380: 1
55fb42: 1
44f041: 1
401fd0: 1
44d709: 1
44f580: 1
44e440: 1
44d900: 1
44d085: 1
451fc5: 1
44a681: 1
44a612: 1
44a206: 1
44a183: 1
44c443: 1
44a145: 1
44a103: 1
44a081: 1
44a042: 1
452080: 1
456882: 1
44a701: 1
455cb3: 1
44c6c7: 1
44fb44: 1
454081: 1
44a0c0: 1
448f41: 1
451f07: 1
448f03: 1
451ec7: 1
44f7c0: 1
451e43: 1
44c0c0: 1
44c582: 1
44c546: 1
44c501: 1
44c402: 1
44c342: 1
44c302: 1
44c2c7: 1
44c285: 1
44c250: 1
44c1c7: 1
44c147: 1
451d84: 1
44bfc2: 1
44bec2: 1
44be81: 1
44be40: 1
44be01: 1
44af61: 1
44acec: 1
44a807: 1
44a7c2: 1
44a784: 1
44a740: 1
450c46: 1
55fe46: 1
451287: 1
44ca43: 1
451182: 1
44ed81: 1
451084: 1
450d80: 1
44ec44: 1
450f41: 1
450f00: 1
450e80: 1
451844: 1
450c02: 1
450b47: 1
44e481: 1
450941: 1
44a003: 1
451a80: 1
450901: 1
44c202: 1
44e500: 1
4508c1: 1
450880: 1
456104: 1
4562c1: 1
451bc5: 1
452007: 1
44a1c6: 1
44f941: 1
55faf5: 1
449003: 1
456000: 1
4561c3: 1
44c187: 1
451902: 1
44ff02: 1
451782: 1
455f84: 1
451c87: 1
44d1c0: 1
451502: 1
44f3c6: 1
451401: 1
44bf00: 1
451c50: 1
5612f0: 1
451385: 1
44e902: 1
448e06: 1
44d402: 1
44e581: 1
44c5c6: 1
44fa43: 1
44d745: 1
44e8c4: 1
4022c3: 1
44e5c1: 1
44d202: 1
455f41: 1
44f700: 1
451483: 1
44ce87: 1
430b00: 1
4531c0: 1
452041: 1
561e06: 1
44f8c6: 1
455041: 1
44cc83: 1
4535c1: 1
450ec0: 1
44d105: 1
451300: 1
449887: 1
450980: 1
44d503: 1
456507: 1
448d01: 1
450381: 1
562ec0: 1
449a43: 1
44bf86: 1
451701: 1
44e742: 1
44e147: 1
452684: 1
4512c0: 1
44efc2: 1
430b40: 1
44fec7: 1
457940: 1
4521c5: 1
55e950: 1
44ca07: 1
44fe84: 1
451a43: 1
44dac2: 1
456801: 1
456ac6: 1
44ef00: 1
44f1c5: 1
44db41: 1
4510c1: 1
44edc3: 1
44ff42: 1
44de80: 1
454a83: 1
402387: 1
456245: 1
401d82: 1
44df06: 1
450086: 1
456980: 1
44cdc3: 1
44df42: 1
4515c1: 1
44ec01: 1
44da82: 1
456a86: 1
402043: 1
402242: 1
561281: 1
450d41: 1
561744: 1
5616c4: 1
44cc01: 1
44dd80: 1
452847: 1
44e406: 1
450e44: 1
44f541: 1
4cf825: 1
449182: 1
55f8b0: 1
44f100: 1
450dd0: 1
55fb03: 1
44e001: 1
562f41: 1
44da05: 1
4cf780: 1
456744: 1
44fdc0: 1
451e04: 1
430ac0: 1
44ea80: 1
453547: 1
560d70: 1
450182: 1
452644: 1
44fbc5: 1
55fa42: 1
44d246: 1
4303c3: 1
44cb00: 1
44d943: 1
453f40: 1
4518c0: 1
430a30: 1
44bd80: 1
44fda7: 1
44ce43: 1
430a82: 1
44d9c4: 1
44fb00: 1
450d02: 1
430403: 1
451000: 1
451540: 1
4503c1: 1
44f306: 1
44e187: 1
4526c4: 1
44f985: 1
44bd78: 1
452c47: 1
454d83: 1
44e2c1: 1
44d142: 1
55fe18: 1
452547: 1
4536c6: 1
44d4c3: 1
44d0c0: 1
44c084: 1
450680: 1
44e382: 1
454cc0: 1
449b80: 1
44d043: 1
451580: 1
44e783: 1
430c01: 1
450700: 1
4020c2: 1
44fb84: 1
44ea05: 1
44c9c6: 1
44d181: 1
451646: 1
44ef80: 1
451102: 1
44c485: 1
452e83: 1
450b84: 1
452cc0: 1
452f85: 1
44d882: 1
449080: 1
430a42: 1
56150c: 1
44ef41: 1
44cd07: 1
44ee43: 1
4501c5: 1
454b02: 1
430b80: 1
55e990: 1
449246: 1
44e9c1: 1
450814: 1
44f0c0: 1
455cc3: 1
44cac4: 1
44f446: 1
4505c5: 1
450300: 1
44c687: 1
402480: 1
44d382: 1
44d300: 1
449e83: 1
430bc2: 1
44c601: 1
44d780: 1
402301: 1
44c641: 1
44d7c0: 1
44e681: 1
BTB TOTAL     ACCESS:    7433883  HIT:    7433574  MISS:        309  HIT %:    99.9958  MISS %: 0.00415664   MPKI: 0.001545
BTB Test counter:          0
BTB BRANCH_DIRECT_JUMP	ACCESS:       1193  HIT:       1166  MISS:         27
BTB BRANCH_INDIRECT	ACCESS:          0  HIT:          0  MISS:          0
BTB BRANCH_CONDITIONAL	ACCESS:    7432416  HIT:    7432259  MISS:        157
BTB BRANCH_DIRECT_CALL	ACCESS:        137  HIT:         76  MISS:         61
BTB BRANCH_INDIRECT_CALL	ACCESS:          0  HIT:          0  MISS:          0
BTB BRANCH_RETURN	ACCESS:        137  HIT:         73  MISS:         64
BTB BRANCH_OTHER ACCESS:          0  HIT:          0  MISS:          0

L2C TOTAL     ACCESS:   11317777  HIT:    5713609  MISS:    5604168  HIT %:    50.4835  MISS %:    49.5165   MPKI: 28.0208
L2C Test counter:          0
L2C LOAD      ACCESS:    4542163  HIT:    4152321  MISS:     389842  HIT %:    91.4173  MISS %:    8.58274   MPKI: 1.94921
L2C DATA LOAD MPKI: 1.94536
L2C INSTRUCTION LOAD MPKI: 0.00385
L2C RFO       ACCESS:    1132473  HIT:         14  MISS:    1132459  HIT %: 0.00123623  MISS %:    99.9988   MPKI: 5.66229
L2C PREFETCH  ACCESS:    4057483  HIT:         82  MISS:    4057401  HIT %: 0.00202096  MISS %:     99.998   MPKI: 20.287
L2C DATA PREFETCH MPKI: 20.287
L2C INSTRUCTION PREFETCH MPKI: 0
L2C WRITEBACK ACCESS:    1469667  HIT:    1469608  MISS:         59  HIT %:     99.996  MISS %: 0.00401451   MPKI: 0.000295
L2C LOAD TRANSLATION ACCESS:     115991  HIT:      91584  MISS:      24407  HIT %:    78.9579  MISS %:    21.0421   MPKI: 0.122035
L2C PREFETCH  REQUESTED:    4129329  ISSUED:    4129329  USEFUL:    3596161  USELESS:     460755
L2C USEFUL LOAD PREFETCHES:    3596161 PREFETCH ISSUED TO LOWER LEVEL:    4113060  ACCURACY: 87.4327
L2C TIMELY PREFETCHES:    3596161 LATE PREFETCHES: 55657 DROPPED PREFETCHES: 0
L2C COMMIT LATE PREFETCHES: 0 MISSED OPPORTUNITY: 0 LATE IN PQ: 0 UNCOVERED: 0
L2C COMMIT LATE MSHR PREFETCHES: 0
L2C MPKI TOTAL: 1.94921 MSHR LATE: 0.278285 PQ LATE: 0 COMMIT LATE: 0 MISSED OPPORTUNITY: 0 UNCOVERED: 0
L2C PREFETCHES SAME FILL-ORIGIN LEVEL: 4113060 DIFFERENT FILL-ORIGIN LEVEL: 0
L2C AVERAGE MISS LATENCY: 267.949 cycles
L2C AVERAGE MISS LATENCY LOAD: 253.84 cycles
L2C AVERAGE MISS LATENCY PREFETCH: 273.853 cycles
L2C AVERAGE MSHR OCCUPANCY: 6.57824
L2C MSHR FULL: 0.0662959
L2C RQ	ACCESS:    5790639	FORWARD:          0	MERGED:          0	TO_CACHE:    5790631
L2C WQ	ACCESS:    1469667	FORWARD:          8	MERGED:          0	TO_CACHE:    1469667
L2C PQ	ACCESS:    4129329	FORWARD:          0	MERGED:          0	TO_CACHE:    4129329

L2C Instructions Evicting Data 769
L2C Translations Evicting Data 24323
L2C Data Evicting Data 5553851
L2C Instructions Evicting Instructions 0
L2C Translations Evicting Instructions 6
L2C Data Evicting Instructions 764
L2C Instructions Evicting Translations 1
L2C Translations Evicting Translations 78
L2C Data Evicting Translations 24317
L2C Dense regions hint from L2: 0
44def2: 1
448e80: 1
44f4b5: 1
456959: 1
44da05: 1
44d4cd: 1
402341: 1
451902: 1
44c187: 1
449941: 1
456074: 1
44d482: 1
44e601: 1
44d441: 1
44f16a: 1
450d80: 1
44ec44: 1
45120f: 1
44dd70: 1
44ea0d: 1
455edf: 1
451a80: 1
450901: 1
44ebd8: 1
456651: 1
448e88: 1
44c202: 1
44d543: 1
430ae0: 1
454f00: 1
451300: 1
449887: 1
44cdc3: 1
44df42: 1
44f541: 1
42fb67: 1
456599: 1
451f07: 1
44e082: 1
44cf03: 1
44f201: 1
44d181: 1
402242: 1
4536cd: 1
454e21: 1
561281: 1
44d142: 1
44d1c0: 1
450ba4: 1
4568f4: 1
449bd2: 1
44a77c: 1
44d043: 1
44d341: 1
44e6a4: 1
560e29: 1
44cc01: 1
44e345: 1
44ff02: 1
44db01: 1
44dec5: 1
453640: 1
55faa0: 1
561a01: 1
44dd80: 1
430c01: 1
4514c2: 1
4531dd: 1
44e5c1: 1
451c87: 1
4cf894: 1
44a20e: 1
44ce87: 1
451483: 1
452b87: 1
4513cc: 1
44f81a: 1
452741: 1
44f2c4: 1
44f82c: 1
44fe01: 1
44f840: 1
44e6c1: 1
452f01: 1
44f884: 1
454e85: 1
44e0c0: 1
4494ef: 1
451782: 1
44e804: 1
44cdc9: 1
430a42: 1
44e016: 1
44f825: 1
456381: 1
44fa43: 1
44e8c4: 1
44d745: 1
44c5c6: 1
44fa00: 1
44f9c0: 1
44e841: 1
560d70: 1
561400: 1
44f941: 1
44a1c6: 1
44f822: 1
44e0ce: 1
4549c8: 1
456cc6: 1
44f86c: 1
42fa0a: 1
449e42: 1
44da44: 1
44ebc3: 1
4520c4: 1
4566c0: 1
44d8c2: 1
44d882: 1
44d844: 1
448cc3: 1
44d300: 1
449e83: 1
452a07: 1
450606: 1
455d81: 1
450ca2: 1
44de03: 1
449807: 1
450c5c: 1
449fef: 1
4506c7: 1
4529c5: 1
44e001: 1
44cee4: 1
561203: 1
44fb78: 1
44dfc6: 1
44f402: 1
44da82: 1
44df06: 1
451084: 1
42fa44: 1
451182: 1
44f459: 1
44ed81: 1
44de69: 1
430ab8: 1
44e869: 1
453fe4: 1
430a82: 1
454db4: 1
449ebe: 1
44e206: 1
44f081: 1
450001: 1
449707: 1
451a43: 1
456940: 1
430b40: 1
452f40: 1
44e944: 1
44a681: 1
44cc90: 1
40226f: 1
449f58: 1
4568fe: 1
44cf42: 1
44f240: 1
44e301: 1
44eb40: 1
44e581: 1
44f700: 1
448e06: 1
44cb87: 1
40224f: 1
430b80: 1
430b00: 1
44e365: 1
44cb25: 1
44f001: 1
44d3c0: 1
44d0fb: 1
450327: 1
4499c3: 1
44d085: 1
451287: 1
402256: 1
4511e5: 1
44cca8: 1
448c81: 1
44e547: 1
4022af: 1
44ea75: 1
449f98: 1
44e282: 1
449c86: 1
452644: 1
44e107: 1
454a01: 1
451dbc: 1
44d7c0: 1
44e368: 1
452daf: 1
456801: 1
44e481: 1
44cf85: 1
44ccc0: 1
44e13f: 1
44e902: 1
456640: 1
453700: 1
402083: 1
44ef41: 1
4508c1: 1
45603c: 1
430a30: 1
4490ef: 1
44ce43: 1
456010: 1
4022da: 1
448d50: 1
561dcf: 1
402480: 1
455e90: 1
449271: 1
450c3e: 1
450242: 1
449373: 1
44de41: 1
44d382: 1
44ca33: 1
44e187: 1
44f306: 1
44de80: 1
44bdac: 1
450381: 1
402272: 1
45176d: 1
44cb73: 1
44d001: 1
42f9e0: 1
44cb00: 1
452586: 1
44d286: 1
44af88: 1
44cfc1: 1
4505c5: 1
4cf92d: 1
44f446: 1
450300: 1
4022f2: 1
44e489: 1
454d83: 1
44cc83: 1
42fac3: 1
449301: 1
4536be: 1
44ef17: 1
44fe42: 1
449b1d: 1
451152: 1
55f8b0: 1
44cd56: 1
44d900: 1
44d246: 1
44ca43: 1
449f90: 1
451802: 1
4494cf: 1
44caf0: 1
44fb00: 1
44d9c4: 1
44ce06: 1
450283: 1
449f60: 1
44ca74: 1
44f347: 1
456dc0: 1
44f1c5: 1
44ef00: 1
430af1: 1
455e80: 1
44df87: 1
44fa87: 1
455f00: 1
44ca2b: 1
44be81: 1
44d0c0: 1
450182: 1
4022eb: 1
451245: 1
4569c0: 1
44e4c4: 1
451a66: 1
451ac3: 1
454f40: 1
451a06: 1
4519c1: 1
44f6c3: 1
44939e: 1
451975: 1
451941: 1
451b45: 1
451885: 1
451844: 1
45285f: 1
4516e0: 1
4517c1: 1
452940: 1
451746: 1
44d14a: 1
451e04: 1
456980: 1
451fc5: 1
451f80: 1
44d984: 1
44eb03: 1
451ec7: 1
40206b: 1
451e43: 1
451743: 1
451dc2: 1
44fac4: 1
4540c0: 1
40208b: 1
451cc3: 1
451c01: 1
44f903: 1
451bc5: 1
4514ba: 1
4515c1: 1
452080: 1
45156c: 1
452cc0: 1
4022d2: 1
451540: 1
4503c1: 1
4549bd: 1
451600: 1
451c50: 1
44bf00: 1
451401: 1
451385: 1
451341: 1
45128a: 1
456a05: 1
4512c0: 1
44d105: 1
4528c2: 1
454bc0: 1
4516d9: 1
452283: 1
4516f0: 1
44e848: 1
4562c1: 1
451701: 1
450086: 1
44bf86: 1
4516c3: 1
454b40: 1
45163e: 1
44e1c1: 1
4518c0: 1
452986: 1
44ed50: 1
402315: 1
55fa3a: 1
452d40: 1
457911: 1
452d00: 1
451b81: 1
450a02: 1
452c80: 1
451b01: 1
452bf6: 1
456482: 1
4531cb: 1
452c01: 1
452bc7: 1
456044: 1
452b46: 1
452b00: 1
451981: 1
4498c1: 1
451d45: 1
455ea7: 1
449288: 1
4523c1: 1
44f506: 1
454c81: 1
452fc0: 1
450cc2: 1
452ec4: 1
42faa0: 1
456341: 1
452dc4: 1
4550c2: 1
452d84: 1
450a86: 1
44f332: 1
453005: 1
451e86: 1
4522fd: 1
44f143: 1
452500: 1
450202: 1
44eaae: 1
452485: 1
452400: 1
452383: 1
452342: 1
4525c0: 1
44ee80: 1
452305: 1
452197: 1
452242: 1
452142: 1
452041: 1
4517da: 1
44e35d: 1
452e47: 1
452867: 1
55fe46: 1
4527c7: 1
454ac5: 1
452903: 1
44cec3: 1
44f7c0: 1
44bd8e: 1
44efc2: 1
455145: 1
448e49: 1
5613c7: 1
44a646: 1
454f2d: 1
453742: 1
452707: 1
452606: 1
450146: 1
44fb99: 1
44c147: 1
4501c5: 1
4514c9: 1
450166: 1
562ec0: 1
4500ec: 1
452547: 1
4536c6: 1
45016e: 1
450104: 1
452787: 1
40247b: 1
4500c1: 1
430b33: 1
44cc44: 1
44ddc3: 1
4497c7: 1
44f795: 1
454d40: 1
562ec9: 1
450641: 1
453f53: 1
453011: 1
44e440: 1
449a01: 1
44e041: 1
44cbc3: 1
561945: 1
452445: 1
456a41: 1
450880: 1
44ce2e: 1
4502c1: 1
4514d1: 1
452c25: 1
44fc00: 1
44dac2: 1
44fda7: 1
44a62c: 1
44bd80: 1
44987a: 1
44ca07: 1
44ea40: 1
456a8e: 1
402387: 1
453652: 1
5617db: 1
44ea05: 1
451f45: 1
456541: 1
448d78: 1
44fb44: 1
44c6c7: 1
44fec7: 1
452103: 1
44ffc7: 1
44ff81: 1
44ee02: 1
4512d7: 1
450d02: 1
44ff74: 1
452847: 1
452a42: 1
4521c5: 1
4561ec: 1
452807: 1
453f5b: 1
44fe7c: 1
44a701: 1
44fde1: 1
44fdc0: 1
448e32: 1
44edc3: 1
452e05: 1
456701: 1
452201: 1
44941f: 1
44c2c7: 1
451c61: 1
452007: 1
451c59: 1
44ff42: 1
451693: 1
4cf875: 1
450e44: 1
450e00: 1
450d41: 1
450c8e: 1
450c80: 1
44d803: 1
452884: 1
44911a: 1
449cc4: 1
44bfc2: 1
451201: 1
4524c5: 1
44cd4a: 1
5611f8: 1
4522af: 1
450c46: 1
453fd8: 1
455d01: 1
451143: 1
44cb47: 1
449202: 1
451102: 1
455cd3: 1
4510c1: 1
450814: 1
44c250: 1
4508e2: 1
4508d2: 1
449fd8: 1
4508b9: 1
450844: 1
4536ec: 1
454e40: 1
450941: 1
44f0c0: 1
450740: 1
44d2c3: 1
44929c: 1
42fa1e: 1
450680: 1
44e382: 1
44c084: 1
44d202: 1
450c02: 1
451949: 1
450b70: 1
456e95: 1
450ace: 1
450abf: 1
449046: 1
449bf0: 1
44c48b: 1
450a70: 1
451045: 1
4567c0: 1
4522c3: 1
453fec: 1
451580: 1
450980: 1
44d503: 1
55f8c1: 1
401dc6: 1
44c382: 1
401e03: 1
401e41: 1
401ec7: 1
58c509: 1
44a763: 1
449bc3: 1
401fbb: 1
401d70: 1
55f902: 1
449d00: 1
55fd40: 1
55fd60: 1
55f9ff: 1
560400: 1
5603f5: 1
55fa42: 1
55f8fb: 1
402043: 1
44ad05: 1
4302ea: 1
430382: 1
4303c3: 1
430403: 1
55fe18: 1
456507: 1
401fd0: 1
402005: 1
55fd49: 1
449182: 1
40204f: 1
40207a: 1
402072: 1
4020c2: 1
561744: 1
456591: 1
449f47: 1
4578fb: 1
4567cc: 1
449003: 1
4cf840: 1
4cf849: 1
560f44: 1
4cf858: 1
45788b: 1
44c3c0: 1
457902: 1
44991e: 1
456842: 1
456882: 1
456906: 1
45692c: 1
45691a: 1
4568d7: 1
4cf7c6: 1
4cf825: 1
456a86: 1
58c540: 1
44be70: 1
55fb42: 1
55ff04: 1
561658: 1
55e950: 1
55e990: 1
55e967: 1
44c1e2: 1
5656d0: 1
430348: 1
55e9c4: 1
448dc2: 1
55ea03: 1
456744: 1
4cf780: 1
456780: 1
456775: 1
4578f4: 1
455ccb: 1
456140: 1
454f56: 1
455000: 1
455085: 1
456204: 1
4cf884: 1
455185: 1
4551c5: 1
455cf7: 1
454fc1: 1
449681: 1
455d3d: 1
455cbb: 1
455e41: 1
455ec3: 1
455e6f: 1
455f41: 1
455f74: 1
456000: 1
454e02: 1
455dc1: 1
5bab50: 1
454cc0: 1
454d07: 1
44c687: 1
5616c4: 1
454cb8: 1
44c0c0: 1
4569ed: 1
455f94: 1
454e16: 1
454ec2: 1
449fcc: 1
454f82: 1
454f0d: 1
454f21: 1
4560a0: 1
449481: 1
449051: 1
4cbb60: 1
449382: 1
42fa8b: 1
42fa68: 1
42fa9c: 1
42fa3d: 1
42fb80: 1
42fbc1: 1
456245: 1
42fb44: 1
456285: 1
456305: 1
4563c5: 1
456401: 1
430290: 1
4302c2: 1
449b00: 1
430301: 1
4561c3: 1
455fe0: 1
4493c1: 1
561e6b: 1
456084: 1
4560b0: 1
4560ec: 1
456104: 1
44bdb8: 1
456180: 1
456b06: 1
402102: 1
42fa41: 1
402140: 1
42fa83: 1
449e6b: 1
42fa26: 1
42fb02: 1
449340: 1
449d40: 1
449b80: 1
449af2: 1
449bae: 1
44a183: 1
449ba6: 1
449c00: 1
449be4: 1
449c42: 1
44bf40: 1
449b40: 1
449d39: 1
449d80: 1
449d50: 1
449dc1: 1
449e01: 1
449dd7: 1
449e3a: 1
449e57: 1
44a003: 1
449848: 1
561980: 1
5619c2: 1
44bdc0: 1
561801: 1
449641: 1
4496c1: 1
44a840: 1
449787: 1
449723: 1
449fb6: 1
4497ff: 1
449902: 1
449987: 1
449a81: 1
449ac0: 1
449ad6: 1
449af9: 1
449ade: 1
44bf7f: 1
44acf4: 1
44af6c: 1
44af93: 1
44bd86: 1
44be01: 1
44be0e: 1
44be40: 1
44bdc4: 1
44bec2: 1
44ad07: 1
44bfa4: 1
44c012: 1
44c1c7: 1
44c302: 1
44c402: 1
44c27d: 1
44c501: 1
44c546: 1
44c582: 1
44a65f: 1
44a081: 1
44a103: 1
44a145: 1
44c443: 1
44a206: 1
44a1a6: 1
44a612: 1
44a619: 1
44c342: 1
561715: 1
44a784: 1
44a7c2: 1
44a7ae: 1
44a807: 1
44a7d1: 1
44bf8c: 1
44af61: 1
44acfd: 1
44907c: 1
448ec0: 1
448f03: 1
448eec: 1
448f41: 1
448f87: 1
448f51: 1
448fec: 1
44a740: 1
449080: 1
448dea: 1
4490c7: 1
449071: 1
4490b0: 1
449140: 1
449170: 1
449159: 1
449280: 1
449251: 1
4492a7: 1
456e06: 1
456b46: 1
456b86: 1
456bc6: 1
456c06: 1
456c86: 1
456d06: 1
448f68: 1
456d46: 1
560ea8: 1
44931d: 1
456e47: 1
448c50: 1
448d01: 1
448ce6: 1
448d44: 1
448d39: 1
448db7: 1
448e41: 1
561e84: 1
560fc2: 1
560fbe: 1
561002: 1
561080: 1
561128: 1
561043: 1
56103f: 1
56124f: 1
561480: 1
560f02: 1
449f84: 1
561e06: 1
562f41: 1
5612f0: 1
561904: 1
5618f8: 1
5616a8: 1
561850: 1
449541: 1
449ec7: 1
449403: 1
4493a9: 1
449348: 1
449436: 1
449442: 1
449456: 1
560d81: 1
449506: 1
44c641: 1
44a0eb: 1
44a6c0: 1
4494b8: 1
449498: 1
44a042: 1
562f09: 1
562ee0: 1
56150c: 1
454957: 1
44f150: 1
44f100: 1
44f580: 1
44efa9: 1
452183: 1
44f35e: 1
44ef80: 1
451646: 1
4022ee: 1
4491c0: 1
45604c: 1
44eec3: 1
44ee43: 1
44cd07: 1
456680: 1
561300: 1
44cd42: 1
448c9f: 1
452feb: 1
44e2a9: 1
452bb4: 1
44f4f5: 1
430ac0: 1
44a223: 1
450b1d: 1
4492f2: 1
44ea6d: 1
44f352: 1
44ca3b: 1
44eac1: 1
44e7fc: 1
44f5c3: 1
44b65d: 1
44f684: 1
44f640: 1
44be68: 1
4526c4: 1
560ec0: 1
401e81: 1
44fe8f: 1
44f601: 1
4022cb: 1
44c9b1: 1
455041: 1
44f8c6: 1
44f4bd: 1
42fa60: 1
44f055: 1
449747: 1
448f22: 1
450beb: 1
44c004: 1
44f481: 1
44cd80: 1
430bc2: 1
44c601: 1
44e133: 1
44f887: 1
44d709: 1
44d780: 1
44dfcf: 1
44f380: 1
450610: 1
44c485: 1
44c100: 1
55fa04: 1
44e3fe: 1
44f3d2: 1
44d4c3: 1
44eb83: 1
44e406: 1
44eded: 1
454000: 1
44e885: 1
451d02: 1
4528a2: 1
45183c: 1
44ef69: 1
450591: 1
44e742: 1
44e2b9: 1
44cab4: 1
454b02: 1
44f285: 1
4022c3: 1
44e783: 1
452f85: 1
44e390: 1
44db41: 1
449fc6: 1
44f741: 1
45102e: 1
44e34d: 1
401d82: 1
402301: 1
45173b: 1
44ea80: 1
4561dd: 1
44e9c1: 1
44e980: 1
44ee74: 1
44e7c0: 1
55fec9: 1
450bc1: 1
44f3c6: 1
4578d0: 1
44f2ad: 1
44e703: 1
44e681: 1
452e83: 1
450f00: 1
454c00: 1
4568e1: 1
44e647: 1
42fb30: 1
44dfd7: 1
44cca0: 1
44e506: 1
44e241: 1
450b47: 1
454a42: 1
45216f: 1
453f83: 1
450b06: 1
44d943: 1
44f51b: 1
449a43: 1
45353f: 1
55f9e0: 1
454c42: 1
44a636: 1
453537: 1
453547: 1
449ffb: 1
4531c8: 1
4531f5: 1
449d9d: 1
456d86: 1
4531e5: 1
453054: 1
4549c5: 1
454ac9: 1
45315f: 1
44e147: 1
453045: 1
453f86: 1
44a7a6: 1
453fc0: 1
449799: 1
454a83: 1
454a7b: 1
453f48: 1
453f40: 1
453780: 1
454a88: 1
453580: 1
44bf38: 1
4536d5: 1
453680: 1
454012: 1
452684: 1
453602: 1
4535c1: 1
454041: 1
450f41: 1
55fefd: 1
44c043: 1
452c47: 1
44f4c0: 1
44f802: 1
454dc4: 1
454b80: 1
454072: 1
450dd0: 1
4535b2: 1
45406a: 1
456c46: 1
55fb03: 1
454980: 1
44f654: 1
454969: 1
454081: 1
451502: 2
44acec: 2
455cb3: 2
4525ce: 2
450e80: 2
44ca84: 2
42fa03: 2
448fc1: 2
44c9c6: 2
4531c0: 2
4560c0: 2
55fa1d: 2
4568c4: 2
4492c7: 2
44e3c1: 2
455d45: 2
455fc4: 2
44bd78: 2
451000: 2
455cc3: 2
44a0c0: 2
449246: 2
449106: 2
454948: 2
448d83: 2
450040: 2
456ac6: 2
455f84: 2
55faf5: 2
563540: 2
44c285: 2
450ac6: 2
44f041: 2
44cac4: 2
450b84: 2
452f7f: 2
402286: 2
457940: 2
44f985: 2
44af80: 2
44f785: 2
44fb84: 2
44fe84: 2
452e5a: 3
453185: 3
450fc1: 3
44eba6: 4
450fb1: 4
450f8e: 4
44f77a: 6
450309: 6
44f79d: 7
450f86: 7
452f6b: 7
450dfd: 7
450df5: 7
44ebf7: 7
44ec07: 7
450e03: 7
45503a: 8
44f7a8: 8
455032: 8
44e031: 12
45265a: 12
44f252: 14
563559: 20
451680: 24
451623: 27
451635: 38
44d3c5: 52
452668: 53
44ef25: 53
452f70: 58
45030e: 59
44ebab: 61
44fb7e: 64
4550e2: 64
44fb9f: 64
452ff0: 64
44f156: 64
4513d2: 64
44fbdb: 64
44f67f: 65
44ebce: 65
44e5d0: 65
4525de: 65
4550fa: 65
4550b6: 65
44e50e: 65
44fbd5: 65
42fb3a: 65
452fff: 65
44f15d: 65
430bf0: 65
430b70: 65
45267e: 65
4509d6: 65
451dd3: 65
4550ca: 65
451e0c: 65
450715: 65
451dff: 65
44f671: 65
44fe60: 65
450e92: 65
44fe6a: 65
45033f: 65
44c3eb: 65
452ab1: 65
42fbda: 65
449f02: 66
44e500: 66
44d4bd: 67
44ef1f: 70
44f649: 86
44e01e: 89
451daf: 98
44e7a3: 102
44c3d8: 104
401eda: 127
40213a: 127
44f613: 183
44d4db: 190
451611: 215
44d4fd: 224
40239a: 241
44e024: 361
44f626: 366
44e2c1: 432
44d4a7: 445
451d84: 451
44d3dc: 460
402130: 506
401ed0: 507
44d968: 511
44d31b: 512
452fd8: 521
452f58: 529
44fbbf: 530
4502f6: 532
44ebb9: 547
44d40d: 567
44d428: 608
44e2a3: 747
44e2ce: 752
44d402: 869
44c3e6: 880
44d422: 942
402390: 969
450ea7: 1010
44c3f9: 1113
452630: 1145
44e2d4: 1183
44e037: 1199
44d4d5: 1230
452a87: 1279
44e29c: 1281
4525c8: 1305
451d6e: 1309
44d4f7: 1331
452aa5: 1365
44e2c7: 1397
44e296: 1409
4550f4: 1471
455113: 1524
450e88: 1536
4550dc: 1560
44e045: 1606
454caa: 1634
452f79: 1640
454ce5: 1674
452a80: 1685
453019: 1702
44f639: 1723
452aab: 1728
452ac7: 1736
452ff9: 1740
454cc4: 1747
450345: 1796
452a8e: 1818
450eae: 1837
44f66c: 1875
44f679: 1888
44c457: 1892
45031d: 1894
44c41f: 1903
44c406: 1909
44ebf0: 1918
44c49b: 1956
44c4fc: 1961
44ec01: 1962
44c412: 1964
450355: 1993
44e290: 2042
44d321: 2062
44d96d: 2107
44c473: 2214
452f5d: 2219
452fdd: 2376
44ebc7: 2386
44d3cc: 2419
4525c3: 2468
451da2: 2469
4502fb: 2473
451d91: 2489
454c8f: 2495
45262a: 2510
455101: 2511
44c950: 2522
451dc6: 2548
45264c: 2575
452688: 2575
450ec0: 2575
449ccc: 2612
4525f8: 2615
450e9e: 2677
44c435: 2732
452a9f: 2737
451168: 2746
451162: 2776
44d4ad: 2810
451de0: 2815
451df1: 2816
449efe: 2871
44f62b: 2872
450e98: 2893
450eb4: 2912
44ebbe: 2923
451136: 2950
44fbe9: 2957
4513f6: 2968
451e24: 2986
451130: 2994
4513f0: 3043
44a730: 3086
454c70: 3118
451d60: 3177
4550bc: 3196
44fbc5: 3203
454cd0: 3306
4525eb: 3344
44e010: 3364
4513c6: 3399
44a830: 3415
4550a8: 3422
451e3f: 3546
4513c0: 3598
45263e: 3693
451e16: 3759
449f0a: 3772
452694: 3792
4509c0: 3802
4509e4: 3834
4509d0: 3851
450722: 3870
450710: 3905
449ef0: 3923
44f182: 3938
450700: 3967
44f187: 3971
453750: 4069
449cdc: 4093
453610: 4104
449aa0: 4130
449cc0: 4230
44e790: 4268
44c4c3: 4288
4540a0: 4372
4526b0: 4598
44a838: 4707
44a738: 4863
4540a4: 4907
449aa4: 5149
4515fb: 5176
453754: 5445
453614: 5485
44ef10: 5862
455f30: 5943
44e514: 6029
455e00: 6678
PSCL5 TOTAL     ACCESS:     115319  HIT:     115319  MISS:          0  HIT %:        100  MISS %:          0   MPKI: 0
PSCL5 Test counter:          0
PSCL5 LOAD TRANSLATION ACCESS:     115319  HIT:     115319  MISS:          0  HIT %:        100  MISS %:          0   MPKI: 0
PSCL5 PREFETCH  REQUESTED:          0  ISSUED:          0  USEFUL:          0  USELESS:          0
PSCL5 USEFUL LOAD PREFETCHES:          0 PREFETCH ISSUED TO LOWER LEVEL:          0  ACCURACY: -nan
PSCL5 TIMELY PREFETCHES:          0 LATE PREFETCHES: 0 DROPPED PREFETCHES: 0
PSCL5 COMMIT LATE PREFETCHES: 0 MISSED OPPORTUNITY: 0 LATE IN PQ: 0 UNCOVERED: 0
PSCL5 COMMIT LATE MSHR PREFETCHES: 0
PSCL5 MPKI TOTAL: 0 MSHR LATE: 0 PQ LATE: 0 COMMIT LATE: 0 MISSED OPPORTUNITY: 0 UNCOVERED: 0
PSCL5 PREFETCHES SAME FILL-ORIGIN LEVEL: 0 DIFFERENT FILL-ORIGIN LEVEL: 0

PSCL4 TOTAL     ACCESS:     115319  HIT:     115319  MISS:          0  HIT %:        100  MISS %:          0   MPKI: 0
PSCL4 Test counter:          0
PSCL4 LOAD TRANSLATION ACCESS:     115319  HIT:     115319  MISS:          0  HIT %:        100  MISS %:          0   MPKI: 0
PSCL4 PREFETCH  REQUESTED:          0  ISSUED:          0  USEFUL:          0  USELESS:          0
PSCL4 USEFUL LOAD PREFETCHES:          0 PREFETCH ISSUED TO LOWER LEVEL:          0  ACCURACY: -nan
PSCL4 TIMELY PREFETCHES:          0 LATE PREFETCHES: 0 DROPPED PREFETCHES: 0
PSCL4 COMMIT LATE PREFETCHES: 0 MISSED OPPORTUNITY: 0 LATE IN PQ: 0 UNCOVERED: 0
PSCL4 COMMIT LATE MSHR PREFETCHES: 0
PSCL4 MPKI TOTAL: 0 MSHR LATE: 0 PQ LATE: 0 COMMIT LATE: 0 MISSED OPPORTUNITY: 0 UNCOVERED: 0
PSCL4 PREFETCHES SAME FILL-ORIGIN LEVEL: 0 DIFFERENT FILL-ORIGIN LEVEL: 0

PSCL3 TOTAL     ACCESS:     114197  HIT:     114187  MISS:         10  HIT %:    99.9912  MISS %:  0.0087568   MPKI: 5e-05
PSCL3 Test counter:          0
PSCL3 LOAD TRANSLATION ACCESS:     114197  HIT:     114187  MISS:         10  HIT %:    99.9912  MISS %:  0.0087568   MPKI: 5e-05
PSCL3 PREFETCH  REQUESTED:          0  ISSUED:          0  USEFUL:          0  USELESS:          0
PSCL3 USEFUL LOAD PREFETCHES:          0 PREFETCH ISSUED TO LOWER LEVEL:          0  ACCURACY: -nan
PSCL3 TIMELY PREFETCHES:          0 LATE PREFETCHES: 0 DROPPED PREFETCHES: 0
PSCL3 COMMIT LATE PREFETCHES: 0 MISSED OPPORTUNITY: 0 LATE IN PQ: 0 UNCOVERED: 0
PSCL3 COMMIT LATE MSHR PREFETCHES: 0
PSCL3 MPKI TOTAL: 0 MSHR LATE: 0 PQ LATE: 0 COMMIT LATE: 0 MISSED OPPORTUNITY: 0 UNCOVERED: 0
PSCL3 PREFETCHES SAME FILL-ORIGIN LEVEL: 0 DIFFERENT FILL-ORIGIN LEVEL: 0

PSCL2 TOTAL     ACCESS:     115319  HIT:     114585  MISS:        734  HIT %:    99.3635  MISS %:   0.636495   MPKI: 0.00367
PSCL2 Test counter:          0
PSCL2 LOAD TRANSLATION ACCESS:     115319  HIT:     114585  MISS:        734  HIT %:    99.3635  MISS %:   0.636495   MPKI: 0.00367
PSCL2 PREFETCH  REQUESTED:          0  ISSUED:          0  USEFUL:          0  USELESS:          0
PSCL2 USEFUL LOAD PREFETCHES:          0 PREFETCH ISSUED TO LOWER LEVEL:          0  ACCURACY: -nan
PSCL2 TIMELY PREFETCHES:          0 LATE PREFETCHES: 0 DROPPED PREFETCHES: 0
PSCL2 COMMIT LATE PREFETCHES: 0 MISSED OPPORTUNITY: 0 LATE IN PQ: 0 UNCOVERED: 0
PSCL2 COMMIT LATE MSHR PREFETCHES: 0
PSCL2 MPKI TOTAL: 0 MSHR LATE: 0 PQ LATE: 0 COMMIT LATE: 0 MISSED OPPORTUNITY: 0 UNCOVERED: 0
PSCL2 PREFETCHES SAME FILL-ORIGIN LEVEL: 0 DIFFERENT FILL-ORIGIN LEVEL: 0

LLC TOTAL     ACCESS:    7070419  HIT:    1466542  MISS:    5603877  HIT %:    20.7419  MISS %:    79.2581   MPKI: 28.0194
LLC Test counter:          0
LLC LOAD      ACCESS:     334185  HIT:        231  MISS:     333954  HIT %:  0.0691234  MISS %:    99.9309   MPKI: 1.66977
LLC RFO       ACCESS:    1132459  HIT:          0  MISS:    1132459  HIT %:          0  MISS %:        100   MPKI: 5.66229
LLC PREFETCH  ACCESS:    4113058  HIT:          2  MISS:    4113056  HIT %: 4.86256e-05  MISS %:        100   MPKI: 20.5653
LLC WRITEBACK ACCESS:    1466310  HIT:    1466240  MISS:         70  HIT %:    99.9952  MISS %: 0.00477389   MPKI: 0.00035
LLC LOAD TRANSLATION ACCESS:      24407  HIT:         69  MISS:      24338  HIT %:   0.282706  MISS %:    99.7173   MPKI: 0.12169
LLC PREFETCH  REQUESTED:          0  ISSUED:          0  USEFUL:          0  USELESS:    4105821
LLC USEFUL LOAD PREFETCHES:          0 PREFETCH ISSUED TO LOWER LEVEL:    4113058  ACCURACY: 0
LLC TIMELY PREFETCHES:          0 LATE PREFETCHES: 0 DROPPED PREFETCHES: 0
LLC COMMIT LATE PREFETCHES: 0 MISSED OPPORTUNITY: 0 LATE IN PQ: 0 UNCOVERED: 0
LLC COMMIT LATE MSHR PREFETCHES: 0
LLC MPKI TOTAL: 1.66977 MSHR LATE: 0 PQ LATE: 0 COMMIT LATE: 0 MISSED OPPORTUNITY: 0 UNCOVERED: 0
LLC PREFETCHES SAME FILL-ORIGIN LEVEL: 0 DIFFERENT FILL-ORIGIN LEVEL: 0
LLC AVERAGE MISS LATENCY: 238.942 cycles
LLC AVERAGE MISS LATENCY LOAD: 230.787 cycles
LLC AVERAGE MISS LATENCY PREFETCH: 244.447 cycles
LLC AVERAGE MSHR OCCUPANCY: 4.24737
LLC MSHR FULL: 0
LLC RQ	ACCESS:    1491055	FORWARD:          0	MERGED:          0	TO_CACHE:    1491055
LLC WQ	ACCESS:    1466310	FORWARD:          0	MERGED:          0	TO_CACHE:    1466310
LLC PQ	ACCESS:    4113060	FORWARD:          0	MERGED:          0	TO_CACHE:    4113060

LLC Dense regions hint to LLC: 0
44def2: 1
448e80: 1
44f4b5: 1
456959: 1
44da05: 1
44d4cd: 1
402341: 1
451902: 1
44c187: 1
449941: 1
456074: 1
44d482: 1
44e601: 1
44d441: 1
44f16a: 1
450d80: 1
44ec44: 1
45120f: 1
44dd70: 1
44ea0d: 1
455edf: 1
451a80: 1
450901: 1
44ebd8: 1
456651: 1
448e88: 1
44c202: 1
44d543: 1
430ae0: 1
454f00: 1
451300: 1
449887: 1
44cdc3: 1
44df42: 1
44f541: 1
42fb67: 1
456599: 1
451f07: 1
44e082: 1
44cf03: 1
44f201: 1
44d181: 1
402242: 1
4536cd: 1
454e21: 1
561281: 1
44d142: 1
44d1c0: 1
450ba4: 1
4568f4: 1
449bd2: 1
44a77c: 1
44d043: 1
44d341: 1
44e6a4: 1
560e29: 1
44cc01: 1
44e345: 1
44ff02: 1
44db01: 1
44dec5: 1
453640: 1
55faa0: 1
561a01: 1
44dd80: 1
430c01: 1
4514c2: 1
4531dd: 1
44e5c1: 1
451c87: 1
4cf894: 1
44a20e: 1
44ce87: 1
451483: 1
452b87: 1
4513cc: 1
44f81a: 1
452741: 1
44f2c4: 1
44f82c: 1
44fe01: 1
44f840: 1
44e6c1: 1
452f01: 1
44f884: 1
454e85: 1
44e0c0: 1
4494ef: 1
451782: 1
44e804: 1
44cdc9: 1
430a42: 1
44e016: 1
44f825: 1
456381: 1
44fa43: 1
44e8c4: 1
44d745: 1
44c5c6: 1
44fa00: 1
44f9c0: 1
44e841: 1
560d70: 1
561400: 1
44f941: 1
44a1c6: 1
44f822: 1
44e0ce: 1
4549c8: 1
456cc6: 1
44f86c: 1
42fa0a: 1
449e42: 1
44da44: 1
44ebc3: 1
4520c4: 1
4566c0: 1
44d8c2: 1
44d882: 1
44d844: 1
448cc3: 1
44d300: 1
449e83: 1
452a07: 1
450606: 1
455d81: 1
450ca2: 1
44de03: 1
449807: 1
450c5c: 1
449fef: 1
4506c7: 1
4529c5: 1
44e001: 1
44cee4: 1
561203: 1
44fb78: 1
44dfc6: 1
44f402: 1
44da82: 1
44df06: 1
451084: 1
42fa44: 1
451182: 1
44f459: 1
44ed81: 1
44de69: 1
430ab8: 1
44e869: 1
453fe4: 1
430a82: 1
454db4: 1
449ebe: 1
44e206: 1
44f081: 1
450001: 1
449707: 1
451a43: 1
456940: 1
430b40: 1
452f40: 1
44e944: 1
44a681: 1
44cc90: 1
40226f: 1
449f58: 1
4568fe: 1
44cf42: 1
44f240: 1
44e301: 1
44eb40: 1
44e581: 1
44f700: 1
448e06: 1
44cb87: 1
40224f: 1
430b80: 1
430b00: 1
44e365: 1
44cb25: 1
44f001: 1
44d3c0: 1
44d0fb: 1
450327: 1
4499c3: 1
44d085: 1
451287: 1
402256: 1
4511e5: 1
44cca8: 1
448c81: 1
44e547: 1
4022af: 1
44ea75: 1
449f98: 1
44e282: 1
449c86: 1
452644: 1
44e107: 1
454a01: 1
451dbc: 1
44d7c0: 1
44e368: 1
452daf: 1
456801: 1
44e481: 1
44cf85: 1
44ccc0: 1
44e13f: 1
44e902: 1
456640: 1
453700: 1
402083: 1
44ef41: 1
4508c1: 1
45603c: 1
430a30: 1
4490ef: 1
44ce43: 1
456010: 1
4022da: 1
448d50: 1
561dcf: 1
402480: 1
455e90: 1
449271: 1
450c3e: 1
450242: 1
449373: 1
44de41: 1
44d382: 1
44ca33: 1
44e187: 1
44f306: 1
44de80: 1
44bdac: 1
450381: 1
402272: 1
45176d: 1
44cb73: 1
44d001: 1
42f9e0: 1
44cb00: 1
452586: 1
44d286: 1
44af88: 1
44cfc1: 1
4505c5: 1
4cf92d: 1
44f446: 1
450300: 1
4022f2: 1
44e489: 1
454d83: 1
44cc83: 1
42fac3: 1
449301: 1
4536be: 1
44ef17: 1
44fe42: 1
449b1d: 1
451152: 1
55f8b0: 1
44cd56: 1
44d900: 1
44d246: 1
44ca43: 1
449f90: 1
451802: 1
4494cf: 1
44caf0: 1
44fb00: 1
44d9c4: 1
44ce06: 1
450283: 1
449f60: 1
44ca74: 1
44f347: 1
456dc0: 1
44f1c5: 1
44ef00: 1
430af1: 1
455e80: 1
44df87: 1
44fa87: 1
455f00: 1
44ca2b: 1
44be81: 1
44d0c0: 1
450182: 1
4022eb: 1
451245: 1
4569c0: 1
44e4c4: 1
451a66: 1
451ac3: 1
454f40: 1
451a06: 1
4519c1: 1
44f6c3: 1
44939e: 1
451975: 1
451941: 1
451b45: 1
451885: 1
451844: 1
45285f: 1
4516e0: 1
4517c1: 1
452940: 1
451746: 1
44d14a: 1
451e04: 1
456980: 1
451fc5: 1
451f80: 1
44d984: 1
44eb03: 1
451ec7: 1
40206b: 1
451e43: 1
451743: 1
451dc2: 1
44fac4: 1
4540c0: 1
40208b: 1
451cc3: 1
451c01: 1
44f903: 1
451bc5: 1
4514ba: 1
4515c1: 1
452080: 1
45156c: 1
452cc0: 1
4022d2: 1
451540: 1
4503c1: 1
4549bd: 1
451600: 1
451c50: 1
44bf00: 1
451401: 1
451385: 1
451341: 1
45128a: 1
456a05: 1
4512c0: 1
44d105: 1
4528c2: 1
454bc0: 1
4516d9: 1
452283: 1
4516f0: 1
44e848: 1
4562c1: 1
451701: 1
450086: 1
44bf86: 1
4516c3: 1
454b40: 1
45163e: 1
44e1c1: 1
4518c0: 1
452986: 1
44ed50: 1
402315: 1
55fa3a: 1
452d40: 1
457911: 1
452d00: 1
451b81: 1
450a02: 1
452c80: 1
451b01: 1
452bf6: 1
456482: 1
4531cb: 1
452c01: 1
452bc7: 1
456044: 1
452b46: 1
452b00: 1
451981: 1
4498c1: 1
451d45: 1
455ea7: 1
449288: 1
4523c1: 1
44f506: 1
454c81: 1
452fc0: 1
450cc2: 1
452ec4: 1
42faa0: 1
456341: 1
452dc4: 1
4550c2: 1
452d84: 1
450a86: 1
44f332: 1
453005: 1
451e86: 1
4522fd: 1
44f143: 1
452500: 1
450202: 1
44eaae: 1
452485: 1
452400: 1
452383: 1
452342: 1
4525c0: 1
44ee80: 1
452305: 1
452197: 1
452242: 1
452142: 1
452041: 1
4517da: 1
44e35d: 1
452e47: 1
452867: 1
55fe46: 1
4527c7: 1
454ac5: 1
452903: 1
44cec3: 1
44f7c0: 1
44bd8e: 1
44efc2: 1
455145: 1
448e49: 1
5613c7: 1
44a646: 1
454f2d: 1
453742: 1
452707: 1
452606: 1
450146: 1
44fb99: 1
44c147: 1
4501c5: 1
4514c9: 1
450166: 1
562ec0: 1
4500ec: 1
452547: 1
4536c6: 1
45016e: 1
450104: 1
452787: 1
40247b: 1
4500c1: 1
430b33: 1
44cc44: 1
44ddc3: 1
4497c7: 1
44f795: 1
454d40: 1
562ec9: 1
450641: 1
453f53: 1
453011: 1
44e440: 1
449a01: 1
44e041: 1
44cbc3: 1
561945: 1
452445: 1
456a41: 1
450880: 1
44ce2e: 1
4502c1: 1
4514d1: 1
452c25: 1
44fc00: 1
44dac2: 1
44fda7: 1
44a62c: 1
44bd80: 1
44987a: 1
44ca07: 1
44ea40: 1
456a8e: 1
402387: 1
453652: 1
5617db: 1
44ea05: 1
451f45: 1
456541: 1
448d78: 1
44fb44: 1
44c6c7: 1
44fec7: 1
452103: 1
44ffc7: 1
44ff81: 1
44ee02: 1
4512d7: 1
450d02: 1
44ff74: 1
452847: 1
452a42: 1
4521c5: 1
4561ec: 1
452807: 1
453f5b: 1
44fe7c: 1
44a701: 1
44fde1: 1
44fdc0: 1
448e32: 1
44edc3: 1
452e05: 1
456701: 1
452201: 1
44941f: 1
44c2c7: 1
451c61: 1
452007: 1
451c59: 1
44ff42: 1
451693: 1
4cf875: 1
450e44: 1
450e00: 1
450d41: 1
450c8e: 1
450c80: 1
44d803: 1
452884: 1
44911a: 1
449cc4: 1
44bfc2: 1
451201: 1
4524c5: 1
44cd4a: 1
5611f8: 1
4522af: 1
450c46: 1
453fd8: 1
455d01: 1
451143: 1
44cb47: 1
449202: 1
451102: 1
455cd3: 1
4510c1: 1
450814: 1
44c250: 1
4508e2: 1
4508d2: 1
449fd8: 1
4508b9: 1
450844: 1
4536ec: 1
454e40: 1
450941: 1
44f0c0: 1
450740: 1
44d2c3: 1
44929c: 1
42fa1e: 1
450680: 1
44e382: 1
44c084: 1
44d202: 1
450c02: 1
451949: 1
450b70: 1
456e95: 1
450ace: 1
450abf: 1
449046: 1
449bf0: 1
44c48b: 1
450a70: 1
451045: 1
4567c0: 1
4522c3: 1
453fec: 1
451580: 1
450980: 1
44d503: 1
55f8c1: 1
401dc6: 1
44c382: 1
401e03: 1
401e41: 1
401ec7: 1
58c509: 1
44a763: 1
449bc3: 1
401fbb: 1
401d70: 1
55f902: 1
449d00: 1
55fd40: 1
55fd60: 1
55f9ff: 1
560400: 1
5603f5: 1
55fa42: 1
55f8fb: 1
402043: 1
44ad05: 1
4302ea: 1
430382: 1
4303c3: 1
430403: 1
55fe18: 1
456507: 1
401fd0: 1
402005: 1
55fd49: 1
449182: 1
40204f: 1
40207a: 1
402072: 1
4020c2: 1
561744: 1
456591: 1
449f47: 1
4578fb: 1
4567cc: 1
449003: 1
4cf840: 1
4cf849: 1
560f44: 1
4cf858: 1
45788b: 1
44c3c0: 1
457902: 1
44991e: 1
456842: 1
456882: 1
456906: 1
45692c: 1
45691a: 1
4568d7: 1
4cf7c6: 1
4cf825: 1
456a86: 1
58c540: 1
44be70: 1
55fb42: 1
55ff04: 1
561658: 1
55e950: 1
55e990: 1
55e967: 1
44c1e2: 1
5656d0: 1
430348: 1
55e9c4: 1
448dc2: 1
55ea03: 1
456744: 1
4cf780: 1
456780: 1
456775: 1
4578f4: 1
455ccb: 1
456140: 1
454f56: 1
455000: 1
455085: 1
456204: 1
4cf884: 1
455185: 1
4551c5: 1
455cf7: 1
454fc1: 1
449681: 1
455d3d: 1
455cbb: 1
455e41: 1
455ec3: 1
455e6f: 1
455f41: 1
455f74: 1
456000: 1
454e02: 1
455dc1: 1
5bab50: 1
454cc0: 1
454d07: 1
44c687: 1
5616c4: 1
454cb8: 1
44c0c0: 1
4569ed: 1
455f94: 1
454e16: 1
454ec2: 1
449fcc: 1
454f82: 1
454f0d: 1
454f21: 1
4560a0: 1
449481: 1
449051: 1
4cbb60: 1
449382: 1
42fa8b: 1
42fa68: 1
42fa9c: 1
42fa3d: 1
42fb80: 1
42fbc1: 1
456245: 1
42fb44: 1
456285: 1
456305: 1
4563c5: 1
456401: 1
430290: 1
4302c2: 1
449b00: 1
430301: 1
4561c3: 1
455fe0: 1
4493c1: 1
561e6b: 1
456084: 1
4560b0: 1
4560ec: 1
456104: 1
44bdb8: 1
456180: 1
456b06: 1
402102: 1
42fa41: 1
402140: 1
42fa83: 1
449e6b: 1
42fa26: 1
42fb02: 1
449340: 1
449d40: 1
449b80: 1
449af2: 1
449bae: 1
44a183: 1
449ba6: 1
449c00: 1
449be4: 1
449c42: 1
44bf40: 1
449b40: 1
449d39: 1
449d80: 1
449d50: 1
449dc1: 1
449e01: 1
449dd7: 1
449e3a: 1
449e57: 1
44a003: 1
449848: 1
561980: 1
5619c2: 1
44bdc0: 1
561801: 1
449641: 1
4496c1: 1
44a840: 1
449787: 1
449723: 1
449fb6: 1
4497ff: 1
449902: 1
449987: 1
449a81: 1
449ac0: 1
449ad6: 1
449af9: 1
449ade: 1
44bf7f: 1
44acf4: 1
44af6c: 1
44af93: 1
44bd86: 1
44be01: 1
44be0e: 1
44be40: 1
44bdc4: 1
44bec2: 1
44ad07: 1
44bfa4: 1
44c012: 1
44c1c7: 1
44c302: 1
44c402: 1
44c27d: 1
44c501: 1
44c546: 1
44c582: 1
44a65f: 1
44a081: 1
44a103: 1
44a145: 1
44c443: 1
44a206: 1
44a1a6: 1
44a612: 1
44a619: 1
44c342: 1
561715: 1
44a784: 1
44a7c2: 1
44a7ae: 1
44a807: 1
44a7d1: 1
44bf8c: 1
44af61: 1
44acfd: 1
44907c: 1
448ec0: 1
448f03: 1
448eec: 1
448f41: 1
448f87: 1
448f51: 1
448fec: 1
44a740: 1
449080: 1
448dea: 1
4490c7: 1
449071: 1
4490b0: 1
449140: 1
449170: 1
449159: 1
449280: 1
449251: 1
4492a7: 1
456e06: 1
456b46: 1
456b86: 1
456bc6: 1
456c06: 1
456c86: 1
456d06: 1
448f68: 1
456d46: 1
560ea8: 1
44931d: 1
456e47: 1
448c50: 1
448d01: 1
448ce6: 1
448d44: 1
448d39: 1
448db7: 1
448e41: 1
561e84: 1
560fc2: 1
560fbe: 1
561002: 1
561080: 1
561128: 1
561043: 1
56103f: 1
56124f: 1
561480: 1
560f02: 1
449f84: 1
561e06: 1
562f41: 1
5612f0: 1
561904: 1
5618f8: 1
5616a8: 1
561850: 1
449541: 1
449ec7: 1
449403: 1
4493a9: 1
449348: 1
449436: 1
449442: 1
449456: 1
560d81: 1
449506: 1
44c641: 1
44a0eb: 1
44a6c0: 1
4494b8: 1
449498: 1
44a042: 1
562f09: 1
562ee0: 1
56150c: 1
45604c: 1
44f150: 1
44f100: 1
44efa9: 1
452183: 1
44ef80: 1
451646: 1
44f580: 1
4491c0: 1
44f35e: 1
4022ee: 1
44eec3: 1
44ee43: 1
44cd07: 1
456680: 1
454957: 1
561300: 1
44cd42: 1
448c9f: 1
452feb: 1
452bb4: 1
44f4f5: 1
44e2a9: 1
430ac0: 1
44a223: 1
450b1d: 1
4492f2: 1
44ea6d: 1
44f352: 1
44eac1: 1
44e7fc: 1
44f055: 1
449747: 1
44f684: 1
44f640: 1
44be68: 1
55fb03: 1
560ec0: 1
401e81: 1
44fe8f: 1
44f601: 1
4022cb: 1
44c9b1: 1
455041: 1
44f8c6: 1
44f4bd: 1
42fa60: 1
44f5c3: 1
44ea80: 1
4526c4: 1
450beb: 1
44c004: 1
44f481: 1
44cd80: 1
430bc2: 1
44c601: 1
448f22: 1
44e133: 1
44f887: 1
44d780: 1
44dfcf: 1
44f380: 1
450610: 1
44d709: 1
44e783: 1
44eb83: 1
44e406: 1
44eded: 1
454000: 1
44e885: 1
451d02: 1
4528a2: 1
45183c: 1
44ef69: 1
450591: 1
44c485: 1
44f3c6: 1
45173b: 1
4568e1: 1
44dfd7: 1
44f3d2: 1
452f85: 1
44e390: 1
44db41: 1
449fc6: 1
44f741: 1
45102e: 1
44e34d: 1
402301: 1
401d82: 1
4022c3: 1
44f285: 1
44d4c3: 1
454b02: 1
44cab4: 1
44e2b9: 1
44cca0: 1
44e9c1: 1
44e980: 1
44ee74: 1
44e7c0: 1
55fec9: 1
450bc1: 1
4578d0: 1
44f2ad: 1
44e703: 1
44e681: 1
452e83: 1
450f00: 1
44ca3b: 1
44e647: 1
42fb30: 1
454c00: 1
44e506: 1
4561dd: 1
44e241: 1
450b47: 1
454a42: 1
45216f: 1
453f83: 1
450b06: 1
44d943: 1
44f51b: 1
44e742: 1
44c100: 1
55fa04: 1
44e3fe: 1
453580: 1
4536d5: 1
453680: 1
452684: 1
453602: 1
4535c1: 1
454c42: 1
449d9d: 1
45353f: 1
55f9e0: 1
44a636: 1
453780: 1
453537: 1
453547: 1
449ffb: 1
4531c8: 1
456d86: 1
4531f5: 1
449a43: 1
4531e5: 1
453054: 1
45315f: 1
454041: 1
454980: 1
4549c5: 1
454969: 1
454a83: 1
456c46: 1
55fefd: 1
454072: 1
45406a: 1
454081: 1
454a7b: 1
44b65d: 1
454012: 1
44bf38: 1
453f86: 1
453fc0: 1
454a88: 1
44a7a6: 1
449799: 1
453f48: 1
453f40: 1
44e147: 1
44f802: 1
450dd0: 1
452c47: 1
4535b2: 1
454b80: 1
44c043: 1
454dc4: 1
44f654: 1
453045: 1
454ac9: 1
44f4c0: 1
450f41: 1
450e80: 2
44fb84: 2
55fa1d: 2
449246: 2
44f985: 2
4568c4: 2
456ac6: 2
563540: 2
44a0c0: 2
44c9c6: 2
448fc1: 2
455f84: 2
42fa03: 2
455cb3: 2
4560c0: 2
449106: 2
455d45: 2
44ca84: 2
44acec: 2
4492c7: 2
44af80: 2
44bd78: 2
451502: 2
448d83: 2
451000: 2
455cc3: 2
455fc4: 2
44cac4: 2
457940: 2
55faf5: 2
450040: 2
402286: 2
4525ce: 2
44fe84: 2
450ac6: 2
454948: 2
44f041: 2
452f7f: 2
450b84: 2
44f785: 2
44e3c1: 2
4531c0: 2
44c285: 2
452e5a: 3
453185: 3
450fc1: 3
450fb1: 4
44eba6: 4
450f8e: 4
45503a: 5
455032: 5
450309: 6
44f77a: 6
450df5: 6
450dfd: 6
452f6b: 7
450e03: 7
44f79d: 7
44ebf7: 7
450f86: 7
44f252: 7
44ec07: 7
44f7a8: 8
44e031: 11
45265a: 12
451680: 18
563559: 20
451623: 27
451635: 38
44ef25: 51
44d3c5: 52
452668: 53
452f70: 58
45030e: 59
44ebab: 61
4513d2: 64
44fbdb: 64
44f156: 64
4550e2: 64
44fb9f: 64
44fb7e: 64
452ff0: 64
430bf0: 65
450715: 65
4525de: 65
452ab1: 65
44f15d: 65
450e92: 65
44fe60: 65
45267e: 65
45033f: 65
451dff: 65
4550ca: 65
44e50e: 65
44f671: 65
4550fa: 65
44fe6a: 65
4550b6: 65
451dd3: 65
4509d6: 65
44ebce: 65
44f67f: 65
451e0c: 65
44fbd5: 65
42fbda: 65
452fff: 65
44c3eb: 65
44e5d0: 65
430b70: 65
42fb3a: 65
449f02: 66
44e500: 66
44d4bd: 67
44ef1f: 67
44e01e: 82
44e7a3: 83
44f649: 84
451daf: 96
44c3d8: 103
401eda: 127
40213a: 127
44f613: 182
44d4db: 189
451611: 190
40239a: 198
44d4fd: 224
44e024: 299
44f626: 364
44e2c1: 428
44d4a7: 445
451d84: 451
44d3dc: 460
402130: 506
401ed0: 507
44d968: 511
44d31b: 512
452fd8: 521
44fbbf: 529
452f58: 529
4502f6: 532
44ebb9: 546
44d40d: 567
44d428: 607
44e2a3: 712
44e2ce: 748
402390: 788
44c950: 828
44d402: 869
44c3e6: 879
44d422: 942
450ea7: 989
44e037: 1059
44c3f9: 1112
452630: 1145
44e2d4: 1183
44e29c: 1192
452aa5: 1220
44d4d5: 1230
452a87: 1265
4525c8: 1305
451d6e: 1309
44d4f7: 1331
44e296: 1354
44e2c7: 1393
44e045: 1401
4550f4: 1452
450e88: 1462
455113: 1515
4550dc: 1554
454cc4: 1585
452a80: 1611
454caa: 1617
44e290: 1622
452f79: 1636
454ce5: 1673
451162: 1677
453019: 1696
452aab: 1718
44f639: 1719
452ac7: 1736
452ff9: 1738
451130: 1757
450345: 1785
451136: 1805
452a8e: 1807
450eae: 1823
451168: 1824
45031d: 1872
44f66c: 1872
44ebf0: 1874
44f679: 1888
44c457: 1889
44c41f: 1903
44c406: 1909
44ebc7: 1940
449ccc: 1949
44c49b: 1954
44c4fc: 1958
44ec01: 1958
44c412: 1961
450355: 1989
4513c6: 2042
4513c0: 2062
44d321: 2062
44d96d: 2074
4513f0: 2100
4513f6: 2125
449efe: 2130
44c473: 2198
449aa0: 2204
452f5d: 2218
44fbe9: 2279
44a730: 2311
452fdd: 2352
454c8f: 2369
455101: 2402
44d3cc: 2417
450722: 2420
4509c0: 2420
44f182: 2435
4509e4: 2438
4502fb: 2464
4525c3: 2467
451da2: 2468
451d91: 2483
44f187: 2486
450710: 2494
45262a: 2508
4509d0: 2509
452a9f: 2509
450700: 2527
451dc6: 2531
450ec0: 2531
450e9e: 2571
452688: 2572
45264c: 2575
4525f8: 2615
44a830: 2645
44c435: 2660
4550a8: 2673
453750: 2677
453610: 2710
44d4ad: 2775
450eb4: 2776
44ebbe: 2781
450e98: 2788
451de0: 2799
451df1: 2813
44f62b: 2870
451e24: 2939
44fbc5: 2946
449f0a: 2953
44e010: 2955
449ef0: 2987
454c70: 3022
4550bc: 3127
451d60: 3135
454cd0: 3150
449cc0: 3178
4525eb: 3336
449cdc: 3381
44e790: 3423
4540a0: 3443
451e3f: 3509
45263e: 3652
44a838: 3663
451e16: 3737
452694: 3780
453754: 3808
453614: 3899
44a738: 3923
449aa4: 3970
4540a4: 4048
455f30: 4099
4515fb: 4208
44c4c3: 4271
4526b0: 4572
44ef10: 4590
455e00: 4780
44e514: 4884

RAW hits: 2125113
Loads Generated: 78403118
Loads sent to L1D: 76277992
Stores Generated: 12318966
Stores sent to L1D: 12318954
Major fault: 0 Minor fault: 55183
Allocated PAGES: 55183
Total Load insts: 101813633
Total Non-spec loads: 7050818
Percentage of speculative loads: 93.0748
L1D response latency: 36.9505 cycles
Load retirement latency: 86.236 cycles

[Bingo] PHT Access: 158370
[Bingo] PHT Hit PC+Addr: 357
[Bingo] PHT Hit PC+Offs: 149110
[Bingo] PHT Miss: 8903
[Bingo] Prefetch PC+Addr: 0
[Bingo] Prefetch PC+Offs: 0
[Bingo] Useful PC+Addr: 0
[Bingo] Useful PC+Offs: 0
[Bingo] Useless PC+Addr: 0
[Bingo] Useless PC+Offs: 0
[Bingo] L1 Prefetch per Region: 0
[Bingo] L2 Prefetch per Region: 28.9595
[Bingo] L3 Prefetch per Region: 0
[Bingo] No Prefetch per Region: 3.04052
[Bingo] Number of Voters Mean: 14.1311
[Bingo] Number of Voters SD: 9.29428
PHT read accesses: 2462099
PHT write accesses: 154613
AT read accesses: 4399463
AT write accesses: 4534301
FT read accesses: 472852
FT write accesses: 158370
PS read accesses: 567967
PS write accesses: 149467
PHT tag read accesses: 7427179
PHT tag write accesses: 154970
AT tag read accesses: 169600738
AT tag write accesses: 4554096
FT tag read accesses: 100053691
FT tag write accesses: 473234
PS tag read accesses: 78558923
PS tag write accesses: 717166

DRAM Statistics
 CHANNEL 0
 RQ ROW_BUFFER_HIT:    2694212  ROW_BUFFER_MISS:    2909595
 DBUS_CONGESTED:       1216
 WQ ROW_BUFFER_HIT:     567213  ROW_BUFFER_MISS:     904150  FULL:          0

 AVG_CONGESTED_CYCLE: 5
 All warmup complete: 2
Channel 0 Bank busy for read cycles: 0
Channel 0 Bank busy for write cycles: 0
Channel 0
Rank 0
0banks busy for read cycles: 44451120
0banks busy for write cycles: 43449
1banks busy for read cycles: 63796423
1banks busy for write cycles: 4857404
2banks busy for read cycles: 28383785
2banks busy for write cycles: 1979463
3banks busy for read cycles: 9793956
3banks busy for write cycles: 1529986
4banks busy for read cycles: 5234988
4banks busy for write cycles: 1402067
5banks busy for read cycles: 3421376
5banks busy for write cycles: 1351636
6banks busy for read cycles: 3483312
6banks busy for write cycles: 1394372
7banks busy for read cycles: 7449740
7banks busy for write cycles: 2841817
8banks busy for read cycles: 39930162
8banks busy for write cycles: 32022261

CPU 0 Branch Prediction Accuracy: 99.7722% MPKI: 0.08495 Average ROB Occupancy at Mispredict: 116.847
Branch types
NOT_BRANCH: 192541524 96.2708%
BRANCH_DIRECT_JUMP: 1193 0.0005965%
BRANCH_INDIRECT: 0 0%
BRANCH_CONDITIONAL: 7457362 3.72868%
BRANCH_DIRECT_CALL: 137 6.85e-05%
BRANCH_INDIRECT_CALL: 0 0%
BRANCH_RETURN: 137 6.85e-05%
BRANCH_OTHER: 0 0%

DRAM PAGES: 1048576
Allocated PAGES: 55183
