
*** ChampSim Multicore Out-of-Order Simulator ***

Warmup Instructions: 50000000
Simulation Instructions: 200000000
Number of CPUs: 1
LLC sets: 2048
LLC ways: 16
Secure Berti: OFF
Berti: OFF
Berti Fill: OFF
On commit prefetching: OFF
L2 LLC Bypass speculative loads: OFF
Off-chip DRAM Size: 4096 MB Channels: 1 Width: 64-bit Data Rate: 6400 MT/s
CPU 0 runs /home/sumon/secure_berti/Berti_Baseline/../../traces/spec/603.bwaves_s-2931B.champsimtrace.xz
.xz
BTB has LRU replacement policy
ITLB has LRU replacement policy
DTLB has LRU replacement policy
STLB has LRU replacement policy
L1I has LRU replacement policy
CPU 0 L1D IP-based stride prefetcher
L1D has LRU replacement policy
L2C has LRU replacement policy
LLC has LRU replacement policy
Heartbeat CPU 0 instructions: 10000003 cycles: 2946928 heartbeat IPC: 3.39337 cumulative IPC: 3.39337 (Simulation time: 0 hr 0 min 21 sec) 
Heartbeat CPU 0 instructions: 20000003 cycles: 5893562 heartbeat IPC: 3.3937 cumulative IPC: 3.39353 (Simulation time: 0 hr 0 min 41 sec) 
Heartbeat CPU 0 instructions: 30000003 cycles: 8840195 heartbeat IPC: 3.3937 cumulative IPC: 3.39359 (Simulation time: 0 hr 1 min 2 sec) 
Heartbeat CPU 0 instructions: 40000002 cycles: 11786889 heartbeat IPC: 3.39363 cumulative IPC: 3.3936 (Simulation time: 0 hr 1 min 22 sec) 
Heartbeat CPU 0 instructions: 50000003 cycles: 14733597 heartbeat IPC: 3.39362 cumulative IPC: 3.3936 (Simulation time: 0 hr 1 min 43 sec) 

Warmup complete CPU 0 instructions: 50000003 cycles: 14733597 (Simulation time: 0 hr 1 min 43 sec) 

Heartbeat CPU 0 instructions: 60000000 cycles: 23076207 heartbeat IPC: 1.19867 cumulative IPC: 1.19867 (Simulation time: 0 hr 2 min 8 sec) 
Heartbeat CPU 0 instructions: 70000002 cycles: 31417986 heartbeat IPC: 1.19879 cumulative IPC: 1.19873 (Simulation time: 0 hr 2 min 33 sec) 
Heartbeat CPU 0 instructions: 80000003 cycles: 39765146 heartbeat IPC: 1.19801 cumulative IPC: 1.19849 (Simulation time: 0 hr 2 min 57 sec) 
Heartbeat CPU 0 instructions: 90000003 cycles: 48106732 heartbeat IPC: 1.19881 cumulative IPC: 1.19857 (Simulation time: 0 hr 3 min 24 sec) 
Heartbeat CPU 0 instructions: 100000000 cycles: 56450615 heartbeat IPC: 1.19848 cumulative IPC: 1.19855 (Simulation time: 0 hr 3 min 50 sec) 
Heartbeat CPU 0 instructions: 110000000 cycles: 64786573 heartbeat IPC: 1.19962 cumulative IPC: 1.19873 (Simulation time: 0 hr 4 min 17 sec) 
Heartbeat CPU 0 instructions: 120000000 cycles: 73126252 heartbeat IPC: 1.19909 cumulative IPC: 1.19878 (Simulation time: 0 hr 4 min 45 sec) 
Heartbeat CPU 0 instructions: 130000000 cycles: 81470252 heartbeat IPC: 1.19847 cumulative IPC: 1.19874 (Simulation time: 0 hr 5 min 13 sec) 
Heartbeat CPU 0 instructions: 140000002 cycles: 89807805 heartbeat IPC: 1.19939 cumulative IPC: 1.19881 (Simulation time: 0 hr 5 min 42 sec) 
Heartbeat CPU 0 instructions: 150000001 cycles: 98150369 heartbeat IPC: 1.19867 cumulative IPC: 1.1988 (Simulation time: 0 hr 6 min 11 sec) 
Heartbeat CPU 0 instructions: 160000001 cycles: 106487597 heartbeat IPC: 1.19944 cumulative IPC: 1.19886 (Simulation time: 0 hr 6 min 40 sec) 
Heartbeat CPU 0 instructions: 170000003 cycles: 114826157 heartbeat IPC: 1.19925 cumulative IPC: 1.19889 (Simulation time: 0 hr 7 min 9 sec) 
Heartbeat CPU 0 instructions: 180000000 cycles: 123172668 heartbeat IPC: 1.19811 cumulative IPC: 1.19883 (Simulation time: 0 hr 7 min 39 sec) 
Heartbeat CPU 0 instructions: 190000000 cycles: 131510755 heartbeat IPC: 1.19932 cumulative IPC: 1.19886 (Simulation time: 0 hr 8 min 9 sec) 
Heartbeat CPU 0 instructions: 200000000 cycles: 139848334 heartbeat IPC: 1.19939 cumulative IPC: 1.1989 (Simulation time: 0 hr 8 min 38 sec) 
Heartbeat CPU 0 instructions: 210000001 cycles: 148188548 heartbeat IPC: 1.19901 cumulative IPC: 1.19891 (Simulation time: 0 hr 9 min 8 sec) 
Heartbeat CPU 0 instructions: 220000000 cycles: 156529444 heartbeat IPC: 1.19891 cumulative IPC: 1.19891 (Simulation time: 0 hr 9 min 37 sec) 
Heartbeat CPU 0 instructions: 230000000 cycles: 164869276 heartbeat IPC: 1.19906 cumulative IPC: 1.19892 (Simulation time: 0 hr 10 min 4 sec) 
Heartbeat CPU 0 instructions: 240000000 cycles: 173206070 heartbeat IPC: 1.1995 cumulative IPC: 1.19895 (Simulation time: 0 hr 10 min 31 sec) 
Heartbeat CPU 0 instructions: 250000001 cycles: 181542660 heartbeat IPC: 1.19953 cumulative IPC: 1.19898 (Simulation time: 0 hr 10 min 56 sec) 
Finished CPU 0 instructions: 200000002 cycles: 166809064 cumulative IPC: 1.19898 (Simulation time: 0 hr 10 min 56 sec) 

ChampSim completed all CPUs

Region of Interest Statistics

CPU 0 cumulative IPC: 1.19898 instructions: 200000002 cycles: 166809064
ITLB TOTAL     ACCESS:   24084534  HIT:   24084534  MISS:          0  HIT %:        100  MISS %:          0   MPKI: 0
ITLB Test counter:          0
ITLB LOAD TRANSLATION ACCESS:   24084534  HIT:   24084534  MISS:          0  HIT %:        100  MISS %:          0   MPKI: 0
ITLB PREFETCH  REQUESTED:          0  ISSUED:          0  USEFUL:          0  USELESS:          0
ITLB USEFUL LOAD PREFETCHES:          0 PREFETCH ISSUED TO LOWER LEVEL:          0  ACCURACY: -nan
ITLB TIMELY PREFETCHES:          0 LATE PREFETCHES: 0 DROPPED PREFETCHES: 0
ITLB COMMIT LATE PREFETCHES: 0 MISSED OPPORTUNITY: 0 LATE IN PQ: 0 UNCOVERED: 0
ITLB COMMIT LATE MSHR PREFETCHES: 0
ITLB MPKI TOTAL: 0 MSHR LATE: 0 PQ LATE: 0 COMMIT LATE: 0 MISSED OPPORTUNITY: 0 UNCOVERED: 0
ITLB PREFETCHES SAME FILL-ORIGIN LEVEL: 0 DIFFERENT FILL-ORIGIN LEVEL: 0
ITLB AVERAGE MISS LATENCY: -nan cycles
ITLB AVERAGE MISS LATENCY LOAD: -nan cycles
ITLB AVERAGE MISS LATENCY PREFETCH: -nan cycles
ITLB AVERAGE MSHR OCCUPANCY: 0
ITLB MSHR FULL: 0
ITLB RQ	ACCESS:   27845850	FORWARD:          0	MERGED:    3761316	TO_CACHE:   24084534

DTLB TOTAL     ACCESS:   50102452  HIT:   49642478  MISS:     459974  HIT %:    99.0819  MISS %:   0.918067   MPKI: 2.29987
DTLB Test counter:          0
DTLB LOAD TRANSLATION ACCESS:   50102452  HIT:   49642478  MISS:     459974  HIT %:    99.0819  MISS %:   0.918067   MPKI: 2.29987
DTLB PREFETCH  REQUESTED:          0  ISSUED:          0  USEFUL:          0  USELESS:          0
DTLB USEFUL LOAD PREFETCHES:          0 PREFETCH ISSUED TO LOWER LEVEL:          0  ACCURACY: -nan
DTLB TIMELY PREFETCHES:          0 LATE PREFETCHES: 0 DROPPED PREFETCHES: 0
DTLB COMMIT LATE PREFETCHES: 0 MISSED OPPORTUNITY: 0 LATE IN PQ: 0 UNCOVERED: 0
DTLB COMMIT LATE MSHR PREFETCHES: 0
DTLB MPKI TOTAL: 0 MSHR LATE: 0 PQ LATE: 0 COMMIT LATE: 0 MISSED OPPORTUNITY: 0 UNCOVERED: 0
DTLB PREFETCHES SAME FILL-ORIGIN LEVEL: 0 DIFFERENT FILL-ORIGIN LEVEL: 0
DTLB AVERAGE MISS LATENCY: 40.6515 cycles
DTLB AVERAGE MISS LATENCY LOAD: -nan cycles
DTLB AVERAGE MISS LATENCY PREFETCH: -nan cycles
DTLB AVERAGE MSHR OCCUPANCY: 0.0457924
DTLB MSHR FULL: 3.99013e-08
DTLB RQ	ACCESS:   75025233	FORWARD:          0	MERGED:   24901528	TO_CACHE:   50123705

STLB TOTAL     ACCESS:    2633834  HIT:    2591230  MISS:      42604  HIT %:    98.3824  MISS %:    1.61757   MPKI: 0.21302
STLB Test counter:          0
STLB LOAD TRANSLATION ACCESS:     459974  HIT:     417370  MISS:      42604  HIT %:    90.7377  MISS %:    9.26226   MPKI: 0.21302
STLB TRANSLATION FROM L1D PREFETCHER ACCESS:    2173860  HIT:    2173860  MISS:          0  HIT %:        100  MISS %:          0   MPKI: 0
STLB PREFETCH  REQUESTED:          0  ISSUED:          0  USEFUL:          0  USELESS:          0
STLB USEFUL LOAD PREFETCHES:          0 PREFETCH ISSUED TO LOWER LEVEL:          0  ACCURACY: -nan
STLB TIMELY PREFETCHES:          0 LATE PREFETCHES: 0 DROPPED PREFETCHES: 0
STLB COMMIT LATE PREFETCHES: 0 MISSED OPPORTUNITY: 0 LATE IN PQ: 0 UNCOVERED: 0
STLB COMMIT LATE MSHR PREFETCHES: 0
STLB MPKI TOTAL: 0 MSHR LATE: 0 PQ LATE: 0 COMMIT LATE: 0 MISSED OPPORTUNITY: 0 UNCOVERED: 0
STLB PREFETCHES SAME FILL-ORIGIN LEVEL: 0 DIFFERENT FILL-ORIGIN LEVEL: 0
STLB AVERAGE MISS LATENCY: 334.93 cycles
STLB AVERAGE MISS LATENCY LOAD: -nan cycles
STLB AVERAGE MISS LATENCY PREFETCH: -nan cycles
STLB AVERAGE MSHR OCCUPANCY: 0.0459353
STLB MSHR FULL: 0
STLB RQ	ACCESS:    6877684	FORWARD:          0	MERGED:    4243850	TO_CACHE:    2633834

STLB Hit, L1D data hit: 0
STLB Hit, L2C data hit: 0
STLB Hit, LLC data hit: 0
STLB Hit, LLC data miss: 0
STLB STLB hints to L2: 0
L1D TOTAL     ACCESS:   77676864  HIT:   74280965  MISS:    3395899  HIT %:    95.6282  MISS %:    4.37183   MPKI: 16.9795
L1D Test counter:          0
L1D LOAD      ACCESS:   38373930  HIT:   38064633  MISS:     327925  HIT %:     99.194  MISS %:   0.806008   MPKI: 1.54648
L1D RFO       ACCESS:   33379010  HIT:   32120763  MISS:    1258247  HIT %:    96.2304  MISS %:    3.76958   MPKI: 6.29123
L1D PREFETCH  ACCESS:    5923924  HIT:    4095569  MISS:    1828355  HIT %:    69.1361  MISS %:    30.8639   MPKI: 9.14177
L1D PREFETCH  REQUESTED:   12835811  ISSUED:   12835420  USEFUL:    1823981  USELESS:       4379
L1D USEFUL LOAD PREFETCHES:    1823981 PREFETCH ISSUED TO LOWER LEVEL:    2320809  ACCURACY: 78.5925
L1D TIMELY PREFETCHES:    1823981 LATE PREFETCHES: 0 DROPPED PREFETCHES: 0
L1D COMMIT LATE PREFETCHES: 0 MISSED OPPORTUNITY: 0 LATE IN PQ: 0 UNCOVERED: 0
L1D COMMIT LATE MSHR PREFETCHES: 0
L1D MPKI TOTAL: 1.63962 MSHR LATE: 0 PQ LATE: 0 COMMIT LATE: 0 MISSED OPPORTUNITY: 0 UNCOVERED: 0
L1D PREFETCHES SAME FILL-ORIGIN LEVEL: 1828356 DIFFERENT FILL-ORIGIN LEVEL: 492453
L1D AVERAGE MISS LATENCY: 260.828 cycles
L1D AVERAGE MISS LATENCY LOAD: 37.6852 cycles
L1D AVERAGE MISS LATENCY PREFETCH: 228.688 cycles
L1D AVERAGE MSHR OCCUPANCY: 5.33522
L1D MSHR FULL: 0.000537278
L1D RQ	ACCESS:   57545015	FORWARD:          0	MERGED:   18922210	TO_CACHE:   38392557
L1D WQ	ACCESS:   36649060	FORWARD:     230248	MERGED:      16384	TO_CACHE:   36632676
L1D PQ	ACCESS:    6417710	FORWARD:          0	MERGED:          0	TO_CACHE:    6417710

L1D UNIQUE REGIONS ACCESSED: 0
L1D REGIONS CONFLICTS: 0
L1D Cross Page Prefetch Requests: 0
L1D Same Page Prefetch Requests: 8022218
L1D ROI Sum of L1D PQ occupancy: 88462668
L1D PREFETCHES PUSHED FROM L2C: 0
408f37: 1
408f1e: 3
409a4b: 4
409a10: 4
409a1b: 4
40912a: 46
409074: 454
409947: 504
4099fd: 504
40993c: 504
409068: 504
40906c: 504
409507: 697
4094f5: 742
40981b: 2831
409826: 2868
409889: 2883
40990f: 2921
40973a: 3628
409775: 3657
4094bd: 3825
40957b: 3838
4094a2: 4057
4095a9: 4459
40949c: 4654
40950f: 5354
409555: 5484
4095da: 5643
409479: 5764
409486: 6197
409475: 17933
4094c5: 22562
40960f: 33614
409543: 162650
L1I TOTAL     ACCESS:   27845849  HIT:   27845849  MISS:          0  HIT %:        100  MISS %:          0   MPKI: 0
L1I Test counter:          0
L1I LOAD      ACCESS:   27845849  HIT:   27845849  MISS:          0  HIT %:        100  MISS %:          0   MPKI: 0
L1I PREFETCH  REQUESTED:          0  ISSUED:          0  USEFUL:          0  USELESS:          0
L1I USEFUL LOAD PREFETCHES:          0 PREFETCH ISSUED TO LOWER LEVEL:          0  ACCURACY: -nan
L1I TIMELY PREFETCHES:          0 LATE PREFETCHES: 0 DROPPED PREFETCHES: 0
L1I COMMIT LATE PREFETCHES: 0 MISSED OPPORTUNITY: 0 LATE IN PQ: 0 UNCOVERED: 0
L1I COMMIT LATE MSHR PREFETCHES: 0
L1I MPKI TOTAL: 0 MSHR LATE: 0 PQ LATE: 0 COMMIT LATE: 0 MISSED OPPORTUNITY: 0 UNCOVERED: 0
L1I PREFETCHES SAME FILL-ORIGIN LEVEL: 0 DIFFERENT FILL-ORIGIN LEVEL: 0
L1I AVERAGE MISS LATENCY: -nan cycles
L1I AVERAGE MISS LATENCY LOAD: -nan cycles
L1I AVERAGE MISS LATENCY PREFETCH: -nan cycles
L1I AVERAGE MSHR OCCUPANCY: 0
L1I MSHR FULL: 0
L1I RQ	ACCESS:   40686981	FORWARD:          0	MERGED:   12841131	TO_CACHE:   27845850

BTB TOTAL     ACCESS:    1687994  HIT:    1687989  MISS:          5  HIT %:    99.9997  MISS %: 0.00029621   MPKI: 2.5e-05
BTB Test counter:          0
BTB BRANCH_DIRECT_JUMP	ACCESS:          0  HIT:          0  MISS:          0
BTB BRANCH_INDIRECT	ACCESS:          0  HIT:          0  MISS:          0
BTB BRANCH_CONDITIONAL	ACCESS:    1687994  HIT:    1687989  MISS:          5
BTB BRANCH_DIRECT_CALL	ACCESS:          0  HIT:          0  MISS:          0
BTB BRANCH_INDIRECT_CALL	ACCESS:          0  HIT:          0  MISS:          0
BTB BRANCH_RETURN	ACCESS:          0  HIT:          0  MISS:          0
BTB BRANCH_OTHER ACCESS:          0  HIT:          0  MISS:          0

L2C TOTAL     ACCESS:    5169030  HIT:    2250576  MISS:    2918454  HIT %:    43.5396  MISS %:    56.4604   MPKI: 14.5923
L2C Test counter:          0
L2C LOAD      ACCESS:     308460  HIT:     276939  MISS:      31521  HIT %:    89.7812  MISS %:    10.2188   MPKI: 0.157605
L2C DATA LOAD MPKI: 0.157605
L2C INSTRUCTION LOAD MPKI: 0
L2C RFO       ACCESS:    1221033  HIT:      30265  MISS:    1190768  HIT %:    2.47864  MISS %:    97.5214   MPKI: 5.95384
L2C PREFETCH  ACCESS:    2320588  HIT:     630077  MISS:    1690511  HIT %:    27.1516  MISS %:    72.8484   MPKI: 8.45255
L2C DATA PREFETCH MPKI: 8.45255
L2C INSTRUCTION PREFETCH MPKI: 0
L2C WRITEBACK ACCESS:    1276314  HIT:    1276110  MISS:        204  HIT %:     99.984  MISS %:  0.0159835   MPKI: 0.00102
L2C LOAD TRANSLATION ACCESS:      42635  HIT:      37185  MISS:       5450  HIT %:    87.2171  MISS %:    12.7829   MPKI: 0.02725
L2C PREFETCH  REQUESTED:          0  ISSUED:          0  USEFUL:     228063  USELESS:    1461636
L2C USEFUL LOAD PREFETCHES:     228063 PREFETCH ISSUED TO LOWER LEVEL:    1690513  ACCURACY: 13.4908
L2C TIMELY PREFETCHES:     228063 LATE PREFETCHES: 0 DROPPED PREFETCHES: 0
L2C COMMIT LATE PREFETCHES: 0 MISSED OPPORTUNITY: 0 LATE IN PQ: 0 UNCOVERED: 0
L2C COMMIT LATE MSHR PREFETCHES: 0
L2C MPKI TOTAL: 0.157605 MSHR LATE: 0 PQ LATE: 0 COMMIT LATE: 0 MISSED OPPORTUNITY: 0 UNCOVERED: 0
L2C PREFETCHES SAME FILL-ORIGIN LEVEL: 112906 DIFFERENT FILL-ORIGIN LEVEL: 0
L2C AVERAGE MISS LATENCY: 299.563 cycles
L2C AVERAGE MISS LATENCY LOAD: 201.807 cycles
L2C AVERAGE MISS LATENCY PREFETCH: 254.907 cycles
L2C AVERAGE MSHR OCCUPANCY: 8.07094
L2C MSHR FULL: 0
L2C RQ	ACCESS:    1610181	FORWARD:          0	MERGED:          0	TO_CACHE:    1572130
L2C WQ	ACCESS:    1276314	FORWARD:      38051	MERGED:          0	TO_CACHE:    1276314
L2C PQ	ACCESS:    2320809	FORWARD:          0	MERGED:          0	TO_CACHE:    2320809

L2C Instructions Evicting Data 0
L2C Translations Evicting Data 5448
L2C Data Evicting Data 2907352
L2C Instructions Evicting Instructions 0
L2C Translations Evicting Instructions 0
L2C Data Evicting Instructions 0
L2C Instructions Evicting Translations 0
L2C Translations Evicting Translations 2
L2C Data Evicting Translations 5448
L2C Dense regions hint from L2: 0
409a10: 4
409a4b: 4
409a1b: 4
40912a: 18
409074: 32
409068: 64
40993c: 73
409947: 74
4099fd: 74
40906c: 122
4094a2: 338
409486: 1520
409543: 1542
409479: 2626
4094bd: 2658
40960f: 2658
4094c5: 2658
40949c: 2658
4095da: 2658
409475: 2658
4095a9: 2681
40957b: 2681
40950f: 3716
PSCL5 TOTAL     ACCESS:      42604  HIT:      42604  MISS:          0  HIT %:        100  MISS %:          0   MPKI: 0
PSCL5 Test counter:          0
PSCL5 LOAD TRANSLATION ACCESS:      42604  HIT:      42604  MISS:          0  HIT %:        100  MISS %:          0   MPKI: 0
PSCL5 PREFETCH  REQUESTED:          0  ISSUED:          0  USEFUL:          0  USELESS:          0
PSCL5 USEFUL LOAD PREFETCHES:          0 PREFETCH ISSUED TO LOWER LEVEL:          0  ACCURACY: -nan
PSCL5 TIMELY PREFETCHES:          0 LATE PREFETCHES: 0 DROPPED PREFETCHES: 0
PSCL5 COMMIT LATE PREFETCHES: 0 MISSED OPPORTUNITY: 0 LATE IN PQ: 0 UNCOVERED: 0
PSCL5 COMMIT LATE MSHR PREFETCHES: 0
PSCL5 MPKI TOTAL: 0 MSHR LATE: 0 PQ LATE: 0 COMMIT LATE: 0 MISSED OPPORTUNITY: 0 UNCOVERED: 0
PSCL5 PREFETCHES SAME FILL-ORIGIN LEVEL: 0 DIFFERENT FILL-ORIGIN LEVEL: 0

PSCL4 TOTAL     ACCESS:      42604  HIT:      42604  MISS:          0  HIT %:        100  MISS %:          0   MPKI: 0
PSCL4 Test counter:          0
PSCL4 LOAD TRANSLATION ACCESS:      42604  HIT:      42604  MISS:          0  HIT %:        100  MISS %:          0   MPKI: 0
PSCL4 PREFETCH  REQUESTED:          0  ISSUED:          0  USEFUL:          0  USELESS:          0
PSCL4 USEFUL LOAD PREFETCHES:          0 PREFETCH ISSUED TO LOWER LEVEL:          0  ACCURACY: -nan
PSCL4 TIMELY PREFETCHES:          0 LATE PREFETCHES: 0 DROPPED PREFETCHES: 0
PSCL4 COMMIT LATE PREFETCHES: 0 MISSED OPPORTUNITY: 0 LATE IN PQ: 0 UNCOVERED: 0
PSCL4 COMMIT LATE MSHR PREFETCHES: 0
PSCL4 MPKI TOTAL: 0 MSHR LATE: 0 PQ LATE: 0 COMMIT LATE: 0 MISSED OPPORTUNITY: 0 UNCOVERED: 0
PSCL4 PREFETCHES SAME FILL-ORIGIN LEVEL: 0 DIFFERENT FILL-ORIGIN LEVEL: 0

PSCL3 TOTAL     ACCESS:      34329  HIT:      34307  MISS:         22  HIT %:    99.9359  MISS %:  0.0640858   MPKI: 0.00011
PSCL3 Test counter:          0
PSCL3 LOAD TRANSLATION ACCESS:      34329  HIT:      34307  MISS:         22  HIT %:    99.9359  MISS %:  0.0640858   MPKI: 0.00011
PSCL3 PREFETCH  REQUESTED:          0  ISSUED:          0  USEFUL:          0  USELESS:          0
PSCL3 USEFUL LOAD PREFETCHES:          0 PREFETCH ISSUED TO LOWER LEVEL:          0  ACCURACY: -nan
PSCL3 TIMELY PREFETCHES:          0 LATE PREFETCHES: 0 DROPPED PREFETCHES: 0
PSCL3 COMMIT LATE PREFETCHES: 0 MISSED OPPORTUNITY: 0 LATE IN PQ: 0 UNCOVERED: 0
PSCL3 COMMIT LATE MSHR PREFETCHES: 0
PSCL3 MPKI TOTAL: 0 MSHR LATE: 0 PQ LATE: 0 COMMIT LATE: 0 MISSED OPPORTUNITY: 0 UNCOVERED: 0
PSCL3 PREFETCHES SAME FILL-ORIGIN LEVEL: 0 DIFFERENT FILL-ORIGIN LEVEL: 0

PSCL2 TOTAL     ACCESS:      42604  HIT:      42522  MISS:         82  HIT %:    99.8075  MISS %:    0.19247   MPKI: 0.00041
PSCL2 Test counter:          0
PSCL2 LOAD TRANSLATION ACCESS:      42604  HIT:      42522  MISS:         82  HIT %:    99.8075  MISS %:    0.19247   MPKI: 0.00041
PSCL2 PREFETCH  REQUESTED:          0  ISSUED:          0  USEFUL:          0  USELESS:          0
PSCL2 USEFUL LOAD PREFETCHES:          0 PREFETCH ISSUED TO LOWER LEVEL:          0  ACCURACY: -nan
PSCL2 TIMELY PREFETCHES:          0 LATE PREFETCHES: 0 DROPPED PREFETCHES: 0
PSCL2 COMMIT LATE PREFETCHES: 0 MISSED OPPORTUNITY: 0 LATE IN PQ: 0 UNCOVERED: 0
PSCL2 COMMIT LATE MSHR PREFETCHES: 0
PSCL2 MPKI TOTAL: 0 MSHR LATE: 0 PQ LATE: 0 COMMIT LATE: 0 MISSED OPPORTUNITY: 0 UNCOVERED: 0
PSCL2 PREFETCHES SAME FILL-ORIGIN LEVEL: 0 DIFFERENT FILL-ORIGIN LEVEL: 0

LLC TOTAL     ACCESS:    4109468  HIT:    1377908  MISS:    2731560  HIT %:    33.5301  MISS %:    66.4699   MPKI: 13.6578
LLC Test counter:          0
LLC LOAD      ACCESS:      31521  HIT:       3355  MISS:      28166  HIT %:    10.6437  MISS %:    89.3563   MPKI: 0.14083
LLC RFO       ACCESS:    1190768  HIT:          0  MISS:    1190768  HIT %:          0  MISS %:        100   MPKI: 5.95384
LLC PREFETCH  ACCESS:    1690511  HIT:     183454  MISS:    1507057  HIT %:     10.852  MISS %:     89.148   MPKI: 7.53528
LLC WRITEBACK ACCESS:    1191218  HIT:    1191078  MISS:        140  HIT %:    99.9882  MISS %:  0.0117527   MPKI: 0.0007
LLC LOAD TRANSLATION ACCESS:       5450  HIT:         21  MISS:       5429  HIT %:   0.385321  MISS %:    99.6147   MPKI: 0.027145
LLC PREFETCH  REQUESTED:          0  ISSUED:          0  USEFUL:        107  USELESS:    1507151
LLC USEFUL LOAD PREFETCHES:        107 PREFETCH ISSUED TO LOWER LEVEL:    1507059  ACCURACY: 0.00709992
LLC TIMELY PREFETCHES:        107 LATE PREFETCHES: 0 DROPPED PREFETCHES: 0
LLC COMMIT LATE PREFETCHES: 0 MISSED OPPORTUNITY: 0 LATE IN PQ: 0 UNCOVERED: 0
LLC COMMIT LATE MSHR PREFETCHES: 0
LLC MPKI TOTAL: 0.14083 MSHR LATE: 0 PQ LATE: 0 COMMIT LATE: 0 MISSED OPPORTUNITY: 0 UNCOVERED: 0
LLC PREFETCHES SAME FILL-ORIGIN LEVEL: 0 DIFFERENT FILL-ORIGIN LEVEL: 0
LLC AVERAGE MISS LATENCY: 287.235 cycles
LLC AVERAGE MISS LATENCY LOAD: 188.46 cycles
LLC AVERAGE MISS LATENCY PREFETCH: 251.569 cycles
LLC AVERAGE MSHR OCCUPANCY: 8.07601
LLC MSHR FULL: 0
LLC RQ	ACCESS:    1227741	FORWARD:          0	MERGED:          0	TO_CACHE:    1227741
LLC WQ	ACCESS:    1191218	FORWARD:          0	MERGED:          0	TO_CACHE:    1191218
LLC PQ	ACCESS:    1690513	FORWARD:          0	MERGED:          0	TO_CACHE:    1690513

LLC Dense regions hint to LLC: 0
409a4b: 4
409a10: 4
409a1b: 4
40912a: 11
409074: 15
409947: 24
4099fd: 24
40906c: 25
409068: 31
4094a2: 34
4095a9: 55
409486: 1520
409543: 1542
409479: 2626
4094c5: 2658
4094bd: 2658
40949c: 2658
4095da: 2658
40960f: 2658
409475: 2658
40957b: 2681
40950f: 3618

RAW hits: 1100931
Loads Generated: 58645951
Loads sent to L1D: 57545015
Stores Generated: 36649052
Stores sent to L1D: 36649060
Major fault: 0 Minor fault: 48769
Allocated PAGES: 48769
Total Load insts: 68584812
Total Non-spec loads: 4706358
Percentage of speculative loads: 93.1379
L1D response latency: 37.6852 cycles
Load retirement latency: 78.3593 cycles

CPU 0 L1D PC-based stride prefetcher final stats
Degree: 3

DRAM Statistics
 CHANNEL 0
 RQ ROW_BUFFER_HIT:    1441707  ROW_BUFFER_MISS:    1289715
 DBUS_CONGESTED:        737
 WQ ROW_BUFFER_HIT:     500356  ROW_BUFFER_MISS:     690310  FULL:          0

 AVG_CONGESTED_CYCLE: 6
 All warmup complete: 2
Channel 0 Bank busy for read cycles: 0
Channel 0 Bank busy for write cycles: 0
Channel 0
Rank 0
0banks busy for read cycles: 755148
0banks busy for write cycles: 12235
1banks busy for read cycles: 32726525
1banks busy for write cycles: 1386352
2banks busy for read cycles: 66607664
2banks busy for write cycles: 2058932
3banks busy for read cycles: 25935089
3banks busy for write cycles: 2310390
4banks busy for read cycles: 4606727
4banks busy for write cycles: 2758638
5banks busy for read cycles: 810757
5banks busy for write cycles: 2997286
6banks busy for read cycles: 57357
6banks busy for write cycles: 3440136
7banks busy for read cycles: 671
7banks busy for write cycles: 4893612
8banks busy for read cycles: 0
8banks busy for write cycles: 15451546

CPU 0 Branch Prediction Accuracy: 99.9697% MPKI: 0.00256 Average ROB Occupancy at Mispredict: 60.791
Branch types
NOT_BRANCH: 198311688 99.1558%
BRANCH_DIRECT_JUMP: 0 0%
BRANCH_INDIRECT: 0 0%
BRANCH_CONDITIONAL: 1688003 0.844001%
BRANCH_DIRECT_CALL: 0 0%
BRANCH_INDIRECT_CALL: 0 0%
BRANCH_RETURN: 0 0%
BRANCH_OTHER: 0 0%

DRAM PAGES: 1048576
Allocated PAGES: 48769
