
*** ChampSim Multicore Out-of-Order Simulator ***

Warmup Instructions: 50000000
Simulation Instructions: 200000000
Number of CPUs: 1
LLC sets: 2048
LLC ways: 16
Secure Berti: OFF
Berti: OFF
Berti Fill: OFF
On commit prefetching: OFF
L2 LLC Bypass speculative loads: OFF
Off-chip DRAM Size: 4096 MB Channels: 1 Width: 64-bit Data Rate: 6400 MT/s
CPU 0 runs /home/sumon/secure_berti/Berti_Baseline/../../traces/spec/605.mcf_s-665B.champsimtrace.xz
.xz
BTB has LRU replacement policy
ITLB has LRU replacement policy
DTLB has LRU replacement policy
STLB has LRU replacement policy
L1I has LRU replacement policy
CPU 0 L1D IP-based stride prefetcher
L1D has LRU replacement policy
L2C has LRU replacement policy
LLC has LRU replacement policy
Heartbeat CPU 0 instructions: 10000000 cycles: 3306203 heartbeat IPC: 3.02462 cumulative IPC: 3.02462 (Simulation time: 0 hr 0 min 24 sec) 
Heartbeat CPU 0 instructions: 20000000 cycles: 6613199 heartbeat IPC: 3.02389 cumulative IPC: 3.02426 (Simulation time: 0 hr 0 min 48 sec) 
Heartbeat CPU 0 instructions: 30000002 cycles: 9914277 heartbeat IPC: 3.02931 cumulative IPC: 3.02594 (Simulation time: 0 hr 1 min 13 sec) 
Heartbeat CPU 0 instructions: 40000003 cycles: 13216407 heartbeat IPC: 3.02835 cumulative IPC: 3.02654 (Simulation time: 0 hr 1 min 37 sec) 
Heartbeat CPU 0 instructions: 50000002 cycles: 16514328 heartbeat IPC: 3.03221 cumulative IPC: 3.02767 (Simulation time: 0 hr 2 min 1 sec) 

Warmup complete CPU 0 instructions: 50000002 cycles: 16514328 (Simulation time: 0 hr 2 min 1 sec) 

Heartbeat CPU 0 instructions: 60000003 cycles: 52297673 heartbeat IPC: 0.27946 cumulative IPC: 0.27946 (Simulation time: 0 hr 2 min 33 sec) 
Heartbeat CPU 0 instructions: 70000003 cycles: 87886764 heartbeat IPC: 0.280985 cumulative IPC: 0.28022 (Simulation time: 0 hr 3 min 5 sec) 
Heartbeat CPU 0 instructions: 80000001 cycles: 123562259 heartbeat IPC: 0.280304 cumulative IPC: 0.280248 (Simulation time: 0 hr 3 min 39 sec) 
Heartbeat CPU 0 instructions: 90000002 cycles: 160117553 heartbeat IPC: 0.273558 cumulative IPC: 0.278545 (Simulation time: 0 hr 4 min 13 sec) 
Heartbeat CPU 0 instructions: 100000000 cycles: 195440254 heartbeat IPC: 0.283104 cumulative IPC: 0.279445 (Simulation time: 0 hr 4 min 47 sec) 
Heartbeat CPU 0 instructions: 110000000 cycles: 230813161 heartbeat IPC: 0.282702 cumulative IPC: 0.279983 (Simulation time: 0 hr 5 min 23 sec) 
Heartbeat CPU 0 instructions: 120000000 cycles: 265993222 heartbeat IPC: 0.284252 cumulative IPC: 0.280585 (Simulation time: 0 hr 5 min 58 sec) 
Heartbeat CPU 0 instructions: 130000000 cycles: 301099664 heartbeat IPC: 0.284848 cumulative IPC: 0.281111 (Simulation time: 0 hr 6 min 33 sec) 
Heartbeat CPU 0 instructions: 140000002 cycles: 336907999 heartbeat IPC: 0.279265 cumulative IPC: 0.280904 (Simulation time: 0 hr 7 min 8 sec) 
Heartbeat CPU 0 instructions: 150000000 cycles: 372533616 heartbeat IPC: 0.280697 cumulative IPC: 0.280884 (Simulation time: 0 hr 7 min 44 sec) 
Heartbeat CPU 0 instructions: 160000001 cycles: 407858713 heartbeat IPC: 0.283085 cumulative IPC: 0.281082 (Simulation time: 0 hr 8 min 20 sec) 
Heartbeat CPU 0 instructions: 170000003 cycles: 443723464 heartbeat IPC: 0.278825 cumulative IPC: 0.280893 (Simulation time: 0 hr 8 min 55 sec) 
Heartbeat CPU 0 instructions: 180000001 cycles: 479042382 heartbeat IPC: 0.283134 cumulative IPC: 0.281064 (Simulation time: 0 hr 9 min 30 sec) 
Heartbeat CPU 0 instructions: 190000002 cycles: 514422415 heartbeat IPC: 0.282645 cumulative IPC: 0.281176 (Simulation time: 0 hr 10 min 4 sec) 
Heartbeat CPU 0 instructions: 200000000 cycles: 549946505 heartbeat IPC: 0.281499 cumulative IPC: 0.281198 (Simulation time: 0 hr 10 min 36 sec) 
Heartbeat CPU 0 instructions: 210000000 cycles: 585371935 heartbeat IPC: 0.282283 cumulative IPC: 0.281265 (Simulation time: 0 hr 11 min 6 sec) 
Heartbeat CPU 0 instructions: 220000000 cycles: 620455739 heartbeat IPC: 0.285032 cumulative IPC: 0.281484 (Simulation time: 0 hr 11 min 36 sec) 
Heartbeat CPU 0 instructions: 230000000 cycles: 656628651 heartbeat IPC: 0.27645 cumulative IPC: 0.2812 (Simulation time: 0 hr 12 min 5 sec) 
Heartbeat CPU 0 instructions: 240000000 cycles: 691646076 heartbeat IPC: 0.285572 cumulative IPC: 0.281427 (Simulation time: 0 hr 12 min 33 sec) 
Heartbeat CPU 0 instructions: 250000002 cycles: 726934012 heartbeat IPC: 0.283383 cumulative IPC: 0.281524 (Simulation time: 0 hr 13 min 0 sec) 
Finished CPU 0 instructions: 200000000 cycles: 710419684 cumulative IPC: 0.281524 (Simulation time: 0 hr 13 min 0 sec) 

ChampSim completed all CPUs

Region of Interest Statistics

CPU 0 cumulative IPC: 0.281524 instructions: 200000000 cycles: 710419684
ITLB TOTAL     ACCESS:   36331430  HIT:   36331430  MISS:          0  HIT %:        100  MISS %:          0   MPKI: 0
ITLB Test counter:          0
ITLB LOAD TRANSLATION ACCESS:   36331430  HIT:   36331430  MISS:          0  HIT %:        100  MISS %:          0   MPKI: 0
ITLB PREFETCH  REQUESTED:          0  ISSUED:          0  USEFUL:          0  USELESS:          0
ITLB USEFUL LOAD PREFETCHES:          0 PREFETCH ISSUED TO LOWER LEVEL:          0  ACCURACY: -nan
ITLB TIMELY PREFETCHES:          0 LATE PREFETCHES: 0 DROPPED PREFETCHES: 0
ITLB COMMIT LATE PREFETCHES: 0 MISSED OPPORTUNITY: 0 LATE IN PQ: 0 UNCOVERED: 0
ITLB COMMIT LATE MSHR PREFETCHES: 0
ITLB MPKI TOTAL: 0 MSHR LATE: 0 PQ LATE: 0 COMMIT LATE: 0 MISSED OPPORTUNITY: 0 UNCOVERED: 0
ITLB PREFETCHES SAME FILL-ORIGIN LEVEL: 0 DIFFERENT FILL-ORIGIN LEVEL: 0
ITLB AVERAGE MISS LATENCY: -nan cycles
ITLB AVERAGE MISS LATENCY LOAD: -nan cycles
ITLB AVERAGE MISS LATENCY PREFETCH: -nan cycles
ITLB AVERAGE MSHR OCCUPANCY: 0
ITLB MSHR FULL: 0
ITLB RQ	ACCESS:   38036955	FORWARD:          0	MERGED:    1705526	TO_CACHE:   36331429

DTLB TOTAL     ACCESS:   62406942  HIT:   59411383  MISS:    2995559  HIT %:       95.2  MISS %:    4.80004   MPKI: 14.9778
DTLB Test counter:          0
DTLB LOAD TRANSLATION ACCESS:   62406942  HIT:   59411383  MISS:    2995559  HIT %:       95.2  MISS %:    4.80004   MPKI: 14.9778
DTLB PREFETCH  REQUESTED:          0  ISSUED:          0  USEFUL:          0  USELESS:          0
DTLB USEFUL LOAD PREFETCHES:          0 PREFETCH ISSUED TO LOWER LEVEL:          0  ACCURACY: -nan
DTLB TIMELY PREFETCHES:          0 LATE PREFETCHES: 0 DROPPED PREFETCHES: 0
DTLB COMMIT LATE PREFETCHES: 0 MISSED OPPORTUNITY: 0 LATE IN PQ: 0 UNCOVERED: 0
DTLB COMMIT LATE MSHR PREFETCHES: 0
DTLB MPKI TOTAL: 0 MSHR LATE: 0 PQ LATE: 0 COMMIT LATE: 0 MISSED OPPORTUNITY: 0 UNCOVERED: 0
DTLB PREFETCHES SAME FILL-ORIGIN LEVEL: 0 DIFFERENT FILL-ORIGIN LEVEL: 0
DTLB AVERAGE MISS LATENCY: 10.6304 cycles
DTLB AVERAGE MISS LATENCY LOAD: -nan cycles
DTLB AVERAGE MISS LATENCY PREFETCH: -nan cycles
DTLB AVERAGE MSHR OCCUPANCY: 0.0249482
DTLB MSHR FULL: 0
DTLB RQ	ACCESS:   76010594	FORWARD:          0	MERGED:   13226641	TO_CACHE:   62783953

STLB TOTAL     ACCESS:    5049701  HIT:    5007712  MISS:      41989  HIT %:    99.1685  MISS %:   0.831515   MPKI: 0.209945
STLB Test counter:          0
STLB LOAD TRANSLATION ACCESS:    2995559  HIT:    2953570  MISS:      41989  HIT %:    98.5983  MISS %:    1.40171   MPKI: 0.209945
STLB TRANSLATION FROM L1D PREFETCHER ACCESS:    2054142  HIT:    2054142  MISS:          0  HIT %:        100  MISS %:          0   MPKI: 0
STLB PREFETCH  REQUESTED:          0  ISSUED:          0  USEFUL:          0  USELESS:          0
STLB USEFUL LOAD PREFETCHES:          0 PREFETCH ISSUED TO LOWER LEVEL:          0  ACCURACY: -nan
STLB TIMELY PREFETCHES:          0 LATE PREFETCHES: 0 DROPPED PREFETCHES: 0
STLB COMMIT LATE PREFETCHES: 0 MISSED OPPORTUNITY: 0 LATE IN PQ: 0 UNCOVERED: 0
STLB COMMIT LATE MSHR PREFETCHES: 0
STLB MPKI TOTAL: 0 MSHR LATE: 0 PQ LATE: 0 COMMIT LATE: 0 MISSED OPPORTUNITY: 0 UNCOVERED: 0
STLB PREFETCHES SAME FILL-ORIGIN LEVEL: 0 DIFFERENT FILL-ORIGIN LEVEL: 0
STLB AVERAGE MISS LATENCY: 103.929 cycles
STLB AVERAGE MISS LATENCY LOAD: -nan cycles
STLB AVERAGE MISS LATENCY PREFETCH: -nan cycles
STLB AVERAGE MSHR OCCUPANCY: 0.0066198
STLB MSHR FULL: 0
STLB RQ	ACCESS:    9285191	FORWARD:          0	MERGED:    4235490	TO_CACHE:    5049701

STLB Hit, L1D data hit: 0
STLB Hit, L2C data hit: 0
STLB Hit, LLC data hit: 0
STLB Hit, LLC data miss: 0
STLB STLB hints to L2: 0
L1D TOTAL     ACCESS:   79815320  HIT:   72793917  MISS:    7021403  HIT %:    91.2029  MISS %:    8.79706   MPKI: 35.107
L1D Test counter:          0
L1D LOAD      ACCESS:   52353816  HIT:   47147107  MISS:    5283460  HIT %:    90.0548  MISS %:    9.94523   MPKI: 26.0335
L1D RFO       ACCESS:   22363719  HIT:   21635070  MISS:     728649  HIT %:    96.7418  MISS %:    3.25817   MPKI: 3.64324
L1D PREFETCH  ACCESS:    5097785  HIT:    4011740  MISS:    1086045  HIT %:    78.6957  MISS %:    21.3043   MPKI: 5.43023
L1D PREFETCH  REQUESTED:   13083917  ISSUED:   13083917  USEFUL:    1046016  USELESS:      40022
L1D USEFUL LOAD PREFETCHES:    1046016 PREFETCH ISSUED TO LOWER LEVEL:    1459788  ACCURACY: 71.6553
L1D TIMELY PREFETCHES:    1046016 LATE PREFETCHES: 336983 DROPPED PREFETCHES: 0
L1D COMMIT LATE PREFETCHES: 0 MISSED OPPORTUNITY: 0 LATE IN PQ: 149368 UNCOVERED: 0
L1D COMMIT LATE MSHR PREFETCHES: 0
L1D MPKI TOTAL: 26.4173 MSHR LATE: 1.68491 PQ LATE: 0.74684 COMMIT LATE: 0 MISSED OPPORTUNITY: 0 UNCOVERED: 0
L1D PREFETCHES SAME FILL-ORIGIN LEVEL: 1423050 DIFFERENT FILL-ORIGIN LEVEL: 36738
L1D AVERAGE MISS LATENCY: 64.3066 cycles
L1D AVERAGE MISS LATENCY LOAD: 57.5959 cycles
L1D AVERAGE MISS LATENCY PREFETCH: 120.599 cycles
L1D AVERAGE MSHR OCCUPANCY: 0.29263
L1D MSHR FULL: 0
L1D RQ	ACCESS:   67188437	FORWARD:          0	MERGED:   12471601	TO_CACHE:   52430568
L1D WQ	ACCESS:   23674381	FORWARD:    2286268	MERGED:      94355	TO_CACHE:   23580026
L1D PQ	ACCESS:    6794285	FORWARD:          0	MERGED:     504653	TO_CACHE:    6289632

L1D UNIQUE REGIONS ACCESSED: 0
L1D REGIONS CONFLICTS: 0
L1D Cross Page Prefetch Requests: 0
L1D Same Page Prefetch Requests: 8760190
L1D ROI Sum of L1D PQ occupancy: 83020980
L1D PREFETCHES PUSHED FROM L2C: 0
404097: 1
403d20: 1
403e42: 1
403d17: 2
403db8: 3
403d44: 4
403d76: 6
404a33: 7
403d6c: 8
403d28: 8
403ce0: 9
4044d5: 10
403d86: 12
4084af: 13
404610: 16
403d13: 23
403d8d: 25
4048cd: 25
4074f3: 26
403e6d: 28
405d03: 29
4045e1: 34
403ed7: 38
403ea0: 39
404684: 39
403f18: 41
403ca9: 45
404648: 47
403cf4: 55
404652: 62
403e76: 68
403f28: 68
404629: 71
403d4d: 71
4044b7: 91
4046c8: 106
4048a6: 137
40459f: 272
4045db: 309
4048a0: 311
4045bd: 311
404ce3: 311
40465d: 311
404cda: 311
4084b4: 311
404ce8: 311
4044bf: 311
4044fc: 311
403f02: 792
405d23: 804
404a14: 868
405d41: 986
404fc0: 1018
4048e0: 1518
4048b8: 2029
4048bf: 2289
403ef3: 2620
403eb0: 2764
403cc6: 3438
403ce9: 3515
403ee8: 4466
403e54: 5618
403e50: 5637
4048aa: 6826
404076: 7951
40409b: 8047
4048b1: 8350
4048c3: 8501
404823: 10731
403eb4: 11092
404826: 11101
404820: 12445
403cc0: 13604
403e9a: 13780
4048bc: 15507
4048b4: 18374
403e64: 19294
403e60: 19954
403e90: 22575
403eec: 22871
403ee2: 29394
4049d6: 37890
404841: 38278
403e94: 42612
404844: 94906
40483c: 158808
40483f: 401311
4049cc: 549980
4049de: 1155162
4049e5: 1199107
40482f: 1225247
L1I TOTAL     ACCESS:   38036956  HIT:   38036954  MISS:          2  HIT %:        100  MISS %: 5.25804e-06   MPKI: 1e-05
L1I Test counter:          0
L1I LOAD      ACCESS:   38036956  HIT:   38036954  MISS:          2  HIT %:        100  MISS %: 5.25804e-06   MPKI: 1e-05
L1I PREFETCH  REQUESTED:          0  ISSUED:          0  USEFUL:          0  USELESS:          0
L1I USEFUL LOAD PREFETCHES:          0 PREFETCH ISSUED TO LOWER LEVEL:          0  ACCURACY: -nan
L1I TIMELY PREFETCHES:          0 LATE PREFETCHES: 0 DROPPED PREFETCHES: 0
L1I COMMIT LATE PREFETCHES: 0 MISSED OPPORTUNITY: 0 LATE IN PQ: 0 UNCOVERED: 0
L1I COMMIT LATE MSHR PREFETCHES: 0
L1I MPKI TOTAL: 1e-05 MSHR LATE: 0 PQ LATE: 0 COMMIT LATE: 0 MISSED OPPORTUNITY: 0 UNCOVERED: 0
L1I PREFETCHES SAME FILL-ORIGIN LEVEL: 0 DIFFERENT FILL-ORIGIN LEVEL: 0
L1I AVERAGE MISS LATENCY: 214 cycles
L1I AVERAGE MISS LATENCY LOAD: 214 cycles
L1I AVERAGE MISS LATENCY PREFETCH: -nan cycles
L1I AVERAGE MSHR OCCUPANCY: 2.62902e-08
L1I MSHR FULL: 0
L1I RQ	ACCESS:   61790061	FORWARD:          0	MERGED:   23753106	TO_CACHE:   38036955

403e02: 1
403dc3: 1
BTB TOTAL     ACCESS:   47317451  HIT:   44887025  MISS:    2430426  HIT %:    94.8636  MISS %:    5.13643   MPKI: 12.1521
BTB Test counter:          0
BTB BRANCH_DIRECT_JUMP	ACCESS:    5163667  HIT:    5163630  MISS:         37
BTB BRANCH_INDIRECT	ACCESS:          0  HIT:          0  MISS:          0
BTB BRANCH_CONDITIONAL	ACCESS:   31033862  HIT:   31033783  MISS:         79
BTB BRANCH_DIRECT_CALL	ACCESS:    5259752  HIT:    5259734  MISS:         18
BTB BRANCH_INDIRECT_CALL	ACCESS:     300210  HIT:     300202  MISS:          8
BTB BRANCH_RETURN	ACCESS:    5559960  HIT:    3129676  MISS:    2430284
BTB BRANCH_OTHER ACCESS:          0  HIT:          0  MISS:          0

L2C TOTAL     ACCESS:    8120505  HIT:    3727652  MISS:    4392853  HIT %:    45.9042  MISS %:    54.0958   MPKI: 21.9643
L2C Test counter:          0
L2C LOAD      ACCESS:    4869710  HIT:    2044771  MISS:    2824939  HIT %:    41.9896  MISS %:    58.0104   MPKI: 14.1247
L2C DATA LOAD MPKI: 14.1247
L2C INSTRUCTION LOAD MPKI: 1e-05
L2C RFO       ACCESS:     728622  HIT:     431737  MISS:     296885  HIT %:    59.2539  MISS %:    40.7461   MPKI: 1.48443
L2C PREFETCH  ACCESS:    1441511  HIT:     189165  MISS:    1252346  HIT %:    13.1227  MISS %:    86.8773   MPKI: 6.26173
L2C DATA PREFETCH MPKI: 6.26173
L2C INSTRUCTION PREFETCH MPKI: 0
L2C WRITEBACK ACCESS:    1038377  HIT:    1037778  MISS:        599  HIT %:    99.9423  MISS %:  0.0576862   MPKI: 0.002995
L2C LOAD TRANSLATION ACCESS:      42285  HIT:      24201  MISS:      18084  HIT %:    57.2331  MISS %:    42.7669   MPKI: 0.09042
L2C PREFETCH  REQUESTED:          0  ISSUED:          0  USEFUL:     260430  USELESS:     991954
L2C USEFUL LOAD PREFETCHES:     260430 PREFETCH ISSUED TO LOWER LEVEL:    1254282  ACCURACY: 20.7633
L2C TIMELY PREFETCHES:     260430 LATE PREFETCHES: 1936 DROPPED PREFETCHES: 0
L2C COMMIT LATE PREFETCHES: 0 MISSED OPPORTUNITY: 0 LATE IN PQ: 0 UNCOVERED: 0
L2C COMMIT LATE MSHR PREFETCHES: 0
L2C MPKI TOTAL: 14.1247 MSHR LATE: 0.00968 PQ LATE: 0 COMMIT LATE: 0 MISSED OPPORTUNITY: 0 UNCOVERED: 0
L2C PREFETCHES SAME FILL-ORIGIN LEVEL: 30084 DIFFERENT FILL-ORIGIN LEVEL: 0
L2C AVERAGE MISS LATENCY: 91.8299 cycles
L2C AVERAGE MISS LATENCY LOAD: 80.1168 cycles
L2C AVERAGE MISS LATENCY PREFETCH: 132.617 cycles
L2C AVERAGE MSHR OCCUPANCY: 1.18074
L2C MSHR FULL: 0
L2C RQ	ACCESS:    5640640	FORWARD:          0	MERGED:          0	TO_CACHE:    5640617
L2C WQ	ACCESS:    1038377	FORWARD:         25	MERGED:          0	TO_CACHE:    1038377
L2C PQ	ACCESS:    1459788	FORWARD:          0	MERGED:          0	TO_CACHE:    1459786

L2C Instructions Evicting Data 2
L2C Translations Evicting Data 17977
L2C Data Evicting Data 4356199
L2C Instructions Evicting Instructions 0
L2C Translations Evicting Instructions 0
L2C Data Evicting Instructions 2
L2C Instructions Evicting Translations 0
L2C Translations Evicting Translations 107
L2C Data Evicting Translations 17967
L2C Dense regions hint from L2: 0
4048a6: 1
403dc3: 1
403db8: 1
404076: 1
403e02: 1
4046c8: 1
403ce0: 1
403d4d: 1
4048a0: 2
404a33: 7
404ce8: 13
404ce3: 15
40459f: 23
4048cd: 24
4045e1: 28
4048aa: 34
403ca9: 35
403e50: 35
403e54: 35
403ed7: 38
403ea0: 39
403f18: 41
403e60: 74
403e64: 77
4045db: 158
4044bf: 311
40465d: 311
4045bd: 311
4044fc: 311
404826: 347
4048b1: 628
404823: 634
404a14: 699
403f02: 715
404820: 1335
4048e0: 1400
4048b8: 1937
4048bf: 2160
403ef3: 2479
403eb0: 2758
403ce9: 3373
403cc6: 3431
403ee8: 4440
4048b4: 5292
4048c3: 5982
404841: 6091
4049d6: 8680
403eb4: 10704
403e9a: 11748
403cc0: 13097
4048bc: 13818
403eec: 21244
403e90: 21291
40483c: 23227
403ee2: 26774
404844: 37236
403e94: 39790
40482f: 92704
40483f: 147616
4049cc: 236911
4049de: 1025360
4049e5: 1049108
PSCL5 TOTAL     ACCESS:      41989  HIT:      41989  MISS:          0  HIT %:        100  MISS %:          0   MPKI: 0
PSCL5 Test counter:          0
PSCL5 LOAD TRANSLATION ACCESS:      41989  HIT:      41989  MISS:          0  HIT %:        100  MISS %:          0   MPKI: 0
PSCL5 PREFETCH  REQUESTED:          0  ISSUED:          0  USEFUL:          0  USELESS:          0
PSCL5 USEFUL LOAD PREFETCHES:          0 PREFETCH ISSUED TO LOWER LEVEL:          0  ACCURACY: -nan
PSCL5 TIMELY PREFETCHES:          0 LATE PREFETCHES: 0 DROPPED PREFETCHES: 0
PSCL5 COMMIT LATE PREFETCHES: 0 MISSED OPPORTUNITY: 0 LATE IN PQ: 0 UNCOVERED: 0
PSCL5 COMMIT LATE MSHR PREFETCHES: 0
PSCL5 MPKI TOTAL: 0 MSHR LATE: 0 PQ LATE: 0 COMMIT LATE: 0 MISSED OPPORTUNITY: 0 UNCOVERED: 0
PSCL5 PREFETCHES SAME FILL-ORIGIN LEVEL: 0 DIFFERENT FILL-ORIGIN LEVEL: 0

PSCL4 TOTAL     ACCESS:      41989  HIT:      41989  MISS:          0  HIT %:        100  MISS %:          0   MPKI: 0
PSCL4 Test counter:          0
PSCL4 LOAD TRANSLATION ACCESS:      41989  HIT:      41989  MISS:          0  HIT %:        100  MISS %:          0   MPKI: 0
PSCL4 PREFETCH  REQUESTED:          0  ISSUED:          0  USEFUL:          0  USELESS:          0
PSCL4 USEFUL LOAD PREFETCHES:          0 PREFETCH ISSUED TO LOWER LEVEL:          0  ACCURACY: -nan
PSCL4 TIMELY PREFETCHES:          0 LATE PREFETCHES: 0 DROPPED PREFETCHES: 0
PSCL4 COMMIT LATE PREFETCHES: 0 MISSED OPPORTUNITY: 0 LATE IN PQ: 0 UNCOVERED: 0
PSCL4 COMMIT LATE MSHR PREFETCHES: 0
PSCL4 MPKI TOTAL: 0 MSHR LATE: 0 PQ LATE: 0 COMMIT LATE: 0 MISSED OPPORTUNITY: 0 UNCOVERED: 0
PSCL4 PREFETCHES SAME FILL-ORIGIN LEVEL: 0 DIFFERENT FILL-ORIGIN LEVEL: 0

PSCL3 TOTAL     ACCESS:      41989  HIT:      41989  MISS:          0  HIT %:        100  MISS %:          0   MPKI: 0
PSCL3 Test counter:          0
PSCL3 LOAD TRANSLATION ACCESS:      41989  HIT:      41989  MISS:          0  HIT %:        100  MISS %:          0   MPKI: 0
PSCL3 PREFETCH  REQUESTED:          0  ISSUED:          0  USEFUL:          0  USELESS:          0
PSCL3 USEFUL LOAD PREFETCHES:          0 PREFETCH ISSUED TO LOWER LEVEL:          0  ACCURACY: -nan
PSCL3 TIMELY PREFETCHES:          0 LATE PREFETCHES: 0 DROPPED PREFETCHES: 0
PSCL3 COMMIT LATE PREFETCHES: 0 MISSED OPPORTUNITY: 0 LATE IN PQ: 0 UNCOVERED: 0
PSCL3 COMMIT LATE MSHR PREFETCHES: 0
PSCL3 MPKI TOTAL: 0 MSHR LATE: 0 PQ LATE: 0 COMMIT LATE: 0 MISSED OPPORTUNITY: 0 UNCOVERED: 0
PSCL3 PREFETCHES SAME FILL-ORIGIN LEVEL: 0 DIFFERENT FILL-ORIGIN LEVEL: 0

PSCL2 TOTAL     ACCESS:      41989  HIT:      41491  MISS:        498  HIT %:     98.814  MISS %:    1.18602   MPKI: 0.00249
PSCL2 Test counter:          0
PSCL2 LOAD TRANSLATION ACCESS:      41989  HIT:      41491  MISS:        498  HIT %:     98.814  MISS %:    1.18602   MPKI: 0.00249
PSCL2 PREFETCH  REQUESTED:          0  ISSUED:          0  USEFUL:          0  USELESS:          0
PSCL2 USEFUL LOAD PREFETCHES:          0 PREFETCH ISSUED TO LOWER LEVEL:          0  ACCURACY: -nan
PSCL2 TIMELY PREFETCHES:          0 LATE PREFETCHES: 0 DROPPED PREFETCHES: 0
PSCL2 COMMIT LATE PREFETCHES: 0 MISSED OPPORTUNITY: 0 LATE IN PQ: 0 UNCOVERED: 0
PSCL2 COMMIT LATE MSHR PREFETCHES: 0
PSCL2 MPKI TOTAL: 0 MSHR LATE: 0 PQ LATE: 0 COMMIT LATE: 0 MISSED OPPORTUNITY: 0 UNCOVERED: 0
PSCL2 PREFETCHES SAME FILL-ORIGIN LEVEL: 0 DIFFERENT FILL-ORIGIN LEVEL: 0

LLC TOTAL     ACCESS:    4891931  HIT:    2852147  MISS:    2039784  HIT %:    58.3031  MISS %:    41.6969   MPKI: 10.1989
LLC Test counter:          0
LLC LOAD      ACCESS:    2822999  HIT:    1961331  MISS:     861668  HIT %:    69.4769  MISS %:    30.5231   MPKI: 4.30834
LLC RFO       ACCESS:     296875  HIT:     294228  MISS:       2647  HIT %:    99.1084  MISS %:   0.891621   MPKI: 0.013235
LLC PREFETCH  ACCESS:    1254281  HIT:      93854  MISS:    1160427  HIT %:    7.48269  MISS %:    92.5173   MPKI: 5.80213
LLC WRITEBACK ACCESS:     499692  HIT:     489935  MISS:       9757  HIT %:    98.0474  MISS %:     1.9526   MPKI: 0.048785
LLC LOAD TRANSLATION ACCESS:      18084  HIT:      12799  MISS:       5285  HIT %:    70.7753  MISS %:    29.2247   MPKI: 0.026425
LLC PREFETCH  REQUESTED:          0  ISSUED:          0  USEFUL:     141853  USELESS:    1020350
LLC USEFUL LOAD PREFETCHES:     141853 PREFETCH ISSUED TO LOWER LEVEL:    1160427  ACCURACY: 12.2242
LLC TIMELY PREFETCHES:     141853 LATE PREFETCHES: 0 DROPPED PREFETCHES: 0
LLC COMMIT LATE PREFETCHES: 0 MISSED OPPORTUNITY: 0 LATE IN PQ: 0 UNCOVERED: 0
LLC COMMIT LATE MSHR PREFETCHES: 0
LLC MPKI TOTAL: 4.30834 MSHR LATE: 0 PQ LATE: 0 COMMIT LATE: 0 MISSED OPPORTUNITY: 0 UNCOVERED: 0
LLC PREFETCHES SAME FILL-ORIGIN LEVEL: 0 DIFFERENT FILL-ORIGIN LEVEL: 0
LLC AVERAGE MISS LATENCY: 132.754 cycles
LLC AVERAGE MISS LATENCY LOAD: 163.525 cycles
LLC AVERAGE MISS LATENCY PREFETCH: 110.738 cycles
LLC AVERAGE MSHR OCCUPANCY: 1.21724
LLC MSHR FULL: 0
LLC RQ	ACCESS:    3137972	FORWARD:          0	MERGED:          0	TO_CACHE:    3137958
LLC WQ	ACCESS:     499692	FORWARD:         15	MERGED:          0	TO_CACHE:     499692
LLC PQ	ACCESS:    1254282	FORWARD:          0	MERGED:          0	TO_CACHE:    1254281

LLC Dense regions hint to LLC: 0
403e02: 1
404a14: 1
4048bf: 1
403dc3: 1
4048b8: 1
4048b4: 1
4048b1: 2
40483f: 3
4048bc: 4
404841: 4
404844: 4
40483c: 9
403f18: 13
4048c3: 23
403ea0: 28
403ed7: 32
403f02: 134
40482f: 167
403ef3: 390
403eb0: 633
403ee8: 665
403e9a: 2053
403eb4: 2128
403eec: 2600
403ee2: 3131
403ce9: 3338
403cc6: 3404
403e90: 4358
403e94: 4946
4049d6: 8580
403cc0: 10284
4049e5: 94939
4049cc: 235068
4049de: 484722

RAW hits: 3097168
Loads Generated: 70285606
Loads sent to L1D: 67188437
Stores Generated: 23674352
Stores sent to L1D: 23674381
Major fault: 0 Minor fault: 30918
Allocated PAGES: 30918
Total Load insts: 82865309
Total Non-spec loads: 18776702
Percentage of speculative loads: 77.3407
L1D response latency: 61.5815 cycles
Load retirement latency: 108.915 cycles

CPU 0 L1D PC-based stride prefetcher final stats
Degree: 3

DRAM Statistics
 CHANNEL 0
 RQ ROW_BUFFER_HIT:     898719  ROW_BUFFER_MISS:    1131297
 DBUS_CONGESTED:        134
 WQ ROW_BUFFER_HIT:       5539  ROW_BUFFER_MISS:      31600  FULL:          0

 AVG_CONGESTED_CYCLE: 5
 All warmup complete: 2
Channel 0 Bank busy for read cycles: 0
Channel 0 Bank busy for write cycles: 0
Channel 0
Rank 0
0banks busy for read cycles: 590332805
0banks busy for write cycles: 31600
1banks busy for read cycles: 59474361
1banks busy for write cycles: 5382672
2banks busy for read cycles: 28651537
2banks busy for write cycles: 561937
3banks busy for read cycles: 12309405
3banks busy for write cycles: 100883
4banks busy for read cycles: 8731337
4banks busy for write cycles: 29039
5banks busy for read cycles: 3403551
5banks busy for write cycles: 10805
6banks busy for read cycles: 939168
6banks busy for write cycles: 4904
7banks busy for read cycles: 263878
7banks busy for write cycles: 3439
8banks busy for read cycles: 187910
8banks busy for write cycles: 454

CPU 0 Branch Prediction Accuracy: 92.9349% MPKI: 17.4788 Average ROB Occupancy at Mispredict: 19.1876
Branch types
NOT_BRANCH: 150520485 75.2602%
BRANCH_DIRECT_JUMP: 5163667 2.58183%
BRANCH_INDIRECT: 0 0%
BRANCH_CONDITIONAL: 33195560 16.5978%
BRANCH_DIRECT_CALL: 5259752 2.62988%
BRANCH_INDIRECT_CALL: 300210 0.150105%
BRANCH_RETURN: 5559960 2.77998%
BRANCH_OTHER: 0 0%

DRAM PAGES: 1048576
Allocated PAGES: 30918
