
*** ChampSim Multicore Out-of-Order Simulator ***

Warmup Instructions: 50000000
Simulation Instructions: 200000000
Number of CPUs: 1
LLC sets: 2048
LLC ways: 16
Secure Berti: OFF
Berti: OFF
Berti Fill: OFF
On commit prefetching: OFF
L2 LLC Bypass speculative loads: OFF
Off-chip DRAM Size: 4096 MB Channels: 1 Width: 64-bit Data Rate: 6400 MT/s
CPU 0 runs /home/sumon/secure_berti/Berti_Baseline/../../traces/spec/605.mcf_s-994B.champsimtrace.xz
.xz
BTB has LRU replacement policy
ITLB has LRU replacement policy
DTLB has LRU replacement policy
STLB has LRU replacement policy
L1I has LRU replacement policy
CPU 0 L1D IP-based stride prefetcher
L1D has LRU replacement policy
L2C has LRU replacement policy
LLC has LRU replacement policy
Heartbeat CPU 0 instructions: 10000000 cycles: 3243346 heartbeat IPC: 3.08324 cumulative IPC: 3.08324 (Simulation time: 0 hr 0 min 24 sec) 
Heartbeat CPU 0 instructions: 20000003 cycles: 6521092 heartbeat IPC: 3.05088 cumulative IPC: 3.06697 (Simulation time: 0 hr 0 min 47 sec) 
Heartbeat CPU 0 instructions: 30000003 cycles: 9799352 heartbeat IPC: 3.0504 cumulative IPC: 3.06143 (Simulation time: 0 hr 1 min 12 sec) 
Heartbeat CPU 0 instructions: 40000002 cycles: 13057148 heartbeat IPC: 3.06956 cumulative IPC: 3.06346 (Simulation time: 0 hr 1 min 35 sec) 
Heartbeat CPU 0 instructions: 50000001 cycles: 16571778 heartbeat IPC: 2.84525 cumulative IPC: 3.01718 (Simulation time: 0 hr 1 min 59 sec) 

Warmup complete CPU 0 instructions: 50000001 cycles: 16571778 (Simulation time: 0 hr 1 min 59 sec) 

Heartbeat CPU 0 instructions: 60000000 cycles: 56636145 heartbeat IPC: 0.249598 cumulative IPC: 0.249598 (Simulation time: 0 hr 2 min 30 sec) 
Heartbeat CPU 0 instructions: 70000000 cycles: 102177876 heartbeat IPC: 0.219579 cumulative IPC: 0.233628 (Simulation time: 0 hr 3 min 3 sec) 
Heartbeat CPU 0 instructions: 80000001 cycles: 132485820 heartbeat IPC: 0.329947 cumulative IPC: 0.258812 (Simulation time: 0 hr 3 min 33 sec) 
Heartbeat CPU 0 instructions: 90000002 cycles: 163811426 heartbeat IPC: 0.319228 cumulative IPC: 0.271666 (Simulation time: 0 hr 4 min 4 sec) 
Heartbeat CPU 0 instructions: 100000001 cycles: 192833542 heartbeat IPC: 0.344565 cumulative IPC: 0.283669 (Simulation time: 0 hr 4 min 33 sec) 
Heartbeat CPU 0 instructions: 110000000 cycles: 243411166 heartbeat IPC: 0.197716 cumulative IPC: 0.264504 (Simulation time: 0 hr 5 min 7 sec) 
Heartbeat CPU 0 instructions: 120000000 cycles: 282028035 heartbeat IPC: 0.258954 cumulative IPC: 0.263697 (Simulation time: 0 hr 5 min 39 sec) 
Heartbeat CPU 0 instructions: 130000000 cycles: 315930307 heartbeat IPC: 0.294965 cumulative IPC: 0.267238 (Simulation time: 0 hr 6 min 10 sec) 
Heartbeat CPU 0 instructions: 140000000 cycles: 360056202 heartbeat IPC: 0.226624 cumulative IPC: 0.262021 (Simulation time: 0 hr 6 min 40 sec) 
Heartbeat CPU 0 instructions: 150000001 cycles: 422769139 heartbeat IPC: 0.159457 cumulative IPC: 0.246186 (Simulation time: 0 hr 7 min 18 sec) 
Heartbeat CPU 0 instructions: 160000000 cycles: 454390771 heartbeat IPC: 0.316239 cumulative IPC: 0.251245 (Simulation time: 0 hr 7 min 48 sec) 
Heartbeat CPU 0 instructions: 170000002 cycles: 479931192 heartbeat IPC: 0.391536 cumulative IPC: 0.258978 (Simulation time: 0 hr 8 min 17 sec) 
Heartbeat CPU 0 instructions: 180000000 cycles: 549615284 heartbeat IPC: 0.143505 cumulative IPC: 0.243883 (Simulation time: 0 hr 8 min 55 sec) 
Heartbeat CPU 0 instructions: 190000003 cycles: 576050659 heartbeat IPC: 0.378281 cumulative IPC: 0.250233 (Simulation time: 0 hr 9 min 24 sec) 
Heartbeat CPU 0 instructions: 200000000 cycles: 608842924 heartbeat IPC: 0.30495 cumulative IPC: 0.253262 (Simulation time: 0 hr 9 min 54 sec) 
Heartbeat CPU 0 instructions: 210000001 cycles: 655295801 heartbeat IPC: 0.215272 cumulative IPC: 0.250499 (Simulation time: 0 hr 10 min 27 sec) 
Heartbeat CPU 0 instructions: 220000000 cycles: 712944051 heartbeat IPC: 0.173466 cumulative IPC: 0.244122 (Simulation time: 0 hr 11 min 1 sec) 
Heartbeat CPU 0 instructions: 230000000 cycles: 745626064 heartbeat IPC: 0.305979 cumulative IPC: 0.246895 (Simulation time: 0 hr 11 min 30 sec) 
Heartbeat CPU 0 instructions: 240000002 cycles: 779802942 heartbeat IPC: 0.292596 cumulative IPC: 0.248942 (Simulation time: 0 hr 11 min 59 sec) 
Heartbeat CPU 0 instructions: 250000000 cycles: 806512573 heartbeat IPC: 0.374397 cumulative IPC: 0.253184 (Simulation time: 0 hr 12 min 26 sec) 
Finished CPU 0 instructions: 200000002 cycles: 789940806 cumulative IPC: 0.253184 (Simulation time: 0 hr 12 min 26 sec) 

ChampSim completed all CPUs

Region of Interest Statistics

CPU 0 cumulative IPC: 0.253184 instructions: 200000002 cycles: 789940806
ITLB TOTAL     ACCESS:   35381049  HIT:   35381049  MISS:          0  HIT %:        100  MISS %:          0   MPKI: 0
ITLB Test counter:          0
ITLB LOAD TRANSLATION ACCESS:   35381049  HIT:   35381049  MISS:          0  HIT %:        100  MISS %:          0   MPKI: 0
ITLB PREFETCH  REQUESTED:          0  ISSUED:          0  USEFUL:          0  USELESS:          0
ITLB USEFUL LOAD PREFETCHES:          0 PREFETCH ISSUED TO LOWER LEVEL:          0  ACCURACY: -nan
ITLB TIMELY PREFETCHES:          0 LATE PREFETCHES: 0 DROPPED PREFETCHES: 0
ITLB COMMIT LATE PREFETCHES: 0 MISSED OPPORTUNITY: 0 LATE IN PQ: 0 UNCOVERED: 0
ITLB COMMIT LATE MSHR PREFETCHES: 0
ITLB MPKI TOTAL: 0 MSHR LATE: 0 PQ LATE: 0 COMMIT LATE: 0 MISSED OPPORTUNITY: 0 UNCOVERED: 0
ITLB PREFETCHES SAME FILL-ORIGIN LEVEL: 0 DIFFERENT FILL-ORIGIN LEVEL: 0
ITLB AVERAGE MISS LATENCY: -nan cycles
ITLB AVERAGE MISS LATENCY LOAD: -nan cycles
ITLB AVERAGE MISS LATENCY PREFETCH: -nan cycles
ITLB AVERAGE MSHR OCCUPANCY: 0
ITLB MSHR FULL: 0
ITLB RQ	ACCESS:   36247843	FORWARD:          0	MERGED:     866795	TO_CACHE:   35381048

DTLB TOTAL     ACCESS:   64888676  HIT:   61964964  MISS:    2923712  HIT %:    95.4943  MISS %:    4.50574   MPKI: 14.6186
DTLB Test counter:          0
DTLB LOAD TRANSLATION ACCESS:   64888676  HIT:   61964964  MISS:    2923712  HIT %:    95.4943  MISS %:    4.50574   MPKI: 14.6186
DTLB PREFETCH  REQUESTED:          0  ISSUED:          0  USEFUL:          0  USELESS:          0
DTLB USEFUL LOAD PREFETCHES:          0 PREFETCH ISSUED TO LOWER LEVEL:          0  ACCURACY: -nan
DTLB TIMELY PREFETCHES:          0 LATE PREFETCHES: 0 DROPPED PREFETCHES: 0
DTLB COMMIT LATE PREFETCHES: 0 MISSED OPPORTUNITY: 0 LATE IN PQ: 0 UNCOVERED: 0
DTLB COMMIT LATE MSHR PREFETCHES: 0
DTLB MPKI TOTAL: 0 MSHR LATE: 0 PQ LATE: 0 COMMIT LATE: 0 MISSED OPPORTUNITY: 0 UNCOVERED: 0
DTLB PREFETCHES SAME FILL-ORIGIN LEVEL: 0 DIFFERENT FILL-ORIGIN LEVEL: 0
DTLB AVERAGE MISS LATENCY: 60.406 cycles
DTLB AVERAGE MISS LATENCY LOAD: -nan cycles
DTLB AVERAGE MISS LATENCY PREFETCH: -nan cycles
DTLB AVERAGE MSHR OCCUPANCY: 0.125122
DTLB MSHR FULL: 0
DTLB RQ	ACCESS:   77023760	FORWARD:          0	MERGED:   11355416	TO_CACHE:   65668344

STLB TOTAL     ACCESS:    3928468  HIT:    2483232  MISS:    1445236  HIT %:    63.2112  MISS %:    36.7888   MPKI: 7.22618
STLB Test counter:          0
STLB LOAD TRANSLATION ACCESS:    2923712  HIT:    1478849  MISS:    1444863  HIT %:    50.5812  MISS %:    49.4188   MPKI: 7.22431
STLB TRANSLATION FROM L1D PREFETCHER ACCESS:    1004756  HIT:    1004383  MISS:        373  HIT %:    99.9629  MISS %:  0.0371234   MPKI: 0.001865
STLB PREFETCH  REQUESTED:          0  ISSUED:          0  USEFUL:        336  USELESS:         37
STLB USEFUL LOAD PREFETCHES:        336 PREFETCH ISSUED TO LOWER LEVEL:          0  ACCURACY: inf
STLB TIMELY PREFETCHES:        336 LATE PREFETCHES: 0 DROPPED PREFETCHES: 0
STLB COMMIT LATE PREFETCHES: 0 MISSED OPPORTUNITY: 0 LATE IN PQ: 0 UNCOVERED: 0
STLB COMMIT LATE MSHR PREFETCHES: 0
STLB MPKI TOTAL: 0 MSHR LATE: 0 PQ LATE: 0 COMMIT LATE: 0 MISSED OPPORTUNITY: 0 UNCOVERED: 0
STLB PREFETCHES SAME FILL-ORIGIN LEVEL: 0 DIFFERENT FILL-ORIGIN LEVEL: 0
STLB AVERAGE MISS LATENCY: 103.951 cycles
STLB AVERAGE MISS LATENCY LOAD: -nan cycles
STLB AVERAGE MISS LATENCY PREFETCH: -nan cycles
STLB AVERAGE MSHR OCCUPANCY: 0.121491
STLB MSHR FULL: 0
STLB RQ	ACCESS:    5929174	FORWARD:          0	MERGED:    2000677	TO_CACHE:    3928497

STLB Hit, L1D data hit: 0
STLB Hit, L2C data hit: 0
STLB Hit, LLC data hit: 0
STLB Hit, LLC data miss: 0
STLB STLB hints to L2: 0
L1D TOTAL     ACCESS:   79897462  HIT:   72855371  MISS:    7042091  HIT %:    91.1861  MISS %:    8.81391   MPKI: 35.2105
L1D Test counter:          0
L1D LOAD      ACCESS:   56789101  HIT:   50254928  MISS:    6604590  HIT %:     88.494  MISS %:     11.506   MPKI: 32.6709
L1D RFO       ACCESS:   20105120  HIT:   20070772  MISS:      34348  HIT %:    99.8292  MISS %:   0.170842   MPKI: 0.17174
L1D PREFETCH  ACCESS:    3003241  HIT:    2529671  MISS:     473570  HIT %:    84.2314  MISS %:    15.7686   MPKI: 2.36785
L1D PREFETCH  REQUESTED:    6092987  ISSUED:    6092987  USEFUL:     432455  USELESS:      41089
L1D USEFUL LOAD PREFETCHES:     432455 PREFETCH ISSUED TO LOWER LEVEL:     474096  ACCURACY: 91.2168
L1D TIMELY PREFETCHES:     432455 LATE PREFETCHES: 318 DROPPED PREFETCHES: 0
L1D COMMIT LATE PREFETCHES: 0 MISSED OPPORTUNITY: 0 LATE IN PQ: 26 UNCOVERED: 0
L1D COMMIT LATE MSHR PREFETCHES: 0
L1D MPKI TOTAL: 33.0229 MSHR LATE: 0.00159 PQ LATE: 0.00013 COMMIT LATE: 0 MISSED OPPORTUNITY: 0 UNCOVERED: 0
L1D PREFETCHES SAME FILL-ORIGIN LEVEL: 473939 DIFFERENT FILL-ORIGIN LEVEL: 157
L1D AVERAGE MISS LATENCY: 104.715 cycles
L1D AVERAGE MISS LATENCY LOAD: 104.768 cycles
L1D AVERAGE MISS LATENCY PREFETCH: 109.765 cycles
L1D AVERAGE MSHR OCCUPANCY: 0.432422
L1D MSHR FULL: 0
L1D RQ	ACCESS:   67580061	FORWARD:          0	MERGED:    6075013	TO_CACHE:   56859516
L1D WQ	ACCESS:   20248058	FORWARD:    4645533	MERGED:      83814	TO_CACHE:   20164244
L1D PQ	ACCESS:    3087525	FORWARD:          0	MERGED:      82062	TO_CACHE:    3005462

L1D UNIQUE REGIONS ACCESSED: 0
L1D REGIONS CONFLICTS: 0
L1D Cross Page Prefetch Requests: 0
L1D Same Page Prefetch Requests: 3791250
L1D ROI Sum of L1D PQ occupancy: 40103973
L1D PREFETCHES PUSHED FROM L2C: 0
407000: 1
407045: 1
4069a6: 1
407521: 1
405d03: 5
4084b4: 5
405f7b: 6
4084b0: 7
405ccd: 8
405d23: 68
405d41: 441
404fc0: 1181
40245e: 9323
402443: 10735
402446: 12517
402440: 21048
40245c: 3122843
40244f: 3355982
L1I TOTAL     ACCESS:   36247844  HIT:   36247844  MISS:          0  HIT %:        100  MISS %:          0   MPKI: 0
L1I Test counter:          0
L1I LOAD      ACCESS:   36247844  HIT:   36247844  MISS:          0  HIT %:        100  MISS %:          0   MPKI: 0
L1I PREFETCH  REQUESTED:          0  ISSUED:          0  USEFUL:          0  USELESS:          0
L1I USEFUL LOAD PREFETCHES:          0 PREFETCH ISSUED TO LOWER LEVEL:          0  ACCURACY: -nan
L1I TIMELY PREFETCHES:          0 LATE PREFETCHES: 0 DROPPED PREFETCHES: 0
L1I COMMIT LATE PREFETCHES: 0 MISSED OPPORTUNITY: 0 LATE IN PQ: 0 UNCOVERED: 0
L1I COMMIT LATE MSHR PREFETCHES: 0
L1I MPKI TOTAL: 0 MSHR LATE: 0 PQ LATE: 0 COMMIT LATE: 0 MISSED OPPORTUNITY: 0 UNCOVERED: 0
L1I PREFETCHES SAME FILL-ORIGIN LEVEL: 0 DIFFERENT FILL-ORIGIN LEVEL: 0
L1I AVERAGE MISS LATENCY: -nan cycles
L1I AVERAGE MISS LATENCY LOAD: -nan cycles
L1I AVERAGE MISS LATENCY PREFETCH: -nan cycles
L1I AVERAGE MSHR OCCUPANCY: 0
L1I MSHR FULL: 0
L1I RQ	ACCESS:   57482676	FORWARD:          0	MERGED:   21234833	TO_CACHE:   36247843

BTB TOTAL     ACCESS:   47143244  HIT:   44382765  MISS:    2760479  HIT %:    94.1445  MISS %:    5.85551   MPKI: 13.8024
BTB Test counter:          0
BTB BRANCH_DIRECT_JUMP	ACCESS:    4520858  HIT:    4520837  MISS:         21
BTB BRANCH_INDIRECT	ACCESS:          0  HIT:          0  MISS:          0
BTB BRANCH_CONDITIONAL	ACCESS:   30060450  HIT:   30060408  MISS:         42
BTB BRANCH_DIRECT_CALL	ACCESS:    6072091  HIT:    6072078  MISS:         13
BTB BRANCH_INDIRECT_CALL	ACCESS:     208878  HIT:     208870  MISS:          8
BTB BRANCH_RETURN	ACCESS:    6280967  HIT:    3520572  MISS:    2760395
BTB BRANCH_OTHER ACCESS:          0  HIT:          0  MISS:          0

L2C TOTAL     ACCESS:    9891328  HIT:    4919326  MISS:    4972002  HIT %:    49.7337  MISS %:    50.2663   MPKI: 24.86
L2C Test counter:          0
L2C LOAD      ACCESS:    6533849  HIT:    2428534  MISS:    4105315  HIT %:    37.1685  MISS %:    62.8315   MPKI: 20.5266
L2C DATA LOAD MPKI: 20.5266
L2C INSTRUCTION LOAD MPKI: 0
L2C RFO       ACCESS:      34297  HIT:      29545  MISS:       4752  HIT %:    86.1446  MISS %:    13.8554   MPKI: 0.02376
L2C PREFETCH  ACCESS:     474087  HIT:     172837  MISS:     301250  HIT %:    36.4568  MISS %:    63.5432   MPKI: 1.50625
L2C DATA PREFETCH MPKI: 1.50625
L2C INSTRUCTION PREFETCH MPKI: 0
L2C WRITEBACK ACCESS:     472229  HIT:     471478  MISS:        751  HIT %:     99.841  MISS %:   0.159033   MPKI: 0.003755
L2C LOAD TRANSLATION ACCESS:    2376215  HIT:    1816649  MISS:     559566  HIT %:    76.4514  MISS %:    23.5486   MPKI: 2.79783
L2C TRANSLATION FROM L1D PREFETCHER ACCESS:        651  HIT:        283  MISS:        368  HIT %:    43.4716  MISS %:    56.5284   MPKI: 0.00184
L2C PREFETCH  REQUESTED:          0  ISSUED:          0  USEFUL:      15683  USELESS:     285872
L2C USEFUL LOAD PREFETCHES:      15683 PREFETCH ISSUED TO LOWER LEVEL:     301254  ACCURACY: 5.20591
L2C TIMELY PREFETCHES:      15683 LATE PREFETCHES: 4 DROPPED PREFETCHES: 0
L2C COMMIT LATE PREFETCHES: 0 MISSED OPPORTUNITY: 0 LATE IN PQ: 0 UNCOVERED: 0
L2C COMMIT LATE MSHR PREFETCHES: 0
L2C MPKI TOTAL: 20.5266 MSHR LATE: 2e-05 PQ LATE: 0 COMMIT LATE: 0 MISSED OPPORTUNITY: 0 UNCOVERED: 0
L2C PREFETCHES SAME FILL-ORIGIN LEVEL: 155 DIFFERENT FILL-ORIGIN LEVEL: 0
L2C AVERAGE MISS LATENCY: 142.362 cycles
L2C AVERAGE MISS LATENCY LOAD: 142.621 cycles
L2C AVERAGE MISS LATENCY PREFETCH: 148.893 cycles
L2C AVERAGE MSHR OCCUPANCY: 0.775283
L2C MSHR FULL: 0
L2C RQ	ACCESS:    8945018	FORWARD:          0	MERGED:          0	TO_CACHE:    8945012
L2C WQ	ACCESS:     472229	FORWARD:          9	MERGED:          0	TO_CACHE:     472229
L2C PQ	ACCESS:     474096	FORWARD:          0	MERGED:          0	TO_CACHE:     474093

L2C Instructions Evicting Data 0
L2C Translations Evicting Data 485801
L2C Data Evicting Data 3924363
L2C Instructions Evicting Instructions 0
L2C Translations Evicting Instructions 0
L2C Data Evicting Instructions 0
L2C Instructions Evicting Translations 0
L2C Translations Evicting Translations 74133
L2C Data Evicting Translations 486954
L2C Dense regions hint from L2: 0
405d03: 1
405ccd: 6
4084b0: 6
405d23: 22
405d41: 61
404fc0: 126
40245e: 837
402446: 1293
402443: 1304
402440: 9503
40245c: 1896282
40244f: 2195874
PSCL5 TOTAL     ACCESS:    1445236  HIT:    1445236  MISS:          0  HIT %:        100  MISS %:          0   MPKI: 0
PSCL5 Test counter:          0
PSCL5 LOAD TRANSLATION ACCESS:    1444863  HIT:    1444863  MISS:          0  HIT %:        100  MISS %:          0   MPKI: 0
PSCL5 TRANSLATION FROM L1D PREFETCHER ACCESS:        373  HIT:        373  MISS:          0  HIT %:        100  MISS %:          0   MPKI: 0
PSCL5 PREFETCH  REQUESTED:          0  ISSUED:          0  USEFUL:          0  USELESS:          0
PSCL5 USEFUL LOAD PREFETCHES:          0 PREFETCH ISSUED TO LOWER LEVEL:          0  ACCURACY: -nan
PSCL5 TIMELY PREFETCHES:          0 LATE PREFETCHES: 0 DROPPED PREFETCHES: 0
PSCL5 COMMIT LATE PREFETCHES: 0 MISSED OPPORTUNITY: 0 LATE IN PQ: 0 UNCOVERED: 0
PSCL5 COMMIT LATE MSHR PREFETCHES: 0
PSCL5 MPKI TOTAL: 0 MSHR LATE: 0 PQ LATE: 0 COMMIT LATE: 0 MISSED OPPORTUNITY: 0 UNCOVERED: 0
PSCL5 PREFETCHES SAME FILL-ORIGIN LEVEL: 0 DIFFERENT FILL-ORIGIN LEVEL: 0

PSCL4 TOTAL     ACCESS:    1445236  HIT:    1445236  MISS:          0  HIT %:        100  MISS %:          0   MPKI: 0
PSCL4 Test counter:          0
PSCL4 LOAD TRANSLATION ACCESS:    1444863  HIT:    1444863  MISS:          0  HIT %:        100  MISS %:          0   MPKI: 0
PSCL4 TRANSLATION FROM L1D PREFETCHER ACCESS:        373  HIT:        373  MISS:          0  HIT %:        100  MISS %:          0   MPKI: 0
PSCL4 PREFETCH  REQUESTED:          0  ISSUED:          0  USEFUL:          0  USELESS:          0
PSCL4 USEFUL LOAD PREFETCHES:          0 PREFETCH ISSUED TO LOWER LEVEL:          0  ACCURACY: -nan
PSCL4 TIMELY PREFETCHES:          0 LATE PREFETCHES: 0 DROPPED PREFETCHES: 0
PSCL4 COMMIT LATE PREFETCHES: 0 MISSED OPPORTUNITY: 0 LATE IN PQ: 0 UNCOVERED: 0
PSCL4 COMMIT LATE MSHR PREFETCHES: 0
PSCL4 MPKI TOTAL: 0 MSHR LATE: 0 PQ LATE: 0 COMMIT LATE: 0 MISSED OPPORTUNITY: 0 UNCOVERED: 0
PSCL4 PREFETCHES SAME FILL-ORIGIN LEVEL: 0 DIFFERENT FILL-ORIGIN LEVEL: 0

PSCL3 TOTAL     ACCESS:    1445236  HIT:    1445236  MISS:          0  HIT %:        100  MISS %:          0   MPKI: 0
PSCL3 Test counter:          0
PSCL3 LOAD TRANSLATION ACCESS:    1444863  HIT:    1444863  MISS:          0  HIT %:        100  MISS %:          0   MPKI: 0
PSCL3 TRANSLATION FROM L1D PREFETCHER ACCESS:        373  HIT:        373  MISS:          0  HIT %:        100  MISS %:          0   MPKI: 0
PSCL3 PREFETCH  REQUESTED:          0  ISSUED:          0  USEFUL:          0  USELESS:          0
PSCL3 USEFUL LOAD PREFETCHES:          0 PREFETCH ISSUED TO LOWER LEVEL:          0  ACCURACY: -nan
PSCL3 TIMELY PREFETCHES:          0 LATE PREFETCHES: 0 DROPPED PREFETCHES: 0
PSCL3 COMMIT LATE PREFETCHES: 0 MISSED OPPORTUNITY: 0 LATE IN PQ: 0 UNCOVERED: 0
PSCL3 COMMIT LATE MSHR PREFETCHES: 0
PSCL3 MPKI TOTAL: 0 MSHR LATE: 0 PQ LATE: 0 COMMIT LATE: 0 MISSED OPPORTUNITY: 0 UNCOVERED: 0
PSCL3 PREFETCHES SAME FILL-ORIGIN LEVEL: 0 DIFFERENT FILL-ORIGIN LEVEL: 0

PSCL2 TOTAL     ACCESS:    1445236  HIT:     513599  MISS:     931637  HIT %:    35.5374  MISS %:    64.4626   MPKI: 4.65818
PSCL2 Test counter:          0
PSCL2 LOAD TRANSLATION ACCESS:    1445141  HIT:     513504  MISS:     931637  HIT %:    35.5331  MISS %:    64.4669   MPKI: 4.65818
PSCL2 TRANSLATION FROM L1D PREFETCHER ACCESS:         95  HIT:         95  MISS:          0  HIT %:        100  MISS %:          0   MPKI: 0
PSCL2 PREFETCH  REQUESTED:          0  ISSUED:          0  USEFUL:          0  USELESS:          0
PSCL2 USEFUL LOAD PREFETCHES:          0 PREFETCH ISSUED TO LOWER LEVEL:          0  ACCURACY: -nan
PSCL2 TIMELY PREFETCHES:          0 LATE PREFETCHES: 0 DROPPED PREFETCHES: 0
PSCL2 COMMIT LATE PREFETCHES: 0 MISSED OPPORTUNITY: 0 LATE IN PQ: 0 UNCOVERED: 0
PSCL2 COMMIT LATE MSHR PREFETCHES: 0
PSCL2 MPKI TOTAL: 0 MSHR LATE: 0 PQ LATE: 0 COMMIT LATE: 0 MISSED OPPORTUNITY: 0 UNCOVERED: 0
PSCL2 PREFETCHES SAME FILL-ORIGIN LEVEL: 0 DIFFERENT FILL-ORIGIN LEVEL: 0

LLC TOTAL     ACCESS:    5256716  HIT:    2077858  MISS:    3178858  HIT %:    39.5277  MISS %:    60.4723   MPKI: 15.8943
LLC Test counter:          0
LLC LOAD      ACCESS:    4105311  HIT:    1465302  MISS:    2640009  HIT %:    35.6928  MISS %:    64.3072   MPKI: 13.2
LLC RFO       ACCESS:       4752  HIT:       3243  MISS:       1509  HIT %:    68.2449  MISS %:    31.7551   MPKI: 0.007545
LLC PREFETCH  ACCESS:     301253  HIT:      99399  MISS:     201854  HIT %:    32.9952  MISS %:    67.0048   MPKI: 1.00927
LLC WRITEBACK ACCESS:     285466  HIT:     285264  MISS:        202  HIT %:    99.9292  MISS %:  0.0707615   MPKI: 0.00101
LLC LOAD TRANSLATION ACCESS:     559566  HIT:     224374  MISS:     335192  HIT %:    40.0979  MISS %:    59.9021   MPKI: 1.67596
LLC TRANSLATION FROM L1D PREFETCHER ACCESS:        368  HIT:        276  MISS:         92  HIT %:         75  MISS %:         25   MPKI: 0.00046
LLC PREFETCH  REQUESTED:          0  ISSUED:          0  USEFUL:       3678  USELESS:     197311
LLC USEFUL LOAD PREFETCHES:       3678 PREFETCH ISSUED TO LOWER LEVEL:     201854  ACCURACY: 1.82211
LLC TIMELY PREFETCHES:       3678 LATE PREFETCHES: 0 DROPPED PREFETCHES: 0
LLC COMMIT LATE PREFETCHES: 0 MISSED OPPORTUNITY: 0 LATE IN PQ: 0 UNCOVERED: 0
LLC COMMIT LATE MSHR PREFETCHES: 0
LLC MPKI TOTAL: 13.2 MSHR LATE: 0 PQ LATE: 0 COMMIT LATE: 0 MISSED OPPORTUNITY: 0 UNCOVERED: 0
LLC PREFETCHES SAME FILL-ORIGIN LEVEL: 0 DIFFERENT FILL-ORIGIN LEVEL: 0
LLC AVERAGE MISS LATENCY: 175.574 cycles
LLC AVERAGE MISS LATENCY LOAD: 174.939 cycles
LLC AVERAGE MISS LATENCY PREFETCH: 177.154 cycles
LLC AVERAGE MSHR OCCUPANCY: 0.847015
LLC MSHR FULL: 0
LLC RQ	ACCESS:    4669997	FORWARD:          0	MERGED:          0	TO_CACHE:    4669997
LLC WQ	ACCESS:     285466	FORWARD:          1	MERGED:          0	TO_CACHE:     285466
LLC PQ	ACCESS:     301254	FORWARD:          0	MERGED:          0	TO_CACHE:     301253

LLC Dense regions hint to LLC: 0
405ccd: 5
4084b0: 5
405d41: 10
405d23: 11
404fc0: 24
40245e: 223
402443: 288
402446: 299
402440: 5969
40245c: 1163137
40244f: 1470038

RAW hits: 1806034
Loads Generated: 69386095
Loads sent to L1D: 67580061
Stores Generated: 20248054
Stores sent to L1D: 20248058
Major fault: 0 Minor fault: 167265
Allocated PAGES: 167265
Total Load insts: 83321271
Total Non-spec loads: 16015937
Percentage of speculative loads: 80.7781
L1D response latency: 104.773 cycles
Load retirement latency: 179.382 cycles

CPU 0 L1D PC-based stride prefetcher final stats
Degree: 3

DRAM Statistics
 CHANNEL 0
 RQ ROW_BUFFER_HIT:     151042  ROW_BUFFER_MISS:    3027611
 DBUS_CONGESTED:        316
 WQ ROW_BUFFER_HIT:      67275  ROW_BUFFER_MISS:     120078  FULL:          0

 AVG_CONGESTED_CYCLE: 4
 All warmup complete: 2
Channel 0 Bank busy for read cycles: 0
Channel 0 Bank busy for write cycles: 0
Channel 0
Rank 0
0banks busy for read cycles: 484518692
0banks busy for write cycles: 135364
1banks busy for read cycles: 139732590
1banks busy for write cycles: 28198992
2banks busy for read cycles: 85592626
2banks busy for write cycles: 5938847
3banks busy for read cycles: 29010723
3banks busy for write cycles: 1337580
4banks busy for read cycles: 11744777
4banks busy for write cycles: 341554
5banks busy for read cycles: 2649720
5banks busy for write cycles: 103972
6banks busy for read cycles: 500252
6banks busy for write cycles: 38073
7banks busy for read cycles: 67650
7banks busy for write cycles: 18179
8banks busy for read cycles: 5380
8banks busy for write cycles: 5836

CPU 0 Branch Prediction Accuracy: 94.7162% MPKI: 13.0983 Average ROB Occupancy at Mispredict: 23.092
Branch types
NOT_BRANCH: 150420417 75.2102%
BRANCH_DIRECT_JUMP: 4520858 2.26043%
BRANCH_INDIRECT: 0 0%
BRANCH_CONDITIONAL: 32496416 16.2482%
BRANCH_DIRECT_CALL: 6072091 3.03605%
BRANCH_INDIRECT_CALL: 208878 0.104439%
BRANCH_RETURN: 6280967 3.14048%
BRANCH_OTHER: 0 0%

DRAM PAGES: 1048576
Allocated PAGES: 167265
