
*** ChampSim Multicore Out-of-Order Simulator ***

Warmup Instructions: 50000000
Simulation Instructions: 200000000
Number of CPUs: 1
LLC sets: 2048
LLC ways: 16
Secure Berti: OFF
Berti: OFF
Berti Fill: OFF
On commit prefetching: OFF
L2 LLC Bypass speculative loads: OFF
Off-chip DRAM Size: 4096 MB Channels: 1 Width: 64-bit Data Rate: 6400 MT/s
CPU 0 runs /home/sumon/secure_berti/Berti_Baseline/../../traces/spec/605.mcf_s-1152B.champsimtrace.xz
.xz
BTB has LRU replacement policy
ITLB has LRU replacement policy
DTLB has LRU replacement policy
STLB has LRU replacement policy
L1I has LRU replacement policy
CPU 0 L1D IP-based stride prefetcher
L1D has LRU replacement policy
L2C has LRU replacement policy
LLC has LRU replacement policy
Heartbeat CPU 0 instructions: 10000001 cycles: 3326844 heartbeat IPC: 3.00585 cumulative IPC: 3.00585 (Simulation time: 0 hr 0 min 24 sec) 
Heartbeat CPU 0 instructions: 20000000 cycles: 6655606 heartbeat IPC: 3.00412 cumulative IPC: 3.00499 (Simulation time: 0 hr 0 min 48 sec) 
Heartbeat CPU 0 instructions: 30000001 cycles: 9981634 heartbeat IPC: 3.00659 cumulative IPC: 3.00552 (Simulation time: 0 hr 1 min 12 sec) 
Heartbeat CPU 0 instructions: 40000001 cycles: 13310215 heartbeat IPC: 3.00428 cumulative IPC: 3.00521 (Simulation time: 0 hr 1 min 36 sec) 
Heartbeat CPU 0 instructions: 50000001 cycles: 16642045 heartbeat IPC: 3.00135 cumulative IPC: 3.00444 (Simulation time: 0 hr 1 min 59 sec) 

Warmup complete CPU 0 instructions: 50000001 cycles: 16642045 (Simulation time: 0 hr 1 min 59 sec) 

Heartbeat CPU 0 instructions: 60000001 cycles: 53624873 heartbeat IPC: 0.270396 cumulative IPC: 0.270396 (Simulation time: 0 hr 2 min 30 sec) 
Heartbeat CPU 0 instructions: 70000001 cycles: 90975580 heartbeat IPC: 0.267733 cumulative IPC: 0.269058 (Simulation time: 0 hr 3 min 0 sec) 
Heartbeat CPU 0 instructions: 80000001 cycles: 127863410 heartbeat IPC: 0.271092 cumulative IPC: 0.269732 (Simulation time: 0 hr 3 min 31 sec) 
Heartbeat CPU 0 instructions: 90000003 cycles: 165013099 heartbeat IPC: 0.269181 cumulative IPC: 0.269594 (Simulation time: 0 hr 4 min 2 sec) 
Heartbeat CPU 0 instructions: 100000001 cycles: 202319567 heartbeat IPC: 0.26805 cumulative IPC: 0.269284 (Simulation time: 0 hr 4 min 33 sec) 
Heartbeat CPU 0 instructions: 110000000 cycles: 239594887 heartbeat IPC: 0.268274 cumulative IPC: 0.269115 (Simulation time: 0 hr 5 min 4 sec) 
Heartbeat CPU 0 instructions: 120000002 cycles: 277017308 heartbeat IPC: 0.26722 cumulative IPC: 0.268843 (Simulation time: 0 hr 5 min 35 sec) 
Heartbeat CPU 0 instructions: 130000002 cycles: 314775046 heartbeat IPC: 0.264846 cumulative IPC: 0.268337 (Simulation time: 0 hr 6 min 8 sec) 
Heartbeat CPU 0 instructions: 140000003 cycles: 353058914 heartbeat IPC: 0.261207 cumulative IPC: 0.267525 (Simulation time: 0 hr 6 min 40 sec) 
Heartbeat CPU 0 instructions: 150000001 cycles: 391122157 heartbeat IPC: 0.262721 cumulative IPC: 0.267037 (Simulation time: 0 hr 7 min 14 sec) 
Heartbeat CPU 0 instructions: 160000000 cycles: 429326171 heartbeat IPC: 0.261753 cumulative IPC: 0.266548 (Simulation time: 0 hr 7 min 48 sec) 
Heartbeat CPU 0 instructions: 170000001 cycles: 468296702 heartbeat IPC: 0.256604 cumulative IPC: 0.26569 (Simulation time: 0 hr 8 min 22 sec) 
Heartbeat CPU 0 instructions: 180000003 cycles: 506917645 heartbeat IPC: 0.258927 cumulative IPC: 0.265157 (Simulation time: 0 hr 8 min 58 sec) 
Heartbeat CPU 0 instructions: 190000002 cycles: 546179916 heartbeat IPC: 0.254697 cumulative IPC: 0.264381 (Simulation time: 0 hr 9 min 33 sec) 
Heartbeat CPU 0 instructions: 200000001 cycles: 585948356 heartbeat IPC: 0.251456 cumulative IPC: 0.263479 (Simulation time: 0 hr 10 min 7 sec) 
Heartbeat CPU 0 instructions: 210000002 cycles: 625668113 heartbeat IPC: 0.251764 cumulative IPC: 0.262715 (Simulation time: 0 hr 10 min 42 sec) 
Heartbeat CPU 0 instructions: 220000000 cycles: 664587385 heartbeat IPC: 0.256942 cumulative IPC: 0.262368 (Simulation time: 0 hr 11 min 15 sec) 
Heartbeat CPU 0 instructions: 230000002 cycles: 703539025 heartbeat IPC: 0.256729 cumulative IPC: 0.262048 (Simulation time: 0 hr 11 min 47 sec) 
Heartbeat CPU 0 instructions: 240000001 cycles: 746806139 heartbeat IPC: 0.231122 cumulative IPC: 0.260215 (Simulation time: 0 hr 12 min 20 sec) 
Heartbeat CPU 0 instructions: 250000001 cycles: 787752102 heartbeat IPC: 0.244224 cumulative IPC: 0.259366 (Simulation time: 0 hr 12 min 51 sec) 
Finished CPU 0 instructions: 200000000 cycles: 771110057 cumulative IPC: 0.259366 (Simulation time: 0 hr 12 min 51 sec) 

ChampSim completed all CPUs

Region of Interest Statistics

CPU 0 cumulative IPC: 0.259366 instructions: 200000000 cycles: 771110057
ITLB TOTAL     ACCESS:   34705749  HIT:   34705749  MISS:          0  HIT %:        100  MISS %:          0   MPKI: 0
ITLB Test counter:          0
ITLB LOAD TRANSLATION ACCESS:   34705749  HIT:   34705749  MISS:          0  HIT %:        100  MISS %:          0   MPKI: 0
ITLB PREFETCH  REQUESTED:          0  ISSUED:          0  USEFUL:          0  USELESS:          0
ITLB USEFUL LOAD PREFETCHES:          0 PREFETCH ISSUED TO LOWER LEVEL:          0  ACCURACY: -nan
ITLB TIMELY PREFETCHES:          0 LATE PREFETCHES: 0 DROPPED PREFETCHES: 0
ITLB COMMIT LATE PREFETCHES: 0 MISSED OPPORTUNITY: 0 LATE IN PQ: 0 UNCOVERED: 0
ITLB COMMIT LATE MSHR PREFETCHES: 0
ITLB MPKI TOTAL: 0 MSHR LATE: 0 PQ LATE: 0 COMMIT LATE: 0 MISSED OPPORTUNITY: 0 UNCOVERED: 0
ITLB PREFETCHES SAME FILL-ORIGIN LEVEL: 0 DIFFERENT FILL-ORIGIN LEVEL: 0
ITLB AVERAGE MISS LATENCY: -nan cycles
ITLB AVERAGE MISS LATENCY LOAD: -nan cycles
ITLB AVERAGE MISS LATENCY PREFETCH: -nan cycles
ITLB AVERAGE MSHR OCCUPANCY: 0
ITLB MSHR FULL: 0
ITLB RQ	ACCESS:   36167916	FORWARD:          0	MERGED:    1462167	TO_CACHE:   34705749

DTLB TOTAL     ACCESS:   55067708  HIT:   47757760  MISS:    7309948  HIT %:    86.7255  MISS %:    13.2745   MPKI: 36.5497
DTLB Test counter:          0
DTLB LOAD TRANSLATION ACCESS:   55067708  HIT:   47757760  MISS:    7309948  HIT %:    86.7255  MISS %:    13.2745   MPKI: 36.5497
DTLB PREFETCH  REQUESTED:          0  ISSUED:          0  USEFUL:          0  USELESS:          0
DTLB USEFUL LOAD PREFETCHES:          0 PREFETCH ISSUED TO LOWER LEVEL:          0  ACCURACY: -nan
DTLB TIMELY PREFETCHES:          0 LATE PREFETCHES: 0 DROPPED PREFETCHES: 0
DTLB COMMIT LATE PREFETCHES: 0 MISSED OPPORTUNITY: 0 LATE IN PQ: 0 UNCOVERED: 0
DTLB COMMIT LATE MSHR PREFETCHES: 0
DTLB MPKI TOTAL: 0 MSHR LATE: 0 PQ LATE: 0 COMMIT LATE: 0 MISSED OPPORTUNITY: 0 UNCOVERED: 0
DTLB PREFETCHES SAME FILL-ORIGIN LEVEL: 0 DIFFERENT FILL-ORIGIN LEVEL: 0
DTLB AVERAGE MISS LATENCY: 10.9204 cycles
DTLB AVERAGE MISS LATENCY LOAD: -nan cycles
DTLB AVERAGE MISS LATENCY PREFETCH: -nan cycles
DTLB AVERAGE MSHR OCCUPANCY: 0.079091
DTLB MSHR FULL: 0
DTLB RQ	ACCESS:   66759892	FORWARD:          0	MERGED:   11283914	TO_CACHE:   55475978

STLB TOTAL     ACCESS:   10476897  HIT:   10377229  MISS:      99668  HIT %:    99.0487  MISS %:   0.951312   MPKI: 0.49834
STLB Test counter:          0
STLB LOAD TRANSLATION ACCESS:    7309948  HIT:    7210280  MISS:      99668  HIT %:    98.6365  MISS %:    1.36346   MPKI: 0.49834
STLB TRANSLATION FROM L1D PREFETCHER ACCESS:    3166949  HIT:    3166949  MISS:          0  HIT %:        100  MISS %:          0   MPKI: 0
STLB PREFETCH  REQUESTED:          0  ISSUED:          0  USEFUL:          0  USELESS:          0
STLB USEFUL LOAD PREFETCHES:          0 PREFETCH ISSUED TO LOWER LEVEL:          0  ACCURACY: -nan
STLB TIMELY PREFETCHES:          0 LATE PREFETCHES: 0 DROPPED PREFETCHES: 0
STLB COMMIT LATE PREFETCHES: 0 MISSED OPPORTUNITY: 0 LATE IN PQ: 0 UNCOVERED: 0
STLB COMMIT LATE MSHR PREFETCHES: 0
STLB MPKI TOTAL: 0 MSHR LATE: 0 PQ LATE: 0 COMMIT LATE: 0 MISSED OPPORTUNITY: 0 UNCOVERED: 0
STLB PREFETCHES SAME FILL-ORIGIN LEVEL: 0 DIFFERENT FILL-ORIGIN LEVEL: 0
STLB AVERAGE MISS LATENCY: 120.517 cycles
STLB AVERAGE MISS LATENCY LOAD: -nan cycles
STLB AVERAGE MISS LATENCY PREFETCH: -nan cycles
STLB AVERAGE MSHR OCCUPANCY: 0.0107904
STLB MSHR FULL: 0
STLB RQ	ACCESS:   17187844	FORWARD:          0	MERGED:    6710947	TO_CACHE:   10476897

STLB Hit, L1D data hit: 0
STLB Hit, L2C data hit: 0
STLB Hit, LLC data hit: 0
STLB Hit, LLC data miss: 0
STLB STLB hints to L2: 0
L1D TOTAL     ACCESS:   70869478  HIT:   56871883  MISS:   13997595  HIT %:    80.2488  MISS %:    19.7512   MPKI: 69.988
L1D Test counter:          0
L1D LOAD      ACCESS:   48744818  HIT:   37170924  MISS:   11893026  HIT %:    76.2562  MISS %:    23.7438   MPKI: 57.8695
L1D RFO       ACCESS:   16677842  HIT:   16091348  MISS:     586494  HIT %:    96.4834  MISS %:    3.51661   MPKI: 2.93247
L1D PREFETCH  ACCESS:    5446818  HIT:    3609611  MISS:    1837207  HIT %:    66.2701  MISS %:    33.7299   MPKI: 9.18604
L1D PREFETCH  REQUESTED:   21573988  ISSUED:   21573988  USEFUL:    1792143  USELESS:      45063
L1D USEFUL LOAD PREFETCHES:    1792143 PREFETCH ISSUED TO LOWER LEVEL:    3547297  ACCURACY: 50.5214
L1D TIMELY PREFETCHES:    1792143 LATE PREFETCHES: 1388838 DROPPED PREFETCHES: 0
L1D COMMIT LATE PREFETCHES: 0 MISSED OPPORTUNITY: 0 LATE IN PQ: 683788 UNCOVERED: 0
L1D COMMIT LATE MSHR PREFETCHES: 0
L1D MPKI TOTAL: 59.4651 MSHR LATE: 6.94419 PQ LATE: 3.41894 COMMIT LATE: 0 MISSED OPPORTUNITY: 0 UNCOVERED: 0
L1D PREFETCHES SAME FILL-ORIGIN LEVEL: 3226047 DIFFERENT FILL-ORIGIN LEVEL: 321250
L1D AVERAGE MISS LATENCY: 71.9349 cycles
L1D AVERAGE MISS LATENCY LOAD: 64.7798 cycles
L1D AVERAGE MISS LATENCY PREFETCH: 130.078 cycles
L1D AVERAGE MSHR OCCUPANCY: 0.97428
L1D MSHR FULL: 0
L1D RQ	ACCESS:   68225490	FORWARD:          0	MERGED:   17415204	TO_CACHE:   49063951
L1D WQ	ACCESS:   17802933	FORWARD:    1746336	MERGED:     106992	TO_CACHE:   17695941
L1D PQ	ACCESS:   11696092	FORWARD:          0	MERGED:    1818195	TO_CACHE:    9877896

L1D UNIQUE REGIONS ACCESSED: 0
L1D REGIONS CONFLICTS: 0
L1D Cross Page Prefetch Requests: 0
L1D Same Page Prefetch Requests: 14246868
L1D ROI Sum of L1D PQ occupancy: 129799082
L1D PREFETCHES PUSHED FROM L2C: 0
403d28: 1
403d20: 2
403d76: 3
403db8: 3
404cae: 3
405d03: 4
403e42: 4
403d86: 6
403d6c: 6
403d44: 7
403d17: 9
403e6e: 10
403d8d: 16
404ce3: 17
4046c8: 17
404684: 18
404648: 19
404fc0: 20
403d13: 22
404629: 23
4044b7: 24
404652: 25
403cf4: 25
4048cd: 30
403d4d: 38
403ce0: 59
403f18: 74
403ca9: 108
403ea0: 109
4045e1: 126
4084b0: 137
405d23: 142
403ed7: 145
4048e9: 192
405ccd: 207
405d41: 238
4048a6: 373
404a4b: 462
404a08: 488
404cda: 682
40459f: 701
4045db: 871
4048a0: 933
40465d: 950
4044fc: 950
4045bd: 950
4044bf: 950
403e50: 976
403e54: 1043
403f02: 1386
403e60: 2389
403e64: 2478
4048b8: 3202
404a14: 3382
403ef3: 4536
403ee8: 6342
4048e0: 6834
4048aa: 7109
4048c3: 7127
404823: 7537
404826: 7697
403eb0: 8034
404820: 8312
4048bf: 9043
403cc6: 10534
403ce9: 11123
404076: 18026
40409b: 18390
4048b1: 25416
404841: 27306
403eb4: 28015
403eec: 30178
403e9a: 37254
403ee2: 37629
403cc0: 42228
4048bc: 50663
403e94: 54830
4048b4: 54845
403e90: 56970
404844: 63529
40483c: 149067
4049d6: 219098
40483f: 351758
40482f: 499945
4049cc: 2382701
4049de: 3590398
4049e5: 3716365
L1I TOTAL     ACCESS:   36167916  HIT:   36167914  MISS:          2  HIT %:        100  MISS %: 5.52976e-06   MPKI: 1e-05
L1I Test counter:          0
L1I LOAD      ACCESS:   36167916  HIT:   36167914  MISS:          2  HIT %:        100  MISS %: 5.52976e-06   MPKI: 1e-05
L1I PREFETCH  REQUESTED:          0  ISSUED:          0  USEFUL:          0  USELESS:          0
L1I USEFUL LOAD PREFETCHES:          0 PREFETCH ISSUED TO LOWER LEVEL:          0  ACCURACY: -nan
L1I TIMELY PREFETCHES:          0 LATE PREFETCHES: 0 DROPPED PREFETCHES: 0
L1I COMMIT LATE PREFETCHES: 0 MISSED OPPORTUNITY: 0 LATE IN PQ: 0 UNCOVERED: 0
L1I COMMIT LATE MSHR PREFETCHES: 0
L1I MPKI TOTAL: 1e-05 MSHR LATE: 0 PQ LATE: 0 COMMIT LATE: 0 MISSED OPPORTUNITY: 0 UNCOVERED: 0
L1I PREFETCHES SAME FILL-ORIGIN LEVEL: 0 DIFFERENT FILL-ORIGIN LEVEL: 0
L1I AVERAGE MISS LATENCY: 214 cycles
L1I AVERAGE MISS LATENCY LOAD: 214 cycles
L1I AVERAGE MISS LATENCY PREFETCH: -nan cycles
L1I AVERAGE MSHR OCCUPANCY: 2.76488e-08
L1I MSHR FULL: 0
L1I RQ	ACCESS:   55311477	FORWARD:          0	MERGED:   19143561	TO_CACHE:   36167916

403e02: 1
403dc3: 1
BTB TOTAL     ACCESS:   49743916  HIT:   48131262  MISS:    1612654  HIT %:    96.7581  MISS %:    3.24191   MPKI: 8.06327
BTB Test counter:          0
BTB BRANCH_DIRECT_JUMP	ACCESS:    5836928  HIT:    5836891  MISS:         37
BTB BRANCH_INDIRECT	ACCESS:          0  HIT:          0  MISS:          0
BTB BRANCH_CONDITIONAL	ACCESS:   36112465  HIT:   36112386  MISS:         79
BTB BRANCH_DIRECT_CALL	ACCESS:    3647058  HIT:    3647040  MISS:         18
BTB BRANCH_INDIRECT_CALL	ACCESS:     250202  HIT:     250194  MISS:          8
BTB BRANCH_RETURN	ACCESS:    3897263  HIT:    2284751  MISS:    1612512
BTB BRANCH_OTHER ACCESS:          0  HIT:          0  MISS:          0

L2C TOTAL     ACCESS:   15172935  HIT:    3714987  MISS:   11457948  HIT %:    24.4843  MISS %:    75.5157   MPKI: 57.2897
L2C Test counter:          0
L2C LOAD      ACCESS:   10185029  HIT:    2234650  MISS:    7950379  HIT %:    21.9405  MISS %:    78.0595   MPKI: 39.7519
L2C DATA LOAD MPKI: 39.7519
L2C INSTRUCTION LOAD MPKI: 1e-05
L2C RFO       ACCESS:     586490  HIT:     318172  MISS:     268318  HIT %:    54.2502  MISS %:    45.7498   MPKI: 1.34159
L2C PREFETCH  ACCESS:    3365730  HIT:     163221  MISS:    3202509  HIT %:     4.8495  MISS %:    95.1505   MPKI: 16.0125
L2C DATA PREFETCH MPKI: 16.0125
L2C INSTRUCTION PREFETCH MPKI: 0
L2C WRITEBACK ACCESS:     935408  HIT:     934044  MISS:       1364  HIT %:    99.8542  MISS %:   0.145819   MPKI: 0.00682
L2C LOAD TRANSLATION ACCESS:     100278  HIT:      64900  MISS:      35378  HIT %:    64.7201  MISS %:    35.2799   MPKI: 0.17689
L2C PREFETCH  REQUESTED:          0  ISSUED:          0  USEFUL:     265672  USELESS:    2937257
L2C USEFUL LOAD PREFETCHES:     265672 PREFETCH ISSUED TO LOWER LEVEL:    3244306  ACCURACY: 8.18887
L2C TIMELY PREFETCHES:     265672 LATE PREFETCHES: 41797 DROPPED PREFETCHES: 0
L2C COMMIT LATE PREFETCHES: 0 MISSED OPPORTUNITY: 0 LATE IN PQ: 0 UNCOVERED: 0
L2C COMMIT LATE MSHR PREFETCHES: 0
L2C MPKI TOTAL: 39.7519 MSHR LATE: 0.208985 PQ LATE: 0 COMMIT LATE: 0 MISSED OPPORTUNITY: 0 UNCOVERED: 0
L2C PREFETCHES SAME FILL-ORIGIN LEVEL: 245772 DIFFERENT FILL-ORIGIN LEVEL: 0
L2C AVERAGE MISS LATENCY: 89.6057 cycles
L2C AVERAGE MISS LATENCY LOAD: 74.8044 cycles
L2C AVERAGE MISS LATENCY PREFETCH: 130.838 cycles
L2C AVERAGE MSHR OCCUPANCY: 2.5066
L2C MSHR FULL: 0
L2C RQ	ACCESS:   10871828	FORWARD:          0	MERGED:          0	TO_CACHE:   10871797
L2C WQ	ACCESS:     935408	FORWARD:         33	MERGED:          0	TO_CACHE:     935408
L2C PQ	ACCESS:    3547297	FORWARD:          0	MERGED:          1	TO_CACHE:    3547294

L2C Instructions Evicting Data 2
L2C Translations Evicting Data 35302
L2C Data Evicting Data 11385912
L2C Instructions Evicting Instructions 0
L2C Translations Evicting Instructions 0
L2C Data Evicting Instructions 2
L2C Instructions Evicting Translations 0
L2C Translations Evicting Translations 76
L2C Data Evicting Translations 35290
L2C Dense regions hint from L2: 0
403dc3: 1
403e02: 1
4048e9: 1
403d13: 1
403d28: 1
403d86: 1
404a4b: 1
403cf4: 2
4046c8: 2
403d4d: 2
403d44: 2
403d76: 2
403d6c: 2
403db8: 2
403e6e: 2
404684: 2
4044b7: 2
403d20: 2
403e64: 3
404cae: 3
403e60: 4
4048a6: 5
403d8d: 7
4048a0: 8
403ce0: 11
4048cd: 29
403e54: 53
403e50: 53
403ca9: 67
403f18: 72
40459f: 78
4045e1: 90
403ea0: 109
4048aa: 120
403ed7: 144
4045db: 252
404a14: 272
4048b1: 387
4044bf: 939
4044fc: 948
4045bd: 948
40465d: 950
403f02: 1285
404826: 1638
404823: 2028
4048c3: 2590
4048b8: 2975
404820: 3402
403ef3: 4080
4048b4: 5012
4048e0: 6185
403ee8: 6259
403eb0: 7762
4048bf: 8311
403cc6: 10529
403ce9: 10771
404841: 11030
403eec: 25535
404844: 25950
403eb4: 26355
403e9a: 30490
403ee2: 33085
403cc0: 40723
4048bc: 43542
403e94: 49859
403e90: 51908
40483c: 53707
4049d6: 62671
40482f: 133649
40483f: 134241
4049cc: 1083309
4049de: 2926399
4049e5: 3139518
PSCL5 TOTAL     ACCESS:      99668  HIT:      99668  MISS:          0  HIT %:        100  MISS %:          0   MPKI: 0
PSCL5 Test counter:          0
PSCL5 LOAD TRANSLATION ACCESS:      99668  HIT:      99668  MISS:          0  HIT %:        100  MISS %:          0   MPKI: 0
PSCL5 PREFETCH  REQUESTED:          0  ISSUED:          0  USEFUL:          0  USELESS:          0
PSCL5 USEFUL LOAD PREFETCHES:          0 PREFETCH ISSUED TO LOWER LEVEL:          0  ACCURACY: -nan
PSCL5 TIMELY PREFETCHES:          0 LATE PREFETCHES: 0 DROPPED PREFETCHES: 0
PSCL5 COMMIT LATE PREFETCHES: 0 MISSED OPPORTUNITY: 0 LATE IN PQ: 0 UNCOVERED: 0
PSCL5 COMMIT LATE MSHR PREFETCHES: 0
PSCL5 MPKI TOTAL: 0 MSHR LATE: 0 PQ LATE: 0 COMMIT LATE: 0 MISSED OPPORTUNITY: 0 UNCOVERED: 0
PSCL5 PREFETCHES SAME FILL-ORIGIN LEVEL: 0 DIFFERENT FILL-ORIGIN LEVEL: 0

PSCL4 TOTAL     ACCESS:      99668  HIT:      99668  MISS:          0  HIT %:        100  MISS %:          0   MPKI: 0
PSCL4 Test counter:          0
PSCL4 LOAD TRANSLATION ACCESS:      99668  HIT:      99668  MISS:          0  HIT %:        100  MISS %:          0   MPKI: 0
PSCL4 PREFETCH  REQUESTED:          0  ISSUED:          0  USEFUL:          0  USELESS:          0
PSCL4 USEFUL LOAD PREFETCHES:          0 PREFETCH ISSUED TO LOWER LEVEL:          0  ACCURACY: -nan
PSCL4 TIMELY PREFETCHES:          0 LATE PREFETCHES: 0 DROPPED PREFETCHES: 0
PSCL4 COMMIT LATE PREFETCHES: 0 MISSED OPPORTUNITY: 0 LATE IN PQ: 0 UNCOVERED: 0
PSCL4 COMMIT LATE MSHR PREFETCHES: 0
PSCL4 MPKI TOTAL: 0 MSHR LATE: 0 PQ LATE: 0 COMMIT LATE: 0 MISSED OPPORTUNITY: 0 UNCOVERED: 0
PSCL4 PREFETCHES SAME FILL-ORIGIN LEVEL: 0 DIFFERENT FILL-ORIGIN LEVEL: 0

PSCL3 TOTAL     ACCESS:      99668  HIT:      99668  MISS:          0  HIT %:        100  MISS %:          0   MPKI: 0
PSCL3 Test counter:          0
PSCL3 LOAD TRANSLATION ACCESS:      99668  HIT:      99668  MISS:          0  HIT %:        100  MISS %:          0   MPKI: 0
PSCL3 PREFETCH  REQUESTED:          0  ISSUED:          0  USEFUL:          0  USELESS:          0
PSCL3 USEFUL LOAD PREFETCHES:          0 PREFETCH ISSUED TO LOWER LEVEL:          0  ACCURACY: -nan
PSCL3 TIMELY PREFETCHES:          0 LATE PREFETCHES: 0 DROPPED PREFETCHES: 0
PSCL3 COMMIT LATE PREFETCHES: 0 MISSED OPPORTUNITY: 0 LATE IN PQ: 0 UNCOVERED: 0
PSCL3 COMMIT LATE MSHR PREFETCHES: 0
PSCL3 MPKI TOTAL: 0 MSHR LATE: 0 PQ LATE: 0 COMMIT LATE: 0 MISSED OPPORTUNITY: 0 UNCOVERED: 0
PSCL3 PREFETCHES SAME FILL-ORIGIN LEVEL: 0 DIFFERENT FILL-ORIGIN LEVEL: 0

PSCL2 TOTAL     ACCESS:      99668  HIT:      98674  MISS:        994  HIT %:    99.0027  MISS %:   0.997311   MPKI: 0.00497
PSCL2 Test counter:          0
PSCL2 LOAD TRANSLATION ACCESS:      99668  HIT:      98674  MISS:        994  HIT %:    99.0027  MISS %:   0.997311   MPKI: 0.00497
PSCL2 PREFETCH  REQUESTED:          0  ISSUED:          0  USEFUL:          0  USELESS:          0
PSCL2 USEFUL LOAD PREFETCHES:          0 PREFETCH ISSUED TO LOWER LEVEL:          0  ACCURACY: -nan
PSCL2 TIMELY PREFETCHES:          0 LATE PREFETCHES: 0 DROPPED PREFETCHES: 0
PSCL2 COMMIT LATE PREFETCHES: 0 MISSED OPPORTUNITY: 0 LATE IN PQ: 0 UNCOVERED: 0
PSCL2 COMMIT LATE MSHR PREFETCHES: 0
PSCL2 MPKI TOTAL: 0 MSHR LATE: 0 PQ LATE: 0 COMMIT LATE: 0 MISSED OPPORTUNITY: 0 UNCOVERED: 0
PSCL2 PREFETCHES SAME FILL-ORIGIN LEVEL: 0 DIFFERENT FILL-ORIGIN LEVEL: 0

LLC TOTAL     ACCESS:   12077402  HIT:    6484055  MISS:    5593347  HIT %:    53.6875  MISS %:    46.3125   MPKI: 27.9667
LLC Test counter:          0
LLC LOAD      ACCESS:    7908579  HIT:    5517280  MISS:    2391299  HIT %:    69.7632  MISS %:    30.2368   MPKI: 11.9565
LLC RFO       ACCESS:     268317  HIT:     262771  MISS:       5546  HIT %:     97.933  MISS %:    2.06696   MPKI: 0.02773
LLC PREFETCH  ACCESS:    3244306  HIT:      70553  MISS:    3173753  HIT %:    2.17467  MISS %:    97.8253   MPKI: 15.8688
LLC WRITEBACK ACCESS:     620822  HIT:     613067  MISS:       7755  HIT %:    98.7508  MISS %:    1.24915   MPKI: 0.038775
LLC LOAD TRANSLATION ACCESS:      35378  HIT:      20384  MISS:      14994  HIT %:    57.6177  MISS %:    42.3823   MPKI: 0.07497
LLC PREFETCH  REQUESTED:          0  ISSUED:          0  USEFUL:      85625  USELESS:    3088970
LLC USEFUL LOAD PREFETCHES:      85625 PREFETCH ISSUED TO LOWER LEVEL:    3173753  ACCURACY: 2.69791
LLC TIMELY PREFETCHES:      85625 LATE PREFETCHES: 0 DROPPED PREFETCHES: 0
LLC COMMIT LATE PREFETCHES: 0 MISSED OPPORTUNITY: 0 LATE IN PQ: 0 UNCOVERED: 0
LLC COMMIT LATE MSHR PREFETCHES: 0
LLC MPKI TOTAL: 11.9565 MSHR LATE: 0 PQ LATE: 0 COMMIT LATE: 0 MISSED OPPORTUNITY: 0 UNCOVERED: 0
LLC PREFETCHES SAME FILL-ORIGIN LEVEL: 0 DIFFERENT FILL-ORIGIN LEVEL: 0
LLC AVERAGE MISS LATENCY: 121.664 cycles
LLC AVERAGE MISS LATENCY LOAD: 146.586 cycles
LLC AVERAGE MISS LATENCY PREFETCH: 102.822 cycles
LLC AVERAGE MSHR OCCUPANCY: 1.83508
LLC MSHR FULL: 0
LLC RQ	ACCESS:    8212278	FORWARD:          0	MERGED:          0	TO_CACHE:    8212274
LLC WQ	ACCESS:     620822	FORWARD:          4	MERGED:          0	TO_CACHE:     620822
LLC PQ	ACCESS:    3244306	FORWARD:          0	MERGED:          0	TO_CACHE:    3244306

LLC Dense regions hint to LLC: 0
404cae: 1
403d20: 1
403dc3: 1
403e02: 1
404844: 1
403d4d: 1
403d76: 1
4044bf: 1
403db8: 1
4048e9: 1
403e6e: 1
40465d: 2
404684: 2
403d8d: 2
404826: 4
404a14: 4
403e54: 5
4048b8: 6
404841: 8
4048e0: 12
4048bf: 18
4048b1: 19
40483f: 24
403f18: 26
4048aa: 30
4048b4: 44
40483c: 56
4048c3: 59
403ea0: 63
4048bc: 85
403ed7: 86
403f02: 156
40482f: 228
403ef3: 412
403eb0: 522
403ee8: 698
403eb4: 1683
403e9a: 2194
403eec: 2535
403ee2: 2875
403e90: 4036
403e94: 4621
403cc6: 10494
403ce9: 10594
403cc0: 30495
4049d6: 60151
4049e5: 93750
4049cc: 1044032
4049de: 1121257

RAW hits: 2427491
Loads Generated: 70652983
Loads sent to L1D: 68225490
Stores Generated: 17802933
Stores sent to L1D: 17802933
Major fault: 0 Minor fault: 80635
Allocated PAGES: 80635
Total Load insts: 84335093
Total Non-spec loads: 15706972
Percentage of speculative loads: 81.3755
L1D response latency: 73.6132 cycles
Load retirement latency: 162.118 cycles

CPU 0 L1D PC-based stride prefetcher final stats
Degree: 3

DRAM Statistics
 CHANNEL 0
 RQ ROW_BUFFER_HIT:    3174487  ROW_BUFFER_MISS:    2411081
 DBUS_CONGESTED:        580
 WQ ROW_BUFFER_HIT:       8774  ROW_BUFFER_MISS:      57803  FULL:          0

 AVG_CONGESTED_CYCLE: 4
 All warmup complete: 2
Channel 0 Bank busy for read cycles: 0
Channel 0 Bank busy for write cycles: 0
Channel 0
Rank 0
0banks busy for read cycles: 520082600
0banks busy for write cycles: 40437
1banks busy for read cycles: 111757602
1banks busy for write cycles: 7164235
2banks busy for read cycles: 58700008
2banks busy for write cycles: 840570
3banks busy for read cycles: 29850946
3banks busy for write cycles: 288580
4banks busy for read cycles: 21912050
4banks busy for write cycles: 169201
5banks busy for read cycles: 11146376
5banks busy for write cycles: 132356
6banks busy for read cycles: 4438220
6banks busy for write cycles: 107580
7banks busy for read cycles: 1899022
7banks busy for write cycles: 111610
8banks busy for read cycles: 2298846
8banks busy for write cycles: 169819

CPU 0 Branch Prediction Accuracy: 94.5902% MPKI: 13.9808 Average ROB Occupancy at Mispredict: 27.0269
Branch types
NOT_BRANCH: 148312417 74.1562%
BRANCH_DIRECT_JUMP: 5836928 2.91846%
BRANCH_INDIRECT: 0 0%
BRANCH_CONDITIONAL: 38055866 19.0279%
BRANCH_DIRECT_CALL: 3647058 1.82353%
BRANCH_INDIRECT_CALL: 250202 0.125101%
BRANCH_RETURN: 3897263 1.94863%
BRANCH_OTHER: 0 0%

DRAM PAGES: 1048576
Allocated PAGES: 80635
