
*** ChampSim Multicore Out-of-Order Simulator ***

Warmup Instructions: 50000000
Simulation Instructions: 200000000
Number of CPUs: 1
LLC sets: 2048
LLC ways: 16
Secure Berti: OFF
Berti: OFF
Berti Fill: OFF
On commit prefetching: OFF
L2 LLC Bypass speculative loads: OFF
Off-chip DRAM Size: 4096 MB Channels: 1 Width: 64-bit Data Rate: 6400 MT/s
CPU 0 runs /home/sumon/secure_berti/Berti_Baseline/../../traces/spec/605.mcf_s-1644B.champsimtrace.xz
.xz
BTB has LRU replacement policy
ITLB has LRU replacement policy
DTLB has LRU replacement policy
STLB has LRU replacement policy
L1I has LRU replacement policy
CPU 0 L1D IP-based stride prefetcher
L1D has LRU replacement policy
L2C has LRU replacement policy
LLC has LRU replacement policy
Heartbeat CPU 0 instructions: 10000003 cycles: 5089588 heartbeat IPC: 1.9648 cumulative IPC: 1.9648 (Simulation time: 0 hr 0 min 31 sec) 
Heartbeat CPU 0 instructions: 20000001 cycles: 10177319 heartbeat IPC: 1.96551 cumulative IPC: 1.96515 (Simulation time: 0 hr 1 min 1 sec) 
Heartbeat CPU 0 instructions: 30000002 cycles: 15269474 heartbeat IPC: 1.96381 cumulative IPC: 1.9647 (Simulation time: 0 hr 1 min 32 sec) 
Heartbeat CPU 0 instructions: 40000000 cycles: 20350233 heartbeat IPC: 1.96821 cumulative IPC: 1.96558 (Simulation time: 0 hr 2 min 3 sec) 
Heartbeat CPU 0 instructions: 50000000 cycles: 25425376 heartbeat IPC: 1.97039 cumulative IPC: 1.96654 (Simulation time: 0 hr 2 min 33 sec) 

Warmup complete CPU 0 instructions: 50000004 cycles: 25425377 (Simulation time: 0 hr 2 min 33 sec) 

Heartbeat CPU 0 instructions: 60000001 cycles: 89739487 heartbeat IPC: 0.155487 cumulative IPC: 0.155487 (Simulation time: 0 hr 3 min 46 sec) 
Heartbeat CPU 0 instructions: 70000000 cycles: 154138073 heartbeat IPC: 0.155283 cumulative IPC: 0.155385 (Simulation time: 0 hr 5 min 0 sec) 
Heartbeat CPU 0 instructions: 80000000 cycles: 219025660 heartbeat IPC: 0.154113 cumulative IPC: 0.154958 (Simulation time: 0 hr 6 min 14 sec) 
Heartbeat CPU 0 instructions: 90000000 cycles: 283810083 heartbeat IPC: 0.154358 cumulative IPC: 0.154808 (Simulation time: 0 hr 7 min 28 sec) 
Heartbeat CPU 0 instructions: 100000001 cycles: 349656159 heartbeat IPC: 0.151869 cumulative IPC: 0.154211 (Simulation time: 0 hr 8 min 44 sec) 
Heartbeat CPU 0 instructions: 110000000 cycles: 415773029 heartbeat IPC: 0.151247 cumulative IPC: 0.153709 (Simulation time: 0 hr 9 min 58 sec) 
Heartbeat CPU 0 instructions: 120000000 cycles: 481936672 heartbeat IPC: 0.15114 cumulative IPC: 0.153337 (Simulation time: 0 hr 11 min 12 sec) 
Heartbeat CPU 0 instructions: 130000000 cycles: 547593779 heartbeat IPC: 0.152306 cumulative IPC: 0.153207 (Simulation time: 0 hr 12 min 25 sec) 
Heartbeat CPU 0 instructions: 140000003 cycles: 611716293 heartbeat IPC: 0.155952 cumulative IPC: 0.153507 (Simulation time: 0 hr 13 min 34 sec) 
Heartbeat CPU 0 instructions: 150000002 cycles: 673163521 heartbeat IPC: 0.162741 cumulative IPC: 0.154383 (Simulation time: 0 hr 14 min 43 sec) 
Heartbeat CPU 0 instructions: 160000002 cycles: 733444877 heartbeat IPC: 0.165889 cumulative IPC: 0.155363 (Simulation time: 0 hr 15 min 52 sec) 
Heartbeat CPU 0 instructions: 170000000 cycles: 795104926 heartbeat IPC: 0.16218 cumulative IPC: 0.155909 (Simulation time: 0 hr 16 min 59 sec) 
Heartbeat CPU 0 instructions: 180000000 cycles: 856911489 heartbeat IPC: 0.161795 cumulative IPC: 0.156347 (Simulation time: 0 hr 18 min 5 sec) 
Heartbeat CPU 0 instructions: 190000000 cycles: 918378390 heartbeat IPC: 0.162689 cumulative IPC: 0.156783 (Simulation time: 0 hr 19 min 11 sec) 
Heartbeat CPU 0 instructions: 200000001 cycles: 981114315 heartbeat IPC: 0.159398 cumulative IPC: 0.156955 (Simulation time: 0 hr 20 min 18 sec) 
Heartbeat CPU 0 instructions: 210000000 cycles: 1043857588 heartbeat IPC: 0.15938 cumulative IPC: 0.157104 (Simulation time: 0 hr 21 min 25 sec) 
Heartbeat CPU 0 instructions: 220000000 cycles: 1106447577 heartbeat IPC: 0.15977 cumulative IPC: 0.157259 (Simulation time: 0 hr 22 min 31 sec) 
Heartbeat CPU 0 instructions: 230000001 cycles: 1168908205 heartbeat IPC: 0.160101 cumulative IPC: 0.157414 (Simulation time: 0 hr 23 min 38 sec) 
Heartbeat CPU 0 instructions: 240000002 cycles: 1231781210 heartbeat IPC: 0.159051 cumulative IPC: 0.157499 (Simulation time: 0 hr 24 min 45 sec) 
Heartbeat CPU 0 instructions: 250000001 cycles: 1294745113 heartbeat IPC: 0.158821 cumulative IPC: 0.157565 (Simulation time: 0 hr 25 min 51 sec) 
Finished CPU 0 instructions: 200000001 cycles: 1269319737 cumulative IPC: 0.157565 (Simulation time: 0 hr 25 min 51 sec) 

ChampSim completed all CPUs

Region of Interest Statistics

CPU 0 cumulative IPC: 0.157565 instructions: 200000001 cycles: 1269319737
ITLB TOTAL     ACCESS:   35056888  HIT:   35056888  MISS:          0  HIT %:        100  MISS %:          0   MPKI: 0
ITLB Test counter:          0
ITLB LOAD TRANSLATION ACCESS:   35056888  HIT:   35056888  MISS:          0  HIT %:        100  MISS %:          0   MPKI: 0
ITLB PREFETCH  REQUESTED:          0  ISSUED:          0  USEFUL:          0  USELESS:          0
ITLB USEFUL LOAD PREFETCHES:          0 PREFETCH ISSUED TO LOWER LEVEL:          0  ACCURACY: -nan
ITLB TIMELY PREFETCHES:          0 LATE PREFETCHES: 0 DROPPED PREFETCHES: 0
ITLB COMMIT LATE PREFETCHES: 0 MISSED OPPORTUNITY: 0 LATE IN PQ: 0 UNCOVERED: 0
ITLB COMMIT LATE MSHR PREFETCHES: 0
ITLB MPKI TOTAL: 0 MSHR LATE: 0 PQ LATE: 0 COMMIT LATE: 0 MISSED OPPORTUNITY: 0 UNCOVERED: 0
ITLB PREFETCHES SAME FILL-ORIGIN LEVEL: 0 DIFFERENT FILL-ORIGIN LEVEL: 0
ITLB AVERAGE MISS LATENCY: -nan cycles
ITLB AVERAGE MISS LATENCY LOAD: -nan cycles
ITLB AVERAGE MISS LATENCY PREFETCH: -nan cycles
ITLB AVERAGE MSHR OCCUPANCY: 0
ITLB MSHR FULL: 0
ITLB RQ	ACCESS:   35136459	FORWARD:          0	MERGED:      79572	TO_CACHE:   35056887

DTLB TOTAL     ACCESS:   82583386  HIT:   76945058  MISS:    5638328  HIT %:    93.1726  MISS %:    6.82744   MPKI: 28.1916
DTLB Test counter:          0
DTLB LOAD TRANSLATION ACCESS:   82583386  HIT:   76945058  MISS:    5638328  HIT %:    93.1726  MISS %:    6.82744   MPKI: 28.1916
DTLB PREFETCH  REQUESTED:          0  ISSUED:          0  USEFUL:          0  USELESS:          0
DTLB USEFUL LOAD PREFETCHES:          0 PREFETCH ISSUED TO LOWER LEVEL:          0  ACCURACY: -nan
DTLB TIMELY PREFETCHES:          0 LATE PREFETCHES: 0 DROPPED PREFETCHES: 0
DTLB COMMIT LATE PREFETCHES: 0 MISSED OPPORTUNITY: 0 LATE IN PQ: 0 UNCOVERED: 0
DTLB COMMIT LATE MSHR PREFETCHES: 0
DTLB MPKI TOTAL: 0 MSHR LATE: 0 PQ LATE: 0 COMMIT LATE: 0 MISSED OPPORTUNITY: 0 UNCOVERED: 0
DTLB PREFETCHES SAME FILL-ORIGIN LEVEL: 0 DIFFERENT FILL-ORIGIN LEVEL: 0
DTLB AVERAGE MISS LATENCY: 862.956 cycles
DTLB AVERAGE MISS LATENCY LOAD: -nan cycles
DTLB AVERAGE MISS LATENCY PREFETCH: -nan cycles
DTLB AVERAGE MSHR OCCUPANCY: 5.26571
DTLB MSHR FULL: 0.408259
DTLB RQ	ACCESS:  129675928	FORWARD:          0	MERGED:   15156543	TO_CACHE:  114519385

STLB TOTAL     ACCESS:   12373595  HIT:    7547233  MISS:    4826362  HIT %:    60.9947  MISS %:    39.0053   MPKI: 24.1318
STLB Test counter:          0
STLB LOAD TRANSLATION ACCESS:    5638328  HIT:     811970  MISS:    4826358  HIT %:    14.4009  MISS %:    85.5991   MPKI: 24.1318
STLB TRANSLATION FROM L1D PREFETCHER ACCESS:    6735267  HIT:    6735263  MISS:          4  HIT %:    99.9999  MISS %: 5.93889e-05   MPKI: 2e-05
STLB PREFETCH  REQUESTED:          0  ISSUED:          0  USEFUL:          0  USELESS:          4
STLB USEFUL LOAD PREFETCHES:          0 PREFETCH ISSUED TO LOWER LEVEL:          0  ACCURACY: -nan
STLB TIMELY PREFETCHES:          0 LATE PREFETCHES: 0 DROPPED PREFETCHES: 0
STLB COMMIT LATE PREFETCHES: 0 MISSED OPPORTUNITY: 0 LATE IN PQ: 0 UNCOVERED: 0
STLB COMMIT LATE MSHR PREFETCHES: 0
STLB MPKI TOTAL: 0 MSHR LATE: 0 PQ LATE: 0 COMMIT LATE: 0 MISSED OPPORTUNITY: 0 UNCOVERED: 0
STLB PREFETCHES SAME FILL-ORIGIN LEVEL: 0 DIFFERENT FILL-ORIGIN LEVEL: 0
STLB AVERAGE MISS LATENCY: 997.573 cycles
STLB AVERAGE MISS LATENCY LOAD: -nan cycles
STLB AVERAGE MISS LATENCY PREFETCH: -nan cycles
STLB AVERAGE MSHR OCCUPANCY: 3.51406
STLB MSHR FULL: 0
STLB RQ	ACCESS:   27574293	FORWARD:          0	MERGED:   15200692	TO_CACHE:   12373601

STLB Hit, L1D data hit: 0
STLB Hit, L2C data hit: 0
STLB Hit, LLC data hit: 0
STLB Hit, LLC data miss: 0
STLB STLB hints to L2: 0
L1D TOTAL     ACCESS:  113062559  HIT:   95015429  MISS:   18047130  HIT %:    84.0379  MISS %:    15.9621   MPKI: 90.2356
L1D Test counter:          0
L1D LOAD      ACCESS:   59151530  HIT:   53055070  MISS:    6650524  HIT %:    89.6935  MISS %:    10.3065   MPKI: 30.4823
L1D RFO       ACCESS:   39360699  HIT:   30614082  MISS:    8746617  HIT %:    77.7783  MISS %:    22.2217   MPKI: 43.7331
L1D PREFETCH  ACCESS:   14550330  HIT:   11346277  MISS:    3204053  HIT %:    77.9795  MISS %:    22.0205   MPKI: 16.0203
L1D PREFETCH  REQUESTED:   48064396  ISSUED:   48064396  USEFUL:    3100222  USELESS:     103844
L1D USEFUL LOAD PREFETCHES:    3100222 PREFETCH ISSUED TO LOWER LEVEL:    4976199  ACCURACY: 62.301
L1D TIMELY PREFETCHES:    3100222 LATE PREFETCHES: 1313115 DROPPED PREFETCHES: 0
L1D COMMIT LATE PREFETCHES: 0 MISSED OPPORTUNITY: 0 LATE IN PQ: 370335 UNCOVERED: 0
L1D COMMIT LATE MSHR PREFETCHES: 0
L1D MPKI TOTAL: 33.2526 MSHR LATE: 6.56557 PQ LATE: 1.85167 COMMIT LATE: 0 MISSED OPPORTUNITY: 0 UNCOVERED: 0
L1D PREFETCHES SAME FILL-ORIGIN LEVEL: 4517170 DIFFERENT FILL-ORIGIN LEVEL: 459029
L1D AVERAGE MISS LATENCY: 270.863 cycles
L1D AVERAGE MISS LATENCY LOAD: 120.355 cycles
L1D AVERAGE MISS LATENCY PREFETCH: 308.662 cycles
L1D AVERAGE MSHR OCCUPANCY: 4.59779
L1D MSHR FULL: 0.0012527
L1D RQ	ACCESS:   78605825	FORWARD:          0	MERGED:   17350621	TO_CACHE:   59705594
L1D WQ	ACCESS:   69973103	FORWARD:    1549780	MERGED:       2769	TO_CACHE:   69970334
L1D PQ	ACCESS:   26128437	FORWARD:          0	MERGED:    4192308	TO_CACHE:   21935959

L1D UNIQUE REGIONS ACCESSED: 0
L1D REGIONS CONFLICTS: 0
L1D Cross Page Prefetch Requests: 0
L1D Same Page Prefetch Requests: 33425846
L1D ROI Sum of L1D PQ occupancy: 288955363
L1D PREFETCHES PUSHED FROM L2C: 0
4033f0: 422
4033c9: 42447
4033b5: 114759
4033a0: 1728788
4033b9: 4210044
L1I TOTAL     ACCESS:   35136460  HIT:   35136460  MISS:          0  HIT %:        100  MISS %:          0   MPKI: 0
L1I Test counter:          0
L1I LOAD      ACCESS:   35136460  HIT:   35136460  MISS:          0  HIT %:        100  MISS %:          0   MPKI: 0
L1I PREFETCH  REQUESTED:          0  ISSUED:          0  USEFUL:          0  USELESS:          0
L1I USEFUL LOAD PREFETCHES:          0 PREFETCH ISSUED TO LOWER LEVEL:          0  ACCURACY: -nan
L1I TIMELY PREFETCHES:          0 LATE PREFETCHES: 0 DROPPED PREFETCHES: 0
L1I COMMIT LATE PREFETCHES: 0 MISSED OPPORTUNITY: 0 LATE IN PQ: 0 UNCOVERED: 0
L1I COMMIT LATE MSHR PREFETCHES: 0
L1I MPKI TOTAL: 0 MSHR LATE: 0 PQ LATE: 0 COMMIT LATE: 0 MISSED OPPORTUNITY: 0 UNCOVERED: 0
L1I PREFETCHES SAME FILL-ORIGIN LEVEL: 0 DIFFERENT FILL-ORIGIN LEVEL: 0
L1I AVERAGE MISS LATENCY: -nan cycles
L1I AVERAGE MISS LATENCY LOAD: -nan cycles
L1I AVERAGE MISS LATENCY PREFETCH: -nan cycles
L1I AVERAGE MSHR OCCUPANCY: 0
L1I MSHR FULL: 0
L1I RQ	ACCESS:   59323206	FORWARD:          0	MERGED:   24186747	TO_CACHE:   35136459

BTB TOTAL     ACCESS:   20480033  HIT:   20480028  MISS:          5  HIT %:        100  MISS %: 2.4414e-05   MPKI: 2.5e-05
BTB Test counter:          0
BTB BRANCH_DIRECT_JUMP	ACCESS:    2986815  HIT:    2986814  MISS:          1
BTB BRANCH_INDIRECT	ACCESS:          0  HIT:          0  MISS:          0
BTB BRANCH_CONDITIONAL	ACCESS:    8746594  HIT:    8746592  MISS:          2
BTB BRANCH_DIRECT_CALL	ACCESS:    4373312  HIT:    4373311  MISS:          1
BTB BRANCH_INDIRECT_CALL	ACCESS:          0  HIT:          0  MISS:          0
BTB BRANCH_RETURN	ACCESS:    4373312  HIT:    4373311  MISS:          1
BTB BRANCH_OTHER ACCESS:          0  HIT:          0  MISS:          0

L2C TOTAL     ACCESS:   43124182  HIT:   21982697  MISS:   21141485  HIT %:    50.9753  MISS %:    49.0247   MPKI: 105.707
L2C Test counter:          0
L2C LOAD      ACCESS:    4783316  HIT:    1089665  MISS:    3693652  HIT %:    22.7805  MISS %:    77.2195   MPKI: 18.4683
L2C DATA LOAD MPKI: 18.4683
L2C INSTRUCTION LOAD MPKI: 0
L2C RFO       ACCESS:    8746617  HIT:       1520  MISS:    8745097  HIT %:  0.0173781  MISS %:    99.9826   MPKI: 43.7255
L2C PREFETCH  ACCESS:    4739188  HIT:     166176  MISS:    4573012  HIT %:    3.50642  MISS %:    96.4936   MPKI: 22.8651
L2C DATA PREFETCH MPKI: 22.8651
L2C INSTRUCTION PREFETCH MPKI: 0
L2C WRITEBACK ACCESS:   17943286  HIT:   17937320  MISS:       5966  HIT %:    99.9668  MISS %:  0.0332492   MPKI: 0.02983
L2C LOAD TRANSLATION ACCESS:    6911767  HIT:    2788011  MISS:    4123756  HIT %:    40.3372  MISS %:    59.6628   MPKI: 20.6188
L2C TRANSLATION FROM L1D PREFETCHER ACCESS:          8  HIT:          5  MISS:          3  HIT %:       62.5  MISS %:       37.5   MPKI: 1.5e-05
L2C PREFETCH  REQUESTED:          0  ISSUED:          0  USEFUL:      41831  USELESS:    4531344
L2C USEFUL LOAD PREFETCHES:      41831 PREFETCH ISSUED TO LOWER LEVEL:    4614342  ACCURACY: 0.906543
L2C TIMELY PREFETCHES:      41831 LATE PREFETCHES: 41327 DROPPED PREFETCHES: 0
L2C COMMIT LATE PREFETCHES: 0 MISSED OPPORTUNITY: 0 LATE IN PQ: 0 UNCOVERED: 0
L2C COMMIT LATE MSHR PREFETCHES: 0
L2C MPKI TOTAL: 18.4683 MSHR LATE: 0.206635 PQ LATE: 0 COMMIT LATE: 0 MISSED OPPORTUNITY: 0 UNCOVERED: 0
L2C PREFETCHES SAME FILL-ORIGIN LEVEL: 362129 DIFFERENT FILL-ORIGIN LEVEL: 0
L2C AVERAGE MISS LATENCY: 298.52 cycles
L2C AVERAGE MISS LATENCY LOAD: 179.122 cycles
L2C AVERAGE MISS LATENCY PREFETCH: 337.882 cycles
L2C AVERAGE MSHR OCCUPANCY: 3.79108
L2C MSHR FULL: 0
L2C RQ	ACCESS:   20441743	FORWARD:          0	MERGED:          0	TO_CACHE:   20441713
L2C WQ	ACCESS:   17943286	FORWARD:         30	MERGED:          0	TO_CACHE:   17943286
L2C PQ	ACCESS:    4976199	FORWARD:          0	MERGED:         69	TO_CACHE:    4976130

L2C Instructions Evicting Data 0
L2C Translations Evicting Data 3317707
L2C Data Evicting Data 13695211
L2C Instructions Evicting Instructions 0
L2C Translations Evicting Instructions 0
L2C Data Evicting Instructions 0
L2C Instructions Evicting Translations 0
L2C Translations Evicting Translations 806052
L2C Data Evicting Translations 3316549
L2C Dense regions hint from L2: 0
4033f0: 195
4033c9: 19586
4033b5: 20445
4033a0: 479784
4033b9: 3173641
PSCL5 TOTAL     ACCESS:    4826363  HIT:    4826363  MISS:          0  HIT %:        100  MISS %:          0   MPKI: 0
PSCL5 Test counter:          0
PSCL5 LOAD TRANSLATION ACCESS:    4826359  HIT:    4826359  MISS:          0  HIT %:        100  MISS %:          0   MPKI: 0
PSCL5 TRANSLATION FROM L1D PREFETCHER ACCESS:          4  HIT:          4  MISS:          0  HIT %:        100  MISS %:          0   MPKI: 0
PSCL5 PREFETCH  REQUESTED:          0  ISSUED:          0  USEFUL:          0  USELESS:          0
PSCL5 USEFUL LOAD PREFETCHES:          0 PREFETCH ISSUED TO LOWER LEVEL:          0  ACCURACY: -nan
PSCL5 TIMELY PREFETCHES:          0 LATE PREFETCHES: 0 DROPPED PREFETCHES: 0
PSCL5 COMMIT LATE PREFETCHES: 0 MISSED OPPORTUNITY: 0 LATE IN PQ: 0 UNCOVERED: 0
PSCL5 COMMIT LATE MSHR PREFETCHES: 0
PSCL5 MPKI TOTAL: 0 MSHR LATE: 0 PQ LATE: 0 COMMIT LATE: 0 MISSED OPPORTUNITY: 0 UNCOVERED: 0
PSCL5 PREFETCHES SAME FILL-ORIGIN LEVEL: 0 DIFFERENT FILL-ORIGIN LEVEL: 0

PSCL4 TOTAL     ACCESS:    4826363  HIT:    4826363  MISS:          0  HIT %:        100  MISS %:          0   MPKI: 0
PSCL4 Test counter:          0
PSCL4 LOAD TRANSLATION ACCESS:    4826359  HIT:    4826359  MISS:          0  HIT %:        100  MISS %:          0   MPKI: 0
PSCL4 TRANSLATION FROM L1D PREFETCHER ACCESS:          4  HIT:          4  MISS:          0  HIT %:        100  MISS %:          0   MPKI: 0
PSCL4 PREFETCH  REQUESTED:          0  ISSUED:          0  USEFUL:          0  USELESS:          0
PSCL4 USEFUL LOAD PREFETCHES:          0 PREFETCH ISSUED TO LOWER LEVEL:          0  ACCURACY: -nan
PSCL4 TIMELY PREFETCHES:          0 LATE PREFETCHES: 0 DROPPED PREFETCHES: 0
PSCL4 COMMIT LATE PREFETCHES: 0 MISSED OPPORTUNITY: 0 LATE IN PQ: 0 UNCOVERED: 0
PSCL4 COMMIT LATE MSHR PREFETCHES: 0
PSCL4 MPKI TOTAL: 0 MSHR LATE: 0 PQ LATE: 0 COMMIT LATE: 0 MISSED OPPORTUNITY: 0 UNCOVERED: 0
PSCL4 PREFETCHES SAME FILL-ORIGIN LEVEL: 0 DIFFERENT FILL-ORIGIN LEVEL: 0

PSCL3 TOTAL     ACCESS:    4826363  HIT:    4826363  MISS:          0  HIT %:        100  MISS %:          0   MPKI: 0
PSCL3 Test counter:          0
PSCL3 LOAD TRANSLATION ACCESS:    4826359  HIT:    4826359  MISS:          0  HIT %:        100  MISS %:          0   MPKI: 0
PSCL3 TRANSLATION FROM L1D PREFETCHER ACCESS:          4  HIT:          4  MISS:          0  HIT %:        100  MISS %:          0   MPKI: 0
PSCL3 PREFETCH  REQUESTED:          0  ISSUED:          0  USEFUL:          0  USELESS:          0
PSCL3 USEFUL LOAD PREFETCHES:          0 PREFETCH ISSUED TO LOWER LEVEL:          0  ACCURACY: -nan
PSCL3 TIMELY PREFETCHES:          0 LATE PREFETCHES: 0 DROPPED PREFETCHES: 0
PSCL3 COMMIT LATE PREFETCHES: 0 MISSED OPPORTUNITY: 0 LATE IN PQ: 0 UNCOVERED: 0
PSCL3 COMMIT LATE MSHR PREFETCHES: 0
PSCL3 MPKI TOTAL: 0 MSHR LATE: 0 PQ LATE: 0 COMMIT LATE: 0 MISSED OPPORTUNITY: 0 UNCOVERED: 0
PSCL3 PREFETCHES SAME FILL-ORIGIN LEVEL: 0 DIFFERENT FILL-ORIGIN LEVEL: 0

PSCL2 TOTAL     ACCESS:    4826363  HIT:    2740800  MISS:    2085563  HIT %:    56.7881  MISS %:    43.2119   MPKI: 10.4278
PSCL2 Test counter:          0
PSCL2 LOAD TRANSLATION ACCESS:    4826363  HIT:    2740800  MISS:    2085563  HIT %:    56.7881  MISS %:    43.2119   MPKI: 10.4278
PSCL2 PREFETCH  REQUESTED:          0  ISSUED:          0  USEFUL:          0  USELESS:          0
PSCL2 USEFUL LOAD PREFETCHES:          0 PREFETCH ISSUED TO LOWER LEVEL:          0  ACCURACY: -nan
PSCL2 TIMELY PREFETCHES:          0 LATE PREFETCHES: 0 DROPPED PREFETCHES: 0
PSCL2 COMMIT LATE PREFETCHES: 0 MISSED OPPORTUNITY: 0 LATE IN PQ: 0 UNCOVERED: 0
PSCL2 COMMIT LATE MSHR PREFETCHES: 0
PSCL2 MPKI TOTAL: 0 MSHR LATE: 0 PQ LATE: 0 COMMIT LATE: 0 MISSED OPPORTUNITY: 0 UNCOVERED: 0
PSCL2 PREFETCHES SAME FILL-ORIGIN LEVEL: 0 DIFFERENT FILL-ORIGIN LEVEL: 0

LLC TOTAL     ACCESS:   38025597  HIT:   19999915  MISS:   18025682  HIT %:    52.5959  MISS %:    47.4041   MPKI: 90.1284
LLC Test counter:          0
LLC LOAD      ACCESS:    3652282  HIT:    2034390  MISS:    1617892  HIT %:    55.7019  MISS %:    44.2981   MPKI: 8.08946
LLC RFO       ACCESS:    8745097  HIT:      48108  MISS:    8696989  HIT %:   0.550114  MISS %:    99.4499   MPKI: 43.4849
LLC PREFETCH  ACCESS:    4614339  HIT:      52075  MISS:    4562264  HIT %:    1.12855  MISS %:    98.8715   MPKI: 22.8113
LLC WRITEBACK ACCESS:   16890120  HIT:   16877165  MISS:      12955  HIT %:    99.9233  MISS %:  0.0767016   MPKI: 0.064775
LLC LOAD TRANSLATION ACCESS:    4123756  HIT:     988174  MISS:    3135582  HIT %:     23.963  MISS %:     76.037   MPKI: 15.6779
LLC TRANSLATION FROM L1D PREFETCHER ACCESS:          3  HIT:          3  MISS:          0  HIT %:        100  MISS %:          0   MPKI: 0
LLC PREFETCH  REQUESTED:          0  ISSUED:          0  USEFUL:       8144  USELESS:    4554062
LLC USEFUL LOAD PREFETCHES:       8144 PREFETCH ISSUED TO LOWER LEVEL:    4562267  ACCURACY: 0.178508
LLC TIMELY PREFETCHES:       8144 LATE PREFETCHES: 0 DROPPED PREFETCHES: 0
LLC COMMIT LATE PREFETCHES: 0 MISSED OPPORTUNITY: 0 LATE IN PQ: 0 UNCOVERED: 0
LLC COMMIT LATE MSHR PREFETCHES: 0
LLC MPKI TOTAL: 8.08946 MSHR LATE: 0 PQ LATE: 0 COMMIT LATE: 0 MISSED OPPORTUNITY: 0 UNCOVERED: 0
LLC PREFETCHES SAME FILL-ORIGIN LEVEL: 0 DIFFERENT FILL-ORIGIN LEVEL: 0
LLC AVERAGE MISS LATENCY: 315.108 cycles
LLC AVERAGE MISS LATENCY LOAD: 332.178 cycles
LLC AVERAGE MISS LATENCY PREFETCH: 312.904 cycles
LLC AVERAGE MSHR OCCUPANCY: 3.50792
LLC MSHR FULL: 0
LLC RQ	ACCESS:   16521185	FORWARD:          0	MERGED:          0	TO_CACHE:   16521143
LLC WQ	ACCESS:   16890120	FORWARD:         42	MERGED:          0	TO_CACHE:   16890120
LLC PQ	ACCESS:    4614342	FORWARD:          0	MERGED:          0	TO_CACHE:    4614342

LLC Dense regions hint to LLC: 0
4033f0: 193
4033c9: 17565
4033b5: 18353
4033a0: 440875
4033b9: 1140906

RAW hits: 4487235
Loads Generated: 83093059
Loads sent to L1D: 78605825
Stores Generated: 69973106
Stores sent to L1D: 69973103
Major fault: 0 Minor fault: 318411
Allocated PAGES: 318411
Total Load insts: 97849675
Total Non-spec loads: 41248676
Percentage of speculative loads: 57.8449
L1D response latency: 153.395 cycles
Load retirement latency: 507.209 cycles

CPU 0 L1D PC-based stride prefetcher final stats
Degree: 3

DRAM Statistics
 CHANNEL 0
 RQ ROW_BUFFER_HIT:     104026  ROW_BUFFER_MISS:   17905549
 DBUS_CONGESTED:         37
 WQ ROW_BUFFER_HIT:    2530098  ROW_BUFFER_MISS:   12269456  FULL:          0

 AVG_CONGESTED_CYCLE: 5
 All warmup complete: 2
Channel 0 Bank busy for read cycles: 0
Channel 0 Bank busy for write cycles: 0
Channel 0
Rank 0
0banks busy for read cycles: 1378605
0banks busy for write cycles: 4
1banks busy for read cycles: 112915881
1banks busy for write cycles: 2145848
2banks busy for read cycles: 148962058
2banks busy for write cycles: 2154603
3banks busy for read cycles: 220696009
3banks busy for write cycles: 2228009
4banks busy for read cycles: 162858405
4banks busy for write cycles: 4397040
5banks busy for read cycles: 109665021
5banks busy for write cycles: 9163574
6banks busy for read cycles: 61243102
6banks busy for write cycles: 21343403
7banks busy for read cycles: 25709925
7banks busy for write cycles: 79991132
8banks busy for read cycles: 6217129
8banks busy for write cycles: 298249990

CPU 0 Branch Prediction Accuracy: 95.2594% MPKI: 5.89095 Average ROB Occupancy at Mispredict: 113.26
Branch types
NOT_BRANCH: 175146304 87.5732%
BRANCH_DIRECT_JUMP: 2986815 1.49341%
BRANCH_INDIRECT: 0 0%
BRANCH_CONDITIONAL: 13119937 6.55997%
BRANCH_DIRECT_CALL: 4373312 2.18666%
BRANCH_INDIRECT_CALL: 0 0%
BRANCH_RETURN: 4373312 2.18666%
BRANCH_OTHER: 0 0%

DRAM PAGES: 1048576
Allocated PAGES: 318411
