
*** ChampSim Multicore Out-of-Order Simulator ***

Warmup Instructions: 50000000
Simulation Instructions: 200000000
Number of CPUs: 1
LLC sets: 2048
LLC ways: 16
Secure Berti: OFF
Berti: OFF
Berti Fill: OFF
On commit prefetching: OFF
L2 LLC Bypass speculative loads: OFF
Off-chip DRAM Size: 4096 MB Channels: 1 Width: 64-bit Data Rate: 6400 MT/s
CPU 0 runs /home/sumon/secure_berti/Berti_Baseline/../../traces/spec/607.cactuBSSN_s-3477B.champsimtrace.xz
.xz
BTB has LRU replacement policy
ITLB has LRU replacement policy
DTLB has LRU replacement policy
STLB has LRU replacement policy
L1I has LRU replacement policy
CPU 0 L1D IP-based stride prefetcher
L1D has LRU replacement policy
L2C has LRU replacement policy
LLC has LRU replacement policy
Heartbeat CPU 0 instructions: 10000000 cycles: 3672597 heartbeat IPC: 2.72287 cumulative IPC: 2.72287 (Simulation time: 0 hr 0 min 27 sec) 
Heartbeat CPU 0 instructions: 20000003 cycles: 7343561 heartbeat IPC: 2.72408 cumulative IPC: 2.72347 (Simulation time: 0 hr 0 min 54 sec) 
Heartbeat CPU 0 instructions: 30000000 cycles: 11014514 heartbeat IPC: 2.72409 cumulative IPC: 2.72368 (Simulation time: 0 hr 1 min 21 sec) 
Heartbeat CPU 0 instructions: 40000003 cycles: 14685537 heartbeat IPC: 2.72404 cumulative IPC: 2.72377 (Simulation time: 0 hr 1 min 48 sec) 
Heartbeat CPU 0 instructions: 50000000 cycles: 18358726 heartbeat IPC: 2.72243 cumulative IPC: 2.7235 (Simulation time: 0 hr 2 min 15 sec) 

Warmup complete CPU 0 instructions: 50000004 cycles: 18358727 (Simulation time: 0 hr 2 min 15 sec) 

Heartbeat CPU 0 instructions: 60000000 cycles: 30169923 heartbeat IPC: 0.846654 cumulative IPC: 0.846654 (Simulation time: 0 hr 2 min 46 sec) 
Heartbeat CPU 0 instructions: 70000001 cycles: 42051040 heartbeat IPC: 0.841672 cumulative IPC: 0.844156 (Simulation time: 0 hr 3 min 18 sec) 
Heartbeat CPU 0 instructions: 80000001 cycles: 53955319 heartbeat IPC: 0.840034 cumulative IPC: 0.842777 (Simulation time: 0 hr 3 min 51 sec) 
Heartbeat CPU 0 instructions: 90000002 cycles: 65814268 heartbeat IPC: 0.843245 cumulative IPC: 0.842894 (Simulation time: 0 hr 4 min 22 sec) 
Heartbeat CPU 0 instructions: 100000000 cycles: 77642851 heartbeat IPC: 0.84541 cumulative IPC: 0.843396 (Simulation time: 0 hr 4 min 54 sec) 
Heartbeat CPU 0 instructions: 110000000 cycles: 89493672 heartbeat IPC: 0.843823 cumulative IPC: 0.843467 (Simulation time: 0 hr 5 min 25 sec) 
Heartbeat CPU 0 instructions: 120000002 cycles: 101365178 heartbeat IPC: 0.842353 cumulative IPC: 0.843308 (Simulation time: 0 hr 5 min 55 sec) 
Heartbeat CPU 0 instructions: 130000002 cycles: 113245370 heartbeat IPC: 0.841737 cumulative IPC: 0.843111 (Simulation time: 0 hr 6 min 25 sec) 
Heartbeat CPU 0 instructions: 140000000 cycles: 125086041 heartbeat IPC: 0.844547 cumulative IPC: 0.84327 (Simulation time: 0 hr 6 min 55 sec) 
Heartbeat CPU 0 instructions: 150000000 cycles: 136925343 heartbeat IPC: 0.844644 cumulative IPC: 0.843408 (Simulation time: 0 hr 7 min 25 sec) 
Heartbeat CPU 0 instructions: 160000002 cycles: 148833902 heartbeat IPC: 0.839732 cumulative IPC: 0.843072 (Simulation time: 0 hr 7 min 55 sec) 
Heartbeat CPU 0 instructions: 170000000 cycles: 160639745 heartbeat IPC: 0.847038 cumulative IPC: 0.843401 (Simulation time: 0 hr 8 min 25 sec) 
Heartbeat CPU 0 instructions: 180000000 cycles: 172486659 heartbeat IPC: 0.844102 cumulative IPC: 0.843455 (Simulation time: 0 hr 8 min 56 sec) 
Heartbeat CPU 0 instructions: 190000001 cycles: 184342995 heartbeat IPC: 0.843431 cumulative IPC: 0.843453 (Simulation time: 0 hr 9 min 27 sec) 
Heartbeat CPU 0 instructions: 200000001 cycles: 196418067 heartbeat IPC: 0.828152 cumulative IPC: 0.842416 (Simulation time: 0 hr 9 min 57 sec) 
Heartbeat CPU 0 instructions: 210000001 cycles: 208294331 heartbeat IPC: 0.842016 cumulative IPC: 0.842391 (Simulation time: 0 hr 10 min 26 sec) 
Heartbeat CPU 0 instructions: 220000000 cycles: 220128385 heartbeat IPC: 0.845019 cumulative IPC: 0.842545 (Simulation time: 0 hr 10 min 56 sec) 
Heartbeat CPU 0 instructions: 230000000 cycles: 231994478 heartbeat IPC: 0.842737 cumulative IPC: 0.842556 (Simulation time: 0 hr 11 min 25 sec) 
Heartbeat CPU 0 instructions: 240000001 cycles: 243864387 heartbeat IPC: 0.842467 cumulative IPC: 0.842551 (Simulation time: 0 hr 11 min 55 sec) 
Heartbeat CPU 0 instructions: 250000001 cycles: 255722035 heartbeat IPC: 0.843338 cumulative IPC: 0.84259 (Simulation time: 0 hr 12 min 25 sec) 
Finished CPU 0 instructions: 200000001 cycles: 237363309 cumulative IPC: 0.84259 (Simulation time: 0 hr 12 min 25 sec) 

ChampSim completed all CPUs

Region of Interest Statistics

CPU 0 cumulative IPC: 0.84259 instructions: 200000001 cycles: 237363309
ITLB TOTAL     ACCESS:   28019292  HIT:   28019292  MISS:          0  HIT %:        100  MISS %:          0   MPKI: 0
ITLB Test counter:          0
ITLB LOAD TRANSLATION ACCESS:   28019292  HIT:   28019292  MISS:          0  HIT %:        100  MISS %:          0   MPKI: 0
ITLB PREFETCH  REQUESTED:          0  ISSUED:          0  USEFUL:          0  USELESS:          0
ITLB USEFUL LOAD PREFETCHES:          0 PREFETCH ISSUED TO LOWER LEVEL:          0  ACCURACY: -nan
ITLB TIMELY PREFETCHES:          0 LATE PREFETCHES: 0 DROPPED PREFETCHES: 0
ITLB COMMIT LATE PREFETCHES: 0 MISSED OPPORTUNITY: 0 LATE IN PQ: 0 UNCOVERED: 0
ITLB COMMIT LATE MSHR PREFETCHES: 0
ITLB MPKI TOTAL: 0 MSHR LATE: 0 PQ LATE: 0 COMMIT LATE: 0 MISSED OPPORTUNITY: 0 UNCOVERED: 0
ITLB PREFETCHES SAME FILL-ORIGIN LEVEL: 0 DIFFERENT FILL-ORIGIN LEVEL: 0
ITLB AVERAGE MISS LATENCY: -nan cycles
ITLB AVERAGE MISS LATENCY LOAD: -nan cycles
ITLB AVERAGE MISS LATENCY PREFETCH: -nan cycles
ITLB AVERAGE MSHR OCCUPANCY: 0
ITLB MSHR FULL: 0
ITLB RQ	ACCESS:   34277106	FORWARD:          0	MERGED:    6257813	TO_CACHE:   28019293

DTLB TOTAL     ACCESS:   59989082  HIT:   52416416  MISS:    7572666  HIT %:    87.3766  MISS %:    12.6234   MPKI: 37.8633
DTLB Test counter:          0
DTLB LOAD TRANSLATION ACCESS:   59989082  HIT:   52416416  MISS:    7572666  HIT %:    87.3766  MISS %:    12.6234   MPKI: 37.8633
DTLB PREFETCH  REQUESTED:          0  ISSUED:          0  USEFUL:          0  USELESS:          0
DTLB USEFUL LOAD PREFETCHES:          0 PREFETCH ISSUED TO LOWER LEVEL:          0  ACCURACY: -nan
DTLB TIMELY PREFETCHES:          0 LATE PREFETCHES: 0 DROPPED PREFETCHES: 0
DTLB COMMIT LATE PREFETCHES: 0 MISSED OPPORTUNITY: 0 LATE IN PQ: 0 UNCOVERED: 0
DTLB COMMIT LATE MSHR PREFETCHES: 0
DTLB MPKI TOTAL: 0 MSHR LATE: 0 PQ LATE: 0 COMMIT LATE: 0 MISSED OPPORTUNITY: 0 UNCOVERED: 0
DTLB PREFETCHES SAME FILL-ORIGIN LEVEL: 0 DIFFERENT FILL-ORIGIN LEVEL: 0
DTLB AVERAGE MISS LATENCY: 9.95549 cycles
DTLB AVERAGE MISS LATENCY LOAD: -nan cycles
DTLB AVERAGE MISS LATENCY PREFETCH: -nan cycles
DTLB AVERAGE MSHR OCCUPANCY: 0.777687
DTLB MSHR FULL: 0.0216462
DTLB RQ	ACCESS:   78748985	FORWARD:          0	MERGED:   17979731	TO_CACHE:   60769254

STLB TOTAL     ACCESS:    7572670  HIT:    7564375  MISS:       8295  HIT %:    99.8905  MISS %:   0.109539   MPKI: 0.041475
STLB Test counter:          0
STLB LOAD TRANSLATION ACCESS:    7572666  HIT:    7564371  MISS:       8295  HIT %:    99.8905  MISS %:   0.109539   MPKI: 0.041475
STLB TRANSLATION FROM L1D PREFETCHER ACCESS:          4  HIT:          4  MISS:          0  HIT %:        100  MISS %:          0   MPKI: 0
STLB PREFETCH  REQUESTED:          0  ISSUED:          0  USEFUL:          0  USELESS:          0
STLB USEFUL LOAD PREFETCHES:          0 PREFETCH ISSUED TO LOWER LEVEL:          0  ACCURACY: -nan
STLB TIMELY PREFETCHES:          0 LATE PREFETCHES: 0 DROPPED PREFETCHES: 0
STLB COMMIT LATE PREFETCHES: 0 MISSED OPPORTUNITY: 0 LATE IN PQ: 0 UNCOVERED: 0
STLB COMMIT LATE MSHR PREFETCHES: 0
STLB MPKI TOTAL: 0 MSHR LATE: 0 PQ LATE: 0 COMMIT LATE: 0 MISSED OPPORTUNITY: 0 UNCOVERED: 0
STLB PREFETCHES SAME FILL-ORIGIN LEVEL: 0 DIFFERENT FILL-ORIGIN LEVEL: 0
STLB AVERAGE MISS LATENCY: 533.542 cycles
STLB AVERAGE MISS LATENCY LOAD: -nan cycles
STLB AVERAGE MISS LATENCY PREFETCH: -nan cycles
STLB AVERAGE MSHR OCCUPANCY: 0.0108474
STLB MSHR FULL: 0
STLB RQ	ACCESS:    7572678	FORWARD:          0	MERGED:          8	TO_CACHE:    7572670

STLB Hit, L1D data hit: 0
STLB Hit, L2C data hit: 0
STLB Hit, LLC data hit: 0
STLB Hit, LLC data miss: 0
STLB STLB hints to L2: 0
L1D TOTAL     ACCESS:   78342680  HIT:   63688249  MISS:   14654431  HIT %:    81.2944  MISS %:    18.7056   MPKI: 73.2722
L1D Test counter:          0
L1D LOAD      ACCESS:   62532359  HIT:   49083487  MISS:   13758002  HIT %:    78.4929  MISS %:    21.5071   MPKI: 67.2444
L1D RFO       ACCESS:   15810315  HIT:   14604758  MISS:    1205557  HIT %:    92.3749  MISS %:    7.62513   MPKI: 6.02778
L1D PREFETCH  ACCESS:          6  HIT:          4  MISS:          2  HIT %:    66.6667  MISS %:    33.3333   MPKI: 1e-05
L1D PREFETCH  REQUESTED:         24  ISSUED:         24  USEFUL:          0  USELESS:          2
L1D USEFUL LOAD PREFETCHES:          0 PREFETCH ISSUED TO LOWER LEVEL:          2  ACCURACY: 0
L1D TIMELY PREFETCHES:          0 LATE PREFETCHES: 0 DROPPED PREFETCHES: 0
L1D COMMIT LATE PREFETCHES: 0 MISSED OPPORTUNITY: 0 LATE IN PQ: 0 UNCOVERED: 0
L1D COMMIT LATE MSHR PREFETCHES: 0
L1D MPKI TOTAL: 68.79 MSHR LATE: 0 PQ LATE: 0 COMMIT LATE: 0 MISSED OPPORTUNITY: 0 UNCOVERED: 0
L1D PREFETCHES SAME FILL-ORIGIN LEVEL: 2 DIFFERENT FILL-ORIGIN LEVEL: 0
L1D AVERAGE MISS LATENCY: 29.1194 cycles
L1D AVERAGE MISS LATENCY LOAD: 24.1684 cycles
L1D AVERAGE MISS LATENCY PREFETCH: 215 cycles
L1D AVERAGE MSHR OCCUPANCY: 4.20208
L1D MSHR FULL: 0.145689
L1D RQ	ACCESS:   77383552	FORWARD:          0	MERGED:   14481236	TO_CACHE:   62841480
L1D WQ	ACCESS:   16016013	FORWARD:      60836	MERGED:     108508	TO_CACHE:   15907505
L1D PQ	ACCESS:         12	FORWARD:          0	MERGED:          0	TO_CACHE:         12

L1D UNIQUE REGIONS ACCESSED: 0
L1D REGIONS CONFLICTS: 0
L1D Cross Page Prefetch Requests: 0
L1D Same Page Prefetch Requests: 27
L1D ROI Sum of L1D PQ occupancy: 163
L1D PREFETCHES PUSHED FROM L2C: 0
a089f1: 1
a2c423: 1
a2c2d7: 1
a09799: 1
a087a3: 1
8bbbc6: 1
a7f344: 1
4004a0: 1
a0977d: 1
a2c42a: 1
a088cd: 1
a088e4: 1
a089b1: 1
8bbc22: 2
8d42ee: 2
8bbae0: 2
8d42db: 2
8bbb6a: 2
8bbb81: 3
8bbc0b: 3
8bf56b: 3
8bbb06: 3
8bd066: 3
8bbcf7: 4
8bda33: 4
8bd0da: 5
8d424f: 5
8bbb44: 6
8d4257: 7
8bd07b: 8
8bf7dc: 8
8bf1b6: 9
8d426d: 10
8d427b: 14
8bd215: 17
8d4291: 18
8d4283: 18
8bd091: 18
8d429f: 20
8d42be: 26
8d1504: 44
8bd760: 51
8bbcac: 56
8bd4a5: 62
8bdb82: 71
8bbdec: 92
8bbd0e: 107
8bbe36: 115
8be7c5: 117
8bd0a9: 127
8bee8f: 137
8bf6ed: 138
8bdd68: 138
8bdafc: 166
8bef43: 172
8be1b8: 179
8be88b: 185
8bde49: 204
8be513: 206
8bebc4: 209
8bf290: 213
8bd77c: 231
8bcff1: 293
8d42cd: 363
a259b5: 374
8bdc1e: 392
8bf5ff: 407
8bbb30: 409
8d42c5: 417
8bbd64: 421
8bbbf4: 477
8bbb98: 486
8bf9d6: 520
8d3fcf: 524
8bcffe: 545
8bf9c0: 551
8bbcd1: 559
8d2790: 568
8bbcba: 568
8bbd29: 582
8bd051: 628
8bd23e: 633
8bcfd6: 635
8bd134: 645
8bd0c9: 652
8bd09b: 654
8bf06c: 695
8bd43a: 735
8bcfab: 766
8bf10d: 948
8bd0fa: 994
8bd185: 1105
8bdf9c: 1107
8bf471: 1135
8bf3db: 1151
8bed2c: 1165
8bd172: 1192
8bd230: 1194
8bcfa6: 1217
8be679: 1280
8be713: 1307
8be046: 1377
8bedde: 1402
8bdf03: 1421
8bea55: 1422
8be378: 1448
8bdcaf: 1479
8bd0f5: 1509
8be9b9: 1533
8be2d7: 1623
8bd54a: 1659
8bd8ba: 1676
8bd201: 1704
8bd971: 1758
8be0ff: 1761
8bd557: 1761
8bf51c: 1807
8bd47a: 1860
8bd20f: 1943
8bd0b9: 1969
8bd72c: 1970
8bf247: 1970
8bd3f1: 1970
8bddf7: 1970
8be836: 1970
8be4c3: 1970
8beb7b: 1970
8bdaac: 1970
8be178: 1970
8beef2: 1970
8bd117: 2073
8bebe5: 2073
8bef65: 2073
8bf2ab: 2073
8bd45c: 2073
8bdb16: 2073
8be1da: 2073
8be534: 2073
8bde6b: 2073
8be8ac: 2073
8bd79e: 2073
8bd102: 2075
8bd789: 2075
8bef50: 2075
8bdb01: 2075
8be1c6: 2075
8be520: 2075
8bebd1: 2075
8bde57: 2075
8bd447: 2075
8be898: 2075
8bf296: 2075
8bd62b: 2076
8be3a7: 2076
8bf13c: 2076
8be075: 2084
8beaa7: 2087
8bee3b: 2087
8be0ab: 2087
8bd661: 2087
8bd30a: 2087
8bf16a: 2087
8be3df: 2087
8bdd14: 2087
8be76f: 2087
8bf4ce: 2087
8bd9df: 2087
8bee05: 2110
8bea78: 2127
8bdcde: 2159
8bf262: 2176
8bef0d: 2206
8bd9a9: 2254
8bd2e5: 2310
8bf4a0: 2321
8bdff2: 2714
8be245: 2718
8bf6b7: 2739
8bec86: 2745
8bde12: 2985
8be64f: 3231
8be73e: 3260
8bf42c: 3293
8beb97: 3310
8be674: 3363
8bed8a: 3377
8be6d3: 3406
8bf3b1: 3469
8bed02: 3527
8be328: 3539
8be18e: 3591
8bea0a: 3606
8bf926: 3624
8bd5c4: 3650
8bd285: 3661
8bd40c: 3720
8be2ba: 3808
8be98f: 3819
8bfb29: 3900
8be856: 3954
8bd7ba: 3971
8bd0ce: 4030
8bd1f2: 4033
8bf791: 4072
8bf042: 4115
8bd53b: 4126
8bdbfa: 4151
8bd8ab: 4195
8bf2c4: 4197
8bde83: 4200
8bdb2e: 4221
8be8c4: 4221
8be551: 4225
8be4de: 4232
8bd1fc: 4237
8be1f2: 4240
8bebfe: 4261
8bef7d: 4262
8bdf7e: 4277
8bd926: 4280
8bd8b5: 4286
8bd075: 4451
8bf860: 4454
8bdf97: 4456
8bd096: 4463
8be818: 4464
8bf229: 4464
8bda8e: 4464
8bda82: 4464
8bf0b7: 4464
8be9ef: 4464
8bf03c: 4464
8bd1e4: 4464
8bddf2: 4464
8be157: 4464
8bf067: 4464
8be641: 4464
8beedb: 4464
8bd545: 4464
8bedcf: 4464
8bd8a5: 4464
8bdc5b: 4464
8bd3ec: 4464
8becf4: 4464
8be981: 4464
8bdf70: 4464
8be369: 4464
8bd727: 4464
8bd08a: 4464
8bf462: 4464
8bd90a: 4464
8beb63: 4464
8bd962: 4464
8bdfd7: 4464
8bdbec: 4464
8bd3d8: 4464
8bf0fe: 4464
8bdca0: 4464
8bf411: 4464
8bd716: 4464
8be4a5: 4464
8bddcd: 4464
8bed6e: 4464
8be037: 4464
8bea4e: 4464
8be704: 4464
8be30d: 4464
8be6b8: 4464
8bf0ab: 4464
8bd3cc: 4464
8bddd9: 4464
8bd060: 4464
8bd70a: 4464
8bd42e: 4464
8bd52d: 4464
8be2ac: 4464
8bd550: 4464
8bd269: 4464
8bdc4f: 4464
8bf3a3: 4464
8bd5a9: 4464
8be49e: 4465
8beb75: 4465
8beeec: 4465
8be831: 4465
8beb57: 4465
8bf21d: 4465
8be150: 4465
8be80c: 4465
8beecf: 4465
8be173: 4466
8bdac7: 4468
8be697: 4473
8bdaa7: 4473
8be4be: 4478
8bed27: 4487
8bf808: 4511
8bf550: 4517
8bf678: 4540
8bf876: 4546
8bd0b1: 4562
8be3f4: 4573
8bf2cf: 4573
8bd107: 4573
8be86a: 4573
8bd7c4: 4573
8bde8d: 4573
8bd78f: 4573
8bd420: 4573
8bebd6: 4573
8bd7a5: 4573
8be53b: 4573
8be1cb: 4573
8bf633: 4573
8bef56: 4573
8bf2b2: 4573
8bdb1d: 4573
8bd44c: 4573
8bd75b: 4573
8be19b: 4573
8bf26e: 4573
8bdb07: 4573
8be25f: 4573
8beab8: 4573
8be008: 4573
8bef6c: 4573
8bd31b: 4573
8be930: 4573
8be8b3: 4573
8bde5c: 4573
8be785: 4573
8be1e1: 4573
8bf4e3: 4573
8be33e: 4573
8bef21: 4573
8be4f2: 4573
8bde72: 4573
8bdd29: 4573
8bdc72: 4573
8bd676: 4573
8bd93d: 4573
8bdadb: 4573
8bf43b: 4573
8bd11e: 4573
8bebec: 4573
8bd4e0: 4573
8bd463: 4573
8bf17f: 4573
8be0c0: 4573
8bde27: 4573
8bdb9d: 4573
8bd5da: 4573
8bec09: 4573
8be89d: 4573
8bee50: 4573
8bd29e: 4573
8bf29c: 4573
8bf0cf: 4573
8be6e1: 4573
8be525: 4573
8be55c: 4573
8befee: 4573
8beba3: 4573
8bd9f4: 4573
8bf598: 4573
8beda1: 4573
8bea20: 4573
8be93f: 4574
8bf689: 4574
8bf301: 4574
8bd74c: 4574
8bdec2: 4574
8bf193: 4574
8be58d: 4574
8bdacc: 4574
8be4e3: 4574
8bf5a9: 4574
8bf267: 4574
8beb9c: 4574
8bf561: 4574
8beffd: 4574
8bec3b: 4574
8be26e: 4574
8bd0d3: 4574
8bdbac: 4574
8bdd3d: 4574
8bf644: 4574
8bd7f5: 4574
8bd411: 4574
8bd4ef: 4574
8bd0e2: 4574
8bde18: 4574
8be194: 4574
8be85b: 4574
8bef12: 4574
8bf34c: 4604
8bdc19: 4632
8bf3d6: 4647
8bda08: 4758
8be025: 4761
8bd69a: 4791
8bda1c: 4794
8bd33f: 4811
8bd2f7: 4839
8bd959: 4843
8bf242: 4858
8bd747: 4863
8bd9bf: 4867
8bd641: 4884
8bdc8e: 4887
8bd5ef: 4912
8be3be: 4920
8bf0ec: 4923
8bd1c8: 5008
8bd2b8: 5009
8bea87: 5010
8bdd55: 5073
8be420: 5104
8beadd: 5130
8bee7c: 5150
8be0ec: 5175
8bf727: 5183
8bea3c: 5219
8be356: 5230
8be7b2: 5245
8be756: 5263
8bd889: 5292
8bd511: 5318
8bee1b: 5378
8bd686: 5388
8bf4b6: 5392
8bd32b: 5400
8bf510: 5417
8be2d2: 5422
8beacc: 5432
8be08b: 5436
8bdbce: 5437
8be408: 5499
8bedbd: 5511
8be9b4: 5538
8bf450: 5569
8bf1a3: 5604
8be799: 5632
8be623: 5661
8bee64: 5661
8bf4f7: 5745
8be6f1: 5834
8bf14a: 5848
8bd485: 5912
8be965: 5945
8bdcf4: 6151
8be290: 6166
8be0d4: 6324
8becd8: 6432
8bd147: 6444
8bdf52: 6935
8d3fd8: 7046
8bf73d: 7053
8cff36: 7073
8d1547: 7093
8d414c: 7098
8d4199: 7112
8d41f1: 7346
8d40f4: 7354
8bf01e: 7660
8bd026: 7739
8bf387: 7747
a25992: 7759
8bd7e0: 8276
8bf2eb: 8294
8bec25: 8298
8be573: 8301
8bdea8: 8303
8be8db: 8322
8be209: 8328
8bef94: 8335
8bdb45: 8341
8bcfe4: 8659
8befc4: 8734
8bf61f: 8830
8bf585: 8845
8bf201: 8861
8bf53c: 8879
8bf665: 8884
8bddb2: 8928
8be235: 8928
8bd4bf: 8928
8bd6ef: 8928
8be906: 8928
8be482: 8928
8bdb75: 8928
8beb3b: 8928
8d3f9e: 9973
8bf6ff: 10330
400640: 10391
a258eb: 10393
8cff99: 10414
8bf7d3: 10419
8bd03a: 10431
4005d0: 10433
a258f7: 10434
8d1891: 10443
8d1d8f: 10444
8d19be: 10460
8d01a8: 10460
8d2343: 10460
8d3f58: 10475
8d26c0: 10475
9e6f9a: 10479
8bf71e: 10480
8d00bf: 10482
8bbe3e: 10482
8d155e: 10484
a258e3: 10491
8cf1f0: 10494
8bfb6a: 10496
a259ce: 18849
8bd2d0: 26600
8bf4c9: 26703
8bf496: 26828
8bd24d: 27643
8bd33a: 27689
8bd2f2: 27868
8bf47e: 28170
8bf165: 28271
8bf3e6: 28285
8bd63c: 28428
8bd695: 28498
8bf132: 28556
8bd58d: 28584
8bd613: 28599
8bdcc6: 28599
8bd991: 28599
8bf488: 28600
8beded: 28600
8bf124: 28600
8bea5f: 28600
8be05d: 28600
8be72a: 28600
8be38f: 28600
8bda17: 28605
8bdd50: 28605
8be41b: 28606
8bf50a: 28606
8be7ac: 28606
8bead7: 28606
8bee77: 28606
8bf19e: 28606
8be0e7: 28606
8bd243: 28608
8bd609: 28610
8bd987: 28610
8bd2c5: 28610
8bdcbc: 28610
8bede3: 28611
8be385: 28611
8be053: 28611
8be720: 28611
8bf11a: 28611
8bea5a: 28611
8bd8e4: 28612
8bd583: 28612
8bdc29: 28612
8bdfa7: 28613
8be2e2: 28613
8be9c4: 28613
8bed37: 28613
8be684: 28613
8bf077: 28613
8bd9da: 28619
8bd305: 28619
8bdd0f: 28619
8bd65c: 28619
8bee36: 28620
8bd8ee: 28620
8beaa2: 28620
8bdc2e: 28620
8be3d9: 28620
8be769: 28620
8be0a6: 28620
8bed41: 28621
8bdfb1: 28621
8be2ec: 28621
8be68e: 28621
8be9ce: 28621
8bf081: 28621
8bf3f0: 28621
8bd99f: 28624
8bd2db: 28624
8bdcd4: 28624
8bd621: 28624
8bea6e: 28625
8be39d: 28625
8be739: 28625
8bedfb: 28625
8be06b: 28625
8bdcef: 28629
8bd9ba: 28629
8bee16: 28630
8be3b9: 28630
8bf145: 28630
8be750: 28630
8bea81: 28630
8bf4b1: 28630
8be086: 28630
a259a4: 29144
8bbc9d: 32190
8bbc7f: 33331
8bd142: 33389
8bbcff: 33414
8bd006: 33523
8bcff9: 33533
8bd3a2: 33619
8bd480: 33642
8bd3a7: 33645
8bf1f7: 33651
8beebc: 33651
8be7f9: 33651
8bda6f: 33651
8bd6e4: 33651
8be477: 33651
8be13d: 33651
8beb31: 33651
8bdda7: 33651
8bd6d9: 33659
8bda61: 33662
8bdd9c: 33662
8bd7db: 33662
8beeaf: 33663
8bf1ee: 33663
8be12f: 33663
8beb28: 33663
8be46c: 33663
8be7eb: 33663
8bdea3: 33664
8bdb40: 33664
8be56e: 33665
8bec20: 33665
8bef8f: 33665
8be204: 33665
8be8d6: 33665
8bf2e6: 33665
8bbd4b: 33752
8befbb: 33829
8bbc6c: 33892
8bf573: 34533
8bf60f: 34948
8be7d2: 35026
8bbc8e: 35096
8be10c: 35193
8bbd31: 35239
8bf1e0: 35345
8bf656: 35347
8bef37: 35525
8bdaf0: 35526
8bd770: 35526
8bde3d: 35532
8be87f: 35533
8bf284: 35533
8be507: 35535
8bbcc2: 35598
8bebb8: 35650
8be1b1: 35656
8bf1c3: 35694
8bf1d0: 35758
8bbc66: 35811
8bf52c: 35841
8bbd16: 35860
8bda40: 35899
8bcfa0: 35912
8bf58a: 36003
8bd083: 36018
8be440: 36041
8bbcb4: 36047
8bcfbe: 36052
8bf57b: 36052
8bf5ae: 36059
8bf59e: 36061
8bf527: 36073
8bf54a: 36077
8beafd: 36094
8bf6ac: 36105
8bf55b: 36107
8bf6da: 36116
8bf536: 36118
8bf2b9: 36123
8bf5ef: 36127
8bf6a7: 36128
8bf5b8: 36130
8bf5de: 36133
8bf698: 36134
8bf6c5: 36134
8bf6d5: 36136
8be44e: 36138
8bf5ca: 36139
8bcfb0: 36139
8bd06e: 36140
8bda4e: 36141
8bf69d: 36143
8bbc57: 36144
8bdb6c: 36145
8bdd8e: 36146
8bd6cb: 36146
8bf5cf: 36146
8bf619: 36147
8bf6cb: 36147
8bd4b6: 36148
8be22b: 36148
8bd400: 36148
8bf68e: 36149
8bd059: 36150
8bd938: 36150
8bd2ad: 36150
8bd9ef: 36150
8bbba0: 36150
8bdd38: 36150
8bd227: 36150
8bbbb7: 36150
8bbc48: 36150
8bd671: 36150
8bd298: 36150
8bd264: 36150
8bdb24: 36150
8bd562: 36150
8bdd24: 36150
8bd5a4: 36150
8bbc2a: 36150
8bbbfc: 36150
8bdc55: 36150
8bbbe5: 36150
8bbbce: 36150
8bd5b7: 36150
8bd5d5: 36150
8bbb89: 36150
8bbb72: 36150
8bd905: 36150
8bd6b5: 36150
8bd8d1: 36150
8bd681: 36150
8bbb5b: 36150
8bd918: 36150
8bde06: 36150
8be11a: 36150
8bda03: 36150
8bdc02: 36150
8bdc08: 36150
8bde79: 36150
8bd21a: 36150
8bd38e: 36150
8bbc39: 36150
8bd570: 36150
8bdd70: 36150
8bd388: 36150
8be8fd: 36150
8bbc13: 36150
8bd5e4: 36150
8bd94f: 36150
8bd277: 36150
8bd3c6: 36150
8bbb4c: 36150
8bdabb: 36150
8bd8c0: 36150
8bd3c0: 36150
8be45e: 36150
8bdc6d: 36150
8bdd7e: 36150
8bd6bb: 36150
8bdc4a: 36150
8bbcd9: 36150
8bdc84: 36150
8bd73b: 36150
8bd316: 36150
8bd7ac: 36150
8bd326: 36150
8bf4f2: 36151
8be9fd: 36151
8be3ef: 36151
8bf445: 36151
8bf435: 36151
8bf0e1: 36151
8be003: 36151
8be2c9: 36151
8be0bb: 36151
8be339: 36151
8beb8b: 36151
8bea1b: 36151
8be9a6: 36151
8bf40c: 36151
8bf3bb: 36151
8bf4de: 36151
8be659: 36151
8bdfe5: 36151
8be308: 36151
8bdf89: 36151
8be348: 36151
8bf0a6: 36151
8be8ba: 36151
8be6c6: 36151
8bf5e4: 36151
8bf65b: 36151
8bea32: 36151
8be666: 36151
8bed0c: 36151
8be999: 36151
8be187: 36151
8be0cf: 36151
8be2c4: 36151
8bee5f: 36151
8be403: 36151
8bf62d: 36151
8bee4b: 36151
8bf67e: 36151
8be31b: 36151
8beab2: 36151
8bf66a: 36151
8bf256: 36151
8bf3c8: 36151
8bf63e: 36151
8bf607: 36151
8be01a: 36151
8bebf3: 36151
8bee97: 36151
8bed7c: 36151
8bf5c0: 36151
8be794: 36151
8bed69: 36151
8bf17a: 36151
8beac7: 36151
8be84a: 36151
8be6dc: 36151
8bedb3: 36151
8bed9c: 36151
8be4d2: 36151
8be6eb: 36151
8be7d8: 36151
8be77f: 36151
8bf41f: 36151
8be9ea: 36151
8bef01: 36151
8bee9c: 36151
8bdfd2: 36151
8beb1a: 36151
8bf0c9: 36151
8bdf83: 36151
8bf5f4: 36151
8bf0b1: 36151
8be542: 36151
8bef73: 36151
8beb0a: 36151
8bed19: 36151
8bf04c: 36151
8be6b3: 36151
8bf059: 36151
8bf18e: 36151
8be1e8: 36151
L1I TOTAL     ACCESS:   31352649  HIT:   25568218  MISS:    5784431  HIT %:    81.5504  MISS %:    18.4496   MPKI: 28.9222
L1I Test counter:          0
L1I LOAD      ACCESS:   31352649  HIT:   25568218  MISS:    8708886  HIT %:    81.5504  MISS %:    18.4496   MPKI: 28.9222
L1I PREFETCH  REQUESTED:          0  ISSUED:          0  USEFUL:          0  USELESS:          0
L1I USEFUL LOAD PREFETCHES:          0 PREFETCH ISSUED TO LOWER LEVEL:          0  ACCURACY: -nan
L1I TIMELY PREFETCHES:          0 LATE PREFETCHES: 0 DROPPED PREFETCHES: 0
L1I COMMIT LATE PREFETCHES: 0 MISSED OPPORTUNITY: 0 LATE IN PQ: 0 UNCOVERED: 0
L1I COMMIT LATE MSHR PREFETCHES: 0
L1I MPKI TOTAL: 43.5444 MSHR LATE: 0 PQ LATE: 0 COMMIT LATE: 0 MISSED OPPORTUNITY: 0 UNCOVERED: 0
L1I PREFETCHES SAME FILL-ORIGIN LEVEL: 0 DIFFERENT FILL-ORIGIN LEVEL: 0
L1I AVERAGE MISS LATENCY: 14.0688 cycles
L1I AVERAGE MISS LATENCY LOAD: 14.0688 cycles
L1I AVERAGE MISS LATENCY PREFETCH: -nan cycles
L1I AVERAGE MSHR OCCUPANCY: 0.227285
L1I MSHR FULL: 0
L1I RQ	ACCESS:   47771944	FORWARD:          0	MERGED:   13494838	TO_CACHE:   34277106

8d1d00: 1
8d2c86: 1
8d24c3: 1
a67d72: 1
a67cb0: 1
8bf042: 1
a090c0: 1
a09942: 1
8bf4c0: 1
a09398: 1
8be440: 1
8cf4c8: 1
a08fa8: 1
a087c2: 1
a2c482: 1
8bba80: 1
a08911: 1
a7f344: 1
8d2a45: 1
a2c680: 1
8bfb45: 1
8d0c81: 1
a08b00: 1
8d2800: 1
a09350: 1
a08941: 1
8d1b81: 1
a2c502: 1
a80f42: 1
4004a0: 1
8d1002: 1
a093c5: 1
a09200: 1
8bf081: 1
a08802: 1
a08730: 1
a08c95: 1
9ebbc8: 1
9ebbb0: 1
a09282: 1
8bbbc6: 1
a092c3: 1
a091e9: 1
a091a1: 1
a09140: 1
9e6f83: 1
a09081: 1
a09706: 1
8d3406: 1
a09313: 1
8d0688: 1
8d27c4: 1
a09000: 1
8d26c0: 1
8bd4c4: 1
8d4303: 1
a08740: 1
8d1f41: 1
a25bd8: 1
8d10c6: 1
8bf383: 1
a08a01: 1
a088b0: 1
8d0cc3: 1
a67cc2: 1
a089c0: 1
a2c4c1: 1
a2c600: 1
8d23c8: 1
8d1d41: 1
8d1bc1: 1
8cf7c0: 1
8bd742: 1
8d00c8: 1
8be0c0: 1
8be385: 1
8d0040: 1
a0927e: 1
8be785: 1
8d0b80: 1
8d20c3: 1
8d34c2: 1
8d1742: 1
8d1c46: 1
8d1702: 1
8d1b01: 1
8d2a04: 1
a08842: 1
8d0344: 1
a08780: 1
8d0803: 1
a2c400: 1
a2c581: 1
8d0602: 1
8bfb01: 1
8d0d08: 1
8d03c9: 1
8d0d83: 1
a08d01: 1
8d2cc6: 1
8beb82: 1
8d3742: 1
8be003: 1
a09103: 1
8d0c41: 1
8d0b42: 1
8d1404: 1
8bf6c1: 1
8d1446: 1
8d1345: 1
8d1101: 1
8d1082: 1
8d1041: 1
8d0f44: 1
8d3080: 1
8d0d41: 1
8d0bc1: 1
8d2445: 1
8bd0c0: 1
8d0b08: 1
a2c440: 1
8d0a01: 1
8d0744: 1
8becc6: 1
8d0583: 1
8d0542: 1
8d04c0: 1
8d0483: 1
a2c345: 1
8d0440: 1
8d17c6: 1
8d1783: 1
8d2580: 1
8d2547: 1
8be403: 1
8d2380: 1
8d2101: 1
8d2042: 1
8cfc41: 1
8d2001: 1
8d1d85: 1
8bdc41: 1
8d1cc3: 1
8d1a48: 1
8d0407: 1
8bfa40: 1
8d1a01: 1
8bdb82: 1
8cf600: 1
8d1682: 1
8bd803: 1
8d1600: 1
8bd781: 1
8bfb82: 1
8d1581: 1
8d14c9: 1
8d3340: 1
8d3040: 1
8d1804: 1
a09925: 1
8d07c8: 1
a09b57: 1
a09043: 1
a097c0: 1
8d1384: 1
a09785: 1
a08c71: 1
a09741: 1
9ecd80: 1
a09b8f: 1
a08b4a: 1
a096c2: 1
8d33c2: 1
8bf808: 1
a09b3a: 1
9ebd42: 1
8d1547: 1
9ebc80: 1
a09680: 1
8d3380: 1
8bf7c6: 1
a0964c: 1
8bef43: 1
8d0704: 1
8d0381: 1
8d16c0: 1
8d0107: 1
8be3c4: 1
8d0083: 1
8d2403: 1
a2c380: 1
a09998: 1
a08ce0: 1
8cf806: 1
a08a85: 1
a2c301: 1
8d2083: 1
9ecd41: 1
8d1b42: 1
8cf741: 1
9ecd03: 1
9eccc0: 1
9ecc81: 1
8d06c0: 1
a09610: 1
9ecc40: 1
8d13c2: 1
8d37c3: 1
a2c5c3: 1
8d4040: 1
a7f300: 1
8be107: 1
8d40c2: 1
8bec81: 1
8d4082: 1
8bec40: 1
8cfb03: 1
8beb40: 1
8beb02: 1
8d2483: 1
8d4105: 1
8d3f46: 1
8bd583: 1
8d3803: 1
8d3784: 1
8d3701: 1
8d36c1: 1
8bd400: 1
8d3680: 1
8d3607: 1
8be086: 1
8bf0c1: 1
8bbd80: 1
8d0786: 1
8cfb84: 1
8bbd05: 1
8bf003: 1
8bbd40: 1
8cfb41: 1
8bbcc2: 1
8bea02: 1
8bbc85: 1
8bdd84: 1
8bbc48: 1
9ebcc3: 1
8bed82: 1
8bbb81: 1
8bbb30: 1
8bbb40: 1
8bed41: 1
8d2783: 1
8d2343: 1
8d2608: 1
a2c2c0: 1
8d2d08: 1
8d2c41: 1
8d2bc1: 1
8be6c6: 1
8d2b48: 1
8cf384: 1
8be700: 1
8d2740: 1
8d2703: 1
8be684: 1
a2c542: 1
a2c2a0: 1
8d2681: 1
a089a0: 1
a08ac5: 1
a088c2: 1
8d0008: 1
8cf680: 1
8bf441: 1
8d3585: 1
8bea41: 1
8be803: 1
8be7c5: 1
8d3542: 1
8be744: 1
8d3480: 1
8d2b87: 1
8cfd43: 1
8d3440: 1
8d3100: 1
8d1486: 1
8d30c2: 1
8d3002: 1
8d2f45: 1
8d2d40: 1
8bebc4: 1
8cf481: 1
8d0a45: 1
8bdc84: 1
8cfa41: 1
8bdbc4: 1
8cf6c3: 1
8bdb40: 1
8bdb01: 1
8bed02: 1
8cf581: 1
8bda40: 1
8cf704: 1
8bda03: 1
8bfbc1: 1
8bd7c0: 1
8cf784: 1
8cf542: 1
8cf441: 1
8bd006: 1
8be600: 1
8cf401: 1
8cfd07: 1
8bbae0: 1
8be583: 1
8be542: 1
8be4c3: 1
8be482: 1
8d4000: 1
8be344: 1
8be046: 1
8cff48: 1
8cfd83: 1
a08a58: 1
8cfcc1: 1
8bdf48: 1
8bdd44: 1
8d2b01: 1
8bdd03: 1
8cfa04: 1
8bdcc1: 1
8cfc81: 1
8cfbc2: 1
8bd388: 1
8bf580: 1
8bd480: 1
8bf541: 1
8d2d82: 1
8bf483: 1
8bd447: 1
8bf403: 1
8bf3c0: 1
8bd3c0: 1
8bd6c1: 1
8bf746: 1
8bf347: 1
8bd345: 1
8d1c89: 1
8bd102: 1
8bd083: 1
8bd043: 1
8bf105: 1
8bf607: 1
8cf344: 1
a09800: 1
8bfa02: 1
8bd681: 1
8cf3c3: 1
8bd540: 1
8bf784: 1
8bf708: 1
8bf684: 1
8bd701: 1
8bd601: 1
8be303: 2
8d2300: 2
8d1330: 2
8d0301: 2
8d3307: 2
8bd305: 2
8cf300: 2
8bf301: 2
8d2880: 36150
8d22c0: 36150
8d3141: 36150
8d31c0: 36150
4005d0: 36150
8d1502: 36150
8d3902: 36150
8d2502: 36150
8bd841: 36150
8bd142: 36150
8d41c5: 36150
8d1949: 36150
8d21c4: 36150
8d19c6: 36150
8d2186: 36150
8d2205: 36150
8d0981: 36150
8bd884: 36150
8d2284: 36150
8d1143: 36150
8d4283: 36150
a18870: 36150
8d25c0: 36150
8d1903: 36150
8d2842: 36150
8d28c2: 36150
8bd900: 36150
a189c0: 36150
9e7180: 36150
8d2240: 36150
8be240: 36150
8d2902: 36150
8bd9c5: 36150
8d35c3: 36150
8d11c2: 36150
a18885: 36150
8d3240: 36150
8d3505: 36150
8bd285: 36150
8d42c5: 36150
a189b0: 36150
8d1f83: 36150
8d3880: 36150
8d09c5: 36150
8be2c4: 36150
8d2143: 36150
8d1840: 36150
8d39c2: 36150
8d05c1: 36150
8d2642: 36150
8d1283: 36150
8bd243: 36150
8d1646: 36150
8d4186: 36150
8be143: 36150
8d18c0: 36150
8bdf83: 36150
8bd180: 36150
8d12c4: 36150
9e7140: 36150
8be1c6: 36150
8d3943: 36150
8d4241: 36150
8be286: 36150
8d1888: 36150
8d0644: 36150
8d3201: 36150
8d2986: 36150
8d0841: 36150
8d1183: 36150
8d08c3: 36150
8d0903: 36150
8d0943: 36150
8d2942: 36150
8bd5c4: 36150
8bd641: 36150
9e71d9: 36150
8d15c2: 36150
8d1203: 36150
8bd8c0: 36150
8d3642: 36150
8d1241: 36150
8bd943: 36150
8bd987: 36150
8be183: 36150
8d0505: 36150
8d32c4: 36150
8d29c3: 36150
8d2f81: 36150
8d0888: 36150
8d3280: 36150
8bd2c5: 36150
8d02c1: 36150
8bd201: 36150
8d0f83: 36150
8d3f80: 36150
8bcfa0: 36150
8d1981: 36150
8be200: 36150
a18510: 36150
8d3189: 36150
8d3842: 36150
8bd507: 36150
8d38c2: 36150
8bd1c4: 36150
8d4147: 36150
8d3985: 36150
8d4207: 36150
8bf201: 36151
8bef83: 36151
8d0242: 36151
8bf945: 36151
8be902: 36151
8cf981: 36151
8bf9c0: 36151
8bf1c3: 36151
8cf882: 36151
8cf207: 36151
8bf883: 36151
8be886: 36151
8be5c1: 36151
8cf150: 36151
8be841: 36151
8cf500: 36151
8cf246: 36151
8bf502: 36151
8bf903: 36151
8bf644: 36151
8bf987: 36151
8cf5c0: 36151
8cf1c0: 36151
8cf640: 36151
8cf2c2: 36151
8bf5c0: 36151
8cf280: 36151
8d0203: 36151
8bf280: 36151
8cff90: 36151
8be945: 36151
8bf8c1: 36151
8be503: 36151
8cf181: 36151
8bf141: 36151
8be981: 36151
8d01c0: 36151
8bf841: 36151
8cf947: 36151
8cf902: 36151
8be641: 36151
8bf2c4: 36151
8cf9c5: 36151
8cf8c7: 36151
8be8c0: 36151
8bf242: 36151
8bf185: 36151
8d0180: 36151
8d0143: 36151
8d0282: 36151
8be9c4: 36151
8cf840: 36151
BTB TOTAL     ACCESS:    1169485  HIT:    1096958  MISS:      72527  HIT %:    93.7984  MISS %:    6.20162   MPKI: 0.362635
BTB Test counter:          0
BTB BRANCH_DIRECT_JUMP	ACCESS:     217104  HIT:     217073  MISS:         31
BTB BRANCH_INDIRECT	ACCESS:      36158  HIT:      36156  MISS:          2
BTB BRANCH_CONDITIONAL	ACCESS:     482257  HIT:     482171  MISS:         86
BTB BRANCH_DIRECT_CALL	ACCESS:     216983  HIT:     216939  MISS:         44
BTB BRANCH_INDIRECT_CALL	ACCESS:          0  HIT:          0  MISS:          0
BTB BRANCH_RETURN	ACCESS:     216983  HIT:     144619  MISS:      72364
BTB BRANCH_OTHER ACCESS:          0  HIT:          0  MISS:          0

L2C TOTAL     ACCESS:   21748178  HIT:   20686155  MISS:    1062023  HIT %:    95.1167  MISS %:    4.88327   MPKI: 5.31011
L2C Test counter:          0
L2C LOAD      ACCESS:   19231439  HIT:   18298608  MISS:     932831  HIT %:    95.1494  MISS %:    4.85055   MPKI: 4.66415
L2C DATA LOAD MPKI: 4.66226
L2C INSTRUCTION LOAD MPKI: 0.001895
L2C RFO       ACCESS:    1204625  HIT:    1087535  MISS:     117090  HIT %:      90.28  MISS %:    9.72004   MPKI: 0.58545
L2C PREFETCH  ACCESS:          2  HIT:          0  MISS:          2  HIT %:          0  MISS %:        100   MPKI: 1e-05
L2C DATA PREFETCH MPKI: 1e-05
L2C INSTRUCTION PREFETCH MPKI: 0
L2C WRITEBACK ACCESS:    1299566  HIT:    1299401  MISS:        165  HIT %:    99.9873  MISS %:  0.0126965   MPKI: 0.000825
L2C LOAD TRANSLATION ACCESS:      12546  HIT:        611  MISS:      11935  HIT %:    4.87008  MISS %:    95.1299   MPKI: 0.059675
L2C PREFETCH  REQUESTED:          0  ISSUED:          0  USEFUL:          0  USELESS:          2
L2C USEFUL LOAD PREFETCHES:          0 PREFETCH ISSUED TO LOWER LEVEL:          2  ACCURACY: 0
L2C TIMELY PREFETCHES:          0 LATE PREFETCHES: 0 DROPPED PREFETCHES: 0
L2C COMMIT LATE PREFETCHES: 0 MISSED OPPORTUNITY: 0 LATE IN PQ: 0 UNCOVERED: 0
L2C COMMIT LATE MSHR PREFETCHES: 0
L2C MPKI TOTAL: 4.66415 MSHR LATE: 0 PQ LATE: 0 COMMIT LATE: 0 MISSED OPPORTUNITY: 0 UNCOVERED: 0
L2C PREFETCHES SAME FILL-ORIGIN LEVEL: 0 DIFFERENT FILL-ORIGIN LEVEL: 0
L2C AVERAGE MISS LATENCY: 188.478 cycles
L2C AVERAGE MISS LATENCY LOAD: 124.402 cycles
L2C AVERAGE MISS LATENCY PREFETCH: 200 cycles
L2C AVERAGE MSHR OCCUPANCY: 1.00361
L2C MSHR FULL: 0
L2C RQ	ACCESS:   20451406	FORWARD:          0	MERGED:          0	TO_CACHE:   20448610
L2C WQ	ACCESS:    1299566	FORWARD:       2796	MERGED:          0	TO_CACHE:    1299566
L2C PQ	ACCESS:          2	FORWARD:          0	MERGED:          0	TO_CACHE:          2

L2C Instructions Evicting Data 376
L2C Translations Evicting Data 11745
L2C Data Evicting Data 1037436
L2C Instructions Evicting Instructions 0
L2C Translations Evicting Instructions 6
L2C Data Evicting Instructions 373
L2C Instructions Evicting Translations 3
L2C Translations Evicting Translations 184
L2C Data Evicting Translations 11735
L2C Dense regions hint from L2: 0
8bd0c0: 1
8d0483: 1
8cf680: 1
8bf16a: 1
8bd4c4: 1
8bfbc1: 1
9ecd03: 1
8d14c9: 1
8d3340: 1
a2c345: 1
8be3df: 1
8d0c81: 1
8cfbc2: 1
8d0d41: 1
8d30c2: 1
8bd31b: 1
8d1702: 1
8d0583: 1
8d2a04: 1
8bee3b: 1
8bdb16: 1
8d2783: 1
8d2681: 1
8be856: 1
8bd102: 1
8d3f46: 1
8bf042: 1
8d1002: 1
8bf0cf: 1
8d1041: 1
8d0b42: 1
a2c4c1: 1
a090c0: 1
8bf383: 1
8d2083: 1
8cf600: 1
8d2c86: 1
8bdbc4: 1
8d0b08: 1
a2c42a: 1
a0977d: 1
8d3742: 1
8cf741: 1
a2c482: 1
a089c0: 1
a2c440: 1
a2c680: 1
a09000: 1
a09043: 1
a09b57: 1
a09313: 1
a08c95: 1
8d0688: 1
8bf2ab: 1
a09799: 1
8bdd84: 1
8be25f: 1
8d0c41: 1
8d0008: 1
8d2483: 1
a09081: 1
8d23c8: 1
a088c2: 1
8d1804: 1
8d26c0: 1
a08911: 1
a088e4: 1
a67cb0: 1
8bf4e3: 1
a2c2c0: 1
a2c400: 1
a091e9: 1
a2c2a0: 1
a088cd: 1
9e6f83: 1
8d3480: 1
8bea20: 1
8d0d83: 1
a67d72: 1
a089a0: 1
8be344: 1
8cf4c8: 1
8d17c6: 1
9ebd42: 1
8d1f41: 1
a09706: 1
a09140: 1
8d3406: 1
8d00c8: 1
8bed02: 1
8d1b42: 1
8d1c89: 1
8bf580: 1
8d1345: 1
8bd9a9: 1
8cfd43: 1
8d3440: 1
a09282: 1
8cf784: 1
8d1c46: 1
8d3585: 1
8bd0b1: 1
8cf401: 1
8bf678: 1
a09680: 1
8bbc85: 1
8d0107: 1
8d1404: 1
8d1d85: 1
8bdc41: 1
a08a01: 1
a08fa8: 1
8d0602: 1
8bd117: 1
8d4082: 1
8bdcc1: 1
8d2740: 1
8beaa7: 1
8bdf48: 1
a08842: 1
8d1b81: 1
9ebbb0: 1
8bbbc6: 1
a092c3: 1
a2c2d7: 1
8bf633: 1
9ebc80: 1
a093c5: 1
a08802: 1
8bea41: 1
a088b0: 1
8d0cc3: 1
8bf105: 1
a80f42: 1
8d27c4: 1
8bebc4: 1
8d2547: 1
8befee: 1
8d3100: 1
8bdb1d: 1
a67cc2: 1
8d2d82: 1
8d2380: 1
8bf17f: 1
8d0f44: 1
8d20c3: 1
8bbd40: 1
8d2101: 1
8d34c2: 1
8d2343: 1
8d2608: 1
8d2042: 1
8d2403: 1
8d2445: 1
8d24c3: 1
8d2580: 1
8d0803: 1
8d2b01: 1
8d2b48: 1
8d2bc1: 1
8d2a45: 1
8d1547: 1
8d1581: 1
8d1600: 1
8bd781: 1
8be73e: 1
8cf384: 1
8d1682: 1
8bfb01: 1
8d2d08: 1
8bd803: 1
8d16c0: 1
8d1742: 1
8d1b01: 1
8bd62b: 1
8d1cc3: 1
8d1d00: 1
8d2001: 1
8bfa40: 1
8bbd80: 1
8bd043: 1
8bd345: 1
8bd447: 1
8bd540: 1
8bd601: 1
8bd6c1: 1
8bd701: 1
8bbd05: 1
8bd742: 1
8d0704: 1
8bd7c0: 1
8d2f45: 1
8bdd03: 1
8d4105: 1
8bdd44: 1
8be046: 1
8d1486: 1
8d1bc1: 1
8d2d40: 1
8d3002: 1
8d3542: 1
8d3607: 1
8d36c1: 1
8d3701: 1
8bf6c1: 1
8d1446: 1
8d3784: 1
8d4040: 1
8d40c2: 1
8d3080: 1
8bbb40: 1
8bbb30: 1
8bbb81: 1
a2c380: 1
a7f300: 1
a09741: 1
a097c0: 1
8bde6b: 1
8d1384: 1
a09800: 1
8bde72: 1
a09998: 1
8be7c5: 1
a09350: 1
a09925: 1
a089f1: 1
8bf550: 1
a087a3: 1
a08b4a: 1
8d0744: 1
9ecc40: 1
a2c581: 1
a09103: 1
a091a1: 1
a2c542: 1
9ebbc8: 1
8bd7c4: 1
a08740: 1
a087c2: 1
a09785: 1
8d13c2: 1
a09610: 1
8d06c0: 1
a0964c: 1
9ebcc3: 1
a09b3a: 1
a09b8f: 1
8d3040: 1
8d0b80: 1
8d04c0: 1
8cf3c3: 1
8d0542: 1
8d2b87: 1
8bfb82: 1
8d07c8: 1
a2c5c3: 1
8d0a01: 1
8d0440: 1
8d0bc1: 1
8bef43: 1
8d0d08: 1
8d3380: 1
8d1082: 1
8d10c6: 1
8d1101: 1
8d0786: 1
a08ac5: 1
8d37c3: 1
9ecc81: 1
9eccc0: 1
9ecd80: 1
a2c600: 1
a2c301: 1
a08a58: 1
a08a85: 1
8beb82: 1
a08ce0: 1
a08d01: 1
8d2cc6: 1
8d0040: 1
8d0083: 1
8d03c9: 1
8d0407: 1
8bec40: 1
8bf4c0: 1
8bf441: 1
8bf3c0: 1
8bf347: 1
8d4303: 1
8cfd07: 1
8bf0c1: 1
8bf003: 1
8bed82: 1
8bd79e: 1
8beb40: 1
8bea02: 1
8be803: 1
a25bd8: 1
8be700: 1
8be600: 1
8be583: 1
8be4c3: 1
8be482: 1
8bfa02: 1
8cf7c0: 1
8cf704: 1
8be744: 1
8cf6c3: 1
8cf581: 1
8cf542: 1
8cf481: 1
8cf441: 1
8cf344: 1
8d2c41: 1
a08c71: 1
8bf808: 1
8bf7c6: 1
8bf784: 1
8bf746: 1
8bd9df: 1
8bf708: 1
8bf684: 1
8cfa04: 1
8be53b: 1
8d0381: 1
a08941: 1
8d1d41: 1
a0927e: 1
8d0344: 1
8d3680: 1
8d4000: 1
a09398: 1
a08780: 1
8d3803: 1
8be6e1: 1
8becc6: 1
8d1a01: 1
a08730: 1
8bdb82: 1
8be107: 1
8d2703: 1
8beb02: 1
a2c502: 1
a089b1: 1
8bf403: 1
a09200: 1
9ecd41: 1
8bfb45: 1
a09942: 1
a08b00: 1
8d2800: 1
8bf598: 1
8d33c2: 1
8bdb01: 1
8d0a45: 1
8cfa41: 1
a096c2: 1
8bf483: 1
8bec81: 1
8bba80: 1
8be008: 1
8be76f: 1
8be534: 1
8be1e1: 1
8be1da: 1
a2c423: 1
8be3f4: 1
8be33e: 1
8be3a7: 1
8be0ab: 1
8be075: 1
8be930: 1
8bde8d: 1
8bdd29: 1
8bdc72: 1
8bdcde: 1
8bdb9d: 1
8bdd14: 1
8bd9f4: 1
8bd93d: 1
8bf4ce: 1
8bee50: 1
8bf4a0: 1
8bf43b: 1
8bf2b2: 1
8be3c4: 1
8bf2cf: 1
8bef65: 1
8d1a48: 1
8d1783: 1
8bf13c: 1
8cfb03: 1
8bee05: 1
8beda1: 1
8bebec: 1
8bebe5: 1
8bec09: 1
8beab8: 1
8be8b3: 1
8bea78: 1
8be8ac: 1
8bf242: 1
8bd11e: 1
8be55c: 1
8bd2e5: 1
8bd29e: 1
8bd4e0: 1
8bd30a: 1
8cff48: 1
8bd5da: 1
8bef6c: 1
8cfd83: 1
8bd45c: 1
8bd463: 1
8bd661: 1
8bf541: 1
8bbae0: 1
8cfc81: 1
8bcfa0: 1
8cfc41: 1
8bd676: 1
8bd091: 1
8cfb84: 1
8cfcc1: 1
8bd7a5: 1
8cfb41: 1
8cf806: 1
8bdc19: 1
8d1330: 2
8bf3d6: 2
8d3307: 2
8d2300: 2
4004a0: 2
a7f344: 2
8cf300: 2
8be0c0: 2
8be303: 2
8be785: 2
8d0301: 2
8be4de: 3
8be9b4: 3
8bd23e: 4
8be2d2: 5
8bd388: 6
8bd06e: 6
8bcfb0: 6
8bebb8: 8
8bf284: 8
8beb31: 8
8bbd4b: 10
8bf1f7: 11
8beebc: 13
8bd059: 14
8bef37: 16
8bbb5b: 16
8bd006: 16
8bd770: 18
8bd3c0: 19
8bd6e4: 19
8bd3c6: 21
8bbd31: 21
8be477: 21
8bbc39: 22
8bf2e6: 23
8bde3d: 23
8bd38e: 23
8bcfbe: 23
8bd6b5: 24
8be507: 25
8bdda7: 25
8d1504: 26
8bda6f: 27
8bf1d0: 27
8be1b1: 28
8bd3a7: 28
8bd142: 29
8be87f: 30
8bdaf0: 33
8be7f9: 34
8bbc48: 34
8be13d: 36
8bd6bb: 36
8bbd16: 38
8bcfd6: 39
8bf1ee: 43
8beb0a: 44
8bee9c: 46
8bf2b9: 46
8be440: 46
8bbcc2: 46
8be10c: 49
8be7d2: 50
8bd7ac: 50
8bda40: 50
8bef8f: 50
8bbc57: 50
8be11a: 51
8bbcff: 52
8bbcb4: 53
8bbc9d: 53
8beafd: 53
8be7d8: 53
8bec20: 54
8bdd70: 55
8be44e: 56
8be204: 57
8be56e: 57
8bdb40: 59
8bbc6c: 59
8be1e8: 59
8bdd7e: 59
8bf1c3: 59
8bbc8e: 60
8bbc66: 60
8bd7db: 61
8bbc7f: 61
a259b5: 61
8be542: 61
8be8d6: 61
8bdea3: 62
8bde79: 62
8bee97: 62
8bdb24: 64
8bd480: 65
8bd09b: 66
8bda4e: 68
8be8ba: 70
8d2790: 71
8bebf3: 72
8bcfab: 77
8bd0c9: 80
8bef73: 80
8beeaf: 85
8bcff9: 90
8beb28: 95
8bd0fa: 96
8be7eb: 96
8be46c: 97
8bd3a2: 98
8bd6d9: 98
8be12f: 101
8bdd9c: 102
8bda61: 105
8be4d2: 109
8bde06: 109
8bdabb: 109
8be187: 109
8bef01: 109
8bf256: 109
8bd73b: 109
8beb8b: 109
8be84a: 109
8bd400: 110
8bd083: 110
8bf6cb: 112
8bd172: 117
8bd185: 170
8bf62d: 185
8bf69d: 278
8bd2db: 305
8bd2c5: 307
8bf689: 309
8bf607: 330
8bd32b: 332
8bd2b8: 346
a25992: 435
8bd621: 480
8bf5e4: 485
8bd24d: 501
8bd5ef: 504
8bf54a: 555
8bd107: 564
8bd026: 566
8bef56: 570
a259ce: 579
8bebd6: 582
8bf29c: 624
8bf619: 659
8bd227: 666
8be2ec: 673
8bf6ac: 698
8bf644: 701
8bf387: 709
8bf3bb: 717
8bf01e: 741
8becd8: 752
8bd78f: 752
8bd1c8: 770
8bd511: 787
8bdfb1: 837
8be68e: 870
8bd298: 884
8bf3f0: 908
8bd44c: 914
8bdc2e: 916
8bd8ee: 930
8bd609: 966
8bd58d: 968
8bd243: 984
8bd889: 991
8be9ce: 1002
8bf510: 1012
8bf5cf: 1016
8bde5c: 1043
8bd5d5: 1050
8bf04c: 1066
8bd8d1: 1067
8bd686: 1067
8bf081: 1080
8bed41: 1085
8bf0c9: 1092
8bd959: 1096
8bdb07: 1102
8bd4ef: 1102
8be525: 1123
8bd264: 1145
8bf5c0: 1146
8be965: 1164
8bdc6d: 1171
8bd570: 1179
8bf40c: 1191
8be89d: 1192
8bd938: 1233
8bd0e2: 1236
8bd7f5: 1258
8be6dc: 1267
8bd99f: 1267
8bd33f: 1277
8be003: 1292
8be339: 1306
8bf536: 1310
8be1cb: 1311
8be290: 1319
8bdf52: 1344
8bea1b: 1359
8bf059: 1380
8bea6e: 1389
8be623: 1390
8bd420: 1405
8bedfb: 1405
8bed9c: 1411
8bf496: 1413
8bf47e: 1435
8bdbce: 1492
8bf0a6: 1498
8bdcd4: 1506
8be9a6: 1529
8be06b: 1573
8bf5a9: 1580
8bf435: 1585
8bf3c8: 1587
8be39d: 1598
8bed19: 1621
8be739: 1671
8bf132: 1682
8bd75b: 1696
8bf4f7: 1712
8be666: 1778
8bf4b6: 1810
8bdc08: 1843
8bf527: 1851
8bdf89: 1863
8bf301: 1905
8bed0c: 1926
8bef21: 1955
8bdbac: 1958
8bf26e: 1978
8be2c9: 1998
8bec3b: 2036
8beba3: 2038
8bf1a3: 2075
8beffd: 2116
8bd5a4: 2143
8bd905: 2172
8bee7c: 2190
8be7b2: 2210
8be720: 2213
8bd2d0: 2217
8be26e: 2233
8bf561: 2260
8bd277: 2262
8bdc8e: 2265
8bea3c: 2300
8bd987: 2308
8be6b3: 2317
8bdc4a: 2330
8be420: 2350
8bdec2: 2359
8be58d: 2363
8be308: 2366
8bea5a: 2393
8be6f1: 2395
8bedbd: 2405
8be19b: 2455
8beadd: 2464
8be93f: 2466
8bdd55: 2484
8be9ea: 2511
8bda08: 2522
8bd21a: 2525
8be0ec: 2534
8be025: 2548
8bdfd2: 2554
8be86a: 2573
8bd583: 2579
8bdcbc: 2591
8be385: 2592
8bda1c: 2616
8be4f2: 2647
8bed69: 2661
8bd305: 2680
8bf0ec: 2694
8bf450: 2717
8be799: 2722
8bdf83: 2744
8bd69a: 2744
8bede3: 2751
8bd8c0: 2764
8be356: 2787
8be408: 2790
8be0d4: 2808
8be053: 2810
8bdd3d: 2846
8bf124: 2851
8bde27: 2865
8bf11a: 2880
8bf488: 2885
8bf4c9: 2887
8bdc02: 2901
8beacc: 2980
8bd562: 2999
8be659: 3002
8bee64: 3012
8be72a: 3022
8beded: 3022
8bf4de: 3101
8be2c4: 3116
8bf41f: 3125
8be999: 3139
8bdadb: 3154
8bea5f: 3168
8be38f: 3247
8bd5b7: 3256
8bf193: 3332
8bd9ef: 3443
8bdcc6: 3475
8bf14a: 3515
8be05d: 3530
a259a4: 3540
8bd671: 3581
8bd316: 3607
8bd991: 3653
8bdd24: 3680
8be6c6: 3704
8bd2f7: 3709
8bee4b: 3734
8bf17a: 3765
8bd65c: 3775
8be31b: 3806
8beab2: 3808
8bd613: 3829
8bed7c: 3833
8be9fd: 3860
8be77f: 3902
8be3ef: 3926
8bdfe5: 3929
8bf0b1: 3936
8be0bb: 3943
8bf165: 3945
8bd918: 3947
8bdd0f: 4003
8be0a6: 4017
8be769: 4022
8bd8e4: 4030
8bd9bf: 4039
8bee1b: 4055
8bea87: 4059
8bd9da: 4085
8be756: 4116
8bdc55: 4116
8beaa2: 4156
8bd641: 4156
8bf3e6: 4204
8be3d9: 4219
8bee36: 4245
8be3be: 4262
8bed37: 4269
8be08b: 4276
8be684: 4288
8bf077: 4289
8bdfa7: 4334
8bdcf4: 4345
8bdc29: 4362
8be2e2: 4372
8be9c4: 4405
8bec25: 4574
8bf2eb: 4574
8be8db: 4574
8bdea8: 4574
8bd147: 4574
8be573: 4574
8bef94: 4574
8bd485: 4574
8be209: 4574
8bd7e0: 4574
8bdb45: 4574
8bf63e: 4682
8bbb4c: 4682
8bf698: 4682
8bbc2a: 4682
8bf4b1: 4682
8bf4f2: 4682
8bf65b: 4682
8bf58a: 4682
8bbba0: 4682
8bd63c: 4682
8be7ac: 4682
8bf66a: 4682
8be3b9: 4682
8bd33a: 4682
8bf6c5: 4682
8bf6d5: 4682
8bbc13: 4682
8bee77: 4682
8bf5ef: 4682
8bf50a: 4682
8beac7: 4682
8bf5ae: 4682
8bf145: 4682
8bf59e: 4682
8bdd50: 4682
8bbbb7: 4682
8bf6da: 4682
8bf55b: 4682
8bd2f2: 4682
8bf67e: 4682
8bbbce: 4682
8bf6a7: 4682
8be0cf: 4682
8bbbfc: 4682
8bea81: 4682
8be0e7: 4682
8bbcd9: 4682
8be01a: 4682
8bee16: 4682
8bead7: 4682
8be41b: 4682
8bf5de: 4682
8bf68e: 4682
8bf5b8: 4682
8bbb72: 4682
8bea32: 4682
8bbb89: 4682
8bf5f4: 4682
8be348: 4682
8be6eb: 4682
8be750: 4682
8be794: 4682
8bdd38: 4682
8bf445: 4682
8bd94f: 4682
8bee5f: 4682
8bd2ad: 4682
8bd326: 4682
8bf57b: 4682
8bdcef: 4682
8bf18e: 4682
8bf0e1: 4682
8bda17: 4682
8bbbe5: 4682
8bf19e: 4682
8bedb3: 4682
8bd695: 4682
8bf5ca: 4682
8bd9ba: 4682
8bd5e4: 4682
8bd681: 4683
8bda03: 4683
8be403: 4683
8be086: 4683
8bdc84: 4683
PSCL5 TOTAL     ACCESS:       8295  HIT:       8295  MISS:          0  HIT %:        100  MISS %:          0   MPKI: 0
PSCL5 Test counter:          0
PSCL5 LOAD TRANSLATION ACCESS:       8295  HIT:       8295  MISS:          0  HIT %:        100  MISS %:          0   MPKI: 0
PSCL5 PREFETCH  REQUESTED:          0  ISSUED:          0  USEFUL:          0  USELESS:          0
PSCL5 USEFUL LOAD PREFETCHES:          0 PREFETCH ISSUED TO LOWER LEVEL:          0  ACCURACY: -nan
PSCL5 TIMELY PREFETCHES:          0 LATE PREFETCHES: 0 DROPPED PREFETCHES: 0
PSCL5 COMMIT LATE PREFETCHES: 0 MISSED OPPORTUNITY: 0 LATE IN PQ: 0 UNCOVERED: 0
PSCL5 COMMIT LATE MSHR PREFETCHES: 0
PSCL5 MPKI TOTAL: 0 MSHR LATE: 0 PQ LATE: 0 COMMIT LATE: 0 MISSED OPPORTUNITY: 0 UNCOVERED: 0
PSCL5 PREFETCHES SAME FILL-ORIGIN LEVEL: 0 DIFFERENT FILL-ORIGIN LEVEL: 0

PSCL4 TOTAL     ACCESS:       8295  HIT:       8295  MISS:          0  HIT %:        100  MISS %:          0   MPKI: 0
PSCL4 Test counter:          0
PSCL4 LOAD TRANSLATION ACCESS:       8295  HIT:       8295  MISS:          0  HIT %:        100  MISS %:          0   MPKI: 0
PSCL4 PREFETCH  REQUESTED:          0  ISSUED:          0  USEFUL:          0  USELESS:          0
PSCL4 USEFUL LOAD PREFETCHES:          0 PREFETCH ISSUED TO LOWER LEVEL:          0  ACCURACY: -nan
PSCL4 TIMELY PREFETCHES:          0 LATE PREFETCHES: 0 DROPPED PREFETCHES: 0
PSCL4 COMMIT LATE PREFETCHES: 0 MISSED OPPORTUNITY: 0 LATE IN PQ: 0 UNCOVERED: 0
PSCL4 COMMIT LATE MSHR PREFETCHES: 0
PSCL4 MPKI TOTAL: 0 MSHR LATE: 0 PQ LATE: 0 COMMIT LATE: 0 MISSED OPPORTUNITY: 0 UNCOVERED: 0
PSCL4 PREFETCHES SAME FILL-ORIGIN LEVEL: 0 DIFFERENT FILL-ORIGIN LEVEL: 0

PSCL3 TOTAL     ACCESS:       8283  HIT:       8281  MISS:          2  HIT %:    99.9759  MISS %:  0.0241458   MPKI: 1e-05
PSCL3 Test counter:          0
PSCL3 LOAD TRANSLATION ACCESS:       8283  HIT:       8281  MISS:          2  HIT %:    99.9759  MISS %:  0.0241458   MPKI: 1e-05
PSCL3 PREFETCH  REQUESTED:          0  ISSUED:          0  USEFUL:          0  USELESS:          0
PSCL3 USEFUL LOAD PREFETCHES:          0 PREFETCH ISSUED TO LOWER LEVEL:          0  ACCURACY: -nan
PSCL3 TIMELY PREFETCHES:          0 LATE PREFETCHES: 0 DROPPED PREFETCHES: 0
PSCL3 COMMIT LATE PREFETCHES: 0 MISSED OPPORTUNITY: 0 LATE IN PQ: 0 UNCOVERED: 0
PSCL3 COMMIT LATE MSHR PREFETCHES: 0
PSCL3 MPKI TOTAL: 0 MSHR LATE: 0 PQ LATE: 0 COMMIT LATE: 0 MISSED OPPORTUNITY: 0 UNCOVERED: 0
PSCL3 PREFETCHES SAME FILL-ORIGIN LEVEL: 0 DIFFERENT FILL-ORIGIN LEVEL: 0

PSCL2 TOTAL     ACCESS:       8295  HIT:       4037  MISS:       4258  HIT %:    48.6679  MISS %:    51.3321   MPKI: 0.02129
PSCL2 Test counter:          0
PSCL2 LOAD TRANSLATION ACCESS:       8295  HIT:       4037  MISS:       4258  HIT %:    48.6679  MISS %:    51.3321   MPKI: 0.02129
PSCL2 PREFETCH  REQUESTED:          0  ISSUED:          0  USEFUL:          0  USELESS:          0
PSCL2 USEFUL LOAD PREFETCHES:          0 PREFETCH ISSUED TO LOWER LEVEL:          0  ACCURACY: -nan
PSCL2 TIMELY PREFETCHES:          0 LATE PREFETCHES: 0 DROPPED PREFETCHES: 0
PSCL2 COMMIT LATE PREFETCHES: 0 MISSED OPPORTUNITY: 0 LATE IN PQ: 0 UNCOVERED: 0
PSCL2 COMMIT LATE MSHR PREFETCHES: 0
PSCL2 MPKI TOTAL: 0 MSHR LATE: 0 PQ LATE: 0 COMMIT LATE: 0 MISSED OPPORTUNITY: 0 UNCOVERED: 0
PSCL2 PREFETCHES SAME FILL-ORIGIN LEVEL: 0 DIFFERENT FILL-ORIGIN LEVEL: 0

LLC TOTAL     ACCESS:    1179075  HIT:     652425  MISS:     526650  HIT %:    55.3336  MISS %:    44.6664   MPKI: 2.63325
LLC Test counter:          0
LLC LOAD      ACCESS:     932831  HIT:     524379  MISS:     408452  HIT %:    56.2137  MISS %:    43.7863   MPKI: 2.04226
LLC RFO       ACCESS:     117089  HIT:          2  MISS:     117087  HIT %:  0.0017081  MISS %:    99.9983   MPKI: 0.585435
LLC PREFETCH  ACCESS:          2  HIT:          0  MISS:          2  HIT %:          0  MISS %:        100   MPKI: 1e-05
LLC WRITEBACK ACCESS:     117218  HIT:     117163  MISS:         55  HIT %:    99.9531  MISS %:  0.0469211   MPKI: 0.000275
LLC LOAD TRANSLATION ACCESS:      11935  HIT:      10881  MISS:       1054  HIT %:    91.1688  MISS %:    8.83117   MPKI: 0.00527
LLC PREFETCH  REQUESTED:          0  ISSUED:          0  USEFUL:          0  USELESS:          2
LLC USEFUL LOAD PREFETCHES:          0 PREFETCH ISSUED TO LOWER LEVEL:          2  ACCURACY: 0
LLC TIMELY PREFETCHES:          0 LATE PREFETCHES: 0 DROPPED PREFETCHES: 0
LLC COMMIT LATE PREFETCHES: 0 MISSED OPPORTUNITY: 0 LATE IN PQ: 0 UNCOVERED: 0
LLC COMMIT LATE MSHR PREFETCHES: 0
LLC MPKI TOTAL: 2.04226 MSHR LATE: 0 PQ LATE: 0 COMMIT LATE: 0 MISSED OPPORTUNITY: 0 UNCOVERED: 0
LLC PREFETCHES SAME FILL-ORIGIN LEVEL: 0 DIFFERENT FILL-ORIGIN LEVEL: 0
LLC AVERAGE MISS LATENCY: 318.776 cycles
LLC AVERAGE MISS LATENCY LOAD: 214.629 cycles
LLC AVERAGE MISS LATENCY PREFETCH: 170 cycles
LLC AVERAGE MSHR OCCUPANCY: 2.73534
LLC MSHR FULL: 0
LLC RQ	ACCESS:    1061856	FORWARD:          0	MERGED:          0	TO_CACHE:    1061855
LLC WQ	ACCESS:     117218	FORWARD:          1	MERGED:          0	TO_CACHE:     117218
LLC PQ	ACCESS:          2	FORWARD:          0	MERGED:          0	TO_CACHE:          2

LLC Dense regions hint to LLC: 0
8bea41: 1
8bdd29: 1
a08a58: 1
8beb02: 1
8d3440: 1
8bea02: 1
8beeaf: 1
8d23c8: 1
8bd770: 1
8befee: 1
8be46c: 1
8d30c2: 1
8be76f: 1
8d1d00: 1
8d2403: 1
a67d72: 1
8be744: 1
8cfd43: 1
8bbc9d: 1
8beb40: 1
8bee05: 1
8bec40: 1
a2c581: 1
8d2b48: 1
8be803: 1
8bd059: 1
a08842: 1
8d1b81: 1
8cf481: 1
8bed82: 1
8beb82: 1
8bf003: 1
8bf105: 1
8d00c8: 1
8beafd: 1
a089b1: 1
8cfc41: 1
8d2042: 1
8d2f45: 1
8bd31b: 1
8bdd03: 1
8beda1: 1
8bbcb4: 1
8d4105: 1
8bd0c0: 1
8bdd44: 1
a09000: 1
8bbd05: 1
8be046: 1
8bbc66: 1
8bcfa0: 1
8be3a7: 1
8be482: 1
8be4c3: 1
8be583: 1
8bf1c3: 1
8bda6f: 1
8bd3a2: 1
a09398: 1
8be600: 1
8be700: 1
8d1082: 1
8d3380: 1
8beb28: 1
8bd9a9: 1
8bf7c6: 1
8bd803: 1
8beaa7: 1
8d1600: 1
8bfb45: 1
a088cd: 1
9e6f83: 1
8bf678: 1
a09942: 1
8d2a45: 1
8bf784: 1
8d0040: 1
a0927e: 1
8bdd9c: 1
8bebc4: 1
8bf708: 1
8d36c1: 1
a08c71: 1
a088e4: 1
8d2681: 1
8bfb01: 1
a67cc2: 1
8bebe5: 1
8d0542: 1
8bd463: 1
8d2380: 1
8cf3c3: 1
8cf401: 1
8cf441: 1
8d17c6: 1
8cf4c8: 1
8cf542: 1
a0964c: 1
8bdb16: 1
8d10c6: 1
a80f42: 1
8bf347: 1
a2c423: 1
8be56e: 1
8bf3c0: 1
8d0786: 1
8beab8: 1
a67cb0: 1
8bd09b: 1
8be8ac: 1
a2c380: 1
a09200: 1
8bf403: 1
8d2783: 1
8d2d82: 1
8bf483: 1
8cf806: 1
8bf4c0: 1
8d2c41: 1
8d1345: 1
8bbcff: 1
8bf580: 1
8d24c3: 1
a09785: 1
8bf684: 1
8bd9df: 1
8d1702: 1
8d0583: 1
8d1c46: 1
8bed02: 1
8be1e8: 1
a09081: 1
a08a85: 1
8bee9c: 1
a090c0: 1
8bdea3: 1
8cfb41: 1
8d3406: 1
a09140: 1
8bf284: 1
a091a1: 1
8d2083: 1
8bbb81: 1
8bec81: 1
8bbb30: 1
a09282: 1
a09925: 1
a09350: 1
a2c680: 1
8bdd70: 1
8cfb84: 1
8bbd80: 1
8d1547: 1
8be8b3: 1
8d0b80: 1
8bdaf0: 1
8d2483: 1
a2c2c0: 1
8bf4e3: 1
8d3784: 1
8d1486: 1
8bf6c1: 1
8bcff9: 1
8bdd84: 1
8bd117: 1
8cfb03: 1
8d4040: 1
8bdcc1: 1
8d3f46: 1
a7f300: 1
8be7c5: 1
a09741: 1
8d3701: 1
8d4082: 1
a093c5: 1
8bbb5b: 1
8d07c8: 1
8bfb82: 1
8d1002: 1
8bebb8: 1
8d40c2: 1
8d2740: 1
a08802: 1
a087c2: 1
8be3c4: 1
a08fa8: 1
8d3080: 1
a08c95: 1
8d0688: 1
9ebbc8: 1
8bf383: 1
8be204: 1
8bdb24: 1
a2c502: 1
8bbb40: 1
8d0704: 1
8bda4e: 1
8bdf48: 1
8bd540: 1
8bd601: 1
8bfa02: 1
8cf344: 1
8cfa41: 1
8bd6c1: 1
8bd701: 1
8d1446: 1
8d3542: 1
8bdbc4: 1
8d0b08: 1
8bfa40: 1
8bd742: 1
a09103: 1
8bd7ac: 1
8bd7c0: 1
9ecd03: 1
8bfbc1: 1
9ebcc3: 1
8be477: 1
8becc6: 1
8d0744: 1
9ecc40: 1
a09706: 1
8d0a45: 1
8bdb01: 1
a2c4c1: 1
8be344: 1
a2c2a0: 1
8bbc6c: 1
8d3803: 1
8bd043: 1
a088c2: 1
8be930: 1
8bd102: 1
a089a0: 1
8bcfd6: 1
a08941: 1
8bd345: 1
8bd5da: 1
a2c542: 1
8cfa04: 1
8d4000: 1
8bf746: 1
a08911: 1
8bdb1d: 1
8bbd31: 1
8d03c9: 1
8bdd7e: 1
8bba80: 1
8bbd40: 1
8d2101: 1
8d20c3: 1
8d0f44: 1
8bf17f: 1
8d1f41: 1
a25bd8: 1
8bd447: 1
8cf704: 1
8bd4c4: 1
8d2a04: 1
8bef65: 1
8bf2cf: 1
8bf2b9: 1
8bd7a5: 1
8bf4ce: 1
8bf1f7: 1
8bd4e0: 1
8bf1ee: 1
8bd3a7: 1
8bf2e6: 1
8cf741: 1
8bf1d0: 1
a2c482: 1
8bd3c6: 1
8d2608: 1
8bf0cf: 1
8bf13c: 1
8bf16a: 1
8bd45c: 1
8be11a: 1
8bd661: 1
a08740: 1
8bd7c4: 1
8bf2b2: 1
8bf43b: 1
8be25f: 1
8bf4a0: 1
8bd6b5: 1
8bd6d9: 1
8bd676: 1
8d1cc3: 1
8bd62b: 1
8bd7db: 1
8d26c0: 1
8d3002: 1
8d2cc6: 1
a08d01: 1
8d2bc1: 1
8d2d08: 1
8bf2ab: 1
a08730: 1
a09313: 1
a09b8f: 1
a09799: 1
8d2c86: 1
a089c0: 1
8d2580: 1
8d33c2: 1
a096c2: 1
8bf808: 1
8bf598: 1
8d3040: 1
8d0c41: 1
8bd2e5: 1
8bdd14: 1
8d3480: 1
8bf441: 1
8d3585: 1
8d3607: 1
a2c42a: 1
a0977d: 1
8d3742: 1
8d13c2: 1
8d37c3: 1
8bef73: 1
8bee97: 1
8be1da: 1
8d1682: 1
a087a3: 1
8bf550: 1
8be6e1: 1
8be10c: 1
8be4de: 1
a088b0: 1
8be1e1: 1
8cf384: 1
8be44e: 1
8bde79: 1
8be33e: 1
8be3f4: 1
8be12f: 1
8bcfb0: 1
a09680: 1
a08ce0: 1
8be73e: 1
8be534: 1
8be7f9: 1
8be87f: 1
8bdc41: 1
8be7eb: 1
8bea20: 1
8bbbc6: 1
9ebbb0: 1
8beb0a: 1
8be8d6: 1
8bec09: 1
8bbd4b: 1
8bebf3: 1
8bee3b: 1
8be008: 1
8bd79e: 1
8d1101: 1
8bdb9d: 1
8bea78: 1
8bda61: 1
8bf633: 1
8bf042: 1
8be13d: 1
8bdcde: 1
8bdc72: 1
8bde3d: 1
8bbc85: 1
8be7d2: 1
8bde8d: 1
8be107: 1
8d27c4: 1
8be53b: 1
8bdda7: 1
8be7d8: 1
8be075: 1
8d1384: 1
8bde6b: 1
8be0ab: 1
8d2703: 1
8be8ba: 1
a09998: 1
8bde72: 1
8be1b1: 1
8be55c: 1
8beb31: 1
8bebec: 1
9eccc0: 1
a2c2d7: 1
8cfd83: 1
a2c600: 1
9ecd41: 1
8d1b42: 1
8cfd07: 1
8be3df: 1
8d4303: 1
a08ac5: 1
9ecc81: 1
8d06c0: 1
a09610: 1
8d0a01: 1
a2c5c3: 1
8bf0c1: 1
a08b4a: 1
8d0cc3: 1
8d2800: 1
a08b00: 1
8d0c81: 1
8beebc: 1
8cff48: 1
8bbae0: 1
8d0008: 1
8bbc39: 1
8d0083: 1
8bbc57: 1
8d0107: 1
8bbc7f: 1
8d16c0: 1
8bee50: 1
8bd29e: 1
8d0440: 1
8cfbc2: 1
8d1404: 1
8d0d41: 1
a08a01: 1
8cf784: 1
a091e9: 1
9ebc80: 1
a092c3: 1
9ebd42: 1
8bd6bb: 1
8bd6e4: 1
8cf6c3: 1
8bd93d: 1
8cf680: 1
8d2b87: 1
8cf581: 1
8bf541: 1
9ecd80: 1
8d34c2: 1
8d2343: 1
a097c0: 1
a09800: 1
8d2d40: 1
8d1bc1: 1
a09043: 1
a09b57: 1
8cfc81: 1
a2c301: 1
8cfcc1: 1
8d1804: 1
a089f1: 1
8bd9f4: 1
8d3340: 1
8bef8f: 1
8cf600: 1
8bd06e: 1
8bec20: 1
8d1742: 1
8bd781: 1
8d1581: 1
8d14c9: 1
8bdb82: 1
8bef37: 1
8bbc8e: 1
8bd38e: 1
8d1041: 1
8d0d83: 1
8d0bc1: 1
8d2445: 1
8bef43: 1
8bd142: 1
8d2547: 1
8bd11e: 1
8d2001: 1
8d1d85: 1
8d3100: 1
8bef6c: 1
8d1d41: 1
8d3680: 1
8d0d08: 1
8d1c89: 1
8cf7c0: 1
8d1b01: 1
8d1a48: 1
8d1783: 1
8d1a01: 1
8d0b42: 1
a08780: 1
8d0344: 1
8bd0b1: 1
8d0381: 1
8d0407: 1
a2c345: 1
8d0483: 1
8d04c0: 1
a09b3a: 1
8d0602: 1
a2c400: 1
8d0803: 1
a2c440: 1
8bd30a: 1
8bbd16: 1
8d2b01: 1
8cf300: 2
8d1330: 2
8bcfab: 2
8bbc48: 2
8bd3c0: 2
8be785: 2
8be303: 2
4004a0: 2
8bd388: 2
8bdb40: 2
8d0301: 2
8d2300: 2
8be440: 2
a7f344: 2
8be542: 2
8be0c0: 2
8bbcc2: 2
8d3307: 2
8bd480: 2
8bd006: 2
8bda40: 2
8d2790: 3
8bd0fa: 3
8bd172: 4
a259b5: 9
8bec3b: 20
8bf644: 20
8bd511: 20
8bda1c: 20
8be93f: 20
8bd9bf: 20
8be7b2: 20
8bd686: 20
8bf193: 20
8bd78f: 20
8bdcf4: 20
8be756: 20
8bd4ef: 20
8bd641: 20
8bd7f5: 20
8be525: 20
8bd889: 20
8bd69a: 20
8bee7c: 20
8bd959: 20
8bda08: 20
8bdbac: 20
8bd33f: 20
8bdc8e: 20
8bdf52: 20
8bdec2: 20
8bdd55: 20
8be025: 20
8bee1b: 20
8be08b: 20
8be0d4: 20
8be26e: 20
8be356: 20
8bef21: 20
8bd0e2: 20
8bd107: 20
8be4f2: 20
8bd420: 20
8bd44c: 20
8bdb07: 20
8bdadb: 20
8bde5c: 20
8be89d: 20
8be86a: 20
8be6f1: 20
8bef56: 20
8bf26e: 20
8bd75b: 20
8bf29c: 20
8bd026: 20
8bd2f7: 20
8bd32b: 20
8bde27: 20
8bd2b8: 20
8bf561: 20
8bedbd: 20
8bee64: 20
8bf01e: 20
8bf1a3: 20
8bebd6: 20
8beba3: 20
8bf14a: 20
8bf510: 20
8bf387: 20
8beacc: 20
8bdd3d: 20
8bf0ec: 20
8be1cb: 20
8bf450: 20
8bf5a9: 20
8be799: 20
8bdbce: 20
8bf4b6: 20
8bf4f7: 20
8be420: 20
8be0ec: 20
8be58d: 20
8be3be: 20
8be290: 20
8bd5ef: 20
8be19b: 20
8be623: 20
8be408: 20
8be965: 20
8bea87: 20
8beadd: 20
8bf689: 20
8bd1c8: 20
8bea3c: 20
8becd8: 20
8beffd: 20
8bdc6d: 21
8bd5d5: 21
8bf4c9: 21
8bf0c9: 21
8bf47e: 21
8bd5a4: 21
8bd671: 21
8bf3e6: 21
8bf3bb: 21
8bf527: 21
8bf435: 21
8be3ef: 21
8be9c4: 21
8bf54a: 21
8bf17a: 21
8bf132: 21
8bf0a6: 21
8bf04c: 21
8bd316: 21
8bf165: 21
8bd243: 21
8bd21a: 21
8bd938: 21
8bd298: 21
8bd99f: 21
8bd2db: 21
8bdc4a: 21
8be9ea: 21
8be720: 21
8be77f: 21
8be06b: 21
8be0bb: 21
8be2e2: 21
8be39d: 21
8be339: 21
8be2c4: 21
8be3d9: 21
8bd562: 21
8be739: 21
8be053: 21
8bea6e: 21
8bea1b: 21
8bf077: 21
8beaa2: 21
8bea5a: 21
8bdcbc: 21
8bed37: 21
8bede3: 21
8bd905: 21
8bf5c0: 21
8bd609: 21
8bd65c: 21
8bf40c: 21
8bf4de: 21
8bf496: 21
8bd9da: 21
8bf62d: 21
8bd8c0: 21
8bf69d: 21
8bf6cb: 21
8bd9ef: 21
8bd987: 21
8be769: 21
8bdfa7: 21
8bdf83: 21
8be6dc: 21
8bdfd2: 21
8bdd0f: 21
8be308: 21
8bd621: 21
8be6b3: 21
8bf5e4: 21
8bed9c: 21
8be659: 21
8bdcd4: 21
8bf11a: 21
8bedfb: 21
8bd2c5: 21
8bee36: 21
8bd264: 21
8bd8e4: 21
8bed69: 21
8beab2: 21
8bdc02: 21
8be999: 21
8bdc29: 21
8bed0c: 21
8bee4b: 21
8be0a6: 21
8bdd24: 21
8bf301: 22
8bd8ee: 22
8be2ec: 22
8bf059: 22
8be05d: 22
8bf536: 22
8be9a6: 22
8bd613: 22
8bf619: 22
8be385: 22
8bd8d1: 22
8bdfb1: 22
8bed19: 22
8be2c9: 22
8bf6ac: 22
8bdc2e: 22
8bdf89: 22
8bdfe5: 22
8be31b: 22
8bd991: 22
8bdc55: 22
8be684: 22
8be38f: 22
8bea5f: 22
8bdc08: 22
8bf488: 22
8bed7c: 22
8bf5cf: 22
8bd58d: 22
8bf607: 22
8bd277: 22
8bd227: 22
8beded: 22
8bdcc6: 22
8bd24d: 22
8bd918: 22
8bd583: 22
8be9fd: 22
8be003: 22
8bd5b7: 22
8be72a: 22
8bf124: 22
8bd2d0: 22
8be9ce: 22
8bd570: 22
8bf41f: 22
8be68e: 22
8bf3c8: 22
a25992: 22
8bf0b1: 22
8be666: 22
8bf3f0: 22
8bf081: 23
8bd305: 23
8be6c6: 23
8bed41: 23
a259ce: 25
8bef01: 109
8bde06: 109
8bdabb: 109
8bf256: 109
8be187: 109
8beb8b: 109
8bd73b: 109
8be4d2: 109
8be84a: 109
8bd400: 110
8bd083: 110
a259a4: 243
8be573: 4574
8bef94: 4574
8bf2eb: 4574
8be8db: 4574
8bdea8: 4574
8be209: 4574
8bd7e0: 4574
8bd147: 4574
8bd485: 4574
8bec25: 4574
8bdb45: 4574
8bf63e: 4682
8bdcef: 4682
8be3b9: 4682
8bd695: 4682
8bf6a7: 4682
8bf67e: 4682
8bbcd9: 4682
8bd33a: 4682
8bf6c5: 4682
8bf4b1: 4682
8bead7: 4682
8bf5b8: 4682
8bbbb7: 4682
8bf5ae: 4682
8bbb72: 4682
8bf5ca: 4682
8bbbe5: 4682
8bda17: 4682
8bea81: 4682
8bf65b: 4682
8bf59e: 4682
8be6eb: 4682
8be01a: 4682
8bbba0: 4682
8bd94f: 4682
8be0e7: 4682
8be794: 4682
8beac7: 4682
8bf5de: 4682
8bbb89: 4682
8bf6d5: 4682
8bd63c: 4682
8bf145: 4682
8bbb4c: 4682
8bf19e: 4682
8bea32: 4682
8be41b: 4682
8bf18e: 4682
8bbbfc: 4682
8bdd38: 4682
8bf698: 4682
8be7ac: 4682
8bd326: 4682
8be0cf: 4682
8bf55b: 4682
8bf50a: 4682
8bf5f4: 4682
8bf5ef: 4682
8bd2f2: 4682
8bf445: 4682
8be750: 4682
8bf0e1: 4682
8bf57b: 4682
8bbc13: 4682
8bf68e: 4682
8bdd50: 4682
8bd5e4: 4682
8bbc2a: 4682
8bee77: 4682
8bf4f2: 4682
8bd9ba: 4682
8bf6da: 4682
8bedb3: 4682
8bf66a: 4682
8bbbce: 4682
8bf58a: 4682
8bd2ad: 4682
8be348: 4682
8bee5f: 4682
8bee16: 4682
8bda03: 4683
8bd681: 4683
8bdc84: 4683
8be403: 4683
8be086: 4683

RAW hits: 452107
Loads Generated: 77835659
Loads sent to L1D: 77383552
Stores Generated: 16016275
Stores sent to L1D: 16016277
Major fault: 0 Minor fault: 8463
Allocated PAGES: 8463
Total Load insts: 107749799
Total Non-spec loads: 7184804
Percentage of speculative loads: 93.332
L1D response latency: 24.1684 cycles
Load retirement latency: 111.019 cycles

CPU 0 L1D PC-based stride prefetcher final stats
Degree: 3

DRAM Statistics
 CHANNEL 0
 RQ ROW_BUFFER_HIT:     278293  ROW_BUFFER_MISS:     248302
 DBUS_CONGESTED:        196
 WQ ROW_BUFFER_HIT:      55583  ROW_BUFFER_MISS:      60154  FULL:          0

 AVG_CONGESTED_CYCLE: 4
 All warmup complete: 2
Channel 0 Bank busy for read cycles: 0
Channel 0 Bank busy for write cycles: 0
Channel 0
Rank 0
0banks busy for read cycles: 188256660
0banks busy for write cycles: 50839
1banks busy for read cycles: 25821406
1banks busy for write cycles: 8642110
2banks busy for read cycles: 5055224
2banks busy for write cycles: 2315678
3banks busy for read cycles: 2595464
3banks busy for write cycles: 2036023
4banks busy for read cycles: 460982
4banks busy for write cycles: 500951
5banks busy for read cycles: 573938
5banks busy for write cycles: 314564
6banks busy for read cycles: 340856
6banks busy for write cycles: 226409
7banks busy for read cycles: 97646
7banks busy for write cycles: 72308
8banks busy for read cycles: 205
8banks busy for write cycles: 2047

CPU 0 Branch Prediction Accuracy: 99.9869% MPKI: 0.001165 Average ROB Occupancy at Mispredict: 28.3605
Branch types
NOT_BRANCH: 198225696 99.1128%
BRANCH_DIRECT_JUMP: 217104 0.108552%
BRANCH_INDIRECT: 36158 0.018079%
BRANCH_CONDITIONAL: 1086728 0.543364%
BRANCH_DIRECT_CALL: 216983 0.108491%
BRANCH_INDIRECT_CALL: 0 0%
BRANCH_RETURN: 216983 0.108491%
BRANCH_OTHER: 0 0%

DRAM PAGES: 1048576
Allocated PAGES: 8463
