
*** ChampSim Multicore Out-of-Order Simulator ***

Warmup Instructions: 50000000
Simulation Instructions: 200000000
Number of CPUs: 1
LLC sets: 2048
LLC ways: 16
Secure Berti: OFF
Berti: OFF
Berti Fill: OFF
On commit prefetching: OFF
L2 LLC Bypass speculative loads: OFF
Off-chip DRAM Size: 4096 MB Channels: 1 Width: 64-bit Data Rate: 6400 MT/s
CPU 0 runs /home/sumon/secure_berti/Berti_Baseline/../../traces/spec/619.lbm_s-2677B.champsimtrace.xz
.xz
BTB has LRU replacement policy
ITLB has LRU replacement policy
DTLB has LRU replacement policy
STLB has LRU replacement policy
L1I has LRU replacement policy
CPU 0 L1D IP-based stride prefetcher
L1D has LRU replacement policy
L2C has LRU replacement policy
LLC has LRU replacement policy
Heartbeat CPU 0 instructions: 10000001 cycles: 2915825 heartbeat IPC: 3.42956 cumulative IPC: 3.42956 (Simulation time: 0 hr 0 min 21 sec) 
Heartbeat CPU 0 instructions: 20000001 cycles: 5821467 heartbeat IPC: 3.44158 cumulative IPC: 3.43556 (Simulation time: 0 hr 0 min 41 sec) 
Heartbeat CPU 0 instructions: 30000000 cycles: 8734697 heartbeat IPC: 3.43262 cumulative IPC: 3.43458 (Simulation time: 0 hr 1 min 1 sec) 
Heartbeat CPU 0 instructions: 40000000 cycles: 11644636 heartbeat IPC: 3.4365 cumulative IPC: 3.43506 (Simulation time: 0 hr 1 min 20 sec) 
Heartbeat CPU 0 instructions: 50000001 cycles: 14563144 heartbeat IPC: 3.42641 cumulative IPC: 3.43332 (Simulation time: 0 hr 1 min 40 sec) 

Warmup complete CPU 0 instructions: 50000001 cycles: 14563144 (Simulation time: 0 hr 1 min 40 sec) 

Heartbeat CPU 0 instructions: 60000001 cycles: 36068056 heartbeat IPC: 0.46501 cumulative IPC: 0.46501 (Simulation time: 0 hr 2 min 23 sec) 
Heartbeat CPU 0 instructions: 70000002 cycles: 57326576 heartbeat IPC: 0.4704 cumulative IPC: 0.467689 (Simulation time: 0 hr 3 min 5 sec) 
Heartbeat CPU 0 instructions: 80000001 cycles: 78732806 heartbeat IPC: 0.467154 cumulative IPC: 0.467511 (Simulation time: 0 hr 3 min 47 sec) 
Heartbeat CPU 0 instructions: 90000000 cycles: 100532954 heartbeat IPC: 0.458712 cumulative IPC: 0.46528 (Simulation time: 0 hr 4 min 30 sec) 
Heartbeat CPU 0 instructions: 100000000 cycles: 122214634 heartbeat IPC: 0.461219 cumulative IPC: 0.464462 (Simulation time: 0 hr 5 min 13 sec) 
Heartbeat CPU 0 instructions: 110000000 cycles: 144038578 heartbeat IPC: 0.458212 cumulative IPC: 0.463408 (Simulation time: 0 hr 5 min 56 sec) 
Heartbeat CPU 0 instructions: 120000000 cycles: 165493300 heartbeat IPC: 0.466098 cumulative IPC: 0.463791 (Simulation time: 0 hr 6 min 38 sec) 
Heartbeat CPU 0 instructions: 130000001 cycles: 186913665 heartbeat IPC: 0.466846 cumulative IPC: 0.46417 (Simulation time: 0 hr 7 min 21 sec) 
Heartbeat CPU 0 instructions: 140000001 cycles: 208466517 heartbeat IPC: 0.463976 cumulative IPC: 0.464149 (Simulation time: 0 hr 8 min 5 sec) 
Heartbeat CPU 0 instructions: 150000002 cycles: 230279899 heartbeat IPC: 0.458434 cumulative IPC: 0.463571 (Simulation time: 0 hr 8 min 49 sec) 
Heartbeat CPU 0 instructions: 160000002 cycles: 251738911 heartbeat IPC: 0.466005 cumulative IPC: 0.463791 (Simulation time: 0 hr 9 min 32 sec) 
Heartbeat CPU 0 instructions: 170000000 cycles: 273039066 heartbeat IPC: 0.46948 cumulative IPC: 0.46426 (Simulation time: 0 hr 10 min 13 sec) 
Heartbeat CPU 0 instructions: 180000000 cycles: 293696491 heartbeat IPC: 0.484087 cumulative IPC: 0.465727 (Simulation time: 0 hr 10 min 54 sec) 
Heartbeat CPU 0 instructions: 190000000 cycles: 315234420 heartbeat IPC: 0.464297 cumulative IPC: 0.465625 (Simulation time: 0 hr 11 min 36 sec) 
Heartbeat CPU 0 instructions: 200000001 cycles: 336446677 heartbeat IPC: 0.471426 cumulative IPC: 0.466007 (Simulation time: 0 hr 12 min 17 sec) 
Heartbeat CPU 0 instructions: 210000000 cycles: 357672285 heartbeat IPC: 0.471129 cumulative IPC: 0.466324 (Simulation time: 0 hr 12 min 57 sec) 
Heartbeat CPU 0 instructions: 220000000 cycles: 379414651 heartbeat IPC: 0.459932 cumulative IPC: 0.465943 (Simulation time: 0 hr 13 min 38 sec) 
Heartbeat CPU 0 instructions: 230000002 cycles: 401374056 heartbeat IPC: 0.455386 cumulative IPC: 0.465344 (Simulation time: 0 hr 14 min 20 sec) 
Heartbeat CPU 0 instructions: 240000001 cycles: 424185438 heartbeat IPC: 0.438378 cumulative IPC: 0.463842 (Simulation time: 0 hr 15 min 2 sec) 
Heartbeat CPU 0 instructions: 250000003 cycles: 446571282 heartbeat IPC: 0.446711 cumulative IPC: 0.462954 (Simulation time: 0 hr 15 min 44 sec) 
Finished CPU 0 instructions: 200000002 cycles: 432008138 cumulative IPC: 0.462954 (Simulation time: 0 hr 15 min 44 sec) 

ChampSim completed all CPUs

Region of Interest Statistics

CPU 0 cumulative IPC: 0.462954 instructions: 200000002 cycles: 432008138
ITLB TOTAL     ACCESS:   26909362  HIT:   26909362  MISS:          0  HIT %:        100  MISS %:          0   MPKI: 0
ITLB Test counter:          0
ITLB LOAD TRANSLATION ACCESS:   26909362  HIT:   26909362  MISS:          0  HIT %:        100  MISS %:          0   MPKI: 0
ITLB PREFETCH  REQUESTED:          0  ISSUED:          0  USEFUL:          0  USELESS:          0
ITLB USEFUL LOAD PREFETCHES:          0 PREFETCH ISSUED TO LOWER LEVEL:          0  ACCURACY: -nan
ITLB TIMELY PREFETCHES:          0 LATE PREFETCHES: 0 DROPPED PREFETCHES: 0
ITLB COMMIT LATE PREFETCHES: 0 MISSED OPPORTUNITY: 0 LATE IN PQ: 0 UNCOVERED: 0
ITLB COMMIT LATE MSHR PREFETCHES: 0
ITLB MPKI TOTAL: 0 MSHR LATE: 0 PQ LATE: 0 COMMIT LATE: 0 MISSED OPPORTUNITY: 0 UNCOVERED: 0
ITLB PREFETCHES SAME FILL-ORIGIN LEVEL: 0 DIFFERENT FILL-ORIGIN LEVEL: 0
ITLB AVERAGE MISS LATENCY: -nan cycles
ITLB AVERAGE MISS LATENCY LOAD: -nan cycles
ITLB AVERAGE MISS LATENCY PREFETCH: -nan cycles
ITLB AVERAGE MSHR OCCUPANCY: 0
ITLB MSHR FULL: 0
ITLB RQ	ACCESS:   34789744	FORWARD:          0	MERGED:    7880382	TO_CACHE:   26909362

DTLB TOTAL     ACCESS:   36781551  HIT:   36505504  MISS:     276047  HIT %:    99.2495  MISS %:   0.750504   MPKI: 1.38023
DTLB Test counter:          0
DTLB LOAD TRANSLATION ACCESS:   36781551  HIT:   36505504  MISS:     276047  HIT %:    99.2495  MISS %:   0.750504   MPKI: 1.38023
DTLB PREFETCH  REQUESTED:          0  ISSUED:          0  USEFUL:          0  USELESS:          0
DTLB USEFUL LOAD PREFETCHES:          0 PREFETCH ISSUED TO LOWER LEVEL:          0  ACCURACY: -nan
DTLB TIMELY PREFETCHES:          0 LATE PREFETCHES: 0 DROPPED PREFETCHES: 0
DTLB COMMIT LATE PREFETCHES: 0 MISSED OPPORTUNITY: 0 LATE IN PQ: 0 UNCOVERED: 0
DTLB COMMIT LATE MSHR PREFETCHES: 0
DTLB MPKI TOTAL: 0 MSHR LATE: 0 PQ LATE: 0 COMMIT LATE: 0 MISSED OPPORTUNITY: 0 UNCOVERED: 0
DTLB PREFETCHES SAME FILL-ORIGIN LEVEL: 0 DIFFERENT FILL-ORIGIN LEVEL: 0
DTLB AVERAGE MISS LATENCY: 103.5 cycles
DTLB AVERAGE MISS LATENCY LOAD: -nan cycles
DTLB AVERAGE MISS LATENCY PREFETCH: -nan cycles
DTLB AVERAGE MSHR OCCUPANCY: 0.0741981
DTLB MSHR FULL: 0
DTLB RQ	ACCESS:   55446011	FORWARD:          0	MERGED:   18550627	TO_CACHE:   36895384

STLB TOTAL     ACCESS:    1253810  HIT:    1104026  MISS:     149784  HIT %:    88.0537  MISS %:    11.9463   MPKI: 0.74892
STLB Test counter:          0
STLB LOAD TRANSLATION ACCESS:     276047  HIT:     126263  MISS:     149784  HIT %:    45.7397  MISS %:    54.2603   MPKI: 0.74892
STLB TRANSLATION FROM L1D PREFETCHER ACCESS:     977763  HIT:     977763  MISS:          0  HIT %:        100  MISS %:          0   MPKI: 0
STLB PREFETCH  REQUESTED:          0  ISSUED:          0  USEFUL:          0  USELESS:          0
STLB USEFUL LOAD PREFETCHES:          0 PREFETCH ISSUED TO LOWER LEVEL:          0  ACCURACY: -nan
STLB TIMELY PREFETCHES:          0 LATE PREFETCHES: 0 DROPPED PREFETCHES: 0
STLB COMMIT LATE PREFETCHES: 0 MISSED OPPORTUNITY: 0 LATE IN PQ: 0 UNCOVERED: 0
STLB COMMIT LATE MSHR PREFETCHES: 0
STLB MPKI TOTAL: 0 MSHR LATE: 0 PQ LATE: 0 COMMIT LATE: 0 MISSED OPPORTUNITY: 0 UNCOVERED: 0
STLB PREFETCHES SAME FILL-ORIGIN LEVEL: 0 DIFFERENT FILL-ORIGIN LEVEL: 0
STLB AVERAGE MISS LATENCY: 173.722 cycles
STLB AVERAGE MISS LATENCY LOAD: -nan cycles
STLB AVERAGE MISS LATENCY PREFETCH: -nan cycles
STLB AVERAGE MSHR OCCUPANCY: 0.0663944
STLB MSHR FULL: 0
STLB RQ	ACCESS:    3119014	FORWARD:          0	MERGED:    1865204	TO_CACHE:    1253810

STLB Hit, L1D data hit: 0
STLB Hit, L2C data hit: 0
STLB Hit, LLC data hit: 0
STLB Hit, LLC data miss: 0
STLB STLB hints to L2: 0
L1D TOTAL     ACCESS:   55535992  HIT:   39722941  MISS:   15813051  HIT %:    71.5265  MISS %:    28.4735   MPKI: 79.0653
L1D Test counter:          0
L1D LOAD      ACCESS:   18197782  HIT:   16164939  MISS:    2608407  HIT %:    88.8292  MISS %:    11.1708   MPKI: 10.1642
L1D RFO       ACCESS:   36461026  HIT:   23044043  MISS:   13416983  HIT %:    63.2019  MISS %:    36.7981   MPKI: 67.0849
L1D PREFETCH  ACCESS:     877184  HIT:     513959  MISS:     363225  HIT %:    58.5919  MISS %:    41.4081   MPKI: 1.81612
L1D PREFETCH  REQUESTED:    5998066  ISSUED:    5995919  USEFUL:     363224  USELESS:          0
L1D USEFUL LOAD PREFETCHES:     363224 PREFETCH ISSUED TO LOWER LEVEL:    2149771  ACCURACY: 16.8959
L1D TIMELY PREFETCHES:     363224 LATE PREFETCHES: 14122 DROPPED PREFETCHES: 0
L1D COMMIT LATE PREFETCHES: 0 MISSED OPPORTUNITY: 0 LATE IN PQ: 198470 UNCOVERED: 0
L1D COMMIT LATE MSHR PREFETCHES: 0
L1D MPKI TOTAL: 13.042 MSHR LATE: 0.07061 PQ LATE: 0.99235 COMMIT LATE: 0 MISSED OPPORTUNITY: 0 UNCOVERED: 0
L1D PREFETCHES SAME FILL-ORIGIN LEVEL: 377347 DIFFERENT FILL-ORIGIN LEVEL: 1772424
L1D AVERAGE MISS LATENCY: 310.011 cycles
L1D AVERAGE MISS LATENCY LOAD: 276.717 cycles
L1D AVERAGE MISS LATENCY PREFETCH: 199.651 cycles
L1D AVERAGE MSHR OCCUPANCY: 15.3808
L1D MSHR FULL: 0.931591
L1D RQ	ACCESS:   48252377	FORWARD:          0	MERGED:   28075819	TO_CACHE:   18773344
L1D WQ	ACCESS:   36944937	FORWARD:    1403214	MERGED:     272270	TO_CACHE:   36672667
L1D PQ	ACCESS:    3152952	FORWARD:          0	MERGED:     309985	TO_CACHE:    2842967

L1D UNIQUE REGIONS ACCESSED: 0
L1D REGIONS CONFLICTS: 0
L1D Cross Page Prefetch Requests: 0
L1D Same Page Prefetch Requests: 3854364
L1D ROI Sum of L1D PQ occupancy: 544761477
L1D PREFETCHES PUSHED FROM L2C: 0
402065: 33
40208c: 61
4023cc: 88
40206d: 90
401cdb: 111331
401d43: 145405
401d14: 151464
401e02: 239178
401e67: 268407
401e33: 272291
401cb0: 844495
L1I TOTAL     ACCESS:   34789742  HIT:   34789742  MISS:          0  HIT %:        100  MISS %:          0   MPKI: 0
L1I Test counter:          0
L1I LOAD      ACCESS:   34789742  HIT:   34789742  MISS:          0  HIT %:        100  MISS %:          0   MPKI: 0
L1I PREFETCH  REQUESTED:          0  ISSUED:          0  USEFUL:          0  USELESS:          0
L1I USEFUL LOAD PREFETCHES:          0 PREFETCH ISSUED TO LOWER LEVEL:          0  ACCURACY: -nan
L1I TIMELY PREFETCHES:          0 LATE PREFETCHES: 0 DROPPED PREFETCHES: 0
L1I COMMIT LATE PREFETCHES: 0 MISSED OPPORTUNITY: 0 LATE IN PQ: 0 UNCOVERED: 0
L1I COMMIT LATE MSHR PREFETCHES: 0
L1I MPKI TOTAL: 0 MSHR LATE: 0 PQ LATE: 0 COMMIT LATE: 0 MISSED OPPORTUNITY: 0 UNCOVERED: 0
L1I PREFETCHES SAME FILL-ORIGIN LEVEL: 0 DIFFERENT FILL-ORIGIN LEVEL: 0
L1I AVERAGE MISS LATENCY: -nan cycles
L1I AVERAGE MISS LATENCY LOAD: -nan cycles
L1I AVERAGE MISS LATENCY PREFETCH: -nan cycles
L1I AVERAGE MSHR OCCUPANCY: 0
L1I MSHR FULL: 0
L1I RQ	ACCESS:   50101096	FORWARD:          0	MERGED:   15311352	TO_CACHE:   34789744

BTB TOTAL     ACCESS:    3609719  HIT:    3609713  MISS:          6  HIT %:    99.9998  MISS %: 0.000166218   MPKI: 3e-05
BTB Test counter:          0
BTB BRANCH_DIRECT_JUMP	ACCESS:     590927  HIT:     590926  MISS:          1
BTB BRANCH_INDIRECT	ACCESS:          0  HIT:          0  MISS:          0
BTB BRANCH_CONDITIONAL	ACCESS:    3018792  HIT:    3018787  MISS:          5
BTB BRANCH_DIRECT_CALL	ACCESS:          0  HIT:          0  MISS:          0
BTB BRANCH_INDIRECT_CALL	ACCESS:          0  HIT:          0  MISS:          0
BTB BRANCH_RETURN	ACCESS:          0  HIT:          0  MISS:          0
BTB BRANCH_OTHER ACCESS:          0  HIT:          0  MISS:          0

L2C TOTAL     ACCESS:   30971246  HIT:   21278420  MISS:    9692826  HIT %:    68.7038  MISS %:    31.2962   MPKI: 48.4641
L2C Test counter:          0
L2C LOAD      ACCESS:    2018721  HIT:     905980  MISS:    1112741  HIT %:    44.8789  MISS %:    55.1211   MPKI: 5.5637
L2C DATA LOAD MPKI: 5.5637
L2C INSTRUCTION LOAD MPKI: 0
L2C RFO       ACCESS:   13416980  HIT:    6139523  MISS:    7277457  HIT %:    45.7594  MISS %:    54.2406   MPKI: 36.3873
L2C PREFETCH  ACCESS:    1968766  HIT:     685487  MISS:    1283279  HIT %:    34.8181  MISS %:    65.1819   MPKI: 6.41639
L2C DATA PREFETCH MPKI: 6.41639
L2C INSTRUCTION PREFETCH MPKI: 0
L2C WRITEBACK ACCESS:   13416987  HIT:   13416557  MISS:        430  HIT %:    99.9968  MISS %: 0.00320489   MPKI: 0.00215
L2C LOAD TRANSLATION ACCESS:     149792  HIT:     130873  MISS:      18919  HIT %:    87.3698  MISS %:    12.6302   MPKI: 0.094595
L2C PREFETCH  REQUESTED:          0  ISSUED:          0  USEFUL:     905928  USELESS:     378477
L2C USEFUL LOAD PREFETCHES:     905928 PREFETCH ISSUED TO LOWER LEVEL:    1334086  ACCURACY: 67.9063
L2C TIMELY PREFETCHES:     905928 LATE PREFETCHES: 50804 DROPPED PREFETCHES: 0
L2C COMMIT LATE PREFETCHES: 0 MISSED OPPORTUNITY: 0 LATE IN PQ: 0 UNCOVERED: 0
L2C COMMIT LATE MSHR PREFETCHES: 0
L2C MPKI TOTAL: 5.5637 MSHR LATE: 0.25402 PQ LATE: 0 COMMIT LATE: 0 MISSED OPPORTUNITY: 0 UNCOVERED: 0
L2C PREFETCHES SAME FILL-ORIGIN LEVEL: 1149642 DIFFERENT FILL-ORIGIN LEVEL: 0
L2C AVERAGE MISS LATENCY: 542.614 cycles
L2C AVERAGE MISS LATENCY LOAD: 477.068 cycles
L2C AVERAGE MISS LATENCY PREFETCH: 517.772 cycles
L2C AVERAGE MSHR OCCUPANCY: 10.9042
L2C MSHR FULL: 0
L2C RQ	ACCESS:   15585504	FORWARD:          0	MERGED:          0	TO_CACHE:   15585502
L2C WQ	ACCESS:   13416987	FORWARD:          2	MERGED:          0	TO_CACHE:   13416987
L2C PQ	ACCESS:    2149771	FORWARD:          0	MERGED:        158	TO_CACHE:    2149613

L2C Instructions Evicting Data 0
L2C Translations Evicting Data 18834
L2C Data Evicting Data 9654647
L2C Instructions Evicting Instructions 0
L2C Translations Evicting Instructions 0
L2C Data Evicting Instructions 0
L2C Instructions Evicting Translations 0
L2C Translations Evicting Translations 85
L2C Data Evicting Translations 18830
L2C Dense regions hint from L2: 0
402065: 26
40208c: 50
4023cc: 71
40206d: 73
401cdb: 36896
401d14: 38731
401d43: 46994
401e02: 93975
401e33: 100194
401e67: 102496
401cb0: 693235
PSCL5 TOTAL     ACCESS:     149784  HIT:     149784  MISS:          0  HIT %:        100  MISS %:          0   MPKI: 0
PSCL5 Test counter:          0
PSCL5 LOAD TRANSLATION ACCESS:     149784  HIT:     149784  MISS:          0  HIT %:        100  MISS %:          0   MPKI: 0
PSCL5 PREFETCH  REQUESTED:          0  ISSUED:          0  USEFUL:          0  USELESS:          0
PSCL5 USEFUL LOAD PREFETCHES:          0 PREFETCH ISSUED TO LOWER LEVEL:          0  ACCURACY: -nan
PSCL5 TIMELY PREFETCHES:          0 LATE PREFETCHES: 0 DROPPED PREFETCHES: 0
PSCL5 COMMIT LATE PREFETCHES: 0 MISSED OPPORTUNITY: 0 LATE IN PQ: 0 UNCOVERED: 0
PSCL5 COMMIT LATE MSHR PREFETCHES: 0
PSCL5 MPKI TOTAL: 0 MSHR LATE: 0 PQ LATE: 0 COMMIT LATE: 0 MISSED OPPORTUNITY: 0 UNCOVERED: 0
PSCL5 PREFETCHES SAME FILL-ORIGIN LEVEL: 0 DIFFERENT FILL-ORIGIN LEVEL: 0

PSCL4 TOTAL     ACCESS:     149784  HIT:     149784  MISS:          0  HIT %:        100  MISS %:          0   MPKI: 0
PSCL4 Test counter:          0
PSCL4 LOAD TRANSLATION ACCESS:     149784  HIT:     149784  MISS:          0  HIT %:        100  MISS %:          0   MPKI: 0
PSCL4 PREFETCH  REQUESTED:          0  ISSUED:          0  USEFUL:          0  USELESS:          0
PSCL4 USEFUL LOAD PREFETCHES:          0 PREFETCH ISSUED TO LOWER LEVEL:          0  ACCURACY: -nan
PSCL4 TIMELY PREFETCHES:          0 LATE PREFETCHES: 0 DROPPED PREFETCHES: 0
PSCL4 COMMIT LATE PREFETCHES: 0 MISSED OPPORTUNITY: 0 LATE IN PQ: 0 UNCOVERED: 0
PSCL4 COMMIT LATE MSHR PREFETCHES: 0
PSCL4 MPKI TOTAL: 0 MSHR LATE: 0 PQ LATE: 0 COMMIT LATE: 0 MISSED OPPORTUNITY: 0 UNCOVERED: 0
PSCL4 PREFETCHES SAME FILL-ORIGIN LEVEL: 0 DIFFERENT FILL-ORIGIN LEVEL: 0

PSCL3 TOTAL     ACCESS:     149784  HIT:     149784  MISS:          0  HIT %:        100  MISS %:          0   MPKI: 0
PSCL3 Test counter:          0
PSCL3 LOAD TRANSLATION ACCESS:     149784  HIT:     149784  MISS:          0  HIT %:        100  MISS %:          0   MPKI: 0
PSCL3 PREFETCH  REQUESTED:          0  ISSUED:          0  USEFUL:          0  USELESS:          0
PSCL3 USEFUL LOAD PREFETCHES:          0 PREFETCH ISSUED TO LOWER LEVEL:          0  ACCURACY: -nan
PSCL3 TIMELY PREFETCHES:          0 LATE PREFETCHES: 0 DROPPED PREFETCHES: 0
PSCL3 COMMIT LATE PREFETCHES: 0 MISSED OPPORTUNITY: 0 LATE IN PQ: 0 UNCOVERED: 0
PSCL3 COMMIT LATE MSHR PREFETCHES: 0
PSCL3 MPKI TOTAL: 0 MSHR LATE: 0 PQ LATE: 0 COMMIT LATE: 0 MISSED OPPORTUNITY: 0 UNCOVERED: 0
PSCL3 PREFETCHES SAME FILL-ORIGIN LEVEL: 0 DIFFERENT FILL-ORIGIN LEVEL: 0

PSCL2 TOTAL     ACCESS:     149784  HIT:     149630  MISS:        154  HIT %:    99.8972  MISS %:   0.102815   MPKI: 0.00077
PSCL2 Test counter:          0
PSCL2 LOAD TRANSLATION ACCESS:     149784  HIT:     149630  MISS:        154  HIT %:    99.8972  MISS %:   0.102815   MPKI: 0.00077
PSCL2 PREFETCH  REQUESTED:          0  ISSUED:          0  USEFUL:          0  USELESS:          0
PSCL2 USEFUL LOAD PREFETCHES:          0 PREFETCH ISSUED TO LOWER LEVEL:          0  ACCURACY: -nan
PSCL2 TIMELY PREFETCHES:          0 LATE PREFETCHES: 0 DROPPED PREFETCHES: 0
PSCL2 COMMIT LATE PREFETCHES: 0 MISSED OPPORTUNITY: 0 LATE IN PQ: 0 UNCOVERED: 0
PSCL2 COMMIT LATE MSHR PREFETCHES: 0
PSCL2 MPKI TOTAL: 0 MSHR LATE: 0 PQ LATE: 0 COMMIT LATE: 0 MISSED OPPORTUNITY: 0 UNCOVERED: 0
PSCL2 PREFETCHES SAME FILL-ORIGIN LEVEL: 0 DIFFERENT FILL-ORIGIN LEVEL: 0

LLC TOTAL     ACCESS:   16969577  HIT:    7366954  MISS:    9602623  HIT %:    43.4127  MISS %:    56.5873   MPKI: 48.0131
LLC Test counter:          0
LLC LOAD      ACCESS:    1061937  HIT:         48  MISS:    1061889  HIT %: 0.00452004  MISS %:    99.9955   MPKI: 5.30944
LLC RFO       ACCESS:    7277420  HIT:      90045  MISS:    7187375  HIT %:    1.23732  MISS %:    98.7627   MPKI: 35.9369
LLC PREFETCH  ACCESS:    1334083  HIT:          0  MISS:    1334083  HIT %:          0  MISS %:        100   MPKI: 6.67041
LLC WRITEBACK ACCESS:    7277218  HIT:    7276861  MISS:        357  HIT %:    99.9951  MISS %: 0.00490572   MPKI: 0.001785
LLC LOAD TRANSLATION ACCESS:      18919  HIT:          0  MISS:      18919  HIT %:          0  MISS %:        100   MPKI: 0.094595
LLC PREFETCH  REQUESTED:          0  ISSUED:          0  USEFUL:          0  USELESS:    1335349
LLC USEFUL LOAD PREFETCHES:          0 PREFETCH ISSUED TO LOWER LEVEL:    1334086  ACCURACY: 0
LLC TIMELY PREFETCHES:          0 LATE PREFETCHES: 0 DROPPED PREFETCHES: 0
LLC COMMIT LATE PREFETCHES: 0 MISSED OPPORTUNITY: 0 LATE IN PQ: 0 UNCOVERED: 0
LLC COMMIT LATE MSHR PREFETCHES: 0
LLC MPKI TOTAL: 5.30944 MSHR LATE: 0 PQ LATE: 0 COMMIT LATE: 0 MISSED OPPORTUNITY: 0 UNCOVERED: 0
LLC PREFETCHES SAME FILL-ORIGIN LEVEL: 0 DIFFERENT FILL-ORIGIN LEVEL: 0
LLC AVERAGE MISS LATENCY: 519.891 cycles
LLC AVERAGE MISS LATENCY LOAD: 451.041 cycles
LLC AVERAGE MISS LATENCY PREFETCH: 504.419 cycles
LLC AVERAGE MSHR OCCUPANCY: 10.3994
LLC MSHR FULL: 0
LLC RQ	ACCESS:    8358322	FORWARD:          0	MERGED:          0	TO_CACHE:    8358285
LLC WQ	ACCESS:    7277218	FORWARD:         37	MERGED:          0	TO_CACHE:    7277218
LLC PQ	ACCESS:    1334086	FORWARD:          0	MERGED:          0	TO_CACHE:    1334086

LLC Dense regions hint to LLC: 0
402065: 17
40208c: 42
4023cc: 56
40206d: 57
401d14: 35289
401cdb: 35319
401d43: 45918
401e33: 83136
401e02: 83899
401e67: 94189
401cb0: 683967

RAW hits: 3979096
Loads Generated: 52231474
Loads sent to L1D: 48252377
Stores Generated: 36944938
Stores sent to L1D: 36944937
Major fault: 0 Minor fault: 96650
Allocated PAGES: 96650
Total Load insts: 59785746
Total Non-spec loads: 2493635
Percentage of speculative loads: 95.829
L1D response latency: 278.653 cycles
Load retirement latency: 749.813 cycles

CPU 0 L1D PC-based stride prefetcher final stats
Degree: 3

DRAM Statistics
 CHANNEL 0
 RQ ROW_BUFFER_HIT:     809012  ROW_BUFFER_MISS:    8793254
 DBUS_CONGESTED:          1
 WQ ROW_BUFFER_HIT:    1591517  ROW_BUFFER_MISS:    5593928  FULL:          0

 AVG_CONGESTED_CYCLE: 7
 All warmup complete: 2
Channel 0 Bank busy for read cycles: 0
Channel 0 Bank busy for write cycles: 0
Channel 0
Rank 0
0banks busy for read cycles: 165078
0banks busy for write cycles: 0
1banks busy for read cycles: 13057850
1banks busy for write cycles: 746859
2banks busy for read cycles: 14519632
2banks busy for write cycles: 746839
3banks busy for read cycles: 21634376
3banks busy for write cycles: 746826
4banks busy for read cycles: 26971497
4banks busy for write cycles: 746891
5banks busy for read cycles: 46679180
5banks busy for write cycles: 746798
6banks busy for read cycles: 59912647
6banks busy for write cycles: 749543
7banks busy for read cycles: 55714629
7banks busy for write cycles: 7978894
8banks busy for read cycles: 41169204
8banks busy for write cycles: 139721396

CPU 0 Branch Prediction Accuracy: 97.0951% MPKI: 0.52429 Average ROB Occupancy at Mispredict: 211.023
Branch types
NOT_BRANCH: 196389972 98.195%
BRANCH_DIRECT_JUMP: 590927 0.295463%
BRANCH_INDIRECT: 0 0%
BRANCH_CONDITIONAL: 3018804 1.5094%
BRANCH_DIRECT_CALL: 0 0%
BRANCH_INDIRECT_CALL: 0 0%
BRANCH_RETURN: 0 0%
BRANCH_OTHER: 0 0%

DRAM PAGES: 1048576
Allocated PAGES: 96650
