
*** ChampSim Multicore Out-of-Order Simulator ***

Warmup Instructions: 50000000
Simulation Instructions: 200000000
Number of CPUs: 1
LLC sets: 2048
LLC ways: 16
Secure Berti: OFF
Berti: OFF
Berti Fill: OFF
On commit prefetching: OFF
L2 LLC Bypass speculative loads: OFF
Off-chip DRAM Size: 4096 MB Channels: 1 Width: 64-bit Data Rate: 6400 MT/s
CPU 0 runs /home/sumon/secure_berti/Berti_Baseline/../../traces/spec/619.lbm_s-2676B.champsimtrace.xz
.xz
BTB has LRU replacement policy
ITLB has LRU replacement policy
DTLB has LRU replacement policy
STLB has LRU replacement policy
L1I has LRU replacement policy
CPU 0 L1D IP-based stride prefetcher
L1D has LRU replacement policy
L2C has LRU replacement policy
LLC has LRU replacement policy
Heartbeat CPU 0 instructions: 10000003 cycles: 2898373 heartbeat IPC: 3.45021 cumulative IPC: 3.45021 (Simulation time: 0 hr 0 min 20 sec) 
Heartbeat CPU 0 instructions: 20000003 cycles: 5791656 heartbeat IPC: 3.45628 cumulative IPC: 3.45324 (Simulation time: 0 hr 0 min 41 sec) 
Heartbeat CPU 0 instructions: 30000003 cycles: 8676980 heartbeat IPC: 3.46582 cumulative IPC: 3.45742 (Simulation time: 0 hr 1 min 1 sec) 
Heartbeat CPU 0 instructions: 40000002 cycles: 11547853 heartbeat IPC: 3.48326 cumulative IPC: 3.46385 (Simulation time: 0 hr 1 min 21 sec) 
Heartbeat CPU 0 instructions: 50000001 cycles: 14406010 heartbeat IPC: 3.49876 cumulative IPC: 3.47077 (Simulation time: 0 hr 1 min 41 sec) 

Warmup complete CPU 0 instructions: 50000001 cycles: 14406010 (Simulation time: 0 hr 1 min 41 sec) 

Heartbeat CPU 0 instructions: 60000001 cycles: 31475337 heartbeat IPC: 0.585846 cumulative IPC: 0.585846 (Simulation time: 0 hr 2 min 17 sec) 
Heartbeat CPU 0 instructions: 70000002 cycles: 47785557 heartbeat IPC: 0.613113 cumulative IPC: 0.599169 (Simulation time: 0 hr 2 min 53 sec) 
Heartbeat CPU 0 instructions: 80000002 cycles: 62786093 heartbeat IPC: 0.666643 cumulative IPC: 0.62009 (Simulation time: 0 hr 3 min 27 sec) 
Heartbeat CPU 0 instructions: 90000001 cycles: 77829666 heartbeat IPC: 0.664736 cumulative IPC: 0.630679 (Simulation time: 0 hr 4 min 0 sec) 
Heartbeat CPU 0 instructions: 100000003 cycles: 92010935 heartbeat IPC: 0.705156 cumulative IPC: 0.644289 (Simulation time: 0 hr 4 min 31 sec) 
Heartbeat CPU 0 instructions: 110000000 cycles: 105943371 heartbeat IPC: 0.717749 cumulative IPC: 0.65547 (Simulation time: 0 hr 5 min 3 sec) 
Heartbeat CPU 0 instructions: 120000003 cycles: 119312701 heartbeat IPC: 0.747981 cumulative IPC: 0.66726 (Simulation time: 0 hr 5 min 33 sec) 
Heartbeat CPU 0 instructions: 130000002 cycles: 132211504 heartbeat IPC: 0.775266 cumulative IPC: 0.679085 (Simulation time: 0 hr 6 min 4 sec) 
Heartbeat CPU 0 instructions: 140000003 cycles: 145034444 heartbeat IPC: 0.779852 cumulative IPC: 0.688977 (Simulation time: 0 hr 6 min 34 sec) 
Heartbeat CPU 0 instructions: 150000003 cycles: 157371504 heartbeat IPC: 0.810566 cumulative IPC: 0.69947 (Simulation time: 0 hr 7 min 3 sec) 
Heartbeat CPU 0 instructions: 160000002 cycles: 169296187 heartbeat IPC: 0.838597 cumulative IPC: 0.710181 (Simulation time: 0 hr 7 min 32 sec) 
Heartbeat CPU 0 instructions: 170000003 cycles: 181173813 heartbeat IPC: 0.841919 cumulative IPC: 0.719563 (Simulation time: 0 hr 8 min 0 sec) 
Heartbeat CPU 0 instructions: 180000000 cycles: 193002940 heartbeat IPC: 0.845371 cumulative IPC: 0.727896 (Simulation time: 0 hr 8 min 27 sec) 
Heartbeat CPU 0 instructions: 190000000 cycles: 204512253 heartbeat IPC: 0.868862 cumulative IPC: 0.73643 (Simulation time: 0 hr 8 min 53 sec) 
Heartbeat CPU 0 instructions: 200000003 cycles: 215970825 heartbeat IPC: 0.872709 cumulative IPC: 0.744178 (Simulation time: 0 hr 9 min 20 sec) 
Heartbeat CPU 0 instructions: 210000001 cycles: 227129678 heartbeat IPC: 0.896149 cumulative IPC: 0.75215 (Simulation time: 0 hr 9 min 45 sec) 
Heartbeat CPU 0 instructions: 220000000 cycles: 238382198 heartbeat IPC: 0.88869 cumulative IPC: 0.759009 (Simulation time: 0 hr 10 min 11 sec) 
Heartbeat CPU 0 instructions: 230000002 cycles: 249413742 heartbeat IPC: 0.906492 cumulative IPC: 0.765932 (Simulation time: 0 hr 10 min 36 sec) 
Heartbeat CPU 0 instructions: 240000001 cycles: 260580015 heartbeat IPC: 0.895554 cumulative IPC: 0.771812 (Simulation time: 0 hr 11 min 1 sec) 
Heartbeat CPU 0 instructions: 250000002 cycles: 271629442 heartbeat IPC: 0.905024 cumulative IPC: 0.777534 (Simulation time: 0 hr 11 min 26 sec) 
Finished CPU 0 instructions: 200000001 cycles: 257223432 cumulative IPC: 0.777534 (Simulation time: 0 hr 11 min 26 sec) 

ChampSim completed all CPUs

Region of Interest Statistics

CPU 0 cumulative IPC: 0.777534 instructions: 200000001 cycles: 257223432
ITLB TOTAL     ACCESS:   26143850  HIT:   26143850  MISS:          0  HIT %:        100  MISS %:          0   MPKI: 0
ITLB Test counter:          0
ITLB LOAD TRANSLATION ACCESS:   26143850  HIT:   26143850  MISS:          0  HIT %:        100  MISS %:          0   MPKI: 0
ITLB PREFETCH  REQUESTED:          0  ISSUED:          0  USEFUL:          0  USELESS:          0
ITLB USEFUL LOAD PREFETCHES:          0 PREFETCH ISSUED TO LOWER LEVEL:          0  ACCURACY: -nan
ITLB TIMELY PREFETCHES:          0 LATE PREFETCHES: 0 DROPPED PREFETCHES: 0
ITLB COMMIT LATE PREFETCHES: 0 MISSED OPPORTUNITY: 0 LATE IN PQ: 0 UNCOVERED: 0
ITLB COMMIT LATE MSHR PREFETCHES: 0
ITLB MPKI TOTAL: 0 MSHR LATE: 0 PQ LATE: 0 COMMIT LATE: 0 MISSED OPPORTUNITY: 0 UNCOVERED: 0
ITLB PREFETCHES SAME FILL-ORIGIN LEVEL: 0 DIFFERENT FILL-ORIGIN LEVEL: 0
ITLB AVERAGE MISS LATENCY: -nan cycles
ITLB AVERAGE MISS LATENCY LOAD: -nan cycles
ITLB AVERAGE MISS LATENCY PREFETCH: -nan cycles
ITLB AVERAGE MSHR OCCUPANCY: 0
ITLB MSHR FULL: 0
ITLB RQ	ACCESS:   34169527	FORWARD:          0	MERGED:    8025678	TO_CACHE:   26143849

DTLB TOTAL     ACCESS:   34513758  HIT:   34360229  MISS:     153529  HIT %:    99.5552  MISS %:   0.444834   MPKI: 0.767645
DTLB Test counter:          0
DTLB LOAD TRANSLATION ACCESS:   34513758  HIT:   34360229  MISS:     153529  HIT %:    99.5552  MISS %:   0.444834   MPKI: 0.767645
DTLB PREFETCH  REQUESTED:          0  ISSUED:          0  USEFUL:          0  USELESS:          0
DTLB USEFUL LOAD PREFETCHES:          0 PREFETCH ISSUED TO LOWER LEVEL:          0  ACCURACY: -nan
DTLB TIMELY PREFETCHES:          0 LATE PREFETCHES: 0 DROPPED PREFETCHES: 0
DTLB COMMIT LATE PREFETCHES: 0 MISSED OPPORTUNITY: 0 LATE IN PQ: 0 UNCOVERED: 0
DTLB COMMIT LATE MSHR PREFETCHES: 0
DTLB MPKI TOTAL: 0 MSHR LATE: 0 PQ LATE: 0 COMMIT LATE: 0 MISSED OPPORTUNITY: 0 UNCOVERED: 0
DTLB PREFETCHES SAME FILL-ORIGIN LEVEL: 0 DIFFERENT FILL-ORIGIN LEVEL: 0
DTLB AVERAGE MISS LATENCY: 96.3694 cycles
DTLB AVERAGE MISS LATENCY LOAD: -nan cycles
DTLB AVERAGE MISS LATENCY PREFETCH: -nan cycles
DTLB AVERAGE MSHR OCCUPANCY: 0.0424268
DTLB MSHR FULL: 0
DTLB RQ	ACCESS:   52471528	FORWARD:          0	MERGED:   17926027	TO_CACHE:   34545501

STLB TOTAL     ACCESS:    1216982  HIT:    1133676  MISS:      83306  HIT %:    93.1547  MISS %:    6.84529   MPKI: 0.41653
STLB Test counter:          0
STLB LOAD TRANSLATION ACCESS:     153529  HIT:      70223  MISS:      83306  HIT %:    45.7392  MISS %:    54.2608   MPKI: 0.41653
STLB TRANSLATION FROM L1D PREFETCHER ACCESS:    1063453  HIT:    1063453  MISS:          0  HIT %:        100  MISS %:          0   MPKI: 0
STLB PREFETCH  REQUESTED:          0  ISSUED:          0  USEFUL:          0  USELESS:          0
STLB USEFUL LOAD PREFETCHES:          0 PREFETCH ISSUED TO LOWER LEVEL:          0  ACCURACY: -nan
STLB TIMELY PREFETCHES:          0 LATE PREFETCHES: 0 DROPPED PREFETCHES: 0
STLB COMMIT LATE PREFETCHES: 0 MISSED OPPORTUNITY: 0 LATE IN PQ: 0 UNCOVERED: 0
STLB COMMIT LATE MSHR PREFETCHES: 0
STLB MPKI TOTAL: 0 MSHR LATE: 0 PQ LATE: 0 COMMIT LATE: 0 MISSED OPPORTUNITY: 0 UNCOVERED: 0
STLB PREFETCHES SAME FILL-ORIGIN LEVEL: 0 DIFFERENT FILL-ORIGIN LEVEL: 0
STLB AVERAGE MISS LATENCY: 158.113 cycles
STLB AVERAGE MISS LATENCY LOAD: -nan cycles
STLB AVERAGE MISS LATENCY PREFETCH: -nan cycles
STLB AVERAGE MSHR OCCUPANCY: 0.0455167
STLB MSHR FULL: 0
STLB RQ	ACCESS:    3232170	FORWARD:          0	MERGED:    2015188	TO_CACHE:    1216982

STLB Hit, L1D data hit: 0
STLB Hit, L2C data hit: 0
STLB Hit, LLC data hit: 0
STLB Hit, LLC data miss: 0
STLB STLB hints to L2: 0
L1D TOTAL     ACCESS:   53684931  HIT:   44890433  MISS:    8794498  HIT %:    83.6183  MISS %:    16.3817   MPKI: 43.9725
L1D Test counter:          0
L1D LOAD      ACCESS:   21086672  HIT:   20262259  MISS:    1123073  HIT %:    96.0904  MISS %:    3.90964   MPKI: 4.12206
L1D RFO       ACCESS:   31038587  HIT:   23576618  MISS:    7461969  HIT %:    75.9591  MISS %:    24.0409   MPKI: 37.3098
L1D PREFETCH  ACCESS:    1559672  HIT:    1051556  MISS:     508116  HIT %:    67.4216  MISS %:    32.5784   MPKI: 2.54058
L1D PREFETCH  REQUESTED:    6235979  ISSUED:    6235307  USEFUL:     508117  USELESS:          0
L1D USEFUL LOAD PREFETCHES:     508117 PREFETCH ISSUED TO LOWER LEVEL:    1958740  ACCURACY: 25.941
L1D TIMELY PREFETCHES:     508117 LATE PREFETCHES: 4725 DROPPED PREFETCHES: 0
L1D COMMIT LATE PREFETCHES: 0 MISSED OPPORTUNITY: 0 LATE IN PQ: 42278 UNCOVERED: 0
L1D COMMIT LATE MSHR PREFETCHES: 0
L1D MPKI TOTAL: 5.61536 MSHR LATE: 0.023625 PQ LATE: 0.21139 COMMIT LATE: 0 MISSED OPPORTUNITY: 0 UNCOVERED: 0
L1D PREFETCHES SAME FILL-ORIGIN LEVEL: 512841 DIFFERENT FILL-ORIGIN LEVEL: 1445899
L1D AVERAGE MISS LATENCY: 247.233 cycles
L1D AVERAGE MISS LATENCY LOAD: 199.953 cycles
L1D AVERAGE MISS LATENCY PREFETCH: 180.908 cycles
L1D AVERAGE MSHR OCCUPANCY: 13.1523
L1D MSHR FULL: 0.704686
L1D RQ	ACCESS:   44986960	FORWARD:          0	MERGED:   22872342	TO_CACHE:   21385332
L1D WQ	ACCESS:   31149766	FORWARD:     729286	MERGED:      63570	TO_CACHE:   31086196
L1D PQ	ACCESS:    3156666	FORWARD:          0	MERGED:      78025	TO_CACHE:    3078641

L1D UNIQUE REGIONS ACCESSED: 0
L1D REGIONS CONFLICTS: 0
L1D Cross Page Prefetch Requests: 0
L1D Same Page Prefetch Requests: 3814578
L1D ROI Sum of L1D PQ occupancy: 153129592
L1D PREFETCHES PUSHED FROM L2C: 0
40208c: 8
402065: 9
40206d: 14
4023cc: 17
401e02: 40401
401cdb: 43375
401e67: 53058
401e33: 53217
401d43: 138884
401d14: 143022
401cb0: 352408
L1I TOTAL     ACCESS:   34169526  HIT:   34169526  MISS:          0  HIT %:        100  MISS %:          0   MPKI: 0
L1I Test counter:          0
L1I LOAD      ACCESS:   34169526  HIT:   34169526  MISS:          0  HIT %:        100  MISS %:          0   MPKI: 0
L1I PREFETCH  REQUESTED:          0  ISSUED:          0  USEFUL:          0  USELESS:          0
L1I USEFUL LOAD PREFETCHES:          0 PREFETCH ISSUED TO LOWER LEVEL:          0  ACCURACY: -nan
L1I TIMELY PREFETCHES:          0 LATE PREFETCHES: 0 DROPPED PREFETCHES: 0
L1I COMMIT LATE PREFETCHES: 0 MISSED OPPORTUNITY: 0 LATE IN PQ: 0 UNCOVERED: 0
L1I COMMIT LATE MSHR PREFETCHES: 0
L1I MPKI TOTAL: 0 MSHR LATE: 0 PQ LATE: 0 COMMIT LATE: 0 MISSED OPPORTUNITY: 0 UNCOVERED: 0
L1I PREFETCHES SAME FILL-ORIGIN LEVEL: 0 DIFFERENT FILL-ORIGIN LEVEL: 0
L1I AVERAGE MISS LATENCY: -nan cycles
L1I AVERAGE MISS LATENCY LOAD: -nan cycles
L1I AVERAGE MISS LATENCY PREFETCH: -nan cycles
L1I AVERAGE MSHR OCCUPANCY: 0
L1I MSHR FULL: 0
L1I RQ	ACCESS:   48345416	FORWARD:          0	MERGED:   14175889	TO_CACHE:   34169527

BTB TOTAL     ACCESS:    2423394  HIT:    2423388  MISS:          6  HIT %:    99.9998  MISS %: 0.000247587   MPKI: 3e-05
BTB Test counter:          0
BTB BRANCH_DIRECT_JUMP	ACCESS:     120779  HIT:     120778  MISS:          1
BTB BRANCH_INDIRECT	ACCESS:          0  HIT:          0  MISS:          0
BTB BRANCH_CONDITIONAL	ACCESS:    2302615  HIT:    2302610  MISS:          5
BTB BRANCH_DIRECT_CALL	ACCESS:          0  HIT:          0  MISS:          0
BTB BRANCH_INDIRECT_CALL	ACCESS:          0  HIT:          0  MISS:          0
BTB BRANCH_RETURN	ACCESS:          0  HIT:          0  MISS:          0
BTB BRANCH_OTHER ACCESS:          0  HIT:          0  MISS:          0

L2C TOTAL     ACCESS:   17657883  HIT:   12253856  MISS:    5404027  HIT %:     69.396  MISS %:     30.604   MPKI: 27.0201
L2C Test counter:          0
L2C LOAD      ACCESS:     819688  HIT:     465623  MISS:     354065  HIT %:    56.8049  MISS %:    43.1951   MPKI: 1.77032
L2C DATA LOAD MPKI: 1.77032
L2C INSTRUCTION LOAD MPKI: 0
L2C RFO       ACCESS:    7461969  HIT:    3401069  MISS:    4060900  HIT %:    45.5787  MISS %:    54.4213   MPKI: 20.3045
L2C PREFETCH  ACCESS:    1830948  HIT:     852485  MISS:     978463  HIT %:    46.5598  MISS %:    53.4402   MPKI: 4.89231
L2C DATA PREFETCH MPKI: 4.89231
L2C INSTRUCTION PREFETCH MPKI: 0
L2C WRITEBACK ACCESS:    7461968  HIT:    7461891  MISS:         77  HIT %:     99.999  MISS %:  0.0010319   MPKI: 0.000385
L2C LOAD TRANSLATION ACCESS:      83310  HIT:      72788  MISS:      10522  HIT %:    87.3701  MISS %:    12.6299   MPKI: 0.05261
L2C PREFETCH  REQUESTED:          0  ISSUED:          0  USEFUL:     465621  USELESS:     513116
L2C USEFUL LOAD PREFETCHES:     465621 PREFETCH ISSUED TO LOWER LEVEL:     990400  ACCURACY: 47.0134
L2C TIMELY PREFETCHES:     465621 LATE PREFETCHES: 11937 DROPPED PREFETCHES: 0
L2C COMMIT LATE PREFETCHES: 0 MISSED OPPORTUNITY: 0 LATE IN PQ: 0 UNCOVERED: 0
L2C COMMIT LATE MSHR PREFETCHES: 0
L2C MPKI TOTAL: 1.77032 MSHR LATE: 0.059685 PQ LATE: 0 COMMIT LATE: 0 MISSED OPPORTUNITY: 0 UNCOVERED: 0
L2C PREFETCHES SAME FILL-ORIGIN LEVEL: 758629 DIFFERENT FILL-ORIGIN LEVEL: 0
L2C AVERAGE MISS LATENCY: 435.644 cycles
L2C AVERAGE MISS LATENCY LOAD: 429.363 cycles
L2C AVERAGE MISS LATENCY PREFETCH: 406.363 cycles
L2C AVERAGE MSHR OCCUPANCY: 8.48237
L2C MSHR FULL: 0
L2C RQ	ACCESS:    8364977	FORWARD:          0	MERGED:          0	TO_CACHE:    8364977
L2C WQ	ACCESS:    7461968	FORWARD:          0	MERGED:          0	TO_CACHE:    7461968
L2C PQ	ACCESS:    1958740	FORWARD:          0	MERGED:         28	TO_CACHE:    1958712

L2C Instructions Evicting Data 0
L2C Translations Evicting Data 10429
L2C Data Evicting Data 5383017
L2C Instructions Evicting Instructions 0
L2C Translations Evicting Instructions 0
L2C Data Evicting Instructions 0
L2C Instructions Evicting Translations 0
L2C Translations Evicting Translations 93
L2C Data Evicting Translations 10411
L2C Dense regions hint from L2: 0
40208c: 7
402065: 9
40206d: 14
4023cc: 16
401e02: 15984
401e33: 17008
401e67: 21121
401cdb: 22783
401d14: 23712
401d43: 57972
401cb0: 195439
PSCL5 TOTAL     ACCESS:      83306  HIT:      83306  MISS:          0  HIT %:        100  MISS %:          0   MPKI: 0
PSCL5 Test counter:          0
PSCL5 LOAD TRANSLATION ACCESS:      83306  HIT:      83306  MISS:          0  HIT %:        100  MISS %:          0   MPKI: 0
PSCL5 PREFETCH  REQUESTED:          0  ISSUED:          0  USEFUL:          0  USELESS:          0
PSCL5 USEFUL LOAD PREFETCHES:          0 PREFETCH ISSUED TO LOWER LEVEL:          0  ACCURACY: -nan
PSCL5 TIMELY PREFETCHES:          0 LATE PREFETCHES: 0 DROPPED PREFETCHES: 0
PSCL5 COMMIT LATE PREFETCHES: 0 MISSED OPPORTUNITY: 0 LATE IN PQ: 0 UNCOVERED: 0
PSCL5 COMMIT LATE MSHR PREFETCHES: 0
PSCL5 MPKI TOTAL: 0 MSHR LATE: 0 PQ LATE: 0 COMMIT LATE: 0 MISSED OPPORTUNITY: 0 UNCOVERED: 0
PSCL5 PREFETCHES SAME FILL-ORIGIN LEVEL: 0 DIFFERENT FILL-ORIGIN LEVEL: 0

PSCL4 TOTAL     ACCESS:      83306  HIT:      83306  MISS:          0  HIT %:        100  MISS %:          0   MPKI: 0
PSCL4 Test counter:          0
PSCL4 LOAD TRANSLATION ACCESS:      83306  HIT:      83306  MISS:          0  HIT %:        100  MISS %:          0   MPKI: 0
PSCL4 PREFETCH  REQUESTED:          0  ISSUED:          0  USEFUL:          0  USELESS:          0
PSCL4 USEFUL LOAD PREFETCHES:          0 PREFETCH ISSUED TO LOWER LEVEL:          0  ACCURACY: -nan
PSCL4 TIMELY PREFETCHES:          0 LATE PREFETCHES: 0 DROPPED PREFETCHES: 0
PSCL4 COMMIT LATE PREFETCHES: 0 MISSED OPPORTUNITY: 0 LATE IN PQ: 0 UNCOVERED: 0
PSCL4 COMMIT LATE MSHR PREFETCHES: 0
PSCL4 MPKI TOTAL: 0 MSHR LATE: 0 PQ LATE: 0 COMMIT LATE: 0 MISSED OPPORTUNITY: 0 UNCOVERED: 0
PSCL4 PREFETCHES SAME FILL-ORIGIN LEVEL: 0 DIFFERENT FILL-ORIGIN LEVEL: 0

PSCL3 TOTAL     ACCESS:      83306  HIT:      83306  MISS:          0  HIT %:        100  MISS %:          0   MPKI: 0
PSCL3 Test counter:          0
PSCL3 LOAD TRANSLATION ACCESS:      83306  HIT:      83306  MISS:          0  HIT %:        100  MISS %:          0   MPKI: 0
PSCL3 PREFETCH  REQUESTED:          0  ISSUED:          0  USEFUL:          0  USELESS:          0
PSCL3 USEFUL LOAD PREFETCHES:          0 PREFETCH ISSUED TO LOWER LEVEL:          0  ACCURACY: -nan
PSCL3 TIMELY PREFETCHES:          0 LATE PREFETCHES: 0 DROPPED PREFETCHES: 0
PSCL3 COMMIT LATE PREFETCHES: 0 MISSED OPPORTUNITY: 0 LATE IN PQ: 0 UNCOVERED: 0
PSCL3 COMMIT LATE MSHR PREFETCHES: 0
PSCL3 MPKI TOTAL: 0 MSHR LATE: 0 PQ LATE: 0 COMMIT LATE: 0 MISSED OPPORTUNITY: 0 UNCOVERED: 0
PSCL3 PREFETCHES SAME FILL-ORIGIN LEVEL: 0 DIFFERENT FILL-ORIGIN LEVEL: 0

PSCL2 TOTAL     ACCESS:      83306  HIT:      83221  MISS:         85  HIT %:     99.898  MISS %:   0.102033   MPKI: 0.000425
PSCL2 Test counter:          0
PSCL2 LOAD TRANSLATION ACCESS:      83306  HIT:      83221  MISS:         85  HIT %:     99.898  MISS %:   0.102033   MPKI: 0.000425
PSCL2 PREFETCH  REQUESTED:          0  ISSUED:          0  USEFUL:          0  USELESS:          0
PSCL2 USEFUL LOAD PREFETCHES:          0 PREFETCH ISSUED TO LOWER LEVEL:          0  ACCURACY: -nan
PSCL2 TIMELY PREFETCHES:          0 LATE PREFETCHES: 0 DROPPED PREFETCHES: 0
PSCL2 COMMIT LATE PREFETCHES: 0 MISSED OPPORTUNITY: 0 LATE IN PQ: 0 UNCOVERED: 0
PSCL2 COMMIT LATE MSHR PREFETCHES: 0
PSCL2 MPKI TOTAL: 0 MSHR LATE: 0 PQ LATE: 0 COMMIT LATE: 0 MISSED OPPORTUNITY: 0 UNCOVERED: 0
PSCL2 PREFETCHES SAME FILL-ORIGIN LEVEL: 0 DIFFERENT FILL-ORIGIN LEVEL: 0

LLC TOTAL     ACCESS:    9466009  HIT:    4125450  MISS:    5340559  HIT %:    43.5817  MISS %:    56.4183   MPKI: 26.7028
LLC Test counter:          0
LLC LOAD      ACCESS:     342128  HIT:          2  MISS:     342126  HIT %: 0.000584577  MISS %:    99.9994   MPKI: 1.71063
LLC RFO       ACCESS:    4060876  HIT:      63438  MISS:    3997438  HIT %:    1.56218  MISS %:    98.4378   MPKI: 19.9872
LLC PREFETCH  ACCESS:     990400  HIT:          0  MISS:     990400  HIT %:          0  MISS %:        100   MPKI: 4.952
LLC WRITEBACK ACCESS:    4062083  HIT:    4062010  MISS:         73  HIT %:    99.9982  MISS %: 0.00179711   MPKI: 0.000365
LLC LOAD TRANSLATION ACCESS:      10522  HIT:          0  MISS:      10522  HIT %:          0  MISS %:        100   MPKI: 0.05261
LLC PREFETCH  REQUESTED:          0  ISSUED:          0  USEFUL:          0  USELESS:     989215
LLC USEFUL LOAD PREFETCHES:          0 PREFETCH ISSUED TO LOWER LEVEL:     990400  ACCURACY: 0
LLC TIMELY PREFETCHES:          0 LATE PREFETCHES: 0 DROPPED PREFETCHES: 0
LLC COMMIT LATE PREFETCHES: 0 MISSED OPPORTUNITY: 0 LATE IN PQ: 0 UNCOVERED: 0
LLC COMMIT LATE MSHR PREFETCHES: 0
LLC MPKI TOTAL: 1.71063 MSHR LATE: 0 PQ LATE: 0 COMMIT LATE: 0 MISSED OPPORTUNITY: 0 UNCOVERED: 0
LLC PREFETCHES SAME FILL-ORIGIN LEVEL: 0 DIFFERENT FILL-ORIGIN LEVEL: 0
LLC AVERAGE MISS LATENCY: 411.206 cycles
LLC AVERAGE MISS LATENCY LOAD: 401.65 cycles
LLC AVERAGE MISS LATENCY PREFETCH: 382.435 cycles
LLC AVERAGE MSHR OCCUPANCY: 7.84558
LLC MSHR FULL: 0
LLC RQ	ACCESS:    4413560	FORWARD:          0	MERGED:          0	TO_CACHE:    4413536
LLC WQ	ACCESS:    4062083	FORWARD:         24	MERGED:          0	TO_CACHE:    4062083
LLC PQ	ACCESS:     990400	FORWARD:          0	MERGED:          0	TO_CACHE:     990400

LLC Dense regions hint to LLC: 0
40208c: 6
402065: 9
40206d: 14
4023cc: 15
401e33: 13553
401e02: 13820
401e67: 19385
401cdb: 22458
401d14: 22883
401d43: 57789
401cb0: 192194

RAW hits: 2772134
Loads Generated: 47759094
Loads sent to L1D: 44986960
Stores Generated: 31149747
Stores sent to L1D: 31149766
Major fault: 0 Minor fault: 61402
Allocated PAGES: 61402
Total Load insts: 56211574
Total Non-spec loads: 3697798
Percentage of speculative loads: 93.4216
L1D response latency: 201.105 cycles
Load retirement latency: 455.575 cycles

CPU 0 L1D PC-based stride prefetcher final stats
Degree: 3

DRAM Statistics
 CHANNEL 0
 RQ ROW_BUFFER_HIT:     287060  ROW_BUFFER_MISS:    5053427
 DBUS_CONGESTED:          0
 WQ ROW_BUFFER_HIT:     887084  ROW_BUFFER_MISS:    3110268  FULL:          0

 AVG_CONGESTED_CYCLE: -
 All warmup complete: 2
Channel 0 Bank busy for read cycles: 0
Channel 0 Bank busy for write cycles: 0
Channel 0
Rank 0
0banks busy for read cycles: 151275
0banks busy for write cycles: 0
1banks busy for read cycles: 9606603
1banks busy for write cycles: 438352
2banks busy for read cycles: 11670405
2banks busy for write cycles: 438329
3banks busy for read cycles: 20517323
3banks busy for write cycles: 438382
4banks busy for read cycles: 21685437
4banks busy for write cycles: 438255
5banks busy for read cycles: 32921813
5banks busy for write cycles: 438424
6banks busy for read cycles: 34563487
6banks busy for write cycles: 441290
7banks busy for read cycles: 25698434
7banks busy for write cycles: 4469042
8banks busy for read cycles: 14229458
8banks busy for write cycles: 79077124

CPU 0 Branch Prediction Accuracy: 99.0972% MPKI: 0.10939 Average ROB Occupancy at Mispredict: 156.623
Branch types
NOT_BRANCH: 197576254 98.7881%
BRANCH_DIRECT_JUMP: 120779 0.0603895%
BRANCH_INDIRECT: 0 0%
BRANCH_CONDITIONAL: 2302625 1.15131%
BRANCH_DIRECT_CALL: 0 0%
BRANCH_INDIRECT_CALL: 0 0%
BRANCH_RETURN: 0 0%
BRANCH_OTHER: 0 0%

DRAM PAGES: 1048576
Allocated PAGES: 61402
