
*** ChampSim Multicore Out-of-Order Simulator ***

Warmup Instructions: 50000000
Simulation Instructions: 200000000
Number of CPUs: 1
LLC sets: 2048
LLC ways: 16
Secure Berti: OFF
Berti: OFF
Berti Fill: OFF
On commit prefetching: OFF
L2 LLC Bypass speculative loads: OFF
Off-chip DRAM Size: 4096 MB Channels: 1 Width: 64-bit Data Rate: 6400 MT/s
CPU 0 runs /home/sumon/secure_berti/Berti_Baseline/../../traces/spec/620.omnetpp_s-874B.champsimtrace.xz
.xz
BTB has LRU replacement policy
ITLB has LRU replacement policy
DTLB has LRU replacement policy
STLB has LRU replacement policy
L1I has LRU replacement policy
CPU 0 L1D IP-based stride prefetcher
L1D has LRU replacement policy
L2C has LRU replacement policy
LLC has LRU replacement policy
Heartbeat CPU 0 instructions: 10000001 cycles: 3903899 heartbeat IPC: 2.56154 cumulative IPC: 2.56154 (Simulation time: 0 hr 0 min 25 sec) 
Heartbeat CPU 0 instructions: 20000000 cycles: 7804204 heartbeat IPC: 2.5639 cumulative IPC: 2.56272 (Simulation time: 0 hr 0 min 50 sec) 
Heartbeat CPU 0 instructions: 30000003 cycles: 11700167 heartbeat IPC: 2.56676 cumulative IPC: 2.56407 (Simulation time: 0 hr 1 min 15 sec) 
Heartbeat CPU 0 instructions: 40000001 cycles: 15605107 heartbeat IPC: 2.56086 cumulative IPC: 2.56326 (Simulation time: 0 hr 1 min 40 sec) 
Heartbeat CPU 0 instructions: 50000000 cycles: 19511791 heartbeat IPC: 2.55972 cumulative IPC: 2.56255 (Simulation time: 0 hr 2 min 5 sec) 

Warmup complete CPU 0 instructions: 50000004 cycles: 19511792 (Simulation time: 0 hr 2 min 5 sec) 

Heartbeat CPU 0 instructions: 60000001 cycles: 62736531 heartbeat IPC: 0.231349 cumulative IPC: 0.231349 (Simulation time: 0 hr 2 min 43 sec) 
Heartbeat CPU 0 instructions: 70000001 cycles: 105571543 heartbeat IPC: 0.233454 cumulative IPC: 0.232397 (Simulation time: 0 hr 3 min 22 sec) 
Heartbeat CPU 0 instructions: 80000002 cycles: 148584343 heartbeat IPC: 0.232489 cumulative IPC: 0.232427 (Simulation time: 0 hr 4 min 2 sec) 
Heartbeat CPU 0 instructions: 90000001 cycles: 191037336 heartbeat IPC: 0.235555 cumulative IPC: 0.233201 (Simulation time: 0 hr 4 min 43 sec) 
Heartbeat CPU 0 instructions: 100000000 cycles: 234481442 heartbeat IPC: 0.230181 cumulative IPC: 0.232591 (Simulation time: 0 hr 5 min 27 sec) 
Heartbeat CPU 0 instructions: 110000000 cycles: 277160837 heartbeat IPC: 0.234305 cumulative IPC: 0.232875 (Simulation time: 0 hr 6 min 11 sec) 
Heartbeat CPU 0 instructions: 120000003 cycles: 320112629 heartbeat IPC: 0.232819 cumulative IPC: 0.232867 (Simulation time: 0 hr 6 min 54 sec) 
Heartbeat CPU 0 instructions: 130000000 cycles: 363207625 heartbeat IPC: 0.232045 cumulative IPC: 0.232764 (Simulation time: 0 hr 7 min 38 sec) 
Heartbeat CPU 0 instructions: 140000001 cycles: 406157473 heartbeat IPC: 0.23283 cumulative IPC: 0.232771 (Simulation time: 0 hr 8 min 23 sec) 
Heartbeat CPU 0 instructions: 150000002 cycles: 449313150 heartbeat IPC: 0.231719 cumulative IPC: 0.232666 (Simulation time: 0 hr 9 min 6 sec) 
Heartbeat CPU 0 instructions: 160000000 cycles: 492718979 heartbeat IPC: 0.230384 cumulative IPC: 0.232456 (Simulation time: 0 hr 9 min 50 sec) 
Heartbeat CPU 0 instructions: 170000000 cycles: 535440244 heartbeat IPC: 0.234075 cumulative IPC: 0.23259 (Simulation time: 0 hr 10 min 30 sec) 
Heartbeat CPU 0 instructions: 180000000 cycles: 578432469 heartbeat IPC: 0.2326 cumulative IPC: 0.232591 (Simulation time: 0 hr 11 min 5 sec) 
Heartbeat CPU 0 instructions: 190000003 cycles: 621497467 heartbeat IPC: 0.232207 cumulative IPC: 0.232564 (Simulation time: 0 hr 11 min 39 sec) 
Heartbeat CPU 0 instructions: 200000000 cycles: 664436522 heartbeat IPC: 0.232888 cumulative IPC: 0.232585 (Simulation time: 0 hr 12 min 13 sec) 
Heartbeat CPU 0 instructions: 210000000 cycles: 707546104 heartbeat IPC: 0.231967 cumulative IPC: 0.232547 (Simulation time: 0 hr 12 min 47 sec) 
Heartbeat CPU 0 instructions: 220000000 cycles: 750332474 heartbeat IPC: 0.233719 cumulative IPC: 0.232615 (Simulation time: 0 hr 13 min 20 sec) 
Heartbeat CPU 0 instructions: 230000002 cycles: 792988740 heartbeat IPC: 0.234432 cumulative IPC: 0.232715 (Simulation time: 0 hr 13 min 53 sec) 
Heartbeat CPU 0 instructions: 240000001 cycles: 836232490 heartbeat IPC: 0.231247 cumulative IPC: 0.232638 (Simulation time: 0 hr 14 min 27 sec) 
Heartbeat CPU 0 instructions: 250000000 cycles: 879291004 heartbeat IPC: 0.232242 cumulative IPC: 0.232618 (Simulation time: 0 hr 15 min 0 sec) 
Finished CPU 0 instructions: 200000000 cycles: 859779213 cumulative IPC: 0.232618 (Simulation time: 0 hr 15 min 0 sec) 

ChampSim completed all CPUs

Region of Interest Statistics

CPU 0 cumulative IPC: 0.232618 instructions: 200000000 cycles: 859779213
ITLB TOTAL     ACCESS:   32887757  HIT:   32606548  MISS:     281209  HIT %:    99.1449  MISS %:   0.855057   MPKI: 1.40604
ITLB Test counter:          0
ITLB LOAD TRANSLATION ACCESS:   32887757  HIT:   32606548  MISS:     281209  HIT %:    99.1449  MISS %:   0.855057   MPKI: 1.40604
ITLB PREFETCH  REQUESTED:          0  ISSUED:          0  USEFUL:          0  USELESS:          0
ITLB USEFUL LOAD PREFETCHES:          0 PREFETCH ISSUED TO LOWER LEVEL:          0  ACCURACY: -nan
ITLB TIMELY PREFETCHES:          0 LATE PREFETCHES: 0 DROPPED PREFETCHES: 0
ITLB COMMIT LATE PREFETCHES: 0 MISSED OPPORTUNITY: 0 LATE IN PQ: 0 UNCOVERED: 0
ITLB COMMIT LATE MSHR PREFETCHES: 0
ITLB MPKI TOTAL: 0 MSHR LATE: 0 PQ LATE: 0 COMMIT LATE: 0 MISSED OPPORTUNITY: 0 UNCOVERED: 0
ITLB PREFETCHES SAME FILL-ORIGIN LEVEL: 0 DIFFERENT FILL-ORIGIN LEVEL: 0
ITLB AVERAGE MISS LATENCY: 9.96318 cycles
ITLB AVERAGE MISS LATENCY LOAD: -nan cycles
ITLB AVERAGE MISS LATENCY PREFETCH: -nan cycles
ITLB AVERAGE MSHR OCCUPANCY: 0.00775496
ITLB MSHR FULL: 0
ITLB RQ	ACCESS:   37002075	FORWARD:          0	MERGED:    4023176	TO_CACHE:   32978899

DTLB TOTAL     ACCESS:   76485451  HIT:   72673688  MISS:    3811763  HIT %:    95.0164  MISS %:    4.98364   MPKI: 19.0588
DTLB Test counter:          0
DTLB LOAD TRANSLATION ACCESS:   76485451  HIT:   72673688  MISS:    3811763  HIT %:    95.0164  MISS %:    4.98364   MPKI: 19.0588
DTLB PREFETCH  REQUESTED:          0  ISSUED:          0  USEFUL:          0  USELESS:          0
DTLB USEFUL LOAD PREFETCHES:          0 PREFETCH ISSUED TO LOWER LEVEL:          0  ACCURACY: -nan
DTLB TIMELY PREFETCHES:          0 LATE PREFETCHES: 0 DROPPED PREFETCHES: 0
DTLB COMMIT LATE PREFETCHES: 0 MISSED OPPORTUNITY: 0 LATE IN PQ: 0 UNCOVERED: 0
DTLB COMMIT LATE MSHR PREFETCHES: 0
DTLB MPKI TOTAL: 0 MSHR LATE: 0 PQ LATE: 0 COMMIT LATE: 0 MISSED OPPORTUNITY: 0 UNCOVERED: 0
DTLB PREFETCHES SAME FILL-ORIGIN LEVEL: 0 DIFFERENT FILL-ORIGIN LEVEL: 0
DTLB AVERAGE MISS LATENCY: 25.886 cycles
DTLB AVERAGE MISS LATENCY LOAD: -nan cycles
DTLB AVERAGE MISS LATENCY PREFETCH: -nan cycles
DTLB AVERAGE MSHR OCCUPANCY: 0.0881565
DTLB MSHR FULL: 1.11803e-05
DTLB RQ	ACCESS:   86465533	FORWARD:          0	MERGED:    9903084	TO_CACHE:   76562449

STLB TOTAL     ACCESS:    4344344  HIT:    3488988  MISS:     855356  HIT %:     80.311  MISS %:     19.689   MPKI: 4.27678
STLB Test counter:          0
STLB LOAD TRANSLATION ACCESS:    4092972  HIT:    3237619  MISS:     855353  HIT %:    79.1019  MISS %:    20.8981   MPKI: 4.27677
STLB TRANSLATION FROM L1D PREFETCHER ACCESS:     251372  HIT:     251369  MISS:          3  HIT %:    99.9988  MISS %: 0.00119345   MPKI: 1.5e-05
STLB PREFETCH  REQUESTED:          0  ISSUED:          0  USEFUL:          3  USELESS:          0
STLB USEFUL LOAD PREFETCHES:          3 PREFETCH ISSUED TO LOWER LEVEL:          0  ACCURACY: inf
STLB TIMELY PREFETCHES:          3 LATE PREFETCHES: 0 DROPPED PREFETCHES: 0
STLB COMMIT LATE PREFETCHES: 0 MISSED OPPORTUNITY: 0 LATE IN PQ: 0 UNCOVERED: 0
STLB COMMIT LATE MSHR PREFETCHES: 0
STLB MPKI TOTAL: 0 MSHR LATE: 0 PQ LATE: 0 COMMIT LATE: 0 MISSED OPPORTUNITY: 0 UNCOVERED: 0
STLB PREFETCHES SAME FILL-ORIGIN LEVEL: 0 DIFFERENT FILL-ORIGIN LEVEL: 0
STLB AVERAGE MISS LATENCY: 75.4189 cycles
STLB AVERAGE MISS LATENCY LOAD: -nan cycles
STLB AVERAGE MISS LATENCY PREFETCH: -nan cycles
STLB AVERAGE MSHR OCCUPANCY: 0.0674719
STLB MSHR FULL: 0
STLB RQ	ACCESS:    4800351	FORWARD:          0	MERGED:     456007	TO_CACHE:    4344344

STLB Hit, L1D data hit: 0
STLB Hit, L2C data hit: 0
STLB Hit, LLC data hit: 0
STLB Hit, LLC data miss: 0
STLB STLB hints to L2: 0
L1D TOTAL     ACCESS:   86186468  HIT:   82488573  MISS:    3697895  HIT %:    95.7094  MISS %:    4.29057   MPKI: 18.4895
L1D Test counter:          0
L1D LOAD      ACCESS:   49455290  HIT:   46344134  MISS:    3413498  HIT %:    93.7092  MISS %:    6.29085   MPKI: 15.5558
L1D RFO       ACCESS:   36027689  HIT:   35538090  MISS:     489599  HIT %:     98.641  MISS %:    1.35895   MPKI: 2.448
L1D PREFETCH  ACCESS:     703489  HIT:     606349  MISS:      97140  HIT %:    86.1917  MISS %:    13.8083   MPKI: 0.4857
L1D PREFETCH  REQUESTED:    1437945  ISSUED:    1437945  USEFUL:      45832  USELESS:      51305
L1D USEFUL LOAD PREFETCHES:      45832 PREFETCH ISSUED TO LOWER LEVEL:      97538  ACCURACY: 46.9889
L1D TIMELY PREFETCHES:      45832 LATE PREFETCHES: 190 DROPPED PREFETCHES: 0
L1D COMMIT LATE PREFETCHES: 0 MISSED OPPORTUNITY: 0 LATE IN PQ: 154 UNCOVERED: 0
L1D COMMIT LATE MSHR PREFETCHES: 0
L1D MPKI TOTAL: 17.0675 MSHR LATE: 0.00095 PQ LATE: 0.00077 COMMIT LATE: 0 MISSED OPPORTUNITY: 0 UNCOVERED: 0
L1D PREFETCHES SAME FILL-ORIGIN LEVEL: 97333 DIFFERENT FILL-ORIGIN LEVEL: 205
L1D AVERAGE MISS LATENCY: 118.685 cycles
L1D AVERAGE MISS LATENCY LOAD: 122.059 cycles
L1D AVERAGE MISS LATENCY PREFETCH: 122.268 cycles
L1D AVERAGE MSHR OCCUPANCY: 0.283839
L1D MSHR FULL: 4.62241e-07
L1D RQ	ACCESS:   64238900	FORWARD:          0	MERGED:   11858050	TO_CACHE:   49757630
L1D WQ	ACCESS:   37118330	FORWARD:    2623227	MERGED:     410427	TO_CACHE:   36707903
L1D PQ	ACCESS:     730566	FORWARD:          0	MERGED:      23180	TO_CACHE:     707379

L1D UNIQUE REGIONS ACCESSED: 0
L1D REGIONS CONFLICTS: 0
L1D Cross Page Prefetch Requests: 0
L1D Same Page Prefetch Requests: 896949
L1D ROI Sum of L1D PQ occupancy: 9407836
L1D PREFETCHES PUSHED FROM L2C: 0
4c7067: 1
4e0583: 1
680e22: 1
41d437: 1
4c8937: 1
549774: 1
498148: 1
498162: 1
549b06: 1
4c703e: 1
4cce59: 1
549b73: 1
498169: 1
5555c3: 1
544bff: 1
412246: 1
47d471: 1
590696: 1
558d53: 1
623f79: 1
4e057c: 1
549ee8: 1
550bba: 1
5502e6: 1
4c86bf: 1
4c862b: 1
410666: 1
558cce: 1
550280: 1
511c1a: 1
6220e6: 1
4c74d9: 1
552c80: 1
558d2d: 1
620b25: 1
4c2586: 1
550d5b: 1
47d4b7: 1
558ad6: 1
511a8f: 1
59068b: 1
4ccea2: 1
4cce80: 1
4cce4f: 1
623f65: 1
549741: 1
412417: 2
553cac: 2
55b73b: 2
556f4d: 2
4c8516: 2
556e5c: 2
558a37: 2
550d03: 2
64caa6: 2
558e48: 2
41241d: 2
550cd8: 2
556e38: 2
4c79fa: 2
558e90: 2
558d88: 2
471349: 2
41077b: 2
41066e: 2
558ed3: 2
410754: 2
53f48a: 2
550cbd: 2
556dfe: 2
556dd4: 2
47128d: 2
549fb0: 2
41d422: 3
549c8f: 3
63e670: 3
549afd: 3
54976a: 3
67c788: 3
639783: 3
549adf: 3
67c67b: 3
558d23: 3
67c76c: 3
4e0580: 3
49815f: 3
620ac1: 3
67c33b: 3
549f7c: 3
544d49: 3
67c885: 4
620ad3: 4
549d13: 4
55241b: 4
67c88c: 4
5502ec: 4
501cbe: 4
54971f: 4
41631a: 4
549cd5: 4
549c81: 4
411804: 5
411c7a: 5
558cf0: 5
4714bb: 5
63e661: 5
4117f3: 5
4c8508: 5
550c04: 5
550657: 5
55b752: 5
4117fe: 5
550083: 6
54ff9a: 6
550e48: 6
62207f: 6
549fa0: 6
622591: 7
5012c3: 7
544ce2: 8
6222b1: 8
545247: 8
54492b: 8
55009f: 9
5504e0: 10
5498b1: 10
550fab: 10
4714b4: 10
55030c: 11
558c3d: 11
6223e0: 11
41ccb1: 11
47148a: 11
558c2c: 11
4714a7: 11
5525b8: 13
5453bb: 13
550bb3: 13
4714db: 13
620aff: 14
471483: 15
5502ef: 15
4ebada: 16
5125c3: 16
4714ac: 17
550f70: 17
550d38: 18
4e0578: 19
620ab7: 19
54eedc: 19
620b09: 19
43ad21: 20
41cc22: 20
5012ed: 20
5012bc: 20
5012f6: 20
620aa5: 20
51a66d: 20
55055b: 22
620aad: 22
51a684: 22
55023a: 23
4c269a: 24
4714df: 25
55040d: 26
621fc8: 26
550af9: 26
49bf82: 27
4ebaeb: 27
550f8e: 28
550406: 29
552758: 35
4712b7: 37
47d477: 38
47ea73: 39
55063a: 41
4713dc: 44
41d238: 44
47148e: 44
4ebae4: 49
47ea6d: 51
629270: 51
621fdb: 56
623f34: 56
550629: 59
550005: 61
55842d: 63
41cc4c: 65
53e1b9: 65
558426: 70
621ec1: 75
550114: 78
621e1e: 79
62096e: 81
41cc4f: 81
41d235: 83
62257c: 87
620d89: 89
550010: 93
555da8: 95
623f49: 96
62098c: 98
620980: 100
43b8f6: 107
62093b: 108
621dee: 110
4c2667: 110
5507d2: 125
552173: 135
41072e: 151
5525f5: 152
4106b3: 174
47d53a: 180
4c2595: 193
555f38: 204
4c26a3: 207
62201f: 216
54c958: 220
621ffe: 226
410781: 228
556079: 228
5525eb: 235
47d608: 241
5507b5: 242
44416b: 244
552252: 249
55833c: 250
550965: 255
5525ac: 264
4712c4: 265
54ff23: 269
6225da: 277
621e95: 278
550853: 288
4441d5: 309
5555ea: 323
550091: 329
55003d: 329
4ebf7c: 333
6225ab: 333
555504: 350
4441ba: 368
55100a: 373
620961: 390
4713b5: 394
622010: 396
620b35: 438
544c9b: 446
555bb1: 486
545190: 488
55218c: 492
6408a3: 510
555bbb: 559
544907: 588
5549c3: 611
55b176: 619
552130: 623
55b745: 633
44512a: 689
55bb22: 695
55b1e5: 701
5125d4: 753
4ea00b: 766
544edb: 777
4ebaf4: 787
55214d: 788
4712bc: 796
544914: 831
4713bc: 843
5583d5: 853
545380: 882
55b1c0: 953
4ea0c7: 976
55bb00: 989
552270: 1012
47d3b5: 1013
552274: 1014
506f34: 1014
552182: 1016
5524d8: 1030
411780: 1030
5524c9: 1030
54490e: 1030
54515b: 1030
5525be: 1031
4ea048: 1074
4e9fc4: 1087
43b438: 1092
55b6fe: 1097
624580: 1098
620a3f: 1139
555f8f: 1157
47e5da: 1157
620b3f: 1159
550931: 1171
41cc70: 1195
4441ae: 1214
43b43b: 1223
623f20: 1238
4ebfa0: 1245
623f09: 1249
416e91: 1270
4441c7: 1274
400640: 1289
623f81: 1292
54fff8: 1297
545370: 1304
63fb0d: 1338
621435: 1341
54ff8c: 1366
63e5fa: 1413
621e83: 1436
471411: 1463
4713a9: 1483
550075: 1492
400580: 1527
549390: 1544
63e5f6: 1625
4441eb: 1822
556275: 1912
47d5c0: 1929
4713a4: 2046
444197: 2099
443ff4: 2105
55b7b0: 2109
50754a: 2366
41d1f7: 2442
44427d: 2611
55bb37: 2657
444186: 2804
411c4a: 2922
550144: 2997
545180: 3022
4117af: 3204
5507ee: 3226
416eb9: 3273
555f7c: 3298
555f2e: 3300
5555bc: 3306
555d9d: 3324
411aac: 3348
41055f: 3353
549100: 3390
411afa: 3416
411c3e: 3443
444028: 3476
4ebf44: 3583
54c9b1: 3627
6291bb: 3639
6291b5: 3788
411c5f: 3907
411b0d: 3931
62919a: 3995
6291c1: 4044
55b6eb: 4128
416e8e: 4470
550b49: 4810
445148: 4919
549370: 5014
55039d: 5023
550ab2: 5046
555b54: 5046
550397: 5081
555b1a: 5142
4450fb: 5167
621ea4: 5242
4168b0: 5454
4ebb70: 5487
621e9a: 5530
47d45d: 5870
471398: 6037
4712ab: 6197
41053f: 6728
4105d4: 6729
44415f: 6755
62241f: 8206
47eb9a: 9277
62200b: 9348
554a73: 9524
555f5c: 9665
444216: 11202
444178: 11572
4168cb: 11747
6408a0: 12560
4168b4: 12902
41d1f4: 13071
5555a4: 13113
410737: 13182
555f6d: 13240
4ebe6b: 13275
5507af: 13287
4ebf76: 13298
4ebf40: 13300
41054e: 13548
433dff: 13677
49c1ec: 14527
412730: 15331
62094f: 16048
620a5d: 16263
55bb1e: 16850
433def: 17923
416e84: 18097
55bb33: 18123
507571: 18495
4340f0: 18636
41218b: 20303
555b34: 20305
550a73: 20426
4ea01d: 22206
444020: 23062
55b173: 23438
41191a: 23722
47d453: 24049
41cc78: 24236
620aeb: 24735
41195a: 27841
622407: 28769
47136d: 29304
4712af: 29446
416eb3: 34099
416e72: 34738
416eb6: 35279
471366: 36118
621e17: 36696
4168ba: 39384
5124e1: 41158
471394: 42071
624599: 44224
47e5d4: 47622
416ef9: 51613
41cc81: 56555
4ec000: 59048
54fe9b: 68600
471359: 69631
47135d: 71134
4ea019: 77396
550ff8: 79834
54fefc: 80840
55bb13: 87207
4e9fc1: 88259
5432c8: 89656
47133d: 204470
471351: 261714
47134d: 311985
L1I TOTAL     ACCESS:   36971547  HIT:   36892539  MISS:      79008  HIT %:    99.7863  MISS %:   0.213699   MPKI: 0.39504
L1I Test counter:          0
L1I LOAD      ACCESS:   36971547  HIT:   36892539  MISS:     109537  HIT %:    99.7863  MISS %:   0.213699   MPKI: 0.39504
L1I PREFETCH  REQUESTED:          0  ISSUED:          0  USEFUL:          0  USELESS:          0
L1I USEFUL LOAD PREFETCHES:          0 PREFETCH ISSUED TO LOWER LEVEL:          0  ACCURACY: -nan
L1I TIMELY PREFETCHES:          0 LATE PREFETCHES: 0 DROPPED PREFETCHES: 0
L1I COMMIT LATE PREFETCHES: 0 MISSED OPPORTUNITY: 0 LATE IN PQ: 0 UNCOVERED: 0
L1I COMMIT LATE MSHR PREFETCHES: 0
L1I MPKI TOTAL: 0.547685 MSHR LATE: 0 PQ LATE: 0 COMMIT LATE: 0 MISSED OPPORTUNITY: 0 UNCOVERED: 0
L1I PREFETCHES SAME FILL-ORIGIN LEVEL: 0 DIFFERENT FILL-ORIGIN LEVEL: 0
L1I AVERAGE MISS LATENCY: 26.0073 cycles
L1I AVERAGE MISS LATENCY LOAD: 26.0073 cycles
L1I AVERAGE MISS LATENCY PREFETCH: -nan cycles
L1I AVERAGE MSHR OCCUPANCY: 0.00330208
L1I MSHR FULL: 0
L1I RQ	ACCESS:   57075359	FORWARD:          0	MERGED:   20073284	TO_CACHE:   37002075

556dc0: 1
55bd10: 1
550a40: 1
552ad0: 1
4c7697: 1
55be88: 1
54cad0: 1
558c20: 1
55b280: 1
4e0570: 1
511c80: 1
558ca2: 1
4c8db1: 1
549700: 1
555804: 1
511ce1: 1
558d80: 1
4c74c0: 1
4c7a04: 1
519a46: 1
558cc1: 1
63f7f5: 1
4c7044: 1
507688: 1
4cced6: 1
445101: 1
511c10: 1
4c868c: 1
620a82: 1
54ca83: 1
552703: 1
553cc0: 1
519a30: 1
410748: 1
4c8cd0: 1
629241: 1
498140: 1
552c90: 1
550690: 1
4cd010: 1
545870: 1
55bc90: 1
621ffe: 1
552753: 1
4c8500: 1
4c8923: 1
558c41: 1
558a41: 1
549d41: 1
5504c0: 1
4c8d53: 1
550338: 1
4c8dc1: 1
67cd4f: 1
558dc0: 1
4c7020: 1
411801: 1
558a8b: 1
558ac4: 1
558b0a: 1
501cc2: 1
558b46: 1
4c86c4: 1
4117c0: 1
54975c: 1
55bd50: 1
449d70: 1
4cd041: 1
63e680: 1
558d02: 1
555a70: 1
558ec2: 1
498180: 1
554a73: 1
556067: 1
620e58: 1
544c60: 1
550c0a: 1
443f6c: 1
61d150: 1
550d44: 1
4c8703: 1
590680: 1
680e01: 1
4cce80: 1
4cce40: 1
4c7086: 1
550942: 1
4c2680: 1
4c862b: 1
4c8740: 1
519a81: 1
545242: 1
680de2: 1
622682: 1
5906e0: 1
59071d: 1
4c79c9: 1
4c7a42: 1
550002: 1
4c8d01: 1
511a50: 1
55bbe0: 1
511a84: 1
556d4b: 1
511c40: 1
558d40: 1
629200: 1
6220c0: 1
4ea360: 1
6814e2: 1
549d02: 1
5494b0: 1
67cda3: 1
55bf41: 1
67c748: 1
558e48: 1
545942: 1
553c80: 1
55bd83: 1
55bdf9: 1
67cd04: 1
556500: 1
54a71e: 1
622042: 1
545902: 1
501d8c: 1
558e89: 1
6210ef: 1
621100: 1
408910: 1
55bf64: 1
55bf30: 1
501d02: 1
55bcc1: 1
501d6e: 1
556d8f: 1
55bc01: 1
5571c1: 2
443880: 2
622620: 2
412442: 2
557002: 2
41242d: 2
556fb0: 2
549870: 2
41244b: 2
54c8c4: 2
553500: 2
556fc1: 2
544beb: 2
550341: 2
55bebd: 2
61d900: 2
555ec1: 2
67ccc1: 2
5583d5: 2
556281: 2
549c81: 2
4ea0c4: 2
5500c0: 2
54ff84: 2
620b82: 2
54ff6a: 2
5498c3: 2
68024f: 2
557041: 2
549bc2: 2
412200: 2
551001: 2
549881: 2
558456: 2
54a680: 2
555fc7: 2
67c843: 2
557190: 2
549c70: 2
55bcd0: 2
55bed0: 2
67ce80: 2
4ea0bd: 2
412400: 2
61d881: 2
61d842: 2
68021d: 2
67c681: 2
49bf82: 2
67c520: 2
61d040: 2
6170c4: 2
4c2570: 2
55bec1: 2
411ba0: 2
549cc1: 2
54efe0: 2
412241: 2
443870: 2
556e80: 2
556ec2: 2
61d146: 2
6222c1: 2
55008b: 2
556cc0: 2
556f42: 2
553340: 2
501cb0: 2
548570: 2
556f19: 2
67ca58: 2
556e40: 2
548582: 2
552c80: 2
548301: 2
61ec00: 2
552bd0: 2
68062a: 2
615826: 2
61d807: 2
67c880: 2
54c8a0: 2
4340c1: 2
67c801: 2
61cef0: 3
410543: 3
546960: 3
61ec70: 3
47e5c0: 3
680286: 3
49c0e0: 3
61d0d3: 3
6802fd: 3
556344: 3
68102b: 3
544c81: 3
55ba40: 3
43b442: 3
5507c0: 3
51a843: 3
680f80: 3
51a802: 3
61cf00: 3
55bc80: 3
67c310: 3
51a7f1: 3
41cc10: 3
549fc1: 3
551090: 3
67ceeb: 3
545947: 3
549370: 3
41d410: 3
550c4c: 3
447960: 3
67c5c0: 3
61ec81: 3
549b81: 3
67cf4e: 3
67c544: 3
47ea60: 3
545042: 3
549b03: 3
61d081: 3
67cf86: 3
6157d0: 3
55bc40: 3
550cc3: 3
617100: 3
61d7e0: 3
67c340: 3
5493c0: 3
67c661: 3
67ce6f: 3
550bc0: 3
439c05: 3
471501: 3
549ec9: 3
54ff04: 3
67cc4f: 3
545882: 3
550241: 3
680307: 3
67cc81: 3
6806af: 3
5557ef: 3
64e140: 3
5458c0: 3
681460: 3
680f1c: 3
544e62: 3
5432b0: 3
680f68: 3
67c7c7: 3
54a500: 3
6220ef: 3
552686: 3
411482: 3
63eef0: 3
617080: 3
550201: 3
549a83: 3
411460: 3
549a7b: 3
549ace: 3
54cb10: 3
549b40: 3
55bf00: 3
63ef00: 3
41d441: 3
61d108: 3
55c020: 3
67c280: 3
550ac4: 3
54eec1: 4
54cae0: 4
544ec4: 4
545341: 4
55233a: 4
5592d2: 4
5463e0: 4
4113c4: 4
51a680: 4
546502: 4
4123c0: 4
550505: 4
47e640: 4
549f70: 4
546b30: 4
54a650: 4
544fc0: 4
5592a0: 4
550c80: 4
550ecd: 4
549f00: 4
55c0cc: 4
556302: 4
555f40: 4
622083: 4
549f83: 4
55bb41: 4
55c010: 4
558342: 5
416300: 5
546b50: 5
5453c6: 5
621183: 5
4ec000: 5
546ad0: 5
559340: 5
63e640: 5
621175: 5
559300: 5
546b90: 5
416f03: 5
63f5c0: 5
558320: 5
55bac3: 5
620b35: 6
49bfab: 6
545080: 6
54531d: 6
55bf60: 6
4ebb8b: 6
550e40: 7
552603: 7
546607: 7
55bf83: 7
551144: 7
622641: 7
4ea002: 7
55010d: 7
553440: 7
550b40: 7
63faf0: 7
554ab7: 7
55beb5: 7
6223dc: 7
47ea80: 8
49bf40: 8
550eb0: 8
54eeb0: 8
5505f1: 9
5505ce: 9
55be45: 9
433f40: 9
51a630: 9
555b45: 9
412640: 9
550608: 9
410641: 10
55bad3: 10
55baa0: 10
550b86: 10
555b80: 10
6292d0: 10
4ebf40: 11
5465c0: 11
507650: 11
4c2660: 11
4e0580: 11
641120: 11
545283: 11
55b187: 12
552282: 12
680599: 13
549100: 13
554a84: 13
67c585: 13
5502c1: 13
5522cd: 14
620ae0: 14
559488: 14
5012c3: 14
49c100: 14
4ebf82: 14
54510b: 15
55bba0: 15
544f9e: 15
55bb46: 15
5465b0: 15
545000: 15
434103: 15
546401: 15
544f08: 15
555f83: 15
501300: 15
546640: 15
549490: 16
41d490: 16
629304: 16
6225c0: 17
63f5b0: 17
62228f: 18
550542: 18
471481: 18
47eac0: 18
54ab40: 18
629282: 18
550f40: 19
55044a: 19
550280: 19
5504bd: 19
544b81: 19
550f84: 19
54aa80: 19
54ef00: 19
62257c: 19
544b74: 19
550f03: 19
51a641: 20
555a84: 20
550583: 20
550a80: 20
550400: 20
64e1d0: 20
501280: 20
443f82: 21
555540: 21
4ebb63: 21
623f00: 21
412110: 22
5555c3: 22
552470: 23
5525c4: 23
621f84: 26
621f42: 26
550591: 28
552120: 28
55067b: 30
621440: 38
55b1c0: 38
550027: 39
559440: 39
622190: 40
55564d: 42
43b430: 46
543401: 46
64e1e0: 46
53f480: 59
545190: 63
5511ce: 81
548440: 114
622581: 120
47d480: 129
4441a6: 153
49c1c2: 158
62241f: 175
64cac3: 210
411ac2: 213
64cb03: 290
411b01: 292
5524a0: 346
558441: 347
552440: 348
444180: 360
552482: 368
54547e: 370
555f06: 388
443f00: 438
629184: 463
412180: 511
47d430: 542
550b25: 646
555b04: 651
5521c1: 660
622407: 676
55bb00: 676
4ebb04: 685
545180: 698
552411: 707
552598: 725
552182: 739
555400: 740
5451c1: 750
554ac0: 766
555afa: 767
552142: 770
55214a: 775
556495: 778
621435: 781
544acf: 792
4ebac0: 793
545481: 812
555f27: 815
55548c: 818
6291c1: 837
629170: 840
558405: 861
5501c2: 882
5555a4: 885
545140: 900
64e150: 904
444004: 913
4441c1: 935
621f26: 981
55115d: 988
507581: 1020
49c1b0: 1064
53f5b0: 1066
506f20: 1132
445142: 1140
55b160: 1174
4ebf30: 1174
550191: 1179
433f36: 1180
548420: 1195
556420: 1235
556027: 1418
549030: 1418
54f002: 1420
622002: 1423
47e5a0: 1674
445148: 2128
47d596: 2291
64e160: 2320
624580: 2395
444140: 2489
410598: 2752
4c2586: 2780
400580: 2788
550140: 2948
BTB TOTAL     ACCESS:   32188164  HIT:   30296058  MISS:    1892106  HIT %:    94.1217  MISS %:    5.87827   MPKI: 9.46053
BTB Test counter:          0
BTB BRANCH_DIRECT_JUMP	ACCESS:    2276304  HIT:    2276179  MISS:        125
BTB BRANCH_INDIRECT	ACCESS:     671328  HIT:     585871  MISS:      85457
BTB BRANCH_CONDITIONAL	ACCESS:   17350102  HIT:   17349618  MISS:        484
BTB BRANCH_DIRECT_CALL	ACCESS:    3559126  HIT:    3558870  MISS:        256
BTB BRANCH_INDIRECT_CALL	ACCESS:    2386088  HIT:    2378106  MISS:       7982
BTB BRANCH_RETURN	ACCESS:    5945216  HIT:    4147414  MISS:    1797802
BTB BRANCH_OTHER ACCESS:          0  HIT:          0  MISS:          0

L2C TOTAL     ACCESS:    6788047  HIT:    3751641  MISS:    3036406  HIT %:    55.2683  MISS %:    44.7317   MPKI: 15.182
L2C Test counter:          0
L2C LOAD      ACCESS:    3189928  HIT:    1020092  MISS:    2169836  HIT %:    31.9785  MISS %:    68.0215   MPKI: 10.8492
L2C DATA LOAD MPKI: 10.7841
L2C INSTRUCTION LOAD MPKI: 0.065055
L2C RFO       ACCESS:     489589  HIT:     144402  MISS:     345187  HIT %:    29.4945  MISS %:    70.5055   MPKI: 1.72593
L2C PREFETCH  ACCESS:      97535  HIT:      32760  MISS:      64775  HIT %:    33.5879  MISS %:    66.4121   MPKI: 0.323875
L2C DATA PREFETCH MPKI: 0.323875
L2C INSTRUCTION PREFETCH MPKI: 0
L2C WRITEBACK ACCESS:    1801353  HIT:    1798365  MISS:       2988  HIT %:    99.8341  MISS %:   0.165875   MPKI: 0.01494
L2C LOAD TRANSLATION ACCESS:    1209636  HIT:     756022  MISS:     453614  HIT %:       62.5  MISS %:       37.5   MPKI: 2.26807
L2C TRANSLATION FROM L1D PREFETCHER ACCESS:          6  HIT:          0  MISS:          6  HIT %:          0  MISS %:        100   MPKI: 3e-05
L2C PREFETCH  REQUESTED:          0  ISSUED:          0  USEFUL:       3452  USELESS:      61345
L2C USEFUL LOAD PREFETCHES:       3452 PREFETCH ISSUED TO LOWER LEVEL:      64775  ACCURACY: 5.32922
L2C TIMELY PREFETCHES:       3452 LATE PREFETCHES: 0 DROPPED PREFETCHES: 0
L2C COMMIT LATE PREFETCHES: 0 MISSED OPPORTUNITY: 0 LATE IN PQ: 0 UNCOVERED: 0
L2C COMMIT LATE MSHR PREFETCHES: 0
L2C MPKI TOTAL: 10.8492 MSHR LATE: 0 PQ LATE: 0 COMMIT LATE: 0 MISSED OPPORTUNITY: 0 UNCOVERED: 0
L2C PREFETCHES SAME FILL-ORIGIN LEVEL: 200 DIFFERENT FILL-ORIGIN LEVEL: 0
L2C AVERAGE MISS LATENCY: 138.978 cycles
L2C AVERAGE MISS LATENCY LOAD: 153.851 cycles
L2C AVERAGE MISS LATENCY PREFETCH: 160.644 cycles
L2C AVERAGE MSHR OCCUPANCY: 0.377324
L2C MSHR FULL: 0
L2C RQ	ACCESS:    4889212	FORWARD:          0	MERGED:          0	TO_CACHE:    4889159
L2C WQ	ACCESS:    1801353	FORWARD:         53	MERGED:          0	TO_CACHE:    1801353
L2C PQ	ACCESS:      97538	FORWARD:          0	MERGED:          0	TO_CACHE:      97538

L2C Instructions Evicting Data 10529
L2C Translations Evicting Data 381425
L2C Data Evicting Data 2175270
L2C Instructions Evicting Instructions 1120
L2C Translations Evicting Instructions 1421
L2C Data Evicting Instructions 10494
L2C Instructions Evicting Translations 1362
L2C Translations Evicting Translations 70774
L2C Data Evicting Translations 381023
L2C Dense regions hint from L2: 0
558a8b: 1
4c8d53: 1
4c7044: 1
507688: 1
511a50: 1
511c10: 1
55bc01: 1
511c1a: 1
511c80: 1
622042: 1
511a8f: 1
4c7086: 1
550002: 1
4c7067: 1
549b73: 1
4c7020: 1
511ce1: 1
5504c0: 1
519a30: 1
519a46: 1
555804: 1
4c8740: 1
4c8dc1: 1
519a81: 1
59068b: 1
558e89: 1
558d02: 1
4c8703: 1
590696: 1
54975c: 1
59071d: 1
4c8923: 1
4c79c9: 1
4c8d01: 1
47ea6d: 1
55bd50: 1
54cad0: 1
511c40: 1
41d437: 1
54a71e: 1
550690: 1
555a70: 1
550338: 1
411801: 1
556067: 1
620e58: 1
550a40: 1
544c60: 1
4c7a04: 1
6814e2: 1
545902: 1
4ccea2: 1
629241: 1
558ca2: 1
549700: 1
4e057c: 1
55bf30: 1
558b46: 1
558ad6: 1
558b0a: 1
558ac4: 1
55bf41: 1
63e680: 1
558c41: 1
501d8c: 1
558d40: 1
558d2d: 1
4713dc: 1
449d70: 1
4c7a42: 1
55bbe0: 1
550c0a: 1
501d6e: 1
55b280: 1
558d53: 1
4c8cd0: 1
552703: 1
501d02: 1
4c8500: 1
558ec2: 1
498140: 1
47ea73: 1
511a84: 1
680e01: 1
5494b0: 1
4cd041: 1
4c8db1: 1
5906e0: 1
549774: 1
55bc90: 1
4cce4f: 1
55023a: 1
552c90: 1
55bf64: 1
410748: 1
680de2: 1
545242: 1
4117c0: 1
4cd010: 1
4e0570: 1
552753: 1
498180: 1
552ad0: 1
4c74c0: 1
4cced6: 1
558cc1: 1
4e0583: 1
549d02: 1
498148: 1
558cce: 1
4c86c4: 1
445101: 1
4c703e: 1
4c74d9: 1
4c86bf: 1
558dc0: 1
4cce40: 1
590680: 1
498162: 1
4c868c: 1
550bba: 1
4cce59: 1
558d80: 1
620b25: 1
550d44: 1
4c7697: 1
61d150: 1
545870: 1
680e22: 1
558c20: 1
4c2680: 1
47148e: 1
5502ef: 1
63f7f5: 1
558456: 1
498169: 1
54ca83: 1
55bcc1: 1
553c80: 1
55bd10: 1
621100: 1
6210ef: 1
553cc0: 1
558a41: 1
620a82: 1
55be88: 1
55bdf9: 1
55bd83: 1
555504: 1
550e48: 1
4c8937: 1
408910: 1
47d4b7: 1
549ee8: 1
550083: 1
67cda3: 1
67cd4f: 1
67cd04: 1
67c748: 1
501cc2: 1
556dc0: 1
556d8f: 1
556d4b: 1
443f6c: 1
4ea360: 1
549d41: 1
545942: 1
556500: 1
621ffe: 1
623f65: 1
629200: 1
550af9: 1
550942: 1
54492b: 1
4c26a3: 1
47d471: 1
6220c0: 1
6220e6: 1
552173: 1
622682: 1
549c8f: 1
556e38: 2
553cac: 2
41066e: 2
552bd0: 2
556dfe: 2
4cce80: 2
556e80: 2
556f4d: 2
61d900: 2
548582: 2
556ec2: 2
61d842: 2
61ec00: 2
550341: 2
4340c1: 2
443870: 2
55030c: 2
67ca58: 2
501cb0: 2
4ea0c4: 2
622620: 2
54ff84: 2
410781: 2
61d881: 2
4c79fa: 2
557190: 2
555fc7: 2
55bed0: 2
68062a: 2
556f19: 2
5498c3: 2
54c8c4: 2
443880: 2
412241: 2
412400: 2
549881: 2
5500c0: 2
549cc1: 2
556281: 2
553500: 2
67ccc1: 2
61d807: 2
553340: 2
555ec1: 2
6170c4: 2
54efe0: 2
68024f: 2
67c880: 2
67c843: 2
67c801: 2
67c681: 2
61d040: 2
556e40: 2
412200: 2
67ce80: 2
556cc0: 2
556dd4: 2
67c520: 2
4c8516: 2
558d88: 2
55bcd0: 2
550cbd: 2
4714bb: 2
41244b: 2
557041: 2
54c8a0: 2
5571c1: 2
64caa6: 2
548570: 2
558a37: 2
55bec1: 2
55bebd: 2
54ff6a: 2
620b82: 2
47148a: 2
548301: 2
556fb0: 2
549bc2: 2
4c2570: 2
4c862b: 2
556fc1: 2
557002: 2
41077b: 2
558e90: 2
558ed3: 2
544beb: 2
410754: 2
556e5c: 2
549fb0: 2
47128d: 2
412417: 2
55008b: 2
556f42: 2
53f48a: 2
61d146: 2
549c70: 2
412442: 2
6222c1: 2
41241d: 2
68021d: 2
4ea0bd: 2
551001: 2
55b73b: 2
549870: 2
411ba0: 2
41242d: 2
615826: 2
54a680: 2
549ace: 3
67ce6f: 3
549b40: 3
47e5c0: 3
67c5c0: 3
67c885: 3
550f70: 3
61d081: 3
54a500: 3
558e48: 3
549b81: 3
617100: 3
617080: 3
680599: 3
551090: 3
5507c0: 3
41d410: 3
61d0d3: 3
550ac4: 3
61ec81: 3
471501: 3
556344: 3
51a7f1: 3
67cc4f: 3
6157d0: 3
51a843: 3
549adf: 3
43b442: 3
61d7e0: 3
639783: 3
55bf00: 3
550cc3: 3
545882: 3
67c544: 3
67c310: 3
61ec70: 3
680f68: 3
67c585: 3
67c788: 3
55c020: 3
41d422: 3
549b03: 3
54cb10: 3
549fc1: 3
5502ec: 3
549a83: 3
67c340: 3
411482: 3
549a7b: 3
54976a: 3
620ac1: 3
549afd: 3
4714df: 3
6220ef: 3
5493c0: 3
63e670: 3
55ba40: 3
411460: 3
41cc10: 3
49c0e0: 3
55bc40: 3
67c67b: 3
550bc0: 3
680307: 3
47ea60: 3
545042: 3
558d23: 3
55241b: 3
439c05: 3
545947: 3
550241: 3
550c4c: 3
4714b4: 3
67c88c: 3
63eef0: 3
410543: 3
544e62: 3
5432b0: 3
54ff04: 3
41d441: 3
63ef00: 3
6806af: 3
550201: 3
49815f: 3
67c661: 3
67cc81: 3
5557ef: 3
4714a7: 3
61cef0: 3
67cf86: 3
680286: 3
67cf4e: 3
67ceeb: 3
546960: 3
5458c0: 3
681460: 3
61cf00: 3
67c33b: 3
67c280: 3
68102b: 3
680f80: 3
680f1c: 3
552686: 3
67c7c7: 3
67c76c: 3
55bc80: 3
54ff9a: 3
6802fd: 3
447960: 3
544c81: 3
552c80: 3
61d108: 3
549ec9: 3
51a802: 3
549f7c: 3
620ad3: 4
546b30: 4
622591: 4
55c010: 4
555f40: 4
55233a: 4
5463e0: 4
545341: 4
4714ac: 4
4123c0: 4
544fc0: 4
54eec1: 4
556302: 4
622083: 4
5592d2: 4
550505: 4
549cd5: 4
4113c4: 4
550ecd: 4
4e0580: 4
550c80: 4
55bb41: 4
54cae0: 4
544ec4: 4
549f83: 4
549d13: 4
55c0cc: 4
501cbe: 4
549f70: 4
5592a0: 4
47e640: 4
549f00: 4
54971f: 4
54a650: 4
546502: 4
51a680: 4
416300: 5
4117f3: 5
621183: 5
559340: 5
559300: 5
411c7a: 5
411804: 5
63f5c0: 5
63e661: 5
621175: 5
558320: 5
558342: 5
558426: 5
4ebb8b: 5
5453c6: 5
4c8508: 5
63f5b0: 5
416f03: 5
6222b1: 5
550f8e: 5
55bac3: 5
546ad0: 5
64e150: 5
558cf0: 5
546b90: 5
63e640: 5
546b50: 5
55b752: 5
62207f: 6
63faf0: 6
55bf60: 6
549c81: 6
54531d: 6
445142: 6
549fa0: 6
44416b: 6
622641: 6
49bfab: 6
550d38: 6
545080: 6
6223e0: 6
55bf83: 7
546607: 7
55beb5: 7
5505f1: 7
552603: 7
550e40: 7
55010d: 7
6223dc: 7
554ab7: 7
553440: 7
4ea002: 7
550b40: 7
5505ce: 8
47ea80: 8
433f40: 8
49bf40: 8
549390: 8
550eb0: 8
545247: 8
54eeb0: 8
55be45: 9
51a630: 9
412640: 9
550b86: 9
550bb3: 9
64e1d0: 9
550608: 9
555b45: 9
555b80: 10
4ebfa0: 10
620b3f: 10
4c269a: 10
55baa0: 10
410641: 10
55bad3: 10
6292d0: 10
5498b1: 10
507650: 10
4c2660: 10
558c2c: 11
5465c0: 11
55833c: 11
641120: 11
620b35: 11
545283: 11
558c3d: 11
552470: 12
55b187: 12
552130: 12
552282: 12
554a84: 12
5453bb: 13
55bb46: 13
559488: 13
620aff: 13
5502c1: 13
49c100: 14
434103: 14
620ae0: 14
5012c3: 14
5522cd: 14
4ebf82: 14
41d490: 14
621e95: 14
5465b0: 15
544f9e: 15
501300: 15
55bba0: 15
546401: 15
555f83: 15
620b09: 15
54510b: 15
545000: 15
546640: 15
544f08: 15
550005: 15
629304: 16
544b74: 16
549490: 16
471481: 16
550542: 16
47eac0: 17
54ab40: 17
4c2586: 17
550f40: 17
6225c0: 17
550591: 17
550a80: 17
5504bd: 17
550f84: 17
544b81: 17
550280: 17
54eedc: 18
62228f: 18
54ef00: 18
550400: 18
550f03: 18
620ab7: 18
501280: 18
41cc22: 18
54aa80: 18
5012ed: 18
5012f6: 18
4ebaf4: 18
4ebb63: 18
555f06: 18
629282: 18
555a84: 18
4e0578: 19
49bf82: 19
51a641: 19
51a66d: 19
471411: 19
43ad21: 19
5012bc: 19
55044a: 19
5507b5: 19
55b745: 19
550114: 20
555540: 20
620aa5: 20
412110: 20
623f00: 20
620aad: 21
5555c3: 21
51a684: 21
550010: 21
4712c4: 21
443f82: 21
622010: 21
5525c4: 21
54ff8c: 23
55067b: 24
621fc8: 24
55842d: 24
4712b7: 24
621f84: 25
622581: 25
621f42: 25
622190: 26
47d477: 26
552120: 26
4ebaeb: 27
444186: 27
4ebf7c: 27
64e1e0: 28
555da8: 28
47d5c0: 30
621e83: 33
64e160: 33
621440: 35
550027: 35
400640: 35
550075: 35
621fdb: 36
555f8f: 37
55564d: 37
559440: 37
410598: 37
400580: 38
629270: 39
5525ac: 40
43b430: 41
543401: 42
544c9b: 43
555f27: 43
54fff8: 44
47d53a: 48
55214d: 48
623f34: 48
4ebae4: 49
55b7b0: 49
53f480: 50
621ec1: 51
623f20: 51
41072e: 53
5507d2: 54
5525f5: 54
549030: 54
47d596: 56
621e1e: 57
63fb0d: 57
622002: 58
556420: 58
54f002: 59
41cc4c: 60
556027: 60
55b6fe: 60
620980: 61
416e91: 61
53e1b9: 61
556079: 62
550853: 62
62096e: 62
444004: 62
552482: 63
620d89: 65
550091: 65
41cc4f: 65
5511ce: 66
43b43b: 66
62201f: 68
620a3f: 68
54c958: 69
4e9fc4: 69
43b438: 70
4441a6: 70
47e5da: 70
4712bc: 71
62093b: 72
548420: 73
545481: 73
620961: 74
621dee: 75
43b8f6: 78
544907: 78
63e5fa: 78
621f26: 81
550144: 81
62257c: 82
4ebac0: 82
4c2667: 82
555f38: 84
4ea048: 85
5524a0: 88
4ea0c7: 89
433f36: 91
623f09: 92
506f34: 92
548440: 95
47d480: 95
552142: 98
4ebf30: 99
624580: 100
49c1b0: 100
552598: 101
545140: 102
47d608: 102
444197: 103
506f20: 105
55115d: 109
47e5a0: 110
5549c3: 110
4713b5: 111
552411: 116
556495: 117
44415f: 119
53f5b0: 123
55003d: 130
49c1c2: 130
555400: 132
47d3b5: 132
411ac2: 135
64cac3: 137
550191: 137
55548c: 138
444140: 140
55b176: 141
41cc70: 144
55b1c0: 144
544914: 146
621435: 153
64cb03: 154
558405: 154
443f00: 155
55214a: 156
54547e: 160
555bb1: 162
411b01: 162
444178: 167
55b1e5: 168
412180: 174
55100a: 182
558441: 183
54ff23: 184
444180: 185
552440: 187
5451c1: 189
4441eb: 190
555afa: 197
4ebb04: 201
555b04: 205
507581: 205
47d430: 207
550140: 209
55b6eb: 209
444216: 211
550b25: 217
6225ab: 219
416eb9: 224
5525eb: 234
556275: 234
50754a: 237
554ac0: 238
544acf: 244
4117af: 245
41d1f7: 246
552252: 247
4441c1: 252
550965: 255
4441d5: 257
4713bc: 263
5521c1: 263
629184: 265
5501c2: 271
63e5f6: 272
6225da: 273
4441ba: 313
55b160: 328
629170: 366
444028: 387
62919a: 409
4713a9: 416
55218c: 491
545190: 499
6408a3: 509
555bbb: 559
5125d4: 631
44512a: 678
55bb22: 687
4713a4: 707
4ea00b: 766
544edb: 777
443ff4: 782
5583d5: 832
545380: 881
552274: 981
4441ae: 984
552270: 1010
5525be: 1026
54515b: 1028
4712ab: 1028
5524d8: 1028
411780: 1030
54490e: 1030
5524c9: 1030
4441c7: 1039
623f81: 1045
550931: 1171
55bb00: 1188
552182: 1263
545370: 1298
471398: 1516
5555bc: 1603
5507ee: 1768
555d9d: 1805
411afa: 2383
411aac: 2386
62241f: 2401
549100: 2411
41055f: 2447
411c4a: 2519
44427d: 2569
55bb37: 2605
54c9b1: 2659
6291b5: 2837
55039d: 2909
550397: 3062
545180: 3143
411b0d: 3158
555f7c: 3282
555f2e: 3293
411c3e: 3358
411c5f: 3548
4ebf44: 3572
6291bb: 3612
6291c1: 4290
416e8e: 4434
621e9a: 4478
550b49: 4805
4105d4: 4830
445148: 4888
47d45d: 4890
41053f: 4963
549370: 5015
4450fb: 5023
555b54: 5046
550ab2: 5046
555b1a: 5141
621ea4: 5167
4168b0: 5378
47eb9a: 5427
4ebb70: 5468
62200b: 7026
4ebe6b: 7149
5555a4: 8058
4712af: 8086
6408a0: 8377
47136d: 9333
41d1f4: 9458
5507af: 9522
554a73: 9525
555f5c: 9642
471366: 9702
41054e: 9974
621e17: 10360
507571: 10727
49c1ec: 10919
4168cb: 11391
412730: 11960
4168b4: 12804
410737: 13133
555f6d: 13237
41191a: 13246
4ebf40: 13274
4ebf76: 13290
433dff: 13589
62094f: 15935
620a5d: 16162
41cc78: 16561
55bb1e: 16759
433def: 17758
416e84: 17956
55bb33: 18043
4340f0: 18530
41218b: 20298
555b34: 20303
550a73: 20308
55b173: 20337
416eb6: 20516
4ea01d: 22200
444020: 22264
47d453: 22830
620aeb: 24671
622407: 25218
471394: 25664
41195a: 27244
471359: 27633
47135d: 27730
4168ba: 30229
5124e1: 30565
416eb3: 33583
416e72: 34412
47e5d4: 37850
41cc81: 40075
624599: 43966
4ec000: 46147
54fe9b: 49315
416ef9: 51304
550ff8: 58485
54fefc: 59060
4ea019: 77377
55bb13: 86735
4e9fc1: 88227
5432c8: 89644
47133d: 95520
471351: 136454
47134d: 163148
PSCL5 TOTAL     ACCESS:     855356  HIT:     855356  MISS:          0  HIT %:        100  MISS %:          0   MPKI: 0
PSCL5 Test counter:          0
PSCL5 LOAD TRANSLATION ACCESS:     855353  HIT:     855353  MISS:          0  HIT %:        100  MISS %:          0   MPKI: 0
PSCL5 TRANSLATION FROM L1D PREFETCHER ACCESS:          3  HIT:          3  MISS:          0  HIT %:        100  MISS %:          0   MPKI: 0
PSCL5 PREFETCH  REQUESTED:          0  ISSUED:          0  USEFUL:          0  USELESS:          0
PSCL5 USEFUL LOAD PREFETCHES:          0 PREFETCH ISSUED TO LOWER LEVEL:          0  ACCURACY: -nan
PSCL5 TIMELY PREFETCHES:          0 LATE PREFETCHES: 0 DROPPED PREFETCHES: 0
PSCL5 COMMIT LATE PREFETCHES: 0 MISSED OPPORTUNITY: 0 LATE IN PQ: 0 UNCOVERED: 0
PSCL5 COMMIT LATE MSHR PREFETCHES: 0
PSCL5 MPKI TOTAL: 0 MSHR LATE: 0 PQ LATE: 0 COMMIT LATE: 0 MISSED OPPORTUNITY: 0 UNCOVERED: 0
PSCL5 PREFETCHES SAME FILL-ORIGIN LEVEL: 0 DIFFERENT FILL-ORIGIN LEVEL: 0

PSCL4 TOTAL     ACCESS:     855356  HIT:     855356  MISS:          0  HIT %:        100  MISS %:          0   MPKI: 0
PSCL4 Test counter:          0
PSCL4 LOAD TRANSLATION ACCESS:     855353  HIT:     855353  MISS:          0  HIT %:        100  MISS %:          0   MPKI: 0
PSCL4 TRANSLATION FROM L1D PREFETCHER ACCESS:          3  HIT:          3  MISS:          0  HIT %:        100  MISS %:          0   MPKI: 0
PSCL4 PREFETCH  REQUESTED:          0  ISSUED:          0  USEFUL:          0  USELESS:          0
PSCL4 USEFUL LOAD PREFETCHES:          0 PREFETCH ISSUED TO LOWER LEVEL:          0  ACCURACY: -nan
PSCL4 TIMELY PREFETCHES:          0 LATE PREFETCHES: 0 DROPPED PREFETCHES: 0
PSCL4 COMMIT LATE PREFETCHES: 0 MISSED OPPORTUNITY: 0 LATE IN PQ: 0 UNCOVERED: 0
PSCL4 COMMIT LATE MSHR PREFETCHES: 0
PSCL4 MPKI TOTAL: 0 MSHR LATE: 0 PQ LATE: 0 COMMIT LATE: 0 MISSED OPPORTUNITY: 0 UNCOVERED: 0
PSCL4 PREFETCHES SAME FILL-ORIGIN LEVEL: 0 DIFFERENT FILL-ORIGIN LEVEL: 0

PSCL3 TOTAL     ACCESS:     855356  HIT:     855356  MISS:          0  HIT %:        100  MISS %:          0   MPKI: 0
PSCL3 Test counter:          0
PSCL3 LOAD TRANSLATION ACCESS:     855353  HIT:     855353  MISS:          0  HIT %:        100  MISS %:          0   MPKI: 0
PSCL3 TRANSLATION FROM L1D PREFETCHER ACCESS:          3  HIT:          3  MISS:          0  HIT %:        100  MISS %:          0   MPKI: 0
PSCL3 PREFETCH  REQUESTED:          0  ISSUED:          0  USEFUL:          0  USELESS:          0
PSCL3 USEFUL LOAD PREFETCHES:          0 PREFETCH ISSUED TO LOWER LEVEL:          0  ACCURACY: -nan
PSCL3 TIMELY PREFETCHES:          0 LATE PREFETCHES: 0 DROPPED PREFETCHES: 0
PSCL3 COMMIT LATE PREFETCHES: 0 MISSED OPPORTUNITY: 0 LATE IN PQ: 0 UNCOVERED: 0
PSCL3 COMMIT LATE MSHR PREFETCHES: 0
PSCL3 MPKI TOTAL: 0 MSHR LATE: 0 PQ LATE: 0 COMMIT LATE: 0 MISSED OPPORTUNITY: 0 UNCOVERED: 0
PSCL3 PREFETCHES SAME FILL-ORIGIN LEVEL: 0 DIFFERENT FILL-ORIGIN LEVEL: 0

PSCL2 TOTAL     ACCESS:     855356  HIT:     501070  MISS:     354286  HIT %:    58.5803  MISS %:    41.4197   MPKI: 1.77143
PSCL2 Test counter:          0
PSCL2 LOAD TRANSLATION ACCESS:     855356  HIT:     501070  MISS:     354286  HIT %:    58.5803  MISS %:    41.4197   MPKI: 1.77143
PSCL2 PREFETCH  REQUESTED:          0  ISSUED:          0  USEFUL:          0  USELESS:          0
PSCL2 USEFUL LOAD PREFETCHES:          0 PREFETCH ISSUED TO LOWER LEVEL:          0  ACCURACY: -nan
PSCL2 TIMELY PREFETCHES:          0 LATE PREFETCHES: 0 DROPPED PREFETCHES: 0
PSCL2 COMMIT LATE PREFETCHES: 0 MISSED OPPORTUNITY: 0 LATE IN PQ: 0 UNCOVERED: 0
PSCL2 COMMIT LATE MSHR PREFETCHES: 0
PSCL2 MPKI TOTAL: 0 MSHR LATE: 0 PQ LATE: 0 COMMIT LATE: 0 MISSED OPPORTUNITY: 0 UNCOVERED: 0
PSCL2 PREFETCHES SAME FILL-ORIGIN LEVEL: 0 DIFFERENT FILL-ORIGIN LEVEL: 0

LLC TOTAL     ACCESS:    4304606  HIT:    2291395  MISS:    2013211  HIT %:    53.2312  MISS %:    46.7688   MPKI: 10.0661
LLC Test counter:          0
LLC LOAD      ACCESS:    2169834  HIT:     527670  MISS:    1642164  HIT %:    24.3185  MISS %:    75.6815   MPKI: 8.21082
LLC RFO       ACCESS:     345187  HIT:     170551  MISS:     174636  HIT %:    49.4083  MISS %:    50.5917   MPKI: 0.87318
LLC PREFETCH  ACCESS:      64775  HIT:      13321  MISS:      51454  HIT %:     20.565  MISS %:     79.435   MPKI: 0.25727
LLC WRITEBACK ACCESS:    1271190  HIT:    1266700  MISS:       4490  HIT %:    99.6468  MISS %:   0.353212   MPKI: 0.02245
LLC LOAD TRANSLATION ACCESS:     453614  HIT:     313153  MISS:     140461  HIT %:    69.0351  MISS %:    30.9649   MPKI: 0.702305
LLC TRANSLATION FROM L1D PREFETCHER ACCESS:          6  HIT:          0  MISS:          6  HIT %:          0  MISS %:        100   MPKI: 3e-05
LLC PREFETCH  REQUESTED:          0  ISSUED:          0  USEFUL:       1208  USELESS:      50192
LLC USEFUL LOAD PREFETCHES:       1208 PREFETCH ISSUED TO LOWER LEVEL:      51454  ACCURACY: 2.34773
LLC TIMELY PREFETCHES:       1208 LATE PREFETCHES: 0 DROPPED PREFETCHES: 0
LLC COMMIT LATE PREFETCHES: 0 MISSED OPPORTUNITY: 0 LATE IN PQ: 0 UNCOVERED: 0
LLC COMMIT LATE MSHR PREFETCHES: 0
LLC MPKI TOTAL: 8.21082 MSHR LATE: 0 PQ LATE: 0 COMMIT LATE: 0 MISSED OPPORTUNITY: 0 UNCOVERED: 0
LLC PREFETCHES SAME FILL-ORIGIN LEVEL: 0 DIFFERENT FILL-ORIGIN LEVEL: 0
LLC AVERAGE MISS LATENCY: 164.404 cycles
LLC AVERAGE MISS LATENCY LOAD: 163.642 cycles
LLC AVERAGE MISS LATENCY PREFETCH: 164.465 cycles
LLC AVERAGE MSHR OCCUPANCY: 0.366962
LLC MSHR FULL: 0
LLC RQ	ACCESS:    2968643	FORWARD:          0	MERGED:          0	TO_CACHE:    2968641
LLC WQ	ACCESS:    1271190	FORWARD:          2	MERGED:          0	TO_CACHE:    1271190
LLC PQ	ACCESS:      64775	FORWARD:          0	MERGED:          0	TO_CACHE:      64775

LLC Dense regions hint to LLC: 0
59068b: 1
4c7044: 1
6814e2: 1
4c8dc1: 1
4c8d53: 1
622042: 1
4c8d01: 1
4c79c9: 1
4c8923: 1
59071d: 1
590696: 1
4c8703: 1
5504c0: 1
558e89: 1
507688: 1
519a81: 1
4c8740: 1
555804: 1
519a46: 1
519a30: 1
590680: 1
4ccea2: 1
4cce40: 1
558dc0: 1
4c86bf: 1
4c74c0: 1
4c703e: 1
558d53: 1
6210ef: 1
549fb0: 1
4e0583: 1
558b46: 1
558ad6: 1
680e22: 1
558b0a: 1
550114: 1
558ac4: 1
55bf41: 1
63e680: 1
4714bb: 1
445101: 1
558d40: 1
558d2d: 1
498162: 1
558d02: 1
4c7020: 1
549b73: 1
4c7067: 1
4c7086: 1
511a8f: 1
511c80: 1
511c10: 1
511a50: 1
4c868c: 1
4c7697: 1
61d150: 1
4c86c4: 1
629241: 1
545242: 1
680de2: 1
412400: 1
558d80: 1
545870: 1
4cd010: 1
549774: 1
4c8db1: 1
550d44: 1
4cd041: 1
4c8500: 1
552753: 1
4c2680: 1
55bc90: 1
501d8c: 1
5906e0: 1
558c20: 1
4cced6: 1
553cac: 1
449d70: 1
549d02: 1
54a71e: 1
498180: 1
410748: 1
552c90: 1
555f38: 1
558a8b: 1
511a84: 1
558c41: 1
54975c: 1
4c8cd0: 1
550c0a: 1
498140: 1
680e01: 1
5525f5: 1
558cce: 1
4cce4f: 1
4cce59: 1
63f7f5: 1
558ec2: 1
501d02: 1
511c40: 1
498148: 1
558cc1: 1
55b280: 1
55bbe0: 1
511ce1: 1
550083: 1
511c1a: 1
545902: 1
4ea360: 1
55214a: 1
4c7a42: 1
623f65: 1
620a82: 1
498169: 1
54ca83: 1
55bd83: 1
552ad0: 1
545942: 1
552703: 1
55bdf9: 1
4c8937: 1
67cda3: 1
67cd4f: 1
67cd04: 1
4e0570: 1
47d4b7: 1
5494b0: 1
67c748: 1
55bf30: 1
6220c0: 1
443f6c: 1
620961: 1
622682: 1
4117c0: 1
555da8: 1
550942: 1
47d471: 1
550091: 1
55bf64: 1
4441a6: 1
6220e6: 1
55bd10: 1
408910: 1
410754: 1
558e90: 1
558a41: 1
553cc0: 1
553c80: 1
41241d: 1
55bc01: 1
629200: 1
621ffe: 1
556500: 1
556d4b: 1
558ca2: 1
501d6e: 1
411801: 1
501cc2: 1
55bd50: 1
54cad0: 1
550338: 1
556dc0: 1
556d8f: 1
621100: 1
555a70: 1
550690: 1
4c7a04: 1
549ee8: 1
4c74d9: 1
549d41: 1
41d437: 1
54a680: 1
55be88: 1
620e58: 1
629184: 1
4e057c: 1
549700: 1
550a40: 1
544c60: 1
55bcc1: 1
556067: 1
620b82: 2
6222b1: 2
550d38: 2
622591: 2
556fc1: 2
4712b7: 2
558d88: 2
54c8a0: 2
556e40: 2
64caa6: 2
549cc1: 2
5571c1: 2
61d146: 2
556e5c: 2
4ebfa0: 2
41066e: 2
553340: 2
556f42: 2
549bc2: 2
557002: 2
4714a7: 2
61d807: 2
556fb0: 2
4c2570: 2
556f4d: 2
4c8516: 2
550b25: 2
68021d: 2
556f19: 2
4c79fa: 2
41242d: 2
4ea0bd: 2
615826: 2
67ce80: 2
64e150: 2
54ff84: 2
557190: 2
4cce80: 2
67ca58: 2
55241b: 2
550853: 2
61d900: 2
4c862b: 2
55bebd: 2
555bb1: 2
47128d: 2
53f48a: 2
6222c1: 2
61ec00: 2
55008b: 2
4714ac: 2
61d881: 2
546b30: 2
471411: 2
55bec1: 2
41077b: 2
548301: 2
549adf: 2
544beb: 2
549f00: 2
412200: 2
67c520: 2
558a37: 2
556dfe: 2
6170c4: 2
412417: 2
55bed0: 2
5498c3: 2
61d842: 2
67ccc1: 2
556e38: 2
549881: 2
555ec1: 2
549c70: 2
555fc7: 2
556ec2: 2
54ff6a: 2
556e80: 2
4ea0c4: 2
553500: 2
550341: 2
54efe0: 2
55bb41: 2
552bd0: 2
557041: 2
412442: 2
4340c1: 2
67c681: 2
67c843: 2
501cb0: 2
443870: 2
54c8c4: 2
622620: 2
67c801: 2
556dd4: 2
549f7c: 2
67c880: 2
556cc0: 2
443880: 2
55100a: 2
412241: 2
548570: 2
55bcd0: 2
548582: 2
68024f: 2
620ac1: 2
5500c0: 2
549870: 2
551001: 2
556281: 2
411ba0: 2
55b73b: 2
68062a: 2
61d040: 2
552c80: 3
5458c0: 3
549ace: 3
67c33b: 3
61d7e0: 3
67c310: 3
439c05: 3
545042: 3
47ea60: 3
550201: 3
67c67b: 3
68102b: 3
550bc0: 3
43b442: 3
67c280: 3
41cc10: 3
4113c4: 3
549b40: 3
680307: 3
545947: 3
549fc1: 3
549a7b: 3
544c81: 3
558d23: 3
55c010: 3
41d410: 3
51a7f1: 3
67c661: 3
4c269a: 3
49c0e0: 3
67cc4f: 3
555b04: 3
6802fd: 3
54976a: 3
62201f: 3
61d0d3: 3
54cae0: 3
550241: 3
54971f: 3
55ba40: 3
51a802: 3
549afd: 3
67ce6f: 3
67cc81: 3
411482: 3
546960: 3
55bf00: 3
6806af: 3
411460: 3
61ec70: 3
546b50: 3
67c544: 3
5493c0: 3
61d108: 3
4123c0: 3
447960: 3
67c76c: 3
681460: 3
41d441: 3
471501: 3
4ebb8b: 3
63eef0: 3
410543: 3
67c885: 3
61cf00: 3
445142: 3
549ec9: 3
544e62: 3
5432b0: 3
549d13: 3
54ff04: 3
51a843: 3
67c88c: 3
41d422: 3
549b03: 3
54cb10: 3
549f70: 3
63e670: 3
61ec81: 3
550cc3: 3
67c7c7: 3
549a83: 3
6157d0: 3
67c340: 3
639783: 3
549b81: 3
55bc40: 3
49815f: 3
680f68: 3
5501c2: 3
680f80: 3
55bc80: 3
551090: 3
5557ef: 3
558e48: 3
54a500: 3
620ad3: 3
61d081: 3
617080: 3
67c5c0: 3
5507d2: 3
67cf4e: 3
622641: 3
55c0cc: 3
617100: 3
67ceeb: 3
545882: 3
680599: 3
680286: 3
6220ef: 3
67cf86: 3
67c788: 3
622010: 3
5507c0: 3
556344: 3
67c585: 3
61cef0: 3
47e5c0: 3
6223e0: 3
550c4c: 3
55c020: 3
552686: 3
550ac4: 3
680f1c: 3
63ef00: 3
501cbe: 4
558342: 4
550c80: 4
550ecd: 4
552482: 4
411804: 4
51a680: 4
559300: 4
55233a: 4
63e640: 4
4117f3: 4
63f5b0: 4
55bac3: 4
558320: 4
549f83: 4
544fc0: 4
556079: 4
4ebb04: 4
555f40: 4
549fa0: 4
556302: 4
54eec1: 4
546b90: 4
54a650: 4
552142: 4
63e661: 4
5592a0: 4
416f03: 4
5463e0: 4
5521c1: 4
4e0580: 4
622083: 4
544ec4: 4
550505: 4
5507b5: 4
5592d2: 4
546502: 4
63f5c0: 4
47e640: 4
55b752: 4
549cd5: 4
55b160: 4
545341: 4
5453c6: 4
545080: 5
411c7a: 5
559340: 5
546ad0: 5
621175: 5
444180: 5
558cf0: 5
4c8508: 5
621183: 5
620b35: 5
55bf60: 5
549c81: 5
55003d: 5
62207f: 5
552130: 5
416300: 5
558441: 5
554ab7: 6
54531d: 6
63faf0: 6
55010d: 6
410641: 6
49bfab: 6
4ea002: 6
6223dc: 6
621e1e: 6
553440: 6
64e1d0: 6
55bf83: 6
546607: 7
555b45: 7
4712c4: 7
5505ce: 7
412640: 7
55beb5: 7
550e40: 7
5524a0: 7
552603: 7
552282: 7
5505f1: 7
552440: 7
550b40: 7
41072e: 7
621e95: 7
433f40: 8
550b86: 8
545247: 8
550eb0: 8
47ea80: 8
507581: 8
54c958: 8
49bf40: 8
554a84: 8
54eeb0: 8
507650: 8
550bb3: 8
55b745: 8
55be45: 8
54ff23: 9
550608: 9
6292d0: 9
641120: 9
55bb46: 9
4c2660: 9
555b80: 9
51a630: 9
5498b1: 10
621ec1: 10
550140: 10
554ac0: 10
62093b: 10
443f00: 10
55b187: 10
55bad3: 10
4441c1: 10
555f06: 10
555afa: 10
5525ac: 10
545283: 10
55baa0: 10
47d608: 10
558c2c: 11
620aff: 11
54547e: 11
4ebf7c: 11
5549c3: 11
5465c0: 11
558c3d: 11
544c9b: 11
545000: 12
54ab40: 12
5504bd: 12
54ef00: 12
550400: 12
471481: 12
550f84: 12
550f03: 12
47eac0: 12
544acf: 12
41d490: 12
550f40: 12
434103: 12
620ae0: 12
49c100: 12
550280: 12
4c2586: 12
559488: 12
54aa80: 12
55b1e5: 12
623f34: 12
4ebf82: 12
623f00: 12
544f9e: 13
64cb03: 13
4ebaf4: 13
54510b: 13
546640: 13
5012f6: 13
5502c1: 13
549490: 13
5012bc: 13
54eedc: 13
5465b0: 13
620980: 13
555d9d: 13
55044a: 13
621e83: 13
43ad21: 13
5453bb: 13
501280: 13
41cc22: 13
555a84: 13
6225c0: 13
546401: 13
51a641: 13
55bba0: 13
544f08: 13
550591: 13
51a66d: 13
5555c3: 13
620b09: 14
620aa5: 14
621f84: 14
544914: 14
555f27: 14
555f83: 14
443f82: 14
629304: 14
620ab7: 14
556495: 14
55842d: 14
501300: 14
412110: 14
621f42: 14
5012c3: 14
5525c4: 14
544b74: 14
5012ed: 14
62228f: 14
550a80: 14
64e160: 14
550542: 14
49bf82: 14
5451c1: 14
5522cd: 14
4ebb63: 14
629282: 14
47d430: 15
552120: 15
555540: 15
49c1c2: 15
558405: 15
552411: 15
64e1e0: 15
622581: 15
544b81: 15
555400: 16
629270: 16
51a684: 16
550027: 17
620aad: 17
622190: 17
5507ee: 18
545140: 18
412180: 18
53f5b0: 18
55115d: 18
544907: 18
55564d: 19
55067b: 19
55548c: 19
4e0578: 19
552598: 19
47d53a: 19
55214d: 19
4ebac0: 19
621fdb: 19
556420: 20
54ff8c: 20
550191: 20
43b438: 20
621fc8: 20
47d5c0: 20
620d89: 20
5511ce: 20
400640: 20
621dee: 20
550075: 20
411b01: 21
410598: 21
411ac2: 21
54fff8: 21
47d477: 21
62096e: 21
4712bc: 22
43b8f6: 22
621440: 22
555f8f: 23
47e5a0: 23
545481: 25
506f20: 25
47e5da: 25
444140: 25
4ebf30: 25
559440: 26
4ea0c7: 26
47d596: 26
549030: 26
4ebaeb: 26
49c1b0: 27
556027: 27
400580: 27
4e9fc4: 28
55b6fe: 28
548440: 28
43b43b: 28
64cac3: 29
622002: 29
41cc4c: 29
623f20: 30
47d3b5: 30
444004: 30
53f480: 30
543401: 30
4ea048: 31
620a3f: 31
623f09: 31
53e1b9: 32
433f36: 32
54f002: 32
43b430: 32
621f26: 32
63fb0d: 32
41cc4f: 33
41cc70: 34
63e5fa: 34
506f34: 34
55b7b0: 35
548420: 35
55b176: 36
416e91: 37
621435: 38
47d480: 39
4441eb: 42
4ebae4: 44
4713b5: 46
444197: 47
624580: 51
4c2667: 52
62257c: 55
63e5f6: 56
416eb9: 67
4117af: 67
62919a: 70
55b1c0: 70
444028: 71
41d1f7: 74
50754a: 75
556275: 77
4ebe6b: 78
6225da: 80
55b6eb: 84
6225ab: 126
4713bc: 148
55039d: 156
550397: 158
4712ab: 164
4713a9: 173
5525eb: 220
4441d5: 224
552252: 235
623f81: 250
550965: 252
4441ba: 275
5125d4: 341
471398: 421
4713a4: 450
55218c: 472
545190: 489
6408a3: 507
555bbb: 549
44512a: 662
55bb22: 675
62241f: 709
443ff4: 746
544edb: 747
4ea00b: 758
5583d5: 819
545380: 871
4441ae: 875
5525be: 911
4441c7: 935
5524d8: 937
552274: 942
411780: 966
54490e: 979
55bb00: 979
552270: 983
5524c9: 986
552182: 986
54515b: 996
621e9a: 998
62200b: 1142
550931: 1161
411aac: 1192
549100: 1194
411afa: 1233
41055f: 1243
545370: 1285
5555bc: 1391
54c9b1: 1426
6291b5: 1503
621ea4: 1699
411c4a: 1761
4712af: 1794
411b0d: 1984
47eb9a: 2275
4105d4: 2395
44427d: 2529
55bb37: 2562
41053f: 2569
411c5f: 2761
545180: 2999
555f2e: 3064
555f7c: 3066
621e17: 3105
411c3e: 3295
4ebf44: 3373
6291bb: 3572
47d45d: 3583
6291c1: 3978
416e8e: 4344
622407: 4594
550b49: 4742
5507af: 4818
4450fb: 4834
445148: 4837
549370: 4908
550ab2: 4970
555b54: 4992
555b1a: 5059
41054e: 5082
4168b0: 5277
47136d: 5325
4ebb70: 5355
41191a: 5357
471366: 5446
49c1ec: 5796
412730: 6843
5555a4: 7384
6408a0: 8210
41d1f4: 8339
507571: 8372
416eb6: 8729
555f5c: 9159
554a73: 9421
41cc78: 10285
4168cb: 10800
4168b4: 12487
4ebf40: 12493
410737: 12900
4ebf76: 12954
555f6d: 12973
433dff: 13393
471394: 13759
62094f: 15596
620a5d: 15806
55bb1e: 16374
433def: 17427
55bb33: 17605
416e84: 17683
4340f0: 18257
47135d: 18704
471359: 18809
55b173: 19913
41218b: 19958
550a73: 19987
555b34: 20075
5124e1: 20414
47d453: 21304
444020: 21419
4ea01d: 21886
4168ba: 22128
47e5d4: 22661
620aeb: 24246
41195a: 26360
41cc81: 32725
416eb3: 32813
416e72: 33734
47133d: 33955
54fe9b: 34783
4ec000: 37090
550ff8: 37890
54fefc: 38385
624599: 43224
416ef9: 50608
471351: 69562
4ea019: 76359
47134d: 83491
55bb13: 85629
4e9fc1: 87203
5432c8: 88496

RAW hits: 3209852
Loads Generated: 67448752
Loads sent to L1D: 64238900
Stores Generated: 37118330
Stores sent to L1D: 37118330
Major fault: 0 Minor fault: 47401
Allocated PAGES: 47401
Total Load insts: 79483440
Total Non-spec loads: 27011642
Percentage of speculative loads: 66.016
L1D response latency: 122.066 cycles
Load retirement latency: 186.323 cycles

CPU 0 L1D PC-based stride prefetcher final stats
Degree: 3

DRAM Statistics
 CHANNEL 0
 RQ ROW_BUFFER_HIT:     158340  ROW_BUFFER_MISS:    1850379
 DBUS_CONGESTED:        481
 WQ ROW_BUFFER_HIT:     203499  ROW_BUFFER_MISS:     672550  FULL:          0

 AVG_CONGESTED_CYCLE: 5
 All warmup complete: 2
Channel 0 Bank busy for read cycles: 0
Channel 0 Bank busy for write cycles: 0
Channel 0
Rank 0
0banks busy for read cycles: 529294743
0banks busy for write cycles: 456897
1banks busy for read cycles: 163455826
1banks busy for write cycles: 72035389
2banks busy for read cycles: 37362002
2banks busy for write cycles: 28714515
3banks busy for read cycles: 10345188
3banks busy for write cycles: 10053858
4banks busy for read cycles: 3473283
4banks busy for write cycles: 3023639
5banks busy for read cycles: 209979
5banks busy for write cycles: 842814
6banks busy for read cycles: 80721
6banks busy for write cycles: 241774
7banks busy for read cycles: 46609
7banks busy for write cycles: 65605
8banks busy for read cycles: 63449
8banks busy for write cycles: 12923

CPU 0 Branch Prediction Accuracy: 98.2082% MPKI: 3.72743 Average ROB Occupancy at Mispredict: 35.1589
Branch types
NOT_BRANCH: 158393552 79.1968%
BRANCH_DIRECT_JUMP: 2276304 1.13815%
BRANCH_INDIRECT: 671328 0.335664%
BRANCH_CONDITIONAL: 26768026 13.384%
BRANCH_DIRECT_CALL: 3559126 1.77956%
BRANCH_INDIRECT_CALL: 2386088 1.19304%
BRANCH_RETURN: 5945216 2.97261%
BRANCH_OTHER: 0 0%

DRAM PAGES: 1048576
Allocated PAGES: 47401
