
*** ChampSim Multicore Out-of-Order Simulator ***

Warmup Instructions: 50000000
Simulation Instructions: 200000000
Number of CPUs: 1
LLC sets: 2048
LLC ways: 16
Secure Berti: OFF
Berti: OFF
Berti Fill: OFF
On commit prefetching: OFF
L2 LLC Bypass speculative loads: OFF
Off-chip DRAM Size: 4096 MB Channels: 1 Width: 64-bit Data Rate: 6400 MT/s
CPU 0 runs /home/sumon/secure_berti/Berti_Baseline/../../traces/spec/621.wrf_s-8065B.champsimtrace.xz
.xz
BTB has LRU replacement policy
ITLB has LRU replacement policy
DTLB has LRU replacement policy
STLB has LRU replacement policy
L1I has LRU replacement policy
CPU 0 L1D IP-based stride prefetcher
L1D has LRU replacement policy
L2C has LRU replacement policy
LLC has LRU replacement policy
Heartbeat CPU 0 instructions: 10000002 cycles: 3025180 heartbeat IPC: 3.30559 cumulative IPC: 3.30559 (Simulation time: 0 hr 0 min 20 sec) 
Heartbeat CPU 0 instructions: 20000000 cycles: 6035522 heartbeat IPC: 3.32188 cumulative IPC: 3.31371 (Simulation time: 0 hr 0 min 38 sec) 
Heartbeat CPU 0 instructions: 30000000 cycles: 9020625 heartbeat IPC: 3.34997 cumulative IPC: 3.32571 (Simulation time: 0 hr 0 min 56 sec) 
Heartbeat CPU 0 instructions: 40000003 cycles: 12090600 heartbeat IPC: 3.25736 cumulative IPC: 3.30836 (Simulation time: 0 hr 1 min 14 sec) 
Heartbeat CPU 0 instructions: 50000002 cycles: 15092315 heartbeat IPC: 3.33143 cumulative IPC: 3.31294 (Simulation time: 0 hr 1 min 32 sec) 

Warmup complete CPU 0 instructions: 50000002 cycles: 15092315 (Simulation time: 0 hr 1 min 32 sec) 

Heartbeat CPU 0 instructions: 60000003 cycles: 24690745 heartbeat IPC: 1.04184 cumulative IPC: 1.04184 (Simulation time: 0 hr 1 min 57 sec) 
Heartbeat CPU 0 instructions: 70000003 cycles: 35595429 heartbeat IPC: 0.917037 cumulative IPC: 0.975462 (Simulation time: 0 hr 2 min 17 sec) 
Heartbeat CPU 0 instructions: 80000001 cycles: 45489494 heartbeat IPC: 1.01071 cumulative IPC: 0.986934 (Simulation time: 0 hr 2 min 42 sec) 
Heartbeat CPU 0 instructions: 90000000 cycles: 56218048 heartbeat IPC: 0.932092 cumulative IPC: 0.972627 (Simulation time: 0 hr 3 min 3 sec) 
Heartbeat CPU 0 instructions: 100000000 cycles: 66295428 heartbeat IPC: 0.992321 cumulative IPC: 0.976503 (Simulation time: 0 hr 3 min 30 sec) 
Heartbeat CPU 0 instructions: 110000000 cycles: 76841251 heartbeat IPC: 0.948243 cumulative IPC: 0.971677 (Simulation time: 0 hr 3 min 51 sec) 
Heartbeat CPU 0 instructions: 120000000 cycles: 90556992 heartbeat IPC: 0.729089 cumulative IPC: 0.927586 (Simulation time: 0 hr 4 min 25 sec) 
Heartbeat CPU 0 instructions: 130000002 cycles: 104209435 heartbeat IPC: 0.73247 cumulative IPC: 0.897695 (Simulation time: 0 hr 5 min 3 sec) 
Heartbeat CPU 0 instructions: 140000001 cycles: 117880331 heartbeat IPC: 0.731481 cumulative IPC: 0.875588 (Simulation time: 0 hr 5 min 40 sec) 
Heartbeat CPU 0 instructions: 150000002 cycles: 132621702 heartbeat IPC: 0.678363 cumulative IPC: 0.850851 (Simulation time: 0 hr 6 min 19 sec) 
Heartbeat CPU 0 instructions: 160000000 cycles: 146135661 heartbeat IPC: 0.739975 cumulative IPC: 0.839417 (Simulation time: 0 hr 6 min 47 sec) 
Heartbeat CPU 0 instructions: 170000003 cycles: 159902129 heartbeat IPC: 0.726403 cumulative IPC: 0.828673 (Simulation time: 0 hr 7 min 26 sec) 
Heartbeat CPU 0 instructions: 180000000 cycles: 168465425 heartbeat IPC: 1.16777 cumulative IPC: 0.847606 (Simulation time: 0 hr 7 min 51 sec) 
Heartbeat CPU 0 instructions: 190000001 cycles: 177323824 heartbeat IPC: 1.12887 cumulative IPC: 0.862964 (Simulation time: 0 hr 8 min 17 sec) 
Heartbeat CPU 0 instructions: 200000003 cycles: 186271950 heartbeat IPC: 1.11755 cumulative IPC: 0.876272 (Simulation time: 0 hr 8 min 42 sec) 
Heartbeat CPU 0 instructions: 210000000 cycles: 195078323 heartbeat IPC: 1.13554 cumulative IPC: 0.888958 (Simulation time: 0 hr 9 min 4 sec) 
Heartbeat CPU 0 instructions: 220000000 cycles: 203518233 heartbeat IPC: 1.18485 cumulative IPC: 0.902211 (Simulation time: 0 hr 9 min 29 sec) 
Heartbeat CPU 0 instructions: 230000000 cycles: 214689789 heartbeat IPC: 0.89513 cumulative IPC: 0.901815 (Simulation time: 0 hr 9 min 54 sec) 
Heartbeat CPU 0 instructions: 240000003 cycles: 227382149 heartbeat IPC: 0.787876 cumulative IPC: 0.895003 (Simulation time: 0 hr 10 min 24 sec) 
Heartbeat CPU 0 instructions: 250000000 cycles: 242250255 heartbeat IPC: 0.67258 cumulative IPC: 0.880445 (Simulation time: 0 hr 11 min 0 sec) 
Finished CPU 0 instructions: 200000000 cycles: 227157943 cumulative IPC: 0.880445 (Simulation time: 0 hr 11 min 0 sec) 

ChampSim completed all CPUs

Region of Interest Statistics

CPU 0 cumulative IPC: 0.880445 instructions: 200000000 cycles: 227157943
ITLB TOTAL     ACCESS:   28321266  HIT:   28321121  MISS:        145  HIT %:    99.9995  MISS %: 0.000511983   MPKI: 0.000725
ITLB Test counter:          0
ITLB LOAD TRANSLATION ACCESS:   28321266  HIT:   28321121  MISS:        145  HIT %:    99.9995  MISS %: 0.000511983   MPKI: 0.000725
ITLB PREFETCH  REQUESTED:          0  ISSUED:          0  USEFUL:          0  USELESS:          0
ITLB USEFUL LOAD PREFETCHES:          0 PREFETCH ISSUED TO LOWER LEVEL:          0  ACCURACY: -nan
ITLB TIMELY PREFETCHES:          0 LATE PREFETCHES: 0 DROPPED PREFETCHES: 0
ITLB COMMIT LATE PREFETCHES: 0 MISSED OPPORTUNITY: 0 LATE IN PQ: 0 UNCOVERED: 0
ITLB COMMIT LATE MSHR PREFETCHES: 0
ITLB MPKI TOTAL: 0 MSHR LATE: 0 PQ LATE: 0 COMMIT LATE: 0 MISSED OPPORTUNITY: 0 UNCOVERED: 0
ITLB PREFETCHES SAME FILL-ORIGIN LEVEL: 0 DIFFERENT FILL-ORIGIN LEVEL: 0
ITLB AVERAGE MISS LATENCY: 224.448 cycles
ITLB AVERAGE MISS LATENCY LOAD: -nan cycles
ITLB AVERAGE MISS LATENCY PREFETCH: -nan cycles
ITLB AVERAGE MSHR OCCUPANCY: 1.97731e-06
ITLB MSHR FULL: 0
ITLB RQ	ACCESS:   34421810	FORWARD:          0	MERGED:    6100491	TO_CACHE:   28321319

DTLB TOTAL     ACCESS:   43661437  HIT:   43590212  MISS:      71225  HIT %:    99.8369  MISS %:    0.16313   MPKI: 0.356125
DTLB Test counter:          0
DTLB LOAD TRANSLATION ACCESS:   43661437  HIT:   43590212  MISS:      71225  HIT %:    99.8369  MISS %:    0.16313   MPKI: 0.356125
DTLB PREFETCH  REQUESTED:          0  ISSUED:          0  USEFUL:          0  USELESS:          0
DTLB USEFUL LOAD PREFETCHES:          0 PREFETCH ISSUED TO LOWER LEVEL:          0  ACCURACY: -nan
DTLB TIMELY PREFETCHES:          0 LATE PREFETCHES: 0 DROPPED PREFETCHES: 0
DTLB COMMIT LATE PREFETCHES: 0 MISSED OPPORTUNITY: 0 LATE IN PQ: 0 UNCOVERED: 0
DTLB COMMIT LATE MSHR PREFETCHES: 0
DTLB MPKI TOTAL: 0 MSHR LATE: 0 PQ LATE: 0 COMMIT LATE: 0 MISSED OPPORTUNITY: 0 UNCOVERED: 0
DTLB PREFETCHES SAME FILL-ORIGIN LEVEL: 0 DIFFERENT FILL-ORIGIN LEVEL: 0
DTLB AVERAGE MISS LATENCY: 30.9914 cycles
DTLB AVERAGE MISS LATENCY LOAD: -nan cycles
DTLB AVERAGE MISS LATENCY PREFETCH: -nan cycles
DTLB AVERAGE MSHR OCCUPANCY: 0.00681018
DTLB MSHR FULL: 7.38571e-05
DTLB RQ	ACCESS:   49349399	FORWARD:          0	MERGED:    5646538	TO_CACHE:   43702861

STLB TOTAL     ACCESS:    3364443  HIT:    3348926  MISS:      15517  HIT %:    99.5388  MISS %:   0.461206   MPKI: 0.077585
STLB Test counter:          0
STLB LOAD TRANSLATION ACCESS:      71370  HIT:      55853  MISS:      15517  HIT %:    78.2584  MISS %:    21.7416   MPKI: 0.077585
STLB TRANSLATION FROM L1D PREFETCHER ACCESS:    3293073  HIT:    3293073  MISS:          0  HIT %:        100  MISS %:          0   MPKI: 0
STLB PREFETCH  REQUESTED:          0  ISSUED:          0  USEFUL:          0  USELESS:          0
STLB USEFUL LOAD PREFETCHES:          0 PREFETCH ISSUED TO LOWER LEVEL:          0  ACCURACY: -nan
STLB TIMELY PREFETCHES:          0 LATE PREFETCHES: 0 DROPPED PREFETCHES: 0
STLB COMMIT LATE PREFETCHES: 0 MISSED OPPORTUNITY: 0 LATE IN PQ: 0 UNCOVERED: 0
STLB COMMIT LATE MSHR PREFETCHES: 0
STLB MPKI TOTAL: 0 MSHR LATE: 0 PQ LATE: 0 COMMIT LATE: 0 MISSED OPPORTUNITY: 0 UNCOVERED: 0
STLB PREFETCHES SAME FILL-ORIGIN LEVEL: 0 DIFFERENT FILL-ORIGIN LEVEL: 0
STLB AVERAGE MISS LATENCY: 102.409 cycles
STLB AVERAGE MISS LATENCY LOAD: -nan cycles
STLB AVERAGE MISS LATENCY PREFETCH: -nan cycles
STLB AVERAGE MSHR OCCUPANCY: 0.00780099
STLB MSHR FULL: 0
STLB RQ	ACCESS:    9661517	FORWARD:          0	MERGED:    6297074	TO_CACHE:    3364443

STLB Hit, L1D data hit: 0
STLB Hit, L2C data hit: 0
STLB Hit, LLC data hit: 0
STLB Hit, LLC data miss: 0
STLB STLB hints to L2: 0
L1D TOTAL     ACCESS:   56301655  HIT:   53615691  MISS:    2685964  HIT %:    95.2293  MISS %:    4.77067   MPKI: 13.4298
L1D Test counter:          0
L1D LOAD      ACCESS:   40523506  HIT:   40017742  MISS:     873210  HIT %:    98.7519  MISS %:    1.24808   MPKI: 2.52882
L1D RFO       ACCESS:    7159335  HIT:    6733911  MISS:     425424  HIT %:    94.0578  MISS %:    5.94223   MPKI: 2.12712
L1D PREFETCH  ACCESS:    8618814  HIT:    6864038  MISS:    1754776  HIT %:    79.6402  MISS %:    20.3598   MPKI: 8.77388
L1D PREFETCH  REQUESTED:   20058642  ISSUED:   19508098  USEFUL:    1690609  USELESS:      64157
L1D USEFUL LOAD PREFETCHES:    1690609 PREFETCH ISSUED TO LOWER LEVEL:    2086180  ACCURACY: 81.0385
L1D TIMELY PREFETCHES:    1690609 LATE PREFETCHES: 143871 DROPPED PREFETCHES: 0
L1D COMMIT LATE PREFETCHES: 0 MISSED OPPORTUNITY: 0 LATE IN PQ: 23239 UNCOVERED: 0
L1D COMMIT LATE MSHR PREFETCHES: 0
L1D MPKI TOTAL: 4.36605 MSHR LATE: 0.719355 PQ LATE: 0.116195 COMMIT LATE: 0 MISSED OPPORTUNITY: 0 UNCOVERED: 0
L1D PREFETCHES SAME FILL-ORIGIN LEVEL: 1898796 DIFFERENT FILL-ORIGIN LEVEL: 187384
L1D AVERAGE MISS LATENCY: 135.62 cycles
L1D AVERAGE MISS LATENCY LOAD: 104.676 cycles
L1D AVERAGE MISS LATENCY PREFETCH: 105.504 cycles
L1D AVERAGE MSHR OCCUPANCY: 1.20719
L1D MSHR FULL: 0.0057151
L1D RQ	ACCESS:   60825132	FORWARD:          0	MERGED:   19918525	TO_CACHE:   40890952
L1D WQ	ACCESS:    8497479	FORWARD:      16474	MERGED:      39032	TO_CACHE:    8458447
L1D PQ	ACCESS:    9917951	FORWARD:          0	MERGED:     326985	TO_CACHE:    9590147

L1D UNIQUE REGIONS ACCESSED: 0
L1D REGIONS CONFLICTS: 0
L1D Cross Page Prefetch Requests: 0
L1D Same Page Prefetch Requests: 13693704
L1D ROI Sum of L1D PQ occupancy: 135831111
L1D PREFETCHES PUSHED FROM L2C: 0
f349ea: 1
92d213: 1
f38611: 1
f38601: 1
92fef5: 1
939029: 1
51b006: 1
14f9f58: 1
92cf70: 1
f385f9: 1
518a63: 1
92961e: 1
f34500: 1
9288ec: 1
14f9f50: 1
92d131: 1
14f9f37: 1
926251: 1
4ec78b: 1
8efcbc: 1
52956c: 1
f346c8: 1
92612b: 1
14fbe95: 1
f34a4b: 1
919aa8: 1
512a0c: 1
1515f87: 1
4eb9f6: 1
1513a05: 1
92d426: 1
1517482: 1
f38557: 1
f3859d: 1
f3581f: 1
14f9fe0: 1
9167cd: 1
8ef410: 1
14f9fb0: 1
1517164: 1
8efd8c: 1
924567: 1
1515c48: 1
928811: 1
14fb281: 1
938771: 1
14fa018: 1
14fa04a: 1
14fa074: 1
14fa0ac: 1
5082cb: 1
1511a76: 1
15134c8: 1
4dd6ea: 1
509c8d: 1
1513a51: 1
f38172: 1
4f6c23: 1
9392c3: 1
9307c1: 1
8f0164: 1
f384cf: 1
932639: 1
1515fee: 1
8efb6d: 1
512403: 1
4f6ccb: 1
14f9f70: 1
919ac1: 1
14f9fbe: 1
f359a2: 1
1513929: 1
f346d3: 1
f36129: 1
931440: 1
5123b0: 1
90cc55: 1
4ecaf1: 1
509216: 1
8ef772: 1
5297ed: 1
93245d: 1
931ca1: 1
151529f: 1
166894f: 1
4ecb1c: 1
92f5cd: 1
f38521: 1
5094bc: 1
930fa6: 1
4f6cb4: 1
931019: 1
92377c: 1
f3442a: 1
4db644: 1
8efc2a: 1
14f98dc: 1
1515f5d: 1
931086: 1
f35323: 1
52a670: 1
93901e: 1
928048: 1
927938: 1
8ef3d3: 1
f3835b: 1
92a5f7: 1
92ff4e: 1
92e2d5: 1
4ed231: 1
14fa837: 1
92f425: 1
14fa3a0: 1
92ce6c: 1
939422: 1
92f5bd: 1
14fa115: 1
1513953: 1
14fa1c8: 1
92a04b: 1
51b488: 1
929cb8: 1
9302a4: 1
14fa4b0: 1
f38529: 1
1626253: 1
518816: 1
91b84f: 1
9366ec: 1
928f48: 1
f382e4: 1
15134d0: 1
14fa010: 1
f38515: 1
14fbebf: 1
93235c: 1
92fed3: 1
92fee2: 1
51227b: 1
4db951: 1
f383c9: 1
8efd1c: 1
8efebb: 1
8efdf6: 1
92d1be: 1
f36673: 1
8ef456: 1
924174: 1
8efd5c: 1
8ef855: 1
8efeae: 1
8efef6: 1
508cb8: 1
8ef2a7: 1
8ef2e4: 1
8ef31d: 1
f3533a: 1
8efb06: 1
51b018: 1
14fbe80: 1
14f9918: 1
15138d5: 1
15139a7: 1
1515ca5: 1
15139fd: 1
1515d3a: 1
8f0018: 1
f2fae4: 1
14f9bee: 1
4f6d64: 1
91ad75: 1
b478c9: 1
8efb23: 1
924537: 1
1515fc4: 1
1515f4d: 1
8f0186: 1
1515f7f: 1
92f3bc: 1
14faa3a: 1
14faa6c: 1
14faa9c: 1
1515fb4: 1
f36298: 1
14f9900: 1
1515fe6: 1
15163eb: 1
4f70b7: 1
4ec732: 1
14f9fb8: 1
f38070: 1
8ef790: 1
16262ba: 1
8ef4b2: 1
8ef4e3: 1
926259: 1
8ef538: 1
8ef60a: 1
8ef79d: 1
151394b: 1
9251b4: 1
8f0075: 1
15139eb: 1
8ef830: 1
f3488f: 1
8f012d: 1
4f7c54: 1
8f01b7: 1
5129db: 1
92e0d1: 1
92e0d8: 1
14fa250: 1
14fc30b: 1
91947f: 1
14fa280: 1
14f9f78: 1
f38491: 1
14f9420: 1
14fa06c: 1
92f38a: 1
14fa310: 1
14fa09e: 1
f37fe2: 1
52a642: 1
8f01f2: 1
f349f2: 1
f35744: 1
1513795: 1
14fa0a6: 1
15134e4: 1
14faba9: 1
151383d: 1
15137cb: 1
15155a8: 1
14fa0d3: 1
14fa340: 1
14fa171: 1
14fa1ab: 1
93a43f: 1
f35e7a: 1
92d24b: 1
14fa1fa: 1
92d33a: 1
8ef9f7: 1
14fa400: 1
1516da5: 1
512abc: 1
b679f9: 1
4e5d97: 1
14fbe17: 1
b6a72a: 1
4deb6b: 1
14fa3d0: 1
1513899: 1
925a8f: 1
15138f7: 1
1515f23: 1
14fa147: 1
f34291: 1
1515559: 1
162643e: 1
8eff98: 1
1513560: 1
f34791: 1
932465: 1
14fa370: 1
92f791: 1
92f781: 1
15135b4: 1
a9748c: 1
930fae: 1
8efa41: 1
f357cf: 1
16264ff: 1
14fa3c8: 1
92e0c9: 1
4eb919: 1
f3862b: 1
925d23: 1
f36263: 1
f34a53: 1
512a6c: 1
9309fe: 1
51a5de: 1
931d5f: 1
931d4c: 1
508de3: 1
f380e0: 1
14fbdc8: 1
916aa5: 1
92a34e: 1
f34555: 1
8ef6e6: 1
15138a1: 1
925a97: 1
917306: 1
14fbe2c: 1
14fc0a2: 1
14faa42: 1
4ed5d1: 1
f38318: 1
f360e9: 1
51bf8a: 1
51a7c8: 1
15139e3: 1
f3834b: 1
f37f99: 1
923014: 1
92ce52: 1
f38165: 1
924966: 1
931d11: 1
92f5ad: 1
9322b9: 1
14fa0e3: 1
1513873: 1
14fc49d: 1
932290: 1
9322df: 1
8efd71: 1
930236: 1
4ec6f7: 1
509d57: 1
9320f6: 1
f38090: 1
9251c7: 1
938637: 1
14f99c0: 1
15138bb: 1
508267: 1
8ef7e3: 1
1515d42: 1
f3448c: 1
51bf3d: 1
93220a: 1
4eba5b: 1
14fab67: 1
4ebf70: 1
506f72: 1
151554c: 1
939709: 1
1513641: 1
508b6c: 1
1513a0d: 1
91b784: 1
14f98e4: 1
f3817f: 1
1516b4f: 1
9369ac: 1
91639b: 1
14f99d5: 1
151365e: 1
931e74: 1
15139c9: 1
15170e5: 1
1513975: 1
4e5d62: 1
529eff: 1
14fa6e9: 1
4ec77b: 1
936c51: 1
14faa64: 1
92f42d: 1
1515ef9: 1
932288: 1
916169: 1
929d11: 1
f34330: 1
9366e4: 1
91591f: 1
15174b7: 1
51b598: 1
936799: 1
8efa99: 1
9367a1: 1
922f6c: 1
14fa83e: 1
927f8c: 1
924149: 1
f35750: 1
51a9be: 1
f382bd: 1
90ceca: 1
92ce59: 1
936456: 1
9270e4: 1
52a5cd: 1
925090: 1
f35f07: 1
f3824c: 1
936428: 1
93640c: 1
92f380: 1
1515d1a: 1
14fa248: 1
14f99ab: 1
f3818c: 1
14fbdc0: 1
939595: 1
14f9be7: 1
1515f2b: 1
90b154: 1
14f9ff0: 1
1513575: 1
14fc2ee: 1
8ef5ee: 1
5187ff: 1
932341: 1
f381f4: 1
4db969: 1
92624f: 1
ac0c9c: 1
93645e: 1
14fa2b0: 1
1513a2f: 1
9392e7: 1
508cf6: 1
9392cc: 1
92f5c5: 1
51a9b6: 1
14fbfd0: 1
f356fe: 1
9278b7: 1
512a74: 1
f349fb: 1
93227b: 1
f34799: 1
9392d4: 1
91cfeb: 1
14fbf52: 1
93094c: 1
93021e: 1
14fab6f: 1
8ef508: 1
91aed0: 1
1517934: 1
939023: 1
f38457: 1
930226: 1
14fadb4: 1
930299: 1
924aba: 1
93962f: 1
9237b4: 1
8ef74e: 1
9307b9: 1
93941a: 1
1516b60: 1
916c8e: 1
9307c8: 1
f3538d: 1
4e5d8d: 1
51a9a9: 1
925b2a: 1
91596b: 1
512256: 1
930a6c: 1
4db6f5: 1
8efc52: 1
9392be: 1
f35c97: 1
f35fa5: 1
93959a: 1
1515f55: 1
f35bd5: 1
14fa430: 1
92f5a5: 1
93095e: 1
930986: 1
8ef37d: 1
517ec5: 1
932f26: 1
1513abb: 1
932dfe: 1
931f0c: 1
91cffd: 1
93296d: 1
1515f01: 1
93098e: 1
51f4e7: 1
1515297: 1
1513985: 1
93023e: 1
92f5b5: 1
52a894: 1
939555: 1
92fee9: 1
1515ed2: 1
f3844f: 1
93270f: 1
92a6ad: 1
8e7201: 1
16267b0: 1
938642: 1
16264e0: 1
f3460d: 1
9363f2: 1
f356d7: 1
924a29: 1
14fac10: 1
93954d: 1
14faa94: 1
92f3d3: 1
9193c6: 1
8ef59e: 1
f3836b: 1
8f0207: 1
92a9c4: 1
93263b: 1
8efc32: 1
51c4d8: 1
93278a: 1
9194d7: 1
92cec0: 1
1626752: 1
529691: 1
93264b: 1
9326d1: 1
1517621: 1
51c0f4: 1
14fa490: 1
f34305: 1
f34e10: 1
9307b1: 1
1668919: 1
150edf0: 1
8ef648: 1
f342fd: 1
f34605: 1
14fa2e0: 1
92a996: 1
91b773: 1
52a62b: 1
9320ee: 1
f38380: 1
8efff0: 1
927fd4: 1
4f6cf1: 1
1510250: 1
14fab99: 1
14fa220: 1
932849: 1
16267b8: 1
508aee: 1
f34de8: 1
14fa81a: 1
f34df8: 1
4db657: 1
919411: 1
932e21: 1
15138ef: 1
14fab00: 1
14f9981: 1
4ec11c: 1
16266ec: 1
92a33f: 1
f35377: 1
92a346: 1
f3535f: 1
f3539e: 1
f35395: 1
4db87f: 1
925bf5: 1
518769: 1
92a384: 1
92a4e2: 1
4ebc7d: 1
528ef5: 1
90b0f1: 1
9193b4: 1
92453f: 1
92452e: 1
924153: 1
924141: 1
928c81: 1
92414b: 1
924123: 1
15139db: 1
1513665: 1
9269de: 1
1513a7e: 1
4db829: 1
4ec05d: 1
93016a: 1
509872: 1
5292b5: 1
529810: 1
5297f4: 1
926b2e: 1
50987a: 1
9255a6: 1
92a98e: 1
925e58: 1
9251cf: 1
925193: 1
925088: 1
50aae5: 1
90afbd: 1
51880b: 1
91d00c: 1
924ce7: 1
924cef: 1
924c7b: 1
924b56: 1
529743: 1
924a8a: 1
924a79: 1
92a337: 1
9249f7: 1
924941: 1
924959: 1
924936: 1
924991: 1
9167ab: 1
8ef678: 1
511fe9: 1
512218: 1
51a6db: 1
51a671: 1
f34a1b: 1
936a45: 1
f360c1: 1
f34a2b: 1
901b34: 1
f360b6: 1
5122b5: 1
f3608f: 1
f360cc: 1
5237f4: 1
901adb: 1
9167b6: 1
f38139: 1
f34901: 1
9167c3: 1
f3490c: 1
f348a9: 1
916828: 1
f3485f: 1
518ec0: 1
92d41d: 1
f34857: 1
f347f8: 1
916837: 1
f35f92: 1
52a402: 1
4ebfb6: 1
528eb8: 1
14fa096: 1
92622a: 1
f3457d: 1
91a89c: 1
8e739a: 1
91ba6e: 1
927af4: 1
91ba66: 1
91acda: 1
528f60: 1
90b27d: 1
509229: 1
926cc9: 1
15163da: 1
f35f9d: 1
8efafe: 1
529645: 1
52963d: 1
5295bd: 1
f35ffb: 1
f35f9a: 1
f35f29: 1
4dd59c: 1
f36056: 1
5295a6: 1
51883c: 1
14faa14: 1
928589: 1
8efbd2: 1
50921e: 1
928491: 1
928481: 1
5237bf: 1
928489: 1
517ed7: 1
927fc0: 1
927be7: 1
9279e4: 1
1626551: 1
927927: 1
4db675: 1
927968: 1
9278c0: 1
9278af: 1
927834: 1
917d8b: 1
51879d: 1
509e55: 1
92ce43: 1
f356a3: 1
4f6c1b: 1
51b433: 1
929d19: 1
918af4: 1
51b41c: 1
92a01d: 1
936710: 1
92a02e: 1
927faf: 1
5110ce: 1
93107e: 1
92d1d1: 1
14fadea: 1
929f08: 1
f3536f: 1
5110d8: 1
929ccf: 1
929cc7: 1
929cd9: 1
928f40: 1
92b5b3: 1
92a064: 1
5110ab: 1
508c8f: 1
92a158: 1
508aa7: 1
f3532f: 1
512534: 1
f352c6: 1
f352fc: 1
14fac4a: 1
50b435: 1
f352b9: 1
f35eb7: 1
926225: 1
9193d2: 1
52a599: 1
919436: 1
91cff3: 1
919475: 1
91bd3e: 1
529ec7: 1
508adb: 1
919440: 1
9265b1: 1
4dea14: 1
926247: 1
92620e: 1
f3624a: 1
92690c: 1
1516fbb: 1
925d9f: 1
925b19: 1
925b5a: 1
925ac9: 1
529f19: 1
50e85e: 1
919820: 1
529ebf: 1
1516fb3: 1
919ac9: 1
92a296: 1
529497: 1
15138b3: 1
9270dc: 1
91ae96: 1
92518b: 1
51b00e: 1
92cf78: 1
507a4a: 1
14faf86: 1
932643: 1
8f00d5: 1
927f98: 1
50b076: 1
927481: 1
927130: 1
927115: 1
927128: 1
901b18: 1
926d69: 1
90afcb: 1
926d5e: 1
14fa3f8: 1
926c3a: 1
926ab1: 1
926a81: 1
f3454d: 1
92fed1: 1
926a70: 1
9269e6: 1
926966: 1
9193bc: 1
14fbf3d: 1
4f7b68: 1
f36694: 1
14fbffa: 1
90af9f: 1
14faa9f: 1
14fbfe5: 1
8f013a: 1
926123: 1
926a20: 1
925d97: 1
90b13e: 1
4f6e08: 1
f38068: 1
927f84: 1
4f6d56: 1
512436: 1
5122c1: 1
4f60a1: 1
91ac1e: 1
90b28c: 1
4ed5a1: 1
4ec657: 1
4ec550: 1
4ec470: 1
4ec486: 1
14fbefe: 1
92a9a7: 1
92a99f: 1
4ec23e: 1
936a3d: 1
4f7d04: 1
4f7c88: 1
4f7c9b: 1
f35981: 1
f35975: 1
f3598c: 1
f35934: 1
14fc8fc: 1
f3590d: 1
f358d9: 1
f3588f: 1
f365c1: 1
f36636: 1
52abed: 1
4ecb01: 1
14fc50d: 1
14fc48d: 1
14fc312: 1
f36608: 1
4dd6f5: 1
4dd5f8: 1
91ba21: 1
4db9b6: 1
4db940: 1
4db938: 1
51a691: 1
14fc10b: 1
4f7ae0: 1
f35d0a: 1
512163: 1
14fadda: 1
f3803a: 1
14fac51: 1
14fac2d: 1
90cc5c: 1
927c1c: 1
8efe56: 1
14fc46d: 1
14f9957: 1
f35d5a: 1
14faad6: 1
14f992d: 1
14f9bca: 1
14fabde: 1
f38058: 1
14fab45: 1
14fab08: 1
14f93e8: 1
f35e3a: 1
15186d5: 1
14fab3d: 1
14fab35: 1
8ef3ae: 1
5290fc: 1
f35e5a: 1
f35e4a: 1
15168f3: 1
15168db: 1
917d82: 1
14fbe6b: 1
4ecabe: 1
4eca68: 1
9193d0: 1
8eae70: 1
92b5a1: 1
92f4dd: 1
92b5cb: 1
f35dda: 1
927fa0: 1
f38431: 1
4dbf29: 1
51202e: 1
512283: 1
4db971: 1
917104: 1
14fbddc: 1
917117: 1
1515c95: 1
14fb270: 1
92b5a9: 1
14fae24: 1
932273: 1
14fae2b: 1
938779: 1
15134f7: 1
92d2ae: 1
938665: 1
93866c: 1
14fae07: 1
f34497: 1
f361ec: 1
14fbee9: 1
91b77b: 1
91b762: 1
f361d2: 1
91b749: 1
91b741: 1
f36257: 1
91b509: 1
f34671: 1
f345ae: 1
f344b5: 1
915946: 1
9159bf: 1
f35f5c: 1
f343f1: 1
9159c9: 1
f36541: 1
f343c0: 1
f343b8: 1
9159ec: 1
916ac2: 1
92692e: 1
915a54: 1
f34371: 1
92a697: 1
15138db: 1
915fda: 1
922ff9: 1
90b05e: 1
8eff3d: 1
916aae: 1
f347bf: 1
4ebf22: 1
f38634: 1
916b10: 1
f3473f: 1
f346f9: 1
92a38c: 1
9233ad: 1
92301c: 1
928cc2: 1
91cfc2: 1
f36199: 1
917d9c: 1
922d1a: 1
92a530: 1
91d017: 1
f3464a: 1
91cfd4: 1
91cfdf: 1
91bc47: 1
f361df: 1
92a9bf: 1
9249ef: 1
14f9f98: 1
f341eb: 1
f35cbe: 1
90b274: 1
f34255: 1
f35bc5: 1
f35ccb: 1
f35cd7: 1
f35c39: 1
91676d: 1
f35bf5: 1
91609c: 1
92a686: 1
f35b75: 1
f35aed: 1
f359ae: 1
927c27: 1
5122cc: 1
4f7f73: 1
f341b2: 1
507b61: 1
f362a0: 1
f36501: 1
92a31d: 1
506f95: 1
14f9f90: 1
92bee7: 1
506e46: 1
50742d: 1
932631: 1
915fc8: 1
9193f9: 1
91ada8: 1
91b202: 1
f3424a: 1
92a6c6: 1
91af0a: 1
91aef9: 1
512a04: 1
91ae2e: 1
92418c: 1
933050: 1
91ad95: 1
f3429e: 1
92a567: 2
927be0: 2
4ebd8e: 2
939485: 2
918ba7: 2
90b597: 2
8e9222: 2
4dec3f: 2
926970: 2
529da4: 2
4ed30c: 2
5074c2: 2
518b9a: 2
4ed429: 2
8e7424: 2
8e7223: 2
529df4: 2
933091: 2
4ec380: 2
528fbb: 2
92a27f: 2
91bb8f: 2
507086: 2
92783f: 2
8e73bf: 2
4ebc8a: 2
939475: 2
9288e6: 2
91933d: 2
4ec974: 2
1669deb: 2
529e5b: 2
932e06: 2
918bb4: 2
4ebaf8: 2
933153: 2
91a036: 2
8e73ca: 2
166a217: 2
92a576: 2
8e73e6: 2
924974: 2
916e14: 2
9191a0: 2
dea5ba: 2
150ddb0: 3
f32c93: 3
150dcf0: 3
f31de0: 3
150e6cd: 3
936925: 3
f3329b: 3
f31c01: 3
93964c: 3
f2f5c5: 3
507c2d: 3
4ed4a3: 3
92671c: 3
4ec7ce: 3
f32c50: 3
150de10: 3
f2f638: 3
f32ad7: 3
9131c2: 3
150e833: 3
90b531: 3
f31cde: 3
4ed56b: 3
506fae: 3
90b554: 3
90b5b0: 3
f328f1: 3
925e64: 3
150def4: 3
926d29: 3
f32c66: 3
150dc5a: 3
9234de: 3
91536f: 3
939640: 3
f31cd6: 3
f31ce6: 3
f2f37e: 3
f32908: 3
f31da1: 3
f32da7: 3
f332a2: 3
150d4c8: 3
f31cfc: 3
f32a04: 3
150dc00: 3
f32a55: 3
506cd3: 3
f32c83: 3
f31cb3: 3
926d13: 3
4ebce8: 3
f31d02: 3
91520d: 3
91a661: 3
924d85: 3
150dbb0: 3
f32e58: 3
507425: 3
150dbe0: 3
150dc10: 3
150dc6a: 3
dea679: 3
150dcb8: 3
150dd20: 3
150de70: 3
150dea0: 3
150db68: 3
150ded7: 3
150deec: 3
150e6c5: 3
150e7c6: 3
150e80b: 3
150e855: 3
150ea46: 3
f2e6c5: 3
150dc90: 3
1669caa: 3
f32934: 3
f31d0e: 3
506d55: 3
f32e38: 3
150e6e5: 3
150db88: 3
9246bf: 3
f32cb9: 3
924665: 3
150d79d: 3
f2e691: 3
f3312b: 3
f33133: 3
f332b6: 3
150d77b: 3
150dd50: 3
50708c: 3
150db29: 3
150db40: 3
150db60: 3
4ec38d: 3
5082d3: 3
924679: 3
f32b58: 3
507aaf: 3
9259fe: 3
f31993: 3
91538e: 3
150d534: 3
f32b0b: 3
4ebf5b: 3
f328d0: 3
4ec9bb: 3
4ec982: 3
150d6f1: 3
150dde0: 3
918d12: 3
91608f: 3
150d4ab: 3
f319a3: 3
150d70e: 3
f32d80: 3
f2f39b: 3
f2f1b1: 3
f2f376: 3
f31c23: 3
150d764: 3
166a148: 3
150db48: 3
f2f44e: 3
150dc38: 3
f31bed: 3
f2f59d: 3
f31c11: 3
91554c: 3
f31a1c: 3
f329bc: 3
f31be9: 3
f31c17: 3
92e1ac: 3
150dec0: 3
5125f9: 3
dea608: 3
150d922: 3
93313d: 3
150dd80: 3
93315e: 3
150da54: 3
150e6dd: 3
f31cee: 3
150e7cd: 3
928a8c: 3
f32b61: 3
913f49: 3
150e81c: 3
f3290e: 3
f320c3: 3
f32b50: 3
f32ca1: 3
9275e7: 3
f31c83: 3
150d753: 3
f2e77c: 3
91252d: 3
f32b68: 3
f32d41: 3
5120af: 3
51275f: 3
936bca: 3
f31c05: 3
150de40: 3
f332bf: 3
924da8: 3
150d5b2: 3
508920: 3
915710: 3
150d50a: 3
f2e8d3: 3
932f4d: 3
f32c76: 3
9266f6: 3
150d715: 3
150db80: 3
9131d3: 3
150dee5: 3
f2f35e: 3
150d942: 3
150dba8: 3
915341: 3
925709: 3
925e72: 3
9131cd: 3
f2f350: 3
f2f618: 3
92497a: 3
f31d6e: 3
150de30: 3
91bb80: 3
150e7a1: 3
150de38: 3
150d684: 3
9266c5: 3
91250b: 3
9275a2: 3
150d4c0: 3
46f705: 3
5071b6: 3
927595: 3
f31997: 3
92673b: 3
50827e: 3
f32a2e: 3
932175: 3
4f7fde: 4
150eae2: 4
507234: 4
8df2fa: 4
150eb7d: 4
14b0df0: 4
f2f9fd: 4
4f7e69: 4
4f89b9: 4
150ea90: 4
150ed9f: 4
150eb49: 4
518976: 4
4f7f8c: 4
5072da: 4
9288da: 4
4f89c7: 4
f2f88e: 4
4f7f7b: 4
4f7f4e: 4
506e2c: 4
4f886e: 4
8df344: 4
4ebd70: 4
150eb34: 4
150eac8: 4
dea5fe: 4
5011f2: 4
f2f480: 4
8deb3f: 4
f2f80f: 4
166a280: 4
166a28b: 4
8df296: 4
166a29c: 4
5083f6: 4
f2f82d: 4
150ed81: 4
150eac0: 4
f2fe5d: 4
5011cd: 4
150edc2: 4
925a0d: 4
928a43: 4
507a3e: 4
15164c4: 4
150edb1: 4
8df51b: 4
150eb55: 4
4f88c8: 4
507a63: 4
4f7e07: 4
924dc7: 4
5011fc: 4
90b5c5: 4
150ebbe: 4
518e10: 4
508211: 4
512910: 4
92a901: 4
8df34c: 4
927817: 4
9275c0: 4
92571b: 4
925748: 4
925736: 4
f2f7fa: 4
924dc2: 4
924db4: 4
92469b: 4
150eb9a: 4
91bb94: 4
925753: 4
9324ee: 4
507197: 4
f2f8b6: 4
150ebb7: 4
4f97f5: 4
8df54e: 4
4f7f56: 4
5082a6: 4
92a925: 4
150eafc: 4
4ec3e7: 4
150eaae: 4
f2f811: 4
5070cf: 4
150eb26: 4
4f93c3: 4
f2f81b: 4
f2f8de: 4
91a919: 4
150edda: 4
5073e8: 4
8deb66: 4
150eaa6: 4
f2fe75: 4
f318cc: 4
f2f8f1: 4
150ec1e: 4
150eb04: 4
4f81b3: 4
150edd3: 4
1668d4d: 4
901c87: 4
4f7e2b: 4
f2f819: 4
f2fc3e: 4
933145: 4
1516445: 4
150ec3d: 4
8df2c6: 4
93692a: 4
8deb1c: 4
f2f807: 4
506f65: 4
1669ca5: 4
150ed97: 4
5070b7: 4
150ec0a: 4
4f928c: 4
166a276: 4
f2f987: 4
508209: 4
529724: 5
5123f9: 5
9191c4: 5
918e9e: 5
923b80: 5
92672f: 5
51251a: 5
4ebf7d: 5
9246b4: 5
9266da: 5
918a60: 5
9246a2: 5
4ec9b0: 5
512514: 5
9237f5: 5
9237ba: 5
52972f: 5
927606: 5
5083bb: 5
928983: 5
51c597: 5
512520: 5
512140: 5
512526: 5
51214a: 5
512158: 5
928930: 5
9275fa: 5
9275dc: 5
9160e1: 5
932f34: 5
512506: 5
9275cd: 5
9275c8: 5
5123eb: 5
151644d: 5
925771: 5
52957f: 5
51228f: 5
1516643: 5
5123fe: 5
506f60: 5
529735: 5
92573b: 5
512270: 5
9275b4: 5
151648e: 5
529729: 5
4ebf77: 5
1516487: 5
926701: 5
933166: 5
4ed3f0: 5
529710: 5
9324f7: 5
1516628: 5
4ec118: 5
9191d2: 5
9266eb: 5
928967: 5
151646a: 5
529585: 5
5123e0: 5
4ec3fe: 5
4ec9dc: 5
4ec9ca: 5
4ecd26: 5
4ec9d0: 5
512295: 5
1516630: 5
1669c93: 5
f2f524: 5
924689: 5
15164e4: 5
4ec9d6: 5
4ebf50: 5
9256f5: 5
529560: 5
512500: 5
4ecd2c: 5
923800: 6
91b4eb: 6
91a8e9: 6
5187ba: 6
518970: 6
4f70a4: 6
928d9a: 6
90b834: 6
939470: 6
93315b: 6
8eaf20: 6
1669dd8: 6
90b51f: 6
52a5ea: 6
91576c: 6
928c60: 6
92893f: 6
9275d5: 6
4ec3f8: 6
506d62: 6
4decc0: 6
925766: 6
925762: 6
92572d: 6
92890c: 6
92387d: 6
90b5c0: 6
1668907: 6
926709: 6
9256f0: 6
91a816: 6
5293ba: 6
9266de: 6
91b5bc: 6
5079ea: 6
9234ba: 6
92378a: 6
928b63: 6
9237e7: 7
936bc5: 7
4f6e28: 7
4f6c15: 7
90b5ab: 7
1669e98: 7
1669ea0: 7
93947d: 7
92570f: 7
9266fd: 7
9288f2: 7
916025: 7
928caf: 7
90b2e1: 7
50b430: 7
51215d: 7
5293b5: 7
1669eb3: 7
8ead60: 7
90b83c: 7
93216d: 7
91a741: 7
91a6ec: 7
1668935: 7
933085: 7
928c8c: 7
1669e2f: 7
932f03: 8
4ecd20: 8
166a38c: 8
928ba1: 8
90b524: 8
1668861: 8
932f43: 8
91a8a1: 8
9266c0: 8
4f990e: 8
90ce65: 8
916126: 8
91a4b9: 8
9387d0: 8
928cef: 8
9387dd: 8
506b98: 8
51c5c3: 8
933062: 8
4ecd1a: 8
92760e: 8
9275a6: 8
1669cb4: 8
52a72a: 8
1668bb0: 8
91537f: 8
dea61f: 8
93666b: 8
901bf4: 9
901beb: 9
1669cd1: 9
901ba5: 9
1669bfe: 9
166bd44: 9
923bee: 9
916f95: 9
928733: 9
901cff: 9
50b23d: 9
166bd59: 9
1669e0e: 9
8e83bf: 9
901d03: 10
901c02: 10
926743: 10
8e83cd: 10
91541b: 10
156b7fa: 10
901b9b: 10
932eeb: 10
929f6d: 10
928713: 10
91607a: 10
9391b0: 10
f2fad0: 10
927590: 10
925776: 10
926711: 11
918baf: 11
4f7703: 11
928a32: 11
4de9d7: 11
91a795: 11
9246ce: 11
9246d2: 11
166a269: 11
916b8c: 11
8e83b7: 12
50b237: 12
5078c0: 12
1669e1b: 12
925781: 12
4f7206: 12
916baa: 12
916bb6: 12
923806: 12
1669ef6: 13
9321f0: 13
925798: 13
9391ba: 13
91a7a1: 13
92674e: 13
518ec8: 13
923484: 13
91a0b6: 13
9246a7: 13
4ed401: 13
90ce60: 13
918eaf: 13
4f7ae8: 13
918da0: 13
918bf8: 13
923471: 14
8e63a0: 14
9390db: 14
918da4: 14
1669e8f: 14
1669245: 14
923c0d: 14
51c5cb: 14
91bb8a: 14
51c5d8: 14
91540f: 15
915443: 15
166bd30: 15
918eaa: 15
52a6cb: 15
91a7bb: 15
923bfa: 15
90b59e: 15
92467d: 15
91b511: 15
51c5ea: 15
166bd19: 15
924660: 15
919103: 16
51c72b: 16
166890f: 16
166888a: 16
1668898: 16
166874b: 16
166884f: 16
166c390: 16
91a801: 16
90b5e3: 16
1668b99: 16
506d5d: 16
52a6f9: 16
8e838b: 16
8e7523: 17
8e7532: 17
4deb8a: 17
918c72: 17
91b60b: 17
8e7537: 17
8e7564: 17
9246de: 17
919018: 17
8e73a6: 18
9156e4: 18
51c688: 18
9192b7: 18
91a822: 18
9156a1: 18
4f6f83: 18
52a783: 18
9234ab: 18
8e839f: 19
8e735b: 19
8e83b1: 19
8e7369: 19
8e8385: 19
8e837d: 19
8e738c: 19
8e738f: 19
8e63f5: 19
9192a9: 19
8e7384: 19
52ac20: 19
8e765b: 19
8e835f: 19
51c5e5: 19
92a5dd: 19
8e83ac: 19
8e857d: 19
506d50: 19
8e7656: 19
156b807: 19
8e8375: 19
8e7356: 19
8e7394: 19
91a846: 19
166886d: 20
507216: 20
9390d0: 20
50b4ab: 20
50af66: 20
507080: 20
507227: 20
507210: 20
507092: 20
918db6: 20
8ded39: 20
50721c: 21
91b261: 21
918a65: 21
9324e6: 21
507222: 21
8defb0: 21
507097: 21
f2fad5: 22
916f40: 22
92382e: 23
166c3a9: 23
8e8720: 23
512918: 23
927619: 23
9246e3: 24
5083f0: 24
92383c: 24
4f9b40: 24
926721: 24
4f6f08: 25
923815: 25
50824b: 25
16688fb: 25
92a254: 25
933274: 26
923c19: 26
50836f: 26
4f6c6f: 26
92f8fd: 26
8e9e10: 26
932c13: 26
52a701: 27
92870a: 27
9332e8: 27
90b5fd: 27
92f90e: 28
5189c2: 28
518e40: 28
9286dd: 28
4ed3fd: 28
4f7a50: 28
91a7f0: 29
506efa: 29
51291c: 29
512920: 29
50b15c: 30
51897c: 31
91b440: 31
5188cf: 31
923c47: 31
9191f2: 32
932c87: 32
9324e0: 32
92381b: 32
925785: 32
92a2b0: 32
9160d3: 33
15d6540: 34
506efd: 35
915783: 36
916f73: 36
f2f750: 36
915802: 36
915738: 36
918ddb: 38
918deb: 38
9157e0: 38
50b354: 38
f2fd1f: 38
91a853: 38
4f6c5a: 39
923851: 39
4deb65: 40
91a0a6: 40
4f9a10: 40
9157ed: 40
919205: 41
4f6f10: 41
9157ad: 41
9246ee: 42
91a0ca: 42
933200: 42
9286bb: 43
91bb04: 43
9246f2: 44
4f9923: 44
91bb14: 45
4f9916: 45
930dc8: 45
518a76: 45
928728: 46
5085a4: 46
936604: 46
92a57c: 47
4f9990: 47
929edf: 47
92a585: 47
92a54f: 47
929f19: 48
508929: 48
518b27: 49
929f0e: 49
50b164: 50
50b171: 50
923c53: 51
92a8af: 52
92e220: 52
50b183: 52
15d7fd0: 53
92e210: 53
923094: 53
92a8d5: 53
92334d: 53
91a86f: 53
92a90f: 54
923aa5: 54
923db9: 54
923860: 54
923969: 54
923955: 54
9239a8: 54
92399c: 54
923984: 54
92a246: 54
923b04: 54
923a49: 54
924111: 54
923945: 54
923cf3: 54
923cfc: 54
92a8bd: 54
4ecc5e: 55
528f88: 55
4ecc12: 55
4ecc23: 55
4ecc9a: 55
92a271: 55
4eccbe: 55
4eccce: 55
4ec3e0: 55
923c34: 55
5188de: 55
4eb87c: 55
92a25e: 56
529c46: 56
5127f4: 56
4ed498: 56
529e8b: 56
529818: 56
506b28: 57
512601: 57
9368c5: 57
4ed2b0: 57
91936d: 57
4ed244: 57
92a8c8: 57
50b17e: 57
529c9d: 57
529c95: 57
4ed32f: 57
4ed327: 57
4ecdf0: 57
529be1: 57
4ed25b: 57
529be9: 57
529800: 57
4ed22e: 57
4ed226: 57
529e2b: 58
512953: 58
5127ac: 58
92a5bc: 58
4ed263: 58
5127a0: 58
918528: 58
9185d2: 58
92a284: 58
918519: 58
91899a: 58
5188e6: 58
4f9935: 58
9184aa: 58
91a003: 58
529ea9: 58
92a8db: 58
529e1b: 58
92a26b: 58
918511: 58
9185da: 59
930578: 59
92a8ef: 59
91a0f5: 59
90b5f5: 59
93052a: 59
919af8: 59
919335: 59
91ac2e: 59
4ed4e3: 59
91a043: 59
5128de: 59
9184c8: 59
51284f: 59
512847: 59
919325: 59
9275ec: 59
91a5ec: 59
511e39: 59
91a03b: 59
92f5fd: 59
51282c: 59
92f5f5: 59
5125e0: 59
91a010: 59
92a2a3: 59
92fb28: 60
92fb1b: 60
930bf8: 60
92a23c: 60
931228: 60
92a8a4: 60
9308fe: 60
91ac66: 60
91a0fd: 60
91ac08: 60
930bf0: 60
931220: 60
91b587: 60
929f4c: 60
931584: 60
91ac46: 60
93120d: 60
5084d7: 60
930bdd: 61
930f59: 61
930754: 61
930f67: 61
90b583: 62
924701: 62
f2f520: 63
4deda0: 63
92877f: 64
91531d: 64
92874b: 64
9191f7: 65
91b454: 65
915322: 66
9153ed: 66
915465: 68
915488: 71
4ebce0: 71
9153f9: 71
91a87b: 72
925793: 72
50b359: 73
924706: 73
91a82a: 73
4ebd00: 74
91b33a: 75
91920a: 75
5187a5: 77
50b368: 77
52a5d5: 78
4ecd32: 79
5293a0: 80
915459: 80
923c75: 81
8e88c0: 83
4f9930: 83
9368cd: 83
93660c: 83
8e9ec0: 84
936b64: 85
50b026: 86
91b45e: 86
4ebcfb: 89
f2fd10: 90
15d7f89: 90
936b6c: 91
923866: 94
923c2f: 94
8defd6: 98
f2f48f: 98
512880: 100
5290f0: 101
932502: 103
90cdfe: 104
91b3a6: 104
4ed3f8: 105
91b397: 106
91b385: 106
92878c: 107
508890: 107
529108: 108
92f913: 108
91b58c: 109
529103: 109
4eb97c: 110
5078d0: 111
923c8b: 113
5078cc: 114
92d0df: 115
8e8510: 116
90cdf9: 116
15d6534: 116
90cdf5: 117
918962: 118
50b2cf: 118
91a3f8: 120
51c487: 125
92f8f0: 126
91b6b0: 126
90cdf0: 127
529cd0: 128
92e2d0: 130
9286ff: 135
f2f6ec: 137
930105: 139
91a0c4: 140
91a0a0: 140
923c8f: 147
4ecd37: 149
92d0d5: 150
9306db: 160
9154ae: 161
4f6c7c: 163
508377: 164
50731f: 165
4eb98a: 165
4eb9bb: 167
928718: 168
51c480: 170
91a0b0: 170
915044: 171
923c69: 171
932f52: 171
5074c9: 171
932160: 173
932180: 173
9158ac: 174
91589c: 174
9189d0: 176
92a610: 177
91896f: 177
4ed360: 177
92875a: 177
918bbc: 178
91a66e: 178
50b038: 179
50b044: 179
918585: 179
9185a6: 179
9185a0: 179
918580: 179
91858e: 180
50b200: 180
91a406: 180
918593: 180
50b205: 180
932165: 180
50b03e: 180
92e22d: 181
51c4a5: 182
51c499: 182
4de9e3: 182
4f6c4b: 182
91a4a6: 183
4de9dd: 183
4de9c5: 183
51c49f: 183
51c650: 183
5078c8: 187
923499: 191
919221: 192
91922e: 197
92e2da: 200
50781b: 201
90b5de: 203
916b70: 203
9234cb: 207
92d040: 210
916b86: 215
50749d: 220
916e97: 222
5074bb: 224
5187c7: 224
5074d1: 224
9313f4: 225
8ded51: 226
507a1d: 226
916ba2: 227
918e99: 227
52a5f5: 227
5077f7: 228
92384b: 228
5077ff: 228
507708: 228
507887: 228
5074b0: 228
507757: 229
919273: 231
507987: 232
90b50d: 239
92d04d: 241
8e9cd0: 241
512889: 247
90b571: 251
92a606: 258
936660: 270
f2f754: 272
919248: 272
529cdb: 278
4eb9cb: 280
4eb9d1: 281
f2fa3d: 281
528e64: 284
4eb9dd: 284
528e76: 285
528e6a: 285
528e50: 287
511fa0: 290
50b020: 290
511f93: 290
50b04a: 290
511f9a: 290
923464: 291
4eb9b0: 292
51c4ab: 295
9234f0: 295
9234be: 297
511fa6: 298
511fac: 299
506ef0: 299
4de9c0: 300
511f86: 300
4de9e8: 300
528e7c: 301
91a81d: 301
936920: 301
91606d: 306
9160fb: 306
4eb9d7: 306
9234f5: 308
91a7cf: 310
508236: 311
923501: 314
52a5c0: 317
916113: 317
936bc0: 320
51288c: 320
92348c: 321
919266: 334
91923b: 336
506cd0: 339
91a841: 340
529cdf: 341
930100: 350
932f47: 357
506cdd: 367
50b350: 367
4ed36b: 368
511f80: 372
4dec60: 372
506cda: 378
92fa38: 384
918dbe: 397
91a8bb: 397
923506: 410
f2fa2d: 429
51c7a0: 431
932f11: 431
4ed36e: 447
f2fa24: 464
91a84e: 476
918dcb: 500
8df254: 504
f2f486: 527
518796: 605
507830: 606
4f6c40: 670
52ac26: 690
518790: 724
4f97b6: 728
4f97c2: 728
4f97bc: 732
4f9962: 732
918dfb: 733
528e70: 740
4eb9e3: 750
91a869: 755
92877a: 756
518e46: 759
4f7a56: 766
918ec4: 784
928746: 788
508258: 911
918ec8: 930
91bb00: 962
918e18: 976
92352a: 1009
9286f0: 1018
50783b: 1020
92352f: 1039
92869d: 1042
923515: 1114
512886: 1121
5073a8: 1150
5073a2: 1153
507396: 1156
50739c: 1158
5073ad: 1171
4f97c8: 1180
4f97b0: 1180
9189d5: 1228
930dc4: 1254
50783e: 1265
507390: 1321
92351b: 1346
931399: 1391
916e7b: 1393
92f808: 1498
92a5e3: 1507
929f74: 1521
929f5c: 1534
929f40: 1534
923543: 1538
929f46: 1539
92a5b6: 1547
92a5b0: 1551
92a5cc: 1552
916e60: 1560
f2fc8f: 1573
918e08: 1575
92f9e1: 1583
916e92: 1624
4f9a90: 1660
91b380: 1662
92f9dd: 1776
923552: 1815
92f80b: 1852
92f7fc: 1873
918e25: 1884
91bb0c: 1904
9154aa: 2045
915338: 2115
91549d: 2138
9154da: 2142
91542b: 2151
915470: 2198
9154e7: 2231
f2f6e4: 2238
f2f6f0: 2239
92f7f0: 2241
529cd8: 2637
508230: 2945
91b392: 3012
508896: 3137
93009e: 3204
930095: 3252
923558: 3299
918e3b: 3338
92353e: 3567
8e74e0: 3664
91b600: 3870
4ed368: 3922
528e82: 3945
930090: 4003
91b39e: 4247
930099: 4382
918e48: 4386
8df4e1: 4592
91a8b6: 4634
92e228: 4675
92e21b: 4741
918e8e: 4878
92d045: 5074
918e58: 5121
918e81: 5271
918e65: 5337
936b60: 5560
92d056: 5606
f2f496: 5945
936600: 6071
4eb9e8: 6153
8df23e: 6264
8df4c0: 6264
9368c0: 6271
511fb2: 6339
930d69: 6393
f2fc80: 6784
f2f6e0: 10573
507838: 12446
9306c0: 15782
931393: 17721
930d63: 18765
5073b3: 25202
8e7620: 31579
8e7320: 35312
L1I TOTAL     ACCESS:   34419376  HIT:   34414578  MISS:       4798  HIT %:    99.9861  MISS %:  0.0139398   MPKI: 0.02399
L1I Test counter:          0
L1I LOAD      ACCESS:   34419376  HIT:   34414578  MISS:       7230  HIT %:    99.9861  MISS %:  0.0139398   MPKI: 0.02399
L1I PREFETCH  REQUESTED:          0  ISSUED:          0  USEFUL:          0  USELESS:          0
L1I USEFUL LOAD PREFETCHES:          0 PREFETCH ISSUED TO LOWER LEVEL:          0  ACCURACY: -nan
L1I TIMELY PREFETCHES:          0 LATE PREFETCHES: 0 DROPPED PREFETCHES: 0
L1I COMMIT LATE PREFETCHES: 0 MISSED OPPORTUNITY: 0 LATE IN PQ: 0 UNCOVERED: 0
L1I COMMIT LATE MSHR PREFETCHES: 0
L1I MPKI TOTAL: 0.03615 MSHR LATE: 0 PQ LATE: 0 COMMIT LATE: 0 MISSED OPPORTUNITY: 0 UNCOVERED: 0
L1I PREFETCHES SAME FILL-ORIGIN LEVEL: 0 DIFFERENT FILL-ORIGIN LEVEL: 0
L1I AVERAGE MISS LATENCY: 211.594 cycles
L1I AVERAGE MISS LATENCY LOAD: 211.594 cycles
L1I AVERAGE MISS LATENCY PREFETCH: -nan cycles
L1I AVERAGE MSHR OCCUPANCY: 0.000182036
L1I MSHR FULL: 0
L1I RQ	ACCESS:   52484182	FORWARD:          0	MERGED:   18062372	TO_CACHE:   34421810

930fc5: 1
51b383: 1
927b86: 1
51b480: 1
4de2c2: 1
51b586: 1
51bea8: 1
8e7303: 1
518c84: 1
4ec203: 1
14f9b03: 1
917382: 1
509243: 1
9303c1: 1
51bf87: 1
509421: 1
927b01: 1
51bfc3: 1
51c045: 1
51c080: 1
926140: 1
511102: 1
51c105: 1
51c140: 1
b493c4: 1
52ad82: 1
52ab40: 1
517e40: 1
52ab84: 1
8ef110: 1
1518250: 1
925fc1: 1
1517403: 1
52ac01: 1
52ace2: 1
4f6507: 1
52ad03: 1
52ad42: 1
f35744: 1
4dd602: 1
4f7786: 1
92a5c2: 1
51abc4: 1
51ac06: 1
504081: 1
51ac45: 1
4f6e84: 1
51aff1: 1
51b006: 1
91bc02: 1
f352c1: 1
51c682: 1
15165c3: 1
4f6146: 1
928e85: 1
51c786: 1
51c874: 1
51f4a7: 1
f35887: 1
4f6ec3: 1
f34e00: 1
f35240: 1
f35280: 1
51c540: 1
922d01: 1
9284c0: 1
f35304: 1
4deb42: 1
928503: 1
508a50: 1
4eba83: 1
924d07: 1
508cc5: 1
511046: 1
511085: 1
928b04: 1
509481: 1
51c1c5: 1
4dd6f5: 1
51c203: 1
f35807: 1
92afa1: 1
928a43: 1
1513a41: 1
51c282: 1
51c301: 1
92e302: 1
923345: 1
52aa42: 1
931386: 1
51c348: 1
932d04: 1
4ed281: 1
50af82: 1
926441: 1
51c3c0: 1
511442: 1
51c446: 1
927fc0: 1
917883: 1
918e00: 1
915a00: 1
529680: 1
1515ec2: 1
5296c0: 1
4ec502: 1
4f7480: 1
529703: 1
4f74c3: 1
924b40: 1
529784: 1
8f0142: 1
936b01: 1
529280: 1
506ff8: 1
14fc385: 1
924bc1: 1
5297c0: 1
5292c6: 1
933382: 1
529301: 1
4ec143: 1
14fb270: 1
930384: 1
9253c7: 1
528dc0: 1
529c00: 1
529c43: 1
508140: 1
925080: 1
938856: 1
529c84: 1
f359c0: 1
901b04: 1
4ecac6: 1
529d01: 1
529d96: 1
529dc2: 1
1515b46: 1
528e06: 1
528e43: 1
4de682: 1
507340: 1
924280: 1
919302: 1
932f03: 1
528e82: 1
4ed503: 1
528f05: 1
919401: 1
5238c6: 1
f34942: 1
52a680: 1
1626603: 1
4f6a47: 1
52a6c2: 1
916a81: 1
52a701: 1
4ed543: 1
916ac2: 1
52a742: 1
16266c4: 1
52a783: 1
52a642: 1
925bc0: 1
52a7c5: 1
916b80: 1
52a800: 1
52a842: 1
52a881: 1
52a8c2: 1
52a900: 1
4f6d45: 1
f34c82: 1
52a9c0: 1
9254c1: 1
529344: 1
929f40: 1
529385: 1
5293c2: 1
529401: 1
529484: 1
92a080: 1
52946e: 1
529ec7: 1
52a084: 1
f38446: 1
51b440: 1
512ac0: 1
f34383: 1
52a0c1: 1
52a106: 1
52a140: 1
f34585: 1
52a2c3: 1
52a341: 1
52a3c1: 1
f346c4: 1
52a402: 1
52a442: 1
518686: 1
518440: 1
92a402: 1
518480: 1
924c83: 1
5184c7: 1
518500: 1
518546: 1
518584: 1
5185c5: 1
518601: 1
924e04: 1
518642: 1
518402: 1
924200: 1
919282: 1
5186c7: 1
518740: 1
518780: 1
5187c0: 1
523801: 1
518844: 1
919440: 1
92a883: 1
518942: 1
518102: 1
92cec0: 1
517e82: 1
14fc940: 1
517ec5: 1
517f0c: 1
92cfc0: 1
517f82: 1
517fc5: 1
518042: 1
518085: 1
92a047: 1
92d140: 1
518984: 1
5181c5: 1
92a187: 1
518200: 1
f38482: 1
518246: 1
518301: 1
92a2c3: 1
f38583: 1
518347: 1
518380: 1
92a342: 1
926bc1: 1
518f44: 1
518f84: 1
508ddb: 1
90b141: 1
928e42: 1
4f6103: 1
51bf45: 1
509201: 1
509c15: 1
509c46: 1
509c81: 1
511b83: 1
518f00: 1
509cc1: 1
926c01: 1
509d04: 1
509d41: 1
926c81: 1
f38284: 1
509e55: 1
50a905: 1
927845: 1
50a946: 1
50aa43: 1
518bc0: 1
919580: 1
b7553c: 1
5189c2: 1
518ae0: 1
518a82: 1
4ec001: 1
518c10: 1
518cc5: 1
9198c1: 1
518d05: 1
4f7202: 1
518d42: 1
918e40: 1
518d84: 1
518dc5: 1
4f72c2: 1
518e02: 1
518e83: 1
4ec402: 1
518ec0: 1
508783: 1
930680: 1
9256c3: 1
8ef306: 1
511ac3: 1
4f61c7: 1
923883: 1
9188c6: 1
f35e82: 1
511981: 1
939742: 1
5119c0: 1
923982: 1
91ba82: 1
511a01: 1
511a44: 1
511a82: 1
511882: 1
4ea801: 1
511b42: 1
930344: 1
aeab02: 1
4ea8c1: 1
511c00: 1
923bc2: 1
511c40: 1
926cc1: 1
511c83: 1
511cc0: 1
91b681: 1
4dee45: 1
f35646: 1
51134c: 1
939103: 1
511381: 1
511486: 1
91d000: 1
511503: 1
511540: 1
51c580: 1
5115c3: 1
4ea301: 1
511d01: 1
511600: 1
511641: 1
511740: 1
923702: 1
9267c4: 1
511786: 1
5117c0: 1
923782: 1
f35d42: 1
511840: 1
f35dc2: 1
923f02: 1
919385: 1
512783: 1
92cf80: 1
517f42: 1
512804: 1
4e5d83: 1
5128c3: 1
512903: 1
511ec3: 1
4eac01: 1
511f07: 1
511f40: 1
924342: 1
511f80: 1
511fc0: 1
512483: 1
5124c3: 1
512543: 1
932382: 1
a5f7c2: 1
512387: 1
512403: 1
932a80: 1
512a85: 1
f35e42: 1
511d41: 1
511d86: 1
511e05: 1
511e41: 1
511e83: 1
5120a0: 1
5120c4: 1
512100: 1
512140: 1
922e00: 1
512a02: 1
915f80: 1
5129d0: 1
4eaa85: 1
512a44: 1
4f6700: 1
5121c0: 1
a97e47: 1
512240: 1
4ebc07: 1
14f9f34: 1
512283: 1
512341: 1
15158c5: 1
518142: 1
4e5e41: 1
926241: 1
916c00: 1
16267c1: 1
a97dbd: 1
1626281: 1
51bec1: 1
528383: 1
9237c0: 1
16262c2: 1
1626301: 1
92f8c3: 1
51c0c1: 1
f356c5: 1
f34442: 1
927641: 1
f38503: 1
939882: 1
4ea702: 1
16267b0: 1
f349c2: 1
1626641: 1
928a84: 1
8f0000: 1
92f442: 1
1515c02: 1
924881: 1
92f480: 1
92f4c1: 1
1515ac1: 1
4dc494: 1
51a587: 1
92f5c5: 1
92f682: 1
92f947: 1
4f734c: 1
1669eff: 1
9172c2: 1
92f6c6: 1
14fc545: 1
529e83: 1
1513a85: 1
926904: 1
8f0040: 1
930a42: 1
932d40: 1
50ae82: 1
4de401: 1
927740: 1
50b440: 1
50114b: 1
928380: 1
a97f41: 1
ac0c81: 1
ac0d04: 1
4eb902: 1
933200: 1
4de8c1: 1
932081: 1
aeab80: 1
f34541: 1
1515501: 1
9177c1: 1
91b107: 1
f37f00: 1
916e07: 1
928c81: 1
4eaf85: 1
dea601: 1
8ef6c7: 1
dead42: 1
930004: 1
528fc0: 1
9365c0: 1
930dc0: 1
4f63c6: 1
1626703: 1
930082: 1
14fa300: 1
92a8c3: 1
9396c4: 1
b76243: 1
52a200: 1
f344c2: 1
92fac2: 1
92fb40: 1
518e40: 1
8efc01: 1
927600: 1
1626541: 1
4f6204: 1
92fe71: 1
92fe83: 1
14fa10d: 1
151394b: 1
9188b0: 1
a974c4: 1
932d80: 1
1513504: 1
ac0d81: 1
927e80: 1
1511a76: 1
1626507: 1
ac0e03: 1
1511a84: 1
92f706: 1
512941: 1
1515802: 1
14fa147: 1
aeabc6: 1
928681: 1
932200: 1
926383: 1
1513543: 1
1513601: 1
92e040: 1
9230c2: 1
4eac40: 1
15136c0: 1
14fc445: 1
14fc984: 1
9251c0: 1
14fc283: 1
918c86: 1
50ab83: 1
8ef2c7: 1
1515a47: 1
4f7943: 1
15170d4: 1
508080: 1
a5c141: 1
ac4537: 1
528d80: 1
1515c43: 1
92e281: 1
927700: 1
51a547: 1
939842: 1
51a5c2: 1
92f600: 1
929e41: 1
15168db: 1
927882: 1
936ac7: 1
916c82: 1
1517104: 1
925b84: 1
92f983: 1
4ec185: 1
1515702: 1
f35382: 1
919a87: 1
92d380: 1
50ac81: 1
92f781: 1
4debc6: 1
512841: 1
518000: 1
929fc2: 1
92d3c2: 1
508670: 1
b679b0: 1
919802: 1
a5f843: 1
50ac05: 1
92e144: 1
9231c6: 1
92e180: 1
923202: 1
15173f3: 1
9305c1: 1
14fa685: 1
922ec1: 1
932b80: 1
5127c0: 1
1513740: 1
91b641: 1
14fc4c5: 1
90b844: 1
1513a05: 1
b73c83: 1
931086: 1
1513807: 1
52a5c0: 1
4ebaf0: 1
f38080: 1
f34a03: 1
ac4544: 1
50acc2: 1
90b81c: 1
927c02: 1
8e7201: 1
4f6d83: 1
924400: 1
92d202: 1
927a43: 1
917306: 1
4f6682: 1
4ecb80: 1
528582: 1
5285c6: 1
528641: 1
528740: 1
932841: 1
5287c0: 1
5180c5: 1
528842: 1
528883: 1
918d42: 1
5288c2: 1
528540: 1
528904: 1
918dc3: 1
50ac40: 1
528941: 1
5289c1: 1
528a06: 1
528a42: 1
4eb884: 1
932b42: 1
528ac1: 1
528b85: 1
528242: 1
528080: 1
932147: 1
5280c6: 1
928cc2: 1
528106: 1
511581: 1
923543: 1
528141: 1
528180: 1
5281c0: 1
4eb002: 1
528201: 1
512000: 1
4f6042: 1
528306: 1
a5f883: 1
5283c2: 1
528400: 1
528441: 1
8efc42: 1
918900: 1
5284c4: 1
528507: 1
50a8b1: 1
5294d1: 1
529202: 1
4db9c5: 1
9196c1: 1
9288c4: 1
529800: 1
528005: 1
4f75c0: 1
529bc0: 1
92b5a1: 1
4f6f47: 1
9332c3: 1
529242: 1
4f6f00: 1
529544: 1
529585: 1
9249c2: 1
5295c5: 1
92a1c1: 1
1515e04: 1
529602: 1
529645: 1
14fc246: 1
924a82: 1
92a241: 1
919140: 1
528bc5: 1
919084: 1
528c02: 1
4eba44: 1
4f69c2: 1
9190c1: 1
932cc3: 1
50af41: 1
528c42: 1
528c81: 1
15156bb: 1
924d47: 1
528043: 1
528cc0: 1
528d08: 1
512183: 1
4f6c40: 1
528fa0: 1
529046: 1
529002: 1
5290c0: 1
529103: 1
529140: 1
4ebf82: 1
f34601: 1
52a540: 1
f341c7: 1
f34200: 1
f34246: 1
927445: 1
f34305: 1
f34345: 1
927544: 1
f343c0: 1
f34500: 1
1626242: 1
f345c3: 1
1626481: 1
92df93: 1
f34640: 1
f34701: 1
4f6843: 1
f34780: 1
f34846: 1
f34901: 1
50abc0: 1
901ac0: 1
928d82: 1
1669e80: 1
50aa06: 1
508b80: 1
924dc2: 1
ac7cac: 1
14fa19b: 1
15157c5: 1
b478c4: 1
52a386: 1
930701: 1
92f587: 1
4ec542: 1
1515903: 1
f34747: 1
51c5c3: 1
b75bf8: 1
9175c2: 1
14f9fc6: 1
b74f48: 1
52a300: 1
1515b86: 1
1515f87: 1
b73c01: 1
4db601: 1
b73c42: 1
f34090: 1
9194c2: 1
4decc0: 1
51a6c2: 1
926ec5: 1
523728: 1
91b941: 1
938780: 1
523742: 1
523782: 1
4f6d01: 1
5237c5: 1
9243c1: 1
523844: 1
91b281: 1
523880: 1
523905: 1
b6a722: 1
51a480: 1
924501: 1
525757: 1
4ec446: 1
51a9c0: 1
924a41: 1
527ffe: 1
927107: 1
931cc0: 1
916082: 1
928dc6: 1
f34980: 1
917442: 1
92feb0: 1
f34c42: 1
51c2c7: 1
f34cc2: 1
f34d02: 1
f34d82: 1
51a4c1: 1
932805: 1
91bd46: 1
51a503: 1
1669e8a: 1
166a0c1: 1
928e01: 1
4f60c2: 1
51a642: 1
926e45: 1
4dec83: 1
51a685: 1
1515297: 1
924043: 1
923ac1: 1
923b40: 1
918bc2: 1
923b80: 1
923c47: 1
9369c4: 1
923c80: 1
923d05: 1
923d43: 1
923d82: 1
923e42: 1
923e83: 1
923a80: 1
924082: 1
9240c1: 1
a97f00: 1
924101: 1
924141: 1
9241c1: 1
924380: 1
924482: 1
9244c5: 1
924547: 1
9245c6: 1
923501: 1
923144: 1
928903: 1
923101: 1
923243: 1
923281: 1
9232c1: 1
51ab9b: 1
923301: 1
508ac5: 1
928ac0: 1
923441: 1
9234c3: 1
924642: 1
923581: 1
9236c1: 1
a97540: 1
923741: 1
923842: 1
f35e02: 1
923910: 1
917080: 1
923941: 1
923a01: 1
923a41: 1
925a04: 1
925481: 1
925502: 1
925582: 1
9255c1: 1
925682: 1
925781: 1
9257c1: 1
925801: 1
8e9ec0: 1
9258c2: 1
925941: 1
9259c4: 1
f351d0: 1
925ac5: 1
8df142: 1
925b01: 1
14fa0d3: 1
930b02: 1
925b45: 1
925c01: 1
925c40: 1
925c82: 1
925d06: 1
925dc4: 1
924cc2: 1
924681: 1
9246c4: 1
924701: 1
929ec0: 1
924801: 1
9248c4: 1
919946: 1
924941: 1
924980: 1
924c02: 1
14fc405: 1
924c41: 1
923081: 1
4ea401: 1
924ec7: 1
9192c0: 1
924f04: 1
924f40: 1
925040: 1
925142: 1
92a901: 1
9252c2: 1
925302: 1
925345: 1
1626370: 1
91ad80: 1
91ae47: 1
91ae81: 1
518c47: 1
91af41: 1
91af80: 1
91b044: 1
91b181: 1
91b146: 1
91b1c4: 1
511181: 1
91b202: 1
91ad41: 1
91b300: 1
91b2c2: 1
91b342: 1
92e105: 1
91b3c1: 1
91b401: 1
91b503: 1
91b540: 1
91b5c4: 1
51c4c1: 1
926542: 1
4db981: 1
508301: 1
508501: 1
925441: 1
1517618: 1
5085c4: 1
15d8100: 1
4f85a5: 1
919ac1: 1
4f81ab: 1
4f9300: 1
529f85: 1
4f9540: 1
91b600: 1
4f9682: 1
4f96c2: 1
f35b85: 1
90cd42: 1
14fa480: 1
f35c41: 1
923681: 1
f35cc6: 1
917dc0: 1
14fa541: 1
f35d02: 1
922c04: 1
91cfb9: 1
509872: 1
923401: 1
91cfc2: 1
91d045: 1
922a81: 1
928240: 1
922ac5: 1
f35ac5: 1
922b40: 1
f35b05: 1
922b80: 1
91bc41: 1
922c85: 1
922d45: 1
922d80: 1
922dc0: 1
922e42: 1
922e86: 1
922f07: 1
922fc0: 1
14fa804: 1
923040: 1
14fa845: 1
511900: 1
91b6c3: 1
939402: 1
91b701: 1
91b741: 1
91b784: 1
91b7c3: 1
92bf00: 1
91b801: 1
91b840: 1
91b880: 1
9395c1: 1
91b8c0: 1
14fa390: 1
91b981: 1
511943: 1
91b9c4: 1
91ba00: 1
91ba40: 1
91bac1: 1
91bb00: 1
91bb80: 1
927787: 1
91bbc6: 1
511bc0: 1
917402: 1
92bee7: 1
f35d82: 1
f35f02: 1
f35f43: 1
f35f82: 1
4f7145: 1
917140: 1
917180: 1
917287: 1
917340: 1
92d341: 1
9173c7: 1
92a9c4: 1
9174c2: 1
14f9cc1: 1
92a284: 1
917540: 1
917582: 1
917601: 1
917642: 1
917682: 1
917747: 1
917801: 1
917840: 1
92a540: 1
928800: 1
928841: 1
9289c4: 1
4eb244: 1
928f40: 1
929616: 1
929cad: 1
f35200: 1
92a002: 1
92a103: 1
92a207: 1
92a4c0: 1
9178c3: 1
92a582: 1
92a602: 1
a5f807: 1
4f7901: 1
92a640: 1
92a6c1: 1
92a7c1: 1
14fa240: 1
92a803: 1
92a980: 1
512750: 1
919742: 1
919345: 1
529e10: 1
4de900: 1
9193c6: 1
4de9c0: 1
f35aad: 1
919486: 1
919501: 1
9195c1: 1
919607: 1
919640: 1
919681: 1
9191c4: 1
14fbf45: 1
924781: 1
9197c4: 1
919840: 1
14fc103: 1
919982: 1
9199c2: 1
919a47: 1
91a003: 1
91a085: 1
91a0c0: 1
918985: 1
917942: 1
9179c0: 1
4f7a46: 1
917a41: 1
917a81: 1
917b00: 1
f35b45: 1
917c03: 1
917cc1: 1
917d03: 1
918490: 1
918501: 1
9287c0: 1
918a03: 1
918a46: 1
923b01: 1
918b44: 1
918b87: 1
918cc2: 1
923ec0: 1
918f03: 1
8f0347: 1
919005: 1
919103: 1
926d04: 1
926784: 1
926801: 1
926881: 1
9268c2: 1
926982: 1
4ebf41: 1
926a07: 1
926a81: 1
91bb43: 1
926b00: 1
926b42: 1
926b82: 1
926701: 1
926d81: 1
926dc1: 1
931dc0: 1
926e03: 1
926e83: 1
926f00: 1
926f41: 1
4f7478: 1
926f81: 1
927006: 1
9270c0: 1
926281: 1
925e02: 1
925e40: 1
925ec4: 1
925f01: 1
925f45: 1
926003: 1
1513780: 1
926042: 1
9260c2: 1
5110c4: 1
926102: 1
926202: 1
927246: 1
51c240: 1
9262c1: 1
9263c3: 1
51c383: 1
5113c6: 1
926404: 1
5114c2: 1
926500: 1
9265c2: 1
51c603: 1
926684: 1
5291c3: 1
927dc4: 1
927e01: 1
927f06: 1
927f43: 1
528f42: 1
928006: 1
928040: 1
917903: 1
928104: 1
928180: 1
1515940: 1
928202: 1
927d80: 1
928287: 1
933281: 1
1515a02: 1
9282c4: 1
1515b02: 1
9283c4: 1
928584: 1
1515d02: 1
9285c4: 1
928607: 1
928742: 1
927945: 1
9272c7: 1
927300: 1
927340: 1
15163da: 1
927381: 1
9273c1: 1
927402: 1
9274c2: 1
927506: 1
9276c0: 1
927805: 1
508187: 1
9328c1: 1
927904: 1
9171c7: 1
927a80: 1
927ac5: 1
927bc2: 1
5183c1: 1
917485: 1
927c40: 1
917503: 1
927d41: 1
9247c5: 1
4eb184: 1
930d07: 1
4eb284: 1
1516640: 1
f34100: 1
501180: 1
4eb2c2: 1
4eb381: 1
4eb3c1: 1
51bf05: 1
4eb4c0: 1
4eb541: 1
4eb106: 1
15137c6: 1
4eb5c2: 1
4eb643: 1
4eb604: 1
4f65c1: 1
4eb703: 1
918d80: 1
4eb786: 1
4f6ac2: 1
4ebb05: 1
4ebb84: 1
4eadc1: 1
4eaa02: 1
4eaa41: 1
930545: 1
4eaac2: 1
4eab01: 1
4eab81: 1
4eabc2: 1
4eac83: 1
4eacc3: 1
4ead01: 1
4ead40: 1
f355d6: 1
4ebbc3: 1
930883: 1
4eae00: 1
4eae45: 1
930903: 1
4eae80: 1
930943: 1
4eaec0: 1
4eaf00: 1
924184: 1
4eaf43: 1
4eb0c1: 1
4ed447: 1
4ec783: 1
92a500: 1
4ec804: 1
4ec843: 1
927d07: 1
4ed241: 1
4ed2c4: 1
4ed342: 1
4ed381: 1
4ed3c2: 1
4ed401: 1
8ef741: 1
4ebfc5: 1
4eb840: 1
4eb9c2: 1
4eba02: 1
92a445: 1
90cc42: 1
4ecc47: 1
f381c7: 1
925242: 1
4eccc6: 1
4ecd81: 1
528282: 1
507781: 1
919240: 1
4ebc41: 1
51c6c7: 1
4ebc82: 1
4ebd00: 1
4ebd82: 1
a97450: 1
4ebdc1: 1
4ebe00: 1
4ec041: 1
4f7083: 1
4ec0c6: 1
4ea984: 1
4ec100: 1
4ec1c2: 1
4ecdf0: 1
15f3cfe: 1
528802: 1
4ece00: 1
4ed4c3: 1
4ebe82: 1
4ebf01: 1
92a944: 1
929cc1: 1
50b346: 1
4ed304: 1
50b005: 1
50b0c1: 1
50b101: 1
50b140: 1
50b200: 1
933003: 1
1515784: 1
50b281: 1
4de800: 1
50b2c1: 1
50b307: 1
927f84: 1
1515884: 1
928146: 1
50b381: 1
50b3c1: 1
ac0e80: 1
92f380: 1
4de940: 1
933183: 1
9281c6: 1
50b401: 1
50b4c3: 1
4de381: 1
15f3c80: 1
50aa83: 1
50ab00: 1
50ab47: 1
50ad40: 1
927c80: 1
932b02: 1
528a81: 1
ac4602: 1
50ad80: 1
927cc0: 1
50ae02: 1
928403: 1
ac46c3: 1
50ae41: 1
a5c240: 1
4de3c0: 1
50af00: 1
14f9e84: 1
917703: 1
50afc0: 1
1515547: 1
50b044: 1
528ec0: 1
4ea680: 1
4e5dc1: 1
931003: 1
4eb580: 1
4ea381: 1
f35bc5: 1
4ea440: 1
4ea480: 1
1516601: 1
f340c1: 1
b75550: 1
928ec3: 1
4ea540: 1
918b00: 1
f35ec4: 1
4ea6c6: 1
922cc1: 1
4ea742: 1
4ea784: 1
4ea841: 1
4ea882: 1
aeab43: 1
508603: 1
4ea902: 1
4ea941: 1
4db5f0: 1
50e843: 1
f353c4: 1
91bd33: 1
f35606: 1
92a483: 1
4f7744: 1
f35681: 1
928880: 1
518700: 1
f35706: 1
f35781: 1
4ec880: 1
4db644: 1
928f03: 1
91ad10: 1
4db6c1: 1
92a841: 1
4db701: 1
4db742: 1
4db783: 1
4db841: 1
4e5ccd: 1
14fb281: 1
928081: 1
4dd4f2: 1
91b241: 1
4dd545: 1
4dd583: 1
4dd5c4: 1
4de213: 1
4de4c1: 1
4de541: 1
4de581: 1
4de5c2: 1
4de6c0: 1
14f93d9: 1
50ad01: 1
4de704: 1
5123c0: 1
4de745: 1
4de7c2: 1
4de843: 1
512500: 1
4de885: 1
ac0ec1: 1
92f3c1: 1
4de981: 1
928342: 1
4f7642: 1
4f7541: 1
14f9e43: 1
4f76c7: 1
4ec746: 1
4f7703: 1
4f77c3: 1
924e40: 1
4f7802: 1
4f7846: 1
4f7882: 1
4f78c2: 1
4f7581: 1
ac0f40: 1
4f79c2: 1
f35941: 1
4f7a04: 1
9250c3: 1
901b41: 1
4f7ac0: 1
4f7b42: 1
4f7bc0: 1
4db940: 1
4db924: 1
4dbf04: 1
8f0384: 1
936782: 1
4e5d42: 1
918a81: 1
504043: 1
5040c1: 1
dea666: 1
504142: 1
926841: 1
504180: 1
504303: 1
507080: 1
923fc0: 1
501300: 1
504004: 1
919042: 1
5070c3: 1
924003: 1
507145: 1
5122c1: 1
507304: 1
924244: 1
927181: 1
507186: 1
508047: 1
92f7c2: 1
4dea00: 1
4dea80: 1
92f501: 1
4deac1: 1
4deb06: 1
4dec00: 1
4dec44: 1
4ded06: 1
9286c7: 1
ae9f41: 1
4ded43: 1
928704: 1
4f7500: 1
4ded82: 1
922f84: 1
4dedc0: 1
4dee00: 1
923002: 1
4dd6af: 1
5188c1: 1
f358c7: 1
14fa1c0: 1
f35981: 1
9233c1: 1
925885: 1
4ec285: 1
919902: 1
4ec304: 1
4ec340: 1
4ec380: 1
931e44: 1
4ec3c1: 1
4ec482: 1
4ec583: 1
4ec5c5: 1
4ec601: 1
930842: 1
924841: 1
4ec680: 1
4ed5c3: 1
4f6011: 1
4f6081: 1
4eb304: 1
4f62c1: 1
4f6301: 1
a62d97: 1
4f6340: 1
4f6380: 1
4f6405: 1
9324c4: 1
4ec8c3: 1
4ec902: 1
4ec941: 1
4ec982: 1
4ec9c1: 1
f35900: 1
4eca06: 1
4f7984: 1
4ea3c0: 1
5080c1: 1
14fc7c5: 1
925001: 1
4f6440: 1
4eca41: 1
930c82: 1
925cc5: 1
4ecb01: 1
925d85: 1
4ecb44: 1
4f7b80: 1
4ecbc3: 1
4ec246: 1
a98640: 1
51a7c0: 1
4f6fc7: 1
4f6bc2: 1
4f6c07: 1
4ebcc6: 1
4f6c83: 1
924300: 1
4f6cc0: 1
4f6dc4: 1
924441: 1
4f6e04: 1
4f6e42: 1
919541: 1
52ac42: 1
4f6b82: 1
4f70c4: 1
924741: 1
929f00: 1
4f7330: 1
4f71c3: 1
4f7240: 1
925546: 1
92a0c1: 1
4f7382: 1
14f9b82: 1
4f7406: 1
4f6883: 1
4f6480: 1
4f64c7: 1
51100f: 1
4f6544: 1
4f6581: 1
4f66c1: 1
4f6782: 1
918e81: 1
4f67c2: 1
918ec1: 1
4f6800: 1
931284: 1
f34800: 1
4f68c3: 1
507000: 1
923f40: 1
4f6901: 1
4f6941: 1
4f6a00: 1
4f6a82: 1
919181: 1
4f6b01: 1
4f6b46: 1
91a880: 1
92a780: 1
91a043: 1
1517681: 1
929d01: 1
1517645: 1
aeb757: 1
15d8007: 1
aeac06: 1
930cc0: 1
5125e0: 1
932c00: 1
1517901: 1
8e9e3b: 1
9308c1: 1
92ce81: 1
923800: 1
924d85: 1
931fc2: 1
932001: 1
927044: 1
ae9f05: 1
930e05: 1
927982: 1
4de302: 1
932ac4: 1
927b46: 1
a97e00: 1
922f44: 1
a976c4: 1
a97704: 1
a97683: 1
14fa702: 1
a97657: 1
52a582: 1
8f02c4: 1
ae9ec7: 1
a975c1: 1
917787: 1
8f0243: 1
4de482: 1
927e43: 1
f35c85: 1
9326c1: 1
b762c5: 1
14fac46: 1
14f9c00: 1
15186c4: 1
4f6181: 1
503fc1: 1
8ef840: 1
4de507: 1
8ef805: 1
8ef782: 1
8ef700: 1
1517862: 1
938883: 1
8ef680: 1
4f9581: 1
4eb203: 1
8ef584: 1
14fa8c1: 1
8ef482: 1
f36044: 1
8ef444: 1
f36003: 1
8ef403: 1
931d80: 1
52a484: 1
14fc041: 1
936442: 1
1516403: 1
931303: 1
509445: 1
ae9df0: 1
1517482: 1
8e6cfb: 1
1517441: 1
924b01: 1
1516906: 1
916100: 1
1516582: 1
1516483: 1
a97ecc: 1
511b01: 1
14fa096: 1
1515f01: 1
9235c1: 1
51c641: 1
925845: 1
931f80: 1
ae9e43: 1
926c42: 1
ae9e01: 1
8ef904: 1
939182: 1
f357c7: 1
939041: 1
16264c1: 1
4ed583: 1
938800: 1
50b183: 1
9280c3: 1
f382c5: 1
938740: 1
4de642: 1
9391c0: 1
14fad43: 1
528681: 1
938684: 1
8df182: 1
930b87: 1
15178c0: 1
924f80: 1
938600: 1
927ec3: 1
9385e0: 1
932fc7: 1
939504: 1
f38100: 1
f380c0: 1
508bc0: 1
939684: 1
4ea504: 1
917b81: 1
939580: 1
1515fc4: 1
939540: 1
923644: 1
a5f777: 1
90cec5: 1
917a01: 1
9394c0: 1
14fa9c2: 1
4eb142: 1
939482: 1
1516b4f: 1
939440: 1
9393c2: 1
939302: 1
9392c3: 1
939781: 1
9364c3: 1
4f7a80: 1
9387c1: 1
14f9d01: 1
14f9c81: 1
14f9c41: 1
511683: 1
f35c05: 1
f36603: 1
9363c2: 1
923604: 1
4ea4c1: 1
4ea601: 1
14f9b42: 1
51c502: 1
4ea5c2: 1
14f9a46: 1
14f9a07: 1
932180: 1
932bc1: 1
8f01c4: 1
a97f81: 1
51c000: 1
936744: 1
90ce80: 1
90cdc3: 1
917d41: 1
90cd83: 1
1515440: 1
90cd01: 1
14fa984: 1
5282c2: 1
14fa400: 1
90ccc2: 1
4e5d04: 1
14faec2: 1
14fc705: 1
f37ec6: 1
925906: 1
1515484: 1
f37e80: 1
14f9f03: 1
917c81: 1
14f9d81: 1
51c741: 1
14f9d41: 1
92f760: 1
917240: 1
92d301: 1
512880: 1
929f82: 1
15164c1: 1
8ef503: 1
919782: 1
92ce20: 1
14fa5c5: 1
4ebe42: 1
933145: 1
92d282: 1
927a06: 1
508b43: 1
91b081: 1
14fa881: 1
14f9a85: 1
930a81: 1
92f902: 1
92a143: 1
1626800: 1
939380: 1
923484: 1
923cc1: 1
928d41: 1
4eb982: 1
529743: 1
f35847: 1
4eb8c2: 1
1513700: 1
924a00: 1
14f9e01: 1
8eae40: 1
51c7c1: 1
5182c6: 1
14fac80: 1
15154c4: 1
1513899: 1
528d40: 1
14fa582: 1
4ed490: 1
16265c0: 1
509884: 1
939082: 1
923186: 1
928945: 1
9315c3: 1
52a986: 1
92e087: 1
926600: 1
919205: 1
b73bf0: 1
8f00c3: 1
92fa80: 1
b768a8: 1
1517145: 1
92d2c2: 1
f384c0: 1
936500: 1
930444: 1
508586: 1
1515843: 1
9266c0: 1
4ea2df: 1
92e242: 1
8ef60a: 1
8eff45: 1
917207: 1
14fa781: 1
9278c0: 1
92f378: 1
8ef184: 1
a97dc2: 1
925400: 1
4f9500: 1
51c701: 1
918f81: 1
931f40: 1
ae9e83: 1
b755c5: 1
930f84: 1
930f44: 1
a97e85: 1
4ec4c1: 1
4dea43: 1
922c45: 1
f37f81: 1
4ead80: 1
508a81: 1
ac0e41: 1
4dcc14: 1
91b001: 1
931f04: 1
8ef287: 1
9307c1: 1
518904: 1
9392b9: 1
918f40: 1
90afc0: 1
4eafc5: 1
518b45: 1
4f7042: 1
918580: 1
14fad83: 1
9386c4: 1
15d65b0: 1
916f40: 1
52abc0: 1
8ef241: 1
8ef141: 1
51c480: 1
1515dc2: 1
928c41: 1
928b81: 1
528984: 1
4eb7c6: 1
923dc1: 1
52a502: 1
8ef3c6: 1
939900: 1
50e81e: 1
8ef344: 1
8ef385: 1
930b40: 1
916983: 1
52a603: 1
508b00: 1
8e8781: 1
931546: 1
8ef540: 1
14fc9c5: 1
925740: 1
939640: 1
8e79ed: 1
1516fc0: 1
4f7003: 1
919702: 1
4f6f83: 1
924600: 1
512601: 1
51c400: 1
f36686: 1
a97500: 1
50aec3: 1
4de442: 1
14fc685: 1
931c90: 1
529fc3: 1
925383: 1
14faace: 1
90ce02: 1
939340: 1
4f7601: 1
928c03: 1
92f9c0: 1
8ef1c1: 1
14fa600: 1
512042: 1
4f6987: 1
9390c0: 1
51c180: 1
928983: 1
15139c1: 1
14f9bc6: 1
504341: 1
926a40: 1
916e80: 1
52ab00: 1
92fa02: 1
4eb800: 1
52aac2: 1
f34d42: 1
52aa80: 1
92ce41: 1
f34483: 1
4ea362: 1
919b00: 1
933344: 1
14fae03: 1
936901: 1
918c00: 1
9398c3: 1
9239c7: 1
91a687: 1
930601: 1
9314c1: 1
518182: 1
92a741: 1
14fc181: 1
14fc0c4: 1
14fc080: 1
14fc002: 1
14fbf84: 1
14fbec7: 1
ac0dc0: 1
14fbe41: 1
14fbe00: 1
14faf81: 1
92ff00: 1
919a07: 1
14faf44: 1
4eb6c4: 1
4f6642: 1
14faf03: 1
4eb683: 1
4f6601: 1
14fbfc3: 1
14fae44: 1
528782: 1
14fadda: 1
14fc585: 1
4f7fc3: 1
925640: 1
14fc885: 1
14fc845: 1
14fc805: 1
508540: 1
14fc6c5: 1
52a003: 1
14fc645: 1
14fc605: 1
14fc5c5: 1
92d1c1: 1
14fc505: 1
529e43: 1
925280: 1
14fc485: 1
925200: 1
14fc3c5: 1
925100: 1
14fc2c6: 1
4db680: 1
14fc207: 1
90b383: 1
8eff06: 1
8efec3: 1
92d002: 1
8efe03: 1
8efcc4: 1
8efc82: 1
8efb06: 1
8efac0: 1
b4aed2: 1
f342c0: 1
8efa82: 1
f347c7: 1
f34282: 1
927481: 1
8ef9c0: 1
8ef945: 1
8ef881: 1
927280: 1
14fbf06: 1
8ef860: 1
14faa01: 1
14fa943: 1
14fa901: 1
8e9e01: 1
50aac2: 1
14fad02: 1
4eb482: 1
14fabd6: 1
9170c1: 1
14fab45: 1
9238c0: 1
14faa94: 1
8f0301: 1
14f9ac4: 1
8e9ee6: 1
14fc8c5: 1
f361c0: 1
8ef5c0: 1
8e9dc0: 1
51b404: 1
4de246: 1
8f0207: 1
8f0104: 1
932a40: 1
f348c3: 1
8effc7: 1
915fc0: 1
f36581: 1
f364f9: 1
f36501: 1
f36541: 1
916382: 1
916333: 1
916344: 1
916140: 1
9160c4: 1
916047: 1
916000: 1
f365c1: 1
915f42: 1
915a4e: 1
9159c1: 1
915981: 1
915942: 1
9158e0: 1
f36283: 1
f36245: 1
f36201: 1
f36181: 1
f36101: 1
90b2d0: 1
90b640: 1
90b602: 1
90b5c0: 1
90b583: 1
90b542: 1
90b4c6: 1
90b481: 1
90b444: 1
90b400: 1
90b3c2: 1
90b345: 1
f36141: 1
90b286: 1
90b240: 1
90b203: 1
90b1c1: 1
90b180: 1
90b102: 1
90b0c2: 1
90b085: 1
90b046: 1
90af50: 1
91a741: 1
9167c3: 1
f360c1: 1
f36085: 1
916766: 1
f35fc3: 1
91acc6: 1
91ac86: 1
91a8c0: 1
91a841: 1
91a801: 1
91a780: 1
916800: 1
91a700: 1
91a640: 1
91a605: 1
91a5c7: 1
91a584: 1
91a505: 1
91a480: 1
91a406: 1
91a3c0: 1
91a386: 1
91a350: 1
916c41: 1
917040: 1
916fc6: 1
916f82: 1
916f01: 1
916ec3: 1
916e41: 1
916dc4: 1
916d86: 1
916d42: 1
916d01: 1
916cc0: 1
4eb081: 1
916bc1: 1
916b43: 1
916b02: 1
916a40: 1
916a01: 1
916941: 1
916901: 1
9168c2: 1
916880: 1
916842: 1
931142: 1
932583: 1
f34406: 1
932540: 1
936582: 1
8efbc3: 1
932502: 1
927584: 1
932480: 1
932301: 1
8ef984: 1
f34184: 1
930285: 1
9322c1: 1
932285: 1
933241: 1
512454: 1
922b04: 1
9320c2: 1
932042: 1
927083: 1
1516fa3: 1
925d42: 1
14fa2d0: 1
932940: 1
932e81: 1
932dc0: 1
14f98c8: 1
932c80: 1
50adc2: 1
932c42: 1
51b3c1: 1
930742: 1
932a07: 1
4f9783: 1
9329c5: 1
931ec1: 1
932900: 1
4f9603: 1
92d082: 1
9304c2: 1
4ec2c0: 1
9327c0: 1
932781: 1
50a8c1: 1
932643: 1
9325c0: 1
936643: 1
936803: 1
9367c0: 1
b6d451: 1
933305: 1
936702: 1
4ecd41: 1
8efd02: 1
9366c1: 1
f38544: 1
925f84: 1
936681: 1
8efe44: 1
936481: 1
930d40: 1
91adc6: 1
9363a0: 1
917ac1: 1
f38187: 1
90af81: 1
915f3e: 1
508c87: 1
931244: 1
f38141: 1
f38204: 1
931e81: 1
8ef4c7: 1
4dd505: 1
4f7101: 1
931e05: 1
931d44: 1
931d01: 1
f38347: 1
529cc1: 1
f38306: 1
14fc342: 1
50b085: 1
936c03: 1
936bc0: 1
936b80: 1
926482: 1
91b4c5: 1
936a00: 1
931205: 1
92ba46: 1
936980: 1
936842: 1
f385c4: 1
14fa200: 1
1516544: 1
14fa042: 1
4ea7c2: 1
917104: 1
929d80: 1
92d100: 1
92d040: 1
14f9f50: 1
8efd40: 1
f38601: 1
918d06: 1
930100: 1
9300c1: 1
b73cc5: 1
92ffc0: 1
931500: 1
926582: 1
931400: 1
9313c6: 1
931342: 1
9312c4: 1
936a83: 1
a5c1c0: 1
4eb041: 1
14fa7c0: 1
512202: 1
14fa747: 1
b67a00: 1
518282: 1
15134c8: 1
14fa6c3: 1
9184c0: 1
a5c2c3: 1
4eb341: 1
93901e: 1
a5c184: 1
a5c104: 1
1515c80: 1
14fa500: 1
8efb43: 1
b74298: 1
b679c1: 1
4f6740: 1
14fa280: 1
a5c0c0: 1
930170: 1
52a4c8: 1
930644: 1
4f73c0: 1
930581: 1
52a1c6: 1
930481: 1
a5f784: 1
a5c204: 1
930241: 1
930200: 1
930181: 1
4ec7c0: 1
f38405: 1
930304: 1
f38380: 1
b74942: 1
92fec4: 1
14fc745: 1
9330c0: 1
933042: 1
932f43: 1
91ac02: 1
8eae00: 1
9311c0: 1
936940: 1
92ff82: 1
931101: 1
92ff42: 1
9310c1: 1
936880: 1
52a042: 1
931043: 1
930e41: 1
936600: 1
14f9443: 1
930d82: 1
f383c4: 1
92b5c3: 1
930c02: 1
f38244: 1
91ac46: 1
930bc0: 1
930ac0: 1
508c02: 1
930a03: 1
1516da5: 1
518a43: 1
14fa450: 1
9331c0: 1
4de601: 1
1515cc5: 1
14f9981: 1
928b44: 1
518b03: 1
4ec082: 1
ac4640: 1
52a945: 1
50b1c0: 1
15156c3: 1
4ebd45: 1
92f880: 1
4f7285: 1
924902: 1
8f0082: 1
932f83: 1
1515bc7: 1
14f9ec5: 1
4de786: 1
508680: 1
930402: 1
8efe85: 1
14fc300: 1
930043: 1
932341: 1
1513582: 1
f36641: 1
8efa41: 1
936400: 1
930c41: 1
91b440: 1
939141: 1
8df541: 1
15135c1: 1
b761ec: 1
926080: 1
14f99c0: 1
923385: 1
92e342: 1
f362c0: 1
15d65c3: 1
926301: 1
92a3c3: 1
14faa42: 1
8f0181: 1
4eb1c2: 1
1626430: 1
4eb742: 1
a5c282: 1
4ecc12: 1
92dfc1: 1
1515983: 1
90ce40: 1
8ef205: 1
5094c3: 1
511404: 1
91b485: 1
9264c1: 1
15174c1: 1
924b81: 1
930986: 1
91b0c2: 1
1626742: 1
14fa644: 1
8df081: 1
4f7b03: 1
925180: 1
928540: 1
92fa40: 1
924ac2: 1
936b40: 1
15155c3: 1
1516500: 1
4e5e06: 1
918c42: 1
90cc10: 1
b47880: 1
932887: 1
4deb81: 1
4f76b1: 1
926640: 1
4ec645: 1
928442: 1
ae9f81: 1
50b482: 1
507fc1: 1
939601: 1
91b900: 1
91afc2: 1
930783: 1
529505: 1
51f4c1: 1
91b587: 1
4de346: 1
b768c2: 1
939700: 1
9321c1: 1
14fc1c0: 1
aeaaed: 1
14f9900: 1
923c01: 1
1513845: 1
917bc0: 1
90b001: 1
1516440: 1
90b500: 1
4eb505: 1
14fa3c0: 1
4eab40: 1
90b306: 1
52a282: 1
915900: 1
1515d82: 1
936541: 1
8efb82: 1
932244: 1
1626220: 1
932100: 1
4de283: 1
dead0e: 1
936a45: 1
14fc904: 1
52a242: 1
518807: 1
ac0c60: 1
92cf00: 1
5116c7: 1
91a7c2: 1
91a902: 1
8eff86: 1
8df340: 1
512986: 1
932981: 1
9242c0: 1
930800: 1
1513641: 1
932401: 1
92e0c1: 1
ac4683: 1
928302: 1
932e06: 1
518a06: 1
932442: 1
8efdc4: 1
932741: 1
9277c3: 1
919fe0: 1
926941: 1
509012: 1
93a436: 1
4db802: 1
16263a0: 1
933100: 1
50b242: 1
8efa07: 1
a97481: 1
1513ac2: 1
933085: 1
9176c1: 1
9309c2: 1
508c40: 1
f34a43: 1
511141: 1
46f700: 1
917d82: 1
528340: 1
9301c4: 1
5118c7: 1
8ef640: 1
166a217: 1
f38001: 1
925a41: 1
1626681: 1
928783: 1
b76200: 1
52aa01: 1
9323c1: 1
4ecd00: 1
9269c1: 1
b76284: 1
92f407: 1
927680: 1
528b01: 1
52a181: 1
f34885: 1
f34686: 1
926183: 1
15138c1: 1
926740: 1
929e02: 1
529f44: 1
9275c0: 1
9306c0: 1
92d243: 1
91a4c2: 1
92f644: 1
932681: 1
528600: 1
930ec5: 1
4eb442: 1
929e85: 1
1517882: 1
f35342: 1
92fb00: 1
91aec0: 1
1513682: 1
930f01: 1
51a9a1: 1
91b380: 1
922bc2: 1
518b80: 1
917c44: 1
928641: 1
4ed210: 1
ac0cc1: 1
92a302: 1
926d40: 1
4db7c1: 1
529f07: 1
926fc0: 1
528701: 1
918540: 1
924e82: 1
dea6c1: 1
f37fc3: 1
b74901: 1
91ae01: 1
92e201: 1
51a604: 1
919882: 1
14facc1: 1
14f9410: 1
4f6283: 1
5286c2: 1
92e2c2: 1
508001: 1
91abf2: 1
92a700: 1
b75602: 1
4f9342: 1
f34dc0: 1
1515a83: 1
51c8c2: 1
931581: 1
932700: 1
92f841: 1
9368c0: 1
4e5e80: 1
529084: 1
8df303: 1
4ebec6: 1
50a983: 1
4ecc82: 1
511801: 1
511707: 1
14fab99: 1
4ebb45: 1
930501: 1
b75581: 1
1515f4d: 1
931440: 1
9302c1: 1
9169c1: 1
1626582: 1
925e82: 1
92d0c2: 1
50a9c3: 1
b76e9c: 1
930e83: 1
91af02: 1
8df500: 1
91a6c1: 1
92d405: 1
1626447: 1
14f95d6: 1
4ea582: 1
14fc142: 1
4f7180: 1
924587: 1
92f547: 1
9189c2: 1
916780: 1
92e1c0: 1
928a01: 1
518880: 1
1517dc6: 1
90cc83: 1
b748c1: 1
dea681: 1
14fab00: 1
929d47: 1
931181: 1
9261c4: 1
1513902: 1
4eb400: 1
1515743: 1
4ec6e6: 1
512300: 1
528b43: 1
507040: 1
923f80: 1
14fa340: 1
1516684: 1
ac45c1: 1
938703: 1
50b503: 1
931482: 1
14fac00: 1
929dc3: 1
939802: 1
46f6e0: 1
91a440: 1
92d184: 1
9279c5: 1
8ef8c4: 1
918fc0: 1
92cf42: 1
512586: 1
4f6242: 1
927142: 1
8df001: 1
4f9644: 1
14fbe80: 1
932ec7: 1
9397c1: 1
14fbdc0: 1
923e02: 1
925701: 1
8efd84: 1
4dee85: 1
92e005: 1
51c881: 1
508342: 1
4ea641: 1
932601: 1
918947: 1
938642: 1
92f802: 1
f38042: 1
925981: 1
91a100: 1
8defc2: 1
1515e81: 1
928d00: 1
9185c3: 1
4eb941: 1
14f9dc1: 1
92a384: 1
14fa010: 1
14fa4c0: 1
1510250: 1
4ea9c0: 1
5086c1: 1
925601: 1
151543a: 1
b75c03: 1
14fae86: 1
b748a0: 1
917981: 1
1513985: 1
ac0d45: 1
926ac5: 1
926341: 1
92a681: 1
f35d0a: 1
924fc1: 1
932e48: 1
8ef7c4: 1
14fc785: 1
f34144: 1
4ec705: 1
f37f46: 1
14f9f90: 1
8df043: 1
917b43: 1
4f95c1: 1
ac0f02: 1
93a441: 1
925a82: 1
1515e40: 1
928481: 1
928bc1: 1
9271c2: 1
1515d42: 1
918ac4: 1
a97587: 1
927201: 1
917001: 1
92ba3e: 1
15159c8: 1
14f9942: 1
8df0c2: 1
ac4585: 1
1515580: 1
936c42: 1
8f0283: 1
528482: 1
4eca80: 1
511dc4: 1
8e6500: 2
8e6d00: 2
8e7284: 2
8eaf42: 2
8e8348: 2
8e71cb: 2
1668901: 2
deb100: 2
8e9c80: 2
8ead40: 2
8e88c0: 2
8e7384: 2
8e7656: 2
8e9502: 2
8e9c42: 2
8e72c0: 2
166bd42: 2
8e9bc4: 2
8e6382: 2
8eaec0: 2
8e94f6: 2
8e9864: 2
8e6440: 2
8e7485: 2
deb0d2: 2
8ea740: 2
1674400: 2
8e9202: 2
8e6484: 2
8e85c2: 2
8e8602: 2
166a35c: 2
8e7540: 2
8e6823: 2
8e7341: 2
8e84c0: 2
8e9f43: 2
8e8483: 2
8e8761: 2
8e91c0: 2
8ea202: 2
deb441: 2
8e9f03: 2
8eac84: 2
1674484: 2
8e9c00: 2
8e74c2: 2
1669c05: 2
8e8882: 2
8e9282: 2
8e63c2: 2
8e87c3: 2
8e86c0: 2
8e7442: 2
8e8841: 2
8e8380: 2
dea5c2: 2
8e8641: 2
8e7405: 2
8e9240: 2
dea5b0: 2
8e8682: 2
8e7582: 2
8ead81: 2
8e7602: 2
8e8541: 2
8e9cc2: 2
8e6402: 2
8e7e98: 2
8ea1f6: 2
8e9d03: 2
8e7242: 2
1669bc0: 2
166a09f: 2
8e75c2: 2
8e8582: 2
8e9d41: 2
8e8800: 2
8e73c2: 2
8e6340: 2
8e9d82: 2
deb437: 2
8e8401: 2
8e8442: 2
8eae9c: 2
8e8703: 2
8eadc1: 2
8e9e43: 2
8ead02: 2
8e83c2: 2
8e9e80: 2
8eacc0: 2
8e8500: 2
8eb396: 2
1669ed0: 2
8e7501: 2
dead81: 2
8eaf02: 2
8e64c7: 2
915886: 3
150dc80: 3
1669e40: 3
150dc00: 3
166a4c0: 3
f2e845: 3
1669dc1: 3
914e00: 3
f2ec41: 3
f2f3c0: 3
915384: 3
f2f7c6: 3
f31981: 3
150e702: 3
150d804: 3
f31b84: 3
f2ed06: 3
150da42: 3
f328d0: 3
f2f2c0: 3
150d8c2: 3
914dc4: 3
915741: 3
150e847: 3
915701: 3
f32dc1: 3
f2e707: 3
f31a05: 3
f33128: 3
f2ea43: 3
f2f206: 3
f31b41: 3
150e982: 3
f2eb05: 3
913f40: 3
9154c2: 3
f32a43: 3
f32cc1: 3
f2f440: 3
150dd80: 3
150dcc0: 3
f31aea: 3
f2e985: 3
150e880: 3
f31c83: 3
f32a84: 3
f2ec82: 3
f31dc1: 3
915400: 3
f31901: 3
f32e40: 3
f2e884: 3
150de90: 3
f2eec4: 3
f2ecc2: 3
150d882: 3
150db80: 3
f2e945: 3
f329c4: 3
f2ea01: 3
f2ef02: 3
f2edc2: 3
f2eb40: 3
f2ed42: 3
915443: 3
914d40: 3
9153c1: 3
f2eb81: 3
150df05: 3
f32ac5: 3
1668830: 3
912440: 3
150d4c0: 3
f2e746: 3
f2f104: 3
f3329b: 3
9124c3: 3
f2ef81: 3
913202: 3
1668880: 3
150ea01: 3
f2ee83: 3
f2f4c2: 3
915100: 3
f31d42: 3
f31c01: 3
150dd10: 3
f2e7c1: 3
f2f400: 3
914ec4: 3
914f40: 3
150e8c4: 3
150dec0: 3
f31c45: 3
f32d80: 3
f32b50: 3
915846: 3
f32984: 3
915283: 3
f2ee41: 3
f32b03: 3
f31d83: 3
150ddd0: 3
9131c2: 3
f2f1c0: 3
9151c2: 3
f2f386: 3
f2ec02: 3
f2f480: 3
f31cc3: 3
914e81: 3
f32d01: 3
150d744: 3
914e42: 3
f2f700: 3
f2ea82: 3
150d982: 3
f31b01: 3
f32a04: 3
915202: 3
f2e8cb: 3
150e9c2: 3
9158c1: 3
1669e0e: 3
915480: 3
150d703: 3
f2f240: 3
f2f742: 3
f32901: 3
914f00: 3
915241: 3
150d902: 3
f32d41: 3
150dac2: 3
16744c0: 3
150da83: 3
f2e901: 3
f31d02: 3
166a748: 3
f31942: 3
150de00: 3
914d01: 3
9152c6: 3
9157c2: 3
f2ebc7: 3
150d942: 3
913f2f: 3
f2e9c7: 3
150d4ab: 3
150e800: 3
915802: 3
1669f04: 3
912487: 3
914d82: 3
f2f286: 3
150de40: 3
914f82: 3
150db40: 3
f2ef43: 3
f319c8: 3
f2ee01: 3
913f86: 3
f32c83: 3
150e7c6: 3
f32944: 3
1674450: 3
150d842: 3
f2eac0: 3
f32e02: 3
150dc5a: 3
f32c50: 3
150dbd0: 3
f332c0: 3
150d9c2: 3
1669cf8: 3
f31a85: 3
f2e801: 3
9123d0: 3
166a25f: 3
913131: 3
150e942: 3
166a481: 3
f31a41: 3
f2ed80: 3
912401: 3
150e902: 3
1669245: 3
150dd40: 3
150d7c0: 3
150ea41: 3
150e744: 3
f31bc5: 3
150da02: 3
503bc5: 4
5038de: 4
8dec83: 4
8df2c2: 4
508244: 4
901b80: 4
507382: 4
f2f880: 4
4f98c2: 4
4f9b82: 4
503f84: 4
503a40: 4
4f9a02: 4
504388: 4
5074c2: 4
f2fc80: 4
508286: 4
507d80: 4
503c81: 4
1668b90: 4
4f92c4: 4
f2f9c0: 4
4f9881: 4
f3188b: 4
4f93c3: 4
f2fb83: 4
503b02: 4
4f7f4e: 4
f2fd40: 4
503e84: 4
4f9a44: 4
501285: 4
1668d45: 4
150ed01: 4
503a02: 4
506e46: 4
507b41: 4
4f9900: 4
507740: 4
f2fb04: 4
4f8882: 4
507980: 4
150ed42: 4
5043c0: 4
506f80: 4
508480: 4
506cc0: 4
4f7cc5: 4
4f9285: 4
504444: 4
f2fdc5: 4
8df282: 4
507e02: 4
507bc5: 4
503b80: 4
507a45: 4
507a02: 4
8dee80: 4
506b10: 4
4f7e45: 4
f2fa04: 4
503d43: 4
508984: 4
4f7dc1: 4
4f9201: 4
507842: 4
150eb04: 4
507803: 4
1669f78: 4
8debc2: 4
503dc2: 4
166884f: 4
507e43: 4
4f9844: 4
8deac0: 4
4f9482: 4
150ecc0: 4
901c87: 4
503f41: 4
1669f83: 4
4f99c1: 4
1668d19: 4
8dea30: 4
4f94c2: 4
5011c0: 4
506d02: 4
50124c: 4
4f88c0: 4
8dec04: 4
8df442: 4
503983: 4
8ded41: 4
f2fa84: 4
508905: 4
508941: 4
8def00: 4
507d00: 4
f2fd01: 4
506ec2: 4
5012c2: 4
5041c1: 4
508805: 4
504201: 4
150ec45: 4
150eb84: 4
f2fbc3: 4
507d42: 4
506e81: 4
4f9380: 4
166a203: 4
f2fc42: 4
f2f944: 4
4f7d80: 4
503c06: 4
f2fc07: 4
503e00: 4
508a07: 4
1668700: 4
4f9443: 4
503f01: 4
4f91de: 4
8df1c2: 4
508443: 4
507ec2: 4
f2fe85: 4
8df401: 4
4f8801: 4
4f8981: 4
4f9983: 4
8deb02: 4
508404: 4
8deb41: 4
8ded82: 4
508383: 4
4f7c46: 4
503d02: 4
4f7c80: 4
508886: 4
901d01: 4
8df101: 4
8deb81: 4
503942: 4
507102: 4
1668743: 4
507200: 4
166c3ca: 4
4f83d5: 4
5088c0: 4
901bc6: 4
8df200: 4
f2fe05: 4
f2f985: 4
8df3c2: 4
5081c0: 4
4f87da: 4
5084c0: 4
507883: 4
8decc0: 4
506f40: 4
507400: 4
501201: 4
901cc0: 4
5079c2: 4
166c390: 4
5078c0: 4
507f02: 4
150ec81: 4
4f7c00: 4
150eac0: 4
8deec2: 4
503cc2: 4
506d82: 4
4f9b40: 4
506e05: 4
507ac0: 4
507f40: 4
4f9240: 4
507c85: 4
8df480: 4
507c06: 4
5074b0: 4
503ac5: 4
507e81: 4
507f80: 4
1669d81: 4
4f9bc3: 4
150ec02: 4
507c40: 4
506dc4: 4
507b82: 4
507cc6: 4
166bd89: 4
5072e9: 4
4f9740: 4
4f9a80: 4
507243: 4
5039c7: 4
f2fb40: 4
4f97c2: 4
507286: 4
8df243: 4
150eb42: 4
f2f900: 4
8dee01: 4
506f00: 4
4f7d44: 4
4f7d04: 4
150ebc5: 4
503e46: 4
4f7f84: 4
504107: 4
f2fe44: 4
8dec41: 4
150ed81: 4
8def82: 4
504400: 4
8dedc0: 4
506b80: 4
f2f842: 4
4f9940: 4
8dee42: 4
503c42: 4
4f8979: 4
4f9700: 4
f2fd81: 4
f2f801: 4
4f9b00: 4
507441: 4
506d41: 4
503a87: 4
503900: 4
506b43: 4
8df382: 4
4f7e07: 4
508702: 4
8dea86: 4
508844: 4
4f9402: 4
1668942: 4
507a81: 4
f2fac0: 4
4f9801: 4
14b0df0: 4
f318c1: 4
506c42: 4
504240: 4
5082c1: 4
5087c7: 4
8dea41: 4
508203: 4
4f8840: 4
5089c7: 4
503ec2: 4
5071c6: 4
5077c0: 4
506bf2: 4
f2f8c2: 4
507942: 4
503d83: 4
503b42: 4
8def41: 4
8ded01: 4
5042c0: 4
507700: 4
f2fcc2: 4
f2fa41: 4
507dc0: 4
150edc2: 4
506c84: 4
901c43: 4
508743: 4
507b03: 4
507902: 4
501496: 4
901c02: 4
5073c1: 4
504282: 4
506c01: 4
4f9ac2: 4
508102: 4
5083c3: 4
8df4c0: 4
4f89c4: 4
166a1ec: 5
166ae8d: 5
166a430: 5
1668983: 5
1668eff: 5
1668f03: 5
1669c79: 5
166a442: 5
1668bc1: 6
166a38c: 6
1668c80: 6
166a2c2: 6
166a3c5: 6
16688f0: 6
1669c80: 6
166a280: 6
1668c68: 6
166ac1f: 6
166acbb: 7
1669d41: 7
166bd10: 7
166acc5: 7
1669d03: 7
166ac40: 7
BTB TOTAL     ACCESS:    8324261  HIT:    8322678  MISS:       1583  HIT %:     99.981  MISS %:  0.0190167   MPKI: 0.007915
BTB Test counter:          0
BTB BRANCH_DIRECT_JUMP	ACCESS:     290669  HIT:     290546  MISS:        123
BTB BRANCH_INDIRECT	ACCESS:         14  HIT:          6  MISS:          8
BTB BRANCH_CONDITIONAL	ACCESS:    7471641  HIT:    7470905  MISS:        736
BTB BRANCH_DIRECT_CALL	ACCESS:     280969  HIT:     280663  MISS:        306
BTB BRANCH_INDIRECT_CALL	ACCESS:          0  HIT:          0  MISS:          0
BTB BRANCH_RETURN	ACCESS:     280968  HIT:     280558  MISS:        410
BTB BRANCH_OTHER ACCESS:          0  HIT:          0  MISS:          0

L2C TOTAL     ACCESS:    3712147  HIT:    1817162  MISS:    1894985  HIT %:    48.9518  MISS %:    51.0482   MPKI: 9.47493
L2C Test counter:          0
L2C LOAD      ACCESS:     366688  HIT:     135035  MISS:     231652  HIT %:    36.8256  MISS %:    63.1744   MPKI: 1.15827
L2C DATA LOAD MPKI: 1.13427
L2C INSTRUCTION LOAD MPKI: 0.02399
L2C RFO       ACCESS:     425277  HIT:      60589  MISS:     364688  HIT %:    14.2469  MISS %:    85.7531   MPKI: 1.82344
L2C PREFETCH  ACCESS:    2025562  HIT:     731857  MISS:    1293705  HIT %:    36.1311  MISS %:    63.8689   MPKI: 6.46852
L2C DATA PREFETCH MPKI: 6.46852
L2C INSTRUCTION PREFETCH MPKI: 0
L2C WRITEBACK ACCESS:     879046  HIT:     876650  MISS:       2396  HIT %:    99.7274  MISS %:   0.272568   MPKI: 0.01198
L2C LOAD TRANSLATION ACCESS:      15574  HIT:      13031  MISS:       2543  HIT %:    83.6715  MISS %:    16.3285   MPKI: 0.012715
L2C PREFETCH  REQUESTED:          0  ISSUED:          0  USEFUL:      57026  USELESS:    1234118
L2C USEFUL LOAD PREFETCHES:      57026 PREFETCH ISSUED TO LOWER LEVEL:    1306569  ACCURACY: 4.36456
L2C TIMELY PREFETCHES:      57026 LATE PREFETCHES: 12861 DROPPED PREFETCHES: 0
L2C COMMIT LATE PREFETCHES: 0 MISSED OPPORTUNITY: 0 LATE IN PQ: 0 UNCOVERED: 0
L2C COMMIT LATE MSHR PREFETCHES: 0
L2C MPKI TOTAL: 1.15826 MSHR LATE: 0.064305 PQ LATE: 0 COMMIT LATE: 0 MISSED OPPORTUNITY: 0 UNCOVERED: 0
L2C PREFETCHES SAME FILL-ORIGIN LEVEL: 113520 DIFFERENT FILL-ORIGIN LEVEL: 0
L2C AVERAGE MISS LATENCY: 205.533 cycles
L2C AVERAGE MISS LATENCY LOAD: 209.102 cycles
L2C AVERAGE MISS LATENCY PREFETCH: 170.501 cycles
L2C AVERAGE MSHR OCCUPANCY: 5.55529
L2C MSHR FULL: 4.21018e-05
L2C RQ	ACCESS:     807542	FORWARD:          0	MERGED:          0	TO_CACHE:     807538
L2C WQ	ACCESS:     879046	FORWARD:         70	MERGED:          0	TO_CACHE:     879046
L2C PQ	ACCESS:    2086179	FORWARD:          0	MERGED:         30	TO_CACHE:    2086083

L2C Instructions Evicting Data 4793
L2C Translations Evicting Data 2533
L2C Data Evicting Data 1877939
L2C Instructions Evicting Instructions 0
L2C Translations Evicting Instructions 9
L2C Data Evicting Instructions 4792
L2C Instructions Evicting Translations 5
L2C Translations Evicting Translations 1
L2C Data Evicting Translations 2517
L2C Dense regions hint from L2: 0
14fac46: 1
1626242: 1
938780: 1
523742: 1
529da4: 1
14fa1c0: 1
91cfeb: 1
f3457d: 1
4eb683: 1
f344b5: 1
ac0d81: 1
51c000: 1
f3448c: 1
f345c3: 1
528306: 1
930a6c: 1
f343f1: 1
15170e5: 1
f343b8: 1
925f84: 1
f3429e: 1
14fa3f8: 1
f3424a: 1
52aac2: 1
51b00e: 1
f341c7: 1
4db6c1: 1
1626681: 1
1515484: 1
f34857: 1
f34791: 1
f34780: 1
4f6843: 1
f3473f: 1
f34701: 1
511a01: 1
91ba82: 1
aeb757: 1
90cc5c: 1
8ef503: 1
f34671: 1
f34640: 1
16267b8: 1
5116c7: 1
92df93: 1
f34605: 1
916e07: 1
f34601: 1
928c81: 1
4eaf85: 1
dea601: 1
927b86: 1
14fc5c5: 1
14fc785: 1
f37f46: 1
924fc1: 1
4ded43: 1
ae9f41: 1
91ba66: 1
14fc705: 1
924003: 1
f37ec6: 1
52a003: 1
14fc6c5: 1
14fc605: 1
14fc745: 1
14fc50d: 1
5284c4: 1
14fc585: 1
51b433: 1
15173f3: 1
b761ec: 1
14fc48d: 1
4eb1c2: 1
923345: 1
92e302: 1
529e43: 1
508b43: 1
1626481: 1
f352b9: 1
925941: 1
f34100: 1
1516640: 1
92d282: 1
501180: 1
1517882: 1
f35342: 1
91bac1: 1
52a540: 1
924101: 1
a97f00: 1
f3485f: 1
16262ba: 1
1513560: 1
f34090: 1
ac0dc0: 1
14fc8c5: 1
14fc845: 1
14fc7c5: 1
15186d5: 1
529046: 1
925001: 1
4eb8c2: 1
1517901: 1
51a685: 1
4dec83: 1
91ac02: 1
166a0c1: 1
50b085: 1
92e0c1: 1
1515a83: 1
922c04: 1
14fa3c8: 1
1669e8a: 1
511181: 1
14f9c00: 1
14faa9f: 1
1515fe6: 1
4f9682: 1
4db981: 1
932f26: 1
51a503: 1
936643: 1
915900: 1
1515d82: 1
4f75c0: 1
528005: 1
51a4c1: 1
518a06: 1
523728: 1
a5c184: 1
dea6c1: 1
926d04: 1
4ec23e: 1
8df001: 1
938642: 1
1517621: 1
4ec6e6: 1
14fa644: 1
8ef205: 1
523782: 1
508cf6: 1
f34291: 1
14f9fb0: 1
51a6db: 1
51a691: 1
50ab83: 1
51a6c2: 1
51a671: 1
919ac9: 1
90b542: 1
14fbe2c: 1
917903: 1
151646a: 1
931043: 1
926140: 1
92e087: 1
f34a2b: 1
9233c1: 1
14faa6c: 1
52a945: 1
15156c3: 1
50b1c0: 1
f349ea: 1
16264ff: 1
14fab08: 1
4ebaf0: 1
511102: 1
14fa0e3: 1
51c080: 1
916c8e: 1
14fc645: 1
f349fb: 1
509884: 1
901b18: 1
901adb: 1
b73bf0: 1
f3490c: 1
1516487: 1
4dbf04: 1
f381f4: 1
51c2c7: 1
51a480: 1
b6a722: 1
f347f8: 1
4ea601: 1
926ec5: 1
924501: 1
f34d82: 1
a97e00: 1
f34d02: 1
f34cc2: 1
924a82: 1
14fc246: 1
518601: 1
f34c42: 1
1515c43: 1
92e281: 1
927dc4: 1
92feb0: 1
150d77b: 1
f34a53: 1
528d80: 1
f34a4b: 1
512a44: 1
916047: 1
14fc103: 1
14fab35: 1
8df043: 1
8f0384: 1
512300: 1
504004: 1
919042: 1
9288c4: 1
529800: 1
8e837d: 1
8f0104: 1
8f0347: 1
919982: 1
5290fc: 1
919005: 1
4ded06: 1
8eae70: 1
1513601: 1
8eae00: 1
8f02c4: 1
14f9dc1: 1
f34a43: 1
511707: 1
15134d0: 1
930644: 1
8f0243: 1
1515ed2: 1
14fa018: 1
508cc5: 1
f35c97: 1
14fad02: 1
14facc1: 1
918540: 1
91596b: 1
14f9a07: 1
14fac51: 1
14f9fe0: 1
1669eff: 1
918c86: 1
91ad95: 1
14f9942: 1
14fac10: 1
4eb400: 1
930e83: 1
14fac80: 1
14fac00: 1
14fabd6: 1
14fab6f: 1
930241: 1
51ac45: 1
14fab67: 1
51c874: 1
8efd71: 1
91b3c1: 1
92e105: 1
ae9f81: 1
f34555: 1
4f68c3: 1
50b482: 1
8f0000: 1
8eff45: 1
1517145: 1
91a7c2: 1
8efe85: 1
8efe03: 1
f34800: 1
926fc0: 1
1517934: 1
4ebd70: 1
4ea841: 1
f3454d: 1
8f0301: 1
8efd40: 1
8efcc4: 1
91d00c: 1
4ed503: 1
528f05: 1
927f06: 1
1515501: 1
14fa2e0: 1
529280: 1
927ac5: 1
8f01c4: 1
8f0181: 1
528180: 1
1515903: 1
936b40: 1
14fa248: 1
8f0142: 1
14f98c8: 1
936b01: 1
4eb482: 1
932d80: 1
916e80: 1
506ff8: 1
52ab00: 1
518142: 1
918e00: 1
b76e9c: 1
b75581: 1
8f013a: 1
8f0040: 1
f346c8: 1
50b101: 1
90cc10: 1
51c5e5: 1
14fc1c0: 1
14fc181: 1
931fc2: 1
14fc142: 1
901ac0: 1
925fc1: 1
8ef110: 1
1518250: 1
14fc0c4: 1
92a4c0: 1
f34846: 1
9390c0: 1
51c180: 1
14fc0a2: 1
50b164: 1
14fc080: 1
14fc041: 1
92fb40: 1
1626551: 1
14fc002: 1
512100: 1
529f44: 1
917001: 1
4db680: 1
91b773: 1
14fc505: 1
4db87f: 1
91ae96: 1
14fbfe5: 1
14fc4c5: 1
14fc485: 1
f38318: 1
529505: 1
14fc445: 1
14fc3c5: 1
8ef640: 1
14fbfd0: 1
14fc2c6: 1
92a602: 1
14fc283: 1
901b34: 1
1516500: 1
14f99ab: 1
4e5e06: 1
1515f2b: 1
4ec902: 1
16264e0: 1
f36129: 1
92a01d: 1
14faf44: 1
4f69c2: 1
14faf03: 1
14faec2: 1
936442: 1
508b6c: 1
14fae03: 1
92f802: 1
f348a9: 1
528782: 1
4e5e41: 1
92f5cd: 1
4eb6c4: 1
1515e40: 1
ac4585: 1
14fae44: 1
14fad83: 1
4e5d04: 1
936744: 1
528681: 1
14fad43: 1
90b306: 1
8ef904: 1
9173c7: 1
92d341: 1
51c4d8: 1
14fbfc3: 1
8f0082: 1
f3859d: 1
14fbf84: 1
14fbf52: 1
512986: 1
932981: 1
52abed: 1
14fbf06: 1
8df340: 1
926183: 1
15138c1: 1
5237c5: 1
91a4c2: 1
918ba7: 1
92301c: 1
f34686: 1
919882: 1
930384: 1
9253c7: 1
9397c1: 1
51c881: 1
508342: 1
4ea641: 1
924b40: 1
14fa845: 1
90afc0: 1
4eafc5: 1
52a742: 1
4ed543: 1
52a701: 1
916a81: 1
924ec7: 1
4ea401: 1
52a5cd: 1
92ffc0: 1
f3488f: 1
923081: 1
52a680: 1
f34942: 1
a5c282: 1
4ecc12: 1
92f902: 1
1513795: 1
14faa9c: 1
4ebb05: 1
4f6ac2: 1
528dc0: 1
92fe71: 1
1626541: 1
4ebc8a: 1
52aa42: 1
52a9c0: 1
509216: 1
9171c7: 1
f34c82: 1
925682: 1
4f6d45: 1
52a900: 1
52a8c2: 1
939141: 1
90cd83: 1
14fbddc: 1
52a442: 1
4ed429: 1
1517dc6: 1
518880: 1
52a881: 1
52a842: 1
52a800: 1
1515843: 1
916b80: 1
52a7c5: 1
4ea2df: 1
931f0c: 1
16266c4: 1
512483: 1
4f7f73: 1
50e85e: 1
511a82: 1
529f19: 1
92a640: 1
4f7901: 1
a5f807: 1
4ded82: 1
92f7c2: 1
52946e: 1
93021e: 1
529484: 1
51a9c0: 1
939440: 1
92d131: 1
b73c42: 1
529401: 1
5293c2: 1
4db601: 1
1515f23: 1
4ed583: 1
529385: 1
511ac3: 1
529344: 1
92f480: 1
14fbffa: 1
528b43: 1
52a402: 1
51a9a1: 1
f346c4: 1
52a3c1: 1
f3844f: 1
529140: 1
4ebf82: 1
52a341: 1
92f547: 1
52a2c3: 1
f34585: 1
52ab40: 1
52a140: 1
52a106: 1
51c540: 1
52a0c1: 1
528984: 1
f35ec4: 1
15138b3: 1
51c0f4: 1
f34383: 1
8ef7c4: 1
924a41: 1
92fa40: 1
932d04: 1
51c348: 1
931386: 1
51c301: 1
928b04: 1
51c282: 1
1513a41: 1
506d62: 1
51b3c1: 1
4f6782: 1
15139c9: 1
51c203: 1
4ed281: 1
1515f55: 1
51c1c5: 1
509481: 1
918b87: 1
151529f: 1
b493c4: 1
f38515: 1
918985: 1
51c140: 1
51c105: 1
51c045: 1
a97683: 1
ae9df0: 1
939684: 1
51c5ea: 1
51c5cb: 1
927f43: 1
50b17e: 1
f3598c: 1
1516fc0: 1
9308c1: 1
51c682: 1
50b0c1: 1
ac0d45: 1
f36257: 1
51bf8a: 1
51c4c1: 1
51134c: 1
926542: 1
51c446: 1
511442: 1
1515c48: 1
4f85a5: 1
15d8100: 1
926441: 1
f35807: 1
50af82: 1
919205: 1
528701: 1
923301: 1
51a9be: 1
51a7c8: 1
51a7c0: 1
927882: 1
a98640: 1
9392c3: 1
923441: 1
924841: 1
52ad42: 1
52ad03: 1
52ace2: 1
9395c1: 1
52ac42: 1
90b444: 1
4f6fc7: 1
52ac01: 1
1517403: 1
1515702: 1
f346f9: 1
f35382: 1
52ab84: 1
8ef840: 1
92a780: 1
517e40: 1
92f4c1: 1
f35d5a: 1
51bf3d: 1
923f02: 1
91b001: 1
51b586: 1
92a158: 1
8ef9c0: 1
52a670: 1
51b41c: 1
51b383: 1
9303c1: 1
51aff1: 1
1515b46: 1
923385: 1
92e342: 1
4f6e84: 1
51ac06: 1
51abc4: 1
51ab9b: 1
4de981: 1
ac0ec1: 1
92f3c1: 1
a5c141: 1
91b8c0: 1
f352c6: 1
1517104: 1
9280c3: 1
528904: 1
5288c2: 1
930dc0: 1
528883: 1
528842: 1
5180c5: 1
f36101: 1
5287c0: 1
51a5c2: 1
92f600: 1
916c82: 1
927787: 1
932841: 1
511840: 1
528740: 1
932583: 1
f34406: 1
92d426: 1
14f9ac4: 1
b679b0: 1
f3533a: 1
5285c6: 1
508de3: 1
16267c1: 1
928dc6: 1
528bc5: 1
512000: 1
528b85: 1
5237f4: 1
528ac1: 1
932b42: 1
4eb884: 1
92a8c3: 1
14fa300: 1
92e0d1: 1
916c00: 1
932480: 1
90ce40: 1
14fac4a: 1
925b01: 1
8df142: 1
528a42: 1
1513929: 1
528a06: 1
f346d3: 1
5289c1: 1
528941: 1
50ac40: 1
92e005: 1
527ffe: 1
5094bc: 1
528141: 1
925400: 1
511581: 1
528106: 1
1626703: 1
14fabde: 1
51c701: 1
5280c6: 1
932147: 1
9268c2: 1
528080: 1
926281: 1
4de2c2: 1
4ec446: 1
525757: 1
523905: 1
923741: 1
a97540: 1
523880: 1
936500: 1
52a986: 1
523844: 1
5237bf: 1
528641: 1
929d11: 1
528582: 1
90b27d: 1
4ecb80: 1
528540: 1
919411: 1
50a8b1: 1
528507: 1
528441: 1
925981: 1
8defc2: 1
528400: 1
5283c2: 1
916082: 1
9251c0: 1
[...]
90b400: 1
927d41: 1
927d80: 1
91a4c2: 1
927e01: 1
927e43: 1
90b345: 1
927e80: 1
927ec3: 1
92301c: 1
928491: 1
f34686: 1
92e087: 1
927fc0: 1
927fa0: 1
927fd4: 1
927f8c: 1
1515e40: 1
ac4585: 1
928040: 1
928b81: 1
928880: 1
928903: 1
928983: 1
14fa644: 1
9289c4: 1
928a01: 1
928a43: 1
8ef205: 1
928a84: 1
928b44: 1
4f7901: 1
dea6c1: 1
928bc1: 1
8df001: 1
f381f4: 1
928c03: 1
928c41: 1
928d00: 1
928d82: 1
928d41: 1
929cad: 1
928503: 1
928540: 1
52a242: 1
928607: 1
928641: 1
929cc7: 1
9286c7: 1
925242: 1
928704: 1
51c4d8: 1
93666b: 1
f381c7: 1
528eb8: 1
928783: 1
92a640: 1
9288e6: 1
a5f807: 1
9287c0: 1
928841: 1
927700: 1
9274c2: 1
927506: 1
927544: 1
f36541: 1
927584: 1
9275c0: 1
929e02: 1
927600: 1
927641: 1
9276c0: 1
927445: 1
4ec705: 1
f37e80: 1
f36501: 1
f364f9: 1
512256: 1
4de704: 1
f36581: 1
5094c3: 1
90af50: 1
a97683: 1
927083: 1
9270c0: 1
927142: 1
916333: 1
927f43: 1
9271c2: 1
50b17e: 1
927201: 1
927246: 1
1515c43: 1
927280: 1
927300: 1
916382: 1
927340: 1
92a576: 1
9273c1: 1
f362a0: 1
927402: 1
928b04: 1
14fa2e0: 1
b75581: 1
f35e3a: 1
927a43: 1
927a80: 1
929dc3: 1
929d80: 1
90b2d0: 1
927ac5: 1
927b46: 1
91ad95: 1
927a06: 1
927bc2: 1
927c02: 1
90b81c: 1
927c40: 1
917001: 1
927cc0: 1
529280: 1
926183: 1
15138c1: 1
90b0f1: 1
90b046: 1
927740: 1
927787: 1
9277c3: 1
919882: 1
90b085: 1
90b0c2: 1
90b102: 1
9397c1: 1
924e40: 1
51c881: 1
90b180: 1
90b203: 1
518142: 1
90b240: 1
927945: 1
90b286: 1
9279c5: 1
b76e9c: 1
916800: 1
922b04: 1
15170e5: 1
922bc2: 1
92a582: 1
922c45: 1
8f00c3: 1
922cc1: 1
922c85: 1
922d01: 1
922d45: 1
922ac5: 1
1515843: 1
922d80: 1
922dc0: 1
922e00: 1
916842: 1
4ea2df: 1
92a540: 1
922e42: 1
931f0c: 1
91d000: 1
91bc02: 1
aeabc6: 1
5295bd: 1
91bb8f: 1
91bb94: 1
91bd33: 1
b76243: 1
91cfb9: 1
9396c4: 1
9167cd: 1
9167b6: 1
91cfdf: 1
14f9a85: 1
1517dc6: 1
91cfd4: 1
518880: 1
91d045: 1
919205: 1
922a81: 1
916bc1: 1
92a3c3: 1
916047: 1
92a342: 1
924a00: 1
14fa0e3: 1
916c00: 1
16267c1: 1
916941: 1
92a296: 1
92a402: 1
92f547: 1
918501: 1
926701: 1
9235c1: 1
924ec7: 1
923644: 1
4ea401: 1
923604: 1
923681: 1
923186: 1
922e86: 1
922f07: 1
923002: 1
916880: 1
922ff9: 1
9230c2: 1
923144: 1
923014: 1
923101: 1
928681: 1
923202: 1
9231c6: 1
923243: 1
923281: 1
9232c1: 1
9233ad: 1
9168c2: 1
9234c3: 1
92a445: 1
91bc41: 1
92a883: 1
4ebe42: 1
92a841: 1
91b401: 1
929616: 1
91b4c5: 1
4ec645: 1
926482: 1
91b503: 1
91b342: 1
511bc0: 1
92a7c1: 1
91b587: 1
931f40: 1
91b5c4: 1
92a741: 1
91a8c0: 1
91ac86: 1
91b641: 1
91b107: 1
91aed0: 1
91a584: 1
91a605: 1
90b3c2: 1
91b044: 1
91a640: 1
91b081: 1
91b0c2: 1
1515a83: 1
91acc6: 1
91b181: 1
92e0c1: 1
922c04: 1
91a700: 1
91b146: 1
91b1c4: 1
14fa3c8: 1
91b2c2: 1
511181: 1
91bb43: 1
f35fc3: 1
916766: 1
a97540: 1
f35f92: 1
91ba21: 1
9250c3: 1
91ba6e: 1
f35f9a: 1
52a986: 1
91ba40: 1
f36085: 1
92a5c2: 1
926b00: 1
f360b6: 1
9398c3: 1
92a4e2: 1
91a687: 1
91bbc6: 1
930601: 1
91a661: 1
91b6c3: 1
1515c48: 1
91abf2: 1
f361c0: 1
8ef5c0: 1
92a700: 1
8e9e01: 1
92a681: 1
91b33a: 1
916901: 1
91b7c3: 1
91b77b: 1
91b801: 1
91b840: 1
931f04: 1
936500: 1
91b880: 1
91b84f: 1
923741: 1
92a302: 1
923dc1: 1
923e02: 1
b73c42: 1
923e42: 1
923e83: 1
9245c6: 1
923ec0: 1
918f03: 1
923d43: 1
4ea841: 1
923f40: 1
923f80: 1
923fc0: 1
529743: 1
92a780: 1
924082: 1
916344: 1
916d42: 1
939700: 1
918b44: 1
915a54: 1
916ec3: 1
91a5c7: 1
529140: 1
926ec5: 1
9321c1: 1
9240c1: 1
924681: 1
4ebf82: 1
916e41: 1
4db601: 1
923cc1: 1
924642: 1
4f6f00: 1
916dc4: 1
924300: 1
9308c1: 1
924482: 1
92418c: 1
9241c1: 1
92a103: 1
924200: 1
924280: 1
9242c0: 1
92a143: 1
924441: 1
924400: 1
924342: 1
932244: 1
919385: 1
924380: 1
9243c1: 1
931f80: 1
924547: 1
512300: 1
51c540: 1
923471: 1
528984: 1
924537: 1
92453f: 1
939440: 1
512483: 1
919702: 1
8ef7c4: 1
9237b4: 1
924184: 1
924a41: 1
51a9c0: 1
916d86: 1
931d44: 1
916aae: 1
9188c6: 1
9238c0: 1
926a81: 1
92a1c1: 1
8f0082: 1
92a187: 1
916a40: 1
92382e: 1
923883: 1
916aa5: 1
92a047: 1
916b02: 1
528dc0: 1
923866: 1
916d01: 1
92fe71: 1
916b43: 1
924980: 1
929fc2: 1
925682: 1
9249c2: 1
9236c1: 1
92ffc0: 1
9237c0: 1
923782: 1
923800: 1
9248c4: 1
924941: 1
92a207: 1
92f902: 1
916fc6: 1
924902: 1
1513795: 1
923842: 1
916a01: 1
916b10: 1
916cc0: 1
916c41: 1
4ed583: 1
92a080: 1
507040: 1
923b01: 1
923ac1: 1
923a80: 1
51a9a1: 1
923a41: 1
923a01: 1
916f01: 1
924801: 1
9247c5: 1
9239c7: 1
916f82: 1
528b43: 1
511ac3: 1
923955: 1
1626541: 1
9171c7: 1
923982: 1
923910: 1
923941: 1
92b5c3: 1
4f6204: 1
14fadda: 2
deb0d2: 2
928cc2: 2
917306: 2
1669deb: 2
8ea1f6: 2
14fb281: 2
917104: 2
8e64c7: 2
928f40: 2
8e8761: 2
509e55: 2
14fb270: 2
924141: 2
5187a5: 2
90b597: 2
8e9e80: 2
929f6d: 2
8eadc1: 2
8eb396: 2
9157e0: 2
8e9d03: 2
8e9d82: 2
8e9e43: 2
931440: 2
8e6500: 2
166a35c: 2
529ec7: 2
50b183: 2
9193c6: 2
dead81: 2
92383c: 2
923851: 2
52a5d5: 2
8ea202: 2
8eacc0: 2
15163da: 2
916ac2: 2
52a783: 2
8ead02: 2
14fa096: 2
8eae9c: 2
1515f01: 2
8e9864: 2
91b784: 2
1669ed0: 2
8e9202: 2
9246de: 2
8e7384: 2
8e9502: 2
91cfc2: 2
4db644: 2
919273: 2
9256f0: 2
92bee7: 2
8e8841: 2
91b741: 2
8e9bc4: 2
1669c05: 2
8e8703: 2
4dd6f5: 2
14fab00: 2
923c53: 2
8e9c00: 2
923c34: 2
f35744: 2
927590: 2
8e8641: 2
f35d0a: 2
4f6c15: 2
8e7485: 2
8e9cc2: 2
8e8500: 2
15134c8: 2
8e9f03: 2
4dec3f: 2
8e72c0: 2
4db940: 2
8e8401: 2
91b440: 2
8e9c80: 2
8eac84: 2
8ead81: 2
5011cd: 2
8eaf02: 2
14f9981: 2
8e9f43: 2
14f9f90: 2
1515d42: 2
8e7540: 2
151394b: 2
14fbdc0: 2
916e14: 2
f35981: 2
1674484: 2
1515297: 2
1513985: 2
8e8348: 2
14faa94: 2
918962: 2
9191c4: 2
509872: 2
1513899: 2
8e8582: 2
8e8602: 2
8e8682: 2
f32a2e: 2
8e71cb: 2
8e85c2: 2
8ea740: 2
8e8483: 2
14fa340: 2
8e8380: 2
91a816: 2
deb441: 2
8e75c2: 2
8e7656: 2
91a741: 2
91b202: 2
1674400: 2
8e7e98: 2
8e9282: 2
166bd42: 2
8e83c2: 2
924da8: 2
91bb80: 2
1511a76: 2
8ead40: 2
15168db: 2
14fa147: 2
8e86c0: 2
8e87c3: 2
14fa400: 2
928481: 2
deb437: 2
f38601: 2
1516da5: 2
1513a05: 2
919440: 2
8e63c2: 2
8e91c0: 2
92f781: 2
9167c3: 2
8e7582: 2
92a8ef: 2
8e9c42: 2
8e84c0: 2
f360c1: 2
8e7341: 2
8e7242: 2
8e7501: 2
16267b0: 2
8e7284: 2
8eaf42: 2
8e6d00: 2
14fa280: 2
166a09f: 2
1669bc0: 2
917d82: 2
8e6823: 2
8e6484: 2
8e6440: 2
8e6402: 2
dea5c2: 2
8e63a0: 2
8e9d41: 2
8e7602: 2
8e73c2: 2
8eaec0: 2
8e94f6: 2
8e6382: 2
8e6340: 2
92d0df: 2
931086: 2
8e8541: 2
14fa0d3: 2
14fa010: 2
deb100: 2
5122c1: 2
8e8800: 2
930986: 2
919ac1: 2
8e9240: 2
8e7442: 2
1510250: 2
8e74c2: 2
f35bc5: 2
dea5b0: 2
9266fd: 2
dea5ba: 2
1668901: 2
14f9f50: 2
8e8442: 2
8e7405: 2
8e8882: 2
f2ee83: 3
f32cb9: 3
9153c1: 3
90b531: 3
92469b: 3
f2ed42: 3
150dd40: 3
150dac2: 3
150de00: 3
f3329b: 3
150da83: 3
150d534: 3
150e702: 3
150de38: 3
91252d: 3
f2ef43: 3
4f7f56: 3
f2ef02: 3
9154c2: 3
f31b84: 3
f2e707: 3
150da02: 3
508236: 3
150e847: 3
150d703: 3
915710: 3
9234cb: 3
150e942: 3
912401: 3
1669e2f: 3
9234de: 3
90b59e: 3
150e6cd: 3
914f00: 3
f31a41: 3
1669ca5: 3
150dc38: 3
150d79d: 3
914f82: 3
913202: 3
150db48: 3
92a90f: 3
f32b03: 3
f2eb40: 3
150dbe0: 3
f33133: 3
9157c2: 3
150dc80: 3
f2e77c: 3
f2f104: 3
f2f7c6: 3
f2e985: 3
f2eb05: 3
90b5b0: 3
1674450: 3
150e833: 3
f2ee01: 3
150da54: 3
150e880: 3
f2ea43: 3
9288da: 3
150dd20: 3
f332c0: 3
f31c01: 3
150e8c4: 3
915741: 3
507425: 3
f2f3c0: 3
914e00: 3
f32e38: 3
914ec4: 3
506cd3: 3
90b554: 3
f31dc1: 3
91608f: 3
150dc90: 3
f2ebc7: 3
f2f286: 3
f31d83: 3
150e7cd: 3
f31cc3: 3
f2e9c7: 3
4ebce8: 3
f2f742: 3
f31d42: 3
91520d: 3
f2ed06: 3
f31c83: 3
92572d: 3
92571b: 3
f2f206: 3
915241: 3
4f928c: 3
9151c2: 3
150dc10: 3
915100: 3
f328d0: 3
f2eb81: 3
f32c93: 3
f32a04: 3
f2e746: 3
f32a84: 3
f32e40: 3
150d922: 3
150de90: 3
f2ea82: 3
f2f1b1: 3
f32944: 3
f31c45: 3
150da42: 3
f2f700: 3
150e7a1: 3
150ea46: 3
f2ea01: 3
150ddb0: 3
f31a1c: 3
150d982: 3
150d804: 3
f32cc1: 3
4de9dd: 3
f31aea: 3
150d9c2: 3
150dd50: 3
92672f: 3
9275b4: 3
918dcb: 3
92673b: 3
9266c5: 3
f31942: 3
150d744: 3
f2e6c5: 3
92387d: 3
4ebf5b: 3
150e81c: 3
150dbb0: 3
f31981: 3
f2e8d3: 3
932e06: 3
913131: 3
150e6c5: 3
915480: 3
4de9e3: 3
923c8f: 3
150dcf0: 3
923c69: 3
923c19: 3
923c47: 3
923b80: 3
150d902: 3
f2f240: 3
f2e7c1: 3
f2e901: 3
150d8c2: 3
f32d01: 3
150ded7: 3
90ce60: 3
9185a0: 3
150dc6a: 3
150d684: 3
f32901: 3
f32b61: 3
150e800: 3
914d01: 3
f2f524: 3
914d82: 3
9246bf: 3
9246a2: 3
924665: 3
1669e40: 3
52ac20: 3
f32b58: 3
f2f400: 3
51c499: 3
f31a05: 3
f2e845: 3
50b205: 3
f31b41: 3
150dec0: 3
f31901: 3
f2e945: 3
f329c4: 3
91896f: 3
913f40: 3
166a4c0: 3
f32984: 3
50b2cf: 3
4ec9bb: 3
150de30: 3
915400: 3
f2f440: 3
1668830: 3
f33128: 3
150dd10: 3
f2f1c0: 3
91538e: 3
915701: 3
915341: 3
915886: 3
915202: 3
166a481: 3
1669cf8: 3
150d882: 3
f2e8cb: 3
914dc4: 3
f32b0b: 3
f31a85: 3
9152c6: 3
51c72b: 3
506d55: 3
f32ca1: 3
9124c3: 3
914d40: 3
f2ed80: 3
f2edc2: 3
f31b01: 3
f2f2c0: 3
91858e: 3
914e42: 3
f2ecc2: 3
914e81: 3
914f40: 3
f31997: 3
f332b6: 3
918deb: 3
915283: 3
150ddd0: 3
912440: 3
150dea0: 3
150df05: 3
1669caa: 3
918eaa: 3
150e855: 3
150d7c0: 3
f2eac0: 3
915384: 3
9324ee: 3
150db88: 3
f2f4c2: 3
f2ec02: 3
f2ec41: 3
150dcc0: 3
f2f386: 3
f2ec82: 3
f2ef81: 3
915846: 3
f2eec4: 3
f2ee41: 3
16744c0: 3
150d842: 3
91576c: 3
92671c: 3
150ea41: 3
150db29: 3
150db68: 3
f31bc5: 3
f2e884: 3
150dbd0: 3
150d753: 3
92e1ac: 3
f32e58: 3
150dba8: 3
150dcb8: 3
1669f04: 3
150dde0: 3
f32e02: 3
150de10: 3
f32dc1: 3
918bbc: 3
150de70: 3
913f86: 3
dea608: 3
166a748: 3
1668880: 3
9131c2: 3
150e6dd: 3
912487: 3
150e6e5: 3
f32da7: 3
4ec3e7: 3
9123d0: 3
f2e691: 3
150e902: 3
913f2f: 3
150db60: 3
150e744: 3
f32c66: 3
9158c1: 3
f31d02: 3
1669dc1: 3
f32b68: 3
150e982: 3
dea679: 3
f31993: 3
150e80b: 3
f32ac5: 3
150e9c2: 3
f319c8: 3
9246ce: 3
150ea01: 3
9324f7: 3
f32a43: 3
4f89c7: 3
f2e801: 3
166a25f: 3
5187c7: 4
926709: 4
f318cc: 4
506f80: 4
5073c1: 4
4f9285: 4
150eaa6: 4
8debc2: 4
507b03: 4
150eac8: 4
507243: 4
507942: 4
8deb02: 4
150eafc: 4
8dedc0: 4
507a02: 4
8df2c2: 4
507a45: 4
506bf2: 4
8deb81: 4
f2fa04: 4
f2f801: 4
150eae2: 4
150ed42: 4
8deb41: 4
4f94c2: 4
4f9240: 4
f2f842: 4
508383: 4
150ec1e: 4
8def82: 4
503b02: 4
4f9a02: 4
507d42: 4
90b5c5: 4
928930: 4
150ecc0: 4
4f9923: 4
503942: 4
150ec45: 4
5077ff: 4
901d01: 4
924d85: 4
901cc0: 4
507a81: 4
503b42: 4
8df101: 4
f2fe05: 4
5070cf: 4
f2fb40: 4
8df1c2: 4
8decc0: 4
50b03e: 4
90b5e3: 4
4f7c80: 4
504107: 4
8deec2: 4
8dee01: 4
4f87da: 4
507740: 4
5088c0: 4
8dea41: 4
150ea90: 4
150eb7d: 4
503f41: 4
518e40: 4
928967: 4
928caf: 4
150eb34: 4
92890c: 4
4f7dc1: 4
150eb42: 4
503f01: 4
4f9930: 4
503bc5: 4
8deb1c: 4
506d82: 4
f2fd40: 4
504388: 4
503c06: 4
4f7c46: 4
8df480: 4
4f8840: 4
150ebbe: 4
5038de: 4
503e46: 4
8deac0: 4
507c06: 4
150ebc5: 4
f2fcc2: 4
506d02: 4
150eb55: 4
4f81b3: 4
150ed81: 4
901bc6: 4
150ebb7: 4
150ec3d: 4
5012c2: 4
503b80: 4
8df401: 4
1668700: 4
1669c93: 4
4f98c2: 4
f2fc3e: 4
4f7fde: 4
8def41: 4
918580: 4
507dc0: 4
5039c7: 4
4f99c1: 4
503f84: 4
f2f944: 4
f2fa84: 4
5072e9: 4
f3188b: 4
4ec118: 4
501285: 4
8dec83: 4
507f80: 4
50b354: 4
507f02: 4
4f92c4: 4
5081c0: 4
901c43: 4
5089c7: 4
507441: 4
150eb26: 4
4f9844: 4
1668d45: 4
f2fd01: 4
508480: 4
508702: 4
507102: 4
8e63f5: 4
150ed01: 4
166a203: 4
5082c1: 4
5077c0: 4
f2fc07: 4
503dc2: 4
5042c0: 4
503a40: 4
150eb49: 4
901b80: 4
150eb9a: 4
150eb84: 4
918db6: 4
5041c1: 4
508905: 4
4f9201: 4
1668743: 4
5078c0: 4
8ded41: 4
8dee42: 4
506dc4: 4
501496: 4
4f7d80: 4
4f7e45: 4
f2fb83: 4
507902: 4
150edd3: 4
8dec04: 4
8ded82: 4
507c85: 4
4f7cc5: 4
507cc6: 4
4f7f7b: 4
503e00: 4
91bb8a: 4
506c01: 4
507d80: 4
508743: 4
4f8801: 4
507bc5: 4
4f7c00: 4
504201: 4
f2fdc5: 4
92a54f: 4
507e02: 4
5011c0: 4
f2fe44: 4
507e81: 4
f2f880: 4
4f7f84: 4
f2f9c0: 4
4f9402: 4
507e43: 4
4f9ac2: 4
8df442: 4
503d83: 4
503983: 4
507200: 4
4f83d5: 4
507286: 4
4f9a80: 4
90b5c0: 4
4f9b40: 4
506e05: 4
508443: 4
4f7e2b: 4
506ec2: 4
4f89c4: 4
4f9482: 4
5074c2: 4
166c3ca: 4
507ac0: 4
4f9940: 4
f2f900: 4
507b82: 4
507883: 4
8deb3f: 4
503d43: 4
4f886e: 4
5084c0: 4
150edc2: 4
5087c7: 4
508805: 4
508844: 4
f2f8c2: 4
4f7d44: 4
508941: 4
4f9900: 4
4f8882: 4
4f9881: 4
f2fd81: 4
503e84: 4
507803: 4
f318c1: 4
508a07: 4
4f88c8: 4
4f91de: 4
1669d81: 4
4f9801: 4
4f9380: 4
166bd89: 4
5073e8: 4
504400: 4
4f9443: 4
8dee80: 4
503ac5: 4
504444: 4
4f8979: 4
506b10: 4
4f9b00: 4
508203: 4
506c42: 4
507d00: 4
f2f985: 4
5079c2: 4
5071c6: 4
506d41: 4
1668b90: 4
508286: 4
507b41: 4
f2fb04: 4
4f9916: 4
506b80: 4
4f9740: 4
5083c3: 4
503a87: 4
508404: 4
4f9983: 4
4f8981: 4
5074b0: 4
8df200: 4
4f9935: 4
4f97f5: 4
f2fbc3: 4
1668d19: 4
8ded01: 4
932f34: 4
507382: 4
901c87: 4
166a276: 4
4f7a50: 4
508984: 4
507700: 4
507ec2: 4
f2fe85: 4
166a28b: 4
503c42: 4
508886: 4
f2f9fd: 4
150ec81: 4
503cc2: 4
508244: 4
1668907: 4
50b044: 4
8df382: 4
503a02: 4
506e81: 4
1668942: 4
506cc0: 4
506b43: 4
504240: 4
4f9a44: 4
507c40: 4
507842: 4
1669f83: 4
8dec41: 4
f2fc42: 4
4f9b82: 4
150edb1: 4
1669f78: 4
f2fa41: 4
4f9700: 4
8df3c2: 4
507400: 4
503d02: 4
507f40: 4
50124c: 4
506f00: 4
5043c0: 4
9246d2: 4
508102: 4
9246b4: 4
150eaae: 4
507980: 4
4f7e69: 4
503c81: 4
503900: 4
8df282: 4
506c84: 4
8dea86: 4
8def00: 4
166a29c: 4
506f40: 4
166bd44: 4
dea5fe: 4
506e46: 4
8dea30: 4
4f88c0: 4
150ec02: 4
8df243: 4
923c75: 4
8deb66: 4
501201: 4
4f9bc3: 4
503ec2: 4
1668d4d: 4
f2fac0: 4
504282: 4
50b04a: 4
166bd59: 5
9234be: 5
4f7d04: 5
901c02: 5
4ebf77: 5
4ec9b0: 5
1669e1b: 5
5123f9: 5
92893f: 5
528e7c: 5
90b5ab: 5
51215d: 5
4ebf7d: 5
928c8c: 5
529710: 5
166a1ec: 5
916f73: 5
166a430: 5
512270: 5
92384b: 5
51228f: 5
512295: 5
1668eff: 5
924660: 5
932f52: 5
512158: 5
9275a6: 5
1668f03: 5
166ae8d: 5
91922e: 5
919248: 5
511fac: 5
50b026: 5
51c49f: 5
918a65: 5
92381b: 5
930105: 5
166a442: 5
4ebf50: 5
92e220: 5
92570f: 5
52957f: 5
5290f0: 5
52a5f5: 5
4de9e8: 5
1668983: 5
4f6c7c: 5
4f7e07: 5
1669c79: 5
51214a: 5
529560: 5
512500: 6
9288f2: 6
4f70a4: 6
9192a9: 6
f32c83: 6
92f913: 6
150d942: 6
9368c5: 6
150db80: 6
1669dd8: 6
150d4ab: 6
9234ba: 6
92a610: 6
150db40: 6
166ac1f: 6
166a3c5: 6
529103: 6
8eaf20: 6
91b454: 6
529585: 6
150e7c6: 6
9192b7: 6
923501: 6
9234f0: 6
150dc5a: 6
150dd80: 6
529108: 6
916f95: 6
16688f0: 6
150dc00: 6
f32c50: 6
9189d0: 6
9246a7: 6
1668bc1: 6
1668c68: 6
1668c80: 6
50b038: 6
9191f2: 6
150d4c0: 6
9266c0: 6
91537f: 6
92f8f0: 6
f32d41: 6
90b5fd: 6
f32b50: 6
933062: 6
150de40: 6
1669c80: 6
166a2c2: 6
918da0: 6
518970: 6
92a23c: 6
512140: 6
f32d80: 6
92378a: 6
916025: 7
1668bb0: 7
928733: 7
1669e98: 7
1669ea0: 7
91a8a1: 7
166ac40: 7
92d0d5: 7
9246ee: 7
166acc5: 7
92f90e: 7
8ead60: 7
90b524: 7
933085: 7
9246e3: 7
166acbb: 7
1669d41: 7
1669eb3: 7
f2f480: 7
916b8c: 7
4f93c3: 7
916baa: 7
1669d03: 7
1668935: 7
92f8fd: 7
929edf: 7
166bd10: 7
916f40: 7
f2f754: 7
1669bfe: 8
916126: 8
150eb04: 8
928ba1: 8
91607a: 8
14b0df0: 8
51c688: 8
512918: 8
4f7f4e: 8
1669e0e: 8
dea61f: 8
4ebd00: 8
923484: 8
91a7a1: 8
91a7bb: 8
50b237: 8
150eac0: 8
8e8720: 8
91a795: 8
5293a0: 8
4deb8a: 8
529cd0: 8
1669cb4: 8
932eeb: 8
92a606: 8
91b45e: 8
918eaf: 8
916bb6: 8
92a8a4: 8
51c7a0: 8
1669cd1: 8
1668861: 8
918da4: 9
928713: 9
91541b: 9
92e210: 9
9234ab: 9
91bb04: 9
92a2a3: 9
92e2d0: 9
929f19: 9
50b359: 9
932180: 9
166a280: 10
91a801: 10
91b6b0: 10
4ebce0: 10
4f97b6: 10
4ebcfb: 10
4f97bc: 10
4dec60: 10
91bb14: 10
156b7fa: 10
91540f: 10
926721: 10
929f4c: 11
4deb65: 11
4ec3e0: 11
4de9d7: 11
166a269: 11
92e2da: 11
4ed3f8: 11
4eb9e3: 11
512880: 11
9234f5: 11
518796: 12
923506: 12
4f9a10: 12
91a0b6: 12
918ddb: 12
1669ef6: 13
915443: 13
508890: 13
92a284: 13
166bd19: 13
932165: 13
918e08: 13
932160: 13
166a38c: 14
166890f: 14
1669e8f: 14
508258: 14
166bd30: 14
924701: 15
932502: 15
156b807: 15
1668898: 15
166888a: 15
166874b: 15
f2f520: 15
4f97c8: 15
1668b99: 15
4f9a90: 16
166c3a9: 16
91a846: 17
1669245: 17
52ac26: 17
f2f48f: 17
166886d: 17
91a822: 17
92e22d: 18
4f97c2: 18
50b350: 18
5078c8: 18
166884f: 19
507097: 20
8df4e1: 20
507092: 20
8defb0: 20
166c390: 20
923860: 20
8ded39: 20
507210: 20
5073ad: 21
936b6c: 21
936b64: 21
8ded51: 21
507080: 21
91a853: 21
8e9e10: 21
923815: 21
91b3a6: 22
936920: 22
91a86f: 23
16688fb: 23
90cdfe: 24
936660: 24
5083f0: 24
92870a: 25
936bc0: 25
4ed360: 25
91b385: 26
f2fd10: 26
90cdf9: 26
91b397: 27
91a7f0: 27
518e46: 28
93660c: 28
9286dd: 28
506ef0: 30
923c8b: 30
9313f4: 30
15d6540: 31
9286bb: 31
9368cd: 32
4f9990: 32
9160d3: 33
91542b: 33
4f7a56: 33
92d040: 34
918e8e: 34
f2f6ec: 34
915338: 36
915783: 36
930754: 37
930dc4: 39
915802: 39
91a0a6: 40
92d04d: 40
f2fa2d: 41
506cd0: 41
923543: 41
92874b: 41
92352a: 42
91a0ca: 42
506cdd: 42
15d7fd0: 44
507830: 44
90b5f5: 45
928728: 46
f2fa24: 46
f2fa3d: 48
90cdf0: 49
90b583: 49
506cda: 50
92877f: 52
90cdf5: 54
8e88c0: 57
923c2f: 57
923558: 58
92352f: 59
91531d: 60
930100: 61
9153ed: 63
918e48: 63
92351b: 63
8e9ec0: 64
923464: 65
9153f9: 66
915322: 66
915459: 66
915488: 66
915465: 66
92a5b6: 67
92a5b0: 69
92a5e3: 70
918e65: 71
15d7f89: 75
92878c: 76
8e8510: 76
92353e: 77
15d6534: 87
91bb00: 90
92fa38: 90
919221: 99
92875a: 101
91b380: 113
508896: 122
51c487: 125
9154da: 127
92a5cc: 127
91a4a6: 131
9286ff: 134
91a0a0: 135
9189d5: 138
91a0c4: 140
930d69: 145
4ecd37: 146
928718: 150
916ba2: 154
919266: 157
9306db: 160
916e97: 160
923499: 164
4eb9bb: 167
91a0b0: 167
51c480: 171
918585: 179
9185a6: 179
918593: 180
916b86: 181
50b200: 181
4f6c4b: 182
916b70: 182
4de9c5: 183
51c650: 183
90b5de: 188
929f74: 202
91923b: 215
90b50d: 226
f2f486: 229
90b571: 230
8e9cd0: 233
929f40: 238
929f46: 249
92f808: 254
92f80b: 256
916e92: 267
918dbe: 270
528e50: 285
91a7cf: 286
50b020: 290
91a81d: 290
92348c: 291
4eb9b0: 292
91a841: 300
4de9c0: 301
932f47: 304
9160fb: 306
916113: 306
91606d: 306
918ec8: 307
916e7b: 307
91a8bb: 310
52a5c0: 314
916e60: 315
918ec4: 315
932f11: 321
91a84e: 326
918dfb: 334
529cd8: 338
512886: 354
91a869: 358
929f5c: 367
511f80: 373
91bb0c: 373
91a8b6: 377
92f7fc: 418
91b392: 446
928746: 481
92877a: 542
92f7f0: 568
4ed368: 600
92869d: 601
92d045: 611
91b39e: 622
923552: 658
4f6c40: 671
92d056: 673
92e228: 700
93009e: 701
518790: 724
4f9962: 732
92f9e1: 753
92e21b: 834
f2f496: 837
923515: 838
930090: 899
930099: 910
936600: 922
9368c0: 924
91b600: 936
930095: 950
f2f6e0: 969
92f9dd: 973
9286f0: 989
931399: 1047
507838: 1179
4f97b0: 1180
8e74e0: 1302
507390: 1317
936b60: 1488
f2fc80: 1698
918e3b: 1975
915470: 2118
91549d: 2119
9306c0: 2172
918e81: 2175
508230: 2944
931393: 2981
918e58: 3047
528e82: 3802
930d63: 4641
8df4c0: 4644
4eb9e8: 6125
8df23e: 6264
511fb2: 6303
8e7620: 10557
5073b3: 25058
8e7320: 32795

RAW hits: 224102
Loads Generated: 61049229
Loads sent to L1D: 60825132
Stores Generated: 8497471
Stores sent to L1D: 8497479
Major fault: 0 Minor fault: 8737
Allocated PAGES: 8737
Total Load insts: 77019282
Total Non-spec loads: 6266371
Percentage of speculative loads: 91.8639
L1D response latency: 146.291 cycles
Load retirement latency: 228.425 cycles

CPU 0 L1D PC-based stride prefetcher final stats
Degree: 3

DRAM Statistics
 CHANNEL 0
 RQ ROW_BUFFER_HIT:     349969  ROW_BUFFER_MISS:    1107683
 DBUS_CONGESTED:        790
 WQ ROW_BUFFER_HIT:     177561  ROW_BUFFER_MISS:     399522  FULL:        208

 AVG_CONGESTED_CYCLE: 5
 All warmup complete: 2
Channel 0 Bank busy for read cycles: 0
Channel 0 Bank busy for write cycles: 0
Channel 0
Rank 0
0banks busy for read cycles: 126993485
0banks busy for write cycles: 87298
1banks busy for read cycles: 29613755
1banks busy for write cycles: 9902211
2banks busy for read cycles: 16146474
2banks busy for write cycles: 4092543
3banks busy for read cycles: 9802112
3banks busy for write cycles: 1353653
4banks busy for read cycles: 7272368
4banks busy for write cycles: 998457
5banks busy for read cycles: 3646018
5banks busy for write cycles: 674566
6banks busy for read cycles: 2049389
6banks busy for write cycles: 556381
7banks busy for read cycles: 1428699
7banks busy for write cycles: 1044879
8banks busy for read cycles: 3150077
8banks busy for write cycles: 8345579

CPU 0 Branch Prediction Accuracy: 99.8281% MPKI: 0.09468 Average ROB Occupancy at Mispredict: 167.825
Branch types
NOT_BRANCH: 188985986 94.493%
BRANCH_DIRECT_JUMP: 290669 0.145335%
BRANCH_INDIRECT: 14 7e-06%
BRANCH_CONDITIONAL: 10161052 5.08053%
BRANCH_DIRECT_CALL: 280969 0.140485%
BRANCH_INDIRECT_CALL: 0 0%
BRANCH_RETURN: 280968 0.140484%
BRANCH_OTHER: 0 0%

DRAM PAGES: 1048576
Allocated PAGES: 8737
