
*** ChampSim Multicore Out-of-Order Simulator ***

Warmup Instructions: 50000000
Simulation Instructions: 200000000
Number of CPUs: 1
LLC sets: 2048
LLC ways: 16
Secure Berti: OFF
Berti: OFF
Berti Fill: OFF
On commit prefetching: OFF
L2 LLC Bypass speculative loads: OFF
Off-chip DRAM Size: 4096 MB Channels: 1 Width: 64-bit Data Rate: 6400 MT/s
CPU 0 runs /home/sumon/secure_berti/Berti_Baseline/../../traces/spec/628.pop2_s-17B.champsimtrace.xz
.xz
BTB has LRU replacement policy
ITLB has LRU replacement policy
DTLB has LRU replacement policy
STLB has LRU replacement policy
L1I has LRU replacement policy
CPU 0 L1D IP-based stride prefetcher
L1D has LRU replacement policy
L2C has LRU replacement policy
LLC has LRU replacement policy
Heartbeat CPU 0 instructions: 10000003 cycles: 2997827 heartbeat IPC: 3.33575 cumulative IPC: 3.33575 (Simulation time: 0 hr 0 min 15 sec) 
Heartbeat CPU 0 instructions: 20000001 cycles: 5995589 heartbeat IPC: 3.33582 cumulative IPC: 3.33579 (Simulation time: 0 hr 0 min 30 sec) 
Heartbeat CPU 0 instructions: 30000003 cycles: 8993239 heartbeat IPC: 3.33595 cumulative IPC: 3.33584 (Simulation time: 0 hr 0 min 44 sec) 
Heartbeat CPU 0 instructions: 40000003 cycles: 11990778 heartbeat IPC: 3.33607 cumulative IPC: 3.3359 (Simulation time: 0 hr 0 min 59 sec) 
Heartbeat CPU 0 instructions: 50000002 cycles: 14990257 heartbeat IPC: 3.33391 cumulative IPC: 3.3355 (Simulation time: 0 hr 1 min 14 sec) 

Warmup complete CPU 0 instructions: 50000002 cycles: 14990257 (Simulation time: 0 hr 1 min 14 sec) 

Heartbeat CPU 0 instructions: 60000000 cycles: 26922937 heartbeat IPC: 0.838035 cumulative IPC: 0.838035 (Simulation time: 0 hr 1 min 35 sec) 
Heartbeat CPU 0 instructions: 70000002 cycles: 38758176 heartbeat IPC: 0.844935 cumulative IPC: 0.84147 (Simulation time: 0 hr 1 min 56 sec) 
Heartbeat CPU 0 instructions: 80000000 cycles: 50463385 heartbeat IPC: 0.85432 cumulative IPC: 0.845711 (Simulation time: 0 hr 2 min 16 sec) 
Heartbeat CPU 0 instructions: 90000003 cycles: 64142759 heartbeat IPC: 0.731028 cumulative IPC: 0.813794 (Simulation time: 0 hr 2 min 36 sec) 
Heartbeat CPU 0 instructions: 100000001 cycles: 75783898 heartbeat IPC: 0.859022 cumulative IPC: 0.822454 (Simulation time: 0 hr 2 min 57 sec) 
Heartbeat CPU 0 instructions: 110000000 cycles: 88208387 heartbeat IPC: 0.804862 cumulative IPC: 0.819469 (Simulation time: 0 hr 3 min 18 sec) 
Heartbeat CPU 0 instructions: 120000000 cycles: 101243397 heartbeat IPC: 0.767165 cumulative IPC: 0.811565 (Simulation time: 0 hr 3 min 38 sec) 
Heartbeat CPU 0 instructions: 130000000 cycles: 114710285 heartbeat IPC: 0.742562 cumulative IPC: 0.802246 (Simulation time: 0 hr 3 min 59 sec) 
Heartbeat CPU 0 instructions: 140000002 cycles: 129119293 heartbeat IPC: 0.69401 cumulative IPC: 0.788581 (Simulation time: 0 hr 4 min 19 sec) 
Heartbeat CPU 0 instructions: 150000000 cycles: 142487128 heartbeat IPC: 0.748064 cumulative IPC: 0.784333 (Simulation time: 0 hr 4 min 37 sec) 
Heartbeat CPU 0 instructions: 160000000 cycles: 157055287 heartbeat IPC: 0.686429 cumulative IPC: 0.774293 (Simulation time: 0 hr 4 min 58 sec) 
Heartbeat CPU 0 instructions: 170000002 cycles: 167763962 heartbeat IPC: 0.933823 cumulative IPC: 0.785475 (Simulation time: 0 hr 5 min 20 sec) 
Heartbeat CPU 0 instructions: 180000003 cycles: 179187067 heartbeat IPC: 0.875419 cumulative IPC: 0.791733 (Simulation time: 0 hr 5 min 44 sec) 
Heartbeat CPU 0 instructions: 190000000 cycles: 191007556 heartbeat IPC: 0.845988 cumulative IPC: 0.795376 (Simulation time: 0 hr 6 min 8 sec) 
Heartbeat CPU 0 instructions: 200000000 cycles: 202755368 heartbeat IPC: 0.851222 cumulative IPC: 0.79887 (Simulation time: 0 hr 6 min 33 sec) 
Heartbeat CPU 0 instructions: 210000000 cycles: 214500133 heartbeat IPC: 0.851443 cumulative IPC: 0.801965 (Simulation time: 0 hr 6 min 58 sec) 
Heartbeat CPU 0 instructions: 220000000 cycles: 226305225 heartbeat IPC: 0.847092 cumulative IPC: 0.804486 (Simulation time: 0 hr 7 min 23 sec) 
Heartbeat CPU 0 instructions: 230000000 cycles: 238216296 heartbeat IPC: 0.839555 cumulative IPC: 0.806358 (Simulation time: 0 hr 7 min 48 sec) 
Heartbeat CPU 0 instructions: 240000002 cycles: 250133657 heartbeat IPC: 0.839112 cumulative IPC: 0.808018 (Simulation time: 0 hr 8 min 13 sec) 
Heartbeat CPU 0 instructions: 250000002 cycles: 262053855 heartbeat IPC: 0.838912 cumulative IPC: 0.809508 (Simulation time: 0 hr 8 min 37 sec) 
Finished CPU 0 instructions: 200000000 cycles: 247063598 cumulative IPC: 0.809508 (Simulation time: 0 hr 8 min 37 sec) 

ChampSim completed all CPUs

Region of Interest Statistics

CPU 0 cumulative IPC: 0.809508 instructions: 200000000 cycles: 247063598
ITLB TOTAL     ACCESS:   34285024  HIT:   34278855  MISS:       6169  HIT %:     99.982  MISS %:  0.0179933   MPKI: 0.030845
ITLB Test counter:          0
ITLB LOAD TRANSLATION ACCESS:   34285024  HIT:   34278855  MISS:       6169  HIT %:     99.982  MISS %:  0.0179933   MPKI: 0.030845
ITLB PREFETCH  REQUESTED:          0  ISSUED:          0  USEFUL:          0  USELESS:          0
ITLB USEFUL LOAD PREFETCHES:          0 PREFETCH ISSUED TO LOWER LEVEL:          0  ACCURACY: -nan
ITLB TIMELY PREFETCHES:          0 LATE PREFETCHES: 0 DROPPED PREFETCHES: 0
ITLB COMMIT LATE PREFETCHES: 0 MISSED OPPORTUNITY: 0 LATE IN PQ: 0 UNCOVERED: 0
ITLB COMMIT LATE MSHR PREFETCHES: 0
ITLB MPKI TOTAL: 0 MSHR LATE: 0 PQ LATE: 0 COMMIT LATE: 0 MISSED OPPORTUNITY: 0 UNCOVERED: 0
ITLB PREFETCHES SAME FILL-ORIGIN LEVEL: 0 DIFFERENT FILL-ORIGIN LEVEL: 0
ITLB AVERAGE MISS LATENCY: 13.6487 cycles
ITLB AVERAGE MISS LATENCY LOAD: -nan cycles
ITLB AVERAGE MISS LATENCY PREFETCH: -nan cycles
ITLB AVERAGE MSHR OCCUPANCY: 9.6626e-05
ITLB MSHR FULL: 0
ITLB RQ	ACCESS:   39033873	FORWARD:          0	MERGED:    4747034	TO_CACHE:   34286839

DTLB TOTAL     ACCESS:   38378333  HIT:   38278309  MISS:     100024  HIT %:    99.7394  MISS %:   0.260626   MPKI: 0.50012
DTLB Test counter:          0
DTLB LOAD TRANSLATION ACCESS:   38378333  HIT:   38278309  MISS:     100024  HIT %:    99.7394  MISS %:   0.260626   MPKI: 0.50012
DTLB PREFETCH  REQUESTED:          0  ISSUED:          0  USEFUL:          0  USELESS:          0
DTLB USEFUL LOAD PREFETCHES:          0 PREFETCH ISSUED TO LOWER LEVEL:          0  ACCURACY: -nan
DTLB TIMELY PREFETCHES:          0 LATE PREFETCHES: 0 DROPPED PREFETCHES: 0
DTLB COMMIT LATE PREFETCHES: 0 MISSED OPPORTUNITY: 0 LATE IN PQ: 0 UNCOVERED: 0
DTLB COMMIT LATE MSHR PREFETCHES: 0
DTLB MPKI TOTAL: 0 MSHR LATE: 0 PQ LATE: 0 COMMIT LATE: 0 MISSED OPPORTUNITY: 0 UNCOVERED: 0
DTLB PREFETCHES SAME FILL-ORIGIN LEVEL: 0 DIFFERENT FILL-ORIGIN LEVEL: 0
DTLB AVERAGE MISS LATENCY: 23.5141 cycles
DTLB AVERAGE MISS LATENCY LOAD: -nan cycles
DTLB AVERAGE MISS LATENCY PREFETCH: -nan cycles
DTLB AVERAGE MSHR OCCUPANCY: 0.00625168
DTLB MSHR FULL: 3.88182e-05
DTLB RQ	ACCESS:   42069233	FORWARD:          0	MERGED:    3660845	TO_CACHE:   38408388

STLB TOTAL     ACCESS:    4693717  HIT:    4684049  MISS:       9668  HIT %:     99.794  MISS %:   0.205977   MPKI: 0.04834
STLB Test counter:          0
STLB LOAD TRANSLATION ACCESS:     106193  HIT:      96525  MISS:       9668  HIT %:    90.8958  MISS %:    9.10418   MPKI: 0.04834
STLB TRANSLATION FROM L1D PREFETCHER ACCESS:    4587524  HIT:    4587524  MISS:          0  HIT %:        100  MISS %:          0   MPKI: 0
STLB PREFETCH  REQUESTED:          0  ISSUED:          0  USEFUL:          0  USELESS:          0
STLB USEFUL LOAD PREFETCHES:          0 PREFETCH ISSUED TO LOWER LEVEL:          0  ACCURACY: -nan
STLB TIMELY PREFETCHES:          0 LATE PREFETCHES: 0 DROPPED PREFETCHES: 0
STLB COMMIT LATE PREFETCHES: 0 MISSED OPPORTUNITY: 0 LATE IN PQ: 0 UNCOVERED: 0
STLB COMMIT LATE MSHR PREFETCHES: 0
STLB MPKI TOTAL: 0 MSHR LATE: 0 PQ LATE: 0 COMMIT LATE: 0 MISSED OPPORTUNITY: 0 UNCOVERED: 0
STLB PREFETCHES SAME FILL-ORIGIN LEVEL: 0 DIFFERENT FILL-ORIGIN LEVEL: 0
STLB AVERAGE MISS LATENCY: 152.219 cycles
STLB AVERAGE MISS LATENCY LOAD: -nan cycles
STLB AVERAGE MISS LATENCY PREFETCH: -nan cycles
STLB AVERAGE MSHR OCCUPANCY: 0.00281653
STLB MSHR FULL: 0
STLB RQ	ACCESS:   13717759	FORWARD:          0	MERGED:    9024042	TO_CACHE:    4693717

STLB Hit, L1D data hit: 0
STLB Hit, L2C data hit: 0
STLB Hit, LLC data hit: 0
STLB Hit, LLC data miss: 0
STLB STLB hints to L2: 0
L1D TOTAL     ACCESS:   53041043  HIT:   49923875  MISS:    3117168  HIT %:    94.1231  MISS %:     5.8769   MPKI: 15.5858
L1D Test counter:          0
L1D LOAD      ACCESS:   28503712  HIT:   28082806  MISS:     599503  HIT %:    98.5233  MISS %:    1.47667   MPKI: 2.10453
L1D RFO       ACCESS:   11463282  HIT:   10466549  MISS:     996733  HIT %:     91.305  MISS %:    8.69501   MPKI: 4.98367
L1D PREFETCH  ACCESS:   13074049  HIT:   11374520  MISS:    1699529  HIT %:    87.0007  MISS %:    12.9993   MPKI: 8.49765
L1D PREFETCH  REQUESTED:   27507790  ISSUED:   27425364  USEFUL:    1551424  USELESS:     148100
L1D USEFUL LOAD PREFETCHES:    1551424 PREFETCH ISSUED TO LOWER LEVEL:    1873640  ACCURACY: 82.8027
L1D TIMELY PREFETCHES:    1551424 LATE PREFETCHES: 69732 DROPPED PREFETCHES: 0
L1D COMMIT LATE PREFETCHES: 0 MISSED OPPORTUNITY: 0 LATE IN PQ: 7072 UNCOVERED: 0
L1D COMMIT LATE MSHR PREFETCHES: 0
L1D MPKI TOTAL: 2.99751 MSHR LATE: 0.34866 PQ LATE: 0.03536 COMMIT LATE: 0 MISSED OPPORTUNITY: 0 UNCOVERED: 0
L1D PREFETCHES SAME FILL-ORIGIN LEVEL: 1769261 DIFFERENT FILL-ORIGIN LEVEL: 104379
L1D AVERAGE MISS LATENCY: 60.3447 cycles
L1D AVERAGE MISS LATENCY LOAD: 40.3528 cycles
L1D AVERAGE MISS LATENCY PREFETCH: 55.932 cycles
L1D AVERAGE MSHR OCCUPANCY: 0.936084
L1D MSHR FULL: 0.000898753
L1D RQ	ACCESS:   39838220	FORWARD:          0	MERGED:   10941910	TO_CACHE:   28682309
L1D WQ	ACCESS:   13600317	FORWARD:     214002	MERGED:     213393	TO_CACHE:   13386924
L1D PQ	ACCESS:   13813798	FORWARD:          0	MERGED:     202231	TO_CACHE:   13611566

L1D UNIQUE REGIONS ACCESSED: 0
L1D REGIONS CONFLICTS: 0
L1D Cross Page Prefetch Requests: 0
L1D Same Page Prefetch Requests: 18378925
L1D ROI Sum of L1D PQ occupancy: 187771348
L1D PREFETCHES PUSHED FROM L2C: 0
87573a: 1
77d296: 1
7a4869: 1
77d222: 1
8750bc: 1
789941: 1
91fdff: 1
77fd98: 1
875893: 1
87ba5f: 1
7d561f: 1
87594b: 1
795bc3: 1
789661: 1
65f064: 1
7a4d53: 1
66345f: 1
876560: 1
87ce5a: 1
875ae2: 1
87644b: 1
87ba4c: 1
77acc6: 1
87b8f9: 1
7a482f: 1
8756a3: 1
65f7f5: 1
87c082: 1
785c3c: 1
77ec69: 1
78c502: 1
77d49b: 1
78651f: 1
7d9b44: 1
7d89f5: 1
65f7fa: 1
786d7e: 1
77acb1: 1
78966e: 1
86ecea: 1
87646e: 1
8764d9: 1
77d26a: 1
78769a: 1
7d8a5d: 1
78697d: 1
87de2c: 1
785c2f: 1
7d9e05: 1
77b8de: 1
87558d: 1
66335a: 1
87a6e3: 1
794e16: 1
77fdfb: 1
78d20c: 1
786534: 1
87bb3a: 1
65f809: 1
7a4819: 1
8741ea: 1
87ba69: 1
87a059: 1
7da4dd: 1
786549: 1
7a35dd: 1
87ddeb: 1
7864dd: 1
789831: 1
876366: 1
87bb25: 1
7d8893: 1
7864f2: 1
879e51: 1
87ba20: 1
785860: 1
787bb0: 1
786dd7: 1
64e460: 1
7896db: 1
87c091: 1
77b1f9: 1
87bea9: 1
7800a5: 1
7a419a: 1
77b1cc: 1
7da13b: 1
78576f: 1
77ffb4: 1
64d7f2: 1
7869f1: 1
78c3c3: 1
96b870: 1
7898f9: 1
780184: 1
77fe5b: 1
77fe4e: 1
77fcc0: 1
77fba8: 1
7d8405: 1
77fb8c: 1
786550: 1
786a03: 1
786a0a: 1
789780: 1
77acb8: 1
87ba18: 1
87578a: 1
77d17f: 1
87c0c6: 1
84824e: 1
7a4bd1: 1
78c3bc: 1
78079a: 1
872a0c: 1
8758b4: 1
77ec9e: 1
7d8360: 1
874220: 1
786969: 1
879cb4: 1
786850: 1
7d4d5d: 1
87dbf9: 1
91fe07: 1
7d994e: 1
7da426: 1
7a41bc: 1
78969b: 1
87a798: 1
7859bc: 1
874280: 1
87967f: 1
77be1c: 1
786d9a: 1
7859c3: 1
87ba44: 1
7d4cc5: 1
86eb7e: 1
7db20f: 1
9203e2: 1
77cead: 1
788511: 1
785859: 1
77fe69: 1
7a485e: 1
7a3fc0: 1
86eb2a: 1
86eb63: 1
86eca9: 1
86ece3: 1
86ed01: 1
663368: 1
77d4ab: 1
65dc44: 1
8744ea: 1
87dddc: 1
7a4005: 1
7a41a1: 1
7a418b: 1
7857a7: 1
7a41e1: 1
7a41d2: 1
7a48a6: 1
7a4bbb: 1
86ebf1: 1
875914: 1
8759aa: 1
8759c8: 1
77b423: 1
875f74: 1
876151: 1
873225: 1
87599d: 1
7a4be7: 1
87c0b9: 1
87c0e7: 1
87c257: 1
6633c2: 1
876e95: 1
87cea4: 1
87ce8e: 1
87cf4c: 1
77e491: 1
785909: 1
785b0a: 1
785b21: 1
785b39: 1
872139: 1
872482: 1
8727b3: 1
786840: 1
7857ae: 1
77e568: 1
786651: 1
77ec3e: 1
77ec56: 1
77ec84: 1
786976: 1
7869e1: 1
7869fa: 1
788075: 1
7a4c22: 1
8307bf: 1
8756fa: 1
7a50a0: 1
848047: 1
786616: 1
789771: 1
78c318: 1
8758a0: 1
8724b8: 1
830837: 1
789717: 1
785c5b: 1
7897c8: 1
785761: 1
7856a9: 1
7d8868: 1
7859f9: 1
87ba2d: 1
785951: 1
8726af: 1
876194: 1
8762e6: 1
8765d7: 1
876592: 1
876a08: 1
876814: 1
7a5b95: 1
87ded9: 1
91d8f8: 1
86ef6d: 1
7d9bfe: 1
97acd6: 1
872302: 1
875599: 1
651c29: 1
879ef6: 1
879527: 1
8763c7: 1
87de40: 1
879c38: 1
789804: 1
87b961: 1
879e7a: 1
879ed5: 1
7da14a: 1
879f2a: 1
87a6f5: 1
87a7ab: 1
87a97f: 1
87465a: 1
87a9ce: 1
77b863: 1
879f0b: 1
8750e6: 1
8727a9: 1
7a4886: 1
77b442: 1
874670: 1
874838: 1
874946: 1
874730: 1
8747ce: 1
8744d2: 1
7865a0: 1
87ded4: 1
8755e3: 1
8755a5: 1
7d9d02: 1
8757f2: 1
875852: 1
91fe7f: 1
879287: 1
877412: 1
8759f4: 1
876553: 1
872a24: 1
830714: 1
83076d: 1
830848: 1
879224: 1
86ebe6: 1
8792be: 1
87929b: 1
8794a8: 1
8794e4: 1
87bb49: 1
875af7: 1
87428a: 1
87444f: 1
7898d6: 1
77acf7: 1
78768b: 1
7da108: 1
7da10f: 1
7da0f9: 1
7d9f56: 1
7d9bbe: 1
7d9b4b: 1
7d9aae: 1
77b8ec: 1
77b8c3: 1
7d99b0: 1
7d998d: 1
77acd4: 1
7d9679: 1
7898e5: 1
7d940e: 1
7d91b5: 1
789e7e: 1
77acdb: 1
787635: 1
786d93: 1
77b769: 1
663280: 1
77e459: 1
77e462: 1
77b7d6: 1
78a990: 1
786dde: 1
77b7a2: 1
77af0e: 1
77b836: 1
787601: 1
77b8f5: 1
7da8b7: 1
7da3bd: 1
77b806: 1
7da82b: 1
77b899: 1
7875eb: 1
789981: 1
788671: 1
7d85a7: 1
77d271: 1
7d833e: 1
77d2fe: 1
78d4d0: 1
77d2ac: 1
77d2e8: 1
77d305: 1
7d85af: 1
7d93bd: 1
7896c8: 1
7d9721: 1
78d246: 1
78d102: 1
78d0e0: 1
78988b: 1
789914: 1
789708: 1
7d8a39: 1
7899f4: 1
7d8bbf: 1
7897aa: 1
789787: 1
7d89d8: 1
77d0a2: 1
787ce1: 1
788318: 1
7d89ca: 1
7da8b2: 1
788353: 1
78d0fa: 1
788387: 1
7d8910: 1
7da4a3: 1
7d888b: 1
7d885b: 1
7d8806: 1
7d85ce: 1
78c35b: 1
7d4cba: 1
77d9b6: 1
7d4d3f: 1
780719: 1
78b570: 1
77d2bb: 1
780a83: 1
64bd94: 1
78af6a: 1
78979d: 1
78c46f: 1
64bcd0: 1
78c376: 1
780955: 1
78c4e1: 1
650c46: 1
78c302: 1
780a7a: 1
64e4f5: 1
830e30: 1
831c78: 1
78095c: 1
789744: 1
78edc2: 1
831e48: 1
65f7ff: 1
789813: 1
78af76: 1
78c59e: 1
77dc5c: 1
78adf2: 1
78f40b: 1
7897e6: 1
78986d: 1
77b518: 1
77b46f: 1
77b1b7: 1
7d8673: 1
77b1a1: 1
7daf3c: 1
78c5a7: 1
7dc82a: 1
7d4cb0: 1
7f9403: 2
665f92: 2
7a4540: 2
87289d: 2
92a99a: 2
64bbed: 2
785f10: 2
66322c: 2
650eb4: 2
66df4b: 2
7d6a1b: 2
8727c6: 2
7da2d9: 2
77be30: 2
7d55e6: 2
791888: 2
66dfa1: 2
788838: 2
7a885e: 2
8765fe: 2
7d798d: 2
796e29: 2
66df53: 2
8744b7: 2
7d92a4: 2
665fac: 2
7d6941: 2
78f376: 2
7eed73: 2
8726d0: 2
7da3b0: 2
78eb80: 2
77cfa1: 2
7da5d7: 2
64b9ab: 2
791880: 2
7d6948: 2
7f95f7: 2
7daf0b: 2
665fb9: 2
650ec2: 2
64b9c4: 2
7da2ed: 2
7d6933: 2
86e420: 2
878915: 2
87576d: 2
64bbd7: 2
875af1: 2
7f9467: 2
7919ec: 2
87dde2: 2
7d55bc: 2
794d7c: 2
77dd67: 2
7d9400: 2
64bb44: 2
87577c: 2
872dc5: 2
86e40d: 2
8789ce: 2
64bc87: 2
66df71: 2
787cc2: 2
64b992: 2
8726a6: 2
8727d4: 2
66df83: 2
86e419: 2
86e433: 2
7d8b74: 2
830784: 2
77e590: 2
650e9f: 2
875958: 2
8744c8: 2
875120: 3
78fe8e: 3
7919db: 3
92a755: 3
77ade4: 3
77e051: 3
77df57: 3
7d959e: 3
87dc62: 3
77bf20: 3
87ce38: 3
874802: 3
7da2e3: 3
879218: 3
87c32f: 3
780508: 3
87ce2a: 3
875b20: 3
8792ce: 3
7a3e90: 3
7d9c44: 3
7a4ee5: 3
64be56: 3
77be26: 3
86d9a4: 3
77e690: 3
786250: 3
7d78ae: 3
7f9690: 3
7935b6: 3
87da35: 3
875fbc: 3
77e11d: 3
77d160: 3
7db991: 3
8747a0: 3
7d8990: 3
7d93ee: 3
7f94a0: 3
87921c: 3
77c5e9: 3
8780e0: 3
7d94c9: 3
78f359: 3
77e8f7: 3
8763aa: 3
87c4cf: 3
7804d8: 3
7f95ec: 4
7a4b35: 4
7919e1: 4
874873: 4
77d9a7: 4
7f9657: 4
77dd71: 4
7a3b7b: 4
8758bc: 4
87480b: 4
7f9241: 4
77dd7d: 4
87bbe0: 4
7f9236: 4
65f874: 4
787bb4: 4
830869: 4
87486a: 4
8762e0: 4
8758d9: 4
7f9328: 4
7a4b41: 4
87dc90: 4
77fd90: 4
7db6a0: 4
87b527: 4
77adda: 4
77df51: 4
7f9297: 4
8748cb: 4
7dae4a: 4
78d291: 5
78f3f4: 5
91130e: 5
8fa07c: 5
7d7731: 5
8748c2: 5
8763ec: 5
795fa4: 5
87b832: 5
78ed3b: 5
64a414: 5
7dc769: 5
7dc330: 5
7dae3d: 5
7969c4: 5
78e0da: 5
77e057: 5
92ab0b: 5
64bd90: 5
64bb40: 6
797b00: 6
7da7b9: 6
879cb0: 6
64ba61: 6
7da678: 6
876f28: 6
7f92d0: 6
87cf00: 6
8763bd: 6
77de68: 6
872896: 6
87a930: 6
7a4ef2: 6
7d6a25: 6
7eee0d: 6
7919f6: 6
91f9a1: 7
77d920: 7
7d6a0b: 7
91f97d: 7
91f9cc: 7
91fa1c: 7
8740e2: 7
877bcf: 7
650f30: 7
64be80: 7
64b114: 7
7d563d: 7
77dd77: 7
7eeddb: 7
77d6e0: 7
8740c9: 7
7eee2d: 7
7da6fb: 7
87bc08: 8
64bced: 8
77f45c: 8
87a703: 8
7eee32: 8
8797ee: 8
77de62: 8
78e5f0: 8
7eede1: 8
794758: 8
7a4000: 8
87b81d: 8
97acd1: 8
78679c: 8
786800: 9
77c776: 9
8761e0: 9
8764d0: 9
78fb4a: 9
78d2b4: 9
78edfc: 9
78b560: 9
78ee12: 9
875573: 10
77f457: 10
797af2: 10
7da715: 10
87481f: 10
873101: 10
7d5675: 10
77c81a: 10
797507: 10
780334: 11
78e386: 11
8748de: 11
87b72d: 11
794787: 11
7a3fb0: 11
7dbb3a: 11
7a3fd1: 11
7d6a12: 11
7eedce: 11
77b047: 12
78afc0: 12
77bf38: 12
64aa0e: 12
785eb5: 12
78afec: 12
87488a: 12
77bf2b: 12
78b004: 12
78afd0: 13
7db391: 13
77c16b: 13
7f93f8: 13
7db387: 13
78afd8: 13
78aff4: 13
77c0c6: 13
91f92f: 13
797f69: 14
77dc4b: 14
78b010: 14
78681f: 14
7eee04: 15
77e560: 15
7d90f5: 15
7db0ed: 15
875f2a: 15
7d8fdf: 15
7eedc4: 15
87b78f: 15
7db08d: 16
7a2270: 16
78050e: 16
830940: 16
7d99f0: 16
7d9909: 16
77dda0: 17
77e6d8: 17
831990: 17
873a46: 17
7d8f05: 17
78ec19: 17
873a52: 17
7887c0: 17
8754ff: 17
65ebd9: 17
7d992d: 17
7a3730: 17
875fae: 17
7d8def: 18
87b79e: 18
875f63: 18
878052: 18
77c9ab: 18
77c77b: 19
64accb: 19
84857a: 19
875f3a: 19
875f85: 19
77dbcb: 19
77d9bb: 19
875f12: 19
87889c: 19
8789a8: 19
77d176: 19
77da6b: 19
878895: 19
787b10: 20
87dca3: 20
77d169: 20
787b15: 20
7919e7: 21
87c654: 21
77ee8a: 21
875ffa: 21
875569: 21
78d8b4: 21
77d6f2: 21
7d6a17: 22
64ba18: 22
77af03: 22
77ca4e: 22
7daf8f: 22
79519b: 22
7919d0: 22
794ec6: 22
875fc9: 22
77c81e: 22
7dafa5: 22
8761e8: 23
77db10: 23
64ba00: 23
79508b: 23
7d6a00: 24
77d9b0: 24
64ba08: 24
77d6ea: 25
77db1b: 25
879e40: 25
785eb0: 25
830937: 25
77ee6a: 25
77d7ca: 25
77ee6e: 25
77dbc0: 25
920383: 26
77c230: 26
87c4b8: 26
77da60: 26
7a58e5: 26
64b270: 27
78fe13: 27
7a5915: 28
77cd43: 28
64bc3c: 29
794ec1: 29
78fb68: 29
796b8b: 29
78fb2b: 31
792d3e: 31
77d7c0: 31
87b73c: 33
7a5905: 33
735df2: 33
7d8eed: 34
64b3ad: 34
7d90dd: 34
87b670: 35
77c37e: 35
780520: 36
77c16f: 36
8fa04a: 37
735d2f: 37
7d9cfa: 37
87b7f5: 37
7a3933: 37
7911be: 38
77c2da: 38
92a683: 39
87c4be: 39
79337e: 39
873703: 39
8737ab: 39
77af73: 39
77c0cb: 39
92a697: 39
873a5a: 39
92a68b: 39
87368f: 39
400500: 39
8736f3: 39
78090a: 40
7d8fce: 41
7803b0: 41
87ab11: 41
873220: 42
87aac3: 42
7d88d0: 43
64b3c0: 43
78c038: 44
87a89e: 44
87dc9a: 44
78c0ee: 44
78c1ed: 44
792cf2: 44
78c0e6: 44
78bf81: 45
7d8dde: 45
78bfa4: 45
780180: 46
78bfac: 47
78c166: 47
87984c: 47
87bbfe: 47
7a0f43: 48
8730b7: 48
77cd47: 48
77ce08: 48
879b68: 48
7964b4: 48
877bbd: 48
7a38f2: 48
78a3bd: 49
7a1bac: 49
78a3ab: 49
793c6b: 50
797870: 50
65ec16: 50
7a264b: 50
7a1514: 51
64b51b: 52
77c234: 52
84856f: 52
877c3c: 52
8756d2: 52
77c445: 52
7dc0b0: 53
80db57: 53
873df4: 53
87bbed: 53
78f340: 53
64aa53: 54
7951e7: 54
7d5a53: 55
876f00: 55
8754ca: 55
87dd00: 55
7db360: 56
86d9a9: 56
64e4c6: 56
87bde5: 56
87be0d: 56
87bddd: 57
7a1c20: 57
7803d0: 57
64a2d5: 57
7dbc00: 57
7dbbe9: 57
8775df: 57
65eeb6: 58
87a777: 58
8733b6: 58
7a35e5: 58
876f2d: 58
87b80f: 58
7801f4: 58
7a0f88: 58
877e9f: 59
7a5ecd: 59
8733f4: 59
797591: 59
793b89: 59
8787bd: 59
8787b6: 59
7a1fa3: 59
7a3900: 59
7a25d9: 59
7a2587: 59
7a2d9e: 59
7a3ba7: 59
7a35c7: 59
874136: 59
9203c4: 59
87763c: 59
7a1e64: 59
873344: 59
87344c: 59
7a15dc: 59
7dbda2: 59
877bc5: 59
7802df: 59
877c24: 59
7a3949: 59
8797cd: 59
7a1e3a: 59
8740a4: 59
87410b: 59
874113: 59
8740b4: 59
877ef5: 59
877f01: 59
873468: 59
877fb4: 59
7a2a60: 59
873c14: 59
735b02: 59
7a1e2b: 59
7a15f1: 59
7dae57: 59
7da9ea: 59
7a2957: 59
7a34b9: 59
7a0fa9: 59
7db248: 59
7a2927: 59
7a34b2: 59
7a34c0: 59
7a3726: 59
7a375d: 59
7a396e: 59
7a3bf0: 59
875193: 59
7a3c15: 59
7a15a8: 59
7a25bc: 59
7a2571: 59
7a1e90: 59
877b9f: 59
7a25b1: 59
7a1e9f: 59
7a2911: 59
7a1592: 59
78028d: 59
7a157c: 59
7a2e8e: 59
7a0f59: 59
7a0fc9: 59
7a0fbb: 59
8797df: 59
7a28fb: 59
7a58b4: 59
87518e: 59
7802bd: 59
7802c5: 59
7802cf: 59
87779d: 59
7a25f9: 59
877b40: 59
877baf: 59
8751b4: 59
87517d: 60
87519b: 60
7db2d0: 60
7db214: 60
97a5f0: 60
7da9b6: 60
830697: 60
7db1fa: 60
87a7be: 60
87a770: 60
7da9e3: 60
848588: 60
7dab41: 60
7da99d: 60
7db3e0: 60
8754f1: 60
7a3efd: 60
87b342: 60
8308e9: 60
7a3ea5: 60
7db412: 60
875472: 60
7db6a9: 60
8e3bb5: 60
87a0f0: 60
87b331: 60
8756e8: 60
7daa21: 60
7daa63: 60
8756e0: 60
7da962: 60
7daa9f: 60
875170: 60
7dacde: 60
7dad22: 60
848010: 60
7da953: 60
87b3c8: 60
7db129: 60
920467: 61
873f93: 61
872f84: 61
873fc1: 62
920473: 62
92045b: 62
873f26: 62
8730a0: 62
91fb3d: 62
91fb2f: 62
873fd1: 62
873f8b: 62
873f31: 62
91fa93: 62
873ec4: 62
879642: 63
7dc5a9: 63
792b6c: 63
650354: 65
790fa4: 65
650f5a: 65
8308e0: 65
7973a0: 65
797389: 65
650361: 65
879bd0: 65
78ebb9: 66
78fb33: 67
786349: 69
91d7f0: 69
8650bf: 69
828480: 69
879630: 69
91d800: 69
91d80c: 69
91f826: 69
4004b0: 69
780395: 69
91f8d6: 69
91f83d: 69
78f324: 70
7d4e97: 70
7d5ab0: 72
87beb2: 72
879840: 73
78fd15: 73
7948a3: 74
78da4a: 74
794a03: 74
78d3aa: 74
78e342: 74
78f785: 74
794896: 74
78d312: 74
79492c: 74
7964b0: 74
7948b2: 74
790f81: 74
7db037: 74
78d3e2: 74
78d21b: 74
78d37e: 74
78d4e6: 74
79496f: 74
78da6e: 74
78f068: 74
7948c4: 74
78d1fe: 74
78da63: 74
78e31d: 74
794976: 74
78d288: 74
87bedf: 74
78d344: 74
78d279: 74
78d237: 74
790f89: 74
78d1e8: 74
7948aa: 74
78da60: 74
79494a: 74
794988: 74
78d255: 74
78e314: 74
78da21: 74
78da88: 74
78d299: 74
87bee9: 75
650d95: 75
64f598: 75
785f6e: 75
785f7b: 75
785fa1: 75
64e9f5: 75
848564: 75
650dc1: 75
7d5d96: 75
650dcf: 75
872dc0: 75
7d5de3: 75
7d5d26: 75
796c59: 75
650e5a: 75
64e9e5: 75
794c49: 76
7950d6: 76
794fcc: 76
794ff0: 76
95faa2: 76
95fa42: 76
79531d: 76
79543b: 76
78dea7: 76
95f9fa: 76
78eeb2: 76
795b2b: 76
795627: 76
7953f5: 76
961866: 76
7d5d53: 76
86ed52: 76
96175b: 76
795c7e: 76
80dea7: 76
78f584: 76
78d175: 76
7950fa: 76
78e6f0: 76
78f4f9: 76
78e3a8: 76
78e3b7: 76
78e3e4: 76
78e766: 76
78e7a6: 76
78eb41: 76
78573a: 76
78eef0: 76
795b65: 76
78ee86: 76
80deb6: 76
78f548: 76
78eea3: 76
78f5d7: 76
78ded1: 76
78fe44: 76
78fff4: 76
78fb59: 76
95faa8: 76
795b45: 76
78fe1a: 76
78fe62: 76
78ff2d: 76
78ff3c: 76
78ff78: 76
7900b7: 76
790205: 76
78e6d3: 76
7d5cab: 76
795458: 76
78e70b: 76
790120: 76
78ff96: 76
78e7bc: 76
78fec8: 76
78d1a8: 76
7900d5: 76
7900f3: 76
78e04e: 76
650d14: 76
7aa436: 76
794c02: 76
795f1a: 76
848259: 76
786387: 76
790012: 76
80c6a9: 76
80c6b8: 76
7953fd: 76
795914: 76
7862ad: 76
78f5f5: 76
790099: 76
78e6e9: 76
78f597: 76
64ef56: 76
78fb86: 76
78dd9d: 76
78deb5: 76
7d5e79: 76
78fee2: 76
95f96f: 76
78fb1c: 76
7d5e36: 76
8650df: 76
7901f6: 76
790111: 76
7901d8: 76
96179f: 76
78e73d: 76
78e66e: 76
78e402: 76
795451: 76
78df0e: 76
785fc6: 76
795fa8: 76
78e7cc: 76
78e753: 76
78ff0f: 76
795b7b: 76
78fe28: 76
7862ee: 76
78e71f: 76
79007b: 76
78f566: 76
78f50f: 76
7aa43e: 76
78fe06: 76
790021: 76
864e7b: 76
78f5ed: 76
78e34c: 76
650cdc: 76
78ee94: 76
78fef1: 76
78dee3: 76
78fe36: 76
7d53ff: 77
7dafd7: 77
796a6b: 77
64e4ac: 77
792ba3: 77
66354a: 77
7d5746: 77
960bb5: 77
86da2b: 77
96161a: 77
7d53db: 77
6656b8: 77
796da8: 77
64fb17: 77
960100: 77
80db62: 77
64f893: 77
872b4b: 77
665841: 77
7d53c5: 77
7a8940: 77
80c4f7: 77
64d82d: 77
7972c7: 77
6632fc: 77
7d57c2: 77
64f4d0: 77
7d5a5b: 77
64b45d: 77
7d4ed6: 77
64b4cc: 77
7d4e0f: 77
64b34f: 77
64b421: 77
797fe0: 77
796588: 77
86d6f8: 77
64b4b9: 77
8309ad: 77
7d538f: 77
872b2c: 77
64f4e0: 77
64b43f: 77
65e73d: 77
86d750: 77
6645b8: 77
961603: 77
86d72e: 77
64f7b4: 77
6643a2: 77
86de0d: 77
7960ab: 77
6510b2: 77
7d4e3c: 77
64f427: 77
64b4a4: 77
80dc66: 77
649fad: 77
65f3bc: 77
864e58: 77
7d5710: 77
97a406: 77
64b18c: 77
64fa69: 77
7d5dc5: 77
65f81f: 77
65f7d3: 77
86d702: 77
64b34a: 77
64ae29: 77
663515: 77
7965bb: 77
7d5036: 77
848228: 77
798255: 77
64b403: 77
80dc3f: 77
86d73b: 77
64e422: 77
650419: 77
7de789: 77
6656cd: 77
796c68: 77
64b336: 77
7a896c: 77
7d5701: 77
831a64: 77
6994f4: 77
64ffa9: 77
830e89: 77
7d53e2: 77
64b47b: 77
64b491: 77
796078: 77
86e14e: 77
7f91cb: 77
86d6c0: 77
65dce6: 77
64f57f: 77
650fb9: 77
7d5589: 77
64b58b: 77
86d68c: 77
65f7d9: 77
7972cf: 77
64b485: 77
80c51f: 77
87aa38: 77
7d4fe5: 77
7d5e54: 77
7d5380: 77
961615: 77
97a40a: 77
791529: 78
8650d8: 78
7a44d4: 78
7d5d08: 79
825c5b: 80
848052: 80
84803f: 80
78fcd7: 81
7d5d8f: 83
7d5d71: 83
794f93: 84
875682: 85
64b1f0: 85
7d5ee9: 85
78f309: 85
827628: 85
7d5e18: 86
64b68d: 86
7d5ecb: 87
873500: 88
64bcf1: 88
7d5eb5: 88
78fcfa: 89
848130: 91
86507c: 94
792ff3: 95
64e51b: 96
87bec9: 97
650f50: 97
64b5b8: 98
7d78e2: 99
7d65e8: 99
65ebd0: 101
87bfc4: 102
864e74: 103
794f13: 103
795f07: 104
735bb2: 104
64b810: 104
87bea0: 106
735b4f: 106
795ef9: 109
78bcdc: 112
64a26a: 113
7d76eb: 113
65f0c4: 113
64b5b0: 113
64b8f4: 114
87c4b0: 115
797d89: 116
64bc30: 118
7d780e: 119
7934fd: 120
87aa30: 120
7db2d9: 120
873e84: 120
873da6: 121
792462: 121
7d78a6: 122
875580: 122
7867f0: 124
7d7701: 125
793410: 126
920405: 127
735d4d: 130
7d78fc: 131
8751e0: 131
78fd39: 132
796919: 133
8d02f2: 134
78bf90: 135
7db980: 136
84234b: 136
91d8ac: 136
8e33fc: 137
79243e: 137
8e38c0: 137
8d02d1: 137
97a5f3: 137
792c1b: 139
735b6d: 143
792b64: 143
65f374: 143
78f367: 144
64b61f: 145
87a934: 146
64c2f0: 148
7914b0: 148
7914d0: 150
87a910: 152
8e4089: 153
649bdb: 154
97a434: 154
97a431: 154
64c277: 155
7dbbe0: 156
87351c: 157
920365: 160
64b65b: 164
64b674: 165
735b8c: 166
64e538: 166
873514: 167
873458: 168
864e32: 168
793cb3: 168
794797: 169
64b180: 170
827b90: 170
864e51: 171
7a3571: 172
78be2c: 173
878860: 175
7a3565: 176
7a37e0: 177
878014: 177
7a5e50: 177
7a1c00: 177
877634: 177
877630: 177
780370: 177
7a2be6: 178
827931: 179
827855: 179
735d6c: 179
82794d: 180
7db2f0: 180
7d7980: 183
7a11d0: 183
7dafc3: 184
7a3de6: 187
873160: 190
97a6e3: 190
977420: 191
793ccc: 191
8780d4: 193
78dc10: 194
7dc3f9: 196
873440: 198
91d8be: 200
793c86: 202
650071: 202
78680d: 204
7a1d24: 206
735d92: 209
7eedb0: 209
7a2882: 210
64b783: 211
7eee1a: 211
879be8: 211
64becb: 212
7a1b44: 213
84804a: 215
873454: 215
7d58f6: 216
7a5e63: 216
7d6596: 221
79153b: 222
78fcd2: 222
793065: 222
7914f2: 224
7d73d0: 225
7d65fb: 225
7a11d5: 226
78f305: 227
64e4ef: 228
7a1825: 228
78f990: 229
7a2876: 229
5416e9: 230
5416e3: 230
5416d0: 230
64a5e0: 231
649ccc: 231
649d42: 231
649d25: 231
649cdb: 231
649c91: 231
64a5d1: 231
831900: 231
64a5bb: 231
64a622: 231
64e411: 231
64a605: 231
64a596: 231
649d3b: 231
649ca7: 231
649cb6: 231
64a637: 231
64a587: 231
649c82: 231
64a613: 231
847fed: 231
864e5b: 231
649d16: 231
64a5ac: 231
649d00: 231
7eed90: 231
7d4e83: 231
7f91b9: 232
64f7b0: 232
78f8c0: 233
64e521: 233
827640: 234
831ae1: 237
86507f: 237
7db2eb: 240
64ebc4: 241
650e40: 241
794bf3: 242
796927: 242
873e00: 244
786334: 244
794f03: 244
86da84: 245
7d65b9: 246
64b3a0: 248
7a89a0: 248
650350: 248
8481e4: 248
797380: 248
7dad2e: 248
651039: 249
7db1cd: 250
65f370: 250
78e033: 252
7eee20: 253
7eedb7: 253
64e97d: 253
64f7bc: 254
7db16d: 257
795efe: 257
87b320: 260
977500: 260
8273c4: 261
7dacd1: 261
795f0c: 263
7a3b46: 264
794bdf: 265
64e401: 265
8e3ba1: 274
78eaf9: 275
794c97: 276
827556: 276
794c39: 277
64e3d0: 277
7dacbf: 277
78f90a: 278
7d5915: 279
79691e: 280
794ce8: 280
78f9ed: 281
831bbd: 283
797bc9: 284
78fa57: 285
78ead7: 285
78f9ac: 286
78eaa1: 287
794c55: 288
87b872: 290
78e045: 290
78fa08: 291
848295: 291
92a732: 291
875601: 293
7d5544: 293
78d81b: 294
64e3e3: 295
78e00c: 295
876eb0: 297
7d5947: 297
8262ad: 298
78d8f1: 298
78f968: 299
8737b3: 299
82741e: 300
78ea64: 300
78d804: 301
78e01e: 302
873899: 303
78f9d1: 304
64a109: 305
7d556d: 305
794c82: 306
848031: 306
865075: 307
64e4cc: 308
791557: 308
796e20: 308
797110: 308
876ec2: 309
78ec46: 310
64f830: 312
864e8d: 317
78eb11: 318
825bdc: 318
787b19: 318
79692c: 318
7a88f4: 319
8274f9: 319
8274c4: 319
7dadc6: 320
5e95e0: 320
8276d4: 320
827465: 320
794cd6: 321
78e540: 321
78fa3f: 322
794c20: 324
5416a0: 324
97985d: 325
7d65b3: 325
5416b9: 325
64b8f0: 327
794cbd: 330
4004f0: 330
64ffb1: 332
78fa8b: 332
864e3f: 333
5416b3: 335
7d6610: 335
78fa6a: 335
78ec2e: 338
7d597d: 339
78eb31: 339
64aa02: 340
7d5955: 342
825be2: 344
7d59b0: 346
7dadb4: 350
78ebb0: 350
78f160: 352
651046: 353
78ebf4: 357
78d856: 357
7dad14: 361
831bb0: 364
78e5e0: 366
78d8fa: 366
7d6609: 368
7d55d7: 369
7dad71: 369
830a00: 371
65dca0: 375
7dad9b: 375
864e92: 379
78f165: 380
825cf3: 380
7955ad: 381
825e03: 381
64aa40: 382
7d55aa: 383
865011: 383
827391: 384
7dad5c: 384
7de7ae: 385
7de781: 385
64a0f2: 386
864e9a: 388
825d78: 392
825c63: 392
795249: 396
8273ea: 397
7dacfc: 409
64ace1: 409
7a2bf3: 410
78d840: 410
7952d8: 416
78f300: 420
787b1e: 423
64a9e4: 425
8755b1: 430
64a9ea: 431
877c20: 432
7d73a7: 439
7d7382: 440
7a5d80: 446
64a40e: 450
87ab70: 450
64ea30: 457
865091: 460
865020: 460
864f2c: 460
864ea8: 460
7dbbf2: 461
6645d6: 462
96159e: 469
873c80: 470
7955a3: 472
64a15c: 476
873e70: 484
961597: 485
797392: 486
7867f8: 487
84855c: 488
78d86c: 496
848567: 503
64a9f1: 506
7d7354: 507
7d73e6: 510
7914e2: 535
873ce0: 538
7dafcd: 539
7a1c08: 539
8306d0: 540
7d78a0: 541
64b828: 542
78d883: 542
9600e1: 543
786816: 544
848021: 546
7d65a9: 546
84854e: 548
64a0ec: 553
87a740: 556
78f332: 559
7d7378: 559
7d59be: 566
8755ce: 572
7d78ec: 577
848572: 582
7a1c88: 586
7f93b0: 586
7db02d: 586
794f0b: 587
843064: 593
78633c: 603
780383: 608
7d592f: 608
7d4e8b: 610
9636b4: 618
7a88f0: 618
7f958c: 623
961641: 630
794f8b: 634
793cbd: 638
9636a0: 642
64a9d3: 648
7d6584: 649
64bf00: 650
7863fc: 651
963d00: 652
96156e: 654
87c89e: 654
963689: 655
9636c9: 658
7d4f4b: 658
847ff8: 660
793ca0: 666
793ca5: 670
7d78cb: 675
7d78d2: 676
7db0f7: 679
78fd08: 681
7914aa: 683
7f9580: 684
791569: 685
7a3a67: 685
7a5ab0: 692
64acc0: 693
64a0d4: 695
7d6622: 695
78fcf1: 699
7d7405: 700
79309d: 702
792fd9: 705
793847: 708
87c8a3: 709
793caa: 711
7d5994: 713
64bf70: 714
78037a: 715
7a3cf7: 724
7f91ee: 724
7db097: 726
792fa1: 729
7951a3: 731
792816: 732
7914ec: 736
7914bd: 740
7927ea: 742
64a9cd: 744
793888: 744
780a19: 746
64a0e6: 747
64a140: 748
7937ca: 752
7eeda7: 752
79286a: 755
792835: 757
7914fc: 758
78039a: 759
64aa49: 759
78fccd: 760
7d7391: 762
793c80: 763
791551: 763
7d78d8: 766
786404: 766
7d4f53: 768
79307b: 773
793802: 782
780707: 788
97a6e0: 789
792fb4: 789
64a9bc: 804
79303b: 810
793c95: 814
7d65d1: 815
87a86a: 816
78d8aa: 817
7d78be: 825
78fd47: 828
792feb: 828
7eedee: 835
7eedf7: 837
65e6f0: 837
78fd2c: 840
64a0bc: 847
87da67: 848
7d65c3: 851
791512: 856
7d557c: 856
786344: 858
78f31a: 859
7d4e93: 862
7861f0: 863
65035d: 865
7eed9d: 871
64a0b6: 873
7d5556: 873
64a0b0: 881
831ac2: 891
879e61: 913
7861f5: 915
65e6f9: 915
97751b: 917
87bc30: 923
64acdc: 924
64a9b6: 924
64a0ce: 926
64a9b0: 943
9774bc: 943
64b718: 946
878018: 950
795093: 967
875614: 1003
84305d: 1035
9774c3: 1050
64b710: 1056
793026: 1090
79640e: 1096
977499: 1109
788760: 1123
64b724: 1158
7a5cd0: 1187
8e3f10: 1203
825ca0: 1204
977492: 1251
79641c: 1251
796409: 1260
788765: 1286
7f93eb: 1348
78d90a: 1373
796417: 1405
875625: 1467
842355: 1483
78d8e1: 1513
977406: 1611
78e549: 1662
77e319: 1692
77e3c9: 1701
78d898: 1720
78d8c1: 1732
86da91: 1745
879647: 1760
77e1b9: 1784
879635: 1812
7f9229: 1829
77e1b5: 1874
78d917: 1893
77e269: 1929
876eb5: 1931
873340: 1937
876ec7: 1956
92a76e: 2004
7f95df: 2154
8e40a7: 2165
7801f0: 2251
872f80: 2301
7a58b0: 2330
87564b: 2482
87b869: 2496
848138: 2514
7a2214: 2541
7a5cd4: 2622
86de69: 2644
78d932: 2695
86da89: 2719
86da8d: 2912
87565c: 2940
92a744: 2954
64b82c: 3733
78e5e8: 3824
825db0: 5792
78dcf0: 6274
843168: 7203
848660: 7617
872bd4: 8577
848668: 10983
8306df: 20269
L1I TOTAL     ACCESS:   38985640  HIT:   38870835  MISS:     114805  HIT %:    99.7055  MISS %:    0.29448   MPKI: 0.574025
L1I Test counter:          0
L1I LOAD      ACCESS:   38985640  HIT:   38870835  MISS:     163038  HIT %:    99.7055  MISS %:    0.29448   MPKI: 0.574025
L1I PREFETCH  REQUESTED:          0  ISSUED:          0  USEFUL:          0  USELESS:          0
L1I USEFUL LOAD PREFETCHES:          0 PREFETCH ISSUED TO LOWER LEVEL:          0  ACCURACY: -nan
L1I TIMELY PREFETCHES:          0 LATE PREFETCHES: 0 DROPPED PREFETCHES: 0
L1I COMMIT LATE PREFETCHES: 0 MISSED OPPORTUNITY: 0 LATE IN PQ: 0 UNCOVERED: 0
L1I COMMIT LATE MSHR PREFETCHES: 0
L1I MPKI TOTAL: 0.81519 MSHR LATE: 0 PQ LATE: 0 COMMIT LATE: 0 MISSED OPPORTUNITY: 0 UNCOVERED: 0
L1I PREFETCHES SAME FILL-ORIGIN LEVEL: 0 DIFFERENT FILL-ORIGIN LEVEL: 0
L1I AVERAGE MISS LATENCY: 49.2533 cycles
L1I AVERAGE MISS LATENCY LOAD: 49.2533 cycles
L1I AVERAGE MISS LATENCY PREFETCH: -nan cycles
L1I AVERAGE MSHR OCCUPANCY: 0.00445498
L1I MSHR FULL: 0
L1I RQ	ACCESS:   60575818	FORWARD:          0	MERGED:   21541945	TO_CACHE:   39033873

7a2f40: 1
876501: 1
876584: 1
7a2d06: 1
78c181: 1
8765c0: 1
7a2d42: 1
876603: 1
786a41: 1
78c200: 1
8767be: 1
8764c0: 1
876e83: 1
876ec2: 1
77c3c0: 1
8772c0: 1
877343: 1
785b83: 1
8775c1: 1
8775b5: 1
877607: 1
7a1140: 1
873d80: 1
87bac3: 1
87ba85: 1
87bb15: 1
78a641: 1
876160: 1
876184: 1
8761c3: 1
7a4ee0: 1
8762d0: 1
7a3100: 1
876303: 1
64bdc0: 1
78bf44: 1
87bb86: 1
876403: 1
77b8c3: 1
876442: 1
77c58b: 1
876485: 1
4004b0: 1
77e880: 1
878045: 1
8780c1: 1
7a4882: 1
878880: 1
7a5002: 1
77dd40: 1
878a83: 1
8fa290: 1
91fc40: 1
877fc2: 1
87d9c3: 1
91f884: 1
874882: 1
91f901: 1
91f943: 1
91f9c8: 1
91fa01: 1
91fa41: 1
91d7c0: 1
873ec2: 1
872af3: 1
877644: 1
877780: 1
8777c1: 1
77cc81: 1
877b30: 1
7a5bc4: 1
877b81: 1
873e00: 1
873e80: 1
873cc2: 1
874084: 1
874180: 1
877bc5: 1
877c44: 1
877e8b: 1
877f01: 1
877f40: 1
877f81: 1
786584: 1
7808c5: 1
789d07: 1
77e100: 1
8734c3: 1
873500: 1
873540: 1
789dc6: 1
8735c1: 1
77e240: 1
873641: 1
8736ab: 1
873481: 1
7db387: 1
8736c2: 1
787c03: 1
8787c4: 1
786d86: 1
873741: 1
787981: 1
7a5682: 1
77e3c0: 1
796b00: 1
87b843: 1
78bc81: 1
87b888: 1
87b8c6: 1
7a1c00: 1
873286: 1
7a5443: 1
8279c2: 1
77b406: 1
7a2707: 1
8737c5: 1
827b40: 1
827b80: 1
786542: 1
827bc0: 1
8732c2: 1
873307: 1
7dc509: 1
91f8c3: 1
873386: 1
873b40: 1
7a3b40: 1
92a683: 1
92a6c2: 1
878947: 1
7a3c40: 1
92a783: 1
788545: 1
9112f0: 1
912888: 1
7a2502: 1
7a5cd0: 1
78a3c6: 1
873b80: 1
7a5ac1: 1
876df6: 1
873bc0: 1
7dbc00: 1
7d89ca: 1
873c00: 1
873c80: 1
873a01: 1
77e444: 1
873800: 1
873880: 1
78a106: 1
8738c0: 1
873900: 1
873940: 1
87b707: 1
873980: 1
91d882: 1
8791c0: 1
873a40: 1
787c80: 1
7a5981: 1
8fa010: 1
400500: 1
87c101: 1
92a630: 1
92a640: 1
87be81: 1
876103: 1
91d800: 1
78bd00: 1
87bbc1: 1
7a2b84: 1
786840: 1
87bc81: 1
786900: 1
7da400: 1
87bddd: 1
8760c0: 1
7a2e44: 1
87bee9: 1
87bf0e: 1
87bf46: 1
735ae0: 1
735b84: 1
7898c7: 1
77dcc0: 1
735bc4: 1
77ae80: 1
8756c0: 1
8757c0: 1
7a4d40: 1
875847: 1
875880: 1
875981: 1
7d81f0: 1
8759c0: 1
78c246: 1
874645: 1
96b842: 1
875a03: 1
875a41: 1
7a21c3: 1
7806c0: 1
875b41: 1
875b80: 1
875eb0: 1
875f80: 1
876081: 1
87d842: 1
87c85f: 1
77f784: 1
87c880: 1
9773c0: 1
87c8c2: 1
87ce86: 1
87cec5: 1
87cf46: 1
7a3280: 1
87d81d: 1
87c800: 1
87d881: 1
77d582: 1
87d8c5: 1
64be80: 1
87da42: 1
7886c1: 1
87dac0: 1
87db03: 1
788782: 1
87c3c1: 1
7dbec1: 1
87bf83: 1
87c042: 1
7a4a01: 1
77bd43: 1
87c0c6: 1
664f8b: 1
87c082: 1
87c181: 1
87c381: 1
7d97c3: 1
87c441: 1
87c49d: 1
874740: 1
87c4c7: 1
87c544: 1
77c245: 1
87c5c3: 1
87c602: 1
87c645: 1
874200: 1
879240: 1
78a307: 1
7a5543: 1
787842: 1
879280: 1
78a347: 1
8792c6: 1
7a55c5: 1
879302: 1
7a5a84: 1
7a5503: 1
874240: 1
91fb00: 1
91fef8: 1
920442: 1
920480: 1
86eb85: 1
7a5e05: 1
7a2be1: 1
874280: 1
7a4781: 1
91d941: 1
91fac1: 1
91fd10: 1
878ec2: 1
7a2420: 1
878eb0: 1
77bb81: 1
873f04: 1
8725e9: 1
872603: 1
874503: 1
8729c2: 1
87d940: 1
86eb15: 1
77d641: 1
879140: 1
830740: 1
8307c9: 1
830883: 1
830940: 1
8754c7: 1
78a601: 1
8750b4: 1
7a13c3: 1
875100: 1
7a1882: 1
875142: 1
875184: 1
875483: 1
780102: 1
7a49c0: 1
874a04: 1
875507: 1
7a1000: 1
875580: 1
7d9701: 1
8755c2: 1
875601: 1
780280: 1
875642: 1
785a80: 1
874802: 1
8fa603: 1
874600: 1
92a702: 1
8746c6: 1
874683: 1
874701: 1
8747c1: 1
7a0f43: 1
78bcd0: 1
87b7c4: 1
874840: 1
7a0fc2: 1
8748c2: 1
7a1044: 1
874900: 1
874984: 1
874946: 1
8749c0: 1
7d8b41: 1
87a965: 1
78bec4: 1
78a507: 1
77e344: 1
7a0d80: 1
7db682: 1
7a5400: 1
827981: 1
77cecb: 1
91daf8: 1
87ba44: 1
77c184: 1
87cf00: 1
77cc01: 1
7db2c2: 1
7a3502: 1
7a5583: 1
8724c3: 1
873780: 1
788600: 1
7a5342: 1
879e00: 1
876547: 1
7a2040: 1
7d9980: 1
77df00: 1
77aec0: 1
91fe07: 1
87c247: 1
8744c0: 1
86ed01: 1
780806: 1
7a4743: 1
812aaa: 1
77f2c0: 1
7d87c2: 1
77b082: 1
7a3301: 1
87b480: 1
786882: 1
7a4e02: 1
7a4c04: 1
87da85: 1
7d8740: 1
7a3581: 1
787c40: 1
787683: 1
879840: 1
7a5b03: 1
873400: 1
87c580: 1
7d9288: 1
77f3c4: 1
77b985: 1
877300: 1
876200: 1
7a5d80: 1
787ac2: 1
77cac0: 1
7dc301: 1
7a4286: 1
830780: 1
77d800: 1
7db842: 1
7a12c0: 1
87da00: 1
78c3c3: 1
87de01: 1
873d00: 1
77c040: 1
92035e: 1
7db800: 1
7878c1: 1
87de50: 1
7a1200: 1
789ec6: 1
665007: 1
875201: 1
7a3380: 1
87941c: 1
7a3603: 1
7d9ac2: 1
879b84: 1
786942: 1
7a2c03: 1
78bc20: 1
875682: 1
7a5c00: 1
8773c2: 1
87b440: 1
780900: 1
7a24c0: 1
831ec3: 1
77be87: 1
87bc40: 1
920383: 1
7dc6c0: 1
77ccc1: 1
872a40: 1
78c003: 1
91db03: 1
735c05: 1
77ebc1: 1
7a29c1: 1
87d980: 1
77ed01: 1
7a3e80: 1
7f9480: 1
789e03: 1
77c6c1: 1
8fa5c0: 1
77dbc0: 1
7d9a00: 1
7a2cc7: 1
7daf03: 1
780640: 1
77d681: 1
873b08: 1
78a242: 1
7a36c1: 1
87c680: 1
812a41: 1
77c503: 1
7a27c3: 1
77b501: 1
789f40: 1
87c2c0: 1
7a2f02: 1
7805c0: 1
7885e8: 1
7db1c0: 1
735b40: 1
789883: 1
7dbe85: 1
8741c0: 1
7877c0: 1
87b905: 1
77fa81: 1
7a3880: 1
780786: 1
7d8d00: 1
77fdc0: 1
7d92c2: 1
875907: 1
78b500: 1
77b803: 1
7a44c1: 1
7a3142: 1
8788c1: 1
878843: 1
786a01: 1
87c341: 1
78c143: 1
87ab80: 1
53c6c0: 1
87b68e: 1
7a2e00: 1
872474: 1
77e300: 1
7a5140: 1
878000: 1
875a85: 1
77bb41: 1
7803d0: 1
873d41: 1
77e9c0: 1
78a5c7: 1
77f282: 1
879c00: 1
77f0c0: 1
879c81: 1
879d02: 1
874543: 1
77f1c2: 1
879d42: 1
77f202: 1
78a180: 1
879dc2: 1
77e383: 1
78a200: 1
879e40: 1
77f300: 1
788484: 1
879ec2: 1
77f181: 1
7d8884: 1
879f05: 1
879f40: 1
735e01: 1
8308c1: 1
879780: 1
879770: 1
735cb0: 1
735cc1: 1
8790bb: 1
735d01: 1
735d80: 1
735dc3: 1
830903: 1
91f800: 1
77c801: 1
735e42: 1
879802: 1
874043: 1
77ecc2: 1
879886: 1
7db640: 1
789cc4: 1
879b4c: 1
87b385: 1
87ab03: 1
87ab42: 1
87abc2: 1
87ac02: 1
78b040: 1
87b301: 1
7807c1: 1
87b2f0: 1
8735bb: 1
87b342: 1
87aac3: 1
87b400: 1
77eac6: 1
87b4c1: 1
87b581: 1
87b5c0: 1
87b646: 1
87b6c0: 1
875f01: 1
7d9440: 1
87a740: 1
874781: 1
7d9ec0: 1
879f82: 1
87a000: 1
87a042: 1
7d8a04: 1
87a0c4: 1
87a700: 1
87a6e0: 1
785842: 1
77fc00: 1
87a7c5: 1
87a883: 1
8750c4: 1
87a902: 1
7da941: 1
87aa03: 1
7d93c5: 1
87aa40: 1
875942: 1
87a844: 1
87403f: 1
77e543: 1
8731c0: 1
7a5101: 1
789a46: 1
7a3086: 1
7a2e82: 1
874582: 1
7dab41: 1
77c8c3: 1
7a5b45: 1
7a5b81: 1
87c6c5: 1
7db785: 1
7a1942: 1
91fde8: 1
7a18c0: 1
7da443: 1
87899c: 1
77df40: 1
7dc604: 1
77d043: 1
78a881: 1
874481: 1
77f100: 1
7d8602: 1
877c01: 1
87c745: 1
77d7c0: 1
786d52: 1
876803: 1
7dc803: 1
77d940: 1
7a46f0: 1
78830a: 1
77d084: 1
77d9c0: 1
7a4103: 1
8fa644: 1
77b200: 1
7a50c3: 1
7a1fc7: 1
7d9b01: 1
7db7c9: 1
77e800: 1
7a4245: 1
7a4e81: 1
7a4f02: 1
77dc40: 1
788704: 1
788075: 1
7d9600: 1
77de01: 1
87ba03: 1
8794f0: 1
879501: 1
78ad38: 1
879540: 1
77fec1: 1
879686: 1
877280: 1
780081: 1
77ce42: 1
77d6c1: 1
77e841: 1
875540: 1
77f081: 1
77d141: 1
7d4d02: 1
91fe43: 1
7d9942: 1
87db84: 1
7a2146: 1
77dd02: 1
7a4cc7: 1
7da980: 1
7a3fc0: 1
87bfc0: 1
873a8a: 1
7a2f83: 1
7a1c80: 1
789c42: 1
789941: 1
789981: 1
7899c7: 1
789a81: 1
87b540: 1
789b02: 1
789b80: 1
7db540: 1
789bc4: 1
789c00: 1
789900: 1
77ed86: 1
87b781: 1
789d43: 1
789e40: 1
789f06: 1
789fc6: 1
78a040: 1
78a080: 1
78a0c2: 1
788681: 1
787b00: 1
827c01: 1
876347: 1
77cb82: 1
787b43: 1
787bc3: 1
7883c3: 1
788401: 1
788505: 1
788641: 1
78a141: 1
788750: 1
7887c0: 1
788840: 1
789661: 1
77e703: 1
7896c0: 1
789700: 1
7897c0: 1
789804: 1
7a5270: 1
78bd42: 1
7a1d00: 1
78bd86: 1
77cf5b: 1
78bdc1: 1
78be40: 1
78be20: 1
78bfc0: 1
872ac1: 1
78c040: 1
78b9c2: 1
78c0c0: 1
78c1c3: 1
78c302: 1
78c340: 1
78c401: 1
5416d0: 1
78c442: 1
77bd05: 1
87dec3: 1
78ad45: 1
78a2c7: 1
78a380: 1
7dbd81: 1
78a405: 1
78a485: 1
77f5c7: 1
78a584: 1
78a8c0: 1
78a901: 1
77ae4d: 1
787a81: 1
77fe03: 1
78adc0: 1
78af82: 1
78b545: 1
7a51c5: 1
7d8e40: 1
78b5c0: 1
78b603: 1
78b902: 1
77ffc1: 1
77fac0: 1
7869e1: 1
786d22: 1
77fb80: 1
77fc44: 1
77fc84: 1
77fd02: 1
77fd44: 1
77fe86: 1
77ff02: 1
7d82c1: 1
780042: 1
780003: 1
78afc0: 1
77ce1e: 1
77fe41: 1
7d9544: 1
780180: 1
7d9682: 1
7d98c6: 1
911300: 1
77f241: 1
77f347: 1
77f384: 1
77f403: 1
77f4c1: 1
77f685: 1
77f66e: 1
77f700: 1
77f74e: 1
77f7c0: 1
7801c3: 1
77f800: 1
77f882: 1
78a800: 1
77f902: 1
77f993: 1
7d9107: 1
77fa04: 1
7dc381: 1
77fa48: 1
7a5602: 1
780a81: 1
786dd7: 1
786e03: 1
78708a: 1
787601: 1
7d9080: 1
787704: 1
787746: 1
787784: 1
787803: 1
78b943: 1
787901: 1
7a5642: 1
787941: 1
77ca04: 1
7a56c2: 1
7879c1: 1
876e40: 1
78b86e: 1
787a40: 1
780500: 1
780200: 1
780243: 1
7802c5: 1
780305: 1
780405: 1
87ce40: 1
780445: 1
7804c0: 1
77ad01: 1
78c485: 1
7d9c44: 1
780541: 1
7d9e03: 1
780700: 1
780741: 1
780982: 1
77b1c3: 1
78b982: 1
7809c5: 1
7d8201: 1
77ad44: 1
77adc2: 1
77ae07: 1
77af20: 1
92a741: 1
77af40: 1
77af8d: 1
77afc0: 1
77b142: 1
77e950: 1
7a3a02: 1
7d8247: 1
7a4605: 1
7d8280: 1
7d8302: 1
7d8345: 1
7d8405: 1
7a4845: 1
7d84c0: 1
7d8544: 1
77e146: 1
77db43: 1
77dc01: 1
77ddbc: 1
77de40: 1
77dec0: 1
87c1c3: 1
77dead: 1
77df9d: 1
77dfc0: 1
77e0c5: 1
7d85c5: 1
77e182: 1
77e1c5: 1
77e280: 1
77e2c2: 1
77d850: 1
77d881: 1
77d705: 1
77aca0: 1
77acc6: 1
7d9400: 1
787644: 1
7d8fc0: 1
7d9043: 1
7d90c0: 1
7d9181: 1
91f7c0: 1
7d91d0: 1
7d9202: 1
7d9307: 1
7d9340: 1
7d8f40: 1
879582: 1
7d94c0: 1
7d9503: 1
97acd1: 1
7d96c3: 1
7d97ac: 1
7d9886: 1
7d9a42: 1
7d9a81: 1
7d8a83: 1
7d8645: 1
7d86c7: 1
7d8700: 1
7d8787: 1
77bec7: 1
7d8800: 1
7a4c45: 1
7d88c0: 1
7a4dc5: 1
7d8a40: 1
77db00: 1
7d8ac0: 1
7d8b03: 1
7d8c40: 1
7d8c82: 1
7a5045: 1
7d8cc0: 1
7d8d81: 1
7d8e01: 1
7d8ec1: 1
77c2c1: 1
77c000: 1
77c086: 1
77c0c0: 1
8758c5: 1
77c100: 1
873fea: 1
77c140: 1
77c1c0: 1
77c200: 1
77c284: 1
77bfc0: 1
7a4fc0: 1
7a36a5: 1
77c302: 1
77c347: 1
77c393: 1
77c403: 1
77c456: 1
77c5c7: 1
77c600: 1
77b845: 1
78c4c2: 1
78c502: 1
77b280: 1
77b303: 1
77b3c3: 1
77b485: 1
77b600: 1
77b686: 1
77b700: 1
77b741: 1
77c681: 1
77b885: 1
77b942: 1
77ba81: 1
77bbc2: 1
7a4900: 1
77bc42: 1
77bc81: 1
77bdc0: 1
77bf50: 1
77d501: 1
77d0c0: 1
77d105: 1
77d187: 1
77d240: 1
77d2c2: 1
77d385: 1
77d401: 1
879e82: 1
788444: 1
77d487: 1
77cf84: 1
77d540: 1
788580: 1
77d5c3: 1
77d600: 1
77d778: 1
77d980: 1
77da02: 1
77da43: 1
77dac6: 1
879481: 1
77c701: 1
77c741: 1
77c783: 1
77c7c2: 1
77c881: 1
77c941: 1
77c980: 1
77c9c2: 1
77ca40: 1
77f146: 1
77ca86: 1
77cb02: 1
77b442: 1
77cd5d: 1
77fd80: 1
7d9483: 1
77cd81: 1
77cdc7: 1
77ce80: 1
873724: 1
7a5dc0: 1
7a5e40: 1
7a5e81: 1
7a5ec0: 1
7a0f80: 1
7a10c7: 1
7a1100: 1
7a1182: 1
7a11d0: 1
7a1243: 1
789a01: 1
7a1302: 1
7a1342: 1
7d8d41: 1
7a1383: 1
7a1407: 1
7a1446: 1
7a1481: 1
7a14c0: 1
7d83c1: 1
7d9580: 1
7a5704: 1
7a5790: 1
7a57c2: 1
7a5802: 1
7a5882: 1
77e5c0: 1
827c81: 1
8763c7: 1
7a58c0: 1
879642: 1
7a1510: 1
7a5905: 1
77e643: 1
7a5a01: 1
7a5a41: 1
7a5c80: 1
7a5d00: 1
7d8bc9: 1
7d99c0: 1
7a5d45: 1
77b7c7: 1
7a1b01: 1
796b83: 1
7a1b40: 1
7a1bc3: 1
7a1c41: 1
77cd07: 1
7d9640: 1
7a1cc3: 1
7a1e00: 1
78bf04: 1
77ff41: 1
7a1ec3: 1
7a1f83: 1
879c45: 1
780480: 1
872b07: 1
7a2000: 1
7a2083: 1
780580: 1
7a2184: 1
7a1781: 1
7a1583: 1
7d8f82: 1
7a15c5: 1
9203c2: 1
7a1606: 1
7a1682: 1
7a16c2: 1
7a1700: 1
7a1741: 1
7d9140: 1
879441: 1
7a17c3: 1
77fcc0: 1
873c42: 1
7a1820: 1
7a1902: 1
7a19c2: 1
7a1a02: 1
875781: 1
7a1a44: 1
7a0e00: 1
77f8c2: 1
78a840: 1
7a38c0: 1
77d287: 1
7a3d01: 1
7a5942: 1
812a00: 1
7a5842: 1
77e580: 1
97ae28: 1
7a1e41: 1
7a0e41: 1
7a0ec6: 1
7a0f07: 1
7a3e40: 1
7a3ec1: 1
7a3f05: 1
7a3f40: 1
7a41c3: 1
7a42c0: 1
86ec81: 1
87dc00: 1
87dc81: 1
87dd00: 1
91f7a0: 1
87ddc3: 1
86eb42: 1
77ef80: 1
86ebc1: 1
86ec09: 1
876a08: 1
7a4300: 1
86ecc1: 1
7a5742: 1
92a990: 1
91d8c7: 1
7a1d41: 1
786686: 1
92ab0b: 1
64bd43: 1
87d905: 1
7a5080: 1
7a4a42: 1
77d780: 1
7a4ac0: 1
7a4bc2: 1
77d900: 1
878ac0: 1
7a4d83: 1
7a4e40: 1
77f490: 1
7a4f81: 1
77bd84: 1
77f6d0: 1
7a5181: 1
7a52c1: 1
7a5383: 1
77c542: 1
7a5200: 1
7a53c0: 1
7a5486: 1
7a54c2: 1
7a4582: 1
7a4340: 1
878100: 1
7a43c3: 1
872482: 1
7a4400: 1
77b784: 1
7a4442: 1
7a4500: 1
7a4540: 1
7a22c1: 1
77b904: 1
7a45c2: 1
7a4645: 1
786983: 1
7a4684: 1
77d3c2: 1
7a48c3: 1
7a4940: 1
786cea: 1
7a28c3: 1
785f02: 1
785f43: 1
786480: 1
872218: 1
872500: 1
872541: 1
872582: 1
77d201: 1
8725c5: 1
872b02: 1
785ec2: 1
7864dd: 1
91fd88: 1
786501: 1
77b583: 1
7865c1: 1
7d4d46: 1
91fe87: 1
786600: 1
77b643: 1
785c80: 1
785900: 1
7a3641: 1
785940: 1
785981: 1
785a01: 1
785a42: 1
785ac1: 1
785b00: 1
785bc3: 1
785c00: 1
786640: 1
785cc1: 1
7a5f4b: 1
78b480: 1
785d04: 1
77ad86: 1
785d43: 1
785d81: 1
785dc3: 1
785e20: 1
77eea0: 1
78a4c7: 1
77e980: 1
77ea06: 1
77ea41: 1
77ea82: 1
77eb40: 1
77eb87: 1
77ec00: 1
77ee04: 1
77ee40: 1
77e8c0: 1
77eec0: 1
77ef00: 1
77ef40: 1
7a47c7: 1
7d8442: 1
77efc0: 1
77f000: 1
77f040: 1
87bb41: 1
77e4c4: 1
7866c4: 1
78be83: 1
786703: 1
786740: 1
7a4481: 1
786780: 1
7867c2: 1
78bf81: 1
7868c4: 1
7858c0: 1
77e501: 1
77e681: 1
78a288: 1
77e6c2: 1
77e744: 1
77e781: 1
77e7c6: 1
789744: 1
878085: 1
7a2d81: 1
7a2882: 1
77b5c0: 1
7a2871: 1
7a2941: 1
7a2a05: 1
7a2a87: 1
7a2b05: 1
7a2c41: 1
87ce2a: 1
7a2c81: 1
77b543: 1
7a3003: 1
7a30c2: 1
77be00: 1
7a3184: 1
876f00: 1
7a31c3: 1
7a3201: 1
7a3243: 1
873dc7: 1
7a2600: 1
7a2300: 1
7a2341: 1
7a2380: 1
87de85: 1
7a23c1: 1
7a2440: 1
78c544: 1
7a2481: 1
7a2541: 1
7a2580: 1
7a32c0: 1
876380: 1
7a2643: 1
7a2682: 1
7a26c1: 1
7a2743: 1
7a2782: 1
77b4c0: 1
7a2805: 1
7a4201: 1
7a3d85: 1
7a3a40: 1
7a3a81: 1
7a3b07: 1
7a3bc4: 1
7a3c06: 1
92a7c3: 1
7a3c80: 1
91f846: 1
7a3cc0: 1
7a3d46: 1
7a39c1: 1
77e000: 1
785784: 1
830843: 1
7857c4: 1
785800: 1
785886: 1
878a02: 1
7d8940: 1
7a35c1: 1
7a3700: 1
7a3342: 1
7a33c1: 1
7a3442: 1
7a3431: 1
7a3486: 1
7a34c0: 1
7a3540: 1
7d9840: 1
77cf07: 1
7f9548: 1
7a3740: 1
7a3782: 1
77c4c0: 1
7a37c4: 1
7a3800: 1
879bc2: 1
77d1c7: 1
7a3840: 1
7a3900: 1
789b47: 1
789e85: 1
78b8e7: 1
7dc0c1: 1
873841: 1
87dbc2: 1
87c2b0: 1
77b243: 1
877730: 1
87a083: 1
7d9fc1: 1
7dc043: 1
7d8980: 1
78c080: 1
7875eb: 1
77b05a: 1
7db4c3: 1
7a4d01: 1
77edc3: 1
78af62: 1
77eb01: 1
7a4a81: 1
78c281: 1
77ec45: 1
735e80: 1
876004: 1
7a40c5: 1
77e040: 1
876e02: 1
87bc03: 1
7876c0: 1
7d9cc1: 1
78a940: 1
963d00: 1
77b000: 1
78ad85: 1
7d95c6: 1
875445: 1
7a3941: 1
780383: 1
785b42: 1
7a2200: 1
78c2c5: 1
873201: 1
735d44: 1
7dbb41: 1
77ed40: 1
8740c1: 1
87db42: 1
77dc80: 1
831e40: 1
878801: 1
786800: 1
789ac5: 1
87b503: 1
7db441: 1
7a2104: 1
878a40: 1
785e42: 1
87ac43: 1
7d8e82: 1
875742: 1
77ba42: 1
7a4700: 1
780880: 1
87b3c0: 1
77b100: 1
7daf45: 1
77bcc0: 1
7f9530: 1
789684: 1
7db000: 1
87a804: 1
8fa045: 1
875fc4: 1
7d8680: 1
831d83: 1
87be44: 1
97ad01: 1
77ff82: 1
7a1a85: 1
77e203: 1
780842: 1
77b0c2: 1
78b880: 1
875ec2: 1
879d82: 1
788344: 1
7da846: 1
877406: 1
7d8585: 1
86ec45: 1
77cb40: 1
7a3e02: 1
877680: 1
7d8500: 1
77b190: 1
780a01: 1
77fb40: 1
7a4046: 1
77f500: 1
77b9c3: 1
78c100: 1
7dc541: 1
8790c3: 1
77bf05: 1
9128c4: 1
7a1986: 1
873ac2: 1
789780: 1
7dab06: 1
91fa86: 1
874153: 1
874442: 1
87b743: 1
7f9382: 1
87a986: 1
78a1c0: 1
87a8c2: 1
7a0dc6: 1
879204: 1
877450: 1
77d8e1: 1
8789c1: 1
77bc07: 1
7a2240: 1
77bb00: 1
77c641: 1
872980: 1
7a4b41: 1
7a1640: 1
78c381: 1
7d9003: 1
7a59c3: 1
787cc2: 1
77cbc0: 1
785c43: 1
8795c1: 1
796b42: 1
7a1ac0: 1
78bc41: 1
87dd9e: 1
876044: 1
87b803: 1
7db741: 1
77d341: 1
913397: 1
7d9241: 1
77ec84: 1
8797c4: 1
87c506: 1
878f01: 1
87c7c0: 1
7a1b86: 1
7a3983: 1
87c941: 1
7a4806: 1
7d8481: 1
77e481: 1
7a0e80: 1
780140: 1
92a800: 1
873e42: 1
780941: 1
77b6c3: 1
7a2985: 1
7a1080: 1
8787ab: 1
7a1e81: 1
7dc145: 1
878c10: 1
7d9d02: 1
873242: 1
7a5280: 1
77b340: 1
77d4c0: 1
8745c3: 1
780340: 1
7a4080: 1
87260f: 1
7a4383: 1
77e09c: 1
87be00: 1
876641: 1
789c86: 1
77da80: 1
830802: 1
7884c5: 1
78b4f0: 1
77b380: 1
788383: 1
91fb45: 1
77c842: 1
875f42: 1
7a1286: 1
77f840: 1
879187: 1
77f9c2: 1
787a01: 1
7db906: 1
873f80: 1
7d8b84: 1
788807: 1
877740: 1
7a3ac2: 1
7a2b43: 1
8fa2c0: 1
77ddc3: 1
878903: 1
7d8841: 1
8767c0: 1
7d9800: 1
7da603: 1
77fb00: 1
787b86: 1
7a2284: 1
77db80: 1
87a783: 1
7da6c1: 1
796ac5: 1
830e40: 1
78a544: 1
879107: 1
875803: 1
7a1f47: 1
7d9385: 1
830980: 1
7a2ac0: 1
7a1dc1: 1
8fa329: 1
77fbc4: 1
77b2c5: 1
7a2a41: 1
7dbc8a: 1
7db6c3: 1
7db700: 1
7db883: 1
7db8c3: 1
7db940: 1
7db980: 1
7db9c1: 1
7dba09: 1
7dba41: 1
7dba89: 1
7dbb03: 1
7dbb85: 1
7dbbc6: 1
7dbc46: 1
7db60a: 1
7dbccb: 1
7dbd47: 1
7dbd0b: 1
7dbdc2: 1
7dbe00: 1
7dbe41: 1
7dbf03: 1
7dbf42: 1
7dbf83: 1
7dbfc7: 1
7dc00b: 1
7dc083: 1
7dc102: 1
7dc1c5: 1
7db040: 1
7dab84: 1
7dac42: 1
7dac82: 1
7dacc4: 1
7dad02: 1
7dad41: 1
7dad88: 1
7dadc2: 1
7dae03: 1
7dae42: 1
7dae87: 1
7daec2: 1
7daf83: 1
7dafc0: 1
7dc189: 1
7db080: 1
7db0c3: 1
7db100: 1
7db141: 1
7db207: 1
7db244: 1
7db281: 1
7db341: 1
7db3c6: 1
7db405: 1
7db483: 1
7db500: 1
7db582: 1
831d02: 1
64be03: 1
64be42: 1
65053e: 1
650c41: 1
650d3a: 1
86d981: 1
86d9c0: 1
65f087: 1
65f0c0: 1
65f102: 1
7aa480: 1
80dec8: 1
831c80: 1
831cc7: 1
64bd81: 1
831d43: 1
831dc1: 1
831e21: 1
831e83: 1
65f805: 1
664f00: 1
664f40: 1
665090: 1
6650c0: 1
80c692: 1
80c6ca: 1
7f9320: 1
7f9684: 1
7dc704: 1
7dc202: 1
7dc240: 1
7dc282: 1
7dc2c1: 1
7dc341: 1
7dc3c0: 1
7dc402: 1
7dc441: 1
7dc481: 1
7dc4c5: 1
7dc581: 1
7dc5c8: 1
7dc644: 1
7dc680: 1
7daac3: 1
7dc744: 1
7dc788: 1
7dc7c2: 1
7d4cc5: 1
7d4d83: 1
7d4dc0: 1
7d4e05: 1
64bbc2: 1
64bc03: 1
64bc40: 1
64bcc0: 1
64bc87: 1
64bd01: 1
735c45: 1
879604: 1
7a5f05: 1
7a5c45: 1
789d81: 1
7d8385: 1
8739c0: 1
789840: 1
78a685: 1
663500: 1
7a3dc0: 1
77f580: 1
7dbac0: 1
8751c1: 1
87a9c0: 1
920401: 1
877246: 1
7a2ec2: 1
77bf80: 1
87c401: 1
87c781: 1
78b580: 1
65e140: 1
7d9e80: 1
7da0c1: 1
7a4000: 1
7da282: 1
7db183: 1
7db301: 1
77cfc0: 1
87aa80: 1
827a80: 1
87ac84: 1
77e404: 1
78b466: 1
77d305: 1
877ec6: 1
87723d: 1
77d443: 1
87c000: 1
87dc42: 1
9113a0: 1
78b020: 1
7a4140: 1
789f82: 1
77d000: 1
877b40: 1
7da500: 1
7daa06: 1
7806a0: 1
7d9905: 1
7a1f06: 1
873605: 1
872a00: 1
7a4980: 1
77e603: 1
873340: 1
7d8c01: 1
7da582: 1
7da100: 1
7da142: 1
7da186: 1
7da1c0: 1
7da207: 1
7da242: 1
7da2c1: 1
7da306: 1
7da379: 1
7da381: 1
7da3c1: 1
7da480: 1
7da4c0: 1
7da544: 1
7da081: 1
7da5c1: 1
7da640: 1
7da681: 1
7da700: 1
7da740: 1
7da780: 1
7da7c2: 1
7da802: 1
7da887: 1
7da8c0: 1
7da902: 1
7daa46: 1
7daa81: 1
7d9b44: 1
77e901: 1
874100: 1
8fa083: 1
7a3044: 1
7859c3: 1
7dabc1: 1
77be43: 1
78c580: 1
87c142: 1
87dd41: 1
879fc2: 1
7a5304: 1
8733c3: 1
873440: 1
87c900: 1
7d9b81: 1
7d9bc8: 1
7d9c0c: 1
7d9c82: 1
7d9d41: 1
7d9d81: 1
7d9dc5: 1
7d9e42: 1
7d9f02: 1
7d9f40: 1
7d9f82: 1
7da000: 1
7da041: 1
77ba06: 1
7a4b83: 1
877380: 1
785e83: 1
77c900: 1
7a2dc6: 1
7d8dc0: 1
91d843: 1
7a1841: 1
7a20c7: 1
77f441: 1
735b02: 1
77f550: 1
77f945: 1
77cc41: 1
77e470: 1
879cc0: 1
78a441: 1
780a40: 1
77bac6: 1
87c305: 1
7a2fc1: 1
875b02: 1
7a3f80: 1
7a1d84: 1
876f42: 1
87c701: 1
7a4186: 1
7a3b82: 1
78a000: 1
7a25c3: 1
91f985: 1
87b600: 1
7d8f05: 1
91d901: 1
7d8900: 1
77f610: 1
7dac01: 1
7a2902: 1
8722f7: 1
787884: 1
7a1540: 1
78a980: 1
875ac0: 1
87dcc0: 1
87c202: 1
7a4c83: 1
7db5c2: 1
7da9c5: 1
875701: 1
664fc1: 1
7a4b30: 1
77c487: 1
780609: 1
7a4f41: 1
864f82: 2
96018d: 2
64ba80: 2
872f80: 2
86e403: 2
8730c0: 2
865181: 2
791942: 2
64b982: 2
7919c2: 2
64ba44: 2
791a40: 2
64bac4: 2
64bb03: 2
66322c: 2
53c6d0: 2
7f9736: 2
64bb80: 2
7f9600: 2
78dd9d: 2
872ec3: 2
64eb45: 2
873006: 2
872e46: 2
64be05: 2
872e84: 2
872f40: 2
872fc1: 2
87b9c5: 2
7d69c3: 2
7f9640: 2
873044: 2
86e3c2: 2
8723bb: 2
86e442: 2
8723c0: 2
87b981: 2
827882: 2
791903: 2
873082: 2
873101: 2
7d68e0: 2
873182: 2
87b970: 2
86eafb: 2
86eb04: 2
64ba00: 2
848940: 2
66df83: 2
961b9f: 2
7f91a0: 2
7f9378: 2
6660af: 2
873140: 2
872f02: 2
7f9403: 2
8727c1: 2
7d6a81: 2
827b00: 2
665fc1: 2
872783: 2
827941: 2
791980: 2
827a01: 2
827ac1: 2
663245: 2
872110: 2
827c41: 2
5416c2: 2
6660c0: 2
872302: 2
47dac0: 2
872942: 2
872840: 2
872800: 2
872744: 2
872700: 2
8726c0: 2
872690: 2
7918c1: 2
872640: 2
66df40: 2
7f9360: 2
650e8f: 2
872d80: 2
7f92c5: 2
7f9740: 2
872880: 2
64bb40: 2
848939: 2
7d6a43: 2
872e03: 2
8277f0: 2
7d6a00: 2
7d6983: 2
872141: 2
872dc0: 2
791880: 2
872911: 2
791a00: 2
7d6941: 2
8278c3: 2
7d6900: 2
827900: 2
7f9442: 2
791a84: 2
64b9c4: 2
864f24: 3
8e40d0: 3
961582: 3
9600c2: 3
8e3ff0: 3
8e4100: 3
9636c9: 3
64bbb8: 3
8e4086: 3
963701: 3
8e4041: 3
8e4030: 3
960070: 3
864fc1: 3
864e82: 3
960100: 3
864e46: 3
864e20: 3
8cff40: 3
960081: 3
961530: 3
96014c: 3
827804: 3
961541: 3
961641: 3
827840: 3
7f9241: 4
7f9280: 4
64b970: 5
64a100: 29
650f41: 30
797b0d: 30
7955c0: 30
64b3d5: 34
7eee43: 35
831ac2: 35
831be0: 35
831b43: 35
786402: 36
7a8a80: 36
7a89c0: 36
786342: 36
786410: 40
786351: 40
7a8a94: 41
7a89d0: 41
831bc3: 42
831b4c: 42
831af3: 42
7eee4d: 42
64b3c0: 43
7955c9: 46
650f50: 47
797b00: 47
64a104: 48
7eedc0: 70
7eee00: 70
64b6c1: 72
64b740: 72
64b900: 72
65e6bd: 72
64b647: 72
64b704: 72
64b842: 72
64b783: 72
64b7c3: 72
64b681: 72
64b800: 72
64b880: 72
64b944: 72
64b8c3: 72
78dc86: 74
791402: 74
791103: 74
78d306: 74
78d5c2: 74
792f80: 74
792d81: 74
78f046: 74
7932c7: 74
792541: 74
792602: 74
78f0c0: 74
78f103: 74
7917c0: 74
64be20: 74
791142: 74
79236b: 74
78f081: 74
78d344: 74
792842: 74
78d883: 74
791287: 74
792481: 74
793440: 74
78d4c1: 74
792882: 74
791780: 74
7925c7: 74
792fc1: 74
78d680: 74
8e3f30: 74
78d982: 74
78d641: 74
78d540: 74
793640: 74
78d703: 74
793786: 74
793041: 74
793743: 74
791541: 74
792dc1: 74
7923c2: 74
792581: 74
792ec2: 74
792383: 74
792b82: 74
793600: 74
847fed: 74
792701: 74
78dcc0: 74
792a41: 74
791442: 74
792b44: 74
793cc7: 74
78db42: 74
793408: 74
78efc6: 74
793502: 74
793680: 74
792501: 74
790fc4: 74
792e04: 74
7936c0: 74
793ac4: 74
792a81: 74
78d6c2: 74
7930c0: 74
790f81: 74
78d7c5: 74
78d205: 74
7926c0: 74
7933d4: 74
792bc5: 74
791306: 74
78dc40: 74
78d747: 74
78db06: 74
7937c4: 74
78dbc3: 74
791343: 74
7924c2: 74
793582: 74
848010: 74
78d602: 74
793a6e: 74
78d385: 74
78d900: 74
7911c6: 74
78d840: 74
78d800: 74
78dd10: 74
78d581: 74
793880: 74
793c40: 74
791087: 74
7914c4: 74
792c41: 74
78d481: 74
78d445: 74
78d404: 74
78d3c0: 74
78d9c2: 74
793c00: 74
792ac5: 74
78d280: 74
791206: 74
78d246: 74
7928c1: 74
791246: 74
7912c2: 74
791385: 74
791482: 74
791752: 74
791844: 74
792641: 74
792785: 74
793bc1: 74
793c80: 74
78f004: 74
792446: 74
78d941: 74
792400: 74
793a84: 74
793080: 74
792800: 74
791585: 74
78d8c1: 74
793d06: 74
7910c2: 74
78d2c0: 74
7927c5: 74
791804: 74
793b41: 74
793480: 74
793847: 74
792e44: 74
843050: 74
78dd80: 74
78db80: 74
793802: 74
78da81: 74
78da42: 74
78dd50: 74
78da01: 74
791041: 74
793343: 74
792745: 74
792f02: 74
792f41: 74
793007: 74
78d783: 74
793299: 74
792cc2: 74
78f160: 74
78dac3: 74
78dc30: 74
793307: 74
792c03: 74
793386: 74
7934c1: 74
792b05: 74
7938c3: 74
793546: 74
792a33: 74
791186: 74
792680: 74
793702: 74
7935c7: 74
7913c2: 74
793b00: 74
792c87: 74
791000: 74
78d503: 74
792e84: 74
792d46: 74
791502: 74
793b82: 74
792d02: 74
8485c2: 75
7d5e80: 75
7d6042: 75
7d65c3: 75
7d6505: 75
7d7102: 75
7d6c85: 75
7d6f02: 75
7d7945: 75
7d6301: 75
8e7b02: 75
7d67c6: 75
64ea86: 75
7d7141: 75
7d6247: 75
7d7802: 75
7d71c7: 75
7d6541: 75
7d6446: 75
7d6286: 75
7d6201: 75
7d7786: 75
7d68c1: 75
7d6402: 75
7d6ec4: 75
7d7603: 75
7d7280: 75
7d7240: 75
64ea04: 75
7d5e01: 75
7d6e83: 75
7d61c0: 75
7d6c41: 75
650d43: 75
7d6bc3: 75
7f9751: 75
7d7882: 75
64e9c0: 75
64eb81: 75
7d6dc3: 75
7d6d41: 75
64ec06: 75
7d6cc1: 75
7d6f81: 75
7d6fc2: 75
7d78c4: 75
650e01: 75
7d5f85: 75
7d6082: 75
7f9190: 75
7d7382: 75
7d6c02: 75
7d7904: 75
64eb5e: 75
64ebc0: 75
650dc1: 75
7d75b9: 75
7d6143: 75
7d6f41: 75
64ea40: 75
7d63c7: 75
64e981: 75
7d7340: 75
7d6601: 75
7d73c3: 75
650e87: 75
8e7b67: 75
7d5f44: 75
7d60c1: 75
785f5d: 75
7d7740: 75
7d7000: 75
7d76c0: 75
7d6b83: 75
7d6102: 75
7d6346: 75
7d6803: 75
7d6383: 75
7d72c1: 75
7d75c1: 75
650e40: 75
7d5f06: 75
7d5e45: 75
7d6480: 75
7d7304: 75
7d6ac0: 75
7d64c1: 75
7d7083: 75
7d6642: 75
7d6185: 75
7d77c6: 75
7d6883: 75
7d62c1: 75
7d5ec3: 75
96b800: 75
7d6aa4: 75
7d6d04: 75
7d7840: 75
7d6002: 75
7d5fc2: 75
650d87: 75
96b872: 75
7d5d44: 75
7d70c3: 75
7d7181: 75
7d67be: 75
7d6e06: 75
7d5d02: 75
7d7405: 75
7d7041: 75
7d5dc5: 75
7d5d80: 75
7d6b41: 75
7d5cc0: 75
7d6d82: 75
7d7200: 75
7d7683: 75
7d6e40: 75
7d6584: 75
7d7643: 75
7d6843: 75
7d7701: 75
64e940: 75
7d7447: 75
7d6b01: 75
78ff43: 76
7956c2: 76
790003: 76
78f5c0: 76
794f00: 76
794b04: 76
785681: 76
96b7c2: 76
794881: 76
795283: 76
95f9fa: 76
78ee01: 76
78ff00: 76
795401: 76
7950c6: 76
78fd81: 76
795540: 76
95f950: 76
786100: 76
961b5c: 76
794f80: 76
790a82: 76
790e43: 76
795e41: 76
786380: 76
78f500: 76
7a87d6: 76
78e6d3: 76
786442: 76
65dc01: 76
78eb41: 76
7953f5: 76
794fc6: 76
78e108: 76
78eb80: 76
78f781: 76
7862c2: 76
794a40: 76
795b42: 76
795e80: 76
78e040: 76
7a8750: 76
786300: 76
786182: 76
794e86: 76
786202: 76
78fa05: 76
78fdc1: 76
795606: 76
86d9df: 76
786283: 76
78f446: 76
78f6c0: 76
78f600: 76
7863c0: 76
9615e9: 76
78f284: 76
795301: 76
7949c7: 76
78fb42: 76
78ee80: 76
650500: 76
795844: 76
7954c3: 76
78fa83: 76
78ef07: 76
785f82: 76
796b8b: 76
785fc6: 76
78fc88: 76
78ee44: 76
786001: 76
64bf80: 76
795f40: 76
7aa446: 76
786040: 76
786080: 76
795dc7: 76
790981: 76
790606: 76
7909c4: 76
795ec0: 76
7860c1: 76
786160: 76
795180: 76
78f684: 76
78ea84: 76
795200: 76
795c05: 76
795143: 76
78e3c6: 76
78f700: 76
78e386: 76
795101: 76
795707: 76
795780: 76
78f642: 76
790b05: 76
790a06: 76
847f40: 76
795b2b: 76
790400: 76
790946: 76
795240: 76
795442: 76
78e540: 76
78ef40: 76
961680: 76
794a03: 76
78ed00: 76
95f988: 76
95fa42: 76
663407: 76
794942: 76
7906c1: 76
790745: 76
794750: 76
65e15a: 76
7947c4: 76
790ec4: 76
790e83: 76
794841: 76
794d01: 76
78e744: 76
664f05: 76
7948c4: 76
65f817: 76
794d84: 76
790342: 76
78ec07: 76
6650f0: 76
794ac5: 76
790f06: 76
794c40: 76
84315e: 76
794ec1: 76
831eff: 76
78e5c0: 76
795882: 76
78e284: 76
785660: 76
795c86: 76
961a41: 76
7d81c0: 76
95fa05: 76
7958c6: 76
830e56: 76
796007: 76
790906: 76
78eac2: 76
7902c0: 76
961e02: 76
790840: 76
961782: 76
790280: 76
7a8780: 76
78d102: 76
790547: 76
790c00: 76
794c02: 76
795d81: 76
790082: 76
78fe44: 76
663440: 76
790800: 76
961d40: 76
7900c6: 76
961704: 76
78e4c1: 76
65dc44: 76
790686: 76
78ecc0: 76
790701: 76
78eb03: 76
650c50: 76
64bf00: 76
65dbf0: 76
795f04: 76
794981: 76
961a0f: 76
961bcf: 76
78df80: 76
78e780: 76
7905c7: 76
78f9c7: 76
795bc0: 76
9627fd: 76
78ff87: 76
790d40: 76
86ed40: 76
7957c1: 76
794801: 76
78e941: 76
78eec2: 76
78fac7: 76
790646: 76
78e880: 76
78e704: 76
78e7c4: 76
78de94: 76
78df00: 76
795486: 76
78f942: 76
78e2c4: 76
78df42: 76
790bc3: 76
790e03: 76
790181: 76
7f9392: 76
78e9c1: 76
790b40: 76
78dfc0: 76
78f1c2: 76
790447: 76
96177e: 76
78f2c0: 76
785701: 76
78d181: 76
794901: 76
78fcc0: 76
78fec0: 76
790b81: 76
790a46: 76
794c82: 76
78ea45: 76
78f402: 76
78e080: 76
864f45: 76
790205: 76
961cfc: 76
7a8800: 76
795580: 76
7908c0: 76
795805: 76
790f40: 76
78fb04: 76
790046: 76
78e985: 76
794b80: 76
64bec0: 76
794a86: 76
78f882: 76
78fe87: 76
78f3c8: 76
790881: 76
961dc1: 76
80dec2: 76
795904: 76
795644: 76
78e904: 76
961d01: 76
78fc40: 76
794e46: 76
7f9562: 76
961840: 76
78e402: 76
78e184: 76
78dec3: 76
7901c1: 76
7952c0: 76
795080: 76
790482: 76
795c41: 76
80c695: 76
790d00: 76
790780: 76
78e482: 76
78fe06: 76
6634c4: 76
78e442: 76
78e241: 76
78e0c7: 76
78e143: 76
790d86: 76
961da0: 76
78d0e0: 76
650d00: 76
7907c3: 76
78e842: 76
78e200: 76
78e302: 76
795f83: 76
790241: 76
78e804: 76
78e342: 76
78f982: 76
78fbc0: 76
78ea02: 76
794dc6: 76
78f1b3: 76
795cc4: 76
78d140: 76
795d42: 76
78fb86: 76
78ebc2: 76
78e582: 76
7861c3: 76
790501: 76
794cc3: 76
78e645: 76
7aa48f: 76
78ef83: 76
78ed84: 76
78e000: 76
78f486: 76
78e1c2: 76
78f805: 76
7903c0: 76
790102: 76
78f540: 76
78f380: 76
794d43: 76
86ef61: 76
78f340: 76
78ec83: 76
78f7c5: 76
790583: 76
78f300: 76
790145: 76
790ac0: 76
78f844: 76
795e02: 76
663484: 76
78f201: 76
794e06: 76
790c42: 76
7d4e0f: 76
790cc3: 76
95fae0: 76
795fc0: 76
80c6c0: 76
794b43: 76
786242: 76
6633c2: 76
78f8c0: 76
785741: 76
650cc0: 76
795682: 76
795006: 76
7856c3: 76
790301: 76
78ec40: 76
790c86: 76
794f46: 76
78f4c0: 76
78ed40: 76
795501: 76
64bf45: 76
78fd42: 76
78e8c5: 76
78d1c0: 76
78fa45: 76
795740: 76
795d05: 76
78ffc5: 76
7951c0: 76
795041: 76
7904c6: 76
9617c2: 76
78fd03: 76
794bc2: 76
795b82: 76
78f743: 76
663381: 76
9616c2: 76
790dc3: 76
650c85: 76
78fc00: 76
95faa2: 76
78f247: 76
790385: 76
962801: 76
78e500: 76
78edc2: 76
78f584: 76
794787: 76
78f907: 76
78e600: 76
797e82: 77
86e082: 77
64f944: 77
86d786: 77
797003: 77
64c380: 77
64c407: 77
797702: 77
97a441: 77
7d58c8: 77
64f882: 77
796c41: 77
796900: 77
64fa82: 77
7d5083: 77
797802: 77
64a206: 77
664441: 77
7d59c3: 77
64b547: 77
6500c2: 77
64fa02: 77
797689: 77
665680: 77
7d5781: 77
650281: 77
796846: 77
649e47: 77
7d7ec2: 77
80dcb7: 77
64e1c5: 77
6503c1: 77
7d4ec6: 77
64e343: 77
796307: 77
64e2c7: 77
649dc1: 77
7d5b86: 77
796881: 77
80dc46: 77
664543: 77
650480: 77
650042: 77
796642: 77
7d5504: 77
64f909: 77
7eed42: 77
7aa430: 77
796942: 77
65dc72: 77
64a1c6: 77
848244: 77
64e548: 77
64ffc2: 77
960bb5: 77
796800: 77
960606: 77
86e008: 77
7987c1: 77
64a587: 77
826297: 77
664970: 77
6635c9: 77
848183: 77
8e3702: 77
649ac2: 77
64ef43: 77
64eeb5: 77
796482: 77
796f41: 77
64fb02: 77
664b82: 77
65f3c3: 77
797ac0: 77
64ab90: 77
64a181: 77
7d5942: 77
649b46: 77
796dc0: 77
7962c0: 77
663608: 77
797601: 77
651086: 77
797845: 77
7f93c2: 77
64f783: 77
665d80: 77
7d5801: 77
7a8842: 77
6509b4: 77
64ab04: 77
64e140: 77
830dfe: 77
663941: 77
7d5042: 77
665140: 77
649fc7: 77
796282: 77
64d800: 77
8277c0: 77
650b56: 77
64b401: 77
7d4e43: 77
65e675: 77
797c85: 77
64ad03: 77
7979c0: 77
832202: 77
7964c0: 77
86d8c5: 77
64adf0: 77
64f442: 77
6456c1: 77
64e125: 77
664480: 77
7975c1: 77
65f7d3: 77
8e344b: 77
650380: 77
7d7980: 77
64a6c6: 77
650002: 77
64a605: 77
651a13: 77
796f05: 77
7d5380: 77
7d5c8b: 77
797989: 77
64a5c2: 77
64a506: 77
80ca4b: 77
64a4c2: 77
7a8900: 77
7970c0: 77
65eb84: 77
64a401: 77
64b607: 77
86da00: 77
7d56c5: 77
827740: 77
796a80: 77
64a985: 77
825c82: 77
64a344: 77
797c44: 77
6f4644: 77
8e3480: 77
650ec2: 77
8e3838: 77
64a380: 77
7d5647: 77
649c06: 77
8e35c0: 77
797305: 77
64aa85: 77
64a9c3: 77
86d900: 77
64a940: 77
831983: 77
64b446: 77
664503: 77
64a8c2: 77
7971c5: 77
7eed30: 77
797140: 77
84821f: 77
64a801: 77
64a904: 77
8e3680: 77
96b89e: 77
64ab40: 77
7966c3: 77
64a281: 77
796bc5: 77
80c622: 77
650102: 77
797c01: 77
64c302: 77
649a40: 77
651501: 77
8e3783: 77
64b302: 77
796443: 77
797b47: 77
797100: 77
64ac42: 77
8e33c0: 77
64a301: 77
796d89: 77
86de81: 77
663987: 77
64abc1: 77
7d5544: 77
650082: 77
831a80: 77
7d4e80: 77
65eb77: 77
7a88c4: 77
64c277: 77
797e04: 77
64b201: 77
649c82: 77
7d81b0: 77
796342: 77
8d02c1: 77
64c344: 77
797485: 77
64f840: 77
796781: 77
651003: 77
827a5e: 77
797dc7: 77
6ef705: 77
665ab5: 77
650541: 77
6504c1: 77
650a86: 77
872b87: 77
796cc5: 77
7961c0: 77
64a783: 77
80dc3f: 77
797ec5: 77
797f04: 77
960bc0: 77
64b481: 77
6644c5: 77
797941: 77
80c504: 77
7965c2: 77
64f8c2: 77
960500: 77
796fc0: 77
650304: 77
797881: 77
649d81: 77
7d57c2: 77
797a00: 77
64b180: 77
64f7c0: 77
64a001: 77
796140: 77
64b385: 77
7d5a05: 77
645840: 77
64f983: 77
64ef07: 77
86e044: 77
650bca: 77
663d70: 77
664bc3: 77
64b503: 77
64f228: 77
64e200: 77
797580: 77
664982: 77
65ec00: 77
64f76c: 77
796185: 77
6637d1: 77
664600: 77
86e100: 77
65f846: 77
6509c0: 77
7f9200: 77
64b58b: 77
7d5684: 77
663a10: 77
64b4c0: 77
797a43: 77
649e85: 77
650f82: 77
86d660: 77
8e3562: 77
797d43: 77
80de90: 77
649c45: 77
64e8eb: 77
86da80: 77
650475: 77
86da40: 77
665106: 77
664c47: 77
86dac2: 77
64e900: 77
7d4f86: 77
664cc9: 77
64e503: 77
86e3b3: 77
797645: 77
831942: 77
86df90: 77
7d5406: 77
65f980: 77
86e0c6: 77
7d5484: 77
65ebc0: 77
6651ac: 77
7a8a03: 77
872c01: 77
64e70c: 77
7977cb: 77
64a3c1: 77
64e587: 77
64ad7d: 77
7968c3: 77
64a140: 77
86d681: 77
832244: 77
797282: 77
796740: 77
664a42: 77
649cc5: 77
7d53c1: 77
8319c0: 77
649d00: 77
8e3647: 77
650f04: 77
796086: 77
797d00: 77
86de40: 77
64fa4a: 77
796580: 77
664680: 77
86d7c0: 77
663580: 77
86d842: 77
64b5c3: 77
6f4620: 77
86d883: 77
649d42: 77
8309c0: 77
64c284: 77
86d801: 77
796041: 77
872b40: 77
64a681: 77
6502c4: 77
872bc0: 77
872c8f: 77
872d02: 77
872cfd: 77
830990: 77
64e3c0: 77
649b00: 77
663515: 77
7f95c2: 77
830a44: 77
86d742: 77
80e0f0: 77
8d0304: 77
7d7c03: 77
650fc1: 77
796507: 77
8d0341: 77
64a2c6: 77
7963c8: 77
796e84: 77
8e34f4: 77
64aa40: 77
664b72: 77
65f053: 77
6f49c5: 77
86d702: 77
65f300: 77
64a700: 77
961603: 77
80db40: 77
64e485: 77
663b32: 77
7d5360: 77
832281: 77
64e440: 77
797fc4: 77
7d4f40: 77
7eed80: 77
665700: 77
64e401: 77
825bc0: 77
9605d8: 77
64f804: 77
80dcc1: 77
64f586: 77
64f40f: 77
65e682: 77
796380: 77
7d5881: 77
7a8882: 77
7d5600: 77
797901: 77
651311: 77
7d4c70: 77
86d940: 77
7d5742: 77
64b1c2: 77
830e02: 77
796e04: 77
64a884: 77
665a40: 77
7d5841: 77
64ff60: 77
64a045: 77
64b240: 77
64b0dd: 77
663687: 77
9602c3: 77
664ac3: 77
8e3752: 77
7a8940: 77
796c03: 77
64fac1: 77
8e3f23: 77
649980: 77
7d5a82: 77
663303: 77
7d4fc0: 77
64aa02: 77
64b143: 77
6516b3: 77
64a242: 77
7d4f00: 77
7d5444: 77
649ec3: 77
650341: 77
64a7c3: 77
796d02: 77
796ec5: 77
645740: 77
797e4a: 77
664a86: 77
663342: 77
7d5003: 77
872d6b: 77
8e36c2: 77
7d50c0: 77
832181: 77
65e702: 77
796400: 77
7d4c81: 77
7d55c1: 77
797a84: 77
796685: 77
797341: 77
8e38da: 77
7f91c3: 77
64f4c2: 77
7978c2: 77
650583: 77
6632c7: 77
64b2c1: 77
7f9942: 77
649bd0: 77
64ae01: 77
960302: 77
651863: 77
7a8817: 77
8482c2: 77
798795: 77
649b82: 77
64e280: 77
64ac01: 77
960202: 77
64f482: 77
649f47: 77
64e4c1: 77
64ac80: 77
797f46: 77
64ae45: 77
798241: 77
97a431: 77
7960c0: 77
7d5b03: 77
7d5902: 77
650743: 77
665d70: 77
8e3505: 77
65dcc3: 77
65f901: 77
65f880: 77
8e3b90: 77
65f944: 77
6499c4: 77
64b100: 77
664c05: 77
7d5c7f: 77
7a8984: 77
8321c1: 77
796f80: 77
797380: 77
651bc3: 77
8e3581: 77
796207: 77
65e742: 77
64c440: 77
796c80: 77
64a541: 77
64d782: 77
665f70: 77
665841: 77
665640: 77
796e43: 77
64a741: 77
86e144: 77
797043: 77
64a440: 77
64eed0: 77
796701: 77
64c2c3: 77
797404: 77
64ef87: 77
7974c4: 77
7d5ac0: 77
65df90: 77
65f2c1: 77
649f80: 77
65dc80: 77
797542: 77
8e7ad0: 77
872b20: 77
7969c0: 77
65f2af: 77
7a8a42: 77
797444: 77
664a07: 77
663710: 77
64b285: 77
664b03: 77
663280: 77
8481c3: 77
664eb0: 77
7d5b44: 77
645660: 77
797cc1: 77
664ec6: 77
64a481: 77
6643c0: 77
64e380: 77
6656c5: 77
65e135: 77
665390: 77
665744: 77
66582b: 77
80c4e0: 77
797205: 77
797b85: 77
665ac5: 77
665f81: 77
7973c2: 77
797500: 77
651042: 77
831c42: 77
650c07: 77
64f56d: 77
64ad85: 77
6508f3: 77
7967c0: 77
830a00: 77
796d42: 77
825dc1: 77
825d81: 77
663740: 77
6510c4: 77
825cc2: 77
825d41: 77
64ff81: 77
797249: 77
64a645: 77
7d5c00: 77
825d01: 77
7f9580: 77
796102: 77
86dfc0: 77
796606: 77
8e39bb: 77
649a80: 77
7de780: 77
664592: 77
797746: 77
64a083: 77
64e744: 77
665b1f: 77
64a0c4: 77
65f342: 77
649a01: 77
797787: 77
797184: 77
7d54c1: 77
797f88: 77
65e6c2: 77
663640: 77
832141: 77
6994e0: 77
7d5581: 77
651c01: 77
64d750: 77
6ef360: 77
651107: 77
830e85: 77
7a8ac2: 77
663a40: 77
960283: 77
831900: 77
7d5982: 77
831b83: 77
831c04: 77
831a02: 77
848280: 77
831f04: 77
86d6c0: 77
797bc5: 77
832132: 77
64d7c0: 77
796983: 77
65f380: 77
64a845: 77
645808: 77
796a47: 77
796a01: 77
8e39c1: 77
7984cc: 77
8e38a8: 77
65f8c2: 77
663543: 77
6ef384: 77
797d80: 77
7d5bc7: 77
827543: 77
8e3600: 77
660283: 77
650403: 77
6645c0: 77
7976c1: 77
665b89: 77
796551: 77
65026e: 77
8e3e00: 77
7d5a44: 77
80c541: 77
64f9c2: 77
64aac4: 77
86de00: 77
8318e5: 77
69a205: 77
8e3bc0: 77
64e183: 77
831a41: 77
64e242: 77
8e3402: 77
64b340: 77
649e02: 77
64e302: 77
6649c4: 77
831b00: 77
664046: 77
663901: 77
6638c2: 77
65eeb1: 77
645700: 77
663ad1: 77
796243: 77
663f90: 77
663fc3: 77
663832: 77
7d5701: 77
7972c2: 77
6640a1: 77
66440b: 77
960260: 77
664390: 77
8e3840: 77
663882: 77
64acc0: 77
663840: 77
80e100: 77
645682: 77
9601c4: 77
664642: 77
649f00: 77
64c3c7: 77
797083: 77
97a5f0: 78
827440: 78
8d03a8: 78
848604: 78
8274c0: 78
825c5b: 78
825e01: 78
828480: 78
848143: 78
5e95e0: 78
86515b: 78
825e40: 78
827600: 78
830690: 78
842340: 78
5416a0: 78
827481: 78
8d02b0: 78
848081: 78
8273c0: 78
97a682: 78
827587: 78
827501: 78
8650c6: 78
8275c0: 78
97a6e0: 78
8306c0: 78
827400: 78
828479: 78
5e9600: 78
830700: 78
865000: 78
827389: 78
977500: 78
865086: 78
827780: 79
827640: 80
827703: 80
865043: 80
825e82: 80
827682: 80
963680: 80
8276c0: 81
848650: 147
848581: 149
848682: 149
842481: 149
8e7c60: 149
8e6296: 149
84854e: 149
8e5ed0: 150
8e3ec0: 151
977480: 152
8e3eb0: 152
977440: 152
97ae4f: 152
9774c3: 152
8e5f02: 153
979840: 154
848047: 154
8129b0: 155
4004f0: 155
848120: 155
8480c2: 155
8129c0: 155
865100: 156
BTB TOTAL     ACCESS:   29674718  HIT:   29620843  MISS:      53875  HIT %:    99.8184  MISS %:   0.181552   MPKI: 0.269375
BTB Test counter:          0
BTB BRANCH_DIRECT_JUMP	ACCESS:     633395  HIT:     632983  MISS:        412
BTB BRANCH_INDIRECT	ACCESS:       8917  HIT:       8176  MISS:        741
BTB BRANCH_CONDITIONAL	ACCESS:   27681844  HIT:   27678194  MISS:       3650
BTB BRANCH_DIRECT_CALL	ACCESS:     675281  HIT:     673574  MISS:       1707
BTB BRANCH_INDIRECT_CALL	ACCESS:          0  HIT:          0  MISS:          0
BTB BRANCH_RETURN	ACCESS:     675281  HIT:     627916  MISS:      47365
BTB BRANCH_OTHER ACCESS:          0  HIT:          0  MISS:          0

L2C TOTAL     ACCESS:    4657641  HIT:    3295145  MISS:    1362496  HIT %:    70.7471  MISS %:    29.2529   MPKI: 6.81248
L2C Test counter:          0
L2C LOAD      ACCESS:     465973  HIT:     231232  MISS:     234741  HIT %:    49.6235  MISS %:    50.3765   MPKI: 1.1737
L2C DATA LOAD MPKI: 0.631905
L2C INSTRUCTION LOAD MPKI: 0.5418
L2C RFO       ACCESS:     996601  HIT:     597546  MISS:     399055  HIT %:    59.9584  MISS %:    40.0416   MPKI: 1.99527
L2C PREFETCH  ACCESS:    1862650  HIT:    1140846  MISS:     721804  HIT %:    61.2485  MISS %:    38.7515   MPKI: 3.60902
L2C DATA PREFETCH MPKI: 3.60902
L2C INSTRUCTION PREFETCH MPKI: 0
L2C WRITEBACK ACCESS:    1321094  HIT:    1319985  MISS:       1109  HIT %:    99.9161  MISS %:  0.0839456   MPKI: 0.005545
L2C LOAD TRANSLATION ACCESS:      11323  HIT:       5536  MISS:       5787  HIT %:    48.8916  MISS %:    51.1084   MPKI: 0.028935
L2C PREFETCH  REQUESTED:          0  ISSUED:          0  USEFUL:      50263  USELESS:     672057
L2C USEFUL LOAD PREFETCHES:      50263 PREFETCH ISSUED TO LOWER LEVEL:     723141  ACCURACY: 6.95065
L2C TIMELY PREFETCHES:      50263 LATE PREFETCHES: 1337 DROPPED PREFETCHES: 0
L2C COMMIT LATE PREFETCHES: 0 MISSED OPPORTUNITY: 0 LATE IN PQ: 0 UNCOVERED: 0
L2C COMMIT LATE MSHR PREFETCHES: 0
L2C MPKI TOTAL: 1.1737 MSHR LATE: 0.006685 PQ LATE: 0 COMMIT LATE: 0 MISSED OPPORTUNITY: 0 UNCOVERED: 0
L2C PREFETCHES SAME FILL-ORIGIN LEVEL: 33806 DIFFERENT FILL-ORIGIN LEVEL: 0
L2C AVERAGE MISS LATENCY: 122.08 cycles
L2C AVERAGE MISS LATENCY LOAD: 66.9112 cycles
L2C AVERAGE MISS LATENCY PREFETCH: 123.428 cycles
L2C AVERAGE MSHR OCCUPANCY: 1.46997
L2C MSHR FULL: 6.78473e-06
L2C RQ	ACCESS:    1474035	FORWARD:          0	MERGED:          0	TO_CACHE:    1473897
L2C WQ	ACCESS:    1321094	FORWARD:        181	MERGED:          0	TO_CACHE:    1321094
L2C PQ	ACCESS:    1873560	FORWARD:          0	MERGED:          6	TO_CACHE:    1873511

L2C Instructions Evicting Data 97345
L2C Translations Evicting Data 5389
L2C Data Evicting Data 1144335
L2C Instructions Evicting Instructions 10485
L2C Translations Evicting Instructions 377
L2C Data Evicting Instructions 97684
L2C Instructions Evicting Translations 530
L2C Translations Evicting Translations 21
L2C Data Evicting Translations 5221
L2C Dense regions hint from L2: 0
7a46f0: 1
877c01: 1
872a00: 1
77f2c0: 1
812aaa: 1
77df40: 1
879e51: 1
876553: 1
78c0c0: 1
7a5270: 1
78830a: 1
7d8302: 1
87b832: 1
77da43: 1
7a4103: 1
87403f: 1
77e543: 1
7a3086: 1
87de2c: 1
780640: 1
7a5b45: 1
78c2c5: 1
876200: 1
77ae80: 1
874645: 1
65f7ff: 1
87da85: 1
875ec2: 1
77e182: 1
879f0b: 1
7dbd81: 1
78a405: 1
877300: 1
7a2200: 1
873d00: 1
77f74e: 1
87a883: 1
8750c4: 1
5416e3: 1
7a4e40: 1
77b05a: 1
7a4286: 1
874481: 1
872474: 1
77d850: 1
77b543: 1
7a4201: 1
7da500: 1
8724c3: 1
92a68b: 1
7db1c0: 1
735b40: 1
830780: 1
77d800: 1
87a965: 1
7db301: 1
920383: 1
77eac6: 1
87b4c1: 1
7db4c3: 1
789b47: 1
7a5280: 1
8797c4: 1
7a35c7: 1
87c781: 1
830883: 1
830802: 1
87c6c5: 1
87a97f: 1
7a1942: 1
91fde8: 1
87ba69: 1
7a18c0: 1
77d6c1: 1
7d9980: 1
872b02: 1
7d9a00: 1
875682: 1
77ea06: 1
875942: 1
7d8481: 1
7a4806: 1
7d9e80: 1
788545: 1
7a3e80: 1
77e344: 1
87a8c2: 1
7a4e02: 1
7a5342: 1
7a4c04: 1
7db500: 1
77d2ac: 1
86ecea: 1
7a48a6: 1
77ce42: 1
786d7e: 1
77f902: 1
786d86: 1
8787c4: 1
786780: 1
7a4481: 1
786740: 1
827981: 1
91daf8: 1
785859: 1
7a12c0: 1
87da00: 1
789bc4: 1
7a4c22: 1
7a4186: 1
91fe07: 1
7a1dc1: 1
77db80: 1
7a1f47: 1
7a5c00: 1
875b02: 1
7a2284: 1
7db540: 1
785c3c: 1
7866c4: 1
879e00: 1
77e580: 1
87b480: 1
786882: 1
78d0fa: 1
786900: 1
8787bd: 1
875599: 1
77aca0: 1
875483: 1
7a3603: 1
7d9ac2: 1
879b84: 1
873780: 1
785c5b: 1
7d8980: 1
7a4540: 1
788840: 1
874582: 1
7a2fc1: 1
7a3581: 1
787c40: 1
7a5b03: 1
77f6d0: 1
788344: 1
879d82: 1
8745c3: 1
873400: 1
7f9548: 1
789ec6: 1
77c393: 1
7a34c0: 1
92035e: 1
77b1a1: 1
877b30: 1
7a5bc4: 1
7db800: 1
7878c1: 1
87de50: 1
7db842: 1
8727b3: 1
7d9288: 1
87c580: 1
8767c0: 1
80c6ca: 1
830837: 1
87c941: 1
665007: 1
875201: 1
7a3380: 1
7a4f02: 1
786d52: 1
787941: 1
7a5642: 1
785951: 1
77b7a2: 1
7a4245: 1
7d8a40: 1
7a4dc5: 1
78c442: 1
7a4e81: 1
78a200: 1
788704: 1
91fa1c: 1
65053e: 1
787bb0: 1
7a50c3: 1
87ba03: 1
7859f9: 1
8794f0: 1
879501: 1
78ad38: 1
7d8c40: 1
77ae07: 1
876547: 1
7a2040: 1
7a2dc6: 1
65e140: 1
78b580: 1
7919ec: 1
91f9c8: 1
77bac6: 1
78b4f0: 1
879540: 1
7d6a81: 1
91fb45: 1
64be05: 1
77f882: 1
7899f4: 1
8736ab: 1
77c4c0: 1
7eed73: 1
7db7c9: 1
879d02: 1
8797cd: 1
879886: 1
77b836: 1
879b4c: 1
87c0e7: 1
879c00: 1
780480: 1
879c45: 1
879c38: 1
879cb4: 1
874043: 1
874543: 1
879d42: 1
879dc2: 1
77d487: 1
788444: 1
879e82: 1
879e7a: 1
87ab03: 1
788484: 1
879770: 1
7d94c0: 1
879582: 1
873201: 1
77fec1: 1
879686: 1
877280: 1
785842: 1
8308c1: 1
879780: 1
8726af: 1
7a5981: 1
735cb0: 1
735cc1: 1
735d80: 1
735dc3: 1
91d7f0: 1
830903: 1
77c801: 1
735e42: 1
879802: 1
879cc0: 1
7a3dc0: 1
87dd41: 1
920401: 1
7d9942: 1
77b1f9: 1
87c745: 1
87c247: 1
8744c0: 1
77e470: 1
7d9bfe: 1
7dabc1: 1
7a4b30: 1
7a0d80: 1
8fa5c0: 1
87ddeb: 1
875445: 1
879fc2: 1
7d8a04: 1
77fbc4: 1
8fa329: 1
735bc4: 1
7da3c1: 1
91fa01: 1
7db682: 1
7a5400: 1
7db785: 1
7a5583: 1
873b80: 1
874442: 1
878f01: 1
87db84: 1
77c245: 1
7db2c2: 1
78a485: 1
77c456: 1
8795c1: 1
8fa045: 1
7a3044: 1
87a804: 1
7a1d84: 1
87bb25: 1
876366: 1
7a5304: 1
7a4ac0: 1
86ebc1: 1
87a844: 1
7eede1: 1
7a3a81: 1
878880: 1
7a5002: 1
7a54c2: 1
812a41: 1
8733c3: 1
7865c1: 1
7dbc00: 1
7a5d80: 1
87c181: 1
78b480: 1
7a5f4b: 1
875184: 1
87ab11: 1
873a40: 1
787c80: 1
87ab42: 1
7a4b41: 1
87de01: 1
8792c6: 1
77ae4d: 1
7a3bc4: 1
7a3142: 1
91fd10: 1
7d93c5: 1
8fa644: 1
7d9682: 1
87410b: 1
7a3e40: 1
77acdb: 1
87db42: 1
7d4e93: 1
7a4743: 1
7eee2d: 1
87be81: 1
7a2e44: 1
875eb0: 1
92a697: 1
872980: 1
7d82c1: 1
86eb7e: 1
7db741: 1
87b803: 1
876044: 1
7a1ac0: 1
7a3301: 1
7a2240: 1
735df2: 1
7a2c03: 1
77c347: 1
877450: 1
87a6e3: 1
78095c: 1
77ec45: 1
78697d: 1
873fd1: 1
7a5b81: 1
792fa1: 1
7a2e82: 1
7a2e00: 1
830980: 1
7d9385: 1
7d8ec1: 1
875803: 1
874946: 1
7da603: 1
86ece3: 1
77b3c3: 1
875f42: 1
87b68e: 1
7a2985: 1
87d980: 1
7d8841: 1
878903: 1
8fa2c0: 1
7a2b43: 1
92a800: 1
7a5f05: 1
77e280: 1
87bc40: 1
785c43: 1
66345f: 1
796b42: 1
77c000: 1
78b86e: 1
876e40: 1
64e4f5: 1
789771: 1
7a2a41: 1
78b943: 1
91f826: 1
7db141: 1
7a1b86: 1
875a85: 1
87c7c0: 1
7a1286: 1
87bb49: 1
875701: 1
7a4f41: 1
7a1c80: 1
873f80: 1
7a58b4: 1
87de40: 1
7f9328: 1
780609: 1
7a1540: 1
77acb1: 1
87b600: 1
7a25c3: 1
77d1c7: 1
879bc2: 1
7a2502: 1
7868c4: 1
87c305: 1
77acf7: 1
7a59c3: 1
7d90c0: 1
7a3f80: 1
7a1841: 1
7a4d01: 1
7d9400: 1
7d97c3: 1
831ec3: 1
913397: 1
874136: 1
7a5140: 1
878000: 1
78c4c2: 1
7d9cc1: 1
7a1682: 1
7d4d02: 1
91fe43: 1
7da443: 1
77c701: 1
77be87: 1
7a3941: 1
77e841: 1
875540: 1
7da0f9: 1
78ad45: 1
7a4383: 1
7886c1: 1
8737ab: 1
789b02: 1
7da980: 1
7d8cc0: 1
7a5045: 1
873468: 1
875a03: 1
77f500: 1
64d7f2: 1
78c376: 1
77e100: 1
7a4cc7: 1
77c6c1: 1
87b540: 1
7da282: 1
77d0c0: 1
91d901: 1
87cf4c: 1
78c040: 1
872ac1: 1
7887c0: 1
87bb3a: 1
7da9c5: 1
876347: 1
78a106: 1
7a4bd1: 1
77d105: 1
785e42: 1
878a40: 1
91f83d: 1
7dc301: 1
77d084: 1
77b769: 1
77cb82: 1
8740c1: 1
827c01: 1
876641: 1
87be00: 1
8fa083: 1
874100: 1
77ba06: 1
5416e9: 1
87260f: 1
77d222: 1
87c900: 1
77dc01: 1
78a242: 1
7dc803: 1
78ad85: 1
7a4140: 1
786976: 1
78a8c0: 1
785f43: 1
877740: 1
78028d: 1
7db906: 1
78be20: 1
77c040: 1
7d8b41: 1
77c641: 1
7dbac0: 1
87a9ce: 1
77d4c0: 1
877c44: 1
872218: 1
78c143: 1
87c1c3: 1
7d9580: 1
7da780: 1
64bcc0: 1
872a40: 1
78c003: 1
91db03: 1
7d86c7: 1
7a29c1: 1
87c341: 1
77dead: 1
77c140: 1
873fea: 1
7d4d46: 1
77b643: 1
786600: 1
91fe87: 1
7a4b83: 1
78a180: 1
7a2902: 1
7a3b82: 1
7896db: 1
780982: 1
879107: 1
7898d6: 1
78a544: 1
830e40: 1
7a3ac2: 1
785b42: 1
77cb02: 1
7a3ea5: 1
7a40c5: 1
7a2270: 1
7a5ac1: 1
77ce80: 1
87b440: 1
7a24c0: 1
7a36c1: 1
87c680: 1
7a27c3: 1
8773c2: 1
77d401: 1
7a1fc7: 1
735d01: 1
8790bb: 1
77e1c5: 1
77c0c0: 1
7a0e80: 1
7dbe85: 1
8741c0: 1
785f10: 1
7877c0: 1
87c2c0: 1
7885e8: 1
7a3880: 1
87899c: 1
876803: 1
7d8d00: 1
875907: 1
77b803: 1
7a44c1: 1
7a1200: 1
77df00: 1
873440: 1
77d9c0: 1
91d80c: 1
7d8a39: 1
77c100: 1
8758c5: 1
735c05: 1
878a83: 1
7da14a: 1
786969: 1
7a4080: 1
7a2146: 1
8731c0: 1
7a5101: 1
785ac1: 1
7d8e01: 1
873d41: 1
7daa9f: 1
77fa81: 1
7a2f02: 1
785c80: 1
7dc6c0: 1
77f0c0: 1
7a1e81: 1
77c5c7: 1
7876c0: 1
735d44: 1
7a1640: 1
873160: 1
78a1c0: 1
7a20c7: 1
8797df: 1
78969b: 1
7a3700: 1
77bd43: 1
87a059: 1
7a4a01: 1
877380: 1
7dac01: 1
91f8d6: 1
8722f7: 1
77dcc0: 1
77eb87: 1
780a7a: 1
8724b8: 1
7d9d02: 1
878c10: 1
87c506: 1
7d9241: 1
77cf5b: 1
875ac0: 1
873e80: 1
873e42: 1
873242: 1
77c941: 1
78c46f: 1
7a4a81: 1
7db183: 1
77cd81: 1
87dd9e: 1
875af1: 1
78a3c6: 1
7d4fe5: 1
77dd02: 1
879c81: 1
7d9721: 1
7896c0: 1
77e703: 1
7a418b: 1
7a3502: 1
91d843: 1
77b942: 1
87ce8e: 1
7a2ac0: 1
7dc541: 1
7d8e40: 1
7a51c5: 1
8775b5: 1
7dbc46: 1
7a2cc7: 1
873b08: 1
87c142: 1
7da2ed: 1
77d940: 1
785886: 1
77ecc2: 1
87dcc0: 1
7db5c2: 1
87ab80: 1
7db412: 1
91f985: 1
876f42: 1
87c701: 1
78c485: 1
87dec3: 1
879ec2: 1
8788c1: 1
878843: 1
7dc145: 1
78c59e: 1
87c202: 1
7a4500: 1
7daf03: 1
77d980: 1
785e83: 1
7a43c3: 1
7a41c3: 1
873386: 1
7a419a: 1
7a41bc: 1
876603: 1
7a41e1: 1
7a41d2: 1
7a4300: 1
7a4340: 1
878100: 1
7a4005: 1
7a4400: 1
785b21: 1
77b784: 1
7a4442: 1
7a4582: 1
7d8280: 1
7a4605: 1
77b904: 1
7a45c2: 1
7a4645: 1
97acd6: 1
7a5942: 1
879f2a: 1
86ef6d: 1
663368: 1
812a00: 1
7d96c3: 1
77b46f: 1
7a5842: 1
97ae28: 1
78af82: 1
7f9236: 1
7a0e00: 1
7a0e41: 1
7a0ec6: 1
7a0f07: 1
7a3ec1: 1
77fd98: 1
7a3f05: 1
7a3f40: 1
87c85f: 1
77b1b7: 1
7a5200: 1
7a53c0: 1
7a5486: 1
787901: 1
7a5602: 1
77ca04: 1
7879c1: 1
7a56c2: 1
879441: 1
7a5704: 1
77c542: 1
7a5790: 1
7a57c2: 1
877c24: 1
7a5802: 1
7a5882: 1
827c81: 1
8763c7: 1
7a58c0: 1
7a58e5: 1
7a4bc2: 1
786983: 1
7a4684: 1
7a48c3: 1
77bc42: 1
7a4900: 1
780719: 1
7a4886: 1
7a4940: 1
77bd84: 1
7a4a42: 1
87967f: 1
7d88c0: 1
7a4c45: 1
878ac0: 1
7a4d83: 1
7a4f81: 1
7a5080: 1
7a5181: 1
7a52c1: 1
7a5383: 1
87c544: 1
87c042: 1
872a24: 1
87c091: 1
87c381: 1
87c3c1: 1
87c441: 1
7857ae: 1
87c49d: 1
874740: 1
87c4c7: 1
87bf83: 1
87c5c3: 1
87c602: 1
87c645: 1
87c800: 1
87c880: 1
9773c0: 1
87c8c2: 1
785c2f: 1
92a990: 1
77b8de: 1
7da400: 1
7a21c3: 1
875b41: 1
875b80: 1
875f80: 1
876081: 1
8760c0: 1
876103: 1
87bbc1: 1
7a2b84: 1
87bc81: 1
7a2c81: 1
87bddd: 1
87be0d: 1
87bf0e: 1
84824e: 1
87bf46: 1
735ae0: 1
735b84: 1
96b842: 1
[...]
80c541: 1
785951: 1
8750b4: 1
77f202: 1
7dbec1: 1
874a04: 1
78a601: 1
7da6c1: 1
874984: 1
7a1841: 1
77f282: 1
874900: 1
77e000: 1
77d3c2: 1
875445: 1
78bc81: 1
87b843: 1
8732c2: 1
7a2083: 1
877e8b: 1
780580: 1
7a16c2: 1
7a5f4b: 1
875142: 1
65f102: 1
78b480: 1
8748de: 1
64a3c1: 1
7d7945: 1
7a41bc: 1
879f05: 1
877b81: 1
875701: 1
64a7c3: 1
874582: 1
7a0d80: 1
8fa644: 1
879604: 1
786cea: 1
8fa603: 1
8fa083: 1
8fa5c0: 1
7a3782: 1
77c4c0: 1
879d02: 1
77f1c2: 1
78d4d0: 1
879f40: 1
875880: 1
77f300: 1
874701: 1
879e40: 1
7dc82a: 1
87a783: 1
7a2743: 1
87dc00: 1
7da142: 1
874683: 1
875742: 1
77f6d0: 1
7a1606: 1
9203c2: 1
7a4940: 1
7d4d02: 1
7d8bc9: 1
875942: 1
7a21c3: 1
87bfc0: 1
879302: 1
7a55c5: 1
7a2420: 1
878ec2: 1
7dc145: 1
7a5a84: 1
64a645: 1
91fe43: 1
77fc00: 1
87dac0: 1
64e183: 1
91fe07: 1
65e135: 1
7a1942: 1
873dc7: 1
87a97f: 1
875b80: 1
7d9840: 1
7a5ec0: 1
7a1882: 1
875ac0: 1
91f943: 1
65f3c3: 1
7d59c3: 1
875a85: 1
8758b4: 1
77cf07: 1
8758a0: 1
7a5d00: 1
7d8d41: 1
8307c9: 1
650583: 1
6632c7: 1
876553: 1
77cc81: 1
7dc043: 1
8777c1: 1
780280: 1
7a13c3: 1
7d9701: 1
87c381: 1
780102: 1
830e02: 1
831a02: 1
786983: 1
7a4684: 1
92045b: 1
875100: 1
7a36c1: 1
7d9905: 1
7a5383: 1
8756c0: 1
873225: 1
7a4005: 1
86ece3: 1
8757c0: 1
7a3880: 1
64d782: 1
7808c5: 1
77d780: 1
7d6e83: 1
7a15c5: 1
7d99b0: 1
87b888: 1
830843: 1
7857c4: 1
7a3c80: 1
7d93c5: 1
78deb5: 1
92a7c3: 1
87c900: 1
7a3486: 1
87aa03: 1
7da941: 1
873841: 1
7a22c1: 1
650281: 1
87ac02: 1
77d6c1: 1
7a15dc: 1
87b905: 1
873e80: 1
64a045: 1
873286: 1
96b842: 1
7897e6: 1
876184: 1
785860: 1
65f980: 1
8791c0: 1
7db6c3: 1
873242: 1
878843: 1
789f82: 1
7a5942: 1
664982: 1
87b301: 1
876044: 1
77e040: 1
78b040: 1
64f482: 1
91f97d: 1
78966e: 1
87ab42: 1
77d7ca: 1
87b400: 1
7807c1: 1
7a4e02: 1
7a0fbb: 1
650d87: 1
788704: 1
87abc2: 1
78d255: 1
8749c0: 1
7a1700: 1
7a2e00: 1
87b68e: 1
7d8b41: 1
87dbf9: 1
8790c3: 1
832244: 1
6f4620: 1
86d940: 1
873e00: 1
87de2c: 1
8722f7: 1
77dc40: 1
874840: 1
7a0fc2: 1
7a2200: 1
87a0c4: 1
8744ea: 1
91d882: 1
86eb2a: 1
6456c1: 1
879fc2: 1
7a0e80: 1
87c2c0: 1
873fd1: 1
663a10: 1
876547: 1
87ab80: 1
873f80: 1
735e01: 1
7d5ec3: 1
87c781: 1
7d5c7f: 1
7a4e40: 1
874100: 1
64b547: 1
830802: 1
879f2a: 1
77b863: 1
86ef6d: 1
7db301: 1
785c80: 1
87a6e0: 1
920401: 1
66345f: 1
87be81: 1
92035e: 1
7a2e44: 1
87ab03: 1
91fef8: 1
77c8c3: 1
7a4ee0: 1
8763c7: 1
7d7240: 1
645740: 1
87ac84: 1
920442: 1
92a6c2: 1
872d6b: 1
827c81: 1
7f9297: 1
878947: 1
7d8360: 1
664a86: 1
7a4b83: 1
7a2440: 1
78c544: 1
7a1342: 1
7a58c0: 1
87bb86: 1
78d37e: 1
7a2f40: 1
8767be: 1
7a1781: 1
785f10: 1
8741c0: 1
91fa01: 1
7dbe85: 1
7a1e00: 1
920473: 1
87c1c3: 1
874200: 1
77dead: 1
8750c4: 1
78bc41: 1
7dab06: 1
7a3540: 1
87b803: 1
87c0c6: 1
872b40: 1
877406: 1
77db80: 1
8794f0: 1
78fee2: 1
7db741: 1
87bddd: 1
7a1cc3: 1
7a49c0: 1
86eb63: 1
87a883: 1
8754c7: 1
830980: 1
7859bc: 1
735c45: 1
77f550: 1
77cc01: 1
664f8b: 1
785842: 1
7da400: 1
7d7340: 1
875f80: 1
7a42c0: 1
663b32: 1
77ec45: 1
78d1fe: 1
876200: 1
7a1080: 1
7a4a01: 1
7d4f86: 1
97a40a: 1
86da80: 1
87c544: 1
80c6ca: 1
8787ab: 1
8772c0: 1
735bc4: 1
8792c6: 1
87c042: 1
78e3a8: 1
830837: 1
7a2b84: 1
77bd43: 1
87b3c0: 1
7a5181: 1
7d5e80: 1
875f42: 1
780880: 1
8775b5: 1
8731c0: 1
86ed52: 1
7da780: 1
87a7c5: 1
7d9e42: 1
87a965: 1
87dc42: 1
8308c1: 1
785909: 1
877280: 1
87bf46: 1
87bf0e: 1
87c800: 1
87bee9: 1
7a41c3: 1
77f840: 1
789a46: 1
78c580: 1
875ec2: 1
87c142: 1
7d9385: 1
7a32c0: 1
879501: 1
7a8940: 1
7a1986: 1
87b6c0: 1
735c05: 1
87be0d: 1
875f01: 1
7f9442: 1
87c101: 1
788387: 1
645840: 1
876e40: 1
7a3184: 1
665640: 1
7a3044: 1
64a5e0: 1
8760c0: 1
735ae0: 1
78b86e: 1
87c202: 1
876103: 1
663ad1: 1
7a1481: 1
77be43: 1
87b480: 1
77e383: 1
7901c1: 2
793b82: 2
793b41: 2
78ef83: 2
7902c0: 2
790241: 2
797ec5: 2
797645: 2
828479: 2
790881: 2
78e8c5: 2
872110: 2
78f201: 2
7925c7: 2
78f300: 2
78f340: 2
827600: 2
7934c1: 2
793007: 2
797485: 2
7903c0: 2
78ee80: 2
793680: 2
7935c7: 2
7960ab: 2
848940: 2
793582: 2
793546: 2
796bc5: 2
795606: 2
793640: 2
785660: 2
793408: 2
78edc2: 2
793307: 2
7930c0: 2
792fc1: 2
797a43: 2
790400: 2
792f41: 2
796007: 2
78ed00: 2
792f02: 2
78efc6: 2
872911: 2
793a6e: 2
790f40: 2
78d602: 2
95fa42: 2
793a84: 2
792e44: 2
793880: 2
792602: 2
7950d6: 2
7937c4: 2
78ef40: 2
793b00: 2
790385: 2
796e43: 2
792b05: 2
78e804: 2
7936c0: 2
78ed84: 2
797e82: 2
792bc5: 2
78ef07: 2
78ee44: 2
78eec2: 2
791980: 2
64ba80: 2
848228: 2
794f03: 2
873006: 2
794e86: 2
78fa83: 2
797bc5: 2
7d5036: 2
78fa45: 2
78f9c7: 2
785f82: 2
797100: 2
795580: 2
78e080: 2
78fdc1: 2
78f982: 2
78e1c2: 2
865181: 2
960260: 2
794d84: 2
78d680: 2
792d46: 2
794c02: 2
797f88: 2
797380: 2
7950c6: 2
78f907: 2
796d89: 2
797542: 2
78fd81: 2
7d9b44: 2
78fc40: 2
795283: 2
7db129: 2
65dc01: 2
78fbc0: 2
795200: 2
791206: 2
78fb86: 2
8723bb: 2
796c03: 2
7d4cc5: 2
797341: 2
795301: 2
795143: 2
7950fa: 2
8e7c60: 2
78fb42: 2
795080: 2
78fb04: 2
796fc0: 2
794ff0: 2
794fcc: 2
827c41: 2
794fc6: 2
795540: 2
790102: 2
78f1c2: 2
794750: 2
793d06: 2
78f642: 2
78e904: 2
7d5dc5: 2
790046: 2
78f5c0: 2
797b47: 2
86eafb: 2
795805: 2
78f103: 2
790003: 2
78f5d7: 2
792a81: 2
78f4c0: 2
793c00: 2
830784: 2
78f486: 2
790181: 2
791780: 2
873101: 2
665fb9: 2
785fa1: 2
78f3c8: 2
64bc87: 2
827703: 2
7949c7: 2
95f988: 2
78f8c0: 2
7859c3: 2
78f844: 2
797c85: 2
794bc2: 2
794a40: 2
795041: 2
78ff43: 2
78f882: 2
8726d0: 2
86ed40: 2
78f805: 2
78f402: 2
64ba00: 2
7947c4: 2
8e3702: 2
7d5701: 2
78f6c0: 2
7d57c2: 2
78f684: 2
78f5ed: 2
78fef1: 2
97a5f3: 2
793ccc: 2
786442: 2
78f5f5: 2
796800: 2
78da63: 2
790800: 2
790906: 2
791103: 2
796881: 2
790b40: 2
78d941: 2
872ec3: 2
7910c2: 2
5416d0: 2
796846: 2
7909c4: 2
791087: 2
64a587: 2
78dbc3: 2
791041: 2
78d900: 2
827556: 2
78d800: 2
78eb41: 2
873140: 2
78d783: 2
793743: 2
790a06: 2
86e420: 2
78d279: 2
792ec2: 2
78d703: 2
78de94: 2
795f04: 2
78e040: 2
649c82: 2
791442: 2
795dc7: 2
961704: 2
790d40: 2
78dfc0: 2
78df42: 2
78df00: 2
797500: 2
78f046: 2
798241: 2
790fc4: 2
872840: 2
78dd9d: 2
791402: 2
78dd80: 2
7913c2: 2
791343: 2
78dc40: 2
794d01: 2
7a8800: 2
78dc30: 2
7911c6: 2
7907c3: 2
78f781: 2
790bc3: 2
78f7c5: 2
790d86: 2
5e9600: 2
795240: 2
78d4e6: 2
872640: 2
797444: 2
795b82: 2
78ee01: 2
790c42: 2
790606: 2
790c00: 2
77af03: 2
794a86: 2
7963c8: 2
78d3e2: 2
7900c6: 2
78d181: 2
827b00: 2
78d445: 2
78d280: 2
78d404: 2
78d2c0: 2
78d237: 2
790a82: 2
78d306: 2
792ac5: 2
78d385: 2
792dc1: 2
847f40: 2
796282: 2
790d00: 2
77acc6: 2
796740: 2
78d6c2: 2
78d641: 2
790f81: 2
796642: 2
78db06: 2
7d6941: 2
790e83: 2
78dd10: 2
92ab0b: 2
7919c2: 2
9602c3: 2
792d81: 2
790e43: 2
78e7c4: 2
64a605: 2
960283: 2
7d6900: 2
97a682: 2
7951c0: 2
78e66e: 2
877f01: 2
78d5c2: 2
792680: 2
78eb03: 2
78fa05: 2
78f743: 2
792882: 2
78eac2: 2
78ea02: 2
793ac4: 2
792c03: 2
77b442: 2
792842: 2
7926c0: 2
790840: 2
78e985: 2
961b9f: 2
790501: 2
795904: 2
78e941: 2
78e880: 2
8e344b: 2
790b05: 2
790583: 2
797b00: 2
78e744: 2
78e386: 2
792581: 2
792f80: 2
8e5f02: 2
791142: 2
7d6a43: 2
825e40: 2
792e04: 2
793386: 2
78ec83: 2
827900: 2
78ec40: 2
64bb03: 2
87aac3: 2
87b9c5: 2
793600: 2
86e442: 2
795c41: 2
792d02: 2
795e41: 2
78ebc2: 2
796482: 2
790cc3: 2
95fae0: 2
792c41: 2
790a46: 2
7f9600: 2
795180: 2
797881: 2
8275c0: 2
78eb80: 2
872942: 2
8e38da: 2
7914c4: 2
8e38c0: 2
7928c1: 2
790701: 2
7961c0: 2
797003: 2
78e302: 2
78dd50: 2
961cfc: 2
791844: 2
7917c0: 2
791752: 2
792a33: 2
78e2c4: 2
78d982: 2
792800: 2
796c41: 2
78e284: 2
78e241: 2
78e143: 2
78eb11: 2
791482: 2
78e108: 2
78e0c7: 2
7a5905: 2
6634c4: 2
793786: 2
795ec0: 2
872f02: 2
794ec1: 2
797d00: 2
792541: 2
7924c2: 2
792481: 2
77be30: 2
7a8817: 2
791804: 2
790646: 2
792400: 2
77d160: 2
78e582: 2
791000: 2
78e600: 2
790482: 2
78da42: 2
7906c1: 2
7923c2: 2
828480: 2
793c80: 2
78e4c1: 2
790145: 2
7d4e80: 2
86e433: 2
78db80: 2
793bc1: 2
665fc1: 2
795e80: 2
797941: 2
78da4a: 2
825e82: 2
827628: 2
797689: 2
78fcc0: 2
797787: 2
786300: 2
797802: 2
961d01: 2
78e645: 2
793cc7: 2
794a03: 2
794dc6: 2
87ba44: 2
797a00: 2
797ac0: 2
7a8780: 2
873044: 2
7f9640: 2
790b81: 2
87b970: 2
796d02: 2
864e51: 2
797580: 2
794c40: 2
797c01: 2
792501: 2
8e5ed0: 2
961dc1: 2
8e3b90: 2
797601: 2
78e184: 2
78e6d3: 2
786080: 2
7984cc: 2
7861c3: 2
791942: 2
786160: 2
7a87d6: 2
786100: 2
795780: 2
7860c1: 2
790745: 2
5416b9: 2
786040: 2
7a8750: 2
786001: 2
796701: 2
786402: 2
798795: 2
794f80: 2
796900: 2
786242: 2
797746: 2
7d8b74: 2
786283: 2
7969c0: 2
786342: 2
797f46: 2
797702: 2
791306: 2
797e4a: 2
786349: 2
7863c0: 2
797e04: 2
797cc1: 2
86eb04: 2
78d747: 2
796f80: 2
7958c6: 2
789744: 2
87c654: 2
797043: 2
78ec07: 2
78d503: 2
95f950: 2
78ea84: 2
793502: 2
8277f0: 2
78ed40: 2
9627fd: 2
8274c0: 2
864f82: 2
827481: 2
78d7c5: 2
786380: 2
78ff87: 2
7f95ec: 2
796e84: 2
78da81: 2
8726a6: 2
8e3480: 2
794c82: 2
8e3505: 2
790c86: 2
792641: 2
794e06: 2
795b45: 2
796e04: 2
5416b3: 2
785eb5: 2
792745: 2
827389: 2
790946: 2
793440: 2
78e342: 2
7d6983: 2
96b800: 2
8273c0: 2
7973c2: 2
8e7b02: 2
872690: 2
797404: 2
794e46: 2
78f004: 2
7974c4: 2
65dbf0: 2
797205: 2
66df40: 2
796781: 2
78f247: 2
796a80: 2
797184: 2
78fd42: 2
793080: 2
793041: 2
793299: 2
827682: 2
7955c9: 2
795006: 2
796580: 2
797083: 2
791541: 2
8d02b0: 2
791246: 2
797a84: 2
873082: 2
791a40: 2
663484: 2
785f5d: 2
792a41: 2
796185: 2
7975c1: 2
78f376: 2
78d312: 2
792b44: 2
64b9c4: 2
78e9c1: 2
7d5380: 2
8726c0: 2
8765fe: 2
78dec3: 2
78f700: 2
78dcc0: 2
663381: 2
64f893: 2
790981: 2
796140: 2
78f500: 2
7862c2: 2
735b02: 2
790e03: 2
795f83: 2
64ba44: 2
792701: 2
7938c3: 2
792c87: 2
400500: 2
8650d8: 2
961a0f: 2
78f446: 2
785741: 2
87c89e: 2
78ff00: 2
87c082: 2
830690: 2
8e35c0: 2
790780: 2
872880: 2
7976c1: 2
7f9736: 2
960202: 2
792446: 2
7954c3: 2
793702: 2
877b40: 2
78dac3: 2
7970c0: 2
961782: 2
78e3c6: 2
795d05: 2
78fe87: 2
827ac1: 2
7912c2: 2
7908c0: 2
78e500: 2
793343: 2
78d4c1: 2
795101: 2
794f46: 2
77be26: 2
53c6d0: 2
797c44: 2
7918c1: 2
872482: 2
665fac: 2
79236b: 2
790ec4: 2
78f942: 2
77ec84: 2
794b80: 2
786840: 2
7d8405: 2
8727c1: 2
795bc0: 2
872700: 2
961603: 2
8e3840: 2
785701: 2
86ef61: 2
663407: 2
794901: 2
872783: 2
7a8842: 2
8129b0: 2
5416c2: 2
78e442: 2
7987c1: 2
790280: 2
960606: 2
848939: 2
797249: 2
795486: 2
78e7cc: 2
78e7bc: 2
872f40: 2
64bb40: 2
78fec8: 2
78f380: 2
78ea45: 2
78d3c0: 2
78e5c0: 2
877e9f: 2
796a01: 2
66df4b: 2
791880: 2
872e46: 2
848259: 2
794cc3: 2
78d581: 2
7d4c70: 2
86ed01: 2
47dac0: 2
78e482: 2
872141: 2
797fc4: 2
794787: 2
827587: 2
794801: 2
92a683: 2
8d03a8: 2
796102: 2
78f081: 2
78e033: 2
961680: 2
7d6596: 2
790342: 2
7933d4: 2
96177e: 2
7da2e3: 2
9617c2: 2
78db42: 2
7977cb: 2
9616c2: 2
827400: 2
78d481: 2
8e38a8: 2
961840: 2
792b82: 2
77fcc0: 2
961866: 2
796086: 2
790547: 2
7dab41: 2
7905c7: 2
7979c0: 2
8e33c0: 2
9615e9: 2
791502: 2
795c05: 2
791585: 2
64b982: 2
86e403: 2
78fe06: 2
66df53: 2
8e3783: 2
78fc88: 2
8e6296: 2
827882: 2
786202: 2
64bb80: 2
960500: 2
794c49: 2
790447: 2
7960c0: 2
960bc0: 2
790ac0: 2
8e7b67: 2
97a434: 2
8e7ad0: 2
84315e: 2
7962c0: 2
86e3c2: 2
843050: 2
78d140: 2
795f40: 2
795f1a: 2
795d81: 2
790205: 2
796380: 2
872e03: 2
795c86: 2
961e02: 2
962801: 2
961d40: 2
961bcf: 2
96175b: 2
873182: 2
920365: 2
791385: 2
791a84: 2
795644: 2
8e39bb: 2
872fc1: 2
795442: 2
78fc00: 2
795501: 2
8797ee: 2
78fd03: 2
79531d: 2
86d72e: 2
66dfa1: 2
78fe44: 2
7953f5: 2
78e200: 2
797282: 2
827941: 2
797989: 2
77d920: 2
872e84: 2
7948c4: 2
8730c0: 2
790686: 2
78fac7: 2
78f9ac: 2
795401: 2
78da01: 2
7d6a00: 2
64bac4: 2
797d80: 2
78e000: 2
797b85: 2
795d42: 2
793480: 2
795b42: 2
792785: 2
78f1b3: 2
790dc3: 2
78f284: 2
7d89ca: 2
794b04: 2
842340: 2
795882: 2
794ac5: 2
795844: 2
6660af: 2
8e3752: 2
796041: 2
649d00: 2
7957c1: 2
7d69c3: 2
78f540: 2
795740: 2
795cc4: 2
78f0c0: 2
7972c2: 2
795707: 2
796a47: 2
649d42: 2
78ecc0: 2
78d9c2: 2
7956c2: 2
795682: 2
7869e1: 2
8e39c1: 2
66df71: 2
87b342: 2
797140: 2
95fa05: 2
797dc7: 2
796d42: 2
78f600: 2
796c80: 2
87b981: 2
796dc0: 2
785f7b: 2
797d43: 2
8e3e00: 2
78e704: 2
796685: 2
8e3402: 2
86d6c0: 2
790f06: 2
7964c0: 2
7a8882: 2
790301: 2
827440: 2
87dde2: 2
872744: 2
96018d: 2
796983: 2
797901: 2
791186: 2
6660c0: 2
786182: 2
795e02: 2
78fec0: 2
8e3647: 2
663440: 2
794b43: 2
8e3bc0: 2
8e3680: 2
796f41: 2
7952c0: 2
825e01: 2
8e3600: 2
8e36c2: 2
8e3838: 2
797305: 2
797f04: 2
96b872: 2
795fc0: 2
96b89e: 2
796f05: 2
7803d0: 2
827501: 2
8e3581: 2
796942: 2
8129c0: 2
77b8c3: 2
8737b3: 2
8e3562: 2
790082: 2
8e34f4: 2
8e33fc: 2
7968c3: 2
7965c2: 2
7927c5: 2
796606: 2
796307: 2
78dc86: 2
796207: 2
8723c0: 2
796342: 2
794881: 2
8306c0: 2
796243: 2
794841: 2
80dc3f: 2
78e842: 2
830700: 2
7971c5: 2
842481: 2
796400: 2
796443: 2
794981: 2
787601: 2
960302: 2
78f2c0: 2
7932c7: 2
9605d8: 2
78ffc5: 2
796078: 2
663245: 2
7875eb: 2
785681: 2
8278c3: 2
961b5c: 2
872dc5: 2
827a01: 2
9601c4: 2
792cc2: 2
791903: 2
8730a0: 2
792383: 2
961da0: 2
796551: 2
7978c2: 2
7966c3: 2
792e84: 2
791a00: 2
872d80: 2
796cc5: 2
961a41: 2
794942: 2
794f00: 2
7862ad: 2
872800: 2
78f584: 2
7904c6: 2
78afc0: 2
7967c0: 2
797845: 2
794d43: 2
796507: 2
78e780: 2
796ec5: 2
791287: 2
793c40: 2
65dc44: 3
7f93f8: 3
872896: 3
7d90f5: 3
795914: 3
960100: 3
7f92d0: 3
97a5f0: 3
827b90: 3
86de69: 3
848010: 3
87488a: 3
96014c: 3
865086: 3
78b560: 3
961530: 3
7856c3: 3
7d73d0: 3
64a9ea: 3
827780: 3
7dc3f9: 3
87bfc4: 3
848052: 3
8650c6: 3
7d65fb: 3
64a9bc: 3
961582: 3
865043: 3
848081: 3
7d780e: 3
977480: 3
77e690: 3
8276c0: 3
8e4086: 3
78679c: 3
864e20: 3
864e3f: 3
735d6c: 3
97a431: 3
64a0d4: 3
78df80: 3
864f24: 3
64e521: 3
64e411: 3
864e5b: 3
7d4e43: 3
961597: 3
864f2c: 3
8e3ff0: 3
78d1a8: 3
8e4100: 3
963680: 3
8764d0: 3
6633c2: 3
9600c2: 3
78f359: 3
864e82: 3
848581: 3
7db02d: 3
797bc9: 3
8e4089: 3
8d02d1: 3
9203c4: 3
64a0e6: 3
9600e1: 3
78d1c0: 3
82794d: 3
960070: 3
827804: 3
827840: 3
64a9cd: 3
9636b4: 3
827855: 3
865100: 3
77e8f7: 3
872302: 3
8e40d0: 3
864f45: 3
77e560: 3
864e46: 3
78d540: 3
864e8d: 3
8763ec: 3
8d02f2: 3
865000: 3
848143: 3
77bf20: 3
848120: 3
64a9e4: 3
87b670: 3
87da35: 3
977440: 3
86515b: 3
78d344: 3
64a9d3: 3
8e4041: 3
8cff40: 3
848650: 3
78e402: 3
8485c2: 3
95faa8: 3
64a109: 3
786387: 3
96b7c2: 3
8e4030: 3
864fc1: 3
96159e: 3
827931: 3
64aa49: 3
64a0ec: 3
961541: 3
78d0e0: 3
78d102: 3
963701: 3
8761e0: 3
64bc3c: 3
78d205: 3
960081: 3
8481e4: 3
848604: 3
64a0f2: 3
8763aa: 3
64a9b6: 4
8273ea: 4
8308e0: 4
78d246: 4
651046: 4
735b8c: 4
95faa2: 4
64a9f1: 4
8748c2: 4
97985d: 4
876eb0: 4
7a4000: 4
87480b: 4
84855c: 4
82741e: 4
7d9c44: 4
735b4f: 4
7802c5: 4
825c5b: 4
87cf00: 4
8274f9: 4
827465: 4
735d2f: 4
7862ee: 4
8274c4: 4
78681f: 4
848682: 4
78d175: 4
65dc72: 4
66322c: 4
864e92: 4
879630: 4
66df83: 4
64aa40: 4
827640: 4
8273c4: 4
735d92: 4
7f91ee: 4
64a0b6: 4
64e51b: 4
960bb5: 4
77d7c0: 4
95f9fa: 4
848295: 4
7f93b0: 4
9636a0: 4
7f958c: 4
64a0b0: 4
64a9b0: 4
64e4cc: 4
97751b: 4
64e3e3: 4
873899: 4
64a140: 4
64a0bc: 4
8262ad: 4
825bdc: 4
735bb2: 4
64a0ce: 4
865075: 4
8763bd: 4
86507f: 4
735b6d: 4
735d4d: 4
879642: 5
7964b0: 5
78f968: 5
78e0da: 5
78e5e0: 5
7db391: 5
64b3ad: 5
873220: 5
843064: 5
830a00: 5
64b3c0: 5
7f9580: 5
5416a0: 5
78f3f4: 5
876ec2: 5
64bcf1: 5
786800: 5
7d4e8b: 5
78d90a: 5
793cbd: 5
86d702: 5
77f45c: 5
7d4f4b: 5
848130: 5
864e9a: 6
97acd1: 6
9636c9: 6
7d88d0: 6
787b15: 6
78d917: 6
848047: 6
8e3ba1: 6
780180: 6
5e95e0: 6
78fa3f: 6
78d8fa: 6
78d8c1: 6
8761e8: 6
8306d0: 6
8480c2: 6
847fed: 6
77ee6a: 6
96156e: 6
963689: 6
97a6e0: 6
963d00: 6
7a1b44: 6
78e00c: 7
848031: 7
848567: 7
78f165: 7
78f90a: 7
961641: 7
865011: 7
785eb0: 7
795b2b: 7
785fc6: 7
848572: 7
78ec2e: 7
979840: 7
77f457: 7
848021: 7
78e540: 7
87b320: 7
78eaa1: 7
78fa08: 8
7a2bf3: 8
977500: 8
7d7378: 8
7955ad: 8
4004f0: 8
7f93eb: 8
7d65a9: 8
865091: 8
78f31a: 8
78fa6a: 8
87c4b0: 8
865020: 8
78ebb0: 8
64e538: 8
873ce0: 9
77dc4b: 9
795249: 9
794c97: 9
7964b4: 9
7a44d4: 9
873c80: 9
787b10: 9
864ea8: 9
7952d8: 9
64b674: 9
77c776: 9
87dd00: 9
78ee12: 9
78d2b4: 9
7dad5c: 9
78f160: 9
64b65b: 9
84305d: 10
86da2b: 10
793cb3: 10
7f9229: 10
87481f: 10
64becb: 10
794f0b: 10
64b68d: 10
80dea7: 10
7a3fb0: 10
7db387: 10
65f81f: 10
7d7391: 10
65f0c4: 10
78d8f1: 10
77c81a: 10
7861f5: 10
7d5675: 10
64b783: 10
7d7405: 11
77b047: 11
7d5556: 11
7d65c3: 11
794f8b: 11
7a3fd1: 11
84854e: 11
78d288: 11
64b34a: 11
77bf38: 12
77c0c6: 12
847ff8: 12
7f95df: 12
7d557c: 12
77bf2b: 12
77c16b: 12
7d5915: 12
7d6622: 13
91d8ac: 13
64e401: 13
91f92f: 13
7861f0: 14
92a732: 15
78ead7: 15
78633c: 15
87a740: 15
8789a8: 16
77ee6e: 16
7a88f0: 16
77e6d8: 16
78ebf4: 16
977420: 16
872dc0: 16
87dca3: 16
91d8be: 16
7d99f0: 16
7d9909: 16
7d992d: 17
8e3f10: 17
77d176: 18
77c77b: 18
793caa: 18
77d169: 18
77c9ab: 18
825cf3: 19
825e03: 19
77ee8a: 20
7863fc: 20
827391: 21
77c81e: 22
825c63: 22
77ca4e: 22
825d78: 22
86da91: 23
77cd43: 23
77c230: 24
77c37e: 24
77c2da: 24
7de781: 25
794bf3: 25
77c16f: 26
77c0cb: 26
7951a3: 26
7eedee: 27
7eed9d: 27
65dca0: 28
8e40a7: 30
7d90dd: 31
7d8eed: 31
842355: 33
795093: 34
7d9cfa: 36
786404: 38
7d8fce: 39
7d8dde: 39
77af73: 39
7d5544: 39
877c20: 42
87bedf: 45
786344: 45
77cd47: 46
77ce08: 46
6645d6: 47
87beb2: 48
87bec9: 48
77c445: 49
86da89: 49
77c234: 49
86d9a9: 51
876ec7: 54
64e4c6: 56
876eb5: 58
87aa30: 59
78f9d1: 63
87ab70: 63
879647: 63
7dad9b: 66
7dad71: 67
879635: 67
78e01e: 68
7a2214: 69
78d804: 70
7dadb4: 72
848138: 73
92a76e: 73
87bc30: 83
78d840: 89
873340: 95
78680d: 97
7867f0: 98
843168: 109
7dacbf: 109
977406: 111
92a744: 124
78f332: 125
7dad14: 127
7dacd1: 137
7dacfc: 148
872f80: 155
825db0: 159
9774c3: 160
78e549: 162
79640e: 178
78e5e8: 178
7937ca: 185
87b869: 187
78d8e1: 187
7d7354: 187
9774bc: 203
977492: 204
64e4ef: 220
793065: 222
78eb31: 228
794c39: 239
7a5cd4: 244
794cd6: 249
793802: 251
977499: 252
7d7382: 253
64b82c: 260
7d55aa: 260
7d597d: 265
796409: 267
793888: 267
848660: 270
7d73a7: 272
793847: 276
64e3d0: 276
78d81b: 282
78e045: 285
78fa8b: 285
7d55d7: 285
78ec46: 286
78d856: 286
7d5947: 289
7d556d: 297
7d59b0: 298
7d73e6: 300
78d883: 315
78d86c: 324
79641c: 379
7de7ae: 385
796417: 416
78d932: 428
78d8aa: 435
7801f0: 443
786816: 448
7867f8: 452
7a58b0: 499
792fd9: 564
78dcf0: 696
79309d: 701
87a86a: 719
78d898: 721
78039a: 756
87da67: 815
878018: 826
872bd4: 832
793026: 916
77e319: 1498
77e3c9: 1512
77e269: 1522
77e1b5: 1523
848668: 1574
77e1b9: 1631
86da8d: 2529
8306df: 5248

RAW hits: 656321
Loads Generated: 40494544
Loads sent to L1D: 39838220
Stores Generated: 13600306
Stores sent to L1D: 13600317
Major fault: 0 Minor fault: 9397
Allocated PAGES: 9397
Total Load insts: 51031873
Total Non-spec loads: 5472355
Percentage of speculative loads: 89.2766
L1D response latency: 48.3656 cycles
Load retirement latency: 89.9424 cycles

CPU 0 L1D PC-based stride prefetcher final stats
Degree: 3

DRAM Statistics
 CHANNEL 0
 RQ ROW_BUFFER_HIT:     234630  ROW_BUFFER_MISS:     440237
 DBUS_CONGESTED:       2390
 WQ ROW_BUFFER_HIT:     100647  ROW_BUFFER_MISS:     227029  FULL:        116

 AVG_CONGESTED_CYCLE: 5
 All warmup complete: 2
Channel 0 Bank busy for read cycles: 0
Channel 0 Bank busy for write cycles: 0
Channel 0
Rank 0
0banks busy for read cycles: 196974475
0banks busy for write cycles: 25251
1banks busy for read cycles: 17288679
1banks busy for write cycles: 3151801
2banks busy for read cycles: 9589646
2banks busy for write cycles: 1738164
3banks busy for read cycles: 3572798
3banks busy for write cycles: 1090603
4banks busy for read cycles: 2505365
4banks busy for write cycles: 866453
5banks busy for read cycles: 1153686
5banks busy for write cycles: 738318
6banks busy for read cycles: 838801
6banks busy for write cycles: 687282
7banks busy for read cycles: 666620
7banks busy for write cycles: 869450
8banks busy for read cycles: 765978
8banks busy for write cycles: 4540229

CPU 0 Branch Prediction Accuracy: 99.215% MPKI: 1.19675 Average ROB Occupancy at Mispredict: 21.9124
Branch types
NOT_BRANCH: 169508340 84.7542%
BRANCH_DIRECT_JUMP: 633395 0.316698%
BRANCH_INDIRECT: 8917 0.0044585%
BRANCH_CONDITIONAL: 28498607 14.2493%
BRANCH_DIRECT_CALL: 675281 0.337641%
BRANCH_INDIRECT_CALL: 0 0%
BRANCH_RETURN: 675281 0.337641%
BRANCH_OTHER: 0 0%

DRAM PAGES: 1048576
Allocated PAGES: 9397
