
*** ChampSim Multicore Out-of-Order Simulator ***

Warmup Instructions: 50000000
Simulation Instructions: 200000000
Number of CPUs: 1
LLC sets: 2048
LLC ways: 16
Secure Berti: OFF
Berti: OFF
Berti Fill: OFF
On commit prefetching: OFF
L2 LLC Bypass speculative loads: OFF
Off-chip DRAM Size: 4096 MB Channels: 1 Width: 64-bit Data Rate: 6400 MT/s
CPU 0 runs /home/sumon/secure_berti/Berti_Baseline/../../traces/spec/649.fotonik3d_s-10881B.champsimtrace.xz
.xz
BTB has LRU replacement policy
ITLB has LRU replacement policy
DTLB has LRU replacement policy
STLB has LRU replacement policy
L1I has LRU replacement policy
CPU 0 L1D IP-based stride prefetcher
L1D has LRU replacement policy
L2C has LRU replacement policy
LLC has LRU replacement policy
Heartbeat CPU 0 instructions: 10000003 cycles: 5061107 heartbeat IPC: 1.97585 cumulative IPC: 1.97585 (Simulation time: 0 hr 0 min 30 sec) 
Heartbeat CPU 0 instructions: 20000000 cycles: 10131573 heartbeat IPC: 1.9722 cumulative IPC: 1.97403 (Simulation time: 0 hr 1 min 1 sec) 
Heartbeat CPU 0 instructions: 30000000 cycles: 15206031 heartbeat IPC: 1.97065 cumulative IPC: 1.9729 (Simulation time: 0 hr 1 min 32 sec) 
Heartbeat CPU 0 instructions: 40000002 cycles: 20276210 heartbeat IPC: 1.97232 cumulative IPC: 1.97276 (Simulation time: 0 hr 2 min 3 sec) 
Heartbeat CPU 0 instructions: 50000002 cycles: 25340592 heartbeat IPC: 1.97457 cumulative IPC: 1.97312 (Simulation time: 0 hr 2 min 35 sec) 

Warmup complete CPU 0 instructions: 50000002 cycles: 25340592 (Simulation time: 0 hr 2 min 35 sec) 

Heartbeat CPU 0 instructions: 60000000 cycles: 46130912 heartbeat IPC: 0.480993 cumulative IPC: 0.480993 (Simulation time: 0 hr 3 min 24 sec) 
Heartbeat CPU 0 instructions: 70000002 cycles: 66984615 heartbeat IPC: 0.479531 cumulative IPC: 0.480261 (Simulation time: 0 hr 4 min 14 sec) 
Heartbeat CPU 0 instructions: 80000003 cycles: 87805730 heartbeat IPC: 0.480282 cumulative IPC: 0.480268 (Simulation time: 0 hr 5 min 8 sec) 
Heartbeat CPU 0 instructions: 90000003 cycles: 108653350 heartbeat IPC: 0.479671 cumulative IPC: 0.480119 (Simulation time: 0 hr 6 min 3 sec) 
Heartbeat CPU 0 instructions: 100000003 cycles: 129436252 heartbeat IPC: 0.481165 cumulative IPC: 0.480327 (Simulation time: 0 hr 6 min 58 sec) 
Heartbeat CPU 0 instructions: 110000000 cycles: 150268551 heartbeat IPC: 0.480024 cumulative IPC: 0.480277 (Simulation time: 0 hr 7 min 53 sec) 
Heartbeat CPU 0 instructions: 120000003 cycles: 171158101 heartbeat IPC: 0.478708 cumulative IPC: 0.480052 (Simulation time: 0 hr 8 min 48 sec) 
Heartbeat CPU 0 instructions: 130000000 cycles: 191906284 heartbeat IPC: 0.48197 cumulative IPC: 0.480291 (Simulation time: 0 hr 9 min 42 sec) 
Heartbeat CPU 0 instructions: 140000002 cycles: 212722359 heartbeat IPC: 0.480398 cumulative IPC: 0.480303 (Simulation time: 0 hr 10 min 31 sec) 
Heartbeat CPU 0 instructions: 150000001 cycles: 233554263 heartbeat IPC: 0.480033 cumulative IPC: 0.480276 (Simulation time: 0 hr 11 min 17 sec) 
Heartbeat CPU 0 instructions: 160000001 cycles: 254369006 heartbeat IPC: 0.480429 cumulative IPC: 0.48029 (Simulation time: 0 hr 12 min 2 sec) 
Heartbeat CPU 0 instructions: 170000003 cycles: 275210924 heartbeat IPC: 0.479802 cumulative IPC: 0.480249 (Simulation time: 0 hr 12 min 45 sec) 
Heartbeat CPU 0 instructions: 180000000 cycles: 296018359 heartbeat IPC: 0.480597 cumulative IPC: 0.480276 (Simulation time: 0 hr 13 min 27 sec) 
Heartbeat CPU 0 instructions: 190000002 cycles: 316879174 heartbeat IPC: 0.479368 cumulative IPC: 0.480211 (Simulation time: 0 hr 14 min 8 sec) 
Heartbeat CPU 0 instructions: 200000002 cycles: 337712697 heartbeat IPC: 0.479996 cumulative IPC: 0.480197 (Simulation time: 0 hr 14 min 50 sec) 
Heartbeat CPU 0 instructions: 210000000 cycles: 358531026 heartbeat IPC: 0.480346 cumulative IPC: 0.480206 (Simulation time: 0 hr 15 min 31 sec) 
Heartbeat CPU 0 instructions: 220000000 cycles: 379330591 heartbeat IPC: 0.480779 cumulative IPC: 0.48024 (Simulation time: 0 hr 16 min 13 sec) 
Heartbeat CPU 0 instructions: 230000001 cycles: 400125900 heartbeat IPC: 0.480878 cumulative IPC: 0.480275 (Simulation time: 0 hr 16 min 54 sec) 
Heartbeat CPU 0 instructions: 240000002 cycles: 420976266 heartbeat IPC: 0.479608 cumulative IPC: 0.48024 (Simulation time: 0 hr 17 min 35 sec) 
Heartbeat CPU 0 instructions: 250000000 cycles: 441806834 heartbeat IPC: 0.480064 cumulative IPC: 0.480231 (Simulation time: 0 hr 18 min 15 sec) 
Finished CPU 0 instructions: 200000002 cycles: 416466243 cumulative IPC: 0.480231 (Simulation time: 0 hr 18 min 15 sec) 

ChampSim completed all CPUs

Region of Interest Statistics

CPU 0 cumulative IPC: 0.480231 instructions: 200000002 cycles: 416466243
ITLB TOTAL     ACCESS:   28568609  HIT:   28568609  MISS:          0  HIT %:        100  MISS %:          0   MPKI: 0
ITLB Test counter:          0
ITLB LOAD TRANSLATION ACCESS:   28568609  HIT:   28568609  MISS:          0  HIT %:        100  MISS %:          0   MPKI: 0
ITLB PREFETCH  REQUESTED:          0  ISSUED:          0  USEFUL:          0  USELESS:          0
ITLB USEFUL LOAD PREFETCHES:          0 PREFETCH ISSUED TO LOWER LEVEL:          0  ACCURACY: -nan
ITLB TIMELY PREFETCHES:          0 LATE PREFETCHES: 0 DROPPED PREFETCHES: 0
ITLB COMMIT LATE PREFETCHES: 0 MISSED OPPORTUNITY: 0 LATE IN PQ: 0 UNCOVERED: 0
ITLB COMMIT LATE MSHR PREFETCHES: 0
ITLB MPKI TOTAL: 0 MSHR LATE: 0 PQ LATE: 0 COMMIT LATE: 0 MISSED OPPORTUNITY: 0 UNCOVERED: 0
ITLB PREFETCHES SAME FILL-ORIGIN LEVEL: 0 DIFFERENT FILL-ORIGIN LEVEL: 0
ITLB AVERAGE MISS LATENCY: -nan cycles
ITLB AVERAGE MISS LATENCY LOAD: -nan cycles
ITLB AVERAGE MISS LATENCY PREFETCH: -nan cycles
ITLB AVERAGE MSHR OCCUPANCY: 0
ITLB MSHR FULL: 0
ITLB RQ	ACCESS:   30035251	FORWARD:          0	MERGED:    1466642	TO_CACHE:   28568609

DTLB TOTAL     ACCESS:   87609439  HIT:   86566763  MISS:    1042676  HIT %:    98.8099  MISS %:    1.19014   MPKI: 5.21338
DTLB Test counter:          0
DTLB LOAD TRANSLATION ACCESS:   87609439  HIT:   86566763  MISS:    1042676  HIT %:    98.8099  MISS %:    1.19014   MPKI: 5.21338
DTLB PREFETCH  REQUESTED:          0  ISSUED:          0  USEFUL:          0  USELESS:          0
DTLB USEFUL LOAD PREFETCHES:          0 PREFETCH ISSUED TO LOWER LEVEL:          0  ACCURACY: -nan
DTLB TIMELY PREFETCHES:          0 LATE PREFETCHES: 0 DROPPED PREFETCHES: 0
DTLB COMMIT LATE PREFETCHES: 0 MISSED OPPORTUNITY: 0 LATE IN PQ: 0 UNCOVERED: 0
DTLB COMMIT LATE MSHR PREFETCHES: 0
DTLB MPKI TOTAL: 0 MSHR LATE: 0 PQ LATE: 0 COMMIT LATE: 0 MISSED OPPORTUNITY: 0 UNCOVERED: 0
DTLB PREFETCHES SAME FILL-ORIGIN LEVEL: 0 DIFFERENT FILL-ORIGIN LEVEL: 0
DTLB AVERAGE MISS LATENCY: 170.609 cycles
DTLB AVERAGE MISS LATENCY LOAD: -nan cycles
DTLB AVERAGE MISS LATENCY PREFETCH: -nan cycles
DTLB AVERAGE MSHR OCCUPANCY: 0.154134
DTLB MSHR FULL: 0.000226479
DTLB RQ	ACCESS:   96978356	FORWARD:          0	MERGED:    9318914	TO_CACHE:   87659442

STLB TOTAL     ACCESS:    2752219  HIT:    2073245  MISS:     678974  HIT %:    75.3299  MISS %:    24.6701   MPKI: 3.39487
STLB Test counter:          0
STLB LOAD TRANSLATION ACCESS:    1042676  HIT:     363742  MISS:     678934  HIT %:    34.8854  MISS %:    65.1146   MPKI: 3.39467
STLB TRANSLATION FROM L1D PREFETCHER ACCESS:    1709543  HIT:    1709503  MISS:         40  HIT %:    99.9977  MISS %: 0.00233981   MPKI: 0.0002
STLB PREFETCH  REQUESTED:          0  ISSUED:          0  USEFUL:         18  USELESS:         22
STLB USEFUL LOAD PREFETCHES:         18 PREFETCH ISSUED TO LOWER LEVEL:          0  ACCURACY: inf
STLB TIMELY PREFETCHES:         18 LATE PREFETCHES: 0 DROPPED PREFETCHES: 0
STLB COMMIT LATE PREFETCHES: 0 MISSED OPPORTUNITY: 0 LATE IN PQ: 0 UNCOVERED: 0
STLB COMMIT LATE MSHR PREFETCHES: 0
STLB MPKI TOTAL: 0 MSHR LATE: 0 PQ LATE: 0 COMMIT LATE: 0 MISSED OPPORTUNITY: 0 UNCOVERED: 0
STLB PREFETCHES SAME FILL-ORIGIN LEVEL: 0 DIFFERENT FILL-ORIGIN LEVEL: 0
STLB AVERAGE MISS LATENCY: 227.32 cycles
STLB AVERAGE MISS LATENCY LOAD: -nan cycles
STLB AVERAGE MISS LATENCY PREFETCH: -nan cycles
STLB AVERAGE MSHR OCCUPANCY: 0.37838
STLB MSHR FULL: 0
STLB RQ	ACCESS:    6082657	FORWARD:          0	MERGED:    3330439	TO_CACHE:    2752218

STLB Hit, L1D data hit: 0
STLB Hit, L2C data hit: 0
STLB Hit, LLC data hit: 0
STLB Hit, LLC data miss: 0
STLB STLB hints to L2: 0
L1D TOTAL     ACCESS:  100751039  HIT:   95712075  MISS:    5038964  HIT %:    94.9986  MISS %:     5.0014   MPKI: 25.1948
L1D Test counter:          0
L1D LOAD      ACCESS:   83104007  HIT:   80099747  MISS:    4055994  HIT %:    96.3849  MISS %:    3.61506   MPKI: 15.0213
L1D RFO       ACCESS:   12822616  HIT:   12822616  MISS:          0  HIT %:        100  MISS %:          0   MPKI: 0
L1D PREFETCH  ACCESS:    4824416  HIT:    2789712  MISS:    2034704  HIT %:    57.8249  MISS %:    42.1751   MPKI: 10.1735
L1D PREFETCH  REQUESTED:   10117914  ISSUED:   10114110  USEFUL:     843783  USELESS:    1190902
L1D USEFUL LOAD PREFETCHES:     843783 PREFETCH ISSUED TO LOWER LEVEL:    2123143  ACCURACY: 39.7422
L1D TIMELY PREFETCHES:     843783 LATE PREFETCHES: 0 DROPPED PREFETCHES: 0
L1D COMMIT LATE PREFETCHES: 0 MISSED OPPORTUNITY: 0 LATE IN PQ: 148 UNCOVERED: 0
L1D COMMIT LATE MSHR PREFETCHES: 0
L1D MPKI TOTAL: 20.28 MSHR LATE: 0 PQ LATE: 0.00074 COMMIT LATE: 0 MISSED OPPORTUNITY: 0 UNCOVERED: 0
L1D PREFETCHES SAME FILL-ORIGIN LEVEL: 2034704 DIFFERENT FILL-ORIGIN LEVEL: 88439
L1D AVERAGE MISS LATENCY: 205.064 cycles
L1D AVERAGE MISS LATENCY LOAD: 196.98 cycles
L1D AVERAGE MISS LATENCY PREFETCH: 217.001 cycles
L1D AVERAGE MSHR OCCUPANCY: 1.97218
L1D MSHR FULL: 1.61605e-06
L1D RQ	ACCESS:  127587251	FORWARD:          0	MERGED:   43379902	TO_CACHE:   84155739
L1D WQ	ACCESS:   12822617	FORWARD:      51610	MERGED:          0	TO_CACHE:   12822617
L1D PQ	ACCESS:    5074129	FORWARD:          0	MERGED:      34148	TO_CACHE:    5039981

L1D UNIQUE REGIONS ACCESSED: 0
L1D REGIONS CONFLICTS: 0
L1D Cross Page Prefetch Requests: 0
L1D Same Page Prefetch Requests: 6332176
L1D ROI Sum of L1D PQ occupancy: 70335515
L1D PREFETCHES PUSHED FROM L2C: 0
455921: 3
455e63: 20
455cbe: 21
455cde: 21
455e78: 21
455931: 163
455c87: 166
4558c0: 166
4559c7: 166
455f20: 166
455f13: 166
455d24: 250
455d39: 332
455ae2: 775
455adc: 790
455d9d: 974
455db2: 1010
455c60: 4156
455d1a: 4625
455dd1: 5726
455c79: 36579
455df7: 151910
455dfd: 212103
455d47: 320490
455de3: 320490
455c73: 380581
455e34: 380582
455cc3: 380583
455c8d: 400612
455d75: 400613
L1I TOTAL     ACCESS:   30035249  HIT:   30035249  MISS:          0  HIT %:        100  MISS %:          0   MPKI: 0
L1I Test counter:          0
L1I LOAD      ACCESS:   30035249  HIT:   30035249  MISS:          0  HIT %:        100  MISS %:          0   MPKI: 0
L1I PREFETCH  REQUESTED:          0  ISSUED:          0  USEFUL:          0  USELESS:          0
L1I USEFUL LOAD PREFETCHES:          0 PREFETCH ISSUED TO LOWER LEVEL:          0  ACCURACY: -nan
L1I TIMELY PREFETCHES:          0 LATE PREFETCHES: 0 DROPPED PREFETCHES: 0
L1I COMMIT LATE PREFETCHES: 0 MISSED OPPORTUNITY: 0 LATE IN PQ: 0 UNCOVERED: 0
L1I COMMIT LATE MSHR PREFETCHES: 0
L1I MPKI TOTAL: 0 MSHR LATE: 0 PQ LATE: 0 COMMIT LATE: 0 MISSED OPPORTUNITY: 0 UNCOVERED: 0
L1I PREFETCHES SAME FILL-ORIGIN LEVEL: 0 DIFFERENT FILL-ORIGIN LEVEL: 0
L1I AVERAGE MISS LATENCY: -nan cycles
L1I AVERAGE MISS LATENCY LOAD: -nan cycles
L1I AVERAGE MISS LATENCY PREFETCH: -nan cycles
L1I AVERAGE MSHR OCCUPANCY: 0
L1I MSHR FULL: 0
L1I RQ	ACCESS:   67039142	FORWARD:          0	MERGED:   37003891	TO_CACHE:   30035251

BTB TOTAL     ACCESS:    2243766  HIT:    2243761  MISS:          5  HIT %:    99.9998  MISS %: 0.00022284   MPKI: 2.5e-05
BTB Test counter:          0
BTB BRANCH_DIRECT_JUMP	ACCESS:     160245  HIT:     160244  MISS:          1
BTB BRANCH_INDIRECT	ACCESS:          0  HIT:          0  MISS:          0
BTB BRANCH_CONDITIONAL	ACCESS:    2083521  HIT:    2083517  MISS:          4
BTB BRANCH_DIRECT_CALL	ACCESS:          0  HIT:          0  MISS:          0
BTB BRANCH_INDIRECT_CALL	ACCESS:          0  HIT:          0  MISS:          0
BTB BRANCH_RETURN	ACCESS:          0  HIT:          0  MISS:          0
BTB BRANCH_OTHER ACCESS:          0  HIT:          0  MISS:          0

L2C TOTAL     ACCESS:    7749267  HIT:    2591806  MISS:    5157461  HIT %:    33.4458  MISS %:    66.5542   MPKI: 25.7873
L2C Test counter:          0
L2C LOAD      ACCESS:    3004260  HIT:       2861  MISS:    3001399  HIT %:  0.0952314  MISS %:    99.9048   MPKI: 15.007
L2C DATA LOAD MPKI: 15.007
L2C INSTRUCTION LOAD MPKI: 0
L2C PREFETCH  ACCESS:    2122831  HIT:      53527  MISS:    2069304  HIT %:    2.52149  MISS %:    97.4785   MPKI: 10.3465
L2C DATA PREFETCH MPKI: 10.3465
L2C INSTRUCTION PREFETCH MPKI: 0
L2C WRITEBACK ACCESS:    1942990  HIT:    1942990  MISS:          0  HIT %:        100  MISS %:          0   MPKI: 0
L2C LOAD TRANSLATION ACCESS:     679146  HIT:     592423  MISS:      86723  HIT %:    87.2306  MISS %:    12.7694   MPKI: 0.433615
L2C TRANSLATION FROM L1D PREFETCHER ACCESS:         40  HIT:          5  MISS:         35  HIT %:       12.5  MISS %:       87.5   MPKI: 0.000175
L2C PREFETCH  REQUESTED:          0  ISSUED:          0  USEFUL:       2896  USELESS:    2066490
L2C USEFUL LOAD PREFETCHES:       2896 PREFETCH ISSUED TO LOWER LEVEL:    2069304  ACCURACY: 0.13995
L2C TIMELY PREFETCHES:       2896 LATE PREFETCHES: 0 DROPPED PREFETCHES: 0
L2C COMMIT LATE PREFETCHES: 0 MISSED OPPORTUNITY: 0 LATE IN PQ: 0 UNCOVERED: 0
L2C COMMIT LATE MSHR PREFETCHES: 0
L2C MPKI TOTAL: 15.007 MSHR LATE: 0 PQ LATE: 0 COMMIT LATE: 0 MISSED OPPORTUNITY: 0 UNCOVERED: 0
L2C PREFETCHES SAME FILL-ORIGIN LEVEL: 84815 DIFFERENT FILL-ORIGIN LEVEL: 0
L2C AVERAGE MISS LATENCY: 184.541 cycles
L2C AVERAGE MISS LATENCY LOAD: 170.67 cycles
L2C AVERAGE MISS LATENCY PREFETCH: 204.35 cycles
L2C AVERAGE MSHR OCCUPANCY: 1.9324
L2C MSHR FULL: 0
L2C RQ	ACCESS:    3683446	FORWARD:          0	MERGED:          0	TO_CACHE:    3683446
L2C WQ	ACCESS:    1942990	FORWARD:          0	MERGED:          0	TO_CACHE:    1942990
L2C PQ	ACCESS:    2123143	FORWARD:          0	MERGED:          0	TO_CACHE:    2123143

L2C Instructions Evicting Data 0
L2C Translations Evicting Data 85520
L2C Data Evicting Data 4985201
L2C Instructions Evicting Instructions 0
L2C Translations Evicting Instructions 0
L2C Data Evicting Instructions 0
L2C Instructions Evicting Translations 0
L2C Translations Evicting Translations 1238
L2C Data Evicting Translations 85502
L2C Dense regions hint from L2: 0
455921: 3
455e63: 20
455cbe: 21
455cde: 21
455e78: 21
455931: 163
455c87: 166
4558c0: 166
4559c7: 166
455f20: 166
455f13: 166
455d24: 250
455d39: 332
455adc: 664
455ae2: 664
455d9d: 830
455db2: 830
455d1a: 4069
455c60: 4069
455dd1: 4069
455c79: 36579
455df7: 151910
455dfd: 212103
455d47: 320490
455de3: 320490
455c73: 380581
455e34: 380582
455cc3: 380583
455c8d: 400612
455d75: 400613
PSCL5 TOTAL     ACCESS:     678974  HIT:     678974  MISS:          0  HIT %:        100  MISS %:          0   MPKI: 0
PSCL5 Test counter:          0
PSCL5 LOAD TRANSLATION ACCESS:     678934  HIT:     678934  MISS:          0  HIT %:        100  MISS %:          0   MPKI: 0
PSCL5 TRANSLATION FROM L1D PREFETCHER ACCESS:         40  HIT:         40  MISS:          0  HIT %:        100  MISS %:          0   MPKI: 0
PSCL5 PREFETCH  REQUESTED:          0  ISSUED:          0  USEFUL:          0  USELESS:          0
PSCL5 USEFUL LOAD PREFETCHES:          0 PREFETCH ISSUED TO LOWER LEVEL:          0  ACCURACY: -nan
PSCL5 TIMELY PREFETCHES:          0 LATE PREFETCHES: 0 DROPPED PREFETCHES: 0
PSCL5 COMMIT LATE PREFETCHES: 0 MISSED OPPORTUNITY: 0 LATE IN PQ: 0 UNCOVERED: 0
PSCL5 COMMIT LATE MSHR PREFETCHES: 0
PSCL5 MPKI TOTAL: 0 MSHR LATE: 0 PQ LATE: 0 COMMIT LATE: 0 MISSED OPPORTUNITY: 0 UNCOVERED: 0
PSCL5 PREFETCHES SAME FILL-ORIGIN LEVEL: 0 DIFFERENT FILL-ORIGIN LEVEL: 0

PSCL4 TOTAL     ACCESS:     678974  HIT:     678974  MISS:          0  HIT %:        100  MISS %:          0   MPKI: 0
PSCL4 Test counter:          0
PSCL4 LOAD TRANSLATION ACCESS:     678934  HIT:     678934  MISS:          0  HIT %:        100  MISS %:          0   MPKI: 0
PSCL4 TRANSLATION FROM L1D PREFETCHER ACCESS:         40  HIT:         40  MISS:          0  HIT %:        100  MISS %:          0   MPKI: 0
PSCL4 PREFETCH  REQUESTED:          0  ISSUED:          0  USEFUL:          0  USELESS:          0
PSCL4 USEFUL LOAD PREFETCHES:          0 PREFETCH ISSUED TO LOWER LEVEL:          0  ACCURACY: -nan
PSCL4 TIMELY PREFETCHES:          0 LATE PREFETCHES: 0 DROPPED PREFETCHES: 0
PSCL4 COMMIT LATE PREFETCHES: 0 MISSED OPPORTUNITY: 0 LATE IN PQ: 0 UNCOVERED: 0
PSCL4 COMMIT LATE MSHR PREFETCHES: 0
PSCL4 MPKI TOTAL: 0 MSHR LATE: 0 PQ LATE: 0 COMMIT LATE: 0 MISSED OPPORTUNITY: 0 UNCOVERED: 0
PSCL4 PREFETCHES SAME FILL-ORIGIN LEVEL: 0 DIFFERENT FILL-ORIGIN LEVEL: 0

PSCL3 TOTAL     ACCESS:     678974  HIT:     678974  MISS:          0  HIT %:        100  MISS %:          0   MPKI: 0
PSCL3 Test counter:          0
PSCL3 LOAD TRANSLATION ACCESS:     678934  HIT:     678934  MISS:          0  HIT %:        100  MISS %:          0   MPKI: 0
PSCL3 TRANSLATION FROM L1D PREFETCHER ACCESS:         40  HIT:         40  MISS:          0  HIT %:        100  MISS %:          0   MPKI: 0
PSCL3 PREFETCH  REQUESTED:          0  ISSUED:          0  USEFUL:          0  USELESS:          0
PSCL3 USEFUL LOAD PREFETCHES:          0 PREFETCH ISSUED TO LOWER LEVEL:          0  ACCURACY: -nan
PSCL3 TIMELY PREFETCHES:          0 LATE PREFETCHES: 0 DROPPED PREFETCHES: 0
PSCL3 COMMIT LATE PREFETCHES: 0 MISSED OPPORTUNITY: 0 LATE IN PQ: 0 UNCOVERED: 0
PSCL3 COMMIT LATE MSHR PREFETCHES: 0
PSCL3 MPKI TOTAL: 0 MSHR LATE: 0 PQ LATE: 0 COMMIT LATE: 0 MISSED OPPORTUNITY: 0 UNCOVERED: 0
PSCL3 PREFETCHES SAME FILL-ORIGIN LEVEL: 0 DIFFERENT FILL-ORIGIN LEVEL: 0

PSCL2 TOTAL     ACCESS:     678974  HIT:     677764  MISS:       1210  HIT %:    99.8218  MISS %:    0.17821   MPKI: 0.00605
PSCL2 Test counter:          0
PSCL2 LOAD TRANSLATION ACCESS:     678934  HIT:     677724  MISS:       1210  HIT %:    99.8218  MISS %:   0.178221   MPKI: 0.00605
PSCL2 TRANSLATION FROM L1D PREFETCHER ACCESS:         40  HIT:         40  MISS:          0  HIT %:        100  MISS %:          0   MPKI: 0
PSCL2 PREFETCH  REQUESTED:          0  ISSUED:          0  USEFUL:          0  USELESS:          0
PSCL2 USEFUL LOAD PREFETCHES:          0 PREFETCH ISSUED TO LOWER LEVEL:          0  ACCURACY: -nan
PSCL2 TIMELY PREFETCHES:          0 LATE PREFETCHES: 0 DROPPED PREFETCHES: 0
PSCL2 COMMIT LATE PREFETCHES: 0 MISSED OPPORTUNITY: 0 LATE IN PQ: 0 UNCOVERED: 0
PSCL2 COMMIT LATE MSHR PREFETCHES: 0
PSCL2 MPKI TOTAL: 0 MSHR LATE: 0 PQ LATE: 0 COMMIT LATE: 0 MISSED OPPORTUNITY: 0 UNCOVERED: 0
PSCL2 PREFETCHES SAME FILL-ORIGIN LEVEL: 0 DIFFERENT FILL-ORIGIN LEVEL: 0

LLC TOTAL     ACCESS:    7100469  HIT:    2501037  MISS:    4599432  HIT %:    35.2235  MISS %:    64.7765   MPKI: 22.9972
LLC Test counter:          0
LLC LOAD      ACCESS:    3001399  HIT:     402467  MISS:    2598932  HIT %:    13.4093  MISS %:    86.5907   MPKI: 12.9947
LLC PREFETCH  ACCESS:    2069304  HIT:     142827  MISS:    1926477  HIT %:    6.90218  MISS %:    93.0978   MPKI: 9.63238
LLC WRITEBACK ACCESS:    1943008  HIT:    1943008  MISS:          0  HIT %:        100  MISS %:          0   MPKI: 0
LLC LOAD TRANSLATION ACCESS:      86723  HIT:      12701  MISS:      74022  HIT %:    14.6455  MISS %:    85.3545   MPKI: 0.37011
LLC TRANSLATION FROM L1D PREFETCHER ACCESS:         35  HIT:         34  MISS:          1  HIT %:    97.1429  MISS %:    2.85714   MPKI: 5e-06
LLC PREFETCH  REQUESTED:          0  ISSUED:          0  USEFUL:          1  USELESS:    1926505
LLC USEFUL LOAD PREFETCHES:          1 PREFETCH ISSUED TO LOWER LEVEL:    1926477  ACCURACY: 5.19082e-05
LLC TIMELY PREFETCHES:          1 LATE PREFETCHES: 0 DROPPED PREFETCHES: 0
LLC COMMIT LATE PREFETCHES: 0 MISSED OPPORTUNITY: 0 LATE IN PQ: 0 UNCOVERED: 0
LLC COMMIT LATE MSHR PREFETCHES: 0
LLC MPKI TOTAL: 12.9947 MSHR LATE: 0 PQ LATE: 0 COMMIT LATE: 0 MISSED OPPORTUNITY: 0 UNCOVERED: 0
LLC PREFETCHES SAME FILL-ORIGIN LEVEL: 0 DIFFERENT FILL-ORIGIN LEVEL: 0
LLC AVERAGE MISS LATENCY: 167.769 cycles
LLC AVERAGE MISS LATENCY LOAD: 155.564 cycles
LLC AVERAGE MISS LATENCY PREFETCH: 183.389 cycles
LLC AVERAGE MSHR OCCUPANCY: 1.65104
LLC MSHR FULL: 0
LLC RQ	ACCESS:    3088157	FORWARD:          0	MERGED:          0	TO_CACHE:    3088157
LLC WQ	ACCESS:    1943008	FORWARD:          0	MERGED:          0	TO_CACHE:    1943008
LLC PQ	ACCESS:    2069304	FORWARD:          0	MERGED:          0	TO_CACHE:    2069304

LLC Dense regions hint to LLC: 0
455921: 1
455e63: 20
455cbe: 21
455e78: 21
455cde: 21
455931: 82
4558c0: 87
455f13: 91
455f20: 97
4559c7: 98
455ae2: 133
455d39: 147
455c87: 166
455adc: 215
455d24: 250
455d9d: 274
455db2: 275
455c60: 4069
455dd1: 4069
455d1a: 4069
455c79: 16479
455df7: 64626
455dfd: 100528
455de3: 139632
455d47: 320490
455c73: 380581
455e34: 380582
455cc3: 380583
455c8d: 400612
455d75: 400613

RAW hits: 454260
Loads Generated: 128041519
Loads sent to L1D: 127587251
Stores Generated: 12822620
Stores sent to L1D: 12822617
Major fault: 0 Minor fault: 641201
Allocated PAGES: 641201
Total Load insts: 159450887
Total Non-spec loads: 7171649
Percentage of speculative loads: 95.5023
L1D response latency: 196.98 cycles
Load retirement latency: 390.493 cycles

CPU 0 L1D PC-based stride prefetcher final stats
Degree: 3

DRAM Statistics
 CHANNEL 0
 RQ ROW_BUFFER_HIT:    1573457  ROW_BUFFER_MISS:    3025975
 DBUS_CONGESTED:       5366
 WQ ROW_BUFFER_HIT:     508114  ROW_BUFFER_MISS:    1434814  FULL:          0

 AVG_CONGESTED_CYCLE: 4
 All warmup complete: 2
Channel 0 Bank busy for read cycles: 0
Channel 0 Bank busy for write cycles: 0
Channel 0
Rank 0
0banks busy for read cycles: 21522903
0banks busy for write cycles: 231735
1banks busy for read cycles: 121288963
1banks busy for write cycles: 31332214
2banks busy for read cycles: 62784429
2banks busy for write cycles: 32355026
3banks busy for read cycles: 32719969
3banks busy for write cycles: 27984000
4banks busy for read cycles: 26048545
4banks busy for write cycles: 20640290
5banks busy for read cycles: 8760145
5banks busy for write cycles: 13357034
6banks busy for read cycles: 3536758
6banks busy for write cycles: 7392477
7banks busy for read cycles: 1789889
7banks busy for write cycles: 3154601
8banks busy for read cycles: 731027
8banks busy for write cycles: 836239

CPU 0 Branch Prediction Accuracy: 99.9931% MPKI: 0.00083 Average ROB Occupancy at Mispredict: 340.301
Branch types
NOT_BRANCH: 197595958 98.798%
BRANCH_DIRECT_JUMP: 160245 0.0801225%
BRANCH_INDIRECT: 0 0%
BRANCH_CONDITIONAL: 2243766 1.12188%
BRANCH_DIRECT_CALL: 0 0%
BRANCH_INDIRECT_CALL: 0 0%
BRANCH_RETURN: 0 0%
BRANCH_OTHER: 0 0%

DRAM PAGES: 1048576
Allocated PAGES: 641201
