
*** ChampSim Multicore Out-of-Order Simulator ***

Warmup Instructions: 50000000
Simulation Instructions: 200000000
Number of CPUs: 1
LLC sets: 2048
LLC ways: 16
Secure Berti: OFF
Berti: OFF
Berti Fill: OFF
On commit prefetching: OFF
L2 LLC Bypass speculative loads: OFF
Off-chip DRAM Size: 4096 MB Channels: 1 Width: 64-bit Data Rate: 6400 MT/s
CPU 0 runs /home/sumon/secure_berti/Berti_Baseline/../../traces/spec/654.roms_s-1007B.champsimtrace.xz
.xz
BTB has LRU replacement policy
ITLB has LRU replacement policy
DTLB has LRU replacement policy
STLB has LRU replacement policy
L1I has LRU replacement policy
CPU 0 L1D IP-based stride prefetcher
L1D has LRU replacement policy
L2C has LRU replacement policy
LLC has LRU replacement policy
Heartbeat CPU 0 instructions: 10000000 cycles: 3016008 heartbeat IPC: 3.31564 cumulative IPC: 3.31564 (Simulation time: 0 hr 0 min 19 sec) 
Heartbeat CPU 0 instructions: 20000002 cycles: 6031792 heartbeat IPC: 3.31589 cumulative IPC: 3.31576 (Simulation time: 0 hr 0 min 37 sec) 
Heartbeat CPU 0 instructions: 30000000 cycles: 9047669 heartbeat IPC: 3.31578 cumulative IPC: 3.31577 (Simulation time: 0 hr 0 min 55 sec) 
Heartbeat CPU 0 instructions: 40000000 cycles: 12063511 heartbeat IPC: 3.31582 cumulative IPC: 3.31578 (Simulation time: 0 hr 1 min 13 sec) 
Heartbeat CPU 0 instructions: 50000003 cycles: 15186739 heartbeat IPC: 3.20182 cumulative IPC: 3.29235 (Simulation time: 0 hr 1 min 32 sec) 

Warmup complete CPU 0 instructions: 50000003 cycles: 15186739 (Simulation time: 0 hr 1 min 32 sec) 

Heartbeat CPU 0 instructions: 60000002 cycles: 32954020 heartbeat IPC: 0.562832 cumulative IPC: 0.562832 (Simulation time: 0 hr 1 min 58 sec) 
Heartbeat CPU 0 instructions: 70000000 cycles: 52451713 heartbeat IPC: 0.512881 cumulative IPC: 0.536697 (Simulation time: 0 hr 2 min 23 sec) 
Heartbeat CPU 0 instructions: 80000000 cycles: 71940382 heartbeat IPC: 0.513119 cumulative IPC: 0.5286 (Simulation time: 0 hr 2 min 48 sec) 
Heartbeat CPU 0 instructions: 90000000 cycles: 91423657 heartbeat IPC: 0.513261 cumulative IPC: 0.52468 (Simulation time: 0 hr 3 min 13 sec) 
Heartbeat CPU 0 instructions: 100000000 cycles: 110900744 heartbeat IPC: 0.513424 cumulative IPC: 0.52239 (Simulation time: 0 hr 3 min 38 sec) 
Heartbeat CPU 0 instructions: 110000000 cycles: 130383142 heartbeat IPC: 0.513284 cumulative IPC: 0.52085 (Simulation time: 0 hr 4 min 3 sec) 
Heartbeat CPU 0 instructions: 120000001 cycles: 148060190 heartbeat IPC: 0.565705 cumulative IPC: 0.526817 (Simulation time: 0 hr 4 min 29 sec) 
Heartbeat CPU 0 instructions: 130000002 cycles: 163458187 heartbeat IPC: 0.649435 cumulative IPC: 0.539551 (Simulation time: 0 hr 4 min 57 sec) 
Heartbeat CPU 0 instructions: 140000000 cycles: 182943146 heartbeat IPC: 0.513216 cumulative IPC: 0.536492 (Simulation time: 0 hr 5 min 22 sec) 
Heartbeat CPU 0 instructions: 150000000 cycles: 202431005 heartbeat IPC: 0.51314 cumulative IPC: 0.534062 (Simulation time: 0 hr 5 min 47 sec) 
Heartbeat CPU 0 instructions: 160000001 cycles: 221914750 heartbeat IPC: 0.513248 cumulative IPC: 0.5321 (Simulation time: 0 hr 6 min 12 sec) 
Heartbeat CPU 0 instructions: 170000000 cycles: 241392435 heartbeat IPC: 0.513408 cumulative IPC: 0.530491 (Simulation time: 0 hr 6 min 38 sec) 
Heartbeat CPU 0 instructions: 180000002 cycles: 260874076 heartbeat IPC: 0.513304 cumulative IPC: 0.529128 (Simulation time: 0 hr 7 min 5 sec) 
Heartbeat CPU 0 instructions: 190000002 cycles: 280356408 heartbeat IPC: 0.513286 cumulative IPC: 0.527964 (Simulation time: 0 hr 7 min 31 sec) 
Heartbeat CPU 0 instructions: 200000001 cycles: 293740700 heartbeat IPC: 0.747144 cumulative IPC: 0.538495 (Simulation time: 0 hr 7 min 59 sec) 
Heartbeat CPU 0 instructions: 210000001 cycles: 312943611 heartbeat IPC: 0.520754 cumulative IPC: 0.537351 (Simulation time: 0 hr 8 min 26 sec) 
Heartbeat CPU 0 instructions: 220000000 cycles: 332426292 heartbeat IPC: 0.513276 cumulative IPC: 0.535873 (Simulation time: 0 hr 8 min 52 sec) 
Heartbeat CPU 0 instructions: 230000000 cycles: 351911349 heartbeat IPC: 0.513214 cumulative IPC: 0.534561 (Simulation time: 0 hr 9 min 18 sec) 
Heartbeat CPU 0 instructions: 240000001 cycles: 371394865 heartbeat IPC: 0.513254 cumulative IPC: 0.533396 (Simulation time: 0 hr 9 min 43 sec) 
Heartbeat CPU 0 instructions: 250000003 cycles: 390872027 heartbeat IPC: 0.513422 cumulative IPC: 0.53236 (Simulation time: 0 hr 10 min 9 sec) 
Finished CPU 0 instructions: 200000000 cycles: 375685288 cumulative IPC: 0.53236 (Simulation time: 0 hr 10 min 9 sec) 

ChampSim completed all CPUs

Region of Interest Statistics

CPU 0 cumulative IPC: 0.53236 instructions: 200000000 cycles: 375685288
ITLB TOTAL     ACCESS:   33771010  HIT:   33771008  MISS:          2  HIT %:        100  MISS %: 5.92224e-06   MPKI: 1e-05
ITLB Test counter:          0
ITLB LOAD TRANSLATION ACCESS:   33771010  HIT:   33771008  MISS:          2  HIT %:        100  MISS %: 5.92224e-06   MPKI: 1e-05
ITLB PREFETCH  REQUESTED:          0  ISSUED:          0  USEFUL:          0  USELESS:          0
ITLB USEFUL LOAD PREFETCHES:          0 PREFETCH ISSUED TO LOWER LEVEL:          0  ACCURACY: -nan
ITLB TIMELY PREFETCHES:          0 LATE PREFETCHES: 0 DROPPED PREFETCHES: 0
ITLB COMMIT LATE PREFETCHES: 0 MISSED OPPORTUNITY: 0 LATE IN PQ: 0 UNCOVERED: 0
ITLB COMMIT LATE MSHR PREFETCHES: 0
ITLB MPKI TOTAL: 0 MSHR LATE: 0 PQ LATE: 0 COMMIT LATE: 0 MISSED OPPORTUNITY: 0 UNCOVERED: 0
ITLB PREFETCHES SAME FILL-ORIGIN LEVEL: 0 DIFFERENT FILL-ORIGIN LEVEL: 0
ITLB AVERAGE MISS LATENCY: 325.5 cycles
ITLB AVERAGE MISS LATENCY LOAD: -nan cycles
ITLB AVERAGE MISS LATENCY PREFETCH: -nan cycles
ITLB AVERAGE MSHR OCCUPANCY: 0
ITLB MSHR FULL: 0
ITLB RQ	ACCESS:   42922402	FORWARD:          0	MERGED:    9151393	TO_CACHE:   33771009

DTLB TOTAL     ACCESS:   56649373  HIT:   56619176  MISS:      30197  HIT %:    99.9467  MISS %:  0.0533051   MPKI: 0.150985
DTLB Test counter:          0
DTLB LOAD TRANSLATION ACCESS:   56649373  HIT:   56619176  MISS:      30197  HIT %:    99.9467  MISS %:  0.0533051   MPKI: 0.150985
DTLB PREFETCH  REQUESTED:          0  ISSUED:          0  USEFUL:          0  USELESS:          0
DTLB USEFUL LOAD PREFETCHES:          0 PREFETCH ISSUED TO LOWER LEVEL:          0  ACCURACY: -nan
DTLB TIMELY PREFETCHES:          0 LATE PREFETCHES: 0 DROPPED PREFETCHES: 0
DTLB COMMIT LATE PREFETCHES: 0 MISSED OPPORTUNITY: 0 LATE IN PQ: 0 UNCOVERED: 0
DTLB COMMIT LATE MSHR PREFETCHES: 0
DTLB MPKI TOTAL: 0 MSHR LATE: 0 PQ LATE: 0 COMMIT LATE: 0 MISSED OPPORTUNITY: 0 UNCOVERED: 0
DTLB PREFETCHES SAME FILL-ORIGIN LEVEL: 0 DIFFERENT FILL-ORIGIN LEVEL: 0
DTLB AVERAGE MISS LATENCY: 149.653 cycles
DTLB AVERAGE MISS LATENCY LOAD: -nan cycles
DTLB AVERAGE MISS LATENCY PREFETCH: -nan cycles
DTLB AVERAGE MSHR OCCUPANCY: 0.0052804
DTLB MSHR FULL: 0
DTLB RQ	ACCESS:   63858808	FORWARD:          0	MERGED:    7179760	TO_CACHE:   56679048

STLB TOTAL     ACCESS:    1041171  HIT:    1012029  MISS:      29142  HIT %:     97.201  MISS %:    2.79896   MPKI: 0.14571
STLB Test counter:          0
STLB LOAD TRANSLATION ACCESS:      30199  HIT:       1057  MISS:      29142  HIT %:    3.50012  MISS %:    96.4999   MPKI: 0.14571
STLB TRANSLATION FROM L1D PREFETCHER ACCESS:    1010972  HIT:    1010972  MISS:          0  HIT %:        100  MISS %:          0   MPKI: 0
STLB PREFETCH  REQUESTED:          0  ISSUED:          0  USEFUL:          0  USELESS:          0
STLB USEFUL LOAD PREFETCHES:          0 PREFETCH ISSUED TO LOWER LEVEL:          0  ACCURACY: -nan
STLB TIMELY PREFETCHES:          0 LATE PREFETCHES: 0 DROPPED PREFETCHES: 0
STLB COMMIT LATE PREFETCHES: 0 MISSED OPPORTUNITY: 0 LATE IN PQ: 0 UNCOVERED: 0
STLB COMMIT LATE MSHR PREFETCHES: 0
STLB MPKI TOTAL: 0 MSHR LATE: 0 PQ LATE: 0 COMMIT LATE: 0 MISSED OPPORTUNITY: 0 UNCOVERED: 0
STLB PREFETCHES SAME FILL-ORIGIN LEVEL: 0 DIFFERENT FILL-ORIGIN LEVEL: 0
STLB AVERAGE MISS LATENCY: 145.576 cycles
STLB AVERAGE MISS LATENCY LOAD: -nan cycles
STLB AVERAGE MISS LATENCY PREFETCH: -nan cycles
STLB AVERAGE MSHR OCCUPANCY: 0.0252975
STLB MSHR FULL: 0
STLB RQ	ACCESS:    2975977	FORWARD:          0	MERGED:    1934807	TO_CACHE:    1041170

STLB Hit, L1D data hit: 0
STLB Hit, L2C data hit: 0
STLB Hit, LLC data hit: 0
STLB Hit, LLC data miss: 0
STLB STLB hints to L2: 0
L1D TOTAL     ACCESS:   63730762  HIT:   62501405  MISS:    1229357  HIT %:     98.071  MISS %:    1.92899   MPKI: 6.14679
L1D Test counter:          0
L1D LOAD      ACCESS:   40092800  HIT:   39861022  MISS:     393943  HIT %:    99.4219  MISS %:   0.578104   MPKI: 1.15889
L1D RFO       ACCESS:   21651909  HIT:   21233526  MISS:     418383  HIT %:    98.0677  MISS %:    1.93231   MPKI: 2.09192
L1D PREFETCH  ACCESS:    1986053  HIT:    1406857  MISS:     579196  HIT %:    70.8368  MISS %:    29.1632   MPKI: 2.89598
L1D PREFETCH  REQUESTED:    5953287  ISSUED:    5953280  USEFUL:     559736  USELESS:      19474
L1D USEFUL LOAD PREFETCHES:     559736 PREFETCH ISSUED TO LOWER LEVEL:    1195706  ACCURACY: 46.8122
L1D TIMELY PREFETCHES:     559736 LATE PREFETCHES: 79935 DROPPED PREFETCHES: 0
L1D COMMIT LATE PREFETCHES: 0 MISSED OPPORTUNITY: 0 LATE IN PQ: 5978 UNCOVERED: 0
L1D COMMIT LATE MSHR PREFETCHES: 0
L1D MPKI TOTAL: 1.96972 MSHR LATE: 0.399675 PQ LATE: 0.02989 COMMIT LATE: 0 MISSED OPPORTUNITY: 0 UNCOVERED: 0
L1D PREFETCHES SAME FILL-ORIGIN LEVEL: 659131 DIFFERENT FILL-ORIGIN LEVEL: 536575
L1D AVERAGE MISS LATENCY: 224.561 cycles
L1D AVERAGE MISS LATENCY LOAD: 65.3851 cycles
L1D AVERAGE MISS LATENCY PREFETCH: 232.038 cycles
L1D AVERAGE MSHR OCCUPANCY: 1.0532
L1D MSHR FULL: 0.000349341
L1D RQ	ACCESS:   48640981	FORWARD:          0	MERGED:    8355143	TO_CACHE:   40254959
L1D WQ	ACCESS:   25053030	FORWARD:      30879	MERGED:    1449181	TO_CACHE:   23603849
L1D PQ	ACCESS:    3007502	FORWARD:          0	MERGED:      61724	TO_CACHE:    2945778

L1D UNIQUE REGIONS ACCESSED: 0
L1D REGIONS CONFLICTS: 0
L1D Cross Page Prefetch Requests: 0
L1D Same Page Prefetch Requests: 3715958
L1D ROI Sum of L1D PQ occupancy: 40385416
L1D PREFETCHES PUSHED FROM L2C: 0
43f565: 1
55fd60: 1
44525a: 1
55fa11: 1
43f555: 1
43f4b0: 1
43f43a: 2
43f4e7: 2
55fefd: 2
43f444: 2
43f42a: 2
445253: 2
55f9ff: 2
55fa3a: 2
563540: 2
43f432: 2
55f8fb: 2
43f3ff: 2
55fd49: 2
43f3ae: 2
43f39f: 2
43f395: 2
43f41a: 2
445266: 3
562f09: 3
44521b: 3
44523f: 3
4452bb: 3
44527a: 3
43f275: 3
4453a8: 3
4453b5: 3
4453e6: 3
44549f: 3
4453f8: 3
445407: 3
43f388: 3
4003f0: 3
5354dd: 3
445182: 3
53550e: 3
562ef4: 3
4451ec: 3
560dae: 3
561419: 3
561271: 3
5612f0: 3
43f2a5: 3
5612f8: 3
445218: 3
44539f: 3
560fbe: 3
43f31f: 3
562ee0: 3
562ec9: 3
50901a: 3
43f250: 3
5354e5: 3
43f32c: 3
43f6a6: 3
43f6cd: 3
43f2a2: 3
44529b: 3
43f27d: 3
43f5d5: 4
53556e: 5
43f5b2: 10
43f490: 16
535599: 17
43f58c: 19
43f5c5: 21
43f5ed: 21
43f576: 22
535584: 49
5355a2: 74
445440: 1440
4453e0: 4971
43f4d9: 7659
43f52f: 7741
43f509: 15303
43f510: 18920
43f4e2: 33120
43f4d4: 40885
43f2d5: 47709
43f2d0: 53609
L1I TOTAL     ACCESS:   42922390  HIT:   42922354  MISS:         36  HIT %:    99.9999  MISS %: 8.38723e-05   MPKI: 0.00018
L1I Test counter:          0
L1I LOAD      ACCESS:   42922390  HIT:   42922354  MISS:         47  HIT %:    99.9999  MISS %: 8.38723e-05   MPKI: 0.00018
L1I PREFETCH  REQUESTED:          0  ISSUED:          0  USEFUL:          0  USELESS:          0
L1I USEFUL LOAD PREFETCHES:          0 PREFETCH ISSUED TO LOWER LEVEL:          0  ACCURACY: -nan
L1I TIMELY PREFETCHES:          0 LATE PREFETCHES: 0 DROPPED PREFETCHES: 0
L1I COMMIT LATE PREFETCHES: 0 MISSED OPPORTUNITY: 0 LATE IN PQ: 0 UNCOVERED: 0
L1I COMMIT LATE MSHR PREFETCHES: 0
L1I MPKI TOTAL: 0.000235 MSHR LATE: 0 PQ LATE: 0 COMMIT LATE: 0 MISSED OPPORTUNITY: 0 UNCOVERED: 0
L1I PREFETCHES SAME FILL-ORIGIN LEVEL: 0 DIFFERENT FILL-ORIGIN LEVEL: 0
L1I AVERAGE MISS LATENCY: 229.25 cycles
L1I AVERAGE MISS LATENCY LOAD: 229.25 cycles
L1I AVERAGE MISS LATENCY PREFETCH: -nan cycles
L1I AVERAGE MSHR OCCUPANCY: 6.98936e-07
L1I MSHR FULL: 0
L1I RQ	ACCESS:   56449880	FORWARD:          0	MERGED:   13527478	TO_CACHE:   42922402

4452c2: 1
43f603: 1
43f68b: 1
561904: 1
43f2c5: 1
445282: 1
43f240: 1
445343: 1
43f301: 1
562ec0: 1
445150: 1
445182: 1
560e29: 1
560d70: 1
4451c2: 1
43f341: 1
560d81: 1
562f09: 1
560fc2: 1
445206: 1
445302: 1
562f41: 1
5618f8: 1
56124f: 1
560fbe: 1
5612f0: 1
561281: 1
445247: 1
560f44: 1
560f02: 1
560ec0: 1
560ea8: 1
43f285: 1
56140f: 1
43f6c6: 1
561300: 1
BTB TOTAL     ACCESS:   12980512  HIT:   11531272  MISS:    1449240  HIT %:    88.8353  MISS %:    11.1647   MPKI: 7.2462
BTB Test counter:          0
BTB BRANCH_DIRECT_JUMP	ACCESS:    1449216  HIT:    1449208  MISS:          8
BTB BRANCH_INDIRECT	ACCESS:          0  HIT:          0  MISS:          0
BTB BRANCH_CONDITIONAL	ACCESS:    5734548  HIT:    5734517  MISS:         31
BTB BRANCH_DIRECT_CALL	ACCESS:    2898375  HIT:    2898365  MISS:         10
BTB BRANCH_INDIRECT_CALL	ACCESS:          0  HIT:          0  MISS:          0
BTB BRANCH_RETURN	ACCESS:    2898373  HIT:    1449182  MISS:    1449191
BTB BRANCH_OTHER ACCESS:          0  HIT:          0  MISS:          0

L2C TOTAL     ACCESS:    1962844  HIT:     723298  MISS:    1239546  HIT %:    36.8495  MISS %:    63.1505   MPKI: 6.19773
L2C Test counter:          0
L2C LOAD      ACCESS:     151878  HIT:      97997  MISS:      53881  HIT %:    64.5235  MISS %:    35.4765   MPKI: 0.269405
L2C DATA LOAD MPKI: 0.269225
L2C INSTRUCTION LOAD MPKI: 0.00018
L2C RFO       ACCESS:     418383  HIT:          0  MISS:     418383  HIT %:          0  MISS %:        100   MPKI: 2.09192
L2C PREFETCH  ACCESS:     945085  HIT:     184394  MISS:     760691  HIT %:    19.5108  MISS %:    80.4892   MPKI: 3.80346
L2C DATA PREFETCH MPKI: 3.80346
L2C INSTRUCTION PREFETCH MPKI: 0
L2C WRITEBACK ACCESS:     418260  HIT:     417829  MISS:        431  HIT %:     99.897  MISS %:   0.103046   MPKI: 0.002155
L2C LOAD TRANSLATION ACCESS:      29238  HIT:      23078  MISS:       6160  HIT %:    78.9315  MISS %:    21.0685   MPKI: 0.0308
L2C PREFETCH  REQUESTED:          0  ISSUED:          0  USEFUL:      97934  USELESS:     663945
L2C USEFUL LOAD PREFETCHES:      97934 PREFETCH ISSUED TO LOWER LEVEL:     773445  ACCURACY: 12.6621
L2C TIMELY PREFETCHES:      97934 LATE PREFETCHES: 12754 DROPPED PREFETCHES: 0
L2C COMMIT LATE PREFETCHES: 0 MISSED OPPORTUNITY: 0 LATE IN PQ: 0 UNCOVERED: 0
L2C COMMIT LATE MSHR PREFETCHES: 0
L2C MPKI TOTAL: 0.269405 MSHR LATE: 0.06377 PQ LATE: 0 COMMIT LATE: 0 MISSED OPPORTUNITY: 0 UNCOVERED: 0
L2C PREFETCHES SAME FILL-ORIGIN LEVEL: 296590 DIFFERENT FILL-ORIGIN LEVEL: 0
L2C AVERAGE MISS LATENCY: 310.993 cycles
L2C AVERAGE MISS LATENCY LOAD: 239.784 cycles
L2C AVERAGE MISS LATENCY PREFETCH: 329.52 cycles
L2C AVERAGE MSHR OCCUPANCY: 7.46355
L2C MSHR FULL: 0
L2C RQ	ACCESS:     599500	FORWARD:          0	MERGED:          0	TO_CACHE:     599499
L2C WQ	ACCESS:     418260	FORWARD:          1	MERGED:          0	TO_CACHE:     418260
L2C PQ	ACCESS:    1195706	FORWARD:          0	MERGED:          0	TO_CACHE:    1195706

L2C Instructions Evicting Data 36
L2C Translations Evicting Data 6145
L2C Data Evicting Data 1226726
L2C Instructions Evicting Instructions 0
L2C Translations Evicting Instructions 0
L2C Data Evicting Instructions 36
L2C Instructions Evicting Translations 0
L2C Translations Evicting Translations 15
L2C Data Evicting Translations 6157
L2C Dense regions hint from L2: 0
43f555: 1
445206: 1
43f240: 1
43f6c6: 1
43f2c5: 1
55fa11: 1
560ea8: 1
562ec0: 1
43f68b: 1
43f603: 1
55fd60: 1
445150: 1
4451c2: 1
560f44: 1
560f02: 1
560d70: 1
561904: 1
43f285: 1
560fc2: 1
561300: 1
43f565: 1
445343: 1
44525a: 1
445302: 1
4452c2: 1
43f301: 1
445282: 1
5618f8: 1
445247: 1
561281: 1
43f341: 1
562f41: 1
56140f: 1
560ec0: 1
56124f: 1
560e29: 1
560d81: 1
55f9ff: 2
445253: 2
43f42a: 2
43f432: 2
43f4e7: 2
55fefd: 2
55f8fb: 2
563540: 2
55fd49: 2
43f3ff: 2
55fa3a: 2
43f39f: 2
43f3ae: 2
43f444: 2
43f395: 2
43f41a: 2
43f43a: 2
560dae: 3
562ee0: 3
4453e6: 3
562ef4: 3
445407: 3
43f32c: 3
561271: 3
4003f0: 3
445266: 3
4451ec: 3
4453a8: 3
43f275: 3
5354e5: 3
53550e: 3
43f2a2: 3
50901a: 3
43f388: 3
4453b5: 3
561419: 3
562ec9: 3
4452bb: 3
44539f: 3
43f2a5: 3
44523f: 3
44527a: 3
44529b: 3
43f31f: 3
5354dd: 3
445218: 3
5612f8: 3
43f27d: 3
43f6a6: 3
44521b: 3
4453f8: 3
44549f: 3
43f250: 3
43f6cd: 3
5612f0: 4
562f09: 4
445182: 4
560fbe: 4
53556e: 5
43f58c: 12
43f490: 13
43f5c5: 16
535599: 16
43f5ed: 16
535584: 48
5355a2: 68
43f4d9: 1416
445440: 1440
43f4e2: 1686
43f52f: 4808
4453e0: 4938
43f509: 5147
43f4d4: 5199
43f510: 5634
43f2d0: 11517
43f2d5: 11704
PSCL5 TOTAL     ACCESS:      29142  HIT:      29142  MISS:          0  HIT %:        100  MISS %:          0   MPKI: 0
PSCL5 Test counter:          0
PSCL5 LOAD TRANSLATION ACCESS:      29142  HIT:      29142  MISS:          0  HIT %:        100  MISS %:          0   MPKI: 0
PSCL5 PREFETCH  REQUESTED:          0  ISSUED:          0  USEFUL:          0  USELESS:          0
PSCL5 USEFUL LOAD PREFETCHES:          0 PREFETCH ISSUED TO LOWER LEVEL:          0  ACCURACY: -nan
PSCL5 TIMELY PREFETCHES:          0 LATE PREFETCHES: 0 DROPPED PREFETCHES: 0
PSCL5 COMMIT LATE PREFETCHES: 0 MISSED OPPORTUNITY: 0 LATE IN PQ: 0 UNCOVERED: 0
PSCL5 COMMIT LATE MSHR PREFETCHES: 0
PSCL5 MPKI TOTAL: 0 MSHR LATE: 0 PQ LATE: 0 COMMIT LATE: 0 MISSED OPPORTUNITY: 0 UNCOVERED: 0
PSCL5 PREFETCHES SAME FILL-ORIGIN LEVEL: 0 DIFFERENT FILL-ORIGIN LEVEL: 0

PSCL4 TOTAL     ACCESS:      29142  HIT:      29142  MISS:          0  HIT %:        100  MISS %:          0   MPKI: 0
PSCL4 Test counter:          0
PSCL4 LOAD TRANSLATION ACCESS:      29142  HIT:      29142  MISS:          0  HIT %:        100  MISS %:          0   MPKI: 0
PSCL4 PREFETCH  REQUESTED:          0  ISSUED:          0  USEFUL:          0  USELESS:          0
PSCL4 USEFUL LOAD PREFETCHES:          0 PREFETCH ISSUED TO LOWER LEVEL:          0  ACCURACY: -nan
PSCL4 TIMELY PREFETCHES:          0 LATE PREFETCHES: 0 DROPPED PREFETCHES: 0
PSCL4 COMMIT LATE PREFETCHES: 0 MISSED OPPORTUNITY: 0 LATE IN PQ: 0 UNCOVERED: 0
PSCL4 COMMIT LATE MSHR PREFETCHES: 0
PSCL4 MPKI TOTAL: 0 MSHR LATE: 0 PQ LATE: 0 COMMIT LATE: 0 MISSED OPPORTUNITY: 0 UNCOVERED: 0
PSCL4 PREFETCHES SAME FILL-ORIGIN LEVEL: 0 DIFFERENT FILL-ORIGIN LEVEL: 0

PSCL3 TOTAL     ACCESS:      28448  HIT:      28437  MISS:         11  HIT %:    99.9613  MISS %:   0.038667   MPKI: 5.5e-05
PSCL3 Test counter:          0
PSCL3 LOAD TRANSLATION ACCESS:      28448  HIT:      28437  MISS:         11  HIT %:    99.9613  MISS %:   0.038667   MPKI: 5.5e-05
PSCL3 PREFETCH  REQUESTED:          0  ISSUED:          0  USEFUL:          0  USELESS:          0
PSCL3 USEFUL LOAD PREFETCHES:          0 PREFETCH ISSUED TO LOWER LEVEL:          0  ACCURACY: -nan
PSCL3 TIMELY PREFETCHES:          0 LATE PREFETCHES: 0 DROPPED PREFETCHES: 0
PSCL3 COMMIT LATE PREFETCHES: 0 MISSED OPPORTUNITY: 0 LATE IN PQ: 0 UNCOVERED: 0
PSCL3 COMMIT LATE MSHR PREFETCHES: 0
PSCL3 MPKI TOTAL: 0 MSHR LATE: 0 PQ LATE: 0 COMMIT LATE: 0 MISSED OPPORTUNITY: 0 UNCOVERED: 0
PSCL3 PREFETCHES SAME FILL-ORIGIN LEVEL: 0 DIFFERENT FILL-ORIGIN LEVEL: 0

PSCL2 TOTAL     ACCESS:      29142  HIT:      29015  MISS:        127  HIT %:    99.5642  MISS %:   0.435797   MPKI: 0.000635
PSCL2 Test counter:          0
PSCL2 LOAD TRANSLATION ACCESS:      29142  HIT:      29015  MISS:        127  HIT %:    99.5642  MISS %:   0.435797   MPKI: 0.000635
PSCL2 PREFETCH  REQUESTED:          0  ISSUED:          0  USEFUL:          0  USELESS:          0
PSCL2 USEFUL LOAD PREFETCHES:          0 PREFETCH ISSUED TO LOWER LEVEL:          0  ACCURACY: -nan
PSCL2 TIMELY PREFETCHES:          0 LATE PREFETCHES: 0 DROPPED PREFETCHES: 0
PSCL2 COMMIT LATE PREFETCHES: 0 MISSED OPPORTUNITY: 0 LATE IN PQ: 0 UNCOVERED: 0
PSCL2 COMMIT LATE MSHR PREFETCHES: 0
PSCL2 MPKI TOTAL: 0 MSHR LATE: 0 PQ LATE: 0 COMMIT LATE: 0 MISSED OPPORTUNITY: 0 UNCOVERED: 0
PSCL2 PREFETCHES SAME FILL-ORIGIN LEVEL: 0 DIFFERENT FILL-ORIGIN LEVEL: 0

LLC TOTAL     ACCESS:    1656170  HIT:     416646  MISS:    1239524  HIT %:    25.1572  MISS %:    74.8428   MPKI: 6.19762
LLC Test counter:          0
LLC LOAD      ACCESS:      41127  HIT:          0  MISS:      41127  HIT %:          0  MISS %:        100   MPKI: 0.205635
LLC RFO       ACCESS:     418383  HIT:          0  MISS:     418383  HIT %:          0  MISS %:        100   MPKI: 2.09192
LLC PREFETCH  ACCESS:     773445  HIT:          0  MISS:     773445  HIT %:          0  MISS %:        100   MPKI: 3.86722
LLC WRITEBACK ACCESS:     417055  HIT:     416624  MISS:        431  HIT %:    99.8967  MISS %:   0.103344   MPKI: 0.002155
LLC LOAD TRANSLATION ACCESS:       6160  HIT:         22  MISS:       6138  HIT %:   0.357143  MISS %:    99.6429   MPKI: 0.03069
LLC PREFETCH  REQUESTED:          0  ISSUED:          0  USEFUL:          0  USELESS:     776231
LLC USEFUL LOAD PREFETCHES:          0 PREFETCH ISSUED TO LOWER LEVEL:     773445  ACCURACY: 0
LLC TIMELY PREFETCHES:          0 LATE PREFETCHES: 0 DROPPED PREFETCHES: 0
LLC COMMIT LATE PREFETCHES: 0 MISSED OPPORTUNITY: 0 LATE IN PQ: 0 UNCOVERED: 0
LLC COMMIT LATE MSHR PREFETCHES: 0
LLC MPKI TOTAL: 0.205635 MSHR LATE: 0 PQ LATE: 0 COMMIT LATE: 0 MISSED OPPORTUNITY: 0 UNCOVERED: 0
LLC PREFETCHES SAME FILL-ORIGIN LEVEL: 0 DIFFERENT FILL-ORIGIN LEVEL: 0
LLC AVERAGE MISS LATENCY: 285.056 cycles
LLC AVERAGE MISS LATENCY LOAD: 229.829 cycles
LLC AVERAGE MISS LATENCY PREFETCH: 303.943 cycles
LLC AVERAGE MSHR OCCUPANCY: 6.26147
LLC MSHR FULL: 0
LLC RQ	ACCESS:     465670	FORWARD:          0	MERGED:          0	TO_CACHE:     465670
LLC WQ	ACCESS:     417055	FORWARD:          0	MERGED:          0	TO_CACHE:     417055
LLC PQ	ACCESS:     773445	FORWARD:          0	MERGED:          0	TO_CACHE:     773445

LLC Dense regions hint to LLC: 0
43f555: 1
445206: 1
43f240: 1
43f6c6: 1
43f2c5: 1
55fa11: 1
560ea8: 1
562ec0: 1
43f68b: 1
43f603: 1
55fd60: 1
445150: 1
4451c2: 1
560f44: 1
560f02: 1
560d70: 1
561904: 1
43f285: 1
560fc2: 1
561300: 1
43f565: 1
445343: 1
44525a: 1
445302: 1
4452c2: 1
43f301: 1
445282: 1
5618f8: 1
445247: 1
561281: 1
43f341: 1
562f41: 1
56140f: 1
560ec0: 1
56124f: 1
560e29: 1
560d81: 1
55f9ff: 2
445253: 2
43f42a: 2
43f432: 2
43f4e7: 2
43f41a: 2
43f39f: 2
43f444: 2
43f3ae: 2
55fefd: 2
55fa3a: 2
43f3ff: 2
55fd49: 2
55f8fb: 2
563540: 2
43f395: 2
43f43a: 2
44529b: 3
43f32c: 3
561271: 3
4003f0: 3
445266: 3
560dae: 3
5354e5: 3
53550e: 3
43f2a2: 3
50901a: 3
4453b5: 3
561419: 3
43f2a5: 3
43f388: 3
43f275: 3
43f27d: 3
562ee0: 3
562ec9: 3
4451ec: 3
445218: 3
4453a8: 3
44523f: 3
44521b: 3
562ef4: 3
44539f: 3
44527a: 3
43f31f: 3
5354dd: 3
4452bb: 3
43f6a6: 3
5612f8: 3
4453f8: 3
43f250: 3
445407: 3
43f6cd: 3
4453e6: 3
44549f: 3
562f09: 4
445182: 4
5612f0: 4
560fbe: 4
53556e: 5
43f58c: 12
43f490: 13
43f5ed: 16
535599: 16
43f5c5: 16
535584: 48
5355a2: 68
43f4d4: 1185
43f4d9: 1187
43f4e2: 1188
445440: 1440
43f52f: 4616
43f509: 4616
43f510: 4616
4453e0: 4938
43f2d0: 7321
43f2d5: 9628

RAW hits: 5923125
Loads Generated: 54564107
Loads sent to L1D: 48640981
Stores Generated: 25053029
Stores sent to L1D: 25053030
Major fault: 0 Minor fault: 17838
Allocated PAGES: 17838
Total Load insts: 59436526
Total Non-spec loads: 16038615
Percentage of speculative loads: 73.0155
L1D response latency: 99.8059 cycles
Load retirement latency: 171.083 cycles

CPU 0 L1D PC-based stride prefetcher final stats
Degree: 3

DRAM Statistics
 CHANNEL 0
 RQ ROW_BUFFER_HIT:     388777  ROW_BUFFER_MISS:     850316
 DBUS_CONGESTED:         38
 WQ ROW_BUFFER_HIT:      61659  ROW_BUFFER_MISS:     353851  FULL:          0

 AVG_CONGESTED_CYCLE: 6
 All warmup complete: 2
Channel 0 Bank busy for read cycles: 0
Channel 0 Bank busy for write cycles: 0
Channel 0
Rank 0
0banks busy for read cycles: 302428857
0banks busy for write cycles: 74860
1banks busy for read cycles: 25194424
1banks busy for write cycles: 11597232
2banks busy for read cycles: 2798736
2banks busy for write cycles: 331962
3banks busy for read cycles: 4381404
3banks busy for write cycles: 119416
4banks busy for read cycles: 6593014
4banks busy for write cycles: 162493
5banks busy for read cycles: 6703398
5banks busy for write cycles: 56129
6banks busy for read cycles: 4637108
6banks busy for write cycles: 51949
7banks busy for read cycles: 2147210
7banks busy for write cycles: 433529
8banks busy for read cycles: 886588
8banks busy for write cycles: 7086980

CPU 0 Branch Prediction Accuracy: 99.9742% MPKI: 0.027965 Average ROB Occupancy at Mispredict: 88.4034
Branch types
NOT_BRANCH: 178321210 89.1606%
BRANCH_DIRECT_JUMP: 1449216 0.724608%
BRANCH_INDIRECT: 0 0%
BRANCH_CONDITIONAL: 14432543 7.21627%
BRANCH_DIRECT_CALL: 2898375 1.44919%
BRANCH_INDIRECT_CALL: 0 0%
BRANCH_RETURN: 2898373 1.44919%
BRANCH_OTHER: 0 0%

DRAM PAGES: 1048576
Allocated PAGES: 17838
