
*** ChampSim Multicore Out-of-Order Simulator ***

Warmup Instructions: 50000000
Simulation Instructions: 200000000
Number of CPUs: 1
LLC sets: 2048
LLC ways: 16
Secure Berti: OFF
Berti: OFF
Berti Fill: OFF
On commit prefetching: OFF
L2 LLC Bypass speculative loads: OFF
Off-chip DRAM Size: 4096 MB Channels: 1 Width: 64-bit Data Rate: 6400 MT/s
CPU 0 runs /home/sumon/secure_berti/Berti_Baseline/../../traces/spec/654.roms_s-294B.champsimtrace.xz
.xz
BTB has LRU replacement policy
ITLB has LRU replacement policy
DTLB has LRU replacement policy
STLB has LRU replacement policy
L1I has LRU replacement policy
CPU 0 L1D IP-based stride prefetcher
L1D has LRU replacement policy
L2C has LRU replacement policy
LLC has LRU replacement policy
Heartbeat CPU 0 instructions: 10000001 cycles: 3208610 heartbeat IPC: 3.11661 cumulative IPC: 3.11661 (Simulation time: 0 hr 0 min 21 sec) 
Heartbeat CPU 0 instructions: 20000000 cycles: 6417247 heartbeat IPC: 3.11659 cumulative IPC: 3.1166 (Simulation time: 0 hr 0 min 42 sec) 
Heartbeat CPU 0 instructions: 30000003 cycles: 9625792 heartbeat IPC: 3.11668 cumulative IPC: 3.11663 (Simulation time: 0 hr 1 min 3 sec) 
Heartbeat CPU 0 instructions: 40000001 cycles: 12834171 heartbeat IPC: 3.11684 cumulative IPC: 3.11668 (Simulation time: 0 hr 1 min 25 sec) 
Heartbeat CPU 0 instructions: 50000001 cycles: 16042460 heartbeat IPC: 3.11693 cumulative IPC: 3.11673 (Simulation time: 0 hr 1 min 46 sec) 

Warmup complete CPU 0 instructions: 50000001 cycles: 16042460 (Simulation time: 0 hr 1 min 46 sec) 

Heartbeat CPU 0 instructions: 60000002 cycles: 25746507 heartbeat IPC: 1.0305 cumulative IPC: 1.0305 (Simulation time: 0 hr 2 min 10 sec) 
Heartbeat CPU 0 instructions: 70000000 cycles: 35445075 heartbeat IPC: 1.03108 cumulative IPC: 1.03079 (Simulation time: 0 hr 2 min 35 sec) 
Heartbeat CPU 0 instructions: 80000001 cycles: 45138149 heartbeat IPC: 1.03166 cumulative IPC: 1.03108 (Simulation time: 0 hr 3 min 0 sec) 
Heartbeat CPU 0 instructions: 90000001 cycles: 54843185 heartbeat IPC: 1.03039 cumulative IPC: 1.03091 (Simulation time: 0 hr 3 min 27 sec) 
Heartbeat CPU 0 instructions: 100000002 cycles: 64544934 heartbeat IPC: 1.03074 cumulative IPC: 1.03088 (Simulation time: 0 hr 3 min 54 sec) 
Heartbeat CPU 0 instructions: 110000000 cycles: 74251229 heartbeat IPC: 1.03026 cumulative IPC: 1.03077 (Simulation time: 0 hr 4 min 21 sec) 
Heartbeat CPU 0 instructions: 120000002 cycles: 83939789 heartbeat IPC: 1.03215 cumulative IPC: 1.03097 (Simulation time: 0 hr 4 min 49 sec) 
Heartbeat CPU 0 instructions: 130000001 cycles: 93644859 heartbeat IPC: 1.03039 cumulative IPC: 1.0309 (Simulation time: 0 hr 5 min 18 sec) 
Heartbeat CPU 0 instructions: 140000000 cycles: 103347798 heartbeat IPC: 1.03062 cumulative IPC: 1.03086 (Simulation time: 0 hr 5 min 47 sec) 
Heartbeat CPU 0 instructions: 150000000 cycles: 113051682 heartbeat IPC: 1.03052 cumulative IPC: 1.03083 (Simulation time: 0 hr 6 min 16 sec) 
Heartbeat CPU 0 instructions: 160000003 cycles: 122747817 heartbeat IPC: 1.03134 cumulative IPC: 1.03088 (Simulation time: 0 hr 6 min 45 sec) 
Heartbeat CPU 0 instructions: 170000003 cycles: 132453501 heartbeat IPC: 1.03032 cumulative IPC: 1.03083 (Simulation time: 0 hr 7 min 15 sec) 
Heartbeat CPU 0 instructions: 180000003 cycles: 142154305 heartbeat IPC: 1.03084 cumulative IPC: 1.03083 (Simulation time: 0 hr 7 min 45 sec) 
Heartbeat CPU 0 instructions: 190000002 cycles: 151853149 heartbeat IPC: 1.03105 cumulative IPC: 1.03085 (Simulation time: 0 hr 8 min 15 sec) 
Heartbeat CPU 0 instructions: 200000002 cycles: 161552236 heartbeat IPC: 1.03102 cumulative IPC: 1.03086 (Simulation time: 0 hr 8 min 44 sec) 
Heartbeat CPU 0 instructions: 210000001 cycles: 171257252 heartbeat IPC: 1.03039 cumulative IPC: 1.03083 (Simulation time: 0 hr 9 min 13 sec) 
Heartbeat CPU 0 instructions: 220000000 cycles: 180957588 heartbeat IPC: 1.03089 cumulative IPC: 1.03083 (Simulation time: 0 hr 9 min 41 sec) 
Heartbeat CPU 0 instructions: 230000002 cycles: 190659125 heartbeat IPC: 1.03076 cumulative IPC: 1.03083 (Simulation time: 0 hr 10 min 9 sec) 
Heartbeat CPU 0 instructions: 240000001 cycles: 200352890 heartbeat IPC: 1.03159 cumulative IPC: 1.03087 (Simulation time: 0 hr 10 min 35 sec) 
Heartbeat CPU 0 instructions: 250000000 cycles: 210056485 heartbeat IPC: 1.03055 cumulative IPC: 1.03085 (Simulation time: 0 hr 11 min 0 sec) 
Finished CPU 0 instructions: 200000003 cycles: 194014026 cumulative IPC: 1.03085 (Simulation time: 0 hr 11 min 0 sec) 

ChampSim completed all CPUs

Region of Interest Statistics

CPU 0 cumulative IPC: 1.03085 instructions: 200000003 cycles: 194014026
ITLB TOTAL     ACCESS:   26845362  HIT:   26845362  MISS:          0  HIT %:        100  MISS %:          0   MPKI: 0
ITLB Test counter:          0
ITLB LOAD TRANSLATION ACCESS:   26845362  HIT:   26845362  MISS:          0  HIT %:        100  MISS %:          0   MPKI: 0
ITLB PREFETCH  REQUESTED:          0  ISSUED:          0  USEFUL:          0  USELESS:          0
ITLB USEFUL LOAD PREFETCHES:          0 PREFETCH ISSUED TO LOWER LEVEL:          0  ACCURACY: -nan
ITLB TIMELY PREFETCHES:          0 LATE PREFETCHES: 0 DROPPED PREFETCHES: 0
ITLB COMMIT LATE PREFETCHES: 0 MISSED OPPORTUNITY: 0 LATE IN PQ: 0 UNCOVERED: 0
ITLB COMMIT LATE MSHR PREFETCHES: 0
ITLB MPKI TOTAL: 0 MSHR LATE: 0 PQ LATE: 0 COMMIT LATE: 0 MISSED OPPORTUNITY: 0 UNCOVERED: 0
ITLB PREFETCHES SAME FILL-ORIGIN LEVEL: 0 DIFFERENT FILL-ORIGIN LEVEL: 0
ITLB AVERAGE MISS LATENCY: -nan cycles
ITLB AVERAGE MISS LATENCY LOAD: -nan cycles
ITLB AVERAGE MISS LATENCY PREFETCH: -nan cycles
ITLB AVERAGE MSHR OCCUPANCY: 0
ITLB MSHR FULL: 0
ITLB RQ	ACCESS:   33497431	FORWARD:          0	MERGED:    6652070	TO_CACHE:   26845361

DTLB TOTAL     ACCESS:   53945737  HIT:   53858143  MISS:      87594  HIT %:    99.8376  MISS %:   0.162374   MPKI: 0.43797
DTLB Test counter:          0
DTLB LOAD TRANSLATION ACCESS:   53945737  HIT:   53858143  MISS:      87594  HIT %:    99.8376  MISS %:   0.162374   MPKI: 0.43797
DTLB PREFETCH  REQUESTED:          0  ISSUED:          0  USEFUL:          0  USELESS:          0
DTLB USEFUL LOAD PREFETCHES:          0 PREFETCH ISSUED TO LOWER LEVEL:          0  ACCURACY: -nan
DTLB TIMELY PREFETCHES:          0 LATE PREFETCHES: 0 DROPPED PREFETCHES: 0
DTLB COMMIT LATE PREFETCHES: 0 MISSED OPPORTUNITY: 0 LATE IN PQ: 0 UNCOVERED: 0
DTLB COMMIT LATE MSHR PREFETCHES: 0
DTLB MPKI TOTAL: 0 MSHR LATE: 0 PQ LATE: 0 COMMIT LATE: 0 MISSED OPPORTUNITY: 0 UNCOVERED: 0
DTLB PREFETCHES SAME FILL-ORIGIN LEVEL: 0 DIFFERENT FILL-ORIGIN LEVEL: 0
DTLB AVERAGE MISS LATENCY: 343.179 cycles
DTLB AVERAGE MISS LATENCY LOAD: -nan cycles
DTLB AVERAGE MISS LATENCY PREFETCH: -nan cycles
DTLB AVERAGE MSHR OCCUPANCY: 0.0131411
DTLB MSHR FULL: 3.52134e-07
DTLB RQ	ACCESS:   58218329	FORWARD:          0	MERGED:    4261634	TO_CACHE:   53956695

STLB TOTAL     ACCESS:    4099461  HIT:    4033705  MISS:      65756  HIT %:     98.396  MISS %:    1.60402   MPKI: 0.32878
STLB Test counter:          0
STLB LOAD TRANSLATION ACCESS:      87594  HIT:      21838  MISS:      65756  HIT %:    24.9309  MISS %:    75.0691   MPKI: 0.32878
STLB TRANSLATION FROM L1D PREFETCHER ACCESS:    4011867  HIT:    4011867  MISS:          0  HIT %:        100  MISS %:          0   MPKI: 0
STLB PREFETCH  REQUESTED:          0  ISSUED:          0  USEFUL:          0  USELESS:          0
STLB USEFUL LOAD PREFETCHES:          0 PREFETCH ISSUED TO LOWER LEVEL:          0  ACCURACY: -nan
STLB TIMELY PREFETCHES:          0 LATE PREFETCHES: 0 DROPPED PREFETCHES: 0
STLB COMMIT LATE PREFETCHES: 0 MISSED OPPORTUNITY: 0 LATE IN PQ: 0 UNCOVERED: 0
STLB COMMIT LATE MSHR PREFETCHES: 0
STLB MPKI TOTAL: 0 MSHR LATE: 0 PQ LATE: 0 COMMIT LATE: 0 MISSED OPPORTUNITY: 0 UNCOVERED: 0
STLB PREFETCHES SAME FILL-ORIGIN LEVEL: 0 DIFFERENT FILL-ORIGIN LEVEL: 0
STLB AVERAGE MISS LATENCY: 444.037 cycles
STLB AVERAGE MISS LATENCY LOAD: -nan cycles
STLB AVERAGE MISS LATENCY PREFETCH: -nan cycles
STLB AVERAGE MSHR OCCUPANCY: 0.0365382
STLB MSHR FULL: 0
STLB RQ	ACCESS:   11920993	FORWARD:          0	MERGED:    7821533	TO_CACHE:    4099460

STLB Hit, L1D data hit: 0
STLB Hit, L2C data hit: 0
STLB Hit, LLC data hit: 0
STLB Hit, LLC data miss: 0
STLB STLB hints to L2: 0
L1D TOTAL     ACCESS:   69394398  HIT:   66642927  MISS:    2751471  HIT %:     96.035  MISS %:    3.96498   MPKI: 13.7574
L1D Test counter:          0
L1D LOAD      ACCESS:   51283922  HIT:   51105408  MISS:     312233  HIT %:    99.6519  MISS %:    0.34809   MPKI: 0.89257
L1D RFO       ACCESS:    6702055  HIT:    6681895  MISS:      20160  HIT %:    99.6992  MISS %:   0.300803   MPKI: 0.1008
L1D PREFETCH  ACCESS:   11408421  HIT:    8855624  MISS:    2552797  HIT %:    77.6236  MISS %:    22.3764   MPKI: 12.764
L1D PREFETCH  REQUESTED:   23706089  ISSUED:   23696185  USEFUL:    2431955  USELESS:     120844
L1D USEFUL LOAD PREFETCHES:    2431955 PREFETCH ISSUED TO LOWER LEVEL:    2579795  ACCURACY: 94.2693
L1D TIMELY PREFETCHES:    2431955 LATE PREFETCHES: 5069 DROPPED PREFETCHES: 0
L1D COMMIT LATE PREFETCHES: 0 MISSED OPPORTUNITY: 0 LATE IN PQ: 86 UNCOVERED: 0
L1D COMMIT LATE MSHR PREFETCHES: 0
L1D MPKI TOTAL: 1.56116 MSHR LATE: 0.025345 PQ LATE: 0.00043 COMMIT LATE: 0 MISSED OPPORTUNITY: 0 UNCOVERED: 0
L1D PREFETCHES SAME FILL-ORIGIN LEVEL: 2557866 DIFFERENT FILL-ORIGIN LEVEL: 21929
L1D AVERAGE MISS LATENCY: 144.663 cycles
L1D AVERAGE MISS LATENCY LOAD: 139.769 cycles
L1D AVERAGE MISS LATENCY PREFETCH: 144.767 cycles
L1D AVERAGE MSHR OCCUPANCY: 1.97158
L1D MSHR FULL: 0.000612101
L1D RQ	ACCESS:   76447434	FORWARD:          0	MERGED:   25029784	TO_CACHE:   51417638
L1D WQ	ACCESS:    6800691	FORWARD:         12	MERGED:          0	TO_CACHE:    6800691
L1D PQ	ACCESS:   11862786	FORWARD:          0	MERGED:      29387	TO_CACHE:   11833399

L1D UNIQUE REGIONS ACCESSED: 0
L1D REGIONS CONFLICTS: 0
L1D Cross Page Prefetch Requests: 0
L1D Same Page Prefetch Requests: 14827509
L1D ROI Sum of L1D PQ occupancy: 166338957
L1D PREFETCHES PUSHED FROM L2C: 0
41a661: 4
41a6c1: 19
41a6c9: 162
41a383: 162
41a3c4: 162
41a72a: 162
41a261: 162
41a669: 671
41a4d5: 691
41a64b: 692
41a4c0: 852
41a4b8: 861
41a5b7: 2540
41a58a: 2540
41a5ae: 3015
41a2f0: 5343
41a538: 8588
41a54a: 18462
41a558: 25702
41a573: 25934
41a596: 26018
41a5aa: 27503
41a566: 28269
L1I TOTAL     ACCESS:   33497430  HIT:   33497430  MISS:          0  HIT %:        100  MISS %:          0   MPKI: 0
L1I Test counter:          0
L1I LOAD      ACCESS:   33497430  HIT:   33497430  MISS:          0  HIT %:        100  MISS %:          0   MPKI: 0
L1I PREFETCH  REQUESTED:          0  ISSUED:          0  USEFUL:          0  USELESS:          0
L1I USEFUL LOAD PREFETCHES:          0 PREFETCH ISSUED TO LOWER LEVEL:          0  ACCURACY: -nan
L1I TIMELY PREFETCHES:          0 LATE PREFETCHES: 0 DROPPED PREFETCHES: 0
L1I COMMIT LATE PREFETCHES: 0 MISSED OPPORTUNITY: 0 LATE IN PQ: 0 UNCOVERED: 0
L1I COMMIT LATE MSHR PREFETCHES: 0
L1I MPKI TOTAL: 0 MSHR LATE: 0 PQ LATE: 0 COMMIT LATE: 0 MISSED OPPORTUNITY: 0 UNCOVERED: 0
L1I PREFETCHES SAME FILL-ORIGIN LEVEL: 0 DIFFERENT FILL-ORIGIN LEVEL: 0
L1I AVERAGE MISS LATENCY: -nan cycles
L1I AVERAGE MISS LATENCY LOAD: -nan cycles
L1I AVERAGE MISS LATENCY PREFETCH: -nan cycles
L1I AVERAGE MSHR OCCUPANCY: 0
L1I MSHR FULL: 0
L1I RQ	ACCESS:   53607330	FORWARD:          0	MERGED:   20109899	TO_CACHE:   33497431

BTB TOTAL     ACCESS:   10024821  HIT:   10024810  MISS:         11  HIT %:    99.9999  MISS %: 0.000109728   MPKI: 5.5e-05
BTB Test counter:          0
BTB BRANCH_DIRECT_JUMP	ACCESS:        162  HIT:        161  MISS:          1
BTB BRANCH_INDIRECT	ACCESS:          0  HIT:          0  MISS:          0
BTB BRANCH_CONDITIONAL	ACCESS:   10024335  HIT:   10024327  MISS:          8
BTB BRANCH_DIRECT_CALL	ACCESS:        162  HIT:        161  MISS:          1
BTB BRANCH_INDIRECT_CALL	ACCESS:          0  HIT:          0  MISS:          0
BTB BRANCH_RETURN	ACCESS:        162  HIT:        161  MISS:          1
BTB BRANCH_OTHER ACCESS:          0  HIT:          0  MISS:          0

L2C TOTAL     ACCESS:    2931987  HIT:     178197  MISS:    2753790  HIT %:    6.07769  MISS %:    93.9223   MPKI: 13.7689
L2C Test counter:          0
L2C LOAD      ACCESS:     173430  HIT:      16611  MISS:     156819  HIT %:    9.57793  MISS %:    90.4221   MPKI: 0.784095
L2C DATA LOAD MPKI: 0.784095
L2C INSTRUCTION LOAD MPKI: 0
L2C RFO       ACCESS:      20160  HIT:          0  MISS:      20160  HIT %:          0  MISS %:        100   MPKI: 0.1008
L2C PREFETCH  ACCESS:    2579035  HIT:      73252  MISS:    2505783  HIT %:    2.84029  MISS %:    97.1597   MPKI: 12.5289
L2C DATA PREFETCH MPKI: 12.5289
L2C INSTRUCTION PREFETCH MPKI: 0
L2C WRITEBACK ACCESS:      60665  HIT:      44209  MISS:      16456  HIT %:     72.874  MISS %:     27.126   MPKI: 0.08228
L2C LOAD TRANSLATION ACCESS:      98697  HIT:      44125  MISS:      54572  HIT %:    44.7075  MISS %:    55.2925   MPKI: 0.27286
L2C PREFETCH  REQUESTED:          0  ISSUED:          0  USEFUL:       6635  USELESS:    2499271
L2C USEFUL LOAD PREFETCHES:       6635 PREFETCH ISSUED TO LOWER LEVEL:    2505811  ACCURACY: 0.264785
L2C TIMELY PREFETCHES:       6635 LATE PREFETCHES: 28 DROPPED PREFETCHES: 0
L2C COMMIT LATE PREFETCHES: 0 MISSED OPPORTUNITY: 0 LATE IN PQ: 0 UNCOVERED: 0
L2C COMMIT LATE MSHR PREFETCHES: 0
L2C MPKI TOTAL: 0.784095 MSHR LATE: 0.00014 PQ LATE: 0 COMMIT LATE: 0 MISSED OPPORTUNITY: 0 UNCOVERED: 0
L2C PREFETCHES SAME FILL-ORIGIN LEVEL: 21258 DIFFERENT FILL-ORIGIN LEVEL: 0
L2C AVERAGE MISS LATENCY: 131.721 cycles
L2C AVERAGE MISS LATENCY LOAD: 134.029 cycles
L2C AVERAGE MISS LATENCY PREFETCH: 133.267 cycles
L2C AVERAGE MSHR OCCUPANCY: 1.8061
L2C MSHR FULL: 0
L2C RQ	ACCESS:     292302	FORWARD:          0	MERGED:          0	TO_CACHE:     292287
L2C WQ	ACCESS:      60665	FORWARD:         49	MERGED:          0	TO_CACHE:      60665
L2C PQ	ACCESS:    2579795	FORWARD:          0	MERGED:          0	TO_CACHE:    2579761

L2C Instructions Evicting Data 0
L2C Translations Evicting Data 53482
L2C Data Evicting Data 2629593
L2C Instructions Evicting Instructions 0
L2C Translations Evicting Instructions 0
L2C Data Evicting Instructions 0
L2C Instructions Evicting Translations 0
L2C Translations Evicting Translations 1090
L2C Data Evicting Translations 53169
L2C Dense regions hint from L2: 0
41a6c1: 2
41a64b: 3
41a5b7: 4
41a58a: 4
41a4d5: 31
41a4b8: 64
41a669: 69
41a4c0: 78
41a6c9: 162
41a72a: 162
41a383: 162
41a261: 162
41a3c4: 162
41a5ae: 749
41a2f0: 871
41a538: 8528
41a54a: 17150
41a558: 25672
41a566: 25678
41a573: 25702
41a596: 25702
41a5aa: 25702
PSCL5 TOTAL     ACCESS:      65756  HIT:      65756  MISS:          0  HIT %:        100  MISS %:          0   MPKI: 0
PSCL5 Test counter:          0
PSCL5 LOAD TRANSLATION ACCESS:      65756  HIT:      65756  MISS:          0  HIT %:        100  MISS %:          0   MPKI: 0
PSCL5 PREFETCH  REQUESTED:          0  ISSUED:          0  USEFUL:          0  USELESS:          0
PSCL5 USEFUL LOAD PREFETCHES:          0 PREFETCH ISSUED TO LOWER LEVEL:          0  ACCURACY: -nan
PSCL5 TIMELY PREFETCHES:          0 LATE PREFETCHES: 0 DROPPED PREFETCHES: 0
PSCL5 COMMIT LATE PREFETCHES: 0 MISSED OPPORTUNITY: 0 LATE IN PQ: 0 UNCOVERED: 0
PSCL5 COMMIT LATE MSHR PREFETCHES: 0
PSCL5 MPKI TOTAL: 0 MSHR LATE: 0 PQ LATE: 0 COMMIT LATE: 0 MISSED OPPORTUNITY: 0 UNCOVERED: 0
PSCL5 PREFETCHES SAME FILL-ORIGIN LEVEL: 0 DIFFERENT FILL-ORIGIN LEVEL: 0

PSCL4 TOTAL     ACCESS:      65756  HIT:      65756  MISS:          0  HIT %:        100  MISS %:          0   MPKI: 0
PSCL4 Test counter:          0
PSCL4 LOAD TRANSLATION ACCESS:      65756  HIT:      65756  MISS:          0  HIT %:        100  MISS %:          0   MPKI: 0
PSCL4 PREFETCH  REQUESTED:          0  ISSUED:          0  USEFUL:          0  USELESS:          0
PSCL4 USEFUL LOAD PREFETCHES:          0 PREFETCH ISSUED TO LOWER LEVEL:          0  ACCURACY: -nan
PSCL4 TIMELY PREFETCHES:          0 LATE PREFETCHES: 0 DROPPED PREFETCHES: 0
PSCL4 COMMIT LATE PREFETCHES: 0 MISSED OPPORTUNITY: 0 LATE IN PQ: 0 UNCOVERED: 0
PSCL4 COMMIT LATE MSHR PREFETCHES: 0
PSCL4 MPKI TOTAL: 0 MSHR LATE: 0 PQ LATE: 0 COMMIT LATE: 0 MISSED OPPORTUNITY: 0 UNCOVERED: 0
PSCL4 PREFETCHES SAME FILL-ORIGIN LEVEL: 0 DIFFERENT FILL-ORIGIN LEVEL: 0

PSCL3 TOTAL     ACCESS:      65754  HIT:      65677  MISS:         77  HIT %:    99.8829  MISS %:   0.117103   MPKI: 0.000385
PSCL3 Test counter:          0
PSCL3 LOAD TRANSLATION ACCESS:      65754  HIT:      65677  MISS:         77  HIT %:    99.8829  MISS %:   0.117103   MPKI: 0.000385
PSCL3 PREFETCH  REQUESTED:          0  ISSUED:          0  USEFUL:          0  USELESS:          0
PSCL3 USEFUL LOAD PREFETCHES:          0 PREFETCH ISSUED TO LOWER LEVEL:          0  ACCURACY: -nan
PSCL3 TIMELY PREFETCHES:          0 LATE PREFETCHES: 0 DROPPED PREFETCHES: 0
PSCL3 COMMIT LATE PREFETCHES: 0 MISSED OPPORTUNITY: 0 LATE IN PQ: 0 UNCOVERED: 0
PSCL3 COMMIT LATE MSHR PREFETCHES: 0
PSCL3 MPKI TOTAL: 0 MSHR LATE: 0 PQ LATE: 0 COMMIT LATE: 0 MISSED OPPORTUNITY: 0 UNCOVERED: 0
PSCL3 PREFETCHES SAME FILL-ORIGIN LEVEL: 0 DIFFERENT FILL-ORIGIN LEVEL: 0

PSCL2 TOTAL     ACCESS:      65756  HIT:      32633  MISS:      33123  HIT %:    49.6274  MISS %:    50.3726   MPKI: 0.165615
PSCL2 Test counter:          0
PSCL2 LOAD TRANSLATION ACCESS:      65756  HIT:      32633  MISS:      33123  HIT %:    49.6274  MISS %:    50.3726   MPKI: 0.165615
PSCL2 PREFETCH  REQUESTED:          0  ISSUED:          0  USEFUL:          0  USELESS:          0
PSCL2 USEFUL LOAD PREFETCHES:          0 PREFETCH ISSUED TO LOWER LEVEL:          0  ACCURACY: -nan
PSCL2 TIMELY PREFETCHES:          0 LATE PREFETCHES: 0 DROPPED PREFETCHES: 0
PSCL2 COMMIT LATE PREFETCHES: 0 MISSED OPPORTUNITY: 0 LATE IN PQ: 0 UNCOVERED: 0
PSCL2 COMMIT LATE MSHR PREFETCHES: 0
PSCL2 MPKI TOTAL: 0 MSHR LATE: 0 PQ LATE: 0 COMMIT LATE: 0 MISSED OPPORTUNITY: 0 UNCOVERED: 0
PSCL2 PREFETCHES SAME FILL-ORIGIN LEVEL: 0 DIFFERENT FILL-ORIGIN LEVEL: 0

LLC TOTAL     ACCESS:    2759980  HIT:     500878  MISS:    2259102  HIT %:    18.1479  MISS %:    81.8521   MPKI: 11.2955
LLC Test counter:          0
LLC LOAD      ACCESS:     156791  HIT:      26754  MISS:     130037  HIT %:    17.0635  MISS %:    82.9365   MPKI: 0.650185
LLC RFO       ACCESS:      20160  HIT:        162  MISS:      19998  HIT %:   0.803571  MISS %:    99.1964   MPKI: 0.09999
LLC PREFETCH  ACCESS:    2505811  HIT:     414712  MISS:    2091099  HIT %:      16.55  MISS %:      83.45   MPKI: 10.4555
LLC WRITEBACK ACCESS:      22646  HIT:      21269  MISS:       1377  HIT %:    93.9195  MISS %:    6.08054   MPKI: 0.006885
LLC LOAD TRANSLATION ACCESS:      54572  HIT:      37981  MISS:      16591  HIT %:     69.598  MISS %:     30.402   MPKI: 0.082955
LLC PREFETCH  REQUESTED:          0  ISSUED:          0  USEFUL:          5  USELESS:    2090966
LLC USEFUL LOAD PREFETCHES:          5 PREFETCH ISSUED TO LOWER LEVEL:    2091099  ACCURACY: 0.000239109
LLC TIMELY PREFETCHES:          5 LATE PREFETCHES: 0 DROPPED PREFETCHES: 0
LLC COMMIT LATE PREFETCHES: 0 MISSED OPPORTUNITY: 0 LATE IN PQ: 0 UNCOVERED: 0
LLC COMMIT LATE MSHR PREFETCHES: 0
LLC MPKI TOTAL: 0.650185 MSHR LATE: 0 PQ LATE: 0 COMMIT LATE: 0 MISSED OPPORTUNITY: 0 UNCOVERED: 0
LLC PREFETCHES SAME FILL-ORIGIN LEVEL: 0 DIFFERENT FILL-ORIGIN LEVEL: 0
LLC AVERAGE MISS LATENCY: 123.075 cycles
LLC AVERAGE MISS LATENCY LOAD: 116.647 cycles
LLC AVERAGE MISS LATENCY PREFETCH: 123.105 cycles
LLC AVERAGE MSHR OCCUPANCY: 1.47906
LLC MSHR FULL: 0
LLC RQ	ACCESS:     231523	FORWARD:          0	MERGED:          0	TO_CACHE:     231523
LLC WQ	ACCESS:      22646	FORWARD:          0	MERGED:          0	TO_CACHE:      22646
LLC PQ	ACCESS:    2505811	FORWARD:          0	MERGED:          0	TO_CACHE:    2505811

LLC Dense regions hint to LLC: 0
41a58a: 1
41a558: 3
41a669: 23
41a4c0: 30
41a4b8: 32
41a5ae: 643
41a2f0: 843
41a538: 8528
41a54a: 17150
41a566: 25678
41a596: 25702
41a573: 25702
41a5aa: 25702

RAW hits: 306
Loads Generated: 76447740
Loads sent to L1D: 76447434
Stores Generated: 6800691
Stores sent to L1D: 6800691
Major fault: 0 Minor fault: 82777
Allocated PAGES: 82777
Total Load insts: 95560015
Total Non-spec loads: 8099522
Percentage of speculative loads: 91.5242
L1D response latency: 143.854 cycles
Load retirement latency: 480.697 cycles

CPU 0 L1D PC-based stride prefetcher final stats
Degree: 3

DRAM Statistics
 CHANNEL 0
 RQ ROW_BUFFER_HIT:    1893630  ROW_BUFFER_MISS:     364095
 DBUS_CONGESTED:        500
 WQ ROW_BUFFER_HIT:       7469  ROW_BUFFER_MISS:      13884  FULL:          0

 AVG_CONGESTED_CYCLE: 5
 All warmup complete: 2
Channel 0 Bank busy for read cycles: 0
Channel 0 Bank busy for write cycles: 0
Channel 0
Rank 0
0banks busy for read cycles: 87404666
0banks busy for write cycles: 14592
1banks busy for read cycles: 67202997
1banks busy for write cycles: 2559174
2banks busy for read cycles: 31333814
2banks busy for write cycles: 400018
3banks busy for read cycles: 1542648
3banks busy for write cycles: 116495
4banks busy for read cycles: 2280894
4banks busy for write cycles: 75241
5banks busy for read cycles: 457826
5banks busy for write cycles: 33360
6banks busy for read cycles: 367827
6banks busy for write cycles: 33408
7banks busy for read cycles: 98006
7banks busy for write cycles: 16549
8banks busy for read cycles: 62203
8banks busy for write cycles: 14309

CPU 0 Branch Prediction Accuracy: 99.9315% MPKI: 0.03438 Average ROB Occupancy at Mispredict: 63.7289
Branch types
NOT_BRANCH: 189955093 94.9775%
BRANCH_DIRECT_JUMP: 162 8.1e-05%
BRANCH_INDIRECT: 0 0%
BRANCH_CONDITIONAL: 10044111 5.02206%
BRANCH_DIRECT_CALL: 162 8.1e-05%
BRANCH_INDIRECT_CALL: 0 0%
BRANCH_RETURN: 162 8.1e-05%
BRANCH_OTHER: 0 0%

DRAM PAGES: 1048576
Allocated PAGES: 82777
