
*** ChampSim Multicore Out-of-Order Simulator ***

Warmup Instructions: 50000000
Simulation Instructions: 200000000
Number of CPUs: 1
LLC sets: 2048
LLC ways: 16
L0D sets: 16
L0D ways: 2
ROB size: 352
LQ size: 128
SQ size: 72
Secure Berti: OFF
Berti: OFF
Berti Fill: OFF
On commit prefetching: OFF
Hit-based filter: OFF
Time-guarding: ON
Free-slotting: ON
Leap-frogging: ON
Train prefetcher on L0D bypass: OFF
No translation penalty for prefetchers: OFF
Prefetch to L0D only: OFF
Prefetch to L1D only: OFF
Clean evictions: ON
Commit loads: ON
Commit write: ON
Fill commit loads to L2C, LLC: ON
DRAM IO FREQUENCY: 6400
ROB SIZE: 352
Off-chip DRAM Size: 4096 MB Channels: 1 Width: 64-bit Data Rate: 6400 MT/s
CPU 0 runs /home/sumon/secure_berti/GhostMinion/../../traces/spec/600.perlbench_s-570B.champsimtrace.xz
.xz
BTB has LRU replacement policy
ITLB has LRU replacement policy
DTLB has LRU replacement policy
STLB has LRU replacement policy
L1I has LRU replacement policy
L0D has LRU replacement policy
L1D has LRU replacement policy
L2C has LRU replacement policy
LLC has LRU replacement policy
Heartbeat CPU 0 instructions: 10000003 cycles: 3771169 heartbeat IPC: 2.6517 cumulative IPC: 2.6517 (Simulation time: 0 hr 0 min 34 sec) 
Heartbeat CPU 0 instructions: 20000000 cycles: 7478273 heartbeat IPC: 2.69752 cumulative IPC: 2.67441 (Simulation time: 0 hr 1 min 10 sec) 
Heartbeat CPU 0 instructions: 30000000 cycles: 11410696 heartbeat IPC: 2.54296 cumulative IPC: 2.62911 (Simulation time: 0 hr 1 min 44 sec) 
Heartbeat CPU 0 instructions: 40000002 cycles: 15308302 heartbeat IPC: 2.56568 cumulative IPC: 2.61296 (Simulation time: 0 hr 2 min 19 sec) 
Heartbeat CPU 0 instructions: 50000002 cycles: 18987803 heartbeat IPC: 2.71776 cumulative IPC: 2.63327 (Simulation time: 0 hr 2 min 54 sec) 

Warmup complete CPU 0 instructions: 50000002 cycles: 18987803 (Simulation time: 0 hr 2 min 54 sec) 

Heartbeat CPU 0 instructions: 60000000 cycles: 31953290 heartbeat IPC: 0.771278 cumulative IPC: 0.771278 (Simulation time: 0 hr 3 min 34 sec) 
Heartbeat CPU 0 instructions: 70000000 cycles: 52428561 heartbeat IPC: 0.488394 cumulative IPC: 0.598073 (Simulation time: 0 hr 4 min 18 sec) 
Heartbeat CPU 0 instructions: 80000002 cycles: 74024836 heartbeat IPC: 0.463043 cumulative IPC: 0.545088 (Simulation time: 0 hr 5 min 3 sec) 
Heartbeat CPU 0 instructions: 90000003 cycles: 99691979 heartbeat IPC: 0.389603 cumulative IPC: 0.495637 (Simulation time: 0 hr 5 min 50 sec) 
Heartbeat CPU 0 instructions: 100000002 cycles: 113788439 heartbeat IPC: 0.709398 cumulative IPC: 0.527423 (Simulation time: 0 hr 6 min 31 sec) 
Heartbeat CPU 0 instructions: 110000000 cycles: 127770517 heartbeat IPC: 0.715201 cumulative IPC: 0.551558 (Simulation time: 0 hr 7 min 13 sec) 
Heartbeat CPU 0 instructions: 120000003 cycles: 142502499 heartbeat IPC: 0.678796 cumulative IPC: 0.566734 (Simulation time: 0 hr 7 min 56 sec) 
Heartbeat CPU 0 instructions: 130000000 cycles: 157085996 heartbeat IPC: 0.685706 cumulative IPC: 0.579298 (Simulation time: 0 hr 8 min 39 sec) 
Heartbeat CPU 0 instructions: 140000003 cycles: 183404103 heartbeat IPC: 0.379967 cumulative IPC: 0.547391 (Simulation time: 0 hr 9 min 25 sec) 
Heartbeat CPU 0 instructions: 150000001 cycles: 207414911 heartbeat IPC: 0.416479 cumulative IPC: 0.530709 (Simulation time: 0 hr 10 min 15 sec) 
Heartbeat CPU 0 instructions: 160000001 cycles: 227798771 heartbeat IPC: 0.490584 cumulative IPC: 0.526792 (Simulation time: 0 hr 11 min 1 sec) 
Heartbeat CPU 0 instructions: 170000001 cycles: 243317015 heartbeat IPC: 0.644403 cumulative IPC: 0.534928 (Simulation time: 0 hr 11 min 44 sec) 
Heartbeat CPU 0 instructions: 180000000 cycles: 262610199 heartbeat IPC: 0.518318 cumulative IPC: 0.533613 (Simulation time: 0 hr 12 min 29 sec) 
Heartbeat CPU 0 instructions: 190000001 cycles: 288729330 heartbeat IPC: 0.382861 cumulative IPC: 0.519015 (Simulation time: 0 hr 13 min 17 sec) 
Heartbeat CPU 0 instructions: 200000001 cycles: 313159329 heartbeat IPC: 0.409333 cumulative IPC: 0.509907 (Simulation time: 0 hr 14 min 5 sec) 
Heartbeat CPU 0 instructions: 210000000 cycles: 332367664 heartbeat IPC: 0.520607 cumulative IPC: 0.510562 (Simulation time: 0 hr 14 min 49 sec) 
Heartbeat CPU 0 instructions: 220000000 cycles: 347090517 heartbeat IPC: 0.679216 cumulative IPC: 0.51813 (Simulation time: 0 hr 15 min 30 sec) 
Heartbeat CPU 0 instructions: 230000000 cycles: 360670328 heartbeat IPC: 0.736387 cumulative IPC: 0.526805 (Simulation time: 0 hr 16 min 8 sec) 
Heartbeat CPU 0 instructions: 240000002 cycles: 375111101 heartbeat IPC: 0.692484 cumulative IPC: 0.533523 (Simulation time: 0 hr 16 min 45 sec) 
Heartbeat CPU 0 instructions: 250000003 cycles: 390088487 heartbeat IPC: 0.667673 cumulative IPC: 0.538937 (Simulation time: 0 hr 17 min 23 sec) 
Finished CPU 0 instructions: 200000001 cycles: 371100684 cumulative IPC: 0.538937 (Simulation time: 0 hr 17 min 23 sec) 
 Instruction ID: 250000017

ChampSim completed all CPUs

Region of Interest Statistics

CPU 0 cumulative IPC: 0.538937 instructions: 200000001 cycles: 371100684
ITLB SPEC fills:          0  NON-SPEC fills:          0
ITLB Test counter :          0
ITLB Leapfrog:          0
ITLB MSHR merge:          0
ITLB TOTAL     ACCESS:   31178130  HIT:   31119259  MISS:      58871  HIT %:    99.8112  MISS %:   0.188821   MPKI: 0.294355
ITLB LOAD TRANSLATION NON_SPEC    ACCESS:   31178130  HIT:   31119259  MISS:      58871  HIT %:    99.8112  MISS %:   0.188821   MPKI: 0.294355
ITLB PREFETCH  REQUESTED:          0  ISSUED:          0  USEFUL:          0  USELESS:          0
ITLB USEFUL LOAD PREFETCHES:          0 PREFETCH ISSUED TO LOWER LEVEL:          0  ACCURACY: -nan
ITLB TIMELY PREFETCHES:          0 LATE PREFETCHES: 0 DROPPED PREFETCHES: 0
ITLB COMMIT LATE PREFETCHES: 0 MISSED OPPORTUNITY: 0 LATE IN PQ: 0 UNCOVERED: 0
ITLB COMMIT LATE MSHR PREFETCHES: 0
ITLB MPKI TOTAL: 0 MSHR LATE: 0 PQ LATE: 0 COMMIT LATE: 0 MISSED OPPORTUNITY: 0 UNCOVERED: 0
ITLB PREFETCHES SAME FILL-ORIGIN LEVEL: 0 DIFFERENT FILL-ORIGIN LEVEL: 0
ITLB AVERAGE MISS LATENCY: 10.7156 cycles
ITLB AVERAGE MISS LATENCY LOAD: -nan cycles
ITLB AVERAGE MISS LATENCY PREFETCH: -nan cycles
ITLB AVERAGE MSHR OCCUPANCY: 0.00104062
ITLB MSHR FULL: 0
ITLB RQ	ACCESS:   35144277	FORWARD:          0	MERGED:    3944579	TO_CACHE:   31199698

DTLB SPEC fills:          0  NON-SPEC fills:          0
DTLB Test counter :          0
DTLB Leapfrog:          0
DTLB MSHR merge:          0
DTLB TOTAL     ACCESS:   57148330  HIT:   56610470  MISS:     537860  HIT %:    99.0588  MISS %:   0.941165   MPKI: 2.6893
DTLB LOAD TRANSLATION NON_SPEC    ACCESS:   57148330  HIT:   56610470  MISS:     537860  HIT %:    99.0588  MISS %:   0.941165   MPKI: 2.6893
DTLB PREFETCH  REQUESTED:          0  ISSUED:          0  USEFUL:          0  USELESS:          0
DTLB USEFUL LOAD PREFETCHES:          0 PREFETCH ISSUED TO LOWER LEVEL:          0  ACCURACY: -nan
DTLB TIMELY PREFETCHES:          0 LATE PREFETCHES: 0 DROPPED PREFETCHES: 0
DTLB COMMIT LATE PREFETCHES: 0 MISSED OPPORTUNITY: 0 LATE IN PQ: 0 UNCOVERED: 0
DTLB COMMIT LATE MSHR PREFETCHES: 0
DTLB MPKI TOTAL: 0 MSHR LATE: 0 PQ LATE: 0 COMMIT LATE: 0 MISSED OPPORTUNITY: 0 UNCOVERED: 0
DTLB PREFETCHES SAME FILL-ORIGIN LEVEL: 0 DIFFERENT FILL-ORIGIN LEVEL: 0
DTLB AVERAGE MISS LATENCY: 14.7574 cycles
DTLB AVERAGE MISS LATENCY LOAD: -nan cycles
DTLB AVERAGE MISS LATENCY PREFETCH: -nan cycles
DTLB AVERAGE MSHR OCCUPANCY: 0.013344
DTLB MSHR FULL: 1.36445e-06
DTLB RQ	ACCESS:   79008976	FORWARD:          0	MERGED:   21842936	TO_CACHE:   57166040

STLB SPEC fills:          0  NON-SPEC fills:          0
STLB Test counter :          0
STLB Leapfrog:          0
STLB MSHR merge:          0
STLB TOTAL     ACCESS:     596731  HIT:     573022  MISS:      23709  HIT %:    96.0269  MISS %:    3.97315   MPKI: 0.118545
STLB LOAD TRANSLATION NON_SPEC    ACCESS:     596731  HIT:     573022  MISS:      23709  HIT %:    96.0269  MISS %:    3.97315   MPKI: 0.118545
STLB PREFETCH  REQUESTED:          0  ISSUED:          0  USEFUL:          0  USELESS:          0
STLB USEFUL LOAD PREFETCHES:          0 PREFETCH ISSUED TO LOWER LEVEL:          0  ACCURACY: -nan
STLB TIMELY PREFETCHES:          0 LATE PREFETCHES: 0 DROPPED PREFETCHES: 0
STLB COMMIT LATE PREFETCHES: 0 MISSED OPPORTUNITY: 0 LATE IN PQ: 0 UNCOVERED: 0
STLB COMMIT LATE MSHR PREFETCHES: 0
STLB MPKI TOTAL: 0 MSHR LATE: 0 PQ LATE: 0 COMMIT LATE: 0 MISSED OPPORTUNITY: 0 UNCOVERED: 0
STLB PREFETCHES SAME FILL-ORIGIN LEVEL: 0 DIFFERENT FILL-ORIGIN LEVEL: 0
STLB AVERAGE MISS LATENCY: 134.247 cycles
STLB AVERAGE MISS LATENCY LOAD: -nan cycles
STLB AVERAGE MISS LATENCY PREFETCH: -nan cycles
STLB AVERAGE MSHR OCCUPANCY: 0.00575134
STLB MSHR FULL: 0
STLB RQ	ACCESS:     596731	FORWARD:          0	MERGED:          0	TO_CACHE:     596731

STLB Hit, L1D data hit: 0
STLB Hit, L2C data hit: 0
STLB Hit, LLC data hit: 0
STLB Hit, LLC data miss: 0
STLB STLB hints to L2: 0
L0D SPEC fills:   22330893  NON-SPEC fills:          0
L0D TimeGuard Request with older TS:      59314 Restricted eviction:      53590 read:      39123
L0D Test counter :          0
L0D Leapfrog:          0
L0D MSHR merge:     634945
L0D TOTAL     ACCESS:   38633398  HIT:    3374309  MISS:   35259089  HIT %:    8.73418  MISS %:    91.2658   MPKI: 176.295
L0D LOAD      TOTAL       ACCESS:   38633398  HIT:    3374309  MISS:   35259089  HIT %:    8.73418  MISS %:    91.2658   MPKI: 176.295
L0D LOAD      NON_SPEC    ACCESS:   13022231  HIT:     147617  MISS:   12874614  HIT %:    1.13358  MISS %:    98.8664   MPKI: 64.3731
L0D LOAD      SPEC        ACCESS:   25611167  HIT:    3226692  MISS:   22384475  HIT %:    12.5988  MISS %:    87.4012   MPKI: 111.922
L0D PREFETCH  REQUESTED:          0  ISSUED:          0  USEFUL:          0  USELESS:          0
L0D USEFUL LOAD PREFETCHES:          0 PREFETCH ISSUED TO LOWER LEVEL:          0  ACCURACY: -nan
L0D TIMELY PREFETCHES:          0 LATE PREFETCHES: 0 DROPPED PREFETCHES: 0
L0D COMMIT LATE PREFETCHES: 0 MISSED OPPORTUNITY: 0 LATE IN PQ: 0 UNCOVERED: 0
L0D COMMIT LATE MSHR PREFETCHES: 0
L0D MPKI TOTAL: 179.47 MSHR LATE: 0 PQ LATE: 0 COMMIT LATE: 0 MISSED OPPORTUNITY: 0 UNCOVERED: 0
L0D PREFETCHES SAME FILL-ORIGIN LEVEL: 0 DIFFERENT FILL-ORIGIN LEVEL: 0
L0D AVERAGE MISS LATENCY: 6.31545 cycles
L0D AVERAGE MISS LATENCY LOAD: 6.31545 cycles
L0D AVERAGE MISS LATENCY PREFETCH: -nan cycles
L0D AVERAGE MSHR OCCUPANCY: 0.585486
L0D MSHR FULL: 5.37326e-06
L0D RQ	ACCESS:   46796893	FORWARD:          0	MERGED:    7528555	TO_CACHE:   39268338
L0D WQ	ACCESS:   39740638	FORWARD:          0	MERGED:          0	TO_CACHE:   39740638

L1D SPEC fills:          0  NON-SPEC fills:     232603
L1D Test counter :     393383
L1D Leapfrog:          0
L1D MSHR merge:       2945
L1D TOTAL     ACCESS:  104206545  HIT:  103332834  MISS:     873711  HIT %:    99.1616  MISS %:   0.838442   MPKI: 4.36855
L1D LOAD      TOTAL       ACCESS:   35256144  HIT:   34726679  MISS:     529465  HIT %:    98.4982  MISS %:    1.50177   MPKI: 2.64732
L1D LOAD      NON_SPEC    ACCESS:   12872679  HIT:   12640076  MISS:     232603  HIT %:     98.193  MISS %:    1.80695   MPKI: 1.16301
L1D LOAD      SPEC        ACCESS:   22383465  HIT:   22086603  MISS:     296862  HIT %:    98.6737  MISS %:    1.32626   MPKI: 1.48431
L1D RFO       NON_SPEC    ACCESS:   38216289  HIT:   38167970  MISS:      48319  HIT %:    99.8736  MISS %:   0.126436   MPKI: 0.241595
L1D COMMIT LOAD NON_SPEC    ACCESS:    8502755  HIT:    8500068  MISS:       2687  HIT %:    99.9684  MISS %:  0.0316015   MPKI: 0.013435
L1D COMMIT WRITE NON_SPEC    ACCESS:   22231357  HIT:   21938117  MISS:     293240  HIT %:     98.681  MISS %:    1.31904   MPKI: 1.4662
L1D PREFETCH  REQUESTED:          0  ISSUED:          0  USEFUL:          0  USELESS:          0
L1D USEFUL LOAD PREFETCHES:          0 PREFETCH ISSUED TO LOWER LEVEL:          0  ACCURACY: -nan
L1D TIMELY PREFETCHES:          0 LATE PREFETCHES: 0 DROPPED PREFETCHES: 0
L1D COMMIT LATE PREFETCHES: 0 MISSED OPPORTUNITY: 0 LATE IN PQ: 0 UNCOVERED: 0
L1D COMMIT LATE MSHR PREFETCHES: 0
L1D MPKI TOTAL: 2.66205 MSHR LATE: 0 PQ LATE: 0 COMMIT LATE: 0 MISSED OPPORTUNITY: 0 UNCOVERED: 0
L1D PREFETCHES SAME FILL-ORIGIN LEVEL: 0 DIFFERENT FILL-ORIGIN LEVEL: 0
L1D AVERAGE MISS LATENCY: 49.8666 cycles
L1D AVERAGE MISS LATENCY LOAD: 77.1586 cycles
L1D AVERAGE MISS LATENCY PREFETCH: -nan cycles
L1D AVERAGE MSHR OCCUPANCY: 0.0208153
L1D MSHR FULL: 2.40846e-05
L1D RQ	ACCESS:   46703754	FORWARD:          0	MERGED:    2606827	TO_CACHE:   43761953
L1D WQ	ACCESS:   62043460	FORWARD:     334974	MERGED:    1501418	TO_CACHE:   60542042

L1D UNIQUE REGIONS ACCESSED: 0
L1D REGIONS CONFLICTS: 0
L1D Cross Page Prefetch Requests: 0
L1D Same Page Prefetch Requests: 0
L1D ROI Sum of L1D PQ occupancy: 0
L1D PREFETCHES PUSHED FROM L2C: 0
L1I SPEC fills:          0  NON-SPEC fills:          0
L1I Test counter :          0
L1I Leapfrog:          0
L1I MSHR merge:     219621
L1I TOTAL     ACCESS:   34924656  HIT:   34050305  MISS:     874351  HIT %:    97.4965  MISS %:    2.50354   MPKI: 4.37175
L1I LOAD      TOTAL       ACCESS:   34924656  HIT:   34050305  MISS:     874351  HIT %:    97.4965  MISS %:    2.50354   MPKI: 4.37175
L1I LOAD      NON_SPEC    ACCESS:   34924656  HIT:   34050305  MISS:     874351  HIT %:    97.4965  MISS %:    2.50354   MPKI: 4.37175
L1I PREFETCH  REQUESTED:          0  ISSUED:          0  USEFUL:          0  USELESS:          0
L1I USEFUL LOAD PREFETCHES:          0 PREFETCH ISSUED TO LOWER LEVEL:          0  ACCURACY: -nan
L1I TIMELY PREFETCHES:          0 LATE PREFETCHES: 0 DROPPED PREFETCHES: 0
L1I COMMIT LATE PREFETCHES: 0 MISSED OPPORTUNITY: 0 LATE IN PQ: 0 UNCOVERED: 0
L1I COMMIT LATE MSHR PREFETCHES: 0
L1I MPKI TOTAL: 5.46986 MSHR LATE: 0 PQ LATE: 0 COMMIT LATE: 0 MISSED OPPORTUNITY: 0 UNCOVERED: 0
L1I PREFETCHES SAME FILL-ORIGIN LEVEL: 0 DIFFERENT FILL-ORIGIN LEVEL: 0
L1I AVERAGE MISS LATENCY: 17.4482 cycles
L1I AVERAGE MISS LATENCY LOAD: 17.4482 cycles
L1I AVERAGE MISS LATENCY PREFETCH: -nan cycles
L1I AVERAGE MSHR OCCUPANCY: 0.033042
L1I MSHR FULL: 0
L1I RQ	ACCESS:   55991240	FORWARD:          0	MERGED:   20846963	TO_CACHE:   35144277

BTB SPEC fills:          0  NON-SPEC fills:          0
BTB Test counter :          0
BTB Leapfrog:          0
BTB MSHR merge:          0
BTB TOTAL     ACCESS:   25984963  HIT:   24489037  MISS:    1495926  HIT %:    94.2431  MISS %:    5.75689   MPKI: 7.47963
BTB BRANCH_DIRECT_JUMP	ACCESS:    4141047  HIT:    4130444  MISS:      10603
BTB BRANCH_INDIRECT	ACCESS:    1274734  HIT:     405661  MISS:     869073
BTB BRANCH_CONDITIONAL	ACCESS:   16683297  HIT:   16654181  MISS:      29116
BTB BRANCH_DIRECT_CALL	ACCESS:    1551808  HIT:    1544398  MISS:       7410
BTB BRANCH_INDIRECT_CALL	ACCESS:     391135  HIT:      53393  MISS:     337742
BTB BRANCH_RETURN	ACCESS:    1942942  HIT:    1700960  MISS:     241982
BTB BRANCH_OTHER ACCESS:          0  HIT:          0  MISS:          0

L2C SPEC fills:          0  NON-SPEC fills:     112229
L2C Test counter :     171206
L2C Leapfrog:          0
L2C MSHR merge:          0
L2C TOTAL     ACCESS:    2036707  HIT:    1626983  MISS:     409724  HIT %:     79.883  MISS %:     20.117   MPKI: 2.04862
L2C LOAD      TOTAL       ACCESS:    1403798  HIT:    1140844  MISS:     262954  HIT %:    81.2684  MISS %:    18.7316   MPKI: 1.31477
L2C LOAD      NON_SPEC    ACCESS:    1106954  HIT:     961621  MISS:     145333  HIT %:    86.8709  MISS %:    13.1291   MPKI: 0.726665
L2C LOAD      SPEC        ACCESS:     296844  HIT:     179223  MISS:     117621  HIT %:    60.3762  MISS %:    39.6238   MPKI: 0.588105
L2C RFO       NON_SPEC    ACCESS:      48319  HIT:      34327  MISS:      13992  HIT %:    71.0424  MISS %:    28.9576   MPKI: 0.06996
L2C WRITEBACK NON_SPEC    ACCESS:      70032  HIT:      69700  MISS:        332  HIT %:    99.5259  MISS %:   0.474069   MPKI: 0.00166
L2C CLEAN_EVICTION NON_SPEC    ACCESS:     393383  HIT:     272707  MISS:     120676  HIT %:    69.3235  MISS %:    30.6765   MPKI: 0.60338
L2C COMMIT LOAD NON_SPEC    ACCESS:       2684  HIT:       2359  MISS:        325  HIT %:    87.8912  MISS %:    12.1088   MPKI: 0.001625
L2C LOAD TRANSLATION NON_SPEC    ACCESS:     118491  HIT:     107046  MISS:      11445  HIT %:     90.341  MISS %:    9.65896   MPKI: 0.057225
L2C PREFETCH  REQUESTED:          0  ISSUED:          0  USEFUL:          0  USELESS:          0
L2C USEFUL LOAD PREFETCHES:          0 PREFETCH ISSUED TO LOWER LEVEL:          0  ACCURACY: -nan
L2C TIMELY PREFETCHES:          0 LATE PREFETCHES: 0 DROPPED PREFETCHES: 0
L2C COMMIT LATE PREFETCHES: 0 MISSED OPPORTUNITY: 0 LATE IN PQ: 0 UNCOVERED: 0
L2C COMMIT LATE MSHR PREFETCHES: 0
L2C MPKI TOTAL: 1.31477 MSHR LATE: 0 PQ LATE: 0 COMMIT LATE: 0 MISSED OPPORTUNITY: 0 UNCOVERED: 0
L2C PREFETCHES SAME FILL-ORIGIN LEVEL: 0 DIFFERENT FILL-ORIGIN LEVEL: 0
L2C AVERAGE MISS LATENCY: 97.9887 cycles
L2C AVERAGE MISS LATENCY LOAD: 140.921 cycles
L2C AVERAGE MISS LATENCY PREFETCH: -nan cycles
L2C AVERAGE MSHR OCCUPANCY: 0.102303
L2C MSHR FULL: 0
L2C RQ	ACCESS:    1573313	FORWARD:          0	MERGED:          0	TO_CACHE:    1573292
L2C WQ	ACCESS:     463415	FORWARD:         21	MERGED:          0	TO_CACHE:     463415

L2C Instructions Evicting Data 26890
L2C Translations Evicting Data 9450
L2C Data Evicting Data 106784
L2C Instructions Evicting Instructions 4326
L2C Translations Evicting Instructions 1458
L2C Data Evicting Instructions 13756
L2C Instructions Evicting Translations 1493
L2C Translations Evicting Translations 396
L2C Data Evicting Translations 4916
L2C Dense regions hint from L2: 0
PSCL5 SPEC fills:          0  NON-SPEC fills:          0
PSCL5 Test counter :          0
PSCL5 Leapfrog:          0
PSCL5 MSHR merge:          0
PSCL5 TOTAL     ACCESS:          0  HIT:          0  MISS:          0  HIT %:       -nan  MISS %:       -nan   MPKI: 0
PSCL5 PREFETCH  REQUESTED:          0  ISSUED:          0  USEFUL:          0  USELESS:          0
PSCL5 USEFUL LOAD PREFETCHES:          0 PREFETCH ISSUED TO LOWER LEVEL:          0  ACCURACY: -nan
PSCL5 TIMELY PREFETCHES:          0 LATE PREFETCHES: 0 DROPPED PREFETCHES: 0
PSCL5 COMMIT LATE PREFETCHES: 0 MISSED OPPORTUNITY: 0 LATE IN PQ: 0 UNCOVERED: 0
PSCL5 COMMIT LATE MSHR PREFETCHES: 0
PSCL5 MPKI TOTAL: 0 MSHR LATE: 0 PQ LATE: 0 COMMIT LATE: 0 MISSED OPPORTUNITY: 0 UNCOVERED: 0
PSCL5 PREFETCHES SAME FILL-ORIGIN LEVEL: 0 DIFFERENT FILL-ORIGIN LEVEL: 0

PSCL4 SPEC fills:          0  NON-SPEC fills:          0
PSCL4 Test counter :          0
PSCL4 Leapfrog:          0
PSCL4 MSHR merge:          0
PSCL4 TOTAL     ACCESS:          0  HIT:          0  MISS:          0  HIT %:       -nan  MISS %:       -nan   MPKI: 0
PSCL4 PREFETCH  REQUESTED:          0  ISSUED:          0  USEFUL:          0  USELESS:          0
PSCL4 USEFUL LOAD PREFETCHES:          0 PREFETCH ISSUED TO LOWER LEVEL:          0  ACCURACY: -nan
PSCL4 TIMELY PREFETCHES:          0 LATE PREFETCHES: 0 DROPPED PREFETCHES: 0
PSCL4 COMMIT LATE PREFETCHES: 0 MISSED OPPORTUNITY: 0 LATE IN PQ: 0 UNCOVERED: 0
PSCL4 COMMIT LATE MSHR PREFETCHES: 0
PSCL4 MPKI TOTAL: 0 MSHR LATE: 0 PQ LATE: 0 COMMIT LATE: 0 MISSED OPPORTUNITY: 0 UNCOVERED: 0
PSCL4 PREFETCHES SAME FILL-ORIGIN LEVEL: 0 DIFFERENT FILL-ORIGIN LEVEL: 0

PSCL3 SPEC fills:          0  NON-SPEC fills:          0
PSCL3 Test counter :          0
PSCL3 Leapfrog:          0
PSCL3 MSHR merge:          0
PSCL3 TOTAL     ACCESS:          0  HIT:          0  MISS:          0  HIT %:       -nan  MISS %:       -nan   MPKI: 0
PSCL3 PREFETCH  REQUESTED:          0  ISSUED:          0  USEFUL:          0  USELESS:          0
PSCL3 USEFUL LOAD PREFETCHES:          0 PREFETCH ISSUED TO LOWER LEVEL:          0  ACCURACY: -nan
PSCL3 TIMELY PREFETCHES:          0 LATE PREFETCHES: 0 DROPPED PREFETCHES: 0
PSCL3 COMMIT LATE PREFETCHES: 0 MISSED OPPORTUNITY: 0 LATE IN PQ: 0 UNCOVERED: 0
PSCL3 COMMIT LATE MSHR PREFETCHES: 0
PSCL3 MPKI TOTAL: 0 MSHR LATE: 0 PQ LATE: 0 COMMIT LATE: 0 MISSED OPPORTUNITY: 0 UNCOVERED: 0
PSCL3 PREFETCHES SAME FILL-ORIGIN LEVEL: 0 DIFFERENT FILL-ORIGIN LEVEL: 0

PSCL2 SPEC fills:          0  NON-SPEC fills:          0
PSCL2 Test counter :          0
PSCL2 Leapfrog:          0
PSCL2 MSHR merge:          0
PSCL2 TOTAL     ACCESS:          0  HIT:          0  MISS:          0  HIT %:       -nan  MISS %:       -nan   MPKI: 0
PSCL2 PREFETCH  REQUESTED:          0  ISSUED:          0  USEFUL:          0  USELESS:          0
PSCL2 USEFUL LOAD PREFETCHES:          0 PREFETCH ISSUED TO LOWER LEVEL:          0  ACCURACY: -nan
PSCL2 TIMELY PREFETCHES:          0 LATE PREFETCHES: 0 DROPPED PREFETCHES: 0
PSCL2 COMMIT LATE PREFETCHES: 0 MISSED OPPORTUNITY: 0 LATE IN PQ: 0 UNCOVERED: 0
PSCL2 COMMIT LATE MSHR PREFETCHES: 0
PSCL2 MPKI TOTAL: 0 MSHR LATE: 0 PQ LATE: 0 COMMIT LATE: 0 MISSED OPPORTUNITY: 0 UNCOVERED: 0
PSCL2 PREFETCHES SAME FILL-ORIGIN LEVEL: 0 DIFFERENT FILL-ORIGIN LEVEL: 0

LLC SPEC fills:          0  NON-SPEC fills:      97100
LLC Test counter :     124114
LLC Leapfrog:          0
LLC MSHR merge:          0
LLC TOTAL     ACCESS:     481958  HIT:     162899  MISS:     319059  HIT %:    33.7994  MISS %:    66.2006   MPKI: 1.59529
LLC LOAD      TOTAL       ACCESS:     262953  HIT:      57502  MISS:     205451  HIT %:    21.8678  MISS %:    78.1322   MPKI: 1.02725
LLC LOAD      NON_SPEC    ACCESS:     145333  HIT:      35819  MISS:     109514  HIT %:    24.6462  MISS %:    75.3538   MPKI: 0.54757
LLC LOAD      SPEC        ACCESS:     117620  HIT:      21683  MISS:      95937  HIT %:    18.4348  MISS %:    81.5652   MPKI: 0.479685
LLC RFO       NON_SPEC    ACCESS:      13992  HIT:       4228  MISS:       9764  HIT %:    30.2173  MISS %:    69.7827   MPKI: 0.04882
LLC WRITEBACK NON_SPEC    ACCESS:      22037  HIT:      21765  MISS:        272  HIT %:    98.7657  MISS %:    1.23429   MPKI: 0.00136
LLC CLEAN_EVICTION NON_SPEC    ACCESS:     171206  HIT:      72501  MISS:      98705  HIT %:    42.3472  MISS %:    57.6528   MPKI: 0.493525
LLC COMMIT LOAD NON_SPEC    ACCESS:        325  HIT:        159  MISS:        166  HIT %:    48.9231  MISS %:    51.0769   MPKI: 0.00083
LLC LOAD TRANSLATION NON_SPEC    ACCESS:      11445  HIT:       6744  MISS:       4701  HIT %:    58.9253  MISS %:    41.0747   MPKI: 0.023505
LLC PREFETCH  REQUESTED:          0  ISSUED:          0  USEFUL:          0  USELESS:          0
LLC USEFUL LOAD PREFETCHES:          0 PREFETCH ISSUED TO LOWER LEVEL:          0  ACCURACY: -nan
LLC TIMELY PREFETCHES:          0 LATE PREFETCHES: 0 DROPPED PREFETCHES: 0
LLC COMMIT LATE PREFETCHES: 0 MISSED OPPORTUNITY: 0 LATE IN PQ: 0 UNCOVERED: 0
LLC COMMIT LATE MSHR PREFETCHES: 0
LLC MPKI TOTAL: 1.02725 MSHR LATE: 0 PQ LATE: 0 COMMIT LATE: 0 MISSED OPPORTUNITY: 0 UNCOVERED: 0
LLC PREFETCHES SAME FILL-ORIGIN LEVEL: 0 DIFFERENT FILL-ORIGIN LEVEL: 0
LLC AVERAGE MISS LATENCY: 101.956 cycles
LLC AVERAGE MISS LATENCY LOAD: 147.05 cycles
LLC AVERAGE MISS LATENCY PREFETCH: -nan cycles
LLC AVERAGE MSHR OCCUPANCY: 0.208593
LLC MSHR FULL: 0
LLC RQ	ACCESS:     288716	FORWARD:          0	MERGED:          0	TO_CACHE:     288715
LLC WQ	ACCESS:     193243	FORWARD:          1	MERGED:          0	TO_CACHE:     193243

LLC Dense regions hint to LLC: 0

RAW hits: 3034342
Loads Generated: 49831234
Loads sent to L1D: 46796893
Stores Generated: 39740622
Stores sent to L1D: 39740638
Major fault: 0 Minor fault: 5924
Allocated PAGES: 5924
Total Load insts: 55953219
Total Non-spec loads: 13939846
Percentage of speculative loads: 75.0866

LeapFrogging counter: 157
Commit hits: 22302822 miss: 11444668
Commit hit %: 66.0874 miss %: 33.9126
Commits not translated: 0
Loads retired: 529465
Stores retired: 39740638
Cache fills: 529465
L1D response latency: 77.1586 cycles
Load retirement latency: 108.705 cycles
OOO test counter: 0
Discarded buffer inserts: 22302822 hits: 3455 hit %: 0.0154913

DRAM Statistics
 CHANNEL 0
 RQ ROW_BUFFER_HIT:      33701  ROW_BUFFER_MISS:     186381
 DBUS_CONGESTED:         35
 WQ ROW_BUFFER_HIT:      36761  ROW_BUFFER_MISS:     100524  FULL:          0

 AVG_CONGESTED_CYCLE: 5
 All warmup complete: 2
Channel 0 Bank busy for read cycles: 0
Channel 0 Bank busy for write cycles: 0
Channel 0
Rank 0
0banks busy for read cycles: 326151455
0banks busy for write cycles: 75850
1banks busy for read cycles: 23374082
1banks busy for write cycles: 13499770
2banks busy for read cycles: 2420445
2banks busy for write cycles: 3849228
3banks busy for read cycles: 348333
3banks busy for write cycles: 866559
4banks busy for read cycles: 35260
4banks busy for write cycles: 222697
5banks busy for read cycles: 16952
5banks busy for write cycles: 95077
6banks busy for read cycles: 9394
6banks busy for write cycles: 54566
7banks busy for read cycles: 7502
7banks busy for write cycles: 36041
8banks busy for read cycles: 6006
8banks busy for write cycles: 31468

CPU 0 Branch Prediction Accuracy: 99.0693% MPKI: 1.53431 Average ROB Occupancy at Mispredict: 50.4473
Branch types
NOT_BRANCH: 167028092 83.514%
BRANCH_DIRECT_JUMP: 4141047 2.07052%
BRANCH_INDIRECT: 1274734 0.637367%
BRANCH_CONDITIONAL: 23669876 11.8349%
BRANCH_DIRECT_CALL: 1551808 0.775904%
BRANCH_INDIRECT_CALL: 391135 0.195567%
BRANCH_RETURN: 1942942 0.971471%
BRANCH_OTHER: 0 0%

DRAM PAGES: 1048576
Allocated PAGES: 5924
