
*** ChampSim Multicore Out-of-Order Simulator ***

Warmup Instructions: 50000000
Simulation Instructions: 200000000
Number of CPUs: 1
LLC sets: 2048
LLC ways: 16
L0D sets: 16
L0D ways: 2
ROB size: 352
LQ size: 128
SQ size: 72
Secure Berti: OFF
Berti: OFF
Berti Fill: OFF
On commit prefetching: OFF
Hit-based filter: OFF
Time-guarding: ON
Free-slotting: ON
Leap-frogging: ON
Train prefetcher on L0D bypass: OFF
No translation penalty for prefetchers: OFF
Prefetch to L0D only: OFF
Prefetch to L1D only: OFF
Clean evictions: ON
Commit loads: ON
Commit write: ON
Fill commit loads to L2C, LLC: ON
DRAM IO FREQUENCY: 6400
ROB SIZE: 352
Off-chip DRAM Size: 4096 MB Channels: 1 Width: 64-bit Data Rate: 6400 MT/s
CPU 0 runs /home/sumon/secure_berti/GhostMinion/../../traces/spec/603.bwaves_s-891B.champsimtrace.xz
.xz
BTB has LRU replacement policy
ITLB has LRU replacement policy
DTLB has LRU replacement policy
STLB has LRU replacement policy
L1I has LRU replacement policy
L0D has LRU replacement policy
L1D has LRU replacement policy
L2C has LRU replacement policy
LLC has LRU replacement policy
Heartbeat CPU 0 instructions: 10000003 cycles: 2808599 heartbeat IPC: 3.5605 cumulative IPC: 3.5605 (Simulation time: 0 hr 0 min 26 sec) 
Heartbeat CPU 0 instructions: 20000003 cycles: 5617184 heartbeat IPC: 3.56051 cumulative IPC: 3.5605 (Simulation time: 0 hr 0 min 50 sec) 
Heartbeat CPU 0 instructions: 30000003 cycles: 8425970 heartbeat IPC: 3.56026 cumulative IPC: 3.56042 (Simulation time: 0 hr 1 min 15 sec) 
Heartbeat CPU 0 instructions: 40000000 cycles: 11234602 heartbeat IPC: 3.56045 cumulative IPC: 3.56043 (Simulation time: 0 hr 1 min 40 sec) 
Heartbeat CPU 0 instructions: 50000002 cycles: 14178794 heartbeat IPC: 3.39652 cumulative IPC: 3.52639 (Simulation time: 0 hr 2 min 0 sec) 

Warmup complete CPU 0 instructions: 50000002 cycles: 14178794 (Simulation time: 0 hr 2 min 0 sec) 

Heartbeat CPU 0 instructions: 60000003 cycles: 30844853 heartbeat IPC: 0.600022 cumulative IPC: 0.600022 (Simulation time: 0 hr 2 min 36 sec) 
Heartbeat CPU 0 instructions: 70000001 cycles: 47507748 heartbeat IPC: 0.600136 cumulative IPC: 0.600079 (Simulation time: 0 hr 3 min 11 sec) 
Heartbeat CPU 0 instructions: 80000002 cycles: 64182057 heartbeat IPC: 0.599725 cumulative IPC: 0.599961 (Simulation time: 0 hr 3 min 46 sec) 
Heartbeat CPU 0 instructions: 90000001 cycles: 80839095 heartbeat IPC: 0.600347 cumulative IPC: 0.600057 (Simulation time: 0 hr 4 min 21 sec) 
Heartbeat CPU 0 instructions: 100000002 cycles: 97504338 heartbeat IPC: 0.600051 cumulative IPC: 0.600056 (Simulation time: 0 hr 4 min 55 sec) 
Heartbeat CPU 0 instructions: 110000000 cycles: 114172267 heartbeat IPC: 0.599954 cumulative IPC: 0.600039 (Simulation time: 0 hr 5 min 30 sec) 
Heartbeat CPU 0 instructions: 120000001 cycles: 130841643 heartbeat IPC: 0.599903 cumulative IPC: 0.60002 (Simulation time: 0 hr 6 min 4 sec) 
Heartbeat CPU 0 instructions: 130000002 cycles: 147521341 heartbeat IPC: 0.599531 cumulative IPC: 0.599959 (Simulation time: 0 hr 6 min 38 sec) 
Heartbeat CPU 0 instructions: 140000003 cycles: 164206505 heartbeat IPC: 0.599335 cumulative IPC: 0.599889 (Simulation time: 0 hr 7 min 13 sec) 
Heartbeat CPU 0 instructions: 150000001 cycles: 180876695 heartbeat IPC: 0.599873 cumulative IPC: 0.599888 (Simulation time: 0 hr 7 min 47 sec) 
Heartbeat CPU 0 instructions: 160000002 cycles: 197542496 heartbeat IPC: 0.600031 cumulative IPC: 0.599901 (Simulation time: 0 hr 8 min 21 sec) 
Heartbeat CPU 0 instructions: 170000000 cycles: 214214958 heartbeat IPC: 0.599791 cumulative IPC: 0.599892 (Simulation time: 0 hr 8 min 56 sec) 
Heartbeat CPU 0 instructions: 180000001 cycles: 230909484 heartbeat IPC: 0.598999 cumulative IPC: 0.599823 (Simulation time: 0 hr 9 min 30 sec) 
Heartbeat CPU 0 instructions: 190000003 cycles: 257196657 heartbeat IPC: 0.380414 cumulative IPC: 0.576089 (Simulation time: 0 hr 10 min 10 sec) 
Heartbeat CPU 0 instructions: 200000003 cycles: 294327560 heartbeat IPC: 0.269317 cumulative IPC: 0.53543 (Simulation time: 0 hr 10 min 55 sec) 
Heartbeat CPU 0 instructions: 210000003 cycles: 331487903 heartbeat IPC: 0.269104 cumulative IPC: 0.50424 (Simulation time: 0 hr 11 min 40 sec) 
Heartbeat CPU 0 instructions: 220000000 cycles: 368607421 heartbeat IPC: 0.2694 cumulative IPC: 0.479645 (Simulation time: 0 hr 12 min 25 sec) 
Heartbeat CPU 0 instructions: 230000000 cycles: 405785864 heartbeat IPC: 0.268973 cumulative IPC: 0.459644 (Simulation time: 0 hr 13 min 10 sec) 
Heartbeat CPU 0 instructions: 240000002 cycles: 442977585 heartbeat IPC: 0.268877 cumulative IPC: 0.443098 (Simulation time: 0 hr 13 min 55 sec) 
Heartbeat CPU 0 instructions: 250000002 cycles: 480107070 heartbeat IPC: 0.269328 cumulative IPC: 0.429251 (Simulation time: 0 hr 14 min 40 sec) 
Finished CPU 0 instructions: 200000000 cycles: 465928276 cumulative IPC: 0.429251 (Simulation time: 0 hr 14 min 40 sec) 
 Instruction ID: 250000334

ChampSim completed all CPUs

Region of Interest Statistics

CPU 0 cumulative IPC: 0.429251 instructions: 200000000 cycles: 465928276
ITLB SPEC fills:          0  NON-SPEC fills:          0
ITLB Test counter :          0
ITLB Leapfrog:          0
ITLB MSHR merge:          0
ITLB TOTAL     ACCESS:   35155290  HIT:   35155289  MISS:          1  HIT %:        100  MISS %: 2.84452e-06   MPKI: 5e-06
ITLB LOAD TRANSLATION NON_SPEC    ACCESS:   35155290  HIT:   35155289  MISS:          1  HIT %:        100  MISS %: 2.84452e-06   MPKI: 5e-06
ITLB PREFETCH  REQUESTED:          0  ISSUED:          0  USEFUL:          0  USELESS:          0
ITLB USEFUL LOAD PREFETCHES:          0 PREFETCH ISSUED TO LOWER LEVEL:          0  ACCURACY: -nan
ITLB TIMELY PREFETCHES:          0 LATE PREFETCHES: 0 DROPPED PREFETCHES: 0
ITLB COMMIT LATE PREFETCHES: 0 MISSED OPPORTUNITY: 0 LATE IN PQ: 0 UNCOVERED: 0
ITLB COMMIT LATE MSHR PREFETCHES: 0
ITLB MPKI TOTAL: 0 MSHR LATE: 0 PQ LATE: 0 COMMIT LATE: 0 MISSED OPPORTUNITY: 0 UNCOVERED: 0
ITLB PREFETCHES SAME FILL-ORIGIN LEVEL: 0 DIFFERENT FILL-ORIGIN LEVEL: 0
ITLB AVERAGE MISS LATENCY: 1055 cycles
ITLB AVERAGE MISS LATENCY LOAD: -nan cycles
ITLB AVERAGE MISS LATENCY PREFETCH: -nan cycles
ITLB AVERAGE MSHR OCCUPANCY: 2.84452e-08
ITLB MSHR FULL: 0
ITLB RQ	ACCESS:   36664117	FORWARD:          0	MERGED:    1508827	TO_CACHE:   35155290

DTLB SPEC fills:          0  NON-SPEC fills:          0
DTLB Test counter :          0
DTLB Leapfrog:          0
DTLB MSHR merge:          0
DTLB TOTAL     ACCESS:   20544187  HIT:   20483533  MISS:      60654  HIT %:    99.7048  MISS %:   0.295237   MPKI: 0.30327
DTLB LOAD TRANSLATION NON_SPEC    ACCESS:   20544187  HIT:   20483533  MISS:      60654  HIT %:    99.7048  MISS %:   0.295237   MPKI: 0.30327
DTLB PREFETCH  REQUESTED:          0  ISSUED:          0  USEFUL:          0  USELESS:          0
DTLB USEFUL LOAD PREFETCHES:          0 PREFETCH ISSUED TO LOWER LEVEL:          0  ACCURACY: -nan
DTLB TIMELY PREFETCHES:          0 LATE PREFETCHES: 0 DROPPED PREFETCHES: 0
DTLB COMMIT LATE PREFETCHES: 0 MISSED OPPORTUNITY: 0 LATE IN PQ: 0 UNCOVERED: 0
DTLB COMMIT LATE MSHR PREFETCHES: 0
DTLB MPKI TOTAL: 0 MSHR LATE: 0 PQ LATE: 0 COMMIT LATE: 0 MISSED OPPORTUNITY: 0 UNCOVERED: 0
DTLB PREFETCHES SAME FILL-ORIGIN LEVEL: 0 DIFFERENT FILL-ORIGIN LEVEL: 0
DTLB AVERAGE MISS LATENCY: 162.125 cycles
DTLB AVERAGE MISS LATENCY LOAD: -nan cycles
DTLB AVERAGE MISS LATENCY PREFETCH: -nan cycles
DTLB AVERAGE MSHR OCCUPANCY: 0.00638579
DTLB MSHR FULL: 0
DTLB RQ	ACCESS:   22659153	FORWARD:          0	MERGED:    2074084	TO_CACHE:   20585069

STLB SPEC fills:          0  NON-SPEC fills:          0
STLB Test counter :          0
STLB Leapfrog:          0
STLB MSHR merge:          0
STLB TOTAL     ACCESS:      60655  HIT:        337  MISS:      60318  HIT %:   0.555601  MISS %:    99.4444   MPKI: 0.30159
STLB LOAD TRANSLATION NON_SPEC    ACCESS:      60655  HIT:        337  MISS:      60318  HIT %:   0.555601  MISS %:    99.4444   MPKI: 0.30159
STLB PREFETCH  REQUESTED:          0  ISSUED:          0  USEFUL:          0  USELESS:          0
STLB USEFUL LOAD PREFETCHES:          0 PREFETCH ISSUED TO LOWER LEVEL:          0  ACCURACY: -nan
STLB TIMELY PREFETCHES:          0 LATE PREFETCHES: 0 DROPPED PREFETCHES: 0
STLB COMMIT LATE PREFETCHES: 0 MISSED OPPORTUNITY: 0 LATE IN PQ: 0 UNCOVERED: 0
STLB COMMIT LATE MSHR PREFETCHES: 0
STLB MPKI TOTAL: 0 MSHR LATE: 0 PQ LATE: 0 COMMIT LATE: 0 MISSED OPPORTUNITY: 0 UNCOVERED: 0
STLB PREFETCHES SAME FILL-ORIGIN LEVEL: 0 DIFFERENT FILL-ORIGIN LEVEL: 0
STLB AVERAGE MISS LATENCY: 153.992 cycles
STLB AVERAGE MISS LATENCY LOAD: -nan cycles
STLB AVERAGE MISS LATENCY PREFETCH: -nan cycles
STLB AVERAGE MSHR OCCUPANCY: 1.64867e-05
STLB MSHR FULL: 0
STLB RQ	ACCESS:      60655	FORWARD:          0	MERGED:          0	TO_CACHE:      60655

STLB Hit, L1D data hit: 0
STLB Hit, L2C data hit: 0
STLB Hit, LLC data hit: 0
STLB Hit, LLC data miss: 0
STLB STLB hints to L2: 0
L0D SPEC fills:    7444540  NON-SPEC fills:          0
L0D TimeGuard Request with older TS:      23939 Restricted eviction:       3726 read:          0
L0D Test counter :          0
L0D Leapfrog:          0
L0D MSHR merge:    7539340
L0D TOTAL     ACCESS:   11743990  HIT:    2550481  MISS:    9193509  HIT %:    21.7173  MISS %:    78.2827   MPKI: 45.9675
L0D LOAD      TOTAL       ACCESS:   11743990  HIT:    2550481  MISS:    9193509  HIT %:    21.7173  MISS %:    78.2827   MPKI: 45.9675
L0D LOAD      NON_SPEC    ACCESS:    1851967  HIT:     106724  MISS:    1745243  HIT %:    5.76274  MISS %:    94.2373   MPKI: 8.72621
L0D LOAD      SPEC        ACCESS:    9892023  HIT:    2443757  MISS:    7448266  HIT %:    24.7043  MISS %:    75.2957   MPKI: 37.2413
L0D PREFETCH  REQUESTED:          0  ISSUED:          0  USEFUL:          0  USELESS:          0
L0D USEFUL LOAD PREFETCHES:          0 PREFETCH ISSUED TO LOWER LEVEL:          0  ACCURACY: -nan
L0D TIMELY PREFETCHES:          0 LATE PREFETCHES: 0 DROPPED PREFETCHES: 0
L0D COMMIT LATE PREFETCHES: 0 MISSED OPPORTUNITY: 0 LATE IN PQ: 0 UNCOVERED: 0
L0D COMMIT LATE MSHR PREFETCHES: 0
L0D MPKI TOTAL: 83.6642 MSHR LATE: 0 PQ LATE: 0 COMMIT LATE: 0 MISSED OPPORTUNITY: 0 UNCOVERED: 0
L0D PREFETCHES SAME FILL-ORIGIN LEVEL: 0 DIFFERENT FILL-ORIGIN LEVEL: 0
L0D AVERAGE MISS LATENCY: 92.9364 cycles
L0D AVERAGE MISS LATENCY LOAD: 92.9364 cycles
L0D AVERAGE MISS LATENCY PREFETCH: -nan cycles
L0D AVERAGE MSHR OCCUPANCY: 1.28449
L0D MSHR FULL: 0
L0D RQ	ACCESS:   35804820	FORWARD:          0	MERGED:   16521489	TO_CACHE:   19283331
L0D WQ	ACCESS:    3375822	FORWARD:          0	MERGED:          0	TO_CACHE:    3375822

L1D SPEC fills:          0  NON-SPEC fills:     439564
L1D Test counter :    3444007
L1D Leapfrog:          0
L1D MSHR merge:       2514
L1D TOTAL     ACCESS:   31458541  HIT:   23959413  MISS:    7499128  HIT %:    76.1619  MISS %:    23.8381   MPKI: 37.4956
L1D LOAD      TOTAL       ACCESS:    9190995  HIT:    5113799  MISS:    4077196  HIT %:    55.6392  MISS %:    44.3608   MPKI: 20.386
L1D LOAD      NON_SPEC    ACCESS:    1742746  HIT:    1303182  MISS:     439564  HIT %:    74.7775  MISS %:    25.2225   MPKI: 2.19782
L1D LOAD      SPEC        ACCESS:    7448249  HIT:    3810617  MISS:    3637632  HIT %:    51.1612  MISS %:    48.8388   MPKI: 18.1882
L1D RFO       NON_SPEC    ACCESS:    3375823  HIT:    3375821  MISS:          2  HIT %:    99.9999  MISS %: 5.92448e-05   MPKI: 1e-05
L1D COMMIT LOAD NON_SPEC    ACCESS:   11464765  HIT:   11462249  MISS:       2516  HIT %:    99.9781  MISS %:  0.0219455   MPKI: 0.01258
L1D COMMIT WRITE NON_SPEC    ACCESS:    7426958  HIT:    4007544  MISS:    3419414  HIT %:    53.9594  MISS %:    46.0406   MPKI: 17.0971
L1D PREFETCH  REQUESTED:          0  ISSUED:          0  USEFUL:          0  USELESS:          0
L1D USEFUL LOAD PREFETCHES:          0 PREFETCH ISSUED TO LOWER LEVEL:          0  ACCURACY: -nan
L1D TIMELY PREFETCHES:          0 LATE PREFETCHES: 0 DROPPED PREFETCHES: 0
L1D COMMIT LATE PREFETCHES: 0 MISSED OPPORTUNITY: 0 LATE IN PQ: 0 UNCOVERED: 0
L1D COMMIT LATE MSHR PREFETCHES: 0
L1D MPKI TOTAL: 20.3986 MSHR LATE: 0 PQ LATE: 0 COMMIT LATE: 0 MISSED OPPORTUNITY: 0 UNCOVERED: 0
L1D PREFETCHES SAME FILL-ORIGIN LEVEL: 0 DIFFERENT FILL-ORIGIN LEVEL: 0
L1D AVERAGE MISS LATENCY: 107.788 cycles
L1D AVERAGE MISS LATENCY LOAD: 198.025 cycles
L1D AVERAGE MISS LATENCY PREFETCH: -nan cycles
L1D AVERAGE MSHR OCCUPANCY: 0.625467
L1D MSHR FULL: 0
L1D RQ	ACCESS:   35719393	FORWARD:          0	MERGED:   15055948	TO_CACHE:   20663445
L1D WQ	ACCESS:   10802781	FORWARD:          0	MERGED:          0	TO_CACHE:   10802781

L1D UNIQUE REGIONS ACCESSED: 0
L1D REGIONS CONFLICTS: 0
L1D Cross Page Prefetch Requests: 0
L1D Same Page Prefetch Requests: 0
L1D ROI Sum of L1D PQ occupancy: 0
L1D PREFETCHES PUSHED FROM L2C: 0
L1I SPEC fills:          0  NON-SPEC fills:          0
L1I Test counter :          0
L1I Leapfrog:          0
L1I MSHR merge:          1
L1I TOTAL     ACCESS:   36664116  HIT:   36664109  MISS:          7  HIT %:        100  MISS %: 1.90922e-05   MPKI: 3.5e-05
L1I LOAD      TOTAL       ACCESS:   36664116  HIT:   36664109  MISS:          7  HIT %:        100  MISS %: 1.90922e-05   MPKI: 3.5e-05
L1I LOAD      NON_SPEC    ACCESS:   36664116  HIT:   36664109  MISS:          7  HIT %:        100  MISS %: 1.90922e-05   MPKI: 3.5e-05
L1I PREFETCH  REQUESTED:          0  ISSUED:          0  USEFUL:          0  USELESS:          0
L1I USEFUL LOAD PREFETCHES:          0 PREFETCH ISSUED TO LOWER LEVEL:          0  ACCURACY: -nan
L1I TIMELY PREFETCHES:          0 LATE PREFETCHES: 0 DROPPED PREFETCHES: 0
L1I COMMIT LATE PREFETCHES: 0 MISSED OPPORTUNITY: 0 LATE IN PQ: 0 UNCOVERED: 0
L1I COMMIT LATE MSHR PREFETCHES: 0
L1I MPKI TOTAL: 4e-05 MSHR LATE: 0 PQ LATE: 0 COMMIT LATE: 0 MISSED OPPORTUNITY: 0 UNCOVERED: 0
L1I PREFETCHES SAME FILL-ORIGIN LEVEL: 0 DIFFERENT FILL-ORIGIN LEVEL: 0
L1I AVERAGE MISS LATENCY: 214.143 cycles
L1I AVERAGE MISS LATENCY LOAD: 214.143 cycles
L1I AVERAGE MISS LATENCY PREFETCH: -nan cycles
L1I AVERAGE MSHR OCCUPANCY: 1.36373e-07
L1I MSHR FULL: 0
L1I RQ	ACCESS:   45765719	FORWARD:          0	MERGED:    9101602	TO_CACHE:   36664117

BTB SPEC fills:          0  NON-SPEC fills:          0
BTB Test counter :          0
BTB Leapfrog:          0
BTB MSHR merge:          0
BTB TOTAL     ACCESS:   30088229  HIT:   30088218  MISS:         11  HIT %:        100  MISS %: 3.65591e-05   MPKI: 5.5e-05
BTB BRANCH_DIRECT_JUMP	ACCESS:    1387299  HIT:    1387297  MISS:          2
BTB BRANCH_INDIRECT	ACCESS:          0  HIT:          0  MISS:          0
BTB BRANCH_CONDITIONAL	ACCESS:   28700930  HIT:   28700921  MISS:          9
BTB BRANCH_DIRECT_CALL	ACCESS:          0  HIT:          0  MISS:          0
BTB BRANCH_INDIRECT_CALL	ACCESS:          0  HIT:          0  MISS:          0
BTB BRANCH_RETURN	ACCESS:          0  HIT:          0  MISS:          0
BTB BRANCH_OTHER ACCESS:          0  HIT:          0  MISS:          0

L2C SPEC fills:          0  NON-SPEC fills:     439545
L2C Test counter :    3445803
L2C Leapfrog:          0
L2C MSHR merge:          0
L2C TOTAL     ACCESS:    7825239  HIT:     318963  MISS:    7506276  HIT %:    4.07608  MISS %:    95.9239   MPKI: 37.5314
L2C LOAD      TOTAL       ACCESS:    4077203  HIT:        107  MISS:    4077096  HIT %: 0.00262435  MISS %:    99.9974   MPKI: 20.3855
L2C LOAD      NON_SPEC    ACCESS:     439571  HIT:         19  MISS:     439552  HIT %:  0.0043224  MISS %:    99.9957   MPKI: 2.19776
L2C LOAD      SPEC        ACCESS:    3637632  HIT:         88  MISS:    3637544  HIT %: 0.00241916  MISS %:    99.9976   MPKI: 18.1877
L2C RFO       NON_SPEC    ACCESS:          2  HIT:          0  MISS:          2  HIT %:          0  MISS %:        100   MPKI: 1e-05
L2C WRITEBACK NON_SPEC    ACCESS:          2  HIT:          1  MISS:          1  HIT %:         50  MISS %:         50   MPKI: 5e-06
L2C CLEAN_EVICTION NON_SPEC    ACCESS:    3444007  HIT:      24909  MISS:    3419098  HIT %:   0.723256  MISS %:    99.2767   MPKI: 17.0955
L2C COMMIT LOAD NON_SPEC    ACCESS:       2516  HIT:          0  MISS:       2516  HIT %:          0  MISS %:        100   MPKI: 0.01258
L2C LOAD TRANSLATION NON_SPEC    ACCESS:     301509  HIT:     293946  MISS:       7563  HIT %:    97.4916  MISS %:    2.50838   MPKI: 0.037815
L2C PREFETCH  REQUESTED:          0  ISSUED:          0  USEFUL:          0  USELESS:          0
L2C USEFUL LOAD PREFETCHES:          0 PREFETCH ISSUED TO LOWER LEVEL:          0  ACCURACY: -nan
L2C TIMELY PREFETCHES:          0 LATE PREFETCHES: 0 DROPPED PREFETCHES: 0
L2C COMMIT LATE PREFETCHES: 0 MISSED OPPORTUNITY: 0 LATE IN PQ: 0 UNCOVERED: 0
L2C COMMIT LATE MSHR PREFETCHES: 0
L2C MPKI TOTAL: 20.3855 MSHR LATE: 0 PQ LATE: 0 COMMIT LATE: 0 MISSED OPPORTUNITY: 0 UNCOVERED: 0
L2C PREFETCHES SAME FILL-ORIGIN LEVEL: 0 DIFFERENT FILL-ORIGIN LEVEL: 0
L2C AVERAGE MISS LATENCY: 101.663 cycles
L2C AVERAGE MISS LATENCY LOAD: 186.555 cycles
L2C AVERAGE MISS LATENCY PREFETCH: -nan cycles
L2C AVERAGE MSHR OCCUPANCY: 0.712215
L2C MSHR FULL: 0
L2C RQ	ACCESS:    4381230	FORWARD:          0	MERGED:          0	TO_CACHE:    4381230
L2C WQ	ACCESS:    3444009	FORWARD:          0	MERGED:          0	TO_CACHE:    3444009

L2C Instructions Evicting Data 7
L2C Translations Evicting Data 7563
L2C Data Evicting Data 441422
L2C Instructions Evicting Instructions 0
L2C Translations Evicting Instructions 0
L2C Data Evicting Instructions 2
L2C Instructions Evicting Translations 0
L2C Translations Evicting Translations 0
L2C Data Evicting Translations 639
L2C Dense regions hint from L2: 0
PSCL5 SPEC fills:          0  NON-SPEC fills:          0
PSCL5 Test counter :          0
PSCL5 Leapfrog:          0
PSCL5 MSHR merge:          0
PSCL5 TOTAL     ACCESS:          0  HIT:          0  MISS:          0  HIT %:       -nan  MISS %:       -nan   MPKI: 0
PSCL5 PREFETCH  REQUESTED:          0  ISSUED:          0  USEFUL:          0  USELESS:          0
PSCL5 USEFUL LOAD PREFETCHES:          0 PREFETCH ISSUED TO LOWER LEVEL:          0  ACCURACY: -nan
PSCL5 TIMELY PREFETCHES:          0 LATE PREFETCHES: 0 DROPPED PREFETCHES: 0
PSCL5 COMMIT LATE PREFETCHES: 0 MISSED OPPORTUNITY: 0 LATE IN PQ: 0 UNCOVERED: 0
PSCL5 COMMIT LATE MSHR PREFETCHES: 0
PSCL5 MPKI TOTAL: 0 MSHR LATE: 0 PQ LATE: 0 COMMIT LATE: 0 MISSED OPPORTUNITY: 0 UNCOVERED: 0
PSCL5 PREFETCHES SAME FILL-ORIGIN LEVEL: 0 DIFFERENT FILL-ORIGIN LEVEL: 0

PSCL4 SPEC fills:          0  NON-SPEC fills:          0
PSCL4 Test counter :          0
PSCL4 Leapfrog:          0
PSCL4 MSHR merge:          0
PSCL4 TOTAL     ACCESS:          0  HIT:          0  MISS:          0  HIT %:       -nan  MISS %:       -nan   MPKI: 0
PSCL4 PREFETCH  REQUESTED:          0  ISSUED:          0  USEFUL:          0  USELESS:          0
PSCL4 USEFUL LOAD PREFETCHES:          0 PREFETCH ISSUED TO LOWER LEVEL:          0  ACCURACY: -nan
PSCL4 TIMELY PREFETCHES:          0 LATE PREFETCHES: 0 DROPPED PREFETCHES: 0
PSCL4 COMMIT LATE PREFETCHES: 0 MISSED OPPORTUNITY: 0 LATE IN PQ: 0 UNCOVERED: 0
PSCL4 COMMIT LATE MSHR PREFETCHES: 0
PSCL4 MPKI TOTAL: 0 MSHR LATE: 0 PQ LATE: 0 COMMIT LATE: 0 MISSED OPPORTUNITY: 0 UNCOVERED: 0
PSCL4 PREFETCHES SAME FILL-ORIGIN LEVEL: 0 DIFFERENT FILL-ORIGIN LEVEL: 0

PSCL3 SPEC fills:          0  NON-SPEC fills:          0
PSCL3 Test counter :          0
PSCL3 Leapfrog:          0
PSCL3 MSHR merge:          0
PSCL3 TOTAL     ACCESS:          0  HIT:          0  MISS:          0  HIT %:       -nan  MISS %:       -nan   MPKI: 0
PSCL3 PREFETCH  REQUESTED:          0  ISSUED:          0  USEFUL:          0  USELESS:          0
PSCL3 USEFUL LOAD PREFETCHES:          0 PREFETCH ISSUED TO LOWER LEVEL:          0  ACCURACY: -nan
PSCL3 TIMELY PREFETCHES:          0 LATE PREFETCHES: 0 DROPPED PREFETCHES: 0
PSCL3 COMMIT LATE PREFETCHES: 0 MISSED OPPORTUNITY: 0 LATE IN PQ: 0 UNCOVERED: 0
PSCL3 COMMIT LATE MSHR PREFETCHES: 0
PSCL3 MPKI TOTAL: 0 MSHR LATE: 0 PQ LATE: 0 COMMIT LATE: 0 MISSED OPPORTUNITY: 0 UNCOVERED: 0
PSCL3 PREFETCHES SAME FILL-ORIGIN LEVEL: 0 DIFFERENT FILL-ORIGIN LEVEL: 0

PSCL2 SPEC fills:          0  NON-SPEC fills:          0
PSCL2 Test counter :          0
PSCL2 Leapfrog:          0
PSCL2 MSHR merge:          0
PSCL2 TOTAL     ACCESS:          0  HIT:          0  MISS:          0  HIT %:       -nan  MISS %:       -nan   MPKI: 0
PSCL2 PREFETCH  REQUESTED:          0  ISSUED:          0  USEFUL:          0  USELESS:          0
PSCL2 USEFUL LOAD PREFETCHES:          0 PREFETCH ISSUED TO LOWER LEVEL:          0  ACCURACY: -nan
PSCL2 TIMELY PREFETCHES:          0 LATE PREFETCHES: 0 DROPPED PREFETCHES: 0
PSCL2 COMMIT LATE PREFETCHES: 0 MISSED OPPORTUNITY: 0 LATE IN PQ: 0 UNCOVERED: 0
PSCL2 COMMIT LATE MSHR PREFETCHES: 0
PSCL2 MPKI TOTAL: 0 MSHR LATE: 0 PQ LATE: 0 COMMIT LATE: 0 MISSED OPPORTUNITY: 0 UNCOVERED: 0
PSCL2 PREFETCHES SAME FILL-ORIGIN LEVEL: 0 DIFFERENT FILL-ORIGIN LEVEL: 0

LLC SPEC fills:          0  NON-SPEC fills:     439481
LLC Test counter :    3451446
LLC Leapfrog:          0
LLC MSHR merge:          0
LLC TOTAL     ACCESS:    7532981  HIT:      26771  MISS:    7506210  HIT %:   0.355384  MISS %:    99.6446   MPKI: 37.5311
LLC LOAD      TOTAL       ACCESS:    4077096  HIT:        762  MISS:    4076334  HIT %:  0.0186898  MISS %:    99.9813   MPKI: 20.3817
LLC LOAD      NON_SPEC    ACCESS:     439552  HIT:         64  MISS:     439488  HIT %:  0.0145603  MISS %:    99.9854   MPKI: 2.19744
LLC LOAD      SPEC        ACCESS:    3637544  HIT:        698  MISS:    3636846  HIT %:  0.0191888  MISS %:    99.9808   MPKI: 18.1842
LLC RFO       NON_SPEC    ACCESS:          2  HIT:          0  MISS:          2  HIT %:          0  MISS %:        100   MPKI: 1e-05
LLC WRITEBACK NON_SPEC    ACCESS:          2  HIT:          1  MISS:          1  HIT %:         50  MISS %:         50   MPKI: 5e-06
LLC CLEAN_EVICTION NON_SPEC    ACCESS:    3445802  HIT:      26006  MISS:    3419796  HIT %:   0.754715  MISS %:    99.2453   MPKI: 17.099
LLC COMMIT LOAD NON_SPEC    ACCESS:       2516  HIT:          2  MISS:       2514  HIT %:  0.0794913  MISS %:    99.9205   MPKI: 0.01257
LLC LOAD TRANSLATION NON_SPEC    ACCESS:       7563  HIT:          0  MISS:       7563  HIT %:          0  MISS %:        100   MPKI: 0.037815
LLC PREFETCH  REQUESTED:          0  ISSUED:          0  USEFUL:          0  USELESS:          0
LLC USEFUL LOAD PREFETCHES:          0 PREFETCH ISSUED TO LOWER LEVEL:          0  ACCURACY: -nan
LLC TIMELY PREFETCHES:          0 LATE PREFETCHES: 0 DROPPED PREFETCHES: 0
LLC COMMIT LATE PREFETCHES: 0 MISSED OPPORTUNITY: 0 LATE IN PQ: 0 UNCOVERED: 0
LLC COMMIT LATE MSHR PREFETCHES: 0
LLC MPKI TOTAL: 20.3817 MSHR LATE: 0 PQ LATE: 0 COMMIT LATE: 0 MISSED OPPORTUNITY: 0 UNCOVERED: 0
LLC PREFETCHES SAME FILL-ORIGIN LEVEL: 0 DIFFERENT FILL-ORIGIN LEVEL: 0
LLC AVERAGE MISS LATENCY: 89.6759 cycles
LLC AVERAGE MISS LATENCY LOAD: 164.59 cycles
LLC AVERAGE MISS LATENCY PREFETCH: -nan cycles
LLC AVERAGE MSHR OCCUPANCY: 0.683856
LLC MSHR FULL: 0
LLC RQ	ACCESS:    4087177	FORWARD:          0	MERGED:          0	TO_CACHE:    4087177
LLC WQ	ACCESS:    3445805	FORWARD:          0	MERGED:          0	TO_CACHE:    3445805

LLC Dense regions hint to LLC: 0

RAW hits: 1
Loads Generated: 35804823
Loads sent to L1D: 35804820
Stores Generated: 3375822
Stores sent to L1D: 3375822
Major fault: 0 Minor fault: 62153
Allocated PAGES: 62153
Total Load insts: 43892572
Total Non-spec loads: 2103303
Percentage of speculative loads: 95.2081

LeapFrogging counter: 0
Commit hits: 7426958 miss: 26525883
Commit hit %: 21.8743 miss %: 78.1257
Commits not translated: 0
Loads retired: 4077194
Stores retired: 3375822
Cache fills: 4077196
L1D response latency: 198.025 cycles
Load retirement latency: 241.199 cycles
OOO test counter: 0
Discarded buffer inserts: 7426958 hits: 214779 hit %: 2.89188

DRAM Statistics
 CHANNEL 0
 RQ ROW_BUFFER_HIT:       2004  ROW_BUFFER_MISS:    4084409
 DBUS_CONGESTED:          2
 WQ ROW_BUFFER_HIT:    2740292  ROW_BUFFER_MISS:     711111  FULL:          0

 AVG_CONGESTED_CYCLE: 2
 All warmup complete: 2
Channel 0 Bank busy for read cycles: 0
Channel 0 Bank busy for write cycles: 0
Channel 0
Rank 0
0banks busy for read cycles: 1886339
0banks busy for write cycles: 0
1banks busy for read cycles: 95107123
1banks busy for write cycles: 1883825
2banks busy for read cycles: 153893434
2banks busy for write cycles: 1883544
3banks busy for read cycles: 69956401
3banks busy for write cycles: 1883409
4banks busy for read cycles: 94
4banks busy for write cycles: 1883865
5banks busy for read cycles: 0
5banks busy for write cycles: 1906667
6banks busy for read cycles: 0
6banks busy for write cycles: 2269153
7banks busy for read cycles: 0
7banks busy for write cycles: 10063211
8banks busy for read cycles: 0
8banks busy for write cycles: 123311212

CPU 0 Branch Prediction Accuracy: 99.8669% MPKI: 0.223155 Average ROB Occupancy at Mispredict: 301.263
Branch types
NOT_BRANCH: 166478582 83.2393%
BRANCH_DIRECT_JUMP: 1387299 0.69365%
BRANCH_INDIRECT: 0 0%
BRANCH_CONDITIONAL: 32134381 16.0672%
BRANCH_DIRECT_CALL: 0 0%
BRANCH_INDIRECT_CALL: 0 0%
BRANCH_RETURN: 0 0%
BRANCH_OTHER: 0 0%

DRAM PAGES: 1048576
Allocated PAGES: 62153
