
*** ChampSim Multicore Out-of-Order Simulator ***

Warmup Instructions: 50000000
Simulation Instructions: 200000000
Number of CPUs: 1
LLC sets: 2048
LLC ways: 16
L0D sets: 16
L0D ways: 2
ROB size: 352
LQ size: 128
SQ size: 72
Secure Berti: OFF
Berti: OFF
Berti Fill: OFF
On commit prefetching: OFF
Hit-based filter: OFF
Time-guarding: ON
Free-slotting: ON
Leap-frogging: ON
Train prefetcher on L0D bypass: OFF
No translation penalty for prefetchers: OFF
Prefetch to L0D only: OFF
Prefetch to L1D only: OFF
Clean evictions: ON
Commit loads: ON
Commit write: ON
Fill commit loads to L2C, LLC: ON
DRAM IO FREQUENCY: 6400
ROB SIZE: 352
Off-chip DRAM Size: 4096 MB Channels: 1 Width: 64-bit Data Rate: 6400 MT/s
CPU 0 runs /home/sumon/secure_berti/GhostMinion/../../traces/spec/603.bwaves_s-2609B.champsimtrace.xz
.xz
BTB has LRU replacement policy
ITLB has LRU replacement policy
DTLB has LRU replacement policy
STLB has LRU replacement policy
L1I has LRU replacement policy
L0D has LRU replacement policy
L1D has LRU replacement policy
L2C has LRU replacement policy
LLC has LRU replacement policy
Heartbeat CPU 0 instructions: 10000002 cycles: 3776835 heartbeat IPC: 2.64772 cumulative IPC: 2.64772 (Simulation time: 0 hr 0 min 38 sec) 
Heartbeat CPU 0 instructions: 20000003 cycles: 7552892 heartbeat IPC: 2.64827 cumulative IPC: 2.64799 (Simulation time: 0 hr 1 min 16 sec) 
Heartbeat CPU 0 instructions: 30000001 cycles: 11333559 heartbeat IPC: 2.64504 cumulative IPC: 2.64701 (Simulation time: 0 hr 1 min 53 sec) 
Heartbeat CPU 0 instructions: 40000002 cycles: 15112415 heartbeat IPC: 2.6463 cumulative IPC: 2.64683 (Simulation time: 0 hr 2 min 31 sec) 
Heartbeat CPU 0 instructions: 50000003 cycles: 18888265 heartbeat IPC: 2.64841 cumulative IPC: 2.64715 (Simulation time: 0 hr 3 min 10 sec) 

Warmup complete CPU 0 instructions: 50000003 cycles: 18888265 (Simulation time: 0 hr 3 min 10 sec) 

Heartbeat CPU 0 instructions: 60000000 cycles: 46954137 heartbeat IPC: 0.356305 cumulative IPC: 0.356305 (Simulation time: 0 hr 4 min 8 sec) 
Heartbeat CPU 0 instructions: 70000001 cycles: 75297868 heartbeat IPC: 0.352812 cumulative IPC: 0.35455 (Simulation time: 0 hr 5 min 9 sec) 
Heartbeat CPU 0 instructions: 80000003 cycles: 103631334 heartbeat IPC: 0.35294 cumulative IPC: 0.354011 (Simulation time: 0 hr 6 min 10 sec) 
Heartbeat CPU 0 instructions: 90000003 cycles: 131962409 heartbeat IPC: 0.352969 cumulative IPC: 0.35375 (Simulation time: 0 hr 7 min 12 sec) 
Heartbeat CPU 0 instructions: 100000001 cycles: 160295406 heartbeat IPC: 0.352945 cumulative IPC: 0.353589 (Simulation time: 0 hr 8 min 15 sec) 
Heartbeat CPU 0 instructions: 110000000 cycles: 188421919 heartbeat IPC: 0.355536 cumulative IPC: 0.353912 (Simulation time: 0 hr 9 min 17 sec) 
Heartbeat CPU 0 instructions: 120000000 cycles: 216705173 heartbeat IPC: 0.353566 cumulative IPC: 0.353863 (Simulation time: 0 hr 10 min 21 sec) 
Heartbeat CPU 0 instructions: 130000003 cycles: 245095892 heartbeat IPC: 0.352228 cumulative IPC: 0.353657 (Simulation time: 0 hr 11 min 24 sec) 
Heartbeat CPU 0 instructions: 140000000 cycles: 273416747 heartbeat IPC: 0.353097 cumulative IPC: 0.353595 (Simulation time: 0 hr 12 min 28 sec) 
Heartbeat CPU 0 instructions: 150000003 cycles: 301783845 heartbeat IPC: 0.352521 cumulative IPC: 0.353487 (Simulation time: 0 hr 13 min 32 sec) 
Heartbeat CPU 0 instructions: 160000000 cycles: 330313404 heartbeat IPC: 0.350514 cumulative IPC: 0.353215 (Simulation time: 0 hr 14 min 35 sec) 
Heartbeat CPU 0 instructions: 170000003 cycles: 358485492 heartbeat IPC: 0.354961 cumulative IPC: 0.35336 (Simulation time: 0 hr 15 min 36 sec) 
Heartbeat CPU 0 instructions: 180000000 cycles: 386657506 heartbeat IPC: 0.354962 cumulative IPC: 0.353483 (Simulation time: 0 hr 16 min 33 sec) 
Heartbeat CPU 0 instructions: 190000000 cycles: 415069980 heartbeat IPC: 0.351958 cumulative IPC: 0.353373 (Simulation time: 0 hr 17 min 28 sec) 
Heartbeat CPU 0 instructions: 200000000 cycles: 443282350 heartbeat IPC: 0.354454 cumulative IPC: 0.353445 (Simulation time: 0 hr 18 min 20 sec) 
Heartbeat CPU 0 instructions: 210000003 cycles: 471704134 heartbeat IPC: 0.351843 cumulative IPC: 0.353345 (Simulation time: 0 hr 19 min 11 sec) 
Heartbeat CPU 0 instructions: 220000000 cycles: 500091491 heartbeat IPC: 0.352269 cumulative IPC: 0.353281 (Simulation time: 0 hr 20 min 2 sec) 
Heartbeat CPU 0 instructions: 230000002 cycles: 528397670 heartbeat IPC: 0.35328 cumulative IPC: 0.353281 (Simulation time: 0 hr 20 min 53 sec) 
Heartbeat CPU 0 instructions: 240000000 cycles: 556578607 heartbeat IPC: 0.35485 cumulative IPC: 0.353363 (Simulation time: 0 hr 21 min 42 sec) 
Heartbeat CPU 0 instructions: 250000000 cycles: 584736571 heartbeat IPC: 0.355139 cumulative IPC: 0.353452 (Simulation time: 0 hr 22 min 31 sec) 
Finished CPU 0 instructions: 200000003 cycles: 565848308 cumulative IPC: 0.353452 (Simulation time: 0 hr 22 min 31 sec) 
 Instruction ID: 250000311

ChampSim completed all CPUs

Region of Interest Statistics

CPU 0 cumulative IPC: 0.353452 instructions: 200000003 cycles: 565848308
ITLB SPEC fills:          0  NON-SPEC fills:          0
ITLB Test counter :          0
ITLB Leapfrog:          0
ITLB MSHR merge:          0
ITLB TOTAL     ACCESS:   27797538  HIT:   27797538  MISS:          0  HIT %:        100  MISS %:          0   MPKI: 0
ITLB LOAD TRANSLATION NON_SPEC    ACCESS:   27797538  HIT:   27797538  MISS:          0  HIT %:        100  MISS %:          0   MPKI: 0
ITLB PREFETCH  REQUESTED:          0  ISSUED:          0  USEFUL:          0  USELESS:          0
ITLB USEFUL LOAD PREFETCHES:          0 PREFETCH ISSUED TO LOWER LEVEL:          0  ACCURACY: -nan
ITLB TIMELY PREFETCHES:          0 LATE PREFETCHES: 0 DROPPED PREFETCHES: 0
ITLB COMMIT LATE PREFETCHES: 0 MISSED OPPORTUNITY: 0 LATE IN PQ: 0 UNCOVERED: 0
ITLB COMMIT LATE MSHR PREFETCHES: 0
ITLB MPKI TOTAL: 0 MSHR LATE: 0 PQ LATE: 0 COMMIT LATE: 0 MISSED OPPORTUNITY: 0 UNCOVERED: 0
ITLB PREFETCHES SAME FILL-ORIGIN LEVEL: 0 DIFFERENT FILL-ORIGIN LEVEL: 0
ITLB AVERAGE MISS LATENCY: -nan cycles
ITLB AVERAGE MISS LATENCY LOAD: -nan cycles
ITLB AVERAGE MISS LATENCY PREFETCH: -nan cycles
ITLB AVERAGE MSHR OCCUPANCY: 0
ITLB MSHR FULL: 0
ITLB RQ	ACCESS:   36653442	FORWARD:          0	MERGED:    8855904	TO_CACHE:   27797538

DTLB SPEC fills:          0  NON-SPEC fills:          0
DTLB Test counter :          0
DTLB Leapfrog:          0
DTLB MSHR merge:          0
DTLB TOTAL     ACCESS:   61473357  HIT:   61353024  MISS:     120333  HIT %:    99.8043  MISS %:   0.195748   MPKI: 0.601665
DTLB LOAD TRANSLATION NON_SPEC    ACCESS:   61473357  HIT:   61353024  MISS:     120333  HIT %:    99.8043  MISS %:   0.195748   MPKI: 0.601665
DTLB PREFETCH  REQUESTED:          0  ISSUED:          0  USEFUL:          0  USELESS:          0
DTLB USEFUL LOAD PREFETCHES:          0 PREFETCH ISSUED TO LOWER LEVEL:          0  ACCURACY: -nan
DTLB TIMELY PREFETCHES:          0 LATE PREFETCHES: 0 DROPPED PREFETCHES: 0
DTLB COMMIT LATE PREFETCHES: 0 MISSED OPPORTUNITY: 0 LATE IN PQ: 0 UNCOVERED: 0
DTLB COMMIT LATE MSHR PREFETCHES: 0
DTLB MPKI TOTAL: 0 MSHR LATE: 0 PQ LATE: 0 COMMIT LATE: 0 MISSED OPPORTUNITY: 0 UNCOVERED: 0
DTLB PREFETCHES SAME FILL-ORIGIN LEVEL: 0 DIFFERENT FILL-ORIGIN LEVEL: 0
DTLB AVERAGE MISS LATENCY: 326.701 cycles
DTLB AVERAGE MISS LATENCY LOAD: -nan cycles
DTLB AVERAGE MISS LATENCY PREFETCH: -nan cycles
DTLB AVERAGE MSHR OCCUPANCY: 0.0237305
DTLB MSHR FULL: 3.83664e-06
DTLB RQ	ACCESS:   75468299	FORWARD:          0	MERGED:   13956124	TO_CACHE:   61512175

STLB SPEC fills:          0  NON-SPEC fills:          0
STLB Test counter :          0
STLB Leapfrog:          0
STLB MSHR merge:          0
STLB TOTAL     ACCESS:     120333  HIT:      60951  MISS:      59382  HIT %:    50.6519  MISS %:    49.3481   MPKI: 0.29691
STLB LOAD TRANSLATION NON_SPEC    ACCESS:     120333  HIT:      60951  MISS:      59382  HIT %:    50.6519  MISS %:    49.3481   MPKI: 0.29691
STLB PREFETCH  REQUESTED:          0  ISSUED:          0  USEFUL:          0  USELESS:          0
STLB USEFUL LOAD PREFETCHES:          0 PREFETCH ISSUED TO LOWER LEVEL:          0  ACCURACY: -nan
STLB TIMELY PREFETCHES:          0 LATE PREFETCHES: 0 DROPPED PREFETCHES: 0
STLB COMMIT LATE PREFETCHES: 0 MISSED OPPORTUNITY: 0 LATE IN PQ: 0 UNCOVERED: 0
STLB COMMIT LATE MSHR PREFETCHES: 0
STLB MPKI TOTAL: 0 MSHR LATE: 0 PQ LATE: 0 COMMIT LATE: 0 MISSED OPPORTUNITY: 0 UNCOVERED: 0
STLB PREFETCHES SAME FILL-ORIGIN LEVEL: 0 DIFFERENT FILL-ORIGIN LEVEL: 0
STLB AVERAGE MISS LATENCY: 643.049 cycles
STLB AVERAGE MISS LATENCY LOAD: -nan cycles
STLB AVERAGE MISS LATENCY PREFETCH: -nan cycles
STLB AVERAGE MSHR OCCUPANCY: 1.28077
STLB MSHR FULL: 0
STLB RQ	ACCESS:     120333	FORWARD:          0	MERGED:          0	TO_CACHE:     120333

STLB Hit, L1D data hit: 0
STLB Hit, L2C data hit: 0
STLB Hit, LLC data hit: 0
STLB Hit, LLC data miss: 0
STLB STLB hints to L2: 0
L0D SPEC fills:   35856910  NON-SPEC fills:          0
L0D TimeGuard Request with older TS:    3644721 Restricted eviction:   11390791 read:     417939
L0D Test counter :          0
L0D Leapfrog:          0
L0D MSHR merge:    3350876
L0D TOTAL     ACCESS:   60850622  HIT:    9293849  MISS:   51556773  HIT %:    15.2732  MISS %:    84.7268   MPKI: 257.784
L0D LOAD      TOTAL       ACCESS:   60850622  HIT:    9293849  MISS:   51556773  HIT %:    15.2732  MISS %:    84.7268   MPKI: 257.784
L0D LOAD      NON_SPEC    ACCESS:    4790964  HIT:     469142  MISS:    4321822  HIT %:    9.79223  MISS %:    90.2078   MPKI: 21.6091
L0D LOAD      SPEC        ACCESS:   56059658  HIT:    8824707  MISS:   47234951  HIT %:    15.7416  MISS %:    84.2584   MPKI: 236.175
L0D PREFETCH  REQUESTED:          0  ISSUED:          0  USEFUL:          0  USELESS:          0
L0D USEFUL LOAD PREFETCHES:          0 PREFETCH ISSUED TO LOWER LEVEL:          0  ACCURACY: -nan
L0D TIMELY PREFETCHES:          0 LATE PREFETCHES: 0 DROPPED PREFETCHES: 0
L0D COMMIT LATE PREFETCHES: 0 MISSED OPPORTUNITY: 0 LATE IN PQ: 0 UNCOVERED: 0
L0D COMMIT LATE MSHR PREFETCHES: 0
L0D MPKI TOTAL: 274.538 MSHR LATE: 0 PQ LATE: 0 COMMIT LATE: 0 MISSED OPPORTUNITY: 0 UNCOVERED: 0
L0D PREFETCHES SAME FILL-ORIGIN LEVEL: 0 DIFFERENT FILL-ORIGIN LEVEL: 0
L0D AVERAGE MISS LATENCY: 32.6969 cycles
L0D AVERAGE MISS LATENCY LOAD: 32.6969 cycles
L0D AVERAGE MISS LATENCY PREFETCH: -nan cycles
L0D AVERAGE MSHR OCCUPANCY: 6.55129
L0D MSHR FULL: 0.705293
L0D RQ	ACCESS:   84219381	FORWARD:          0	MERGED:   20017897	TO_CACHE:   64201484
L0D WQ	ACCESS:   11266815	FORWARD:          0	MERGED:          0	TO_CACHE:   11266815

L1D SPEC fills:          0  NON-SPEC fills:     112627
L1D Test counter :    3472525
L1D Leapfrog:          0
L1D MSHR merge:     417728
L1D TOTAL     ACCESS:  129905538  HIT:  122085284  MISS:    7820254  HIT %:      93.98  MISS %:    6.01995   MPKI: 39.1013
L1D LOAD      TOTAL       ACCESS:   51139045  HIT:   47205095  MISS:    3933950  HIT %:    92.3073  MISS %:    7.69265   MPKI: 19.6697
L1D LOAD      NON_SPEC    ACCESS:    4318882  HIT:    4206255  MISS:     112627  HIT %:    97.3922  MISS %:    2.60778   MPKI: 0.563135
L1D LOAD      SPEC        ACCESS:   46820163  HIT:   42998840  MISS:    3821323  HIT %:    91.8383  MISS %:     8.1617   MPKI: 19.1066
L1D RFO       NON_SPEC    ACCESS:   10897576  HIT:   10800127  MISS:      97449  HIT %:    99.1058  MISS %:   0.894226   MPKI: 0.487245
L1D COMMIT LOAD NON_SPEC    ACCESS:   35383108  HIT:   33971452  MISS:    1411656  HIT %:    96.0104  MISS %:    3.98963   MPKI: 7.05828
L1D COMMIT WRITE NON_SPEC    ACCESS:   32485809  HIT:   30108610  MISS:    2377199  HIT %:    92.6823  MISS %:    7.31765   MPKI: 11.886
L1D PREFETCH  REQUESTED:          0  ISSUED:          0  USEFUL:          0  USELESS:          0
L1D USEFUL LOAD PREFETCHES:          0 PREFETCH ISSUED TO LOWER LEVEL:          0  ACCURACY: -nan
L1D TIMELY PREFETCHES:          0 LATE PREFETCHES: 0 DROPPED PREFETCHES: 0
L1D COMMIT LATE PREFETCHES: 0 MISSED OPPORTUNITY: 0 LATE IN PQ: 0 UNCOVERED: 0
L1D COMMIT LATE MSHR PREFETCHES: 0
L1D MPKI TOTAL: 21.7584 MSHR LATE: 0 PQ LATE: 0 COMMIT LATE: 0 MISSED OPPORTUNITY: 0 UNCOVERED: 0
L1D PREFETCHES SAME FILL-ORIGIN LEVEL: 0 DIFFERENT FILL-ORIGIN LEVEL: 0
L1D AVERAGE MISS LATENCY: 177.84 cycles
L1D AVERAGE MISS LATENCY LOAD: 259.969 cycles
L1D AVERAGE MISS LATENCY PREFETCH: -nan cycles
L1D AVERAGE MSHR OCCUPANCY: 1.50945
L1D MSHR FULL: 0.000170647
L1D RQ	ACCESS:   98317737	FORWARD:          0	MERGED:   11018639	TO_CACHE:   87299091
L1D WQ	ACCESS:   43752627	FORWARD:          7	MERGED:     287642	TO_CACHE:   43464985

L1D UNIQUE REGIONS ACCESSED: 0
L1D REGIONS CONFLICTS: 0
L1D Cross Page Prefetch Requests: 0
L1D Same Page Prefetch Requests: 0
L1D ROI Sum of L1D PQ occupancy: 0
L1D PREFETCHES PUSHED FROM L2C: 0
L1I SPEC fills:          0  NON-SPEC fills:          0
L1I Test counter :          0
L1I Leapfrog:          0
L1I MSHR merge:          0
L1I TOTAL     ACCESS:   36653441  HIT:   36653441  MISS:          0  HIT %:        100  MISS %:          0   MPKI: 0
L1I LOAD      TOTAL       ACCESS:   36653441  HIT:   36653441  MISS:          0  HIT %:        100  MISS %:          0   MPKI: 0
L1I LOAD      NON_SPEC    ACCESS:   36653441  HIT:   36653441  MISS:          0  HIT %:        100  MISS %:          0   MPKI: 0
L1I PREFETCH  REQUESTED:          0  ISSUED:          0  USEFUL:          0  USELESS:          0
L1I USEFUL LOAD PREFETCHES:          0 PREFETCH ISSUED TO LOWER LEVEL:          0  ACCURACY: -nan
L1I TIMELY PREFETCHES:          0 LATE PREFETCHES: 0 DROPPED PREFETCHES: 0
L1I COMMIT LATE PREFETCHES: 0 MISSED OPPORTUNITY: 0 LATE IN PQ: 0 UNCOVERED: 0
L1I COMMIT LATE MSHR PREFETCHES: 0
L1I MPKI TOTAL: 0 MSHR LATE: 0 PQ LATE: 0 COMMIT LATE: 0 MISSED OPPORTUNITY: 0 UNCOVERED: 0
L1I PREFETCHES SAME FILL-ORIGIN LEVEL: 0 DIFFERENT FILL-ORIGIN LEVEL: 0
L1I AVERAGE MISS LATENCY: -nan cycles
L1I AVERAGE MISS LATENCY LOAD: -nan cycles
L1I AVERAGE MISS LATENCY PREFETCH: -nan cycles
L1I AVERAGE MSHR OCCUPANCY: 0
L1I MSHR FULL: 0
L1I RQ	ACCESS:   49347936	FORWARD:          0	MERGED:   12694494	TO_CACHE:   36653442

BTB SPEC fills:          0  NON-SPEC fills:          0
BTB Test counter :          0
BTB Leapfrog:          0
BTB MSHR merge:          0
BTB TOTAL     ACCESS:    4834907  HIT:    4834902  MISS:          5  HIT %:    99.9999  MISS %: 0.000103415   MPKI: 2.5e-05
BTB BRANCH_DIRECT_JUMP	ACCESS:          0  HIT:          0  MISS:          0
BTB BRANCH_INDIRECT	ACCESS:          0  HIT:          0  MISS:          0
BTB BRANCH_CONDITIONAL	ACCESS:    4834907  HIT:    4834902  MISS:          5
BTB BRANCH_DIRECT_CALL	ACCESS:          0  HIT:          0  MISS:          0
BTB BRANCH_INDIRECT_CALL	ACCESS:          0  HIT:          0  MISS:          0
BTB BRANCH_RETURN	ACCESS:          0  HIT:          0  MISS:          0
BTB BRANCH_OTHER ACCESS:          0  HIT:          0  MISS:          0

L2C SPEC fills:          0  NON-SPEC fills:      89517
L2C Test counter :    3273062
L2C Leapfrog:          0
L2C MSHR merge:          0
L2C TOTAL     ACCESS:    9309933  HIT:    1861143  MISS:    7448790  HIT %:    19.9909  MISS %:    80.0091   MPKI: 37.2439
L2C LOAD      TOTAL       ACCESS:    3933950  HIT:     203406  MISS:    3730544  HIT %:    5.17053  MISS %:    94.8295   MPKI: 18.6527
L2C LOAD      NON_SPEC    ACCESS:     112627  HIT:      23110  MISS:      89517  HIT %:    20.5191  MISS %:    79.4809   MPKI: 0.447585
L2C LOAD      SPEC        ACCESS:    3821323  HIT:     180296  MISS:    3641027  HIT %:    4.71816  MISS %:    95.2818   MPKI: 18.2051
L2C RFO       NON_SPEC    ACCESS:      97448  HIT:          0  MISS:      97448  HIT %:          0  MISS %:        100   MPKI: 0.48724
L2C WRITEBACK NON_SPEC    ACCESS:      97555  HIT:      97555  MISS:          0  HIT %:        100  MISS %:          0   MPKI: 0
L2C CLEAN_EVICTION NON_SPEC    ACCESS:    3472525  HIT:    1251297  MISS:    2221228  HIT %:    36.0342  MISS %:    63.9658   MPKI: 11.1061
L2C COMMIT LOAD NON_SPEC    ACCESS:    1411656  HIT:      19523  MISS:    1392133  HIT %:    1.38299  MISS %:     98.617   MPKI: 6.96066
L2C LOAD TRANSLATION NON_SPEC    ACCESS:     296799  HIT:     289362  MISS:       7437  HIT %:    97.4943  MISS %:    2.50574   MPKI: 0.037185
L2C PREFETCH  REQUESTED:          0  ISSUED:          0  USEFUL:          0  USELESS:          0
L2C USEFUL LOAD PREFETCHES:          0 PREFETCH ISSUED TO LOWER LEVEL:          0  ACCURACY: -nan
L2C TIMELY PREFETCHES:          0 LATE PREFETCHES: 0 DROPPED PREFETCHES: 0
L2C COMMIT LATE PREFETCHES: 0 MISSED OPPORTUNITY: 0 LATE IN PQ: 0 UNCOVERED: 0
L2C COMMIT LATE MSHR PREFETCHES: 0
L2C MPKI TOTAL: 18.6527 MSHR LATE: 0 PQ LATE: 0 COMMIT LATE: 0 MISSED OPPORTUNITY: 0 UNCOVERED: 0
L2C PREFETCHES SAME FILL-ORIGIN LEVEL: 0 DIFFERENT FILL-ORIGIN LEVEL: 0
L2C AVERAGE MISS LATENCY: 177.918 cycles
L2C AVERAGE MISS LATENCY LOAD: 262.292 cycles
L2C AVERAGE MISS LATENCY PREFETCH: -nan cycles
L2C AVERAGE MSHR OCCUPANCY: 4.53847
L2C MSHR FULL: 0
L2C RQ	ACCESS:    5739853	FORWARD:          0	MERGED:          0	TO_CACHE:    5739853
L2C WQ	ACCESS:    3570083	FORWARD:          0	MERGED:          3	TO_CACHE:    3570080

L2C Instructions Evicting Data 0
L2C Translations Evicting Data 7436
L2C Data Evicting Data 1575990
L2C Instructions Evicting Instructions 0
L2C Translations Evicting Instructions 0
L2C Data Evicting Instructions 0
L2C Instructions Evicting Translations 0
L2C Translations Evicting Translations 1
L2C Data Evicting Translations 3108
L2C Dense regions hint from L2: 0
PSCL5 SPEC fills:          0  NON-SPEC fills:          0
PSCL5 Test counter :          0
PSCL5 Leapfrog:          0
PSCL5 MSHR merge:          0
PSCL5 TOTAL     ACCESS:          0  HIT:          0  MISS:          0  HIT %:       -nan  MISS %:       -nan   MPKI: 0
PSCL5 PREFETCH  REQUESTED:          0  ISSUED:          0  USEFUL:          0  USELESS:          0
PSCL5 USEFUL LOAD PREFETCHES:          0 PREFETCH ISSUED TO LOWER LEVEL:          0  ACCURACY: -nan
PSCL5 TIMELY PREFETCHES:          0 LATE PREFETCHES: 0 DROPPED PREFETCHES: 0
PSCL5 COMMIT LATE PREFETCHES: 0 MISSED OPPORTUNITY: 0 LATE IN PQ: 0 UNCOVERED: 0
PSCL5 COMMIT LATE MSHR PREFETCHES: 0
PSCL5 MPKI TOTAL: 0 MSHR LATE: 0 PQ LATE: 0 COMMIT LATE: 0 MISSED OPPORTUNITY: 0 UNCOVERED: 0
PSCL5 PREFETCHES SAME FILL-ORIGIN LEVEL: 0 DIFFERENT FILL-ORIGIN LEVEL: 0

PSCL4 SPEC fills:          0  NON-SPEC fills:          0
PSCL4 Test counter :          0
PSCL4 Leapfrog:          0
PSCL4 MSHR merge:          0
PSCL4 TOTAL     ACCESS:          0  HIT:          0  MISS:          0  HIT %:       -nan  MISS %:       -nan   MPKI: 0
PSCL4 PREFETCH  REQUESTED:          0  ISSUED:          0  USEFUL:          0  USELESS:          0
PSCL4 USEFUL LOAD PREFETCHES:          0 PREFETCH ISSUED TO LOWER LEVEL:          0  ACCURACY: -nan
PSCL4 TIMELY PREFETCHES:          0 LATE PREFETCHES: 0 DROPPED PREFETCHES: 0
PSCL4 COMMIT LATE PREFETCHES: 0 MISSED OPPORTUNITY: 0 LATE IN PQ: 0 UNCOVERED: 0
PSCL4 COMMIT LATE MSHR PREFETCHES: 0
PSCL4 MPKI TOTAL: 0 MSHR LATE: 0 PQ LATE: 0 COMMIT LATE: 0 MISSED OPPORTUNITY: 0 UNCOVERED: 0
PSCL4 PREFETCHES SAME FILL-ORIGIN LEVEL: 0 DIFFERENT FILL-ORIGIN LEVEL: 0

PSCL3 SPEC fills:          0  NON-SPEC fills:          0
PSCL3 Test counter :          0
PSCL3 Leapfrog:          0
PSCL3 MSHR merge:          0
PSCL3 TOTAL     ACCESS:          0  HIT:          0  MISS:          0  HIT %:       -nan  MISS %:       -nan   MPKI: 0
PSCL3 PREFETCH  REQUESTED:          0  ISSUED:          0  USEFUL:          0  USELESS:          0
PSCL3 USEFUL LOAD PREFETCHES:          0 PREFETCH ISSUED TO LOWER LEVEL:          0  ACCURACY: -nan
PSCL3 TIMELY PREFETCHES:          0 LATE PREFETCHES: 0 DROPPED PREFETCHES: 0
PSCL3 COMMIT LATE PREFETCHES: 0 MISSED OPPORTUNITY: 0 LATE IN PQ: 0 UNCOVERED: 0
PSCL3 COMMIT LATE MSHR PREFETCHES: 0
PSCL3 MPKI TOTAL: 0 MSHR LATE: 0 PQ LATE: 0 COMMIT LATE: 0 MISSED OPPORTUNITY: 0 UNCOVERED: 0
PSCL3 PREFETCHES SAME FILL-ORIGIN LEVEL: 0 DIFFERENT FILL-ORIGIN LEVEL: 0

PSCL2 SPEC fills:          0  NON-SPEC fills:          0
PSCL2 Test counter :          0
PSCL2 Leapfrog:          0
PSCL2 MSHR merge:          0
PSCL2 TOTAL     ACCESS:          0  HIT:          0  MISS:          0  HIT %:       -nan  MISS %:       -nan   MPKI: 0
PSCL2 PREFETCH  REQUESTED:          0  ISSUED:          0  USEFUL:          0  USELESS:          0
PSCL2 USEFUL LOAD PREFETCHES:          0 PREFETCH ISSUED TO LOWER LEVEL:          0  ACCURACY: -nan
PSCL2 TIMELY PREFETCHES:          0 LATE PREFETCHES: 0 DROPPED PREFETCHES: 0
PSCL2 COMMIT LATE PREFETCHES: 0 MISSED OPPORTUNITY: 0 LATE IN PQ: 0 UNCOVERED: 0
PSCL2 COMMIT LATE MSHR PREFETCHES: 0
PSCL2 MPKI TOTAL: 0 MSHR LATE: 0 PQ LATE: 0 COMMIT LATE: 0 MISSED OPPORTUNITY: 0 UNCOVERED: 0
PSCL2 PREFETCHES SAME FILL-ORIGIN LEVEL: 0 DIFFERENT FILL-ORIGIN LEVEL: 0

LLC SPEC fills:          0  NON-SPEC fills:      89517
LLC Test counter :    3266531
LLC Leapfrog:          0
LLC MSHR merge:          0
LLC TOTAL     ACCESS:    8598107  HIT:    1151222  MISS:    7446885  HIT %:    13.3892  MISS %:    86.6108   MPKI: 37.2344
LLC LOAD      TOTAL       ACCESS:    3730544  HIT:          0  MISS:    3730544  HIT %:          0  MISS %:        100   MPKI: 18.6527
LLC LOAD      NON_SPEC    ACCESS:      89517  HIT:          0  MISS:      89517  HIT %:          0  MISS %:        100   MPKI: 0.447585
LLC LOAD      SPEC        ACCESS:    3641027  HIT:          0  MISS:    3641027  HIT %:          0  MISS %:        100   MPKI: 18.2051
LLC RFO       NON_SPEC    ACCESS:      97448  HIT:          0  MISS:      97448  HIT %:          0  MISS %:        100   MPKI: 0.48724
LLC WRITEBACK NON_SPEC    ACCESS:      97482  HIT:      97482  MISS:          0  HIT %:        100  MISS %:          0   MPKI: 0
LLC CLEAN_EVICTION NON_SPEC    ACCESS:    3273063  HIT:    1053740  MISS:    2219323  HIT %:    32.1943  MISS %:    67.8057   MPKI: 11.0966
LLC COMMIT LOAD NON_SPEC    ACCESS:    1392133  HIT:          0  MISS:    1392133  HIT %:          0  MISS %:        100   MPKI: 6.96066
LLC LOAD TRANSLATION NON_SPEC    ACCESS:       7437  HIT:          0  MISS:       7437  HIT %:          0  MISS %:        100   MPKI: 0.037185
LLC PREFETCH  REQUESTED:          0  ISSUED:          0  USEFUL:          0  USELESS:          0
LLC USEFUL LOAD PREFETCHES:          0 PREFETCH ISSUED TO LOWER LEVEL:          0  ACCURACY: -nan
LLC TIMELY PREFETCHES:          0 LATE PREFETCHES: 0 DROPPED PREFETCHES: 0
LLC COMMIT LATE PREFETCHES: 0 MISSED OPPORTUNITY: 0 LATE IN PQ: 0 UNCOVERED: 0
LLC COMMIT LATE MSHR PREFETCHES: 0
LLC MPKI TOTAL: 18.6527 MSHR LATE: 0 PQ LATE: 0 COMMIT LATE: 0 MISSED OPPORTUNITY: 0 UNCOVERED: 0
LLC PREFETCHES SAME FILL-ORIGIN LEVEL: 0 DIFFERENT FILL-ORIGIN LEVEL: 0
LLC AVERAGE MISS LATENCY: 160.775 cycles
LLC AVERAGE MISS LATENCY LOAD: 240.107 cycles
LLC AVERAGE MISS LATENCY PREFETCH: -nan cycles
LLC AVERAGE MSHR OCCUPANCY: 4.33725
LLC MSHR FULL: 0
LLC RQ	ACCESS:    5227562	FORWARD:          0	MERGED:          0	TO_CACHE:    5227562
LLC WQ	ACCESS:    3370544	FORWARD:          0	MERGED:          0	TO_CACHE:    3370544

LLC Dense regions hint to LLC: 0

RAW hits: 1740834
Loads Generated: 85960223
Loads sent to L1D: 84219381
Stores Generated: 11266825
Stores sent to L1D: 11266815
Major fault: 0 Minor fault: 70872
Allocated PAGES: 70872
Total Load insts: 104930172
Total Non-spec loads: 5405960
Percentage of speculative loads: 94.848

LeapFrogging counter: 54075219
Commit hits: 32485813 miss: 46760967
Commit hit %: 40.9932 miss %: 59.0068
Commits not translated: 0
Loads retired: 3933950
Stores retired: 11266815
Cache fills: 3933950
L1D response latency: 259.969 cycles
Load retirement latency: 679.852 cycles
OOO test counter: 0
Discarded buffer inserts: 32485813 hits: 521 hit %: 0.00160378

DRAM Statistics
 CHANNEL 0
 RQ ROW_BUFFER_HIT:    3803755  ROW_BUFFER_MISS:    1423807
 DBUS_CONGESTED:       9192
 WQ ROW_BUFFER_HIT:     895611  ROW_BUFFER_MISS:    2468442  FULL:          0

 AVG_CONGESTED_CYCLE: 4
 All warmup complete: 2
Channel 0 Bank busy for read cycles: 0
Channel 0 Bank busy for write cycles: 0
Channel 0
Rank 0
0banks busy for read cycles: 123369432
0banks busy for write cycles: 410732
1banks busy for read cycles: 136615603
1banks busy for write cycles: 52611595
2banks busy for read cycles: 90104872
2banks busy for write cycles: 47101112
3banks busy for read cycles: 22029107
3banks busy for write cycles: 43127029
4banks busy for read cycles: 4503954
4banks busy for write cycles: 24363271
5banks busy for read cycles: 455634
5banks busy for write cycles: 13487721
6banks busy for read cycles: 102128
6banks busy for write cycles: 5737837
7banks busy for read cycles: 0
7banks busy for write cycles: 1592151
8banks busy for read cycles: 0
8banks busy for write cycles: 236131

CPU 0 Branch Prediction Accuracy: 99.9706% MPKI: 0.00733 Average ROB Occupancy at Mispredict: 166.967
Branch types
NOT_BRANCH: 195007649 97.5038%
BRANCH_DIRECT_JUMP: 0 0%
BRANCH_INDIRECT: 0 0%
BRANCH_CONDITIONAL: 4992281 2.49614%
BRANCH_DIRECT_CALL: 0 0%
BRANCH_INDIRECT_CALL: 0 0%
BRANCH_RETURN: 0 0%
BRANCH_OTHER: 0 0%

DRAM PAGES: 1048576
Allocated PAGES: 70872
