
*** ChampSim Multicore Out-of-Order Simulator ***

Warmup Instructions: 50000000
Simulation Instructions: 200000000
Number of CPUs: 1
LLC sets: 2048
LLC ways: 16
L0D sets: 16
L0D ways: 2
ROB size: 352
LQ size: 128
SQ size: 72
Secure Berti: OFF
Berti: OFF
Berti Fill: OFF
On commit prefetching: OFF
Hit-based filter: OFF
Time-guarding: ON
Free-slotting: ON
Leap-frogging: ON
Train prefetcher on L0D bypass: OFF
No translation penalty for prefetchers: OFF
Prefetch to L0D only: OFF
Prefetch to L1D only: OFF
Clean evictions: ON
Commit loads: ON
Commit write: ON
Fill commit loads to L2C, LLC: ON
DRAM IO FREQUENCY: 6400
ROB SIZE: 352
Off-chip DRAM Size: 4096 MB Channels: 1 Width: 64-bit Data Rate: 6400 MT/s
CPU 0 runs /home/sumon/secure_berti/GhostMinion/../../traces/spec/605.mcf_s-1152B.champsimtrace.xz
.xz
BTB has LRU replacement policy
ITLB has LRU replacement policy
DTLB has LRU replacement policy
STLB has LRU replacement policy
L1I has LRU replacement policy
L0D has LRU replacement policy
L1D has LRU replacement policy
L2C has LRU replacement policy
LLC has LRU replacement policy
Heartbeat CPU 0 instructions: 10000001 cycles: 5579429 heartbeat IPC: 1.7923 cumulative IPC: 1.7923 (Simulation time: 0 hr 0 min 42 sec) 
Heartbeat CPU 0 instructions: 20000000 cycles: 11114594 heartbeat IPC: 1.80663 cumulative IPC: 1.79944 (Simulation time: 0 hr 1 min 24 sec) 
Heartbeat CPU 0 instructions: 30000000 cycles: 16672387 heartbeat IPC: 1.79928 cumulative IPC: 1.79938 (Simulation time: 0 hr 2 min 6 sec) 
Heartbeat CPU 0 instructions: 40000001 cycles: 22247971 heartbeat IPC: 1.79353 cumulative IPC: 1.79792 (Simulation time: 0 hr 2 min 48 sec) 
Heartbeat CPU 0 instructions: 50000001 cycles: 27810428 heartbeat IPC: 1.79777 cumulative IPC: 1.79789 (Simulation time: 0 hr 3 min 27 sec) 

Warmup complete CPU 0 instructions: 50000001 cycles: 27810428 (Simulation time: 0 hr 3 min 27 sec) 

Heartbeat CPU 0 instructions: 60000001 cycles: 67688626 heartbeat IPC: 0.250764 cumulative IPC: 0.250764 (Simulation time: 0 hr 4 min 15 sec) 
Heartbeat CPU 0 instructions: 70000000 cycles: 108139212 heartbeat IPC: 0.247215 cumulative IPC: 0.248977 (Simulation time: 0 hr 5 min 2 sec) 
Heartbeat CPU 0 instructions: 80000001 cycles: 147955034 heartbeat IPC: 0.251156 cumulative IPC: 0.249699 (Simulation time: 0 hr 5 min 50 sec) 
Heartbeat CPU 0 instructions: 90000003 cycles: 188134270 heartbeat IPC: 0.248885 cumulative IPC: 0.249495 (Simulation time: 0 hr 6 min 37 sec) 
Heartbeat CPU 0 instructions: 100000001 cycles: 228654572 heartbeat IPC: 0.24679 cumulative IPC: 0.248949 (Simulation time: 0 hr 7 min 25 sec) 
Heartbeat CPU 0 instructions: 110000000 cycles: 269183862 heartbeat IPC: 0.246735 cumulative IPC: 0.248577 (Simulation time: 0 hr 8 min 13 sec) 
Heartbeat CPU 0 instructions: 120000002 cycles: 309938387 heartbeat IPC: 0.245372 cumulative IPC: 0.248114 (Simulation time: 0 hr 9 min 2 sec) 
Heartbeat CPU 0 instructions: 130000002 cycles: 351492650 heartbeat IPC: 0.240649 cumulative IPC: 0.247156 (Simulation time: 0 hr 9 min 52 sec) 
Heartbeat CPU 0 instructions: 140000003 cycles: 393913964 heartbeat IPC: 0.235731 cumulative IPC: 0.245832 (Simulation time: 0 hr 10 min 42 sec) 
Heartbeat CPU 0 instructions: 150000001 cycles: 437007568 heartbeat IPC: 0.232053 cumulative IPC: 0.244381 (Simulation time: 0 hr 11 min 33 sec) 
Heartbeat CPU 0 instructions: 160000000 cycles: 481253678 heartbeat IPC: 0.226009 cumulative IPC: 0.242588 (Simulation time: 0 hr 12 min 26 sec) 
Heartbeat CPU 0 instructions: 170000001 cycles: 527006839 heartbeat IPC: 0.218564 cumulative IPC: 0.240386 (Simulation time: 0 hr 13 min 19 sec) 
Heartbeat CPU 0 instructions: 180000003 cycles: 573272362 heartbeat IPC: 0.216144 cumulative IPC: 0.23833 (Simulation time: 0 hr 14 min 15 sec) 
Heartbeat CPU 0 instructions: 190000002 cycles: 620306087 heartbeat IPC: 0.212613 cumulative IPC: 0.236289 (Simulation time: 0 hr 15 min 10 sec) 
Heartbeat CPU 0 instructions: 200000001 cycles: 667800734 heartbeat IPC: 0.21055 cumulative IPC: 0.234379 (Simulation time: 0 hr 16 min 4 sec) 
Heartbeat CPU 0 instructions: 210000002 cycles: 714828836 heartbeat IPC: 0.212639 cumulative IPC: 0.23289 (Simulation time: 0 hr 16 min 55 sec) 
Heartbeat CPU 0 instructions: 220000000 cycles: 760673010 heartbeat IPC: 0.21813 cumulative IPC: 0.231967 (Simulation time: 0 hr 17 min 45 sec) 
Heartbeat CPU 0 instructions: 230000002 cycles: 806289828 heartbeat IPC: 0.219217 cumulative IPC: 0.23122 (Simulation time: 0 hr 18 min 33 sec) 
Heartbeat CPU 0 instructions: 240000000 cycles: 855420427 heartbeat IPC: 0.203539 cumulative IPC: 0.229577 (Simulation time: 0 hr 19 min 22 sec) 
Heartbeat CPU 0 instructions: 250000001 cycles: 901541206 heartbeat IPC: 0.216822 cumulative IPC: 0.228903 (Simulation time: 0 hr 20 min 9 sec) 
Finished CPU 0 instructions: 200000000 cycles: 873730778 cumulative IPC: 0.228903 (Simulation time: 0 hr 20 min 9 sec) 
 Instruction ID: 250000117

ChampSim completed all CPUs

Region of Interest Statistics

CPU 0 cumulative IPC: 0.228903 instructions: 200000000 cycles: 873730778
ITLB SPEC fills:          0  NON-SPEC fills:          0
ITLB Test counter :          0
ITLB Leapfrog:          0
ITLB MSHR merge:          0
ITLB TOTAL     ACCESS:   34754001  HIT:   34754001  MISS:          0  HIT %:        100  MISS %:          0   MPKI: 0
ITLB LOAD TRANSLATION NON_SPEC    ACCESS:   34754001  HIT:   34754001  MISS:          0  HIT %:        100  MISS %:          0   MPKI: 0
ITLB PREFETCH  REQUESTED:          0  ISSUED:          0  USEFUL:          0  USELESS:          0
ITLB USEFUL LOAD PREFETCHES:          0 PREFETCH ISSUED TO LOWER LEVEL:          0  ACCURACY: -nan
ITLB TIMELY PREFETCHES:          0 LATE PREFETCHES: 0 DROPPED PREFETCHES: 0
ITLB COMMIT LATE PREFETCHES: 0 MISSED OPPORTUNITY: 0 LATE IN PQ: 0 UNCOVERED: 0
ITLB COMMIT LATE MSHR PREFETCHES: 0
ITLB MPKI TOTAL: 0 MSHR LATE: 0 PQ LATE: 0 COMMIT LATE: 0 MISSED OPPORTUNITY: 0 UNCOVERED: 0
ITLB PREFETCHES SAME FILL-ORIGIN LEVEL: 0 DIFFERENT FILL-ORIGIN LEVEL: 0
ITLB AVERAGE MISS LATENCY: -nan cycles
ITLB AVERAGE MISS LATENCY LOAD: -nan cycles
ITLB AVERAGE MISS LATENCY PREFETCH: -nan cycles
ITLB AVERAGE MSHR OCCUPANCY: 0
ITLB MSHR FULL: 0
ITLB RQ	ACCESS:   36216099	FORWARD:          0	MERGED:    1462099	TO_CACHE:   34754000

DTLB SPEC fills:          0  NON-SPEC fills:          0
DTLB Test counter :          0
DTLB Leapfrog:          0
DTLB MSHR merge:          0
DTLB TOTAL     ACCESS:   59685200  HIT:   52375732  MISS:    7309468  HIT %:    87.7533  MISS %:    12.2467   MPKI: 36.5473
DTLB LOAD TRANSLATION NON_SPEC    ACCESS:   59685200  HIT:   52375732  MISS:    7309468  HIT %:    87.7533  MISS %:    12.2467   MPKI: 36.5473
DTLB PREFETCH  REQUESTED:          0  ISSUED:          0  USEFUL:          0  USELESS:          0
DTLB USEFUL LOAD PREFETCHES:          0 PREFETCH ISSUED TO LOWER LEVEL:          0  ACCURACY: -nan
DTLB TIMELY PREFETCHES:          0 LATE PREFETCHES: 0 DROPPED PREFETCHES: 0
DTLB COMMIT LATE PREFETCHES: 0 MISSED OPPORTUNITY: 0 LATE IN PQ: 0 UNCOVERED: 0
DTLB COMMIT LATE MSHR PREFETCHES: 0
DTLB MPKI TOTAL: 0 MSHR LATE: 0 PQ LATE: 0 COMMIT LATE: 0 MISSED OPPORTUNITY: 0 UNCOVERED: 0
DTLB PREFETCHES SAME FILL-ORIGIN LEVEL: 0 DIFFERENT FILL-ORIGIN LEVEL: 0
DTLB AVERAGE MISS LATENCY: 11.3391 cycles
DTLB AVERAGE MISS LATENCY LOAD: -nan cycles
DTLB AVERAGE MISS LATENCY PREFETCH: -nan cycles
DTLB AVERAGE MSHR OCCUPANCY: 0.0795283
DTLB MSHR FULL: 0
DTLB RQ	ACCESS:   72809256	FORWARD:          0	MERGED:   12633306	TO_CACHE:   60175950

STLB SPEC fills:          0  NON-SPEC fills:          0
STLB Test counter :          0
STLB Leapfrog:          0
STLB MSHR merge:          0
STLB TOTAL     ACCESS:    7309468  HIT:    7209753  MISS:      99715  HIT %:    98.6358  MISS %:    1.36419   MPKI: 0.498575
STLB LOAD TRANSLATION NON_SPEC    ACCESS:    7309468  HIT:    7209753  MISS:      99715  HIT %:    98.6358  MISS %:    1.36419   MPKI: 0.498575
STLB PREFETCH  REQUESTED:          0  ISSUED:          0  USEFUL:          0  USELESS:          0
STLB USEFUL LOAD PREFETCHES:          0 PREFETCH ISSUED TO LOWER LEVEL:          0  ACCURACY: -nan
STLB TIMELY PREFETCHES:          0 LATE PREFETCHES: 0 DROPPED PREFETCHES: 0
STLB COMMIT LATE PREFETCHES: 0 MISSED OPPORTUNITY: 0 LATE IN PQ: 0 UNCOVERED: 0
STLB COMMIT LATE MSHR PREFETCHES: 0
STLB MPKI TOTAL: 0 MSHR LATE: 0 PQ LATE: 0 COMMIT LATE: 0 MISSED OPPORTUNITY: 0 UNCOVERED: 0
STLB PREFETCHES SAME FILL-ORIGIN LEVEL: 0 DIFFERENT FILL-ORIGIN LEVEL: 0
STLB AVERAGE MISS LATENCY: 166.745 cycles
STLB AVERAGE MISS LATENCY LOAD: -nan cycles
STLB AVERAGE MISS LATENCY PREFETCH: -nan cycles
STLB AVERAGE MSHR OCCUPANCY: 0.0179344
STLB MSHR FULL: 0
STLB RQ	ACCESS:    7309468	FORWARD:          0	MERGED:          0	TO_CACHE:    7309468

STLB Hit, L1D data hit: 0
STLB Hit, L2C data hit: 0
STLB Hit, LLC data hit: 0
STLB Hit, LLC data miss: 0
STLB STLB hints to L2: 0
L0D SPEC fills:   33766130  NON-SPEC fills:          0
L0D TimeGuard Request with older TS:     460427 Restricted eviction:     253593 read:     228138
L0D Test counter :          0
L0D Leapfrog:          0
L0D MSHR merge:    2753501
L0D TOTAL     ACCESS:   52252821  HIT:    3014327  MISS:   49238494  HIT %:    5.76874  MISS %:    94.2313   MPKI: 246.192
L0D LOAD      TOTAL       ACCESS:   52252821  HIT:    3014327  MISS:   49238494  HIT %:    5.76874  MISS %:    94.2313   MPKI: 246.192
L0D LOAD      NON_SPEC    ACCESS:   15793967  HIT:     575193  MISS:   15218774  HIT %:    3.64185  MISS %:    96.3581   MPKI: 76.0939
L0D LOAD      SPEC        ACCESS:   36458854  HIT:    2439134  MISS:   34019720  HIT %:     6.6901  MISS %:    93.3099   MPKI: 170.099
L0D PREFETCH  REQUESTED:          0  ISSUED:          0  USEFUL:          0  USELESS:          0
L0D USEFUL LOAD PREFETCHES:          0 PREFETCH ISSUED TO LOWER LEVEL:          0  ACCURACY: -nan
L0D TIMELY PREFETCHES:          0 LATE PREFETCHES: 0 DROPPED PREFETCHES: 0
L0D COMMIT LATE PREFETCHES: 0 MISSED OPPORTUNITY: 0 LATE IN PQ: 0 UNCOVERED: 0
L0D COMMIT LATE MSHR PREFETCHES: 0
L0D MPKI TOTAL: 259.96 MSHR LATE: 0 PQ LATE: 0 COMMIT LATE: 0 MISSED OPPORTUNITY: 0 UNCOVERED: 0
L0D PREFETCHES SAME FILL-ORIGIN LEVEL: 0 DIFFERENT FILL-ORIGIN LEVEL: 0
L0D AVERAGE MISS LATENCY: 31.1511 cycles
L0D AVERAGE MISS LATENCY LOAD: 31.1511 cycles
L0D AVERAGE MISS LATENCY PREFETCH: -nan cycles
L0D AVERAGE MSHR OCCUPANCY: 2.88523
L0D MSHR FULL: 0.245015
L0D RQ	ACCESS:   68382951	FORWARD:          0	MERGED:   13376628	TO_CACHE:   55006323
L0D WQ	ACCESS:   17802933	FORWARD:          0	MERGED:          0	TO_CACHE:   17802933

L1D SPEC fills:          0  NON-SPEC fills:    3453435
L1D Test counter :   10090864
L1D Leapfrog:          0
L1D MSHR merge:       6497
L1D TOTAL     ACCESS:  110641361  HIT:   86754099  MISS:   23887262  HIT %:    78.4102  MISS %:    21.5898   MPKI: 119.436
L1D LOAD      TOTAL       ACCESS:   49231997  HIT:   35880262  MISS:   13351735  HIT %:      72.88  MISS %:      27.12   MPKI: 66.7587
L1D LOAD      NON_SPEC    ACCESS:   15217939  HIT:   11764504  MISS:    3453435  HIT %:    77.3068  MISS %:    22.6932   MPKI: 17.2672
L1D LOAD      SPEC        ACCESS:   34014058  HIT:   24115758  MISS:    9898300  HIT %:    70.8994  MISS %:    29.1006   MPKI: 49.4915
L1D RFO       NON_SPEC    ACCESS:   15394209  HIT:   14785400  MISS:     608809  HIT %:    96.0452  MISS %:    3.95479   MPKI: 3.04405
L1D COMMIT LOAD NON_SPEC    ACCESS:   12532261  HIT:   12102607  MISS:     429654  HIT %:    96.5716  MISS %:    3.42838   MPKI: 2.14827
L1D COMMIT WRITE NON_SPEC    ACCESS:   33482894  HIT:   23985830  MISS:    9497064  HIT %:    71.6361  MISS %:    28.3639   MPKI: 47.4853
L1D PREFETCH  REQUESTED:          0  ISSUED:          0  USEFUL:          0  USELESS:          0
L1D USEFUL LOAD PREFETCHES:          0 PREFETCH ISSUED TO LOWER LEVEL:          0  ACCURACY: -nan
L1D TIMELY PREFETCHES:          0 LATE PREFETCHES: 0 DROPPED PREFETCHES: 0
L1D COMMIT LATE PREFETCHES: 0 MISSED OPPORTUNITY: 0 LATE IN PQ: 0 UNCOVERED: 0
L1D COMMIT LATE MSHR PREFETCHES: 0
L1D MPKI TOTAL: 66.7912 MSHR LATE: 0 PQ LATE: 0 COMMIT LATE: 0 MISSED OPPORTUNITY: 0 UNCOVERED: 0
L1D PREFETCHES SAME FILL-ORIGIN LEVEL: 0 DIFFERENT FILL-ORIGIN LEVEL: 0
L1D AVERAGE MISS LATENCY: 53.0771 cycles
L1D AVERAGE MISS LATENCY LOAD: 91.0855 cycles
L1D AVERAGE MISS LATENCY PREFETCH: -nan cycles
L1D AVERAGE MSHR OCCUPANCY: 0.798208
L1D MSHR FULL: 4.36945e-06
L1D RQ	ACCESS:   68247402	FORWARD:          0	MERGED:    5985450	TO_CACHE:   61792374
L1D WQ	ACCESS:   51291693	FORWARD:     469578	MERGED:    1330616	TO_CACHE:   49961077

L1D UNIQUE REGIONS ACCESSED: 0
L1D REGIONS CONFLICTS: 0
L1D Cross Page Prefetch Requests: 0
L1D Same Page Prefetch Requests: 0
L1D ROI Sum of L1D PQ occupancy: 0
L1D PREFETCHES PUSHED FROM L2C: 0
L1I SPEC fills:          0  NON-SPEC fills:          0
L1I Test counter :          0
L1I Leapfrog:          0
L1I MSHR merge:          0
L1I TOTAL     ACCESS:   36216100  HIT:   36216098  MISS:          2  HIT %:        100  MISS %: 5.52241e-06   MPKI: 1e-05
L1I LOAD      TOTAL       ACCESS:   36216100  HIT:   36216098  MISS:          2  HIT %:        100  MISS %: 5.52241e-06   MPKI: 1e-05
L1I LOAD      NON_SPEC    ACCESS:   36216100  HIT:   36216098  MISS:          2  HIT %:        100  MISS %: 5.52241e-06   MPKI: 1e-05
L1I PREFETCH  REQUESTED:          0  ISSUED:          0  USEFUL:          0  USELESS:          0
L1I USEFUL LOAD PREFETCHES:          0 PREFETCH ISSUED TO LOWER LEVEL:          0  ACCURACY: -nan
L1I TIMELY PREFETCHES:          0 LATE PREFETCHES: 0 DROPPED PREFETCHES: 0
L1I COMMIT LATE PREFETCHES: 0 MISSED OPPORTUNITY: 0 LATE IN PQ: 0 UNCOVERED: 0
L1I COMMIT LATE MSHR PREFETCHES: 0
L1I MPKI TOTAL: 1e-05 MSHR LATE: 0 PQ LATE: 0 COMMIT LATE: 0 MISSED OPPORTUNITY: 0 UNCOVERED: 0
L1I PREFETCHES SAME FILL-ORIGIN LEVEL: 0 DIFFERENT FILL-ORIGIN LEVEL: 0
L1I AVERAGE MISS LATENCY: 214 cycles
L1I AVERAGE MISS LATENCY LOAD: 214 cycles
L1I AVERAGE MISS LATENCY PREFETCH: -nan cycles
L1I AVERAGE MSHR OCCUPANCY: 2.7612e-08
L1I MSHR FULL: 0
L1I RQ	ACCESS:   55448185	FORWARD:          0	MERGED:   19232086	TO_CACHE:   36216099

BTB SPEC fills:          0  NON-SPEC fills:          0
BTB Test counter :          0
BTB Leapfrog:          0
BTB MSHR merge:          0
BTB TOTAL     ACCESS:   49743916  HIT:   48131262  MISS:    1612654  HIT %:    96.7581  MISS %:    3.24191   MPKI: 8.06327
BTB BRANCH_DIRECT_JUMP	ACCESS:    5836928  HIT:    5836891  MISS:         37
BTB BRANCH_INDIRECT	ACCESS:          0  HIT:          0  MISS:          0
BTB BRANCH_CONDITIONAL	ACCESS:   36112465  HIT:   36112386  MISS:         79
BTB BRANCH_DIRECT_CALL	ACCESS:    3647058  HIT:    3647040  MISS:         18
BTB BRANCH_INDIRECT_CALL	ACCESS:     250202  HIT:     250194  MISS:          8
BTB BRANCH_RETURN	ACCESS:    3897263  HIT:    2284751  MISS:    1612512
BTB BRANCH_OTHER ACCESS:          0  HIT:          0  MISS:          0

L2C SPEC fills:          0  NON-SPEC fills:    2540521
L2C Test counter :    8701017
L2C Leapfrog:          0
L2C MSHR merge:          0
L2C TOTAL     ACCESS:   25648237  HIT:    5750617  MISS:   19897620  HIT %:    22.4211  MISS %:    77.5789   MPKI: 99.4881
L2C LOAD      TOTAL       ACCESS:   13351489  HIT:    2328449  MISS:   11023040  HIT %:    17.4396  MISS %:    82.5604   MPKI: 55.1152
L2C LOAD      NON_SPEC    ACCESS:    3453417  HIT:     912894  MISS:    2540523  HIT %:    26.4345  MISS %:    73.5655   MPKI: 12.7026
L2C LOAD      SPEC        ACCESS:    9898072  HIT:    1415555  MISS:    8482517  HIT %:    14.3013  MISS %:    85.6987   MPKI: 42.4126
L2C RFO       NON_SPEC    ACCESS:     608804  HIT:     349360  MISS:     259444  HIT %:    57.3846  MISS %:    42.6154   MPKI: 1.29722
L2C WRITEBACK NON_SPEC    ACCESS:     669427  HIT:     669063  MISS:        364  HIT %:    99.9456  MISS %:  0.0543749   MPKI: 0.00182
L2C CLEAN_EVICTION NON_SPEC    ACCESS:   10090860  HIT:    1837210  MISS:    8253650  HIT %:    18.2067  MISS %:    81.7933   MPKI: 41.2683
L2C COMMIT LOAD NON_SPEC    ACCESS:     429466  HIT:     105005  MISS:     324461  HIT %:    24.4501  MISS %:    75.5499   MPKI: 1.62231
L2C LOAD TRANSLATION NON_SPEC    ACCESS:     498191  HIT:     461530  MISS:      36661  HIT %:    92.6412  MISS %:    7.35882   MPKI: 0.183305
L2C PREFETCH  REQUESTED:          0  ISSUED:          0  USEFUL:          0  USELESS:          0
L2C USEFUL LOAD PREFETCHES:          0 PREFETCH ISSUED TO LOWER LEVEL:          0  ACCURACY: -nan
L2C TIMELY PREFETCHES:          0 LATE PREFETCHES: 0 DROPPED PREFETCHES: 0
L2C COMMIT LATE PREFETCHES: 0 MISSED OPPORTUNITY: 0 LATE IN PQ: 0 UNCOVERED: 0
L2C COMMIT LATE MSHR PREFETCHES: 0
L2C MPKI TOTAL: 55.1152 MSHR LATE: 0 PQ LATE: 0 COMMIT LATE: 0 MISSED OPPORTUNITY: 0 UNCOVERED: 0
L2C PREFETCHES SAME FILL-ORIGIN LEVEL: 0 DIFFERENT FILL-ORIGIN LEVEL: 0
L2C AVERAGE MISS LATENCY: 54.9775 cycles
L2C AVERAGE MISS LATENCY LOAD: 95.616 cycles
L2C AVERAGE MISS LATENCY PREFETCH: -nan cycles
L2C AVERAGE MSHR OCCUPANCY: 2.05252
L2C MSHR FULL: 0
L2C RQ	ACCESS:   14888391	FORWARD:          0	MERGED:          0	TO_CACHE:   14887950
L2C WQ	ACCESS:   10760301	FORWARD:        441	MERGED:         14	TO_CACHE:   10760287

L2C Instructions Evicting Data 2
L2C Translations Evicting Data 36561
L2C Data Evicting Data 3114388
L2C Instructions Evicting Instructions 0
L2C Translations Evicting Instructions 0
L2C Data Evicting Instructions 0
L2C Instructions Evicting Translations 0
L2C Translations Evicting Translations 100
L2C Data Evicting Translations 10038
L2C Dense regions hint from L2: 0
PSCL5 SPEC fills:          0  NON-SPEC fills:          0
PSCL5 Test counter :          0
PSCL5 Leapfrog:          0
PSCL5 MSHR merge:          0
PSCL5 TOTAL     ACCESS:          0  HIT:          0  MISS:          0  HIT %:       -nan  MISS %:       -nan   MPKI: 0
PSCL5 PREFETCH  REQUESTED:          0  ISSUED:          0  USEFUL:          0  USELESS:          0
PSCL5 USEFUL LOAD PREFETCHES:          0 PREFETCH ISSUED TO LOWER LEVEL:          0  ACCURACY: -nan
PSCL5 TIMELY PREFETCHES:          0 LATE PREFETCHES: 0 DROPPED PREFETCHES: 0
PSCL5 COMMIT LATE PREFETCHES: 0 MISSED OPPORTUNITY: 0 LATE IN PQ: 0 UNCOVERED: 0
PSCL5 COMMIT LATE MSHR PREFETCHES: 0
PSCL5 MPKI TOTAL: 0 MSHR LATE: 0 PQ LATE: 0 COMMIT LATE: 0 MISSED OPPORTUNITY: 0 UNCOVERED: 0
PSCL5 PREFETCHES SAME FILL-ORIGIN LEVEL: 0 DIFFERENT FILL-ORIGIN LEVEL: 0

PSCL4 SPEC fills:          0  NON-SPEC fills:          0
PSCL4 Test counter :          0
PSCL4 Leapfrog:          0
PSCL4 MSHR merge:          0
PSCL4 TOTAL     ACCESS:          0  HIT:          0  MISS:          0  HIT %:       -nan  MISS %:       -nan   MPKI: 0
PSCL4 PREFETCH  REQUESTED:          0  ISSUED:          0  USEFUL:          0  USELESS:          0
PSCL4 USEFUL LOAD PREFETCHES:          0 PREFETCH ISSUED TO LOWER LEVEL:          0  ACCURACY: -nan
PSCL4 TIMELY PREFETCHES:          0 LATE PREFETCHES: 0 DROPPED PREFETCHES: 0
PSCL4 COMMIT LATE PREFETCHES: 0 MISSED OPPORTUNITY: 0 LATE IN PQ: 0 UNCOVERED: 0
PSCL4 COMMIT LATE MSHR PREFETCHES: 0
PSCL4 MPKI TOTAL: 0 MSHR LATE: 0 PQ LATE: 0 COMMIT LATE: 0 MISSED OPPORTUNITY: 0 UNCOVERED: 0
PSCL4 PREFETCHES SAME FILL-ORIGIN LEVEL: 0 DIFFERENT FILL-ORIGIN LEVEL: 0

PSCL3 SPEC fills:          0  NON-SPEC fills:          0
PSCL3 Test counter :          0
PSCL3 Leapfrog:          0
PSCL3 MSHR merge:          0
PSCL3 TOTAL     ACCESS:          0  HIT:          0  MISS:          0  HIT %:       -nan  MISS %:       -nan   MPKI: 0
PSCL3 PREFETCH  REQUESTED:          0  ISSUED:          0  USEFUL:          0  USELESS:          0
PSCL3 USEFUL LOAD PREFETCHES:          0 PREFETCH ISSUED TO LOWER LEVEL:          0  ACCURACY: -nan
PSCL3 TIMELY PREFETCHES:          0 LATE PREFETCHES: 0 DROPPED PREFETCHES: 0
PSCL3 COMMIT LATE PREFETCHES: 0 MISSED OPPORTUNITY: 0 LATE IN PQ: 0 UNCOVERED: 0
PSCL3 COMMIT LATE MSHR PREFETCHES: 0
PSCL3 MPKI TOTAL: 0 MSHR LATE: 0 PQ LATE: 0 COMMIT LATE: 0 MISSED OPPORTUNITY: 0 UNCOVERED: 0
PSCL3 PREFETCHES SAME FILL-ORIGIN LEVEL: 0 DIFFERENT FILL-ORIGIN LEVEL: 0

PSCL2 SPEC fills:          0  NON-SPEC fills:          0
PSCL2 Test counter :          0
PSCL2 Leapfrog:          0
PSCL2 MSHR merge:          0
PSCL2 TOTAL     ACCESS:          0  HIT:          0  MISS:          0  HIT %:       -nan  MISS %:       -nan   MPKI: 0
PSCL2 PREFETCH  REQUESTED:          0  ISSUED:          0  USEFUL:          0  USELESS:          0
PSCL2 USEFUL LOAD PREFETCHES:          0 PREFETCH ISSUED TO LOWER LEVEL:          0  ACCURACY: -nan
PSCL2 TIMELY PREFETCHES:          0 LATE PREFETCHES: 0 DROPPED PREFETCHES: 0
PSCL2 COMMIT LATE PREFETCHES: 0 MISSED OPPORTUNITY: 0 LATE IN PQ: 0 UNCOVERED: 0
PSCL2 COMMIT LATE MSHR PREFETCHES: 0
PSCL2 MPKI TOTAL: 0 MSHR LATE: 0 PQ LATE: 0 COMMIT LATE: 0 MISSED OPPORTUNITY: 0 UNCOVERED: 0
PSCL2 PREFETCHES SAME FILL-ORIGIN LEVEL: 0 DIFFERENT FILL-ORIGIN LEVEL: 0

LLC SPEC fills:          0  NON-SPEC fills:     607078
LLC Test counter :    5018643
LLC Leapfrog:          0
LLC MSHR merge:          0
LLC TOTAL     ACCESS:   20642064  HIT:   10234642  MISS:   10407422  HIT %:    49.5815  MISS %:    50.4185   MPKI: 52.0371
LLC LOAD      TOTAL       ACCESS:   11022914  HIT:    5593930  MISS:    5428984  HIT %:    50.7482  MISS %:    49.2518   MPKI: 27.1449
LLC LOAD      NON_SPEC    ACCESS:    2540491  HIT:    1933411  MISS:     607080  HIT %:    76.1038  MISS %:    23.8962   MPKI: 3.0354
LLC LOAD      SPEC        ACCESS:    8482423  HIT:    3660519  MISS:    4821904  HIT %:    43.1542  MISS %:    56.8458   MPKI: 24.1095
LLC RFO       NON_SPEC    ACCESS:     259436  HIT:     253720  MISS:       5716  HIT %:    97.7968  MISS %:    2.20324   MPKI: 0.02858
LLC WRITEBACK NON_SPEC    ACCESS:     297674  HIT:     292478  MISS:       5196  HIT %:    98.2545  MISS %:    1.74553   MPKI: 0.02598
LLC CLEAN_EVICTION NON_SPEC    ACCESS:    8701017  HIT:    3851630  MISS:    4849387  HIT %:    44.2664  MISS %:    55.7336   MPKI: 24.2469
LLC COMMIT LOAD NON_SPEC    ACCESS:     324362  HIT:     221276  MISS:     103086  HIT %:    68.2188  MISS %:    31.7812   MPKI: 0.51543
LLC LOAD TRANSLATION NON_SPEC    ACCESS:      36661  HIT:      21608  MISS:      15053  HIT %:      58.94  MISS %:      41.06   MPKI: 0.075265
LLC PREFETCH  REQUESTED:          0  ISSUED:          0  USEFUL:          0  USELESS:          0
LLC USEFUL LOAD PREFETCHES:          0 PREFETCH ISSUED TO LOWER LEVEL:          0  ACCURACY: -nan
LLC TIMELY PREFETCHES:          0 LATE PREFETCHES: 0 DROPPED PREFETCHES: 0
LLC COMMIT LATE PREFETCHES: 0 MISSED OPPORTUNITY: 0 LATE IN PQ: 0 UNCOVERED: 0
LLC COMMIT LATE MSHR PREFETCHES: 0
LLC MPKI TOTAL: 27.1449 MSHR LATE: 0 PQ LATE: 0 COMMIT LATE: 0 MISSED OPPORTUNITY: 0 UNCOVERED: 0
LLC PREFETCHES SAME FILL-ORIGIN LEVEL: 0 DIFFERENT FILL-ORIGIN LEVEL: 0
LLC AVERAGE MISS LATENCY: 78.4965 cycles
LLC AVERAGE MISS LATENCY LOAD: 146.603 cycles
LLC AVERAGE MISS LATENCY PREFETCH: -nan cycles
LLC AVERAGE MSHR OCCUPANCY: 1.61101
LLC MSHR FULL: 0
LLC RQ	ACCESS:   11643606	FORWARD:          0	MERGED:          0	TO_CACHE:   11643373
LLC WQ	ACCESS:    8998691	FORWARD:        233	MERGED:          0	TO_CACHE:    8998691

LLC Dense regions hint to LLC: 0

RAW hits: 2270030
Loads Generated: 70652983
Loads sent to L1D: 68382951
Stores Generated: 17802933
Stores sent to L1D: 17802933
Major fault: 0 Minor fault: 80635
Allocated PAGES: 80635
Total Load insts: 84736047
Total Non-spec loads: 17437877
Percentage of speculative loads: 79.4209

LeapFrogging counter: 8527502
Commit hits: 33488760 miss: 19008908
Commit hit %: 63.7909 miss %: 36.2091
Commits not translated: 0
Loads retired: 13351735
Stores retired: 17802933
Cache fills: 13351735
L1D response latency: 91.0855 cycles
Load retirement latency: 231.479 cycles
OOO test counter: 0
Discarded buffer inserts: 33488760 hits: 44466 hit %: 0.132779

DRAM Statistics
 CHANNEL 0
 RQ ROW_BUFFER_HIT:     776242  ROW_BUFFER_MISS:    4776016
 DBUS_CONGESTED:       3457
 WQ ROW_BUFFER_HIT:    1258571  ROW_BUFFER_MISS:    3795607  FULL:       1049

 AVG_CONGESTED_CYCLE: 4
 All warmup complete: 2
Channel 0 Bank busy for read cycles: 0
Channel 0 Bank busy for write cycles: 0
Channel 0
Rank 0
0banks busy for read cycles: 301505583
0banks busy for write cycles: 274924
1banks busy for read cycles: 146954990
1banks busy for write cycles: 43388771
2banks busy for read cycles: 70508501
2banks busy for write cycles: 28189133
3banks busy for read cycles: 39130277
3banks busy for write cycles: 30084567
4banks busy for read cycles: 23861157
4banks busy for write cycles: 31055678
5banks busy for read cycles: 15984886
5banks busy for write cycles: 29871978
6banks busy for read cycles: 11299539
6banks busy for write cycles: 28317928
7banks busy for read cycles: 7722276
7banks busy for write cycles: 28314857
8banks busy for read cycles: 6656317
8banks busy for write cycles: 30609417

CPU 0 Branch Prediction Accuracy: 94.5902% MPKI: 13.9808 Average ROB Occupancy at Mispredict: 27.4251
Branch types
NOT_BRANCH: 148312419 74.1562%
BRANCH_DIRECT_JUMP: 5836928 2.91846%
BRANCH_INDIRECT: 0 0%
BRANCH_CONDITIONAL: 38055866 19.0279%
BRANCH_DIRECT_CALL: 3647058 1.82353%
BRANCH_INDIRECT_CALL: 250202 0.125101%
BRANCH_RETURN: 3897263 1.94863%
BRANCH_OTHER: 0 0%

DRAM PAGES: 1048576
Allocated PAGES: 80635
