
*** ChampSim Multicore Out-of-Order Simulator ***

Warmup Instructions: 50000000
Simulation Instructions: 200000000
Number of CPUs: 1
LLC sets: 2048
LLC ways: 16
L0D sets: 16
L0D ways: 2
ROB size: 352
LQ size: 128
SQ size: 72
Secure Berti: OFF
Berti: OFF
Berti Fill: OFF
On commit prefetching: OFF
Hit-based filter: OFF
Time-guarding: ON
Free-slotting: ON
Leap-frogging: ON
Train prefetcher on L0D bypass: OFF
No translation penalty for prefetchers: OFF
Prefetch to L0D only: OFF
Prefetch to L1D only: OFF
Clean evictions: ON
Commit loads: ON
Commit write: ON
Fill commit loads to L2C, LLC: ON
DRAM IO FREQUENCY: 6400
ROB SIZE: 352
Off-chip DRAM Size: 4096 MB Channels: 1 Width: 64-bit Data Rate: 6400 MT/s
CPU 0 runs /home/sumon/secure_berti/GhostMinion/../../traces/spec/605.mcf_s-1644B.champsimtrace.xz
.xz
BTB has LRU replacement policy
ITLB has LRU replacement policy
DTLB has LRU replacement policy
STLB has LRU replacement policy
L1I has LRU replacement policy
L0D has LRU replacement policy
L1D has LRU replacement policy
L2C has LRU replacement policy
LLC has LRU replacement policy
Heartbeat CPU 0 instructions: 10000003 cycles: 14333119 heartbeat IPC: 0.697685 cumulative IPC: 0.697685 (Simulation time: 0 hr 1 min 3 sec) 
Heartbeat CPU 0 instructions: 20000001 cycles: 28660552 heartbeat IPC: 0.697962 cumulative IPC: 0.697823 (Simulation time: 0 hr 2 min 5 sec) 
Heartbeat CPU 0 instructions: 30000002 cycles: 42988243 heartbeat IPC: 0.697949 cumulative IPC: 0.697865 (Simulation time: 0 hr 3 min 8 sec) 
Heartbeat CPU 0 instructions: 40000001 cycles: 57308488 heartbeat IPC: 0.698312 cumulative IPC: 0.697977 (Simulation time: 0 hr 4 min 9 sec) 
Heartbeat CPU 0 instructions: 50000000 cycles: 71632935 heartbeat IPC: 0.698107 cumulative IPC: 0.698003 (Simulation time: 0 hr 5 min 12 sec) 

Warmup complete CPU 0 instructions: 50000004 cycles: 71632936 (Simulation time: 0 hr 5 min 12 sec) 

Heartbeat CPU 0 instructions: 60000001 cycles: 143391486 heartbeat IPC: 0.139356 cumulative IPC: 0.139356 (Simulation time: 0 hr 6 min 59 sec) 
Heartbeat CPU 0 instructions: 70000001 cycles: 215274831 heartbeat IPC: 0.139114 cumulative IPC: 0.139235 (Simulation time: 0 hr 8 min 48 sec) 
Heartbeat CPU 0 instructions: 80000000 cycles: 287548748 heartbeat IPC: 0.138362 cumulative IPC: 0.138943 (Simulation time: 0 hr 10 min 37 sec) 
Heartbeat CPU 0 instructions: 90000000 cycles: 359761442 heartbeat IPC: 0.13848 cumulative IPC: 0.138827 (Simulation time: 0 hr 12 min 27 sec) 
Heartbeat CPU 0 instructions: 100000003 cycles: 433042429 heartbeat IPC: 0.136461 cumulative IPC: 0.138347 (Simulation time: 0 hr 14 min 16 sec) 
Heartbeat CPU 0 instructions: 110000000 cycles: 506494115 heartbeat IPC: 0.136144 cumulative IPC: 0.137975 (Simulation time: 0 hr 16 min 2 sec) 
Heartbeat CPU 0 instructions: 120000001 cycles: 580206562 heartbeat IPC: 0.135662 cumulative IPC: 0.13764 (Simulation time: 0 hr 17 min 41 sec) 
Heartbeat CPU 0 instructions: 130000000 cycles: 653503575 heartbeat IPC: 0.136431 cumulative IPC: 0.137488 (Simulation time: 0 hr 19 min 9 sec) 
Heartbeat CPU 0 instructions: 140000003 cycles: 725303040 heartbeat IPC: 0.139277 cumulative IPC: 0.137684 (Simulation time: 0 hr 20 min 35 sec) 
Heartbeat CPU 0 instructions: 150000001 cycles: 794477085 heartbeat IPC: 0.144563 cumulative IPC: 0.138342 (Simulation time: 0 hr 21 min 59 sec) 
Heartbeat CPU 0 instructions: 160000002 cycles: 862145673 heartbeat IPC: 0.147779 cumulative IPC: 0.13915 (Simulation time: 0 hr 23 min 24 sec) 
Heartbeat CPU 0 instructions: 170000002 cycles: 931261582 heartbeat IPC: 0.144684 cumulative IPC: 0.139595 (Simulation time: 0 hr 24 min 44 sec) 
Heartbeat CPU 0 instructions: 180000002 cycles: 1000651109 heartbeat IPC: 0.144114 cumulative IPC: 0.139933 (Simulation time: 0 hr 26 min 4 sec) 
Heartbeat CPU 0 instructions: 190000000 cycles: 1069640000 heartbeat IPC: 0.144951 cumulative IPC: 0.14028 (Simulation time: 0 hr 27 min 24 sec) 
Heartbeat CPU 0 instructions: 200000001 cycles: 1139860559 heartbeat IPC: 0.142408 cumulative IPC: 0.14042 (Simulation time: 0 hr 28 min 44 sec) 
Heartbeat CPU 0 instructions: 210000003 cycles: 1209996170 heartbeat IPC: 0.142581 cumulative IPC: 0.140553 (Simulation time: 0 hr 30 min 4 sec) 
Heartbeat CPU 0 instructions: 220000000 cycles: 1279937380 heartbeat IPC: 0.142977 cumulative IPC: 0.140693 (Simulation time: 0 hr 31 min 24 sec) 
Heartbeat CPU 0 instructions: 230000003 cycles: 1349786368 heartbeat IPC: 0.143166 cumulative IPC: 0.140828 (Simulation time: 0 hr 32 min 45 sec) 
Heartbeat CPU 0 instructions: 240000000 cycles: 1420019008 heartbeat IPC: 0.142384 cumulative IPC: 0.140909 (Simulation time: 0 hr 34 min 5 sec) 
Heartbeat CPU 0 instructions: 250000000 cycles: 1490373744 heartbeat IPC: 0.142137 cumulative IPC: 0.14097 (Simulation time: 0 hr 35 min 25 sec) 
Finished CPU 0 instructions: 200000000 cycles: 1418740810 cumulative IPC: 0.14097 (Simulation time: 0 hr 35 min 25 sec) 
 Instruction ID: 250000247

ChampSim completed all CPUs

Region of Interest Statistics

CPU 0 cumulative IPC: 0.14097 instructions: 200000000 cycles: 1418740810
ITLB SPEC fills:          0  NON-SPEC fills:          0
ITLB Test counter :          0
ITLB Leapfrog:          0
ITLB MSHR merge:          0
ITLB TOTAL     ACCESS:   34545974  HIT:   34545974  MISS:          0  HIT %:        100  MISS %:          0   MPKI: 0
ITLB LOAD TRANSLATION NON_SPEC    ACCESS:   34545974  HIT:   34545974  MISS:          0  HIT %:        100  MISS %:          0   MPKI: 0
ITLB PREFETCH  REQUESTED:          0  ISSUED:          0  USEFUL:          0  USELESS:          0
ITLB USEFUL LOAD PREFETCHES:          0 PREFETCH ISSUED TO LOWER LEVEL:          0  ACCURACY: -nan
ITLB TIMELY PREFETCHES:          0 LATE PREFETCHES: 0 DROPPED PREFETCHES: 0
ITLB COMMIT LATE PREFETCHES: 0 MISSED OPPORTUNITY: 0 LATE IN PQ: 0 UNCOVERED: 0
ITLB COMMIT LATE MSHR PREFETCHES: 0
ITLB MPKI TOTAL: 0 MSHR LATE: 0 PQ LATE: 0 COMMIT LATE: 0 MISSED OPPORTUNITY: 0 UNCOVERED: 0
ITLB PREFETCHES SAME FILL-ORIGIN LEVEL: 0 DIFFERENT FILL-ORIGIN LEVEL: 0
ITLB AVERAGE MISS LATENCY: -nan cycles
ITLB AVERAGE MISS LATENCY LOAD: -nan cycles
ITLB AVERAGE MISS LATENCY PREFETCH: -nan cycles
ITLB AVERAGE MSHR OCCUPANCY: 0
ITLB MSHR FULL: 0
ITLB RQ	ACCESS:   34548880	FORWARD:          0	MERGED:       2907	TO_CACHE:   34545973

DTLB SPEC fills:          0  NON-SPEC fills:          0
DTLB Test counter :          0
DTLB Leapfrog:          0
DTLB MSHR merge:          0
DTLB TOTAL     ACCESS:   85268803  HIT:   79630330  MISS:    5638473  HIT %:    93.3874  MISS %:    6.61259   MPKI: 28.1924
DTLB LOAD TRANSLATION NON_SPEC    ACCESS:   85268803  HIT:   79630330  MISS:    5638473  HIT %:    93.3874  MISS %:    6.61259   MPKI: 28.1924
DTLB PREFETCH  REQUESTED:          0  ISSUED:          0  USEFUL:          0  USELESS:          0
DTLB USEFUL LOAD PREFETCHES:          0 PREFETCH ISSUED TO LOWER LEVEL:          0  ACCURACY: -nan
DTLB TIMELY PREFETCHES:          0 LATE PREFETCHES: 0 DROPPED PREFETCHES: 0
DTLB COMMIT LATE PREFETCHES: 0 MISSED OPPORTUNITY: 0 LATE IN PQ: 0 UNCOVERED: 0
DTLB COMMIT LATE MSHR PREFETCHES: 0
DTLB MPKI TOTAL: 0 MSHR LATE: 0 PQ LATE: 0 COMMIT LATE: 0 MISSED OPPORTUNITY: 0 UNCOVERED: 0
DTLB PREFETCHES SAME FILL-ORIGIN LEVEL: 0 DIFFERENT FILL-ORIGIN LEVEL: 0
DTLB AVERAGE MISS LATENCY: 688.864 cycles
DTLB AVERAGE MISS LATENCY LOAD: -nan cycles
DTLB AVERAGE MISS LATENCY PREFETCH: -nan cycles
DTLB AVERAGE MSHR OCCUPANCY: 2.50004
DTLB MSHR FULL: 1.48739e-05
DTLB RQ	ACCESS:  133363342	FORWARD:          0	MERGED:   20751098	TO_CACHE:  112612244

STLB SPEC fills:          0  NON-SPEC fills:          0
STLB Test counter :          0
STLB Leapfrog:          0
STLB MSHR merge:          0
STLB TOTAL     ACCESS:    5638473  HIT:     812610  MISS:    4825863  HIT %:    14.4119  MISS %:    85.5881   MPKI: 24.1293
STLB LOAD TRANSLATION NON_SPEC    ACCESS:    5638473  HIT:     812610  MISS:    4825863  HIT %:    14.4119  MISS %:    85.5881   MPKI: 24.1293
STLB PREFETCH  REQUESTED:          0  ISSUED:          0  USEFUL:          0  USELESS:          0
STLB USEFUL LOAD PREFETCHES:          0 PREFETCH ISSUED TO LOWER LEVEL:          0  ACCURACY: -nan
STLB TIMELY PREFETCHES:          0 LATE PREFETCHES: 0 DROPPED PREFETCHES: 0
STLB COMMIT LATE PREFETCHES: 0 MISSED OPPORTUNITY: 0 LATE IN PQ: 0 UNCOVERED: 0
STLB COMMIT LATE MSHR PREFETCHES: 0
STLB MPKI TOTAL: 0 MSHR LATE: 0 PQ LATE: 0 COMMIT LATE: 0 MISSED OPPORTUNITY: 0 UNCOVERED: 0
STLB PREFETCHES SAME FILL-ORIGIN LEVEL: 0 DIFFERENT FILL-ORIGIN LEVEL: 0
STLB AVERAGE MISS LATENCY: 794.289 cycles
STLB AVERAGE MISS LATENCY LOAD: -nan cycles
STLB AVERAGE MISS LATENCY PREFETCH: -nan cycles
STLB AVERAGE MSHR OCCUPANCY: 2.12828
STLB MSHR FULL: 0
STLB RQ	ACCESS:    5638476	FORWARD:          0	MERGED:          0	TO_CACHE:    5638476

STLB Hit, L1D data hit: 0
STLB Hit, L2C data hit: 0
STLB Hit, LLC data hit: 0
STLB Hit, LLC data miss: 0
STLB STLB hints to L2: 0
L0D SPEC fills:   22097697  NON-SPEC fills:          0
L0D TimeGuard Request with older TS:    1728545 Restricted eviction:     173105 read:    3518607
L0D Test counter :          0
L0D Leapfrog:          0
L0D MSHR merge:    3215168
L0D TOTAL     ACCESS:   60175072  HIT:   13517775  MISS:   46657297  HIT %:    22.4641  MISS %:    77.5359   MPKI: 233.286
L0D LOAD      TOTAL       ACCESS:   60175072  HIT:   13517775  MISS:   46657297  HIT %:    22.4641  MISS %:    77.5359   MPKI: 233.286
L0D LOAD      NON_SPEC    ACCESS:   30310580  HIT:    5924014  MISS:   24386566  HIT %:    19.5444  MISS %:    80.4556   MPKI: 121.933
L0D LOAD      SPEC        ACCESS:   29864492  HIT:    7593761  MISS:   22270731  HIT %:    25.4274  MISS %:    74.5726   MPKI: 111.354
L0D PREFETCH  REQUESTED:          0  ISSUED:          0  USEFUL:          0  USELESS:          0
L0D USEFUL LOAD PREFETCHES:          0 PREFETCH ISSUED TO LOWER LEVEL:          0  ACCURACY: -nan
L0D TIMELY PREFETCHES:          0 LATE PREFETCHES: 0 DROPPED PREFETCHES: 0
L0D COMMIT LATE PREFETCHES: 0 MISSED OPPORTUNITY: 0 LATE IN PQ: 0 UNCOVERED: 0
L0D COMMIT LATE MSHR PREFETCHES: 0
L0D MPKI TOTAL: 249.362 MSHR LATE: 0 PQ LATE: 0 COMMIT LATE: 0 MISSED OPPORTUNITY: 0 UNCOVERED: 0
L0D PREFETCHES SAME FILL-ORIGIN LEVEL: 0 DIFFERENT FILL-ORIGIN LEVEL: 0
L0D AVERAGE MISS LATENCY: 45.0501 cycles
L0D AVERAGE MISS LATENCY LOAD: 45.0501 cycles
L0D AVERAGE MISS LATENCY PREFETCH: -nan cycles
L0D AVERAGE MSHR OCCUPANCY: 1.62849
L0D MSHR FULL: 2.36629e-07
L0D RQ	ACCESS:   77148845	FORWARD:          0	MERGED:   13758605	TO_CACHE:   63390240
L0D WQ	ACCESS:   69973102	FORWARD:          0	MERGED:          0	TO_CACHE:   69973102

L1D SPEC fills:          0  NON-SPEC fills:     749097
L1D Test counter :    8386523
L1D Leapfrog:          0
L1D MSHR merge:      20260
L1D TOTAL     ACCESS:  111256377  HIT:   84260263  MISS:   26996114  HIT %:    75.7352  MISS %:    24.2648   MPKI: 134.981
L1D LOAD      TOTAL       ACCESS:   46637037  HIT:   36890652  MISS:    9746385  HIT %:    79.1016  MISS %:    20.8984   MPKI: 48.7319
L1D LOAD      NON_SPEC    ACCESS:   24374527  HIT:   23625430  MISS:     749097  HIT %:    96.9267  MISS %:    3.07328   MPKI: 3.74548
L1D LOAD      SPEC        ACCESS:   22262510  HIT:   13265222  MISS:    8997288  HIT %:    59.5855  MISS %:    40.4145   MPKI: 44.9864
L1D RFO       NON_SPEC    ACCESS:   29276164  HIT:   20529117  MISS:    8747047  HIT %:    70.1223  MISS %:    29.8777   MPKI: 43.7352
L1D COMMIT LOAD NON_SPEC    ACCESS:   14700584  HIT:   14557277  MISS:     143307  HIT %:    99.0252  MISS %:   0.974839   MPKI: 0.716535
L1D COMMIT WRITE NON_SPEC    ACCESS:   20642592  HIT:   12283217  MISS:    8359375  HIT %:    59.5042  MISS %:    40.4958   MPKI: 41.7969
L1D PREFETCH  REQUESTED:          0  ISSUED:          0  USEFUL:          0  USELESS:          0
L1D USEFUL LOAD PREFETCHES:          0 PREFETCH ISSUED TO LOWER LEVEL:          0  ACCURACY: -nan
L1D TIMELY PREFETCHES:          0 LATE PREFETCHES: 0 DROPPED PREFETCHES: 0
L1D COMMIT LATE PREFETCHES: 0 MISSED OPPORTUNITY: 0 LATE IN PQ: 0 UNCOVERED: 0
L1D COMMIT LATE MSHR PREFETCHES: 0
L1D MPKI TOTAL: 48.8332 MSHR LATE: 0 PQ LATE: 0 COMMIT LATE: 0 MISSED OPPORTUNITY: 0 UNCOVERED: 0
L1D PREFETCHES SAME FILL-ORIGIN LEVEL: 0 DIFFERENT FILL-ORIGIN LEVEL: 0
L1D AVERAGE MISS LATENCY: 167.586 cycles
L1D AVERAGE MISS LATENCY LOAD: 191.069 cycles
L1D AVERAGE MISS LATENCY PREFETCH: -nan cycles
L1D AVERAGE MSHR OCCUPANCY: 3.12933
L1D MSHR FULL: 1.19917e-05
L1D RQ	ACCESS:   72646725	FORWARD:          0	MERGED:   11211430	TO_CACHE:   61375133
L1D WQ	ACCESS:   90617933	FORWARD:      60162	MERGED:    9932139	TO_CACHE:   80685794

L1D UNIQUE REGIONS ACCESSED: 0
L1D REGIONS CONFLICTS: 0
L1D Cross Page Prefetch Requests: 0
L1D Same Page Prefetch Requests: 0
L1D ROI Sum of L1D PQ occupancy: 0
L1D PREFETCHES PUSHED FROM L2C: 0
L1I SPEC fills:          0  NON-SPEC fills:          0
L1I Test counter :          0
L1I Leapfrog:          0
L1I MSHR merge:          0
L1I TOTAL     ACCESS:   34548881  HIT:   34548881  MISS:          0  HIT %:        100  MISS %:          0   MPKI: 0
L1I LOAD      TOTAL       ACCESS:   34548881  HIT:   34548881  MISS:          0  HIT %:        100  MISS %:          0   MPKI: 0
L1I LOAD      NON_SPEC    ACCESS:   34548881  HIT:   34548881  MISS:          0  HIT %:        100  MISS %:          0   MPKI: 0
L1I PREFETCH  REQUESTED:          0  ISSUED:          0  USEFUL:          0  USELESS:          0
L1I USEFUL LOAD PREFETCHES:          0 PREFETCH ISSUED TO LOWER LEVEL:          0  ACCURACY: -nan
L1I TIMELY PREFETCHES:          0 LATE PREFETCHES: 0 DROPPED PREFETCHES: 0
L1I COMMIT LATE PREFETCHES: 0 MISSED OPPORTUNITY: 0 LATE IN PQ: 0 UNCOVERED: 0
L1I COMMIT LATE MSHR PREFETCHES: 0
L1I MPKI TOTAL: 0 MSHR LATE: 0 PQ LATE: 0 COMMIT LATE: 0 MISSED OPPORTUNITY: 0 UNCOVERED: 0
L1I PREFETCHES SAME FILL-ORIGIN LEVEL: 0 DIFFERENT FILL-ORIGIN LEVEL: 0
L1I AVERAGE MISS LATENCY: -nan cycles
L1I AVERAGE MISS LATENCY LOAD: -nan cycles
L1I AVERAGE MISS LATENCY PREFETCH: -nan cycles
L1I AVERAGE MSHR OCCUPANCY: 0
L1I MSHR FULL: 0
L1I RQ	ACCESS:   58258364	FORWARD:          0	MERGED:   23709484	TO_CACHE:   34548880

BTB SPEC fills:          0  NON-SPEC fills:          0
BTB Test counter :          0
BTB Leapfrog:          0
BTB MSHR merge:          0
BTB TOTAL     ACCESS:   20480052  HIT:   20480047  MISS:          5  HIT %:        100  MISS %: 2.4414e-05   MPKI: 2.5e-05
BTB BRANCH_DIRECT_JUMP	ACCESS:    2986818  HIT:    2986817  MISS:          1
BTB BRANCH_INDIRECT	ACCESS:          0  HIT:          0  MISS:          0
BTB BRANCH_CONDITIONAL	ACCESS:    8746602  HIT:    8746600  MISS:          2
BTB BRANCH_DIRECT_CALL	ACCESS:    4373316  HIT:    4373315  MISS:          1
BTB BRANCH_INDIRECT_CALL	ACCESS:          0  HIT:          0  MISS:          0
BTB BRANCH_RETURN	ACCESS:    4373316  HIT:    4373315  MISS:          1
BTB BRANCH_OTHER ACCESS:          0  HIT:          0  MISS:          0

L2C SPEC fills:          0  NON-SPEC fills:     560293
L2C Test counter :    7535983
L2C Leapfrog:          0
L2C MSHR merge:          0
L2C TOTAL     ACCESS:   60647358  HIT:   31615794  MISS:   29031564  HIT %:    52.1305  MISS %:    47.8695   MPKI: 145.158
L2C LOAD      TOTAL       ACCESS:    9746292  HIT:    1160400  MISS:    8585892  HIT %:    11.9061  MISS %:    88.0939   MPKI: 42.9295
L2C LOAD      NON_SPEC    ACCESS:     749065  HIT:     188772  MISS:     560293  HIT %:     25.201  MISS %:     74.799   MPKI: 2.80146
L2C LOAD      SPEC        ACCESS:    8997227  HIT:     971628  MISS:    8025599  HIT %:    10.7992  MISS %:    89.2008   MPKI: 40.128
L2C RFO       NON_SPEC    ACCESS:    8747046  HIT:       1549  MISS:    8745497  HIT %:  0.0177088  MISS %:    99.9823   MPKI: 43.7275
L2C WRITEBACK NON_SPEC    ACCESS:    9495071  HIT:    9494849  MISS:        222  HIT %:    99.9977  MISS %: 0.00233806   MPKI: 0.00111
L2C CLEAN_EVICTION NON_SPEC    ACCESS:    8386496  HIT:     926214  MISS:    7460282  HIT %:    11.0441  MISS %:    88.9559   MPKI: 37.3014
L2C COMMIT LOAD NON_SPEC    ACCESS:     143287  HIT:      27111  MISS:     116176  HIT %:    18.9208  MISS %:    81.0792   MPKI: 0.58088
L2C LOAD TRANSLATION NON_SPEC    ACCESS:   24129166  HIT:   20005671  MISS:    4123495  HIT %:    82.9107  MISS %:    17.0893   MPKI: 20.6175
L2C PREFETCH  REQUESTED:          0  ISSUED:          0  USEFUL:          0  USELESS:          0
L2C USEFUL LOAD PREFETCHES:          0 PREFETCH ISSUED TO LOWER LEVEL:          0  ACCURACY: -nan
L2C TIMELY PREFETCHES:          0 LATE PREFETCHES: 0 DROPPED PREFETCHES: 0
L2C COMMIT LATE PREFETCHES: 0 MISSED OPPORTUNITY: 0 LATE IN PQ: 0 UNCOVERED: 0
L2C COMMIT LATE MSHR PREFETCHES: 0
L2C MPKI TOTAL: 42.9295 MSHR LATE: 0 PQ LATE: 0 COMMIT LATE: 0 MISSED OPPORTUNITY: 0 UNCOVERED: 0
L2C PREFETCHES SAME FILL-ORIGIN LEVEL: 0 DIFFERENT FILL-ORIGIN LEVEL: 0
L2C AVERAGE MISS LATENCY: 182.944 cycles
L2C AVERAGE MISS LATENCY LOAD: 203.902 cycles
L2C AVERAGE MISS LATENCY PREFETCH: -nan cycles
L2C AVERAGE MSHR OCCUPANCY: 2.96748
L2C MSHR FULL: 0
L2C RQ	ACCESS:   42765908	FORWARD:          0	MERGED:          0	TO_CACHE:   42765795
L2C WQ	ACCESS:   17881598	FORWARD:        113	MERGED:         31	TO_CACHE:   17881567

L2C Instructions Evicting Data 0
L2C Translations Evicting Data 3312677
L2C Data Evicting Data 7572115
L2C Instructions Evicting Instructions 0
L2C Translations Evicting Instructions 0
L2C Data Evicting Instructions 0
L2C Instructions Evicting Translations 0
L2C Translations Evicting Translations 810818
L2C Data Evicting Translations 1849851
L2C Dense regions hint from L2: 0
PSCL5 SPEC fills:          0  NON-SPEC fills:          0
PSCL5 Test counter :          0
PSCL5 Leapfrog:          0
PSCL5 MSHR merge:          0
PSCL5 TOTAL     ACCESS:          0  HIT:          0  MISS:          0  HIT %:       -nan  MISS %:       -nan   MPKI: 0
PSCL5 PREFETCH  REQUESTED:          0  ISSUED:          0  USEFUL:          0  USELESS:          0
PSCL5 USEFUL LOAD PREFETCHES:          0 PREFETCH ISSUED TO LOWER LEVEL:          0  ACCURACY: -nan
PSCL5 TIMELY PREFETCHES:          0 LATE PREFETCHES: 0 DROPPED PREFETCHES: 0
PSCL5 COMMIT LATE PREFETCHES: 0 MISSED OPPORTUNITY: 0 LATE IN PQ: 0 UNCOVERED: 0
PSCL5 COMMIT LATE MSHR PREFETCHES: 0
PSCL5 MPKI TOTAL: 0 MSHR LATE: 0 PQ LATE: 0 COMMIT LATE: 0 MISSED OPPORTUNITY: 0 UNCOVERED: 0
PSCL5 PREFETCHES SAME FILL-ORIGIN LEVEL: 0 DIFFERENT FILL-ORIGIN LEVEL: 0

PSCL4 SPEC fills:          0  NON-SPEC fills:          0
PSCL4 Test counter :          0
PSCL4 Leapfrog:          0
PSCL4 MSHR merge:          0
PSCL4 TOTAL     ACCESS:          0  HIT:          0  MISS:          0  HIT %:       -nan  MISS %:       -nan   MPKI: 0
PSCL4 PREFETCH  REQUESTED:          0  ISSUED:          0  USEFUL:          0  USELESS:          0
PSCL4 USEFUL LOAD PREFETCHES:          0 PREFETCH ISSUED TO LOWER LEVEL:          0  ACCURACY: -nan
PSCL4 TIMELY PREFETCHES:          0 LATE PREFETCHES: 0 DROPPED PREFETCHES: 0
PSCL4 COMMIT LATE PREFETCHES: 0 MISSED OPPORTUNITY: 0 LATE IN PQ: 0 UNCOVERED: 0
PSCL4 COMMIT LATE MSHR PREFETCHES: 0
PSCL4 MPKI TOTAL: 0 MSHR LATE: 0 PQ LATE: 0 COMMIT LATE: 0 MISSED OPPORTUNITY: 0 UNCOVERED: 0
PSCL4 PREFETCHES SAME FILL-ORIGIN LEVEL: 0 DIFFERENT FILL-ORIGIN LEVEL: 0

PSCL3 SPEC fills:          0  NON-SPEC fills:          0
PSCL3 Test counter :          0
PSCL3 Leapfrog:          0
PSCL3 MSHR merge:          0
PSCL3 TOTAL     ACCESS:          0  HIT:          0  MISS:          0  HIT %:       -nan  MISS %:       -nan   MPKI: 0
PSCL3 PREFETCH  REQUESTED:          0  ISSUED:          0  USEFUL:          0  USELESS:          0
PSCL3 USEFUL LOAD PREFETCHES:          0 PREFETCH ISSUED TO LOWER LEVEL:          0  ACCURACY: -nan
PSCL3 TIMELY PREFETCHES:          0 LATE PREFETCHES: 0 DROPPED PREFETCHES: 0
PSCL3 COMMIT LATE PREFETCHES: 0 MISSED OPPORTUNITY: 0 LATE IN PQ: 0 UNCOVERED: 0
PSCL3 COMMIT LATE MSHR PREFETCHES: 0
PSCL3 MPKI TOTAL: 0 MSHR LATE: 0 PQ LATE: 0 COMMIT LATE: 0 MISSED OPPORTUNITY: 0 UNCOVERED: 0
PSCL3 PREFETCHES SAME FILL-ORIGIN LEVEL: 0 DIFFERENT FILL-ORIGIN LEVEL: 0

PSCL2 SPEC fills:          0  NON-SPEC fills:          0
PSCL2 Test counter :          0
PSCL2 Leapfrog:          0
PSCL2 MSHR merge:          0
PSCL2 TOTAL     ACCESS:          0  HIT:          0  MISS:          0  HIT %:       -nan  MISS %:       -nan   MPKI: 0
PSCL2 PREFETCH  REQUESTED:          0  ISSUED:          0  USEFUL:          0  USELESS:          0
PSCL2 USEFUL LOAD PREFETCHES:          0 PREFETCH ISSUED TO LOWER LEVEL:          0  ACCURACY: -nan
PSCL2 TIMELY PREFETCHES:          0 LATE PREFETCHES: 0 DROPPED PREFETCHES: 0
PSCL2 COMMIT LATE PREFETCHES: 0 MISSED OPPORTUNITY: 0 LATE IN PQ: 0 UNCOVERED: 0
PSCL2 COMMIT LATE MSHR PREFETCHES: 0
PSCL2 MPKI TOTAL: 0 MSHR LATE: 0 PQ LATE: 0 COMMIT LATE: 0 MISSED OPPORTUNITY: 0 UNCOVERED: 0
PSCL2 PREFETCHES SAME FILL-ORIGIN LEVEL: 0 DIFFERENT FILL-ORIGIN LEVEL: 0

LLC SPEC fills:          0  NON-SPEC fills:     187970
LLC Test counter :    5926926
LLC Leapfrog:          0
LLC MSHR merge:          0
LLC TOTAL     ACCESS:   38409443  HIT:   14267131  MISS:   24142312  HIT %:    37.1449  MISS %:    62.8551   MPKI: 120.712
LLC LOAD      TOTAL       ACCESS:    8585821  HIT:    2207984  MISS:    6377837  HIT %:    25.7166  MISS %:    74.2834   MPKI: 31.8892
LLC LOAD      NON_SPEC    ACCESS:     560278  HIT:     372308  MISS:     187970  HIT %:    66.4506  MISS %:    33.5494   MPKI: 0.93985
LLC LOAD      SPEC        ACCESS:    8025543  HIT:    1835676  MISS:    6189867  HIT %:    22.8729  MISS %:    77.1271   MPKI: 30.9493
LLC RFO       NON_SPEC    ACCESS:    8745497  HIT:      48277  MISS:    8697220  HIT %:   0.552021  MISS %:     99.448   MPKI: 43.4861
LLC WRITEBACK NON_SPEC    ACCESS:    9302473  HIT:    9300826  MISS:       1647  HIT %:    99.9823  MISS %:   0.017705   MPKI: 0.008235
LLC CLEAN_EVICTION NON_SPEC    ACCESS:    7535983  HIT:    1680191  MISS:    5855792  HIT %:    22.2956  MISS %:    77.7044   MPKI: 29.279
LLC COMMIT LOAD NON_SPEC    ACCESS:     116174  HIT:      37406  MISS:      78768  HIT %:    32.1983  MISS %:    67.8017   MPKI: 0.39384
LLC LOAD TRANSLATION NON_SPEC    ACCESS:    4123495  HIT:     992447  MISS:    3131048  HIT %:    24.0681  MISS %:    75.9319   MPKI: 15.6552
LLC PREFETCH  REQUESTED:          0  ISSUED:          0  USEFUL:          0  USELESS:          0
LLC USEFUL LOAD PREFETCHES:          0 PREFETCH ISSUED TO LOWER LEVEL:          0  ACCURACY: -nan
LLC TIMELY PREFETCHES:          0 LATE PREFETCHES: 0 DROPPED PREFETCHES: 0
LLC COMMIT LATE PREFETCHES: 0 MISSED OPPORTUNITY: 0 LATE IN PQ: 0 UNCOVERED: 0
LLC COMMIT LATE MSHR PREFETCHES: 0
LLC MPKI TOTAL: 31.8892 MSHR LATE: 0 PQ LATE: 0 COMMIT LATE: 0 MISSED OPPORTUNITY: 0 UNCOVERED: 0
LLC PREFETCHES SAME FILL-ORIGIN LEVEL: 0 DIFFERENT FILL-ORIGIN LEVEL: 0
LLC AVERAGE MISS LATENCY: 196.099 cycles
LLC AVERAGE MISS LATENCY LOAD: 245.303 cycles
LLC AVERAGE MISS LATENCY PREFETCH: -nan cycles
LLC AVERAGE MSHR OCCUPANCY: 2.76903
LLC MSHR FULL: 0
LLC RQ	ACCESS:   21571062	FORWARD:          0	MERGED:          0	TO_CACHE:   21570989
LLC WQ	ACCESS:   16838456	FORWARD:         73	MERGED:          0	TO_CACHE:   16838456

LLC Dense regions hint to LLC: 0

RAW hits: 5944239
Loads Generated: 83093083
Loads sent to L1D: 77148845
Stores Generated: 69973133
Stores sent to L1D: 69973102
Major fault: 0 Minor fault: 318411
Allocated PAGES: 318411
Total Load insts: 96413221
Total Non-spec loads: 40171153
Percentage of speculative loads: 58.3344

LeapFrogging counter: 193
Commit hits: 20644857 miss: 25989427
Commit hit %: 44.2697 miss %: 55.7303
Commits not translated: 0
Loads retired: 9746382
Stores retired: 69973102
Cache fills: 9746385
L1D response latency: 191.069 cycles
Load retirement latency: 488.014 cycles
OOO test counter: 0
Discarded buffer inserts: 20644857 hits: 78590 hit %: 0.380676

DRAM Statistics
 CHANNEL 0
 RQ ROW_BUFFER_HIT:     257980  ROW_BUFFER_MISS:   18024837
 DBUS_CONGESTED:        305
 WQ ROW_BUFFER_HIT:    3492719  ROW_BUFFER_MISS:   11316018  FULL:        157

 AVG_CONGESTED_CYCLE: 4
 All warmup complete: 2
Channel 0 Bank busy for read cycles: 0
Channel 0 Bank busy for write cycles: 0
Channel 0
Rank 0
0banks busy for read cycles: 2393229
0banks busy for write cycles: 12
1banks busy for read cycles: 186457027
1banks busy for write cycles: 2577085
2banks busy for read cycles: 226079401
2banks busy for write cycles: 2608751
3banks busy for read cycles: 263012489
3banks busy for write cycles: 2817483
4banks busy for read cycles: 171078183
4banks busy for write cycles: 6871089
5banks busy for read cycles: 87272448
5banks busy for write cycles: 14905398
6banks busy for read cycles: 33279866
6banks busy for write cycles: 36516508
7banks busy for read cycles: 8195115
7banks busy for write cycles: 114604897
8banks busy for read cycles: 1073898
8banks busy for write cycles: 258997932

CPU 0 Branch Prediction Accuracy: 95.2594% MPKI: 5.89096 Average ROB Occupancy at Mispredict: 119.386
Branch types
NOT_BRANCH: 175146465 87.5732%
BRANCH_DIRECT_JUMP: 2986818 1.49341%
BRANCH_INDIRECT: 0 0%
BRANCH_CONDITIONAL: 13119949 6.55997%
BRANCH_DIRECT_CALL: 4373316 2.18666%
BRANCH_INDIRECT_CALL: 0 0%
BRANCH_RETURN: 4373316 2.18666%
BRANCH_OTHER: 0 0%

DRAM PAGES: 1048576
Allocated PAGES: 318411
