
*** ChampSim Multicore Out-of-Order Simulator ***

Warmup Instructions: 50000000
Simulation Instructions: 200000000
Number of CPUs: 1
LLC sets: 2048
LLC ways: 16
L0D sets: 16
L0D ways: 2
ROB size: 352
LQ size: 128
SQ size: 72
Secure Berti: OFF
Berti: OFF
Berti Fill: OFF
On commit prefetching: OFF
Hit-based filter: OFF
Time-guarding: ON
Free-slotting: ON
Leap-frogging: ON
Train prefetcher on L0D bypass: OFF
No translation penalty for prefetchers: OFF
Prefetch to L0D only: OFF
Prefetch to L1D only: OFF
Clean evictions: ON
Commit loads: ON
Commit write: ON
Fill commit loads to L2C, LLC: ON
DRAM IO FREQUENCY: 6400
ROB SIZE: 352
Off-chip DRAM Size: 4096 MB Channels: 1 Width: 64-bit Data Rate: 6400 MT/s
CPU 0 runs /home/sumon/secure_berti/GhostMinion/../../traces/spec/619.lbm_s-3766B.champsimtrace.xz
.xz
BTB has LRU replacement policy
ITLB has LRU replacement policy
DTLB has LRU replacement policy
STLB has LRU replacement policy
L1I has LRU replacement policy
L0D has LRU replacement policy
L1D has LRU replacement policy
L2C has LRU replacement policy
LLC has LRU replacement policy
Heartbeat CPU 0 instructions: 10000000 cycles: 2866723 heartbeat IPC: 3.4883 cumulative IPC: 3.4883 (Simulation time: 0 hr 0 min 29 sec) 
Heartbeat CPU 0 instructions: 20000002 cycles: 5736424 heartbeat IPC: 3.48468 cumulative IPC: 3.48649 (Simulation time: 0 hr 0 min 58 sec) 
Heartbeat CPU 0 instructions: 30000000 cycles: 8603111 heartbeat IPC: 3.48835 cumulative IPC: 3.48711 (Simulation time: 0 hr 1 min 27 sec) 
Heartbeat CPU 0 instructions: 40000003 cycles: 11472830 heartbeat IPC: 3.48466 cumulative IPC: 3.4865 (Simulation time: 0 hr 1 min 55 sec) 
Heartbeat CPU 0 instructions: 50000000 cycles: 14342503 heartbeat IPC: 3.48472 cumulative IPC: 3.48614 (Simulation time: 0 hr 2 min 24 sec) 

Warmup complete CPU 0 instructions: 50000004 cycles: 14342504 (Simulation time: 0 hr 2 min 24 sec) 

Heartbeat CPU 0 instructions: 60000000 cycles: 27518227 heartbeat IPC: 0.758972 cumulative IPC: 0.758971 (Simulation time: 0 hr 3 min 7 sec) 
Heartbeat CPU 0 instructions: 70000000 cycles: 40792035 heartbeat IPC: 0.753363 cumulative IPC: 0.756157 (Simulation time: 0 hr 3 min 50 sec) 
Heartbeat CPU 0 instructions: 80000003 cycles: 53810568 heartbeat IPC: 0.768136 cumulative IPC: 0.760108 (Simulation time: 0 hr 4 min 34 sec) 
Heartbeat CPU 0 instructions: 90000001 cycles: 67139211 heartbeat IPC: 0.750264 cumulative IPC: 0.757623 (Simulation time: 0 hr 5 min 19 sec) 
Heartbeat CPU 0 instructions: 100000003 cycles: 80197519 heartbeat IPC: 0.765796 cumulative IPC: 0.759244 (Simulation time: 0 hr 6 min 3 sec) 
Heartbeat CPU 0 instructions: 110000000 cycles: 94212988 heartbeat IPC: 0.713497 cumulative IPC: 0.751216 (Simulation time: 0 hr 6 min 50 sec) 
Heartbeat CPU 0 instructions: 120000003 cycles: 108674067 heartbeat IPC: 0.691512 cumulative IPC: 0.742063 (Simulation time: 0 hr 7 min 37 sec) 
Heartbeat CPU 0 instructions: 130000000 cycles: 126025963 heartbeat IPC: 0.576306 cumulative IPC: 0.71631 (Simulation time: 0 hr 8 min 29 sec) 
Heartbeat CPU 0 instructions: 140000002 cycles: 145538452 heartbeat IPC: 0.512492 cumulative IPC: 0.685997 (Simulation time: 0 hr 9 min 24 sec) 
Heartbeat CPU 0 instructions: 150000002 cycles: 168115435 heartbeat IPC: 0.442929 cumulative IPC: 0.65031 (Simulation time: 0 hr 10 min 23 sec) 
Heartbeat CPU 0 instructions: 160000003 cycles: 195997787 heartbeat IPC: 0.35865 cumulative IPC: 0.605543 (Simulation time: 0 hr 11 min 30 sec) 
Heartbeat CPU 0 instructions: 170000003 cycles: 229701537 heartbeat IPC: 0.296703 cumulative IPC: 0.557209 (Simulation time: 0 hr 12 min 47 sec) 
Heartbeat CPU 0 instructions: 180000003 cycles: 266111360 heartbeat IPC: 0.274651 cumulative IPC: 0.516347 (Simulation time: 0 hr 14 min 8 sec) 
Heartbeat CPU 0 instructions: 190000001 cycles: 304328771 heartbeat IPC: 0.261661 cumulative IPC: 0.482781 (Simulation time: 0 hr 15 min 29 sec) 
Heartbeat CPU 0 instructions: 200000003 cycles: 339457556 heartbeat IPC: 0.284667 cumulative IPC: 0.461375 (Simulation time: 0 hr 16 min 39 sec) 
Heartbeat CPU 0 instructions: 210000003 cycles: 372290527 heartbeat IPC: 0.304572 cumulative IPC: 0.446992 (Simulation time: 0 hr 17 min 43 sec) 
Heartbeat CPU 0 instructions: 220000000 cycles: 401984116 heartbeat IPC: 0.336773 cumulative IPC: 0.438549 (Simulation time: 0 hr 18 min 40 sec) 
Heartbeat CPU 0 instructions: 230000000 cycles: 431164769 heartbeat IPC: 0.342693 cumulative IPC: 0.431839 (Simulation time: 0 hr 19 min 36 sec) 
Heartbeat CPU 0 instructions: 240000000 cycles: 459119397 heartbeat IPC: 0.357723 cumulative IPC: 0.42718 (Simulation time: 0 hr 20 min 31 sec) 
Heartbeat CPU 0 instructions: 250000000 cycles: 487016705 heartbeat IPC: 0.358458 cumulative IPC: 0.423124 (Simulation time: 0 hr 21 min 25 sec) 
Finished CPU 0 instructions: 200000000 cycles: 472674202 cumulative IPC: 0.423124 (Simulation time: 0 hr 21 min 25 sec) 
 Instruction ID: 250000075

ChampSim completed all CPUs

Region of Interest Statistics

CPU 0 cumulative IPC: 0.423124 instructions: 200000000 cycles: 472674202
ITLB SPEC fills:          0  NON-SPEC fills:          0
ITLB Test counter :          0
ITLB Leapfrog:          0
ITLB MSHR merge:          0
ITLB TOTAL     ACCESS:   26880284  HIT:   26880284  MISS:          0  HIT %:        100  MISS %:          0   MPKI: 0
ITLB LOAD TRANSLATION NON_SPEC    ACCESS:   26880284  HIT:   26880284  MISS:          0  HIT %:        100  MISS %:          0   MPKI: 0
ITLB PREFETCH  REQUESTED:          0  ISSUED:          0  USEFUL:          0  USELESS:          0
ITLB USEFUL LOAD PREFETCHES:          0 PREFETCH ISSUED TO LOWER LEVEL:          0  ACCURACY: -nan
ITLB TIMELY PREFETCHES:          0 LATE PREFETCHES: 0 DROPPED PREFETCHES: 0
ITLB COMMIT LATE PREFETCHES: 0 MISSED OPPORTUNITY: 0 LATE IN PQ: 0 UNCOVERED: 0
ITLB COMMIT LATE MSHR PREFETCHES: 0
ITLB MPKI TOTAL: 0 MSHR LATE: 0 PQ LATE: 0 COMMIT LATE: 0 MISSED OPPORTUNITY: 0 UNCOVERED: 0
ITLB PREFETCHES SAME FILL-ORIGIN LEVEL: 0 DIFFERENT FILL-ORIGIN LEVEL: 0
ITLB AVERAGE MISS LATENCY: -nan cycles
ITLB AVERAGE MISS LATENCY LOAD: -nan cycles
ITLB AVERAGE MISS LATENCY PREFETCH: -nan cycles
ITLB AVERAGE MSHR OCCUPANCY: 0
ITLB MSHR FULL: 0
ITLB RQ	ACCESS:   34788456	FORWARD:          0	MERGED:    7908172	TO_CACHE:   26880284

DTLB SPEC fills:          0  NON-SPEC fills:          0
DTLB Test counter :          0
DTLB Leapfrog:          0
DTLB MSHR merge:          0
DTLB TOTAL     ACCESS:   36685080  HIT:   36459367  MISS:     225713  HIT %:    99.3847  MISS %:   0.615272   MPKI: 1.12857
DTLB LOAD TRANSLATION NON_SPEC    ACCESS:   36685080  HIT:   36459367  MISS:     225713  HIT %:    99.3847  MISS %:   0.615272   MPKI: 1.12857
DTLB PREFETCH  REQUESTED:          0  ISSUED:          0  USEFUL:          0  USELESS:          0
DTLB USEFUL LOAD PREFETCHES:          0 PREFETCH ISSUED TO LOWER LEVEL:          0  ACCURACY: -nan
DTLB TIMELY PREFETCHES:          0 LATE PREFETCHES: 0 DROPPED PREFETCHES: 0
DTLB COMMIT LATE PREFETCHES: 0 MISSED OPPORTUNITY: 0 LATE IN PQ: 0 UNCOVERED: 0
DTLB COMMIT LATE MSHR PREFETCHES: 0
DTLB MPKI TOTAL: 0 MSHR LATE: 0 PQ LATE: 0 COMMIT LATE: 0 MISSED OPPORTUNITY: 0 UNCOVERED: 0
DTLB PREFETCHES SAME FILL-ORIGIN LEVEL: 0 DIFFERENT FILL-ORIGIN LEVEL: 0
DTLB AVERAGE MISS LATENCY: 129.808 cycles
DTLB AVERAGE MISS LATENCY LOAD: -nan cycles
DTLB AVERAGE MISS LATENCY PREFETCH: -nan cycles
DTLB AVERAGE MSHR OCCUPANCY: 0.0748987
DTLB MSHR FULL: 0
DTLB RQ	ACCESS:   59113030	FORWARD:          0	MERGED:   22346355	TO_CACHE:   36766675

STLB SPEC fills:          0  NON-SPEC fills:          0
STLB Test counter :          0
STLB Leapfrog:          0
STLB MSHR merge:          0
STLB TOTAL     ACCESS:     225713  HIT:     103243  MISS:     122470  HIT %:    45.7408  MISS %:    54.2592   MPKI: 0.61235
STLB LOAD TRANSLATION NON_SPEC    ACCESS:     225713  HIT:     103243  MISS:     122470  HIT %:    45.7408  MISS %:    54.2592   MPKI: 0.61235
STLB PREFETCH  REQUESTED:          0  ISSUED:          0  USEFUL:          0  USELESS:          0
STLB USEFUL LOAD PREFETCHES:          0 PREFETCH ISSUED TO LOWER LEVEL:          0  ACCURACY: -nan
STLB TIMELY PREFETCHES:          0 LATE PREFETCHES: 0 DROPPED PREFETCHES: 0
STLB COMMIT LATE PREFETCHES: 0 MISSED OPPORTUNITY: 0 LATE IN PQ: 0 UNCOVERED: 0
STLB COMMIT LATE MSHR PREFETCHES: 0
STLB MPKI TOTAL: 0 MSHR LATE: 0 PQ LATE: 0 COMMIT LATE: 0 MISSED OPPORTUNITY: 0 UNCOVERED: 0
STLB PREFETCHES SAME FILL-ORIGIN LEVEL: 0 DIFFERENT FILL-ORIGIN LEVEL: 0
STLB AVERAGE MISS LATENCY: 222.608 cycles
STLB AVERAGE MISS LATENCY LOAD: -nan cycles
STLB AVERAGE MISS LATENCY PREFETCH: -nan cycles
STLB AVERAGE MSHR OCCUPANCY: 0.142938
STLB MSHR FULL: 0
STLB RQ	ACCESS:     225713	FORWARD:          0	MERGED:          0	TO_CACHE:     225713

STLB Hit, L1D data hit: 0
STLB Hit, L2C data hit: 0
STLB Hit, LLC data hit: 0
STLB Hit, LLC data miss: 0
STLB STLB hints to L2: 0
L0D SPEC fills:   11869846  NON-SPEC fills:          0
L0D TimeGuard Request with older TS:     160499 Restricted eviction:      14448 read:    1292206
L0D Test counter :          0
L0D Leapfrog:          0
L0D MSHR merge:    4441977
L0D TOTAL     ACCESS:   20107195  HIT:    6995144  MISS:   13112051  HIT %:    34.7893  MISS %:    65.2107   MPKI: 65.5603
L0D LOAD      TOTAL       ACCESS:   20107195  HIT:    6995144  MISS:   13112051  HIT %:    34.7893  MISS %:    65.2107   MPKI: 65.5603
L0D LOAD      NON_SPEC    ACCESS:    1795175  HIT:     567418  MISS:    1227757  HIT %:    31.6079  MISS %:    68.3921   MPKI: 6.13879
L0D LOAD      SPEC        ACCESS:   18312020  HIT:    6427726  MISS:   11884294  HIT %:    35.1011  MISS %:    64.8989   MPKI: 59.4215
L0D PREFETCH  REQUESTED:          0  ISSUED:          0  USEFUL:          0  USELESS:          0
L0D USEFUL LOAD PREFETCHES:          0 PREFETCH ISSUED TO LOWER LEVEL:          0  ACCURACY: -nan
L0D TIMELY PREFETCHES:          0 LATE PREFETCHES: 0 DROPPED PREFETCHES: 0
L0D COMMIT LATE PREFETCHES: 0 MISSED OPPORTUNITY: 0 LATE IN PQ: 0 UNCOVERED: 0
L0D COMMIT LATE MSHR PREFETCHES: 0
L0D MPKI TOTAL: 87.7701 MSHR LATE: 0 PQ LATE: 0 COMMIT LATE: 0 MISSED OPPORTUNITY: 0 UNCOVERED: 0
L0D PREFETCHES SAME FILL-ORIGIN LEVEL: 0 DIFFERENT FILL-ORIGIN LEVEL: 0
L0D AVERAGE MISS LATENCY: 96.1039 cycles
L0D AVERAGE MISS LATENCY LOAD: 96.1039 cycles
L0D AVERAGE MISS LATENCY PREFETCH: -nan cycles
L0D AVERAGE MSHR OCCUPANCY: 1.84455
L0D MSHR FULL: 0.0487285
L0D RQ	ACCESS:   45419249	FORWARD:          0	MERGED:   20870079	TO_CACHE:   24549170
L0D WQ	ACCESS:   34563860	FORWARD:          0	MERGED:          0	TO_CACHE:   34563860

L1D SPEC fills:          0  NON-SPEC fills:      17087
L1D Test counter :    1955612
L1D Leapfrog:          0
L1D MSHR merge:       4270
L1D TOTAL     ACCESS:   71680209  HIT:   56614886  MISS:   15065323  HIT %:    78.9826  MISS %:    21.0174   MPKI: 75.3266
L1D LOAD      TOTAL       ACCESS:   13107781  HIT:   11134406  MISS:    1973375  HIT %:     84.945  MISS %:     15.055   MPKI: 9.86688
L1D LOAD      NON_SPEC    ACCESS:    1225975  HIT:    1208888  MISS:      17087  HIT %:    98.6063  MISS %:    1.39375   MPKI: 0.085435
L1D LOAD      SPEC        ACCESS:   11881806  HIT:    9925518  MISS:    1956288  HIT %:    83.5354  MISS %:    16.4646   MPKI: 9.78144
L1D RFO       NON_SPEC    ACCESS:   33576775  HIT:   22607164  MISS:   10969611  HIT %:    67.3298  MISS %:    32.6702   MPKI: 54.8481
L1D COMMIT LOAD NON_SPEC    ACCESS:   13344058  HIT:   13163155  MISS:     180903  HIT %:    98.6443  MISS %:    1.35568   MPKI: 0.904515
L1D COMMIT WRITE NON_SPEC    ACCESS:   11651595  HIT:    9710161  MISS:    1941434  HIT %:    83.3376  MISS %:    16.6624   MPKI: 9.70717
L1D PREFETCH  REQUESTED:          0  ISSUED:          0  USEFUL:          0  USELESS:          0
L1D USEFUL LOAD PREFETCHES:          0 PREFETCH ISSUED TO LOWER LEVEL:          0  ACCURACY: -nan
L1D TIMELY PREFETCHES:          0 LATE PREFETCHES: 0 DROPPED PREFETCHES: 0
L1D COMMIT LATE PREFETCHES: 0 MISSED OPPORTUNITY: 0 LATE IN PQ: 0 UNCOVERED: 0
L1D COMMIT LATE MSHR PREFETCHES: 0
L1D MPKI TOTAL: 9.88823 MSHR LATE: 0 PQ LATE: 0 COMMIT LATE: 0 MISSED OPPORTUNITY: 0 UNCOVERED: 0
L1D PREFETCHES SAME FILL-ORIGIN LEVEL: 0 DIFFERENT FILL-ORIGIN LEVEL: 0
L1D AVERAGE MISS LATENCY: 264.357 cycles
L1D AVERAGE MISS LATENCY LOAD: 463.316 cycles
L1D AVERAGE MISS LATENCY PREFETCH: -nan cycles
L1D AVERAGE MSHR OCCUPANCY: 14.2279
L1D MSHR FULL: 0.850157
L1D RQ	ACCESS:   44981275	FORWARD:          0	MERGED:   18434549	TO_CACHE:   26456258
L1D WQ	ACCESS:   46266006	FORWARD:      90468	MERGED:     961146	TO_CACHE:   45304860

L1D UNIQUE REGIONS ACCESSED: 0
L1D REGIONS CONFLICTS: 0
L1D Cross Page Prefetch Requests: 0
L1D Same Page Prefetch Requests: 0
L1D ROI Sum of L1D PQ occupancy: 0
L1D PREFETCHES PUSHED FROM L2C: 0
L1I SPEC fills:          0  NON-SPEC fills:          0
L1I Test counter :          0
L1I Leapfrog:          0
L1I MSHR merge:          0
L1I TOTAL     ACCESS:   34788454  HIT:   34788454  MISS:          0  HIT %:        100  MISS %:          0   MPKI: 0
L1I LOAD      TOTAL       ACCESS:   34788454  HIT:   34788454  MISS:          0  HIT %:        100  MISS %:          0   MPKI: 0
L1I LOAD      NON_SPEC    ACCESS:   34788454  HIT:   34788454  MISS:          0  HIT %:        100  MISS %:          0   MPKI: 0
L1I PREFETCH  REQUESTED:          0  ISSUED:          0  USEFUL:          0  USELESS:          0
L1I USEFUL LOAD PREFETCHES:          0 PREFETCH ISSUED TO LOWER LEVEL:          0  ACCURACY: -nan
L1I TIMELY PREFETCHES:          0 LATE PREFETCHES: 0 DROPPED PREFETCHES: 0
L1I COMMIT LATE PREFETCHES: 0 MISSED OPPORTUNITY: 0 LATE IN PQ: 0 UNCOVERED: 0
L1I COMMIT LATE MSHR PREFETCHES: 0
L1I MPKI TOTAL: 0 MSHR LATE: 0 PQ LATE: 0 COMMIT LATE: 0 MISSED OPPORTUNITY: 0 UNCOVERED: 0
L1I PREFETCHES SAME FILL-ORIGIN LEVEL: 0 DIFFERENT FILL-ORIGIN LEVEL: 0
L1I AVERAGE MISS LATENCY: -nan cycles
L1I AVERAGE MISS LATENCY LOAD: -nan cycles
L1I AVERAGE MISS LATENCY PREFETCH: -nan cycles
L1I AVERAGE MSHR OCCUPANCY: 0
L1I MSHR FULL: 0
L1I RQ	ACCESS:   50590308	FORWARD:          0	MERGED:   15801852	TO_CACHE:   34788456

BTB SPEC fills:          0  NON-SPEC fills:          0
BTB Test counter :          0
BTB Leapfrog:          0
BTB MSHR merge:          0
BTB TOTAL     ACCESS:    3122106  HIT:    3122100  MISS:          6  HIT %:    99.9998  MISS %: 0.000192178   MPKI: 3e-05
BTB BRANCH_DIRECT_JUMP	ACCESS:     397756  HIT:     397755  MISS:          1
BTB BRANCH_INDIRECT	ACCESS:          0  HIT:          0  MISS:          0
BTB BRANCH_CONDITIONAL	ACCESS:    2724350  HIT:    2724345  MISS:          5
BTB BRANCH_DIRECT_CALL	ACCESS:          0  HIT:          0  MISS:          0
BTB BRANCH_INDIRECT_CALL	ACCESS:          0  HIT:          0  MISS:          0
BTB BRANCH_RETURN	ACCESS:          0  HIT:          0  MISS:          0
BTB BRANCH_OTHER ACCESS:          0  HIT:          0  MISS:          0

L2C SPEC fills:          0  NON-SPEC fills:      17079
L2C Test counter :    1953646
L2C Leapfrog:          0
L2C MSHR merge:          0
L2C TOTAL     ACCESS:   26661338  HIT:   16777025  MISS:    9884313  HIT %:    62.9264  MISS %:    37.0736   MPKI: 49.4216
L2C LOAD      TOTAL       ACCESS:    1973374  HIT:        424  MISS:    1972950  HIT %:   0.021486  MISS %:    99.9785   MPKI: 9.86475
L2C LOAD      NON_SPEC    ACCESS:      17087  HIT:          8  MISS:      17079  HIT %:  0.0468192  MISS %:    99.9532   MPKI: 0.085395
L2C LOAD      SPEC        ACCESS:    1956287  HIT:        416  MISS:    1955871  HIT %:  0.0212648  MISS %:    99.9787   MPKI: 9.77936
L2C RFO       NON_SPEC    ACCESS:   10969602  HIT:    5016269  MISS:    5953333  HIT %:    45.7288  MISS %:    54.2712   MPKI: 29.7667
L2C WRITEBACK NON_SPEC    ACCESS:   10969618  HIT:   10969148  MISS:        470  HIT %:    99.9957  MISS %: 0.00428456   MPKI: 0.00235
L2C CLEAN_EVICTION NON_SPEC    ACCESS:    1955612  HIT:     194378  MISS:    1761234  HIT %:     9.9395  MISS %:    90.0605   MPKI: 8.80617
L2C COMMIT LOAD NON_SPEC    ACCESS:     180903  HIT:         29  MISS:     180874  HIT %:  0.0160307  MISS %:     99.984   MPKI: 0.90437
L2C LOAD TRANSLATION NON_SPEC    ACCESS:     612229  HIT:     596777  MISS:      15452  HIT %:    97.4761  MISS %:    2.52389   MPKI: 0.07726
L2C PREFETCH  REQUESTED:          0  ISSUED:          0  USEFUL:          0  USELESS:          0
L2C USEFUL LOAD PREFETCHES:          0 PREFETCH ISSUED TO LOWER LEVEL:          0  ACCURACY: -nan
L2C TIMELY PREFETCHES:          0 LATE PREFETCHES: 0 DROPPED PREFETCHES: 0
L2C COMMIT LATE PREFETCHES: 0 MISSED OPPORTUNITY: 0 LATE IN PQ: 0 UNCOVERED: 0
L2C COMMIT LATE MSHR PREFETCHES: 0
L2C MPKI TOTAL: 9.86475 MSHR LATE: 0 PQ LATE: 0 COMMIT LATE: 0 MISSED OPPORTUNITY: 0 UNCOVERED: 0
L2C PREFETCHES SAME FILL-ORIGIN LEVEL: 0 DIFFERENT FILL-ORIGIN LEVEL: 0
L2C AVERAGE MISS LATENCY: 374.676 cycles
L2C AVERAGE MISS LATENCY LOAD: 403.93 cycles
L2C AVERAGE MISS LATENCY PREFETCH: -nan cycles
L2C AVERAGE MSHR OCCUPANCY: 8.45053
L2C MSHR FULL: 0
L2C RQ	ACCESS:   13736125	FORWARD:          0	MERGED:          0	TO_CACHE:   13736114
L2C WQ	ACCESS:   12925230	FORWARD:         11	MERGED:          0	TO_CACHE:   12925230

L2C Instructions Evicting Data 0
L2C Translations Evicting Data 15388
L2C Data Evicting Data 6139540
L2C Instructions Evicting Instructions 0
L2C Translations Evicting Instructions 0
L2C Data Evicting Instructions 0
L2C Instructions Evicting Translations 0
L2C Translations Evicting Translations 64
L2C Data Evicting Translations 11746
L2C Dense regions hint from L2: 0
PSCL5 SPEC fills:          0  NON-SPEC fills:          0
PSCL5 Test counter :          0
PSCL5 Leapfrog:          0
PSCL5 MSHR merge:          0
PSCL5 TOTAL     ACCESS:          0  HIT:          0  MISS:          0  HIT %:       -nan  MISS %:       -nan   MPKI: 0
PSCL5 PREFETCH  REQUESTED:          0  ISSUED:          0  USEFUL:          0  USELESS:          0
PSCL5 USEFUL LOAD PREFETCHES:          0 PREFETCH ISSUED TO LOWER LEVEL:          0  ACCURACY: -nan
PSCL5 TIMELY PREFETCHES:          0 LATE PREFETCHES: 0 DROPPED PREFETCHES: 0
PSCL5 COMMIT LATE PREFETCHES: 0 MISSED OPPORTUNITY: 0 LATE IN PQ: 0 UNCOVERED: 0
PSCL5 COMMIT LATE MSHR PREFETCHES: 0
PSCL5 MPKI TOTAL: 0 MSHR LATE: 0 PQ LATE: 0 COMMIT LATE: 0 MISSED OPPORTUNITY: 0 UNCOVERED: 0
PSCL5 PREFETCHES SAME FILL-ORIGIN LEVEL: 0 DIFFERENT FILL-ORIGIN LEVEL: 0

PSCL4 SPEC fills:          0  NON-SPEC fills:          0
PSCL4 Test counter :          0
PSCL4 Leapfrog:          0
PSCL4 MSHR merge:          0
PSCL4 TOTAL     ACCESS:          0  HIT:          0  MISS:          0  HIT %:       -nan  MISS %:       -nan   MPKI: 0
PSCL4 PREFETCH  REQUESTED:          0  ISSUED:          0  USEFUL:          0  USELESS:          0
PSCL4 USEFUL LOAD PREFETCHES:          0 PREFETCH ISSUED TO LOWER LEVEL:          0  ACCURACY: -nan
PSCL4 TIMELY PREFETCHES:          0 LATE PREFETCHES: 0 DROPPED PREFETCHES: 0
PSCL4 COMMIT LATE PREFETCHES: 0 MISSED OPPORTUNITY: 0 LATE IN PQ: 0 UNCOVERED: 0
PSCL4 COMMIT LATE MSHR PREFETCHES: 0
PSCL4 MPKI TOTAL: 0 MSHR LATE: 0 PQ LATE: 0 COMMIT LATE: 0 MISSED OPPORTUNITY: 0 UNCOVERED: 0
PSCL4 PREFETCHES SAME FILL-ORIGIN LEVEL: 0 DIFFERENT FILL-ORIGIN LEVEL: 0

PSCL3 SPEC fills:          0  NON-SPEC fills:          0
PSCL3 Test counter :          0
PSCL3 Leapfrog:          0
PSCL3 MSHR merge:          0
PSCL3 TOTAL     ACCESS:          0  HIT:          0  MISS:          0  HIT %:       -nan  MISS %:       -nan   MPKI: 0
PSCL3 PREFETCH  REQUESTED:          0  ISSUED:          0  USEFUL:          0  USELESS:          0
PSCL3 USEFUL LOAD PREFETCHES:          0 PREFETCH ISSUED TO LOWER LEVEL:          0  ACCURACY: -nan
PSCL3 TIMELY PREFETCHES:          0 LATE PREFETCHES: 0 DROPPED PREFETCHES: 0
PSCL3 COMMIT LATE PREFETCHES: 0 MISSED OPPORTUNITY: 0 LATE IN PQ: 0 UNCOVERED: 0
PSCL3 COMMIT LATE MSHR PREFETCHES: 0
PSCL3 MPKI TOTAL: 0 MSHR LATE: 0 PQ LATE: 0 COMMIT LATE: 0 MISSED OPPORTUNITY: 0 UNCOVERED: 0
PSCL3 PREFETCHES SAME FILL-ORIGIN LEVEL: 0 DIFFERENT FILL-ORIGIN LEVEL: 0

PSCL2 SPEC fills:          0  NON-SPEC fills:          0
PSCL2 Test counter :          0
PSCL2 Leapfrog:          0
PSCL2 MSHR merge:          0
PSCL2 TOTAL     ACCESS:          0  HIT:          0  MISS:          0  HIT %:       -nan  MISS %:       -nan   MPKI: 0
PSCL2 PREFETCH  REQUESTED:          0  ISSUED:          0  USEFUL:          0  USELESS:          0
PSCL2 USEFUL LOAD PREFETCHES:          0 PREFETCH ISSUED TO LOWER LEVEL:          0  ACCURACY: -nan
PSCL2 TIMELY PREFETCHES:          0 LATE PREFETCHES: 0 DROPPED PREFETCHES: 0
PSCL2 COMMIT LATE PREFETCHES: 0 MISSED OPPORTUNITY: 0 LATE IN PQ: 0 UNCOVERED: 0
PSCL2 COMMIT LATE MSHR PREFETCHES: 0
PSCL2 MPKI TOTAL: 0 MSHR LATE: 0 PQ LATE: 0 COMMIT LATE: 0 MISSED OPPORTUNITY: 0 UNCOVERED: 0
PSCL2 PREFETCHES SAME FILL-ORIGIN LEVEL: 0 DIFFERENT FILL-ORIGIN LEVEL: 0

LLC SPEC fills:          0  NON-SPEC fills:      17079
LLC Test counter :    1956092
LLC Leapfrog:          0
LLC MSHR merge:          0
LLC TOTAL     ACCESS:   16029311  HIT:    6221675  MISS:    9807636  HIT %:    38.8144  MISS %:    61.1856   MPKI: 49.0382
LLC LOAD      TOTAL       ACCESS:    1972950  HIT:          7  MISS:    1972943  HIT %: 0.000354799  MISS %:    99.9996   MPKI: 9.86472
LLC LOAD      NON_SPEC    ACCESS:      17079  HIT:          0  MISS:      17079  HIT %:          0  MISS %:        100   MPKI: 0.085395
LLC LOAD      SPEC        ACCESS:    1955871  HIT:          7  MISS:    1955864  HIT %: 0.000357897  MISS %:    99.9996   MPKI: 9.77932
LLC RFO       NON_SPEC    ACCESS:    5953332  HIT:      76827  MISS:    5876505  HIT %:    1.29049  MISS %:    98.7095   MPKI: 29.3825
LLC WRITEBACK NON_SPEC    ACCESS:    5953057  HIT:    5952726  MISS:        331  HIT %:    99.9944  MISS %: 0.00556017   MPKI: 0.001655
LLC CLEAN_EVICTION NON_SPEC    ACCESS:    1953646  HIT:     192115  MISS:    1761531  HIT %:    9.83366  MISS %:    90.1663   MPKI: 8.80766
LLC COMMIT LOAD NON_SPEC    ACCESS:     180874  HIT:          0  MISS:     180874  HIT %:          0  MISS %:        100   MPKI: 0.90437
LLC LOAD TRANSLATION NON_SPEC    ACCESS:      15452  HIT:          0  MISS:      15452  HIT %:          0  MISS %:        100   MPKI: 0.07726
LLC PREFETCH  REQUESTED:          0  ISSUED:          0  USEFUL:          0  USELESS:          0
LLC USEFUL LOAD PREFETCHES:          0 PREFETCH ISSUED TO LOWER LEVEL:          0  ACCURACY: -nan
LLC TIMELY PREFETCHES:          0 LATE PREFETCHES: 0 DROPPED PREFETCHES: 0
LLC COMMIT LATE PREFETCHES: 0 MISSED OPPORTUNITY: 0 LATE IN PQ: 0 UNCOVERED: 0
LLC COMMIT LATE MSHR PREFETCHES: 0
LLC MPKI TOTAL: 9.86472 MSHR LATE: 0 PQ LATE: 0 COMMIT LATE: 0 MISSED OPPORTUNITY: 0 UNCOVERED: 0
LLC PREFETCHES SAME FILL-ORIGIN LEVEL: 0 DIFFERENT FILL-ORIGIN LEVEL: 0
LLC AVERAGE MISS LATENCY: 354.2 cycles
LLC AVERAGE MISS LATENCY LOAD: 382.512 cycles
LLC AVERAGE MISS LATENCY PREFETCH: -nan cycles
LLC AVERAGE MSHR OCCUPANCY: 7.85616
LLC MSHR FULL: 0
LLC RQ	ACCESS:    8122612	FORWARD:          0	MERGED:          0	TO_CACHE:    8122611
LLC WQ	ACCESS:    7906703	FORWARD:          1	MERGED:          0	TO_CACHE:    7906703

LLC Dense regions hint to LLC: 0

RAW hits: 4974643
Loads Generated: 50393892
Loads sent to L1D: 45419249
Stores Generated: 34563858
Stores sent to L1D: 34563860
Major fault: 0 Minor fault: 72955
Allocated PAGES: 72955
Total Load insts: 55390490
Total Non-spec loads: 2260451
Percentage of speculative loads: 95.9191

LeapFrogging counter: 14310929
Commit hits: 11709356 miss: 31869225
Commit hit %: 26.8695 miss %: 73.1305
Commits not translated: 0
Loads retired: 1973375
Stores retired: 34563860
Cache fills: 1973375
L1D response latency: 463.316 cycles
Load retirement latency: 766.211 cycles
OOO test counter: 0
Discarded buffer inserts: 11709356 hits: 199225 hit %: 1.70142

DRAM Statistics
 CHANNEL 0
 RQ ROW_BUFFER_HIT:     426228  ROW_BUFFER_MISS:    7619546
 DBUS_CONGESTED:          9
 WQ ROW_BUFFER_HIT:    1906051  ROW_BUFFER_MISS:    5923950  FULL:      52193

 AVG_CONGESTED_CYCLE: 5
 All warmup complete: 2
Channel 0 Bank busy for read cycles: 0
Channel 0 Bank busy for write cycles: 0
Channel 0
Rank 0
0banks busy for read cycles: 32789242
0banks busy for write cycles: 28741
1banks busy for read cycles: 31922303
1banks busy for write cycles: 3459784
2banks busy for read cycles: 13711598
2banks busy for write cycles: 2818781
3banks busy for read cycles: 12946766
3banks busy for write cycles: 2627261
4banks busy for read cycles: 58939487
4banks busy for write cycles: 2569405
5banks busy for read cycles: 51471801
5banks busy for write cycles: 2893696
6banks busy for read cycles: 38941822
6banks busy for write cycles: 3136276
7banks busy for read cycles: 33144086
7banks busy for write cycles: 11674711
8banks busy for read cycles: 26548348
8banks busy for write cycles: 143050095

CPU 0 Branch Prediction Accuracy: 97.656% MPKI: 0.36593 Average ROB Occupancy at Mispredict: 274.309
Branch types
NOT_BRANCH: 196877389 98.4387%
BRANCH_DIRECT_JUMP: 397756 0.198878%
BRANCH_INDIRECT: 0 0%
BRANCH_CONDITIONAL: 2724544 1.36227%
BRANCH_DIRECT_CALL: 0 0%
BRANCH_INDIRECT_CALL: 0 0%
BRANCH_RETURN: 0 0%
BRANCH_OTHER: 0 0%

DRAM PAGES: 1048576
Allocated PAGES: 72955
