
*** ChampSim Multicore Out-of-Order Simulator ***

Warmup Instructions: 50000000
Simulation Instructions: 200000000
Number of CPUs: 1
LLC sets: 2048
LLC ways: 16
L0D sets: 16
L0D ways: 2
ROB size: 352
LQ size: 128
SQ size: 72
Secure Berti: OFF
Berti: OFF
Berti Fill: OFF
On commit prefetching: OFF
Hit-based filter: OFF
Time-guarding: ON
Free-slotting: ON
Leap-frogging: ON
Train prefetcher on L0D bypass: OFF
No translation penalty for prefetchers: OFF
Prefetch to L0D only: OFF
Prefetch to L1D only: OFF
Clean evictions: ON
Commit loads: ON
Commit write: ON
Fill commit loads to L2C, LLC: ON
DRAM IO FREQUENCY: 6400
ROB SIZE: 352
Off-chip DRAM Size: 4096 MB Channels: 1 Width: 64-bit Data Rate: 6400 MT/s
CPU 0 runs /home/sumon/secure_berti/GhostMinion/../../traces/spec/620.omnetpp_s-874B.champsimtrace.xz
.xz
BTB has LRU replacement policy
ITLB has LRU replacement policy
DTLB has LRU replacement policy
STLB has LRU replacement policy
L1I has LRU replacement policy
L0D has LRU replacement policy
L1D has LRU replacement policy
L2C has LRU replacement policy
LLC has LRU replacement policy
Heartbeat CPU 0 instructions: 10000001 cycles: 8123816 heartbeat IPC: 1.23095 cumulative IPC: 1.23095 (Simulation time: 0 hr 0 min 47 sec) 
Heartbeat CPU 0 instructions: 20000000 cycles: 16249091 heartbeat IPC: 1.23073 cumulative IPC: 1.23084 (Simulation time: 0 hr 1 min 33 sec) 
Heartbeat CPU 0 instructions: 30000003 cycles: 24354529 heartbeat IPC: 1.23374 cumulative IPC: 1.2318 (Simulation time: 0 hr 2 min 20 sec) 
Heartbeat CPU 0 instructions: 40000000 cycles: 32484894 heartbeat IPC: 1.22996 cumulative IPC: 1.23134 (Simulation time: 0 hr 3 min 6 sec) 
Heartbeat CPU 0 instructions: 50000000 cycles: 40621439 heartbeat IPC: 1.22902 cumulative IPC: 1.23088 (Simulation time: 0 hr 3 min 50 sec) 

Warmup complete CPU 0 instructions: 50000004 cycles: 40621440 (Simulation time: 0 hr 3 min 50 sec) 

Heartbeat CPU 0 instructions: 60000001 cycles: 81248654 heartbeat IPC: 0.24614 cumulative IPC: 0.24614 (Simulation time: 0 hr 4 min 41 sec) 
Heartbeat CPU 0 instructions: 70000001 cycles: 121521678 heartbeat IPC: 0.248305 cumulative IPC: 0.247218 (Simulation time: 0 hr 5 min 32 sec) 
Heartbeat CPU 0 instructions: 80000002 cycles: 162023715 heartbeat IPC: 0.246901 cumulative IPC: 0.247112 (Simulation time: 0 hr 6 min 23 sec) 
Heartbeat CPU 0 instructions: 90000002 cycles: 201932247 heartbeat IPC: 0.250573 cumulative IPC: 0.247968 (Simulation time: 0 hr 7 min 14 sec) 
Heartbeat CPU 0 instructions: 100000000 cycles: 242887725 heartbeat IPC: 0.244168 cumulative IPC: 0.247199 (Simulation time: 0 hr 8 min 5 sec) 
Heartbeat CPU 0 instructions: 110000000 cycles: 283007416 heartbeat IPC: 0.249254 cumulative IPC: 0.247539 (Simulation time: 0 hr 8 min 56 sec) 
Heartbeat CPU 0 instructions: 120000000 cycles: 323477478 heartbeat IPC: 0.247096 cumulative IPC: 0.247476 (Simulation time: 0 hr 9 min 47 sec) 
Heartbeat CPU 0 instructions: 130000000 cycles: 364130106 heartbeat IPC: 0.245987 cumulative IPC: 0.247289 (Simulation time: 0 hr 10 min 38 sec) 
Heartbeat CPU 0 instructions: 140000001 cycles: 404567875 heartbeat IPC: 0.247294 cumulative IPC: 0.247289 (Simulation time: 0 hr 11 min 28 sec) 
Heartbeat CPU 0 instructions: 150000002 cycles: 445186910 heartbeat IPC: 0.24619 cumulative IPC: 0.247179 (Simulation time: 0 hr 12 min 19 sec) 
Heartbeat CPU 0 instructions: 160000000 cycles: 486071166 heartbeat IPC: 0.244593 cumulative IPC: 0.246941 (Simulation time: 0 hr 13 min 9 sec) 
Heartbeat CPU 0 instructions: 170000000 cycles: 526262573 heartbeat IPC: 0.248809 cumulative IPC: 0.247096 (Simulation time: 0 hr 14 min 0 sec) 
Heartbeat CPU 0 instructions: 180000000 cycles: 566735534 heartbeat IPC: 0.247079 cumulative IPC: 0.247095 (Simulation time: 0 hr 14 min 50 sec) 
Heartbeat CPU 0 instructions: 190000003 cycles: 607330548 heartbeat IPC: 0.246336 cumulative IPC: 0.24704 (Simulation time: 0 hr 15 min 40 sec) 
Heartbeat CPU 0 instructions: 200000000 cycles: 647750366 heartbeat IPC: 0.247403 cumulative IPC: 0.247064 (Simulation time: 0 hr 16 min 29 sec) 
Heartbeat CPU 0 instructions: 210000000 cycles: 688350607 heartbeat IPC: 0.246304 cumulative IPC: 0.247017 (Simulation time: 0 hr 17 min 17 sec) 
Heartbeat CPU 0 instructions: 220000000 cycles: 728606146 heartbeat IPC: 0.248413 cumulative IPC: 0.247099 (Simulation time: 0 hr 18 min 4 sec) 
Heartbeat CPU 0 instructions: 230000002 cycles: 768800738 heartbeat IPC: 0.24879 cumulative IPC: 0.247192 (Simulation time: 0 hr 18 min 50 sec) 
Heartbeat CPU 0 instructions: 240000001 cycles: 809505559 heartbeat IPC: 0.245671 cumulative IPC: 0.247111 (Simulation time: 0 hr 19 min 36 sec) 
Heartbeat CPU 0 instructions: 250000000 cycles: 850068217 heartbeat IPC: 0.246532 cumulative IPC: 0.247082 (Simulation time: 0 hr 20 min 22 sec) 
Finished CPU 0 instructions: 200000000 cycles: 809446778 cumulative IPC: 0.247082 (Simulation time: 0 hr 20 min 22 sec) 
 Instruction ID: 250000019

ChampSim completed all CPUs

Region of Interest Statistics

CPU 0 cumulative IPC: 0.247082 instructions: 200000000 cycles: 809446778
ITLB SPEC fills:          0  NON-SPEC fills:          0
ITLB Test counter :          0
ITLB Leapfrog:          0
ITLB MSHR merge:          0
ITLB TOTAL     ACCESS:   32902610  HIT:   32585249  MISS:     317361  HIT %:    99.0355  MISS %:   0.964547   MPKI: 1.58681
ITLB LOAD TRANSLATION NON_SPEC    ACCESS:   32902610  HIT:   32585249  MISS:     317361  HIT %:    99.0355  MISS %:   0.964547   MPKI: 1.58681
ITLB PREFETCH  REQUESTED:          0  ISSUED:          0  USEFUL:          0  USELESS:          0
ITLB USEFUL LOAD PREFETCHES:          0 PREFETCH ISSUED TO LOWER LEVEL:          0  ACCURACY: -nan
ITLB TIMELY PREFETCHES:          0 LATE PREFETCHES: 0 DROPPED PREFETCHES: 0
ITLB COMMIT LATE PREFETCHES: 0 MISSED OPPORTUNITY: 0 LATE IN PQ: 0 UNCOVERED: 0
ITLB COMMIT LATE MSHR PREFETCHES: 0
ITLB MPKI TOTAL: 0 MSHR LATE: 0 PQ LATE: 0 COMMIT LATE: 0 MISSED OPPORTUNITY: 0 UNCOVERED: 0
ITLB PREFETCHES SAME FILL-ORIGIN LEVEL: 0 DIFFERENT FILL-ORIGIN LEVEL: 0
ITLB AVERAGE MISS LATENCY: 10.4266 cycles
ITLB AVERAGE MISS LATENCY LOAD: -nan cycles
ITLB AVERAGE MISS LATENCY PREFETCH: -nan cycles
ITLB AVERAGE MSHR OCCUPANCY: 0.00937917
ITLB MSHR FULL: 0
ITLB RQ	ACCESS:   37061561	FORWARD:          0	MERGED:    4062368	TO_CACHE:   32999193

DTLB SPEC fills:          0  NON-SPEC fills:          0
DTLB Test counter :          0
DTLB Leapfrog:          0
DTLB MSHR merge:          0
DTLB TOTAL     ACCESS:   81619719  HIT:   77807861  MISS:    3811858  HIT %:    95.3297  MISS %:    4.67027   MPKI: 19.0593
DTLB LOAD TRANSLATION NON_SPEC    ACCESS:   81619719  HIT:   77807861  MISS:    3811858  HIT %:    95.3297  MISS %:    4.67027   MPKI: 19.0593
DTLB PREFETCH  REQUESTED:          0  ISSUED:          0  USEFUL:          0  USELESS:          0
DTLB USEFUL LOAD PREFETCHES:          0 PREFETCH ISSUED TO LOWER LEVEL:          0  ACCURACY: -nan
DTLB TIMELY PREFETCHES:          0 LATE PREFETCHES: 0 DROPPED PREFETCHES: 0
DTLB COMMIT LATE PREFETCHES: 0 MISSED OPPORTUNITY: 0 LATE IN PQ: 0 UNCOVERED: 0
DTLB COMMIT LATE MSHR PREFETCHES: 0
DTLB MPKI TOTAL: 0 MSHR LATE: 0 PQ LATE: 0 COMMIT LATE: 0 MISSED OPPORTUNITY: 0 UNCOVERED: 0
DTLB PREFETCHES SAME FILL-ORIGIN LEVEL: 0 DIFFERENT FILL-ORIGIN LEVEL: 0
DTLB AVERAGE MISS LATENCY: 37.0062 cycles
DTLB AVERAGE MISS LATENCY LOAD: -nan cycles
DTLB AVERAGE MISS LATENCY PREFETCH: -nan cycles
DTLB AVERAGE MSHR OCCUPANCY: 0.11321
DTLB MSHR FULL: 2.91056e-05
DTLB RQ	ACCESS:   92229285	FORWARD:          0	MERGED:   10529137	TO_CACHE:   81700148

STLB SPEC fills:          0  NON-SPEC fills:          0
STLB Test counter :          0
STLB Leapfrog:          0
STLB MSHR merge:          0
STLB TOTAL     ACCESS:    4129219  HIT:    3274956  MISS:     854263  HIT %:    79.3118  MISS %:    20.6882   MPKI: 4.27132
STLB LOAD TRANSLATION NON_SPEC    ACCESS:    4129219  HIT:    3274956  MISS:     854263  HIT %:    79.3118  MISS %:    20.6882   MPKI: 4.27132
STLB PREFETCH  REQUESTED:          0  ISSUED:          0  USEFUL:          0  USELESS:          0
STLB USEFUL LOAD PREFETCHES:          0 PREFETCH ISSUED TO LOWER LEVEL:          0  ACCURACY: -nan
STLB TIMELY PREFETCHES:          0 LATE PREFETCHES: 0 DROPPED PREFETCHES: 0
STLB COMMIT LATE PREFETCHES: 0 MISSED OPPORTUNITY: 0 LATE IN PQ: 0 UNCOVERED: 0
STLB COMMIT LATE MSHR PREFETCHES: 0
STLB MPKI TOTAL: 0 MSHR LATE: 0 PQ LATE: 0 COMMIT LATE: 0 MISSED OPPORTUNITY: 0 UNCOVERED: 0
STLB PREFETCHES SAME FILL-ORIGIN LEVEL: 0 DIFFERENT FILL-ORIGIN LEVEL: 0
STLB AVERAGE MISS LATENCY: 125.378 cycles
STLB AVERAGE MISS LATENCY LOAD: -nan cycles
STLB AVERAGE MISS LATENCY PREFETCH: -nan cycles
STLB AVERAGE MSHR OCCUPANCY: 0.10582
STLB MSHR FULL: 0
STLB RQ	ACCESS:    4129219	FORWARD:          0	MERGED:          0	TO_CACHE:    4129219

STLB Hit, L1D data hit: 0
STLB Hit, L2C data hit: 0
STLB Hit, LLC data hit: 0
STLB Hit, LLC data miss: 0
STLB STLB hints to L2: 0
L0D SPEC fills:   22982288  NON-SPEC fills:          0
L0D TimeGuard Request with older TS:     303003 Restricted eviction:     190305 read:     269075
L0D Test counter :          0
L0D Leapfrog:          0
L0D MSHR merge:    1057297
L0D TOTAL     ACCESS:   54053660  HIT:    6559786  MISS:   47493874  HIT %:    12.1357  MISS %:    87.8643   MPKI: 237.469
L0D LOAD      TOTAL       ACCESS:   54053660  HIT:    6559786  MISS:   47493874  HIT %:    12.1357  MISS %:    87.8643   MPKI: 237.469
L0D LOAD      NON_SPEC    ACCESS:   24534257  HIT:     212970  MISS:   24321287  HIT %:   0.868052  MISS %:    99.1319   MPKI: 121.606
L0D LOAD      SPEC        ACCESS:   29519403  HIT:    6346816  MISS:   23172587  HIT %:    21.5005  MISS %:    78.4995   MPKI: 115.863
L0D PREFETCH  REQUESTED:          0  ISSUED:          0  USEFUL:          0  USELESS:          0
L0D USEFUL LOAD PREFETCHES:          0 PREFETCH ISSUED TO LOWER LEVEL:          0  ACCURACY: -nan
L0D TIMELY PREFETCHES:          0 LATE PREFETCHES: 0 DROPPED PREFETCHES: 0
L0D COMMIT LATE PREFETCHES: 0 MISSED OPPORTUNITY: 0 LATE IN PQ: 0 UNCOVERED: 0
L0D COMMIT LATE MSHR PREFETCHES: 0
L0D MPKI TOTAL: 242.756 MSHR LATE: 0 PQ LATE: 0 COMMIT LATE: 0 MISSED OPPORTUNITY: 0 UNCOVERED: 0
L0D PREFETCHES SAME FILL-ORIGIN LEVEL: 0 DIFFERENT FILL-ORIGIN LEVEL: 0
L0D AVERAGE MISS LATENCY: 11.9985 cycles
L0D AVERAGE MISS LATENCY LOAD: 11.9985 cycles
L0D AVERAGE MISS LATENCY PREFETCH: -nan cycles
L0D AVERAGE MSHR OCCUPANCY: 0.551823
L0D MSHR FULL: 5.38523e-05
L0D RQ	ACCESS:   64232395	FORWARD:          0	MERGED:    9121440	TO_CACHE:   55110955
L0D WQ	ACCESS:   37118330	FORWARD:          0	MERGED:          0	TO_CACHE:   37118330

L1D SPEC fills:          0  NON-SPEC fills:     619037
L1D Test counter :    2746899
L1D Leapfrog:          0
L1D MSHR merge:      17824
L1D TOTAL     ACCESS:  115569026  HIT:  109344055  MISS:    6224971  HIT %:    94.6136  MISS %:    5.38637   MPKI: 31.1249
L1D LOAD      TOTAL       ACCESS:   47476050  HIT:   44281592  MISS:    3194458  HIT %:    93.2714  MISS %:    6.72857   MPKI: 15.9723
L1D LOAD      NON_SPEC    ACCESS:   24313764  HIT:   23694727  MISS:     619037  HIT %:     97.454  MISS %:    2.54604   MPKI: 3.09518
L1D LOAD      SPEC        ACCESS:   23162286  HIT:   20586865  MISS:    2575421  HIT %:     88.881  MISS %:     11.119   MPKI: 12.8771
L1D RFO       NON_SPEC    ACCESS:   34753326  HIT:   34274066  MISS:     479260  HIT %:     98.621  MISS %:    1.37903   MPKI: 2.3963
L1D COMMIT LOAD NON_SPEC    ACCESS:   10635637  HIT:   10617672  MISS:      17965  HIT %:    99.8311  MISS %:   0.168913   MPKI: 0.089825
L1D COMMIT WRITE NON_SPEC    ACCESS:   22704013  HIT:   20170725  MISS:    2533288  HIT %:    88.8421  MISS %:    11.1579   MPKI: 12.6664
L1D PREFETCH  REQUESTED:          0  ISSUED:          0  USEFUL:          0  USELESS:          0
L1D USEFUL LOAD PREFETCHES:          0 PREFETCH ISSUED TO LOWER LEVEL:          0  ACCURACY: -nan
L1D TIMELY PREFETCHES:          0 LATE PREFETCHES: 0 DROPPED PREFETCHES: 0
L1D COMMIT LATE PREFETCHES: 0 MISSED OPPORTUNITY: 0 LATE IN PQ: 0 UNCOVERED: 0
L1D COMMIT LATE MSHR PREFETCHES: 0
L1D MPKI TOTAL: 16.0614 MSHR LATE: 0 PQ LATE: 0 COMMIT LATE: 0 MISSED OPPORTUNITY: 0 UNCOVERED: 0
L1D PREFETCHES SAME FILL-ORIGIN LEVEL: 0 DIFFERENT FILL-ORIGIN LEVEL: 0
L1D AVERAGE MISS LATENCY: 60.2294 cycles
L1D AVERAGE MISS LATENCY LOAD: 102.806 cycles
L1D AVERAGE MISS LATENCY PREFETCH: -nan cycles
L1D AVERAGE MSHR OCCUPANCY: 0.224304
L1D MSHR FULL: 0
L1D RQ	ACCESS:   64349189	FORWARD:          0	MERGED:    4712007	TO_CACHE:   58131021
L1D WQ	ACCESS:   59907433	FORWARD:    1506161	MERGED:    1724370	TO_CACHE:   58183063

L1D UNIQUE REGIONS ACCESSED: 0
L1D REGIONS CONFLICTS: 0
L1D Cross Page Prefetch Requests: 0
L1D Same Page Prefetch Requests: 0
L1D ROI Sum of L1D PQ occupancy: 0
L1D PREFETCHES PUSHED FROM L2C: 0
L1I SPEC fills:          0  NON-SPEC fills:          0
L1I Test counter :          0
L1I Leapfrog:          0
L1I MSHR merge:      30128
L1I TOTAL     ACCESS:   37031434  HIT:   36952426  MISS:      79008  HIT %:    99.7866  MISS %:   0.213354   MPKI: 0.39504
L1I LOAD      TOTAL       ACCESS:   37031434  HIT:   36952426  MISS:      79008  HIT %:    99.7866  MISS %:   0.213354   MPKI: 0.39504
L1I LOAD      NON_SPEC    ACCESS:   37031434  HIT:   36952426  MISS:      79008  HIT %:    99.7866  MISS %:   0.213354   MPKI: 0.39504
L1I PREFETCH  REQUESTED:          0  ISSUED:          0  USEFUL:          0  USELESS:          0
L1I USEFUL LOAD PREFETCHES:          0 PREFETCH ISSUED TO LOWER LEVEL:          0  ACCURACY: -nan
L1I TIMELY PREFETCHES:          0 LATE PREFETCHES: 0 DROPPED PREFETCHES: 0
L1I COMMIT LATE PREFETCHES: 0 MISSED OPPORTUNITY: 0 LATE IN PQ: 0 UNCOVERED: 0
L1I COMMIT LATE MSHR PREFETCHES: 0
L1I MPKI TOTAL: 0.54568 MSHR LATE: 0 PQ LATE: 0 COMMIT LATE: 0 MISSED OPPORTUNITY: 0 UNCOVERED: 0
L1I PREFETCHES SAME FILL-ORIGIN LEVEL: 0 DIFFERENT FILL-ORIGIN LEVEL: 0
L1I AVERAGE MISS LATENCY: 26.3435 cycles
L1I AVERAGE MISS LATENCY LOAD: 26.3435 cycles
L1I AVERAGE MISS LATENCY PREFETCH: -nan cycles
L1I AVERAGE MSHR OCCUPANCY: 0.00328691
L1I MSHR FULL: 0
L1I RQ	ACCESS:   56948724	FORWARD:          0	MERGED:   19887163	TO_CACHE:   37061561

BTB SPEC fills:          0  NON-SPEC fills:          0
BTB Test counter :          0
BTB Leapfrog:          0
BTB MSHR merge:          0
BTB TOTAL     ACCESS:   32188164  HIT:   30296058  MISS:    1892106  HIT %:    94.1217  MISS %:    5.87827   MPKI: 9.46053
BTB BRANCH_DIRECT_JUMP	ACCESS:    2276304  HIT:    2276179  MISS:        125
BTB BRANCH_INDIRECT	ACCESS:     671328  HIT:     585871  MISS:      85457
BTB BRANCH_CONDITIONAL	ACCESS:   17350102  HIT:   17349618  MISS:        484
BTB BRANCH_DIRECT_CALL	ACCESS:    3559126  HIT:    3558870  MISS:        256
BTB BRANCH_INDIRECT_CALL	ACCESS:    2386088  HIT:    2378106  MISS:       7982
BTB BRANCH_RETURN	ACCESS:    5945216  HIT:    4147414  MISS:    1797802
BTB BRANCH_OTHER ACCESS:          0  HIT:          0  MISS:          0

L2C SPEC fills:          0  NON-SPEC fills:     368741
L2C Test counter :    1963478
L2C Leapfrog:          0
L2C MSHR merge:          0
L2C TOTAL     ACCESS:   11403202  HIT:    6581426  MISS:    4821776  HIT %:    57.7156  MISS %:    42.2844   MPKI: 24.1089
L2C LOAD      TOTAL       ACCESS:    3273374  HIT:    1071111  MISS:    2202263  HIT %:    32.7219  MISS %:    67.2781   MPKI: 11.0113
L2C LOAD      NON_SPEC    ACCESS:     698027  HIT:     316234  MISS:     381793  HIT %:     45.304  MISS %:     54.696   MPKI: 1.90897
L2C LOAD      SPEC        ACCESS:    2575347  HIT:     754877  MISS:    1820470  HIT %:    29.3117  MISS %:    70.6883   MPKI: 9.10235
L2C RFO       NON_SPEC    ACCESS:     479244  HIT:     146565  MISS:     332679  HIT %:    30.5825  MISS %:    69.4175   MPKI: 1.66339
L2C WRITEBACK NON_SPEC    ACCESS:     614425  HIT:     613516  MISS:        909  HIT %:    99.8521  MISS %:   0.147943   MPKI: 0.004545
L2C CLEAN_EVICTION NON_SPEC    ACCESS:    2746898  HIT:     924694  MISS:    1822204  HIT %:    33.6632  MISS %:    66.3368   MPKI: 9.11102
L2C COMMIT LOAD NON_SPEC    ACCESS:      17946  HIT:       7684  MISS:      10262  HIT %:    42.8173  MISS %:    57.1827   MPKI: 0.05131
L2C LOAD TRANSLATION NON_SPEC    ACCESS:    4271315  HIT:    3817856  MISS:     453459  HIT %:    89.3836  MISS %:    10.6164   MPKI: 2.26729
L2C PREFETCH  REQUESTED:          0  ISSUED:          0  USEFUL:          0  USELESS:          0
L2C USEFUL LOAD PREFETCHES:          0 PREFETCH ISSUED TO LOWER LEVEL:          0  ACCURACY: -nan
L2C TIMELY PREFETCHES:          0 LATE PREFETCHES: 0 DROPPED PREFETCHES: 0
L2C COMMIT LATE PREFETCHES: 0 MISSED OPPORTUNITY: 0 LATE IN PQ: 0 UNCOVERED: 0
L2C COMMIT LATE MSHR PREFETCHES: 0
L2C MPKI TOTAL: 11.0113 MSHR LATE: 0 PQ LATE: 0 COMMIT LATE: 0 MISSED OPPORTUNITY: 0 UNCOVERED: 0
L2C PREFETCHES SAME FILL-ORIGIN LEVEL: 0 DIFFERENT FILL-ORIGIN LEVEL: 0
L2C AVERAGE MISS LATENCY: 76.4364 cycles
L2C AVERAGE MISS LATENCY LOAD: 132.333 cycles
L2C AVERAGE MISS LATENCY PREFETCH: -nan cycles
L2C AVERAGE MSHR OCCUPANCY: 0.328829
L2C MSHR FULL: 0
L2C RQ	ACCESS:    8042006	FORWARD:          0	MERGED:          0	TO_CACHE:    8041879
L2C WQ	ACCESS:    3361324	FORWARD:        127	MERGED:          0	TO_CACHE:    3361324

L2C Instructions Evicting Data 10777
L2C Translations Evicting Data 381851
L2C Data Evicting Data 600876
L2C Instructions Evicting Instructions 700
L2C Translations Evicting Instructions 1766
L2C Data Evicting Instructions 3035
L2C Instructions Evicting Translations 1575
L2C Translations Evicting Translations 69842
L2C Data Evicting Translations 107771
L2C Dense regions hint from L2: 0
PSCL5 SPEC fills:          0  NON-SPEC fills:          0
PSCL5 Test counter :          0
PSCL5 Leapfrog:          0
PSCL5 MSHR merge:          0
PSCL5 TOTAL     ACCESS:          0  HIT:          0  MISS:          0  HIT %:       -nan  MISS %:       -nan   MPKI: 0
PSCL5 PREFETCH  REQUESTED:          0  ISSUED:          0  USEFUL:          0  USELESS:          0
PSCL5 USEFUL LOAD PREFETCHES:          0 PREFETCH ISSUED TO LOWER LEVEL:          0  ACCURACY: -nan
PSCL5 TIMELY PREFETCHES:          0 LATE PREFETCHES: 0 DROPPED PREFETCHES: 0
PSCL5 COMMIT LATE PREFETCHES: 0 MISSED OPPORTUNITY: 0 LATE IN PQ: 0 UNCOVERED: 0
PSCL5 COMMIT LATE MSHR PREFETCHES: 0
PSCL5 MPKI TOTAL: 0 MSHR LATE: 0 PQ LATE: 0 COMMIT LATE: 0 MISSED OPPORTUNITY: 0 UNCOVERED: 0
PSCL5 PREFETCHES SAME FILL-ORIGIN LEVEL: 0 DIFFERENT FILL-ORIGIN LEVEL: 0

PSCL4 SPEC fills:          0  NON-SPEC fills:          0
PSCL4 Test counter :          0
PSCL4 Leapfrog:          0
PSCL4 MSHR merge:          0
PSCL4 TOTAL     ACCESS:          0  HIT:          0  MISS:          0  HIT %:       -nan  MISS %:       -nan   MPKI: 0
PSCL4 PREFETCH  REQUESTED:          0  ISSUED:          0  USEFUL:          0  USELESS:          0
PSCL4 USEFUL LOAD PREFETCHES:          0 PREFETCH ISSUED TO LOWER LEVEL:          0  ACCURACY: -nan
PSCL4 TIMELY PREFETCHES:          0 LATE PREFETCHES: 0 DROPPED PREFETCHES: 0
PSCL4 COMMIT LATE PREFETCHES: 0 MISSED OPPORTUNITY: 0 LATE IN PQ: 0 UNCOVERED: 0
PSCL4 COMMIT LATE MSHR PREFETCHES: 0
PSCL4 MPKI TOTAL: 0 MSHR LATE: 0 PQ LATE: 0 COMMIT LATE: 0 MISSED OPPORTUNITY: 0 UNCOVERED: 0
PSCL4 PREFETCHES SAME FILL-ORIGIN LEVEL: 0 DIFFERENT FILL-ORIGIN LEVEL: 0

PSCL3 SPEC fills:          0  NON-SPEC fills:          0
PSCL3 Test counter :          0
PSCL3 Leapfrog:          0
PSCL3 MSHR merge:          0
PSCL3 TOTAL     ACCESS:          0  HIT:          0  MISS:          0  HIT %:       -nan  MISS %:       -nan   MPKI: 0
PSCL3 PREFETCH  REQUESTED:          0  ISSUED:          0  USEFUL:          0  USELESS:          0
PSCL3 USEFUL LOAD PREFETCHES:          0 PREFETCH ISSUED TO LOWER LEVEL:          0  ACCURACY: -nan
PSCL3 TIMELY PREFETCHES:          0 LATE PREFETCHES: 0 DROPPED PREFETCHES: 0
PSCL3 COMMIT LATE PREFETCHES: 0 MISSED OPPORTUNITY: 0 LATE IN PQ: 0 UNCOVERED: 0
PSCL3 COMMIT LATE MSHR PREFETCHES: 0
PSCL3 MPKI TOTAL: 0 MSHR LATE: 0 PQ LATE: 0 COMMIT LATE: 0 MISSED OPPORTUNITY: 0 UNCOVERED: 0
PSCL3 PREFETCHES SAME FILL-ORIGIN LEVEL: 0 DIFFERENT FILL-ORIGIN LEVEL: 0

PSCL2 SPEC fills:          0  NON-SPEC fills:          0
PSCL2 Test counter :          0
PSCL2 Leapfrog:          0
PSCL2 MSHR merge:          0
PSCL2 TOTAL     ACCESS:          0  HIT:          0  MISS:          0  HIT %:       -nan  MISS %:       -nan   MPKI: 0
PSCL2 PREFETCH  REQUESTED:          0  ISSUED:          0  USEFUL:          0  USELESS:          0
PSCL2 USEFUL LOAD PREFETCHES:          0 PREFETCH ISSUED TO LOWER LEVEL:          0  ACCURACY: -nan
PSCL2 TIMELY PREFETCHES:          0 LATE PREFETCHES: 0 DROPPED PREFETCHES: 0
PSCL2 COMMIT LATE PREFETCHES: 0 MISSED OPPORTUNITY: 0 LATE IN PQ: 0 UNCOVERED: 0
PSCL2 COMMIT LATE MSHR PREFETCHES: 0
PSCL2 MPKI TOTAL: 0 MSHR LATE: 0 PQ LATE: 0 COMMIT LATE: 0 MISSED OPPORTUNITY: 0 UNCOVERED: 0
PSCL2 PREFETCHES SAME FILL-ORIGIN LEVEL: 0 DIFFERENT FILL-ORIGIN LEVEL: 0

LLC SPEC fills:          0  NON-SPEC fills:     248701
LLC Test counter :    1531076
LLC Leapfrog:          0
LLC MSHR merge:          0
LLC TOTAL     ACCESS:    5379402  HIT:    1985827  MISS:    3393575  HIT %:    36.9154  MISS %:    63.0846   MPKI: 16.9679
LLC LOAD      TOTAL       ACCESS:    2202260  HIT:     543763  MISS:    1658497  HIT %:    24.6911  MISS %:    75.3089   MPKI: 8.29248
LLC LOAD      NON_SPEC    ACCESS:     381793  HIT:     129708  MISS:     252085  HIT %:    33.9734  MISS %:    66.0266   MPKI: 1.26042
LLC LOAD      SPEC        ACCESS:    1820467  HIT:     414055  MISS:    1406412  HIT %:    22.7444  MISS %:    77.2556   MPKI: 7.03206
LLC RFO       NON_SPEC    ACCESS:     332677  HIT:     166475  MISS:     166202  HIT %:     50.041  MISS %:     49.959   MPKI: 0.83101
LLC WRITEBACK NON_SPEC    ACCESS:     417268  HIT:     416163  MISS:       1105  HIT %:    99.7352  MISS %:   0.264818   MPKI: 0.005525
LLC CLEAN_EVICTION NON_SPEC    ACCESS:    1963477  HIT:     543963  MISS:    1419514  HIT %:    27.7041  MISS %:    72.2959   MPKI: 7.09757
LLC COMMIT LOAD NON_SPEC    ACCESS:      10261  HIT:       3454  MISS:       6807  HIT %:    33.6614  MISS %:    66.3386   MPKI: 0.034035
LLC LOAD TRANSLATION NON_SPEC    ACCESS:     453459  HIT:     312009  MISS:     141450  HIT %:    68.8064  MISS %:    31.1936   MPKI: 0.70725
LLC PREFETCH  REQUESTED:          0  ISSUED:          0  USEFUL:          0  USELESS:          0
LLC USEFUL LOAD PREFETCHES:          0 PREFETCH ISSUED TO LOWER LEVEL:          0  ACCURACY: -nan
LLC TIMELY PREFETCHES:          0 LATE PREFETCHES: 0 DROPPED PREFETCHES: 0
LLC COMMIT LATE PREFETCHES: 0 MISSED OPPORTUNITY: 0 LATE IN PQ: 0 UNCOVERED: 0
LLC COMMIT LATE MSHR PREFETCHES: 0
LLC MPKI TOTAL: 8.29248 MSHR LATE: 0 PQ LATE: 0 COMMIT LATE: 0 MISSED OPPORTUNITY: 0 UNCOVERED: 0
LLC PREFETCHES SAME FILL-ORIGIN LEVEL: 0 DIFFERENT FILL-ORIGIN LEVEL: 0
LLC AVERAGE MISS LATENCY: 86.9205 cycles
LLC AVERAGE MISS LATENCY LOAD: 145.757 cycles
LLC AVERAGE MISS LATENCY PREFETCH: -nan cycles
LLC AVERAGE MSHR OCCUPANCY: 0.359056
LLC MSHR FULL: 0
LLC RQ	ACCESS:    2998663	FORWARD:          0	MERGED:          0	TO_CACHE:    2998657
LLC WQ	ACCESS:    2380746	FORWARD:          6	MERGED:          0	TO_CACHE:    2380746

LLC Dense regions hint to LLC: 0

RAW hits: 3216354
Loads Generated: 67448749
Loads sent to L1D: 64232395
Stores Generated: 37118330
Stores sent to L1D: 37118330
Major fault: 0 Minor fault: 47401
Allocated PAGES: 47401
Total Load insts: 79559504
Total Non-spec loads: 28063630
Percentage of speculative loads: 64.7262

LeapFrogging counter: 1206
Commit hits: 22789106 miss: 16855316
Commit hit %: 57.4838 miss %: 42.5162
Commits not translated: 0
Loads retired: 3194456
Stores retired: 37118330
Cache fills: 3194458
L1D response latency: 102.806 cycles
Load retirement latency: 183.023 cycles
OOO test counter: 0
Discarded buffer inserts: 22789106 hits: 9895 hit %: 0.0434199

DRAM Statistics
 CHANNEL 0
 RQ ROW_BUFFER_HIT:     177199  ROW_BUFFER_MISS:    1795746
 DBUS_CONGESTED:        805
 WQ ROW_BUFFER_HIT:     305351  ROW_BUFFER_MISS:    1445089  FULL:          0

 AVG_CONGESTED_CYCLE: 3
 All warmup complete: 2
Channel 0 Bank busy for read cycles: 0
Channel 0 Bank busy for write cycles: 0
Channel 0
Rank 0
0banks busy for read cycles: 393404423
0banks busy for write cycles: 736694
1banks busy for read cycles: 165170826
1banks busy for write cycles: 120051054
2banks busy for read cycles: 35270407
2banks busy for write cycles: 50883213
3banks busy for read cycles: 9784038
3banks busy for write cycles: 19805894
4banks busy for read cycles: 3190626
4banks busy for write cycles: 7165603
5banks busy for read cycles: 79235
5banks busy for write cycles: 2607139
6banks busy for read cycles: 407
6banks busy for write cycles: 966137
7banks busy for read cycles: 55
7banks busy for write cycles: 280579
8banks busy for read cycles: 0
8banks busy for write cycles: 50449

CPU 0 Branch Prediction Accuracy: 98.2082% MPKI: 3.72743 Average ROB Occupancy at Mispredict: 33.8344
Branch types
NOT_BRANCH: 158393545 79.1968%
BRANCH_DIRECT_JUMP: 2276304 1.13815%
BRANCH_INDIRECT: 671328 0.335664%
BRANCH_CONDITIONAL: 26768026 13.384%
BRANCH_DIRECT_CALL: 3559126 1.77956%
BRANCH_INDIRECT_CALL: 2386088 1.19304%
BRANCH_RETURN: 5945216 2.97261%
BRANCH_OTHER: 0 0%

DRAM PAGES: 1048576
Allocated PAGES: 47401
