
*** ChampSim Multicore Out-of-Order Simulator ***

Warmup Instructions: 50000000
Simulation Instructions: 200000000
Number of CPUs: 1
LLC sets: 2048
LLC ways: 16
L0D sets: 16
L0D ways: 2
ROB size: 352
LQ size: 128
SQ size: 72
Secure Berti: OFF
Berti: OFF
Berti Fill: OFF
On commit prefetching: OFF
Hit-based filter: OFF
Time-guarding: ON
Free-slotting: ON
Leap-frogging: ON
Train prefetcher on L0D bypass: OFF
No translation penalty for prefetchers: OFF
Prefetch to L0D only: OFF
Prefetch to L1D only: OFF
Clean evictions: ON
Commit loads: ON
Commit write: ON
Fill commit loads to L2C, LLC: ON
DRAM IO FREQUENCY: 6400
ROB SIZE: 352
Off-chip DRAM Size: 4096 MB Channels: 1 Width: 64-bit Data Rate: 6400 MT/s
CPU 0 runs /home/sumon/secure_berti/GhostMinion/../../traces/spec/621.wrf_s-6673B.champsimtrace.xz
.xz
BTB has LRU replacement policy
ITLB has LRU replacement policy
DTLB has LRU replacement policy
STLB has LRU replacement policy
L1I has LRU replacement policy
L0D has LRU replacement policy
L1D has LRU replacement policy
L2C has LRU replacement policy
LLC has LRU replacement policy
Heartbeat CPU 0 instructions: 10000002 cycles: 5256903 heartbeat IPC: 1.90226 cumulative IPC: 1.90226 (Simulation time: 0 hr 0 min 38 sec) 
Heartbeat CPU 0 instructions: 20000002 cycles: 8494617 heartbeat IPC: 3.0886 cumulative IPC: 2.35443 (Simulation time: 0 hr 1 min 7 sec) 
Heartbeat CPU 0 instructions: 30000000 cycles: 11620234 heartbeat IPC: 3.19937 cumulative IPC: 2.5817 (Simulation time: 0 hr 1 min 33 sec) 
Heartbeat CPU 0 instructions: 40000002 cycles: 14715333 heartbeat IPC: 3.23092 cumulative IPC: 2.71825 (Simulation time: 0 hr 2 min 3 sec) 
Heartbeat CPU 0 instructions: 50000001 cycles: 17832845 heartbeat IPC: 3.20769 cumulative IPC: 2.80382 (Simulation time: 0 hr 2 min 32 sec) 

Warmup complete CPU 0 instructions: 50000001 cycles: 17832845 (Simulation time: 0 hr 2 min 32 sec) 

Heartbeat CPU 0 instructions: 60000000 cycles: 41624982 heartbeat IPC: 0.420307 cumulative IPC: 0.420307 (Simulation time: 0 hr 3 min 23 sec) 
Heartbeat CPU 0 instructions: 70000000 cycles: 70989596 heartbeat IPC: 0.340546 cumulative IPC: 0.376246 (Simulation time: 0 hr 4 min 17 sec) 
Heartbeat CPU 0 instructions: 80000001 cycles: 94731581 heartbeat IPC: 0.421195 cumulative IPC: 0.390123 (Simulation time: 0 hr 5 min 5 sec) 
Heartbeat CPU 0 instructions: 90000003 cycles: 117394905 heartbeat IPC: 0.441242 cumulative IPC: 0.401759 (Simulation time: 0 hr 5 min 54 sec) 
Heartbeat CPU 0 instructions: 100000000 cycles: 155316317 heartbeat IPC: 0.263703 cumulative IPC: 0.36368 (Simulation time: 0 hr 6 min 54 sec) 
Heartbeat CPU 0 instructions: 110000000 cycles: 164216767 heartbeat IPC: 1.12354 cumulative IPC: 0.409881 (Simulation time: 0 hr 7 min 28 sec) 
Heartbeat CPU 0 instructions: 120000003 cycles: 175987519 heartbeat IPC: 0.849564 cumulative IPC: 0.442605 (Simulation time: 0 hr 8 min 4 sec) 
Heartbeat CPU 0 instructions: 130000002 cycles: 185883302 heartbeat IPC: 1.01053 cumulative IPC: 0.476048 (Simulation time: 0 hr 8 min 36 sec) 
Heartbeat CPU 0 instructions: 140000001 cycles: 196551511 heartbeat IPC: 0.937364 cumulative IPC: 0.503585 (Simulation time: 0 hr 9 min 13 sec) 
Heartbeat CPU 0 instructions: 150000001 cycles: 207188588 heartbeat IPC: 0.940108 cumulative IPC: 0.528107 (Simulation time: 0 hr 9 min 45 sec) 
Heartbeat CPU 0 instructions: 160000000 cycles: 216877434 heartbeat IPC: 1.03211 cumulative IPC: 0.55264 (Simulation time: 0 hr 10 min 19 sec) 
Heartbeat CPU 0 instructions: 170000001 cycles: 228220508 heartbeat IPC: 0.881595 cumulative IPC: 0.570376 (Simulation time: 0 hr 10 min 54 sec) 
Heartbeat CPU 0 instructions: 180000000 cycles: 237461614 heartbeat IPC: 1.08212 cumulative IPC: 0.591908 (Simulation time: 0 hr 11 min 25 sec) 
Heartbeat CPU 0 instructions: 190000000 cycles: 251382737 heartbeat IPC: 0.718333 cumulative IPC: 0.599444 (Simulation time: 0 hr 12 min 2 sec) 
Heartbeat CPU 0 instructions: 200000003 cycles: 263700845 heartbeat IPC: 0.811813 cumulative IPC: 0.610083 (Simulation time: 0 hr 12 min 38 sec) 
Heartbeat CPU 0 instructions: 210000000 cycles: 276187582 heartbeat IPC: 0.800849 cumulative IPC: 0.619304 (Simulation time: 0 hr 13 min 14 sec) 
Heartbeat CPU 0 instructions: 220000000 cycles: 288990317 heartbeat IPC: 0.781083 cumulative IPC: 0.626942 (Simulation time: 0 hr 13 min 51 sec) 
Heartbeat CPU 0 instructions: 230000001 cycles: 308503903 heartbeat IPC: 0.512464 cumulative IPC: 0.619257 (Simulation time: 0 hr 14 min 31 sec) 
Heartbeat CPU 0 instructions: 240000002 cycles: 325846070 heartbeat IPC: 0.576629 cumulative IPC: 0.616857 (Simulation time: 0 hr 15 min 13 sec) 
Heartbeat CPU 0 instructions: 250000000 cycles: 334639370 heartbeat IPC: 1.13723 cumulative IPC: 0.6313 (Simulation time: 0 hr 15 min 46 sec) 
Finished CPU 0 instructions: 200000003 cycles: 316806526 cumulative IPC: 0.6313 (Simulation time: 0 hr 15 min 46 sec) 
 Instruction ID: 250000337

ChampSim completed all CPUs

Region of Interest Statistics

CPU 0 cumulative IPC: 0.6313 instructions: 200000003 cycles: 316806526
ITLB SPEC fills:          0  NON-SPEC fills:          0
ITLB Test counter :          0
ITLB Leapfrog:          0
ITLB MSHR merge:          0
ITLB TOTAL     ACCESS:   29627152  HIT:   29626981  MISS:        171  HIT %:    99.9994  MISS %: 0.000577173   MPKI: 0.000855
ITLB LOAD TRANSLATION NON_SPEC    ACCESS:   29627152  HIT:   29626981  MISS:        171  HIT %:    99.9994  MISS %: 0.000577173   MPKI: 0.000855
ITLB PREFETCH  REQUESTED:          0  ISSUED:          0  USEFUL:          0  USELESS:          0
ITLB USEFUL LOAD PREFETCHES:          0 PREFETCH ISSUED TO LOWER LEVEL:          0  ACCURACY: -nan
ITLB TIMELY PREFETCHES:          0 LATE PREFETCHES: 0 DROPPED PREFETCHES: 0
ITLB COMMIT LATE PREFETCHES: 0 MISSED OPPORTUNITY: 0 LATE IN PQ: 0 UNCOVERED: 0
ITLB COMMIT LATE MSHR PREFETCHES: 0
ITLB MPKI TOTAL: 0 MSHR LATE: 0 PQ LATE: 0 COMMIT LATE: 0 MISSED OPPORTUNITY: 0 UNCOVERED: 0
ITLB PREFETCHES SAME FILL-ORIGIN LEVEL: 0 DIFFERENT FILL-ORIGIN LEVEL: 0
ITLB AVERAGE MISS LATENCY: 344.339 cycles
ITLB AVERAGE MISS LATENCY LOAD: -nan cycles
ITLB AVERAGE MISS LATENCY PREFETCH: -nan cycles
ITLB AVERAGE MSHR OCCUPANCY: 2.26143e-06
ITLB MSHR FULL: 0
ITLB RQ	ACCESS:   35758645	FORWARD:          0	MERGED:    6131437	TO_CACHE:   29627208

DTLB SPEC fills:          0  NON-SPEC fills:          0
DTLB Test counter :          0
DTLB Leapfrog:          0
DTLB MSHR merge:          0
DTLB TOTAL     ACCESS:   46081739  HIT:   45898045  MISS:     183694  HIT %:    99.6014  MISS %:   0.398626   MPKI: 0.91847
DTLB LOAD TRANSLATION NON_SPEC    ACCESS:   46081739  HIT:   45898045  MISS:     183694  HIT %:    99.6014  MISS %:   0.398626   MPKI: 0.91847
DTLB PREFETCH  REQUESTED:          0  ISSUED:          0  USEFUL:          0  USELESS:          0
DTLB USEFUL LOAD PREFETCHES:          0 PREFETCH ISSUED TO LOWER LEVEL:          0  ACCURACY: -nan
DTLB TIMELY PREFETCHES:          0 LATE PREFETCHES: 0 DROPPED PREFETCHES: 0
DTLB COMMIT LATE PREFETCHES: 0 MISSED OPPORTUNITY: 0 LATE IN PQ: 0 UNCOVERED: 0
DTLB COMMIT LATE MSHR PREFETCHES: 0
DTLB MPKI TOTAL: 0 MSHR LATE: 0 PQ LATE: 0 COMMIT LATE: 0 MISSED OPPORTUNITY: 0 UNCOVERED: 0
DTLB PREFETCHES SAME FILL-ORIGIN LEVEL: 0 DIFFERENT FILL-ORIGIN LEVEL: 0
DTLB AVERAGE MISS LATENCY: 34.2495 cycles
DTLB AVERAGE MISS LATENCY LOAD: -nan cycles
DTLB AVERAGE MISS LATENCY PREFETCH: -nan cycles
DTLB AVERAGE MSHR OCCUPANCY: 0.0318776
DTLB MSHR FULL: 0.00151163
DTLB RQ	ACCESS:   53726682	FORWARD:          0	MERGED:    7576284	TO_CACHE:   46150398

STLB SPEC fills:          0  NON-SPEC fills:          0
STLB Test counter :          0
STLB Leapfrog:          0
STLB MSHR merge:          0
STLB TOTAL     ACCESS:     183865  HIT:     156261  MISS:      27604  HIT %:    84.9868  MISS %:    15.0132   MPKI: 0.13802
STLB LOAD TRANSLATION NON_SPEC    ACCESS:     183865  HIT:     156261  MISS:      27604  HIT %:    84.9868  MISS %:    15.0132   MPKI: 0.13802
STLB PREFETCH  REQUESTED:          0  ISSUED:          0  USEFUL:          0  USELESS:          0
STLB USEFUL LOAD PREFETCHES:          0 PREFETCH ISSUED TO LOWER LEVEL:          0  ACCURACY: -nan
STLB TIMELY PREFETCHES:          0 LATE PREFETCHES: 0 DROPPED PREFETCHES: 0
STLB COMMIT LATE PREFETCHES: 0 MISSED OPPORTUNITY: 0 LATE IN PQ: 0 UNCOVERED: 0
STLB COMMIT LATE MSHR PREFETCHES: 0
STLB MPKI TOTAL: 0 MSHR LATE: 0 PQ LATE: 0 COMMIT LATE: 0 MISSED OPPORTUNITY: 0 UNCOVERED: 0
STLB PREFETCHES SAME FILL-ORIGIN LEVEL: 0 DIFFERENT FILL-ORIGIN LEVEL: 0
STLB AVERAGE MISS LATENCY: 169.424 cycles
STLB AVERAGE MISS LATENCY LOAD: -nan cycles
STLB AVERAGE MISS LATENCY PREFETCH: -nan cycles
STLB AVERAGE MSHR OCCUPANCY: 0.0823648
STLB MSHR FULL: 0
STLB RQ	ACCESS:     183865	FORWARD:          0	MERGED:          0	TO_CACHE:     183865

STLB Hit, L1D data hit: 0
STLB Hit, L2C data hit: 0
STLB Hit, LLC data hit: 0
STLB Hit, LLC data miss: 0
STLB STLB hints to L2: 0
L0D SPEC fills:   23708842  NON-SPEC fills:          0
L0D TimeGuard Request with older TS:     826978 Restricted eviction:     523752 read:    1165642
L0D Test counter :          0
L0D Leapfrog:          0
L0D MSHR merge:    4432019
L0D TOTAL     ACCESS:   38439368  HIT:   10324208  MISS:   28115160  HIT %:    26.8584  MISS %:    73.1416   MPKI: 140.576
L0D LOAD      TOTAL       ACCESS:   38439368  HIT:   10324208  MISS:   28115160  HIT %:    26.8584  MISS %:    73.1416   MPKI: 140.576
L0D LOAD      NON_SPEC    ACCESS:    4378273  HIT:     495377  MISS:    3882896  HIT %:    11.3144  MISS %:    88.6856   MPKI: 19.4145
L0D LOAD      SPEC        ACCESS:   34061095  HIT:    9828831  MISS:   24232264  HIT %:    28.8565  MISS %:    71.1435   MPKI: 121.161
L0D PREFETCH  REQUESTED:          0  ISSUED:          0  USEFUL:          0  USELESS:          0
L0D USEFUL LOAD PREFETCHES:          0 PREFETCH ISSUED TO LOWER LEVEL:          0  ACCURACY: -nan
L0D TIMELY PREFETCHES:          0 LATE PREFETCHES: 0 DROPPED PREFETCHES: 0
L0D COMMIT LATE PREFETCHES: 0 MISSED OPPORTUNITY: 0 LATE IN PQ: 0 UNCOVERED: 0
L0D COMMIT LATE MSHR PREFETCHES: 0
L0D MPKI TOTAL: 162.736 MSHR LATE: 0 PQ LATE: 0 COMMIT LATE: 0 MISSED OPPORTUNITY: 0 UNCOVERED: 0
L0D PREFETCHES SAME FILL-ORIGIN LEVEL: 0 DIFFERENT FILL-ORIGIN LEVEL: 0
L0D AVERAGE MISS LATENCY: 23.4063 cycles
L0D AVERAGE MISS LATENCY LOAD: 23.4063 cycles
L0D AVERAGE MISS LATENCY PREFETCH: -nan cycles
L0D AVERAGE MSHR OCCUPANCY: 3.83557
L0D MSHR FULL: 0.296803
L0D RQ	ACCESS:   58820973	FORWARD:          0	MERGED:   15949586	TO_CACHE:   42871387
L0D WQ	ACCESS:   10855295	FORWARD:          0	MERGED:          0	TO_CACHE:   10855295

L1D SPEC fills:          0  NON-SPEC fills:      93455
L1D Test counter :    2748893
L1D Leapfrog:          0
L1D MSHR merge:      45408
L1D TOTAL     ACCESS:   78854863  HIT:   72583007  MISS:    6271856  HIT %:    92.0463  MISS %:    7.95367   MPKI: 31.3593
L1D LOAD      TOTAL       ACCESS:   28069752  HIT:   25105902  MISS:    2963850  HIT %:    89.4411  MISS %:    10.5589   MPKI: 14.8192
L1D LOAD      NON_SPEC    ACCESS:    3879960  HIT:    3786505  MISS:      93455  HIT %:    97.5913  MISS %:    2.40866   MPKI: 0.467275
L1D LOAD      SPEC        ACCESS:   24189792  HIT:   21319397  MISS:    2870395  HIT %:    88.1339  MISS %:    11.8661   MPKI: 14.352
L1D RFO       NON_SPEC    ACCESS:    7750374  HIT:    7258734  MISS:     491640  HIT %:    93.6566  MISS %:    6.34344   MPKI: 2.4582
L1D COMMIT LOAD NON_SPEC    ACCESS:   20182340  HIT:   20001098  MISS:     181242  HIT %:     99.102  MISS %:   0.898023   MPKI: 0.90621
L1D COMMIT WRITE NON_SPEC    ACCESS:   22852397  HIT:   20217273  MISS:    2635124  HIT %:    88.4689  MISS %:    11.5311   MPKI: 13.1756
L1D PREFETCH  REQUESTED:          0  ISSUED:          0  USEFUL:          0  USELESS:          0
L1D USEFUL LOAD PREFETCHES:          0 PREFETCH ISSUED TO LOWER LEVEL:          0  ACCURACY: -nan
L1D TIMELY PREFETCHES:          0 LATE PREFETCHES: 0 DROPPED PREFETCHES: 0
L1D COMMIT LATE PREFETCHES: 0 MISSED OPPORTUNITY: 0 LATE IN PQ: 0 UNCOVERED: 0
L1D COMMIT LATE MSHR PREFETCHES: 0
L1D MPKI TOTAL: 15.0463 MSHR LATE: 0 PQ LATE: 0 COMMIT LATE: 0 MISSED OPPORTUNITY: 0 UNCOVERED: 0
L1D PREFETCHES SAME FILL-ORIGIN LEVEL: 0 DIFFERENT FILL-ORIGIN LEVEL: 0
L1D AVERAGE MISS LATENCY: 101.435 cycles
L1D AVERAGE MISS LATENCY LOAD: 158.043 cycles
L1D AVERAGE MISS LATENCY PREFETCH: -nan cycles
L1D AVERAGE MSHR OCCUPANCY: 0.906525
L1D MSHR FULL: 0.00294366
L1D RQ	ACCESS:   59287682	FORWARD:          0	MERGED:   10572743	TO_CACHE:   48419608
L1D WQ	ACCESS:   32812929	FORWARD:     295331	MERGED:     595333	TO_CACHE:   32217596

L1D UNIQUE REGIONS ACCESSED: 0
L1D REGIONS CONFLICTS: 0
L1D Cross Page Prefetch Requests: 0
L1D Same Page Prefetch Requests: 0
L1D ROI Sum of L1D PQ occupancy: 0
L1D PREFETCHES PUSHED FROM L2C: 0
L1I SPEC fills:          0  NON-SPEC fills:          0
L1I Test counter :          0
L1I Leapfrog:          0
L1I MSHR merge:       2928
L1I TOTAL     ACCESS:   35755716  HIT:   35749553  MISS:       6163  HIT %:    99.9828  MISS %:  0.0172364   MPKI: 0.030815
L1I LOAD      TOTAL       ACCESS:   35755716  HIT:   35749553  MISS:       6163  HIT %:    99.9828  MISS %:  0.0172364   MPKI: 0.030815
L1I LOAD      NON_SPEC    ACCESS:   35755716  HIT:   35749553  MISS:       6163  HIT %:    99.9828  MISS %:  0.0172364   MPKI: 0.030815
L1I PREFETCH  REQUESTED:          0  ISSUED:          0  USEFUL:          0  USELESS:          0
L1I USEFUL LOAD PREFETCHES:          0 PREFETCH ISSUED TO LOWER LEVEL:          0  ACCURACY: -nan
L1I TIMELY PREFETCHES:          0 LATE PREFETCHES: 0 DROPPED PREFETCHES: 0
L1I COMMIT LATE PREFETCHES: 0 MISSED OPPORTUNITY: 0 LATE IN PQ: 0 UNCOVERED: 0
L1I COMMIT LATE MSHR PREFETCHES: 0
L1I MPKI TOTAL: 0.045455 MSHR LATE: 0 PQ LATE: 0 COMMIT LATE: 0 MISSED OPPORTUNITY: 0 UNCOVERED: 0
L1I PREFETCHES SAME FILL-ORIGIN LEVEL: 0 DIFFERENT FILL-ORIGIN LEVEL: 0
L1I AVERAGE MISS LATENCY: 251.852 cycles
L1I AVERAGE MISS LATENCY LOAD: 251.852 cycles
L1I AVERAGE MISS LATENCY PREFETCH: -nan cycles
L1I AVERAGE MSHR OCCUPANCY: 0.000225204
L1I MSHR FULL: 0
L1I RQ	ACCESS:   53070206	FORWARD:          0	MERGED:   17311561	TO_CACHE:   35758645

BTB SPEC fills:          0  NON-SPEC fills:          0
BTB Test counter :          0
BTB Leapfrog:          0
BTB MSHR merge:          0
BTB TOTAL     ACCESS:    9141040  HIT:    9133643  MISS:       7397  HIT %:    99.9191  MISS %:  0.0809208   MPKI: 0.036985
BTB BRANCH_DIRECT_JUMP	ACCESS:     290387  HIT:     290283  MISS:        104
BTB BRANCH_INDIRECT	ACCESS:         12  HIT:          8  MISS:          4
BTB BRANCH_CONDITIONAL	ACCESS:    8250540  HIT:    8249665  MISS:        875
BTB BRANCH_DIRECT_CALL	ACCESS:     300051  HIT:     299561  MISS:        490
BTB BRANCH_INDIRECT_CALL	ACCESS:          0  HIT:          0  MISS:          0
BTB BRANCH_RETURN	ACCESS:     300050  HIT:     294126  MISS:       5924
BTB BRANCH_OTHER ACCESS:          0  HIT:          0  MISS:          0

L2C SPEC fills:          0  NON-SPEC fills:      72109
L2C Test counter :    2064808
L2C Leapfrog:          0
L2C MSHR merge:          0
L2C TOTAL     ACCESS:    7058123  HIT:    2411153  MISS:    4646970  HIT %:    34.1614  MISS %:    65.8386   MPKI: 23.2348
L2C LOAD      TOTAL       ACCESS:    2969162  HIT:     768192  MISS:    2200970  HIT %:    25.8724  MISS %:    74.1276   MPKI: 11.0048
L2C LOAD      NON_SPEC    ACCESS:      99616  HIT:      21344  MISS:      78272  HIT %:    21.4263  MISS %:    78.5737   MPKI: 0.39136
L2C LOAD      SPEC        ACCESS:    2869546  HIT:     746848  MISS:    2122698  HIT %:    26.0267  MISS %:    73.9733   MPKI: 10.6135
L2C RFO       NON_SPEC    ACCESS:     491621  HIT:     133900  MISS:     357721  HIT %:    27.2364  MISS %:    72.7636   MPKI: 1.7886
L2C WRITEBACK NON_SPEC    ACCESS:     529806  HIT:     528039  MISS:       1767  HIT %:    99.6665  MISS %:   0.333518   MPKI: 0.008835
L2C CLEAN_EVICTION NON_SPEC    ACCESS:    2748871  HIT:     770710  MISS:    1978161  HIT %:    28.0373  MISS %:    71.9627   MPKI: 9.8908
L2C COMMIT LOAD NON_SPEC    ACCESS:     180652  HIT:      77268  MISS:     103384  HIT %:    42.7717  MISS %:    57.2283   MPKI: 0.51692
L2C LOAD TRANSLATION NON_SPEC    ACCESS:     138011  HIT:     133044  MISS:       4967  HIT %:     96.401  MISS %:    3.59899   MPKI: 0.024835
L2C PREFETCH  REQUESTED:          0  ISSUED:          0  USEFUL:          0  USELESS:          0
L2C USEFUL LOAD PREFETCHES:          0 PREFETCH ISSUED TO LOWER LEVEL:          0  ACCURACY: -nan
L2C TIMELY PREFETCHES:          0 LATE PREFETCHES: 0 DROPPED PREFETCHES: 0
L2C COMMIT LATE PREFETCHES: 0 MISSED OPPORTUNITY: 0 LATE IN PQ: 0 UNCOVERED: 0
L2C COMMIT LATE MSHR PREFETCHES: 0
L2C MPKI TOTAL: 11.0048 MSHR LATE: 0 PQ LATE: 0 COMMIT LATE: 0 MISSED OPPORTUNITY: 0 UNCOVERED: 0
L2C PREFETCHES SAME FILL-ORIGIN LEVEL: 0 DIFFERENT FILL-ORIGIN LEVEL: 0
L2C AVERAGE MISS LATENCY: 128.231 cycles
L2C AVERAGE MISS LATENCY LOAD: 198.44 cycles
L2C AVERAGE MISS LATENCY PREFETCH: -nan cycles
L2C AVERAGE MSHR OCCUPANCY: 2.36909
L2C MSHR FULL: 0
L2C RQ	ACCESS:    3780906	FORWARD:          0	MERGED:          0	TO_CACHE:    3779446
L2C WQ	ACCESS:    3278775	FORWARD:       1460	MERGED:         98	TO_CACHE:    3278677

L2C Instructions Evicting Data 6138
L2C Translations Evicting Data 4951
L2C Data Evicting Data 531339
L2C Instructions Evicting Instructions 10
L2C Translations Evicting Instructions 10
L2C Data Evicting Instructions 1418
L2C Instructions Evicting Translations 15
L2C Translations Evicting Translations 6
L2C Data Evicting Translations 1129
L2C Dense regions hint from L2: 0
PSCL5 SPEC fills:          0  NON-SPEC fills:          0
PSCL5 Test counter :          0
PSCL5 Leapfrog:          0
PSCL5 MSHR merge:          0
PSCL5 TOTAL     ACCESS:          0  HIT:          0  MISS:          0  HIT %:       -nan  MISS %:       -nan   MPKI: 0
PSCL5 PREFETCH  REQUESTED:          0  ISSUED:          0  USEFUL:          0  USELESS:          0
PSCL5 USEFUL LOAD PREFETCHES:          0 PREFETCH ISSUED TO LOWER LEVEL:          0  ACCURACY: -nan
PSCL5 TIMELY PREFETCHES:          0 LATE PREFETCHES: 0 DROPPED PREFETCHES: 0
PSCL5 COMMIT LATE PREFETCHES: 0 MISSED OPPORTUNITY: 0 LATE IN PQ: 0 UNCOVERED: 0
PSCL5 COMMIT LATE MSHR PREFETCHES: 0
PSCL5 MPKI TOTAL: 0 MSHR LATE: 0 PQ LATE: 0 COMMIT LATE: 0 MISSED OPPORTUNITY: 0 UNCOVERED: 0
PSCL5 PREFETCHES SAME FILL-ORIGIN LEVEL: 0 DIFFERENT FILL-ORIGIN LEVEL: 0

PSCL4 SPEC fills:          0  NON-SPEC fills:          0
PSCL4 Test counter :          0
PSCL4 Leapfrog:          0
PSCL4 MSHR merge:          0
PSCL4 TOTAL     ACCESS:          0  HIT:          0  MISS:          0  HIT %:       -nan  MISS %:       -nan   MPKI: 0
PSCL4 PREFETCH  REQUESTED:          0  ISSUED:          0  USEFUL:          0  USELESS:          0
PSCL4 USEFUL LOAD PREFETCHES:          0 PREFETCH ISSUED TO LOWER LEVEL:          0  ACCURACY: -nan
PSCL4 TIMELY PREFETCHES:          0 LATE PREFETCHES: 0 DROPPED PREFETCHES: 0
PSCL4 COMMIT LATE PREFETCHES: 0 MISSED OPPORTUNITY: 0 LATE IN PQ: 0 UNCOVERED: 0
PSCL4 COMMIT LATE MSHR PREFETCHES: 0
PSCL4 MPKI TOTAL: 0 MSHR LATE: 0 PQ LATE: 0 COMMIT LATE: 0 MISSED OPPORTUNITY: 0 UNCOVERED: 0
PSCL4 PREFETCHES SAME FILL-ORIGIN LEVEL: 0 DIFFERENT FILL-ORIGIN LEVEL: 0

PSCL3 SPEC fills:          0  NON-SPEC fills:          0
PSCL3 Test counter :          0
PSCL3 Leapfrog:          0
PSCL3 MSHR merge:          0
PSCL3 TOTAL     ACCESS:          0  HIT:          0  MISS:          0  HIT %:       -nan  MISS %:       -nan   MPKI: 0
PSCL3 PREFETCH  REQUESTED:          0  ISSUED:          0  USEFUL:          0  USELESS:          0
PSCL3 USEFUL LOAD PREFETCHES:          0 PREFETCH ISSUED TO LOWER LEVEL:          0  ACCURACY: -nan
PSCL3 TIMELY PREFETCHES:          0 LATE PREFETCHES: 0 DROPPED PREFETCHES: 0
PSCL3 COMMIT LATE PREFETCHES: 0 MISSED OPPORTUNITY: 0 LATE IN PQ: 0 UNCOVERED: 0
PSCL3 COMMIT LATE MSHR PREFETCHES: 0
PSCL3 MPKI TOTAL: 0 MSHR LATE: 0 PQ LATE: 0 COMMIT LATE: 0 MISSED OPPORTUNITY: 0 UNCOVERED: 0
PSCL3 PREFETCHES SAME FILL-ORIGIN LEVEL: 0 DIFFERENT FILL-ORIGIN LEVEL: 0

PSCL2 SPEC fills:          0  NON-SPEC fills:          0
PSCL2 Test counter :          0
PSCL2 Leapfrog:          0
PSCL2 MSHR merge:          0
PSCL2 TOTAL     ACCESS:          0  HIT:          0  MISS:          0  HIT %:       -nan  MISS %:       -nan   MPKI: 0
PSCL2 PREFETCH  REQUESTED:          0  ISSUED:          0  USEFUL:          0  USELESS:          0
PSCL2 USEFUL LOAD PREFETCHES:          0 PREFETCH ISSUED TO LOWER LEVEL:          0  ACCURACY: -nan
PSCL2 TIMELY PREFETCHES:          0 LATE PREFETCHES: 0 DROPPED PREFETCHES: 0
PSCL2 COMMIT LATE PREFETCHES: 0 MISSED OPPORTUNITY: 0 LATE IN PQ: 0 UNCOVERED: 0
PSCL2 COMMIT LATE MSHR PREFETCHES: 0
PSCL2 MPKI TOTAL: 0 MSHR LATE: 0 PQ LATE: 0 COMMIT LATE: 0 MISSED OPPORTUNITY: 0 UNCOVERED: 0
PSCL2 PREFETCHES SAME FILL-ORIGIN LEVEL: 0 DIFFERENT FILL-ORIGIN LEVEL: 0

LLC SPEC fills:          0  NON-SPEC fills:      48907
LLC Test counter :    1701104
LLC Leapfrog:          0
LLC MSHR merge:          0
LLC TOTAL     ACCESS:    5115223  HIT:    1290787  MISS:    3824436  HIT %:    25.2342  MISS %:    74.7658   MPKI: 19.1222
LLC LOAD      TOTAL       ACCESS:    2200969  HIT:     441975  MISS:    1758994  HIT %:    20.0809  MISS %:    79.9191   MPKI: 8.79497
LLC LOAD      NON_SPEC    ACCESS:      78272  HIT:      23202  MISS:      55070  HIT %:    29.6428  MISS %:    70.3572   MPKI: 0.27535
LLC LOAD      SPEC        ACCESS:    2122697  HIT:     418773  MISS:    1703924  HIT %:    19.7283  MISS %:    80.2717   MPKI: 8.51962
LLC RFO       NON_SPEC    ACCESS:     357721  HIT:      16270  MISS:     341451  HIT %:    4.54824  MISS %:    95.4518   MPKI: 1.70725
LLC WRITEBACK NON_SPEC    ACCESS:     383379  HIT:     380798  MISS:       2581  HIT %:    99.3268  MISS %:   0.673224   MPKI: 0.012905
LLC CLEAN_EVICTION NON_SPEC    ACCESS:    2064808  HIT:     434027  MISS:    1630781  HIT %:    21.0202  MISS %:    78.9798   MPKI: 8.1539
LLC COMMIT LOAD NON_SPEC    ACCESS:     103379  HIT:      17343  MISS:      86036  HIT %:    16.7761  MISS %:    83.2239   MPKI: 0.43018
LLC LOAD TRANSLATION NON_SPEC    ACCESS:       4967  HIT:        374  MISS:       4593  HIT %:     7.5297  MISS %:    92.4703   MPKI: 0.022965
LLC PREFETCH  REQUESTED:          0  ISSUED:          0  USEFUL:          0  USELESS:          0
LLC USEFUL LOAD PREFETCHES:          0 PREFETCH ISSUED TO LOWER LEVEL:          0  ACCURACY: -nan
LLC TIMELY PREFETCHES:          0 LATE PREFETCHES: 0 DROPPED PREFETCHES: 0
LLC COMMIT LATE PREFETCHES: 0 MISSED OPPORTUNITY: 0 LATE IN PQ: 0 UNCOVERED: 0
LLC COMMIT LATE MSHR PREFETCHES: 0
LLC MPKI TOTAL: 8.79497 MSHR LATE: 0 PQ LATE: 0 COMMIT LATE: 0 MISSED OPPORTUNITY: 0 UNCOVERED: 0
LLC PREFETCHES SAME FILL-ORIGIN LEVEL: 0 DIFFERENT FILL-ORIGIN LEVEL: 0
LLC AVERAGE MISS LATENCY: 139.83 cycles
LLC AVERAGE MISS LATENCY LOAD: 221.583 cycles
LLC AVERAGE MISS LATENCY PREFETCH: -nan cycles
LLC AVERAGE MSHR OCCUPANCY: 2.31741
LLC MSHR FULL: 0
LLC RQ	ACCESS:    2667042	FORWARD:          0	MERGED:          0	TO_CACHE:    2667036
LLC WQ	ACCESS:    2448187	FORWARD:          6	MERGED:          0	TO_CACHE:    2448187

LLC Dense regions hint to LLC: 0

RAW hits: 294306
Loads Generated: 59115289
Loads sent to L1D: 58820973
Stores Generated: 10855291
Stores sent to L1D: 10855295
Major fault: 0 Minor fault: 10671
Allocated PAGES: 10671
Total Load insts: 73448864
Total Non-spec loads: 5331634
Percentage of speculative loads: 92.741

LeapFrogging counter: 4752593
Commit hits: 22943985 miss: 31172521
Commit hit %: 42.3974 miss %: 57.6026
Commits not translated: 0
Loads retired: 2963850
Stores retired: 10855295
Cache fills: 2963850
L1D response latency: 158.043 cycles
Load retirement latency: 336.292 cycles
OOO test counter: 0
Discarded buffer inserts: 22943985 hits: 38759 hit %: 0.168929

DRAM Statistics
 CHANNEL 0
 RQ ROW_BUFFER_HIT:     302210  ROW_BUFFER_MISS:    1888716
 DBUS_CONGESTED:        796
 WQ ROW_BUFFER_HIT:     694912  ROW_BUFFER_MISS:    1359008  FULL:      94745

 AVG_CONGESTED_CYCLE: 5
 All warmup complete: 2
Channel 0 Bank busy for read cycles: 0
Channel 0 Bank busy for write cycles: 0
Channel 0
Rank 0
0banks busy for read cycles: 86847098
0banks busy for write cycles: 145482
1banks busy for read cycles: 59139496
1banks busy for write cycles: 20961344
2banks busy for read cycles: 41224434
2banks busy for write cycles: 9730409
3banks busy for read cycles: 19340548
3banks busy for write cycles: 5465109
4banks busy for read cycles: 11759440
4banks busy for write cycles: 4030317
5banks busy for read cycles: 6092173
5banks busy for write cycles: 3316019
6banks busy for read cycles: 1951486
6banks busy for write cycles: 3218136
7banks busy for read cycles: 994752
7banks busy for write cycles: 6067124
8banks busy for read cycles: 1161394
8banks busy for write cycles: 35361766

CPU 0 Branch Prediction Accuracy: 99.8685% MPKI: 0.079065 Average ROB Occupancy at Mispredict: 195.407
Branch types
NOT_BRANCH: 187976581 93.9883%
BRANCH_DIRECT_JUMP: 290387 0.145193%
BRANCH_INDIRECT: 12 6e-06%
BRANCH_CONDITIONAL: 11132883 5.56644%
BRANCH_DIRECT_CALL: 300051 0.150025%
BRANCH_INDIRECT_CALL: 0 0%
BRANCH_RETURN: 300050 0.150025%
BRANCH_OTHER: 0 0%

DRAM PAGES: 1048576
Allocated PAGES: 10671
