
*** ChampSim Multicore Out-of-Order Simulator ***

Warmup Instructions: 50000000
Simulation Instructions: 200000000
Number of CPUs: 1
LLC sets: 2048
LLC ways: 16
L0D sets: 16
L0D ways: 2
ROB size: 352
LQ size: 128
SQ size: 72
Secure Berti: OFF
Berti: OFF
Berti Fill: OFF
On commit prefetching: OFF
Hit-based filter: OFF
Time-guarding: ON
Free-slotting: ON
Leap-frogging: ON
Train prefetcher on L0D bypass: OFF
No translation penalty for prefetchers: OFF
Prefetch to L0D only: OFF
Prefetch to L1D only: OFF
Clean evictions: ON
Commit loads: ON
Commit write: ON
Fill commit loads to L2C, LLC: ON
DRAM IO FREQUENCY: 6400
ROB SIZE: 352
Off-chip DRAM Size: 4096 MB Channels: 1 Width: 64-bit Data Rate: 6400 MT/s
CPU 0 runs /home/sumon/secure_berti/GhostMinion/../../traces/spec/649.fotonik3d_s-10881B.champsimtrace.xz
.xz
BTB has LRU replacement policy
ITLB has LRU replacement policy
DTLB has LRU replacement policy
STLB has LRU replacement policy
L1I has LRU replacement policy
L0D has LRU replacement policy
L1D has LRU replacement policy
L2C has LRU replacement policy
LLC has LRU replacement policy
Heartbeat CPU 0 instructions: 10000000 cycles: 5638969 heartbeat IPC: 1.77337 cumulative IPC: 1.77337 (Simulation time: 0 hr 0 min 51 sec) 
Heartbeat CPU 0 instructions: 20000000 cycles: 11264158 heartbeat IPC: 1.77772 cumulative IPC: 1.77554 (Simulation time: 0 hr 1 min 43 sec) 
Heartbeat CPU 0 instructions: 30000000 cycles: 16891955 heartbeat IPC: 1.77689 cumulative IPC: 1.77599 (Simulation time: 0 hr 2 min 34 sec) 
Heartbeat CPU 0 instructions: 40000002 cycles: 22519205 heartbeat IPC: 1.77707 cumulative IPC: 1.77626 (Simulation time: 0 hr 3 min 27 sec) 
Heartbeat CPU 0 instructions: 50000002 cycles: 28147810 heartbeat IPC: 1.77664 cumulative IPC: 1.77634 (Simulation time: 0 hr 4 min 19 sec) 

Warmup complete CPU 0 instructions: 50000002 cycles: 28147810 (Simulation time: 0 hr 4 min 19 sec) 

Heartbeat CPU 0 instructions: 60000000 cycles: 49940384 heartbeat IPC: 0.458872 cumulative IPC: 0.458872 (Simulation time: 0 hr 5 min 32 sec) 
Heartbeat CPU 0 instructions: 70000002 cycles: 71819426 heartbeat IPC: 0.457058 cumulative IPC: 0.457963 (Simulation time: 0 hr 6 min 46 sec) 
Heartbeat CPU 0 instructions: 80000003 cycles: 93757871 heartbeat IPC: 0.455821 cumulative IPC: 0.457247 (Simulation time: 0 hr 8 min 0 sec) 
Heartbeat CPU 0 instructions: 90000003 cycles: 115647896 heartbeat IPC: 0.456829 cumulative IPC: 0.457142 (Simulation time: 0 hr 9 min 15 sec) 
Heartbeat CPU 0 instructions: 100000003 cycles: 137530337 heartbeat IPC: 0.456987 cumulative IPC: 0.457111 (Simulation time: 0 hr 10 min 31 sec) 
Heartbeat CPU 0 instructions: 110000000 cycles: 159353919 heartbeat IPC: 0.45822 cumulative IPC: 0.457296 (Simulation time: 0 hr 11 min 47 sec) 
Heartbeat CPU 0 instructions: 120000003 cycles: 181359623 heartbeat IPC: 0.454428 cumulative IPC: 0.456884 (Simulation time: 0 hr 13 min 3 sec) 
Heartbeat CPU 0 instructions: 130000001 cycles: 203281292 heartbeat IPC: 0.45617 cumulative IPC: 0.456794 (Simulation time: 0 hr 14 min 19 sec) 
Heartbeat CPU 0 instructions: 140000002 cycles: 225218777 heartbeat IPC: 0.455841 cumulative IPC: 0.456688 (Simulation time: 0 hr 15 min 33 sec) 
Heartbeat CPU 0 instructions: 150000003 cycles: 247127757 heartbeat IPC: 0.456434 cumulative IPC: 0.456663 (Simulation time: 0 hr 16 min 41 sec) 
Heartbeat CPU 0 instructions: 160000001 cycles: 269000917 heartbeat IPC: 0.457181 cumulative IPC: 0.45671 (Simulation time: 0 hr 17 min 45 sec) 
Heartbeat CPU 0 instructions: 170000003 cycles: 290978739 heartbeat IPC: 0.455004 cumulative IPC: 0.456567 (Simulation time: 0 hr 18 min 46 sec) 
Heartbeat CPU 0 instructions: 180000000 cycles: 312834542 heartbeat IPC: 0.457544 cumulative IPC: 0.456642 (Simulation time: 0 hr 19 min 47 sec) 
Heartbeat CPU 0 instructions: 190000002 cycles: 334683726 heartbeat IPC: 0.457683 cumulative IPC: 0.456716 (Simulation time: 0 hr 20 min 46 sec) 
Heartbeat CPU 0 instructions: 200000002 cycles: 356645527 heartbeat IPC: 0.455336 cumulative IPC: 0.456624 (Simulation time: 0 hr 21 min 43 sec) 
Heartbeat CPU 0 instructions: 210000003 cycles: 378571604 heartbeat IPC: 0.456078 cumulative IPC: 0.45659 (Simulation time: 0 hr 22 min 41 sec) 
Heartbeat CPU 0 instructions: 220000000 cycles: 400483722 heartbeat IPC: 0.456368 cumulative IPC: 0.456577 (Simulation time: 0 hr 23 min 39 sec) 
Heartbeat CPU 0 instructions: 230000001 cycles: 422358173 heartbeat IPC: 0.457154 cumulative IPC: 0.456609 (Simulation time: 0 hr 24 min 36 sec) 
Heartbeat CPU 0 instructions: 240000002 cycles: 444294512 heartbeat IPC: 0.455865 cumulative IPC: 0.45657 (Simulation time: 0 hr 25 min 33 sec) 
Heartbeat CPU 0 instructions: 250000000 cycles: 466252830 heartbeat IPC: 0.455408 cumulative IPC: 0.456512 (Simulation time: 0 hr 26 min 29 sec) 
Finished CPU 0 instructions: 200000002 cycles: 438105021 cumulative IPC: 0.456512 (Simulation time: 0 hr 26 min 29 sec) 
 Instruction ID: 250000353

ChampSim completed all CPUs

Region of Interest Statistics

CPU 0 cumulative IPC: 0.456512 instructions: 200000002 cycles: 438105021
ITLB SPEC fills:          0  NON-SPEC fills:          0
ITLB Test counter :          0
ITLB Leapfrog:          0
ITLB MSHR merge:          0
ITLB TOTAL     ACCESS:   28386438  HIT:   28386438  MISS:          0  HIT %:        100  MISS %:          0   MPKI: 0
ITLB LOAD TRANSLATION NON_SPEC    ACCESS:   28386438  HIT:   28386438  MISS:          0  HIT %:        100  MISS %:          0   MPKI: 0
ITLB PREFETCH  REQUESTED:          0  ISSUED:          0  USEFUL:          0  USELESS:          0
ITLB USEFUL LOAD PREFETCHES:          0 PREFETCH ISSUED TO LOWER LEVEL:          0  ACCURACY: -nan
ITLB TIMELY PREFETCHES:          0 LATE PREFETCHES: 0 DROPPED PREFETCHES: 0
ITLB COMMIT LATE PREFETCHES: 0 MISSED OPPORTUNITY: 0 LATE IN PQ: 0 UNCOVERED: 0
ITLB COMMIT LATE MSHR PREFETCHES: 0
ITLB MPKI TOTAL: 0 MSHR LATE: 0 PQ LATE: 0 COMMIT LATE: 0 MISSED OPPORTUNITY: 0 UNCOVERED: 0
ITLB PREFETCHES SAME FILL-ORIGIN LEVEL: 0 DIFFERENT FILL-ORIGIN LEVEL: 0
ITLB AVERAGE MISS LATENCY: -nan cycles
ITLB AVERAGE MISS LATENCY LOAD: -nan cycles
ITLB AVERAGE MISS LATENCY PREFETCH: -nan cycles
ITLB AVERAGE MSHR OCCUPANCY: 0
ITLB MSHR FULL: 0
ITLB RQ	ACCESS:   29935172	FORWARD:          0	MERGED:    1548734	TO_CACHE:   28386438

DTLB SPEC fills:          0  NON-SPEC fills:          0
DTLB Test counter :          0
DTLB Leapfrog:          0
DTLB MSHR merge:          0
DTLB TOTAL     ACCESS:   93787476  HIT:   92759172  MISS:    1028304  HIT %:    98.9036  MISS %:    1.09642   MPKI: 5.14152
DTLB LOAD TRANSLATION NON_SPEC    ACCESS:   93787476  HIT:   92759172  MISS:    1028304  HIT %:    98.9036  MISS %:    1.09642   MPKI: 5.14152
DTLB PREFETCH  REQUESTED:          0  ISSUED:          0  USEFUL:          0  USELESS:          0
DTLB USEFUL LOAD PREFETCHES:          0 PREFETCH ISSUED TO LOWER LEVEL:          0  ACCURACY: -nan
DTLB TIMELY PREFETCHES:          0 LATE PREFETCHES: 0 DROPPED PREFETCHES: 0
DTLB COMMIT LATE PREFETCHES: 0 MISSED OPPORTUNITY: 0 LATE IN PQ: 0 UNCOVERED: 0
DTLB COMMIT LATE MSHR PREFETCHES: 0
DTLB MPKI TOTAL: 0 MSHR LATE: 0 PQ LATE: 0 COMMIT LATE: 0 MISSED OPPORTUNITY: 0 UNCOVERED: 0
DTLB PREFETCHES SAME FILL-ORIGIN LEVEL: 0 DIFFERENT FILL-ORIGIN LEVEL: 0
DTLB AVERAGE MISS LATENCY: 267.986 cycles
DTLB AVERAGE MISS LATENCY LOAD: -nan cycles
DTLB AVERAGE MISS LATENCY PREFETCH: -nan cycles
DTLB AVERAGE MSHR OCCUPANCY: 0.224359
DTLB MSHR FULL: 0.000576137
DTLB RQ	ACCESS:  109209117	FORWARD:          0	MERGED:   15357265	TO_CACHE:   93851852

STLB SPEC fills:          0  NON-SPEC fills:          0
STLB Test counter :          0
STLB Leapfrog:          0
STLB MSHR merge:          0
STLB TOTAL     ACCESS:    1028304  HIT:     349101  MISS:     679203  HIT %:    33.9492  MISS %:    66.0508   MPKI: 3.39601
STLB LOAD TRANSLATION NON_SPEC    ACCESS:    1028304  HIT:     349101  MISS:     679203  HIT %:    33.9492  MISS %:    66.0508   MPKI: 3.39601
STLB PREFETCH  REQUESTED:          0  ISSUED:          0  USEFUL:          0  USELESS:          0
STLB USEFUL LOAD PREFETCHES:          0 PREFETCH ISSUED TO LOWER LEVEL:          0  ACCURACY: -nan
STLB TIMELY PREFETCHES:          0 LATE PREFETCHES: 0 DROPPED PREFETCHES: 0
STLB COMMIT LATE PREFETCHES: 0 MISSED OPPORTUNITY: 0 LATE IN PQ: 0 UNCOVERED: 0
STLB COMMIT LATE MSHR PREFETCHES: 0
STLB MPKI TOTAL: 0 MSHR LATE: 0 PQ LATE: 0 COMMIT LATE: 0 MISSED OPPORTUNITY: 0 UNCOVERED: 0
STLB PREFETCHES SAME FILL-ORIGIN LEVEL: 0 DIFFERENT FILL-ORIGIN LEVEL: 0
STLB AVERAGE MISS LATENCY: 391.385 cycles
STLB AVERAGE MISS LATENCY LOAD: -nan cycles
STLB AVERAGE MISS LATENCY PREFETCH: -nan cycles
STLB AVERAGE MSHR OCCUPANCY: 1.06421
STLB MSHR FULL: 0
STLB RQ	ACCESS:    1028304	FORWARD:          0	MERGED:          0	TO_CACHE:    1028304

STLB Hit, L1D data hit: 0
STLB Hit, L2C data hit: 0
STLB Hit, LLC data hit: 0
STLB Hit, LLC data miss: 0
STLB STLB hints to L2: 0
L0D SPEC fills:   52756863  NON-SPEC fills:          0
L0D TimeGuard Request with older TS:    8496547 Restricted eviction:    5369102 read:    2241516
L0D Test counter :          0
L0D Leapfrog:          0
L0D MSHR merge:    6273193
L0D TOTAL     ACCESS:   90113305  HIT:   27991283  MISS:   62122022  HIT %:    31.0623  MISS %:    68.9377   MPKI: 310.61
L0D LOAD      TOTAL       ACCESS:   90113305  HIT:   27991283  MISS:   62122022  HIT %:    31.0623  MISS %:    68.9377   MPKI: 310.61
L0D LOAD      NON_SPEC    ACCESS:    5498693  HIT:    1502573  MISS:    3996120  HIT %:     27.326  MISS %:     72.674   MPKI: 19.9806
L0D LOAD      SPEC        ACCESS:   84614612  HIT:   26488710  MISS:   58125902  HIT %:    31.3051  MISS %:    68.6949   MPKI: 290.63
L0D PREFETCH  REQUESTED:          0  ISSUED:          0  USEFUL:          0  USELESS:          0
L0D USEFUL LOAD PREFETCHES:          0 PREFETCH ISSUED TO LOWER LEVEL:          0  ACCURACY: -nan
L0D TIMELY PREFETCHES:          0 LATE PREFETCHES: 0 DROPPED PREFETCHES: 0
L0D COMMIT LATE PREFETCHES: 0 MISSED OPPORTUNITY: 0 LATE IN PQ: 0 UNCOVERED: 0
L0D COMMIT LATE MSHR PREFETCHES: 0
L0D MPKI TOTAL: 341.976 MSHR LATE: 0 PQ LATE: 0 COMMIT LATE: 0 MISSED OPPORTUNITY: 0 UNCOVERED: 0
L0D PREFETCHES SAME FILL-ORIGIN LEVEL: 0 DIFFERENT FILL-ORIGIN LEVEL: 0
L0D AVERAGE MISS LATENCY: 17.3882 cycles
L0D AVERAGE MISS LATENCY LOAD: 17.3882 cycles
L0D AVERAGE MISS LATENCY PREFETCH: -nan cycles
L0D AVERAGE MSHR OCCUPANCY: 3.78872
L0D MSHR FULL: 0.11176
L0D RQ	ACCESS:  127605171	FORWARD:          0	MERGED:   31218671	TO_CACHE:   96386500
L0D WQ	ACCESS:   12822617	FORWARD:          0	MERGED:          0	TO_CACHE:   12822617

L1D SPEC fills:          0  NON-SPEC fills:     112137
L1D Test counter :    3820632
L1D Leapfrog:          0
L1D MSHR merge:     201304
L1D TOTAL     ACCESS:  170211543  HIT:  162384732  MISS:    7826811  HIT %:    95.4017  MISS %:    4.59828   MPKI: 39.1341
L1D LOAD      TOTAL       ACCESS:   61920718  HIT:   57907739  MISS:    4012979  HIT %:    93.5192  MISS %:    6.48083   MPKI: 20.0649
L1D LOAD      NON_SPEC    ACCESS:    3993998  HIT:    3881861  MISS:     112137  HIT %:    97.1924  MISS %:    2.80764   MPKI: 0.560685
L1D LOAD      SPEC        ACCESS:   57926720  HIT:   54025878  MISS:    3900842  HIT %:    93.2659  MISS %:     6.7341   MPKI: 19.5042
L1D RFO       NON_SPEC    ACCESS:   10276883  HIT:   10275910  MISS:        973  HIT %:    99.9905  MISS %: 0.00946785   MPKI: 0.004865
L1D COMMIT LOAD NON_SPEC    ACCESS:   53125281  HIT:   52808034  MISS:     317247  HIT %:    99.4028  MISS %:   0.597168   MPKI: 1.58623
L1D COMMIT WRITE NON_SPEC    ACCESS:   44888661  HIT:   41393049  MISS:    3495612  HIT %:    92.2127  MISS %:    7.78729   MPKI: 17.4781
L1D PREFETCH  REQUESTED:          0  ISSUED:          0  USEFUL:          0  USELESS:          0
L1D USEFUL LOAD PREFETCHES:          0 PREFETCH ISSUED TO LOWER LEVEL:          0  ACCURACY: -nan
L1D TIMELY PREFETCHES:          0 LATE PREFETCHES: 0 DROPPED PREFETCHES: 0
L1D COMMIT LATE PREFETCHES: 0 MISSED OPPORTUNITY: 0 LATE IN PQ: 0 UNCOVERED: 0
L1D COMMIT LATE MSHR PREFETCHES: 0
L1D MPKI TOTAL: 21.0714 MSHR LATE: 0 PQ LATE: 0 COMMIT LATE: 0 MISSED OPPORTUNITY: 0 UNCOVERED: 0
L1D PREFETCHES SAME FILL-ORIGIN LEVEL: 0 DIFFERENT FILL-ORIGIN LEVEL: 0
L1D AVERAGE MISS LATENCY: 88.2212 cycles
L1D AVERAGE MISS LATENCY LOAD: 162.479 cycles
L1D AVERAGE MISS LATENCY PREFETCH: -nan cycles
L1D AVERAGE MSHR OCCUPANCY: 1.08381
L1D MSHR FULL: 0
L1D RQ	ACCESS:  139047787	FORWARD:          0	MERGED:   22782516	TO_CACHE:  115354087
L1D WQ	ACCESS:   57744469	FORWARD:     911184	MERGED:    2418431	TO_CACHE:   55326038

L1D UNIQUE REGIONS ACCESSED: 0
L1D REGIONS CONFLICTS: 0
L1D Cross Page Prefetch Requests: 0
L1D Same Page Prefetch Requests: 0
L1D ROI Sum of L1D PQ occupancy: 0
L1D PREFETCHES PUSHED FROM L2C: 0
L1I SPEC fills:          0  NON-SPEC fills:          0
L1I Test counter :          0
L1I Leapfrog:          0
L1I MSHR merge:          0
L1I TOTAL     ACCESS:   29935170  HIT:   29935170  MISS:          0  HIT %:        100  MISS %:          0   MPKI: 0
L1I LOAD      TOTAL       ACCESS:   29935170  HIT:   29935170  MISS:          0  HIT %:        100  MISS %:          0   MPKI: 0
L1I LOAD      NON_SPEC    ACCESS:   29935170  HIT:   29935170  MISS:          0  HIT %:        100  MISS %:          0   MPKI: 0
L1I PREFETCH  REQUESTED:          0  ISSUED:          0  USEFUL:          0  USELESS:          0
L1I USEFUL LOAD PREFETCHES:          0 PREFETCH ISSUED TO LOWER LEVEL:          0  ACCURACY: -nan
L1I TIMELY PREFETCHES:          0 LATE PREFETCHES: 0 DROPPED PREFETCHES: 0
L1I COMMIT LATE PREFETCHES: 0 MISSED OPPORTUNITY: 0 LATE IN PQ: 0 UNCOVERED: 0
L1I COMMIT LATE MSHR PREFETCHES: 0
L1I MPKI TOTAL: 0 MSHR LATE: 0 PQ LATE: 0 COMMIT LATE: 0 MISSED OPPORTUNITY: 0 UNCOVERED: 0
L1I PREFETCHES SAME FILL-ORIGIN LEVEL: 0 DIFFERENT FILL-ORIGIN LEVEL: 0
L1I AVERAGE MISS LATENCY: -nan cycles
L1I AVERAGE MISS LATENCY LOAD: -nan cycles
L1I AVERAGE MISS LATENCY PREFETCH: -nan cycles
L1I AVERAGE MSHR OCCUPANCY: 0
L1I MSHR FULL: 0
L1I RQ	ACCESS:   65570842	FORWARD:          0	MERGED:   35635670	TO_CACHE:   29935172

BTB SPEC fills:          0  NON-SPEC fills:          0
BTB Test counter :          0
BTB Leapfrog:          0
BTB MSHR merge:          0
BTB TOTAL     ACCESS:    2243766  HIT:    2243761  MISS:          5  HIT %:    99.9998  MISS %: 0.00022284   MPKI: 2.5e-05
BTB BRANCH_DIRECT_JUMP	ACCESS:     160245  HIT:     160244  MISS:          1
BTB BRANCH_INDIRECT	ACCESS:          0  HIT:          0  MISS:          0
BTB BRANCH_CONDITIONAL	ACCESS:    2083521  HIT:    2083517  MISS:          4
BTB BRANCH_DIRECT_CALL	ACCESS:          0  HIT:          0  MISS:          0
BTB BRANCH_INDIRECT_CALL	ACCESS:          0  HIT:          0  MISS:          0
BTB BRANCH_RETURN	ACCESS:          0  HIT:          0  MISS:          0
BTB BRANCH_OTHER ACCESS:          0  HIT:          0  MISS:          0

L2C SPEC fills:          0  NON-SPEC fills:     112135
L2C Test counter :    3781657
L2C Leapfrog:          0
L2C MSHR merge:          0
L2C TOTAL     ACCESS:   11577278  HIT:    3742386  MISS:    7834892  HIT %:    32.3253  MISS %:    67.6747   MPKI: 39.1745
L2C LOAD      TOTAL       ACCESS:    4012979  HIT:         56  MISS:    4012923  HIT %: 0.00139547  MISS %:    99.9986   MPKI: 20.0646
L2C LOAD      NON_SPEC    ACCESS:     112137  HIT:          2  MISS:     112135  HIT %: 0.00178353  MISS %:    99.9982   MPKI: 0.560675
L2C LOAD      SPEC        ACCESS:    3900842  HIT:         54  MISS:    3900788  HIT %: 0.00138432  MISS %:    99.9986   MPKI: 19.5039
L2C RFO       NON_SPEC    ACCESS:        973  HIT:          0  MISS:        973  HIT %:          0  MISS %:        100   MPKI: 0.004865
L2C WRITEBACK NON_SPEC    ACCESS:      30694  HIT:      30694  MISS:          0  HIT %:        100  MISS %:          0   MPKI: 0
L2C CLEAN_EVICTION NON_SPEC    ACCESS:    3820368  HIT:     402778  MISS:    3417590  HIT %:    10.5429  MISS %:    89.4571   MPKI: 17.0879
L2C COMMIT LOAD NON_SPEC    ACCESS:     317247  HIT:         13  MISS:     317234  HIT %: 0.00409775  MISS %:    99.9959   MPKI: 1.58617
L2C LOAD TRANSLATION NON_SPEC    ACCESS:    3395017  HIT:    3308845  MISS:      86172  HIT %:    97.4618  MISS %:    2.53819   MPKI: 0.43086
L2C PREFETCH  REQUESTED:          0  ISSUED:          0  USEFUL:          0  USELESS:          0
L2C USEFUL LOAD PREFETCHES:          0 PREFETCH ISSUED TO LOWER LEVEL:          0  ACCURACY: -nan
L2C TIMELY PREFETCHES:          0 LATE PREFETCHES: 0 DROPPED PREFETCHES: 0
L2C COMMIT LATE PREFETCHES: 0 MISSED OPPORTUNITY: 0 LATE IN PQ: 0 UNCOVERED: 0
L2C COMMIT LATE MSHR PREFETCHES: 0
L2C MPKI TOTAL: 20.0646 MSHR LATE: 0 PQ LATE: 0 COMMIT LATE: 0 MISSED OPPORTUNITY: 0 UNCOVERED: 0
L2C PREFETCHES SAME FILL-ORIGIN LEVEL: 0 DIFFERENT FILL-ORIGIN LEVEL: 0
L2C AVERAGE MISS LATENCY: 83.2819 cycles
L2C AVERAGE MISS LATENCY LOAD: 150.395 cycles
L2C AVERAGE MISS LATENCY PREFETCH: -nan cycles
L2C AVERAGE MSHR OCCUPANCY: 1.77542
L2C MSHR FULL: 0
L2C RQ	ACCESS:    7726216	FORWARD:          0	MERGED:          0	TO_CACHE:    7726216
L2C WQ	ACCESS:    3851326	FORWARD:          0	MERGED:        264	TO_CACHE:    3851062

L2C Instructions Evicting Data 0
L2C Translations Evicting Data 84846
L2C Data Evicting Data 420952
L2C Instructions Evicting Instructions 0
L2C Translations Evicting Instructions 0
L2C Data Evicting Instructions 0
L2C Instructions Evicting Translations 0
L2C Translations Evicting Translations 1326
L2C Data Evicting Translations 9390
L2C Dense regions hint from L2: 0
PSCL5 SPEC fills:          0  NON-SPEC fills:          0
PSCL5 Test counter :          0
PSCL5 Leapfrog:          0
PSCL5 MSHR merge:          0
PSCL5 TOTAL     ACCESS:          0  HIT:          0  MISS:          0  HIT %:       -nan  MISS %:       -nan   MPKI: 0
PSCL5 PREFETCH  REQUESTED:          0  ISSUED:          0  USEFUL:          0  USELESS:          0
PSCL5 USEFUL LOAD PREFETCHES:          0 PREFETCH ISSUED TO LOWER LEVEL:          0  ACCURACY: -nan
PSCL5 TIMELY PREFETCHES:          0 LATE PREFETCHES: 0 DROPPED PREFETCHES: 0
PSCL5 COMMIT LATE PREFETCHES: 0 MISSED OPPORTUNITY: 0 LATE IN PQ: 0 UNCOVERED: 0
PSCL5 COMMIT LATE MSHR PREFETCHES: 0
PSCL5 MPKI TOTAL: 0 MSHR LATE: 0 PQ LATE: 0 COMMIT LATE: 0 MISSED OPPORTUNITY: 0 UNCOVERED: 0
PSCL5 PREFETCHES SAME FILL-ORIGIN LEVEL: 0 DIFFERENT FILL-ORIGIN LEVEL: 0

PSCL4 SPEC fills:          0  NON-SPEC fills:          0
PSCL4 Test counter :          0
PSCL4 Leapfrog:          0
PSCL4 MSHR merge:          0
PSCL4 TOTAL     ACCESS:          0  HIT:          0  MISS:          0  HIT %:       -nan  MISS %:       -nan   MPKI: 0
PSCL4 PREFETCH  REQUESTED:          0  ISSUED:          0  USEFUL:          0  USELESS:          0
PSCL4 USEFUL LOAD PREFETCHES:          0 PREFETCH ISSUED TO LOWER LEVEL:          0  ACCURACY: -nan
PSCL4 TIMELY PREFETCHES:          0 LATE PREFETCHES: 0 DROPPED PREFETCHES: 0
PSCL4 COMMIT LATE PREFETCHES: 0 MISSED OPPORTUNITY: 0 LATE IN PQ: 0 UNCOVERED: 0
PSCL4 COMMIT LATE MSHR PREFETCHES: 0
PSCL4 MPKI TOTAL: 0 MSHR LATE: 0 PQ LATE: 0 COMMIT LATE: 0 MISSED OPPORTUNITY: 0 UNCOVERED: 0
PSCL4 PREFETCHES SAME FILL-ORIGIN LEVEL: 0 DIFFERENT FILL-ORIGIN LEVEL: 0

PSCL3 SPEC fills:          0  NON-SPEC fills:          0
PSCL3 Test counter :          0
PSCL3 Leapfrog:          0
PSCL3 MSHR merge:          0
PSCL3 TOTAL     ACCESS:          0  HIT:          0  MISS:          0  HIT %:       -nan  MISS %:       -nan   MPKI: 0
PSCL3 PREFETCH  REQUESTED:          0  ISSUED:          0  USEFUL:          0  USELESS:          0
PSCL3 USEFUL LOAD PREFETCHES:          0 PREFETCH ISSUED TO LOWER LEVEL:          0  ACCURACY: -nan
PSCL3 TIMELY PREFETCHES:          0 LATE PREFETCHES: 0 DROPPED PREFETCHES: 0
PSCL3 COMMIT LATE PREFETCHES: 0 MISSED OPPORTUNITY: 0 LATE IN PQ: 0 UNCOVERED: 0
PSCL3 COMMIT LATE MSHR PREFETCHES: 0
PSCL3 MPKI TOTAL: 0 MSHR LATE: 0 PQ LATE: 0 COMMIT LATE: 0 MISSED OPPORTUNITY: 0 UNCOVERED: 0
PSCL3 PREFETCHES SAME FILL-ORIGIN LEVEL: 0 DIFFERENT FILL-ORIGIN LEVEL: 0

PSCL2 SPEC fills:          0  NON-SPEC fills:          0
PSCL2 Test counter :          0
PSCL2 Leapfrog:          0
PSCL2 MSHR merge:          0
PSCL2 TOTAL     ACCESS:          0  HIT:          0  MISS:          0  HIT %:       -nan  MISS %:       -nan   MPKI: 0
PSCL2 PREFETCH  REQUESTED:          0  ISSUED:          0  USEFUL:          0  USELESS:          0
PSCL2 USEFUL LOAD PREFETCHES:          0 PREFETCH ISSUED TO LOWER LEVEL:          0  ACCURACY: -nan
PSCL2 TIMELY PREFETCHES:          0 LATE PREFETCHES: 0 DROPPED PREFETCHES: 0
PSCL2 COMMIT LATE PREFETCHES: 0 MISSED OPPORTUNITY: 0 LATE IN PQ: 0 UNCOVERED: 0
PSCL2 COMMIT LATE MSHR PREFETCHES: 0
PSCL2 MPKI TOTAL: 0 MSHR LATE: 0 PQ LATE: 0 COMMIT LATE: 0 MISSED OPPORTUNITY: 0 UNCOVERED: 0
PSCL2 PREFETCHES SAME FILL-ORIGIN LEVEL: 0 DIFFERENT FILL-ORIGIN LEVEL: 0

LLC SPEC fills:          0  NON-SPEC fills:      68149
LLC Test counter :    3083365
LLC Leapfrog:          0
LLC MSHR merge:          0
LLC TOTAL     ACCESS:    8230499  HIT:    1949204  MISS:    6281295  HIT %:    23.6827  MISS %:    76.3173   MPKI: 31.4065
LLC LOAD      TOTAL       ACCESS:    4012923  HIT:     863760  MISS:    3149163  HIT %:    21.5245  MISS %:    78.4755   MPKI: 15.7458
LLC LOAD      NON_SPEC    ACCESS:     112135  HIT:      43986  MISS:      68149  HIT %:    39.2259  MISS %:    60.7741   MPKI: 0.340745
LLC LOAD      SPEC        ACCESS:    3900788  HIT:     819774  MISS:    3081014  HIT %:    21.0156  MISS %:    78.9844   MPKI: 15.4051
LLC RFO       NON_SPEC    ACCESS:        973  HIT:          0  MISS:        973  HIT %:          0  MISS %:        100   MPKI: 0.004865
LLC WRITEBACK NON_SPEC    ACCESS:      31540  HIT:      31540  MISS:          0  HIT %:        100  MISS %:          0   MPKI: 0
LLC CLEAN_EVICTION NON_SPEC    ACCESS:    3781657  HIT:     861719  MISS:    2919938  HIT %:    22.7868  MISS %:    77.2132   MPKI: 14.5997
LLC COMMIT LOAD NON_SPEC    ACCESS:     317234  HIT:     172567  MISS:     144667  HIT %:    54.3974  MISS %:    45.6026   MPKI: 0.723335
LLC LOAD TRANSLATION NON_SPEC    ACCESS:      86172  HIT:      19618  MISS:      66554  HIT %:    22.7661  MISS %:    77.2339   MPKI: 0.33277
LLC PREFETCH  REQUESTED:          0  ISSUED:          0  USEFUL:          0  USELESS:          0
LLC USEFUL LOAD PREFETCHES:          0 PREFETCH ISSUED TO LOWER LEVEL:          0  ACCURACY: -nan
LLC TIMELY PREFETCHES:          0 LATE PREFETCHES: 0 DROPPED PREFETCHES: 0
LLC COMMIT LATE PREFETCHES: 0 MISSED OPPORTUNITY: 0 LATE IN PQ: 0 UNCOVERED: 0
LLC COMMIT LATE MSHR PREFETCHES: 0
LLC MPKI TOTAL: 15.7458 MSHR LATE: 0 PQ LATE: 0 COMMIT LATE: 0 MISSED OPPORTUNITY: 0 UNCOVERED: 0
LLC PREFETCHES SAME FILL-ORIGIN LEVEL: 0 DIFFERENT FILL-ORIGIN LEVEL: 0
LLC AVERAGE MISS LATENCY: 84.9577 cycles
LLC AVERAGE MISS LATENCY LOAD: 157.842 cycles
LLC AVERAGE MISS LATENCY PREFETCH: -nan cycles
LLC AVERAGE MSHR OCCUPANCY: 1.28328
LLC MSHR FULL: 0
LLC RQ	ACCESS:    4417302	FORWARD:          0	MERGED:          0	TO_CACHE:    4417302
LLC WQ	ACCESS:    3813197	FORWARD:          0	MERGED:          0	TO_CACHE:    3813197

LLC Dense regions hint to LLC: 0

RAW hits: 436340
Loads Generated: 128041519
Loads sent to L1D: 127605171
Stores Generated: 12822620
Stores sent to L1D: 12822617
Major fault: 0 Minor fault: 641201
Allocated PAGES: 641201
Total Load insts: 159468815
Total Non-spec loads: 7096432
Percentage of speculative loads: 95.55

LeapFrogging counter: 8024847
Commit hits: 44921852 miss: 76925764
Commit hit %: 36.8672 miss %: 63.1328
Commits not translated: 0
Loads retired: 4012979
Stores retired: 12822617
Cache fills: 4012979
L1D response latency: 162.479 cycles
Load retirement latency: 403.177 cycles
OOO test counter: 0
Discarded buffer inserts: 44921852 hits: 156187 hit %: 0.347686

DRAM Statistics
 CHANNEL 0
 RQ ROW_BUFFER_HIT:     861364  ROW_BUFFER_MISS:    2499941
 DBUS_CONGESTED:      30849
 WQ ROW_BUFFER_HIT:    1199469  ROW_BUFFER_MISS:    1919839  FULL:          0

 AVG_CONGESTED_CYCLE: 5
 All warmup complete: 2
Channel 0 Bank busy for read cycles: 0
Channel 0 Bank busy for write cycles: 0
Channel 0
Rank 0
0banks busy for read cycles: 7001617
0banks busy for write cycles: 33885
1banks busy for read cycles: 174783958
1banks busy for write cycles: 7130744
2banks busy for read cycles: 72004957
2banks busy for write cycles: 10495971
3banks busy for read cycles: 23058691
3banks busy for write cycles: 15661868
4banks busy for read cycles: 6129654
4banks busy for write cycles: 22568310
5banks busy for read cycles: 1044416
5banks busy for write cycles: 29569051
6banks busy for read cycles: 81410
6banks busy for write cycles: 32159620
7banks busy for read cycles: 3105
7banks busy for write cycles: 25150593
8banks busy for read cycles: 0
8banks busy for write cycles: 11227172

CPU 0 Branch Prediction Accuracy: 99.9931% MPKI: 0.00083 Average ROB Occupancy at Mispredict: 343.548
Branch types
NOT_BRANCH: 197595958 98.798%
BRANCH_DIRECT_JUMP: 160245 0.0801225%
BRANCH_INDIRECT: 0 0%
BRANCH_CONDITIONAL: 2243766 1.12188%
BRANCH_DIRECT_CALL: 0 0%
BRANCH_INDIRECT_CALL: 0 0%
BRANCH_RETURN: 0 0%
BRANCH_OTHER: 0 0%

DRAM PAGES: 1048576
Allocated PAGES: 641201
