
*** ChampSim Multicore Out-of-Order Simulator ***

Warmup Instructions: 50000000
Simulation Instructions: 200000000
Number of CPUs: 1
LLC sets: 2048
LLC ways: 16
L0D sets: 16
L0D ways: 2
ROB size: 352
LQ size: 128
SQ size: 72
Secure Berti: OFF
Berti: OFF
Berti Fill: OFF
On commit prefetching: OFF
Hit-based filter: OFF
Time-guarding: ON
Free-slotting: ON
Leap-frogging: ON
Train prefetcher on L0D bypass: OFF
No translation penalty for prefetchers: OFF
Prefetch to L0D only: OFF
Prefetch to L1D only: OFF
Clean evictions: ON
Commit loads: ON
Commit write: ON
Fill commit loads to L2C, LLC: ON
DRAM IO FREQUENCY: 6400
ROB SIZE: 352
Off-chip DRAM Size: 4096 MB Channels: 1 Width: 64-bit Data Rate: 6400 MT/s
CPU 0 runs /home/sumon/secure_berti/GhostMinion/../../traces/spec/654.roms_s-1390B.champsimtrace.xz
.xz
BTB has LRU replacement policy
ITLB has LRU replacement policy
DTLB has LRU replacement policy
STLB has LRU replacement policy
L1I has LRU replacement policy
L0D has LRU replacement policy
L1D has LRU replacement policy
L2C has LRU replacement policy
LLC has LRU replacement policy
Heartbeat CPU 0 instructions: 10000001 cycles: 4272833 heartbeat IPC: 2.34037 cumulative IPC: 2.34037 (Simulation time: 0 hr 0 min 42 sec) 
Heartbeat CPU 0 instructions: 20000003 cycles: 7934853 heartbeat IPC: 2.73073 cumulative IPC: 2.52053 (Simulation time: 0 hr 1 min 12 sec) 
Heartbeat CPU 0 instructions: 30000003 cycles: 11351578 heartbeat IPC: 2.92678 cumulative IPC: 2.6428 (Simulation time: 0 hr 1 min 38 sec) 
Heartbeat CPU 0 instructions: 40000002 cycles: 15430870 heartbeat IPC: 2.45141 cumulative IPC: 2.59221 (Simulation time: 0 hr 2 min 14 sec) 
Heartbeat CPU 0 instructions: 50000000 cycles: 20098755 heartbeat IPC: 2.1423 cumulative IPC: 2.48772 (Simulation time: 0 hr 2 min 55 sec) 

Warmup complete CPU 0 instructions: 50000004 cycles: 20098756 (Simulation time: 0 hr 2 min 55 sec) 

Heartbeat CPU 0 instructions: 60000001 cycles: 37533136 heartbeat IPC: 0.573579 cumulative IPC: 0.573579 (Simulation time: 0 hr 3 min 36 sec) 
Heartbeat CPU 0 instructions: 70000002 cycles: 53686884 heartbeat IPC: 0.619051 cumulative IPC: 0.595448 (Simulation time: 0 hr 4 min 17 sec) 
Heartbeat CPU 0 instructions: 80000002 cycles: 69857498 heartbeat IPC: 0.618406 cumulative IPC: 0.602909 (Simulation time: 0 hr 4 min 58 sec) 
Heartbeat CPU 0 instructions: 90000001 cycles: 93923981 heartbeat IPC: 0.415516 cumulative IPC: 0.54182 (Simulation time: 0 hr 5 min 54 sec) 
Heartbeat CPU 0 instructions: 100000001 cycles: 120149832 heartbeat IPC: 0.381303 cumulative IPC: 0.499745 (Simulation time: 0 hr 6 min 49 sec) 
Heartbeat CPU 0 instructions: 110000000 cycles: 144517274 heartbeat IPC: 0.410384 cumulative IPC: 0.482243 (Simulation time: 0 hr 7 min 42 sec) 
Heartbeat CPU 0 instructions: 120000001 cycles: 163392915 heartbeat IPC: 0.529783 cumulative IPC: 0.488506 (Simulation time: 0 hr 8 min 27 sec) 
Heartbeat CPU 0 instructions: 130000000 cycles: 182149061 heartbeat IPC: 0.533159 cumulative IPC: 0.493674 (Simulation time: 0 hr 9 min 15 sec) 
Heartbeat CPU 0 instructions: 140000001 cycles: 219854635 heartbeat IPC: 0.265213 cumulative IPC: 0.45055 (Simulation time: 0 hr 10 min 29 sec) 
Heartbeat CPU 0 instructions: 150000000 cycles: 248089152 heartbeat IPC: 0.354176 cumulative IPC: 0.438615 (Simulation time: 0 hr 11 min 30 sec) 
Heartbeat CPU 0 instructions: 160000003 cycles: 281114657 heartbeat IPC: 0.302796 cumulative IPC: 0.42143 (Simulation time: 0 hr 12 min 50 sec) 
Heartbeat CPU 0 instructions: 170000000 cycles: 312727405 heartbeat IPC: 0.316328 cumulative IPC: 0.410076 (Simulation time: 0 hr 14 min 9 sec) 
Heartbeat CPU 0 instructions: 180000003 cycles: 343692187 heartbeat IPC: 0.322948 cumulative IPC: 0.401739 (Simulation time: 0 hr 15 min 25 sec) 
Heartbeat CPU 0 instructions: 190000002 cycles: 370256034 heartbeat IPC: 0.376451 cumulative IPC: 0.39982 (Simulation time: 0 hr 16 min 20 sec) 
Heartbeat CPU 0 instructions: 200000003 cycles: 400671424 heartbeat IPC: 0.328781 cumulative IPC: 0.394143 (Simulation time: 0 hr 17 min 10 sec) 
Heartbeat CPU 0 instructions: 210000001 cycles: 427723228 heartbeat IPC: 0.369661 cumulative IPC: 0.392518 (Simulation time: 0 hr 18 min 8 sec) 
Heartbeat CPU 0 instructions: 220000000 cycles: 458066085 heartbeat IPC: 0.329567 cumulative IPC: 0.388157 (Simulation time: 0 hr 19 min 1 sec) 
Heartbeat CPU 0 instructions: 230000002 cycles: 495818546 heartbeat IPC: 0.264883 cumulative IPC: 0.378374 (Simulation time: 0 hr 19 min 50 sec) 
Heartbeat CPU 0 instructions: 240000002 cycles: 528341142 heartbeat IPC: 0.307479 cumulative IPC: 0.373837 (Simulation time: 0 hr 20 min 45 sec) 
Heartbeat CPU 0 instructions: 250000003 cycles: 559343384 heartbeat IPC: 0.322557 cumulative IPC: 0.370889 (Simulation time: 0 hr 21 min 45 sec) 
Finished CPU 0 instructions: 200000003 cycles: 539244629 cumulative IPC: 0.370889 (Simulation time: 0 hr 21 min 45 sec) 
 Instruction ID: 250000376

ChampSim completed all CPUs

Region of Interest Statistics

CPU 0 cumulative IPC: 0.370889 instructions: 200000003 cycles: 539244629
ITLB SPEC fills:          0  NON-SPEC fills:          0
ITLB Test counter :          0
ITLB Leapfrog:          0
ITLB MSHR merge:          0
ITLB TOTAL     ACCESS:   31947156  HIT:   31947149  MISS:          7  HIT %:        100  MISS %: 2.19112e-05   MPKI: 3.5e-05
ITLB LOAD TRANSLATION NON_SPEC    ACCESS:   31947156  HIT:   31947149  MISS:          7  HIT %:        100  MISS %: 2.19112e-05   MPKI: 3.5e-05
ITLB PREFETCH  REQUESTED:          0  ISSUED:          0  USEFUL:          0  USELESS:          0
ITLB USEFUL LOAD PREFETCHES:          0 PREFETCH ISSUED TO LOWER LEVEL:          0  ACCURACY: -nan
ITLB TIMELY PREFETCHES:          0 LATE PREFETCHES: 0 DROPPED PREFETCHES: 0
ITLB COMMIT LATE PREFETCHES: 0 MISSED OPPORTUNITY: 0 LATE IN PQ: 0 UNCOVERED: 0
ITLB COMMIT LATE MSHR PREFETCHES: 0
ITLB MPKI TOTAL: 0 MSHR LATE: 0 PQ LATE: 0 COMMIT LATE: 0 MISSED OPPORTUNITY: 0 UNCOVERED: 0
ITLB PREFETCHES SAME FILL-ORIGIN LEVEL: 0 DIFFERENT FILL-ORIGIN LEVEL: 0
ITLB AVERAGE MISS LATENCY: 677 cycles
ITLB AVERAGE MISS LATENCY LOAD: -nan cycles
ITLB AVERAGE MISS LATENCY PREFETCH: -nan cycles
ITLB AVERAGE MSHR OCCUPANCY: 3.13017e-08
ITLB MSHR FULL: 0
ITLB RQ	ACCESS:   37672762	FORWARD:          0	MERGED:    5725605	TO_CACHE:   31947157

DTLB SPEC fills:          0  NON-SPEC fills:          0
DTLB Test counter :          0
DTLB Leapfrog:          0
DTLB MSHR merge:          0
DTLB TOTAL     ACCESS:   52614814  HIT:   52444583  MISS:     170231  HIT %:    99.6765  MISS %:   0.323542   MPKI: 0.851155
DTLB LOAD TRANSLATION NON_SPEC    ACCESS:   52614814  HIT:   52444583  MISS:     170231  HIT %:    99.6765  MISS %:   0.323542   MPKI: 0.851155
DTLB PREFETCH  REQUESTED:          0  ISSUED:          0  USEFUL:          0  USELESS:          0
DTLB USEFUL LOAD PREFETCHES:          0 PREFETCH ISSUED TO LOWER LEVEL:          0  ACCURACY: -nan
DTLB TIMELY PREFETCHES:          0 LATE PREFETCHES: 0 DROPPED PREFETCHES: 0
DTLB COMMIT LATE PREFETCHES: 0 MISSED OPPORTUNITY: 0 LATE IN PQ: 0 UNCOVERED: 0
DTLB COMMIT LATE MSHR PREFETCHES: 0
DTLB MPKI TOTAL: 0 MSHR LATE: 0 PQ LATE: 0 COMMIT LATE: 0 MISSED OPPORTUNITY: 0 UNCOVERED: 0
DTLB PREFETCHES SAME FILL-ORIGIN LEVEL: 0 DIFFERENT FILL-ORIGIN LEVEL: 0
DTLB AVERAGE MISS LATENCY: 153.131 cycles
DTLB AVERAGE MISS LATENCY LOAD: -nan cycles
DTLB AVERAGE MISS LATENCY PREFETCH: -nan cycles
DTLB AVERAGE MSHR OCCUPANCY: 0.11415
DTLB MSHR FULL: 0.0101644
DTLB RQ	ACCESS:   62624937	FORWARD:          0	MERGED:    9925266	TO_CACHE:   52699671

STLB SPEC fills:          0  NON-SPEC fills:          0
STLB Test counter :          0
STLB Leapfrog:          0
STLB MSHR merge:          0
STLB TOTAL     ACCESS:     170238  HIT:      54916  MISS:     115322  HIT %:    32.2584  MISS %:    67.7416   MPKI: 0.57661
STLB LOAD TRANSLATION NON_SPEC    ACCESS:     170238  HIT:      54916  MISS:     115322  HIT %:    32.2584  MISS %:    67.7416   MPKI: 0.57661
STLB PREFETCH  REQUESTED:          0  ISSUED:          0  USEFUL:          0  USELESS:          0
STLB USEFUL LOAD PREFETCHES:          0 PREFETCH ISSUED TO LOWER LEVEL:          0  ACCURACY: -nan
STLB TIMELY PREFETCHES:          0 LATE PREFETCHES: 0 DROPPED PREFETCHES: 0
STLB COMMIT LATE PREFETCHES: 0 MISSED OPPORTUNITY: 0 LATE IN PQ: 0 UNCOVERED: 0
STLB COMMIT LATE MSHR PREFETCHES: 0
STLB MPKI TOTAL: 0 MSHR LATE: 0 PQ LATE: 0 COMMIT LATE: 0 MISSED OPPORTUNITY: 0 UNCOVERED: 0
STLB PREFETCHES SAME FILL-ORIGIN LEVEL: 0 DIFFERENT FILL-ORIGIN LEVEL: 0
STLB AVERAGE MISS LATENCY: 212.6 cycles
STLB AVERAGE MISS LATENCY LOAD: -nan cycles
STLB AVERAGE MISS LATENCY PREFETCH: -nan cycles
STLB AVERAGE MSHR OCCUPANCY: 0.35737
STLB MSHR FULL: 0
STLB RQ	ACCESS:     170238	FORWARD:          0	MERGED:          0	TO_CACHE:     170238

STLB Hit, L1D data hit: 0
STLB Hit, L2C data hit: 0
STLB Hit, LLC data hit: 0
STLB Hit, LLC data miss: 0
STLB STLB hints to L2: 0
L0D SPEC fills:   25010088  NON-SPEC fills:          0
L0D TimeGuard Request with older TS:    2662006 Restricted eviction:    1564179 read:    1038364
L0D Test counter :          0
L0D Leapfrog:          0
L0D MSHR merge:    8115730
L0D TOTAL     ACCESS:   42190254  HIT:   11596213  MISS:   30594041  HIT %:    27.4855  MISS %:    72.5145   MPKI: 152.97
L0D LOAD      TOTAL       ACCESS:   42190254  HIT:   11596213  MISS:   30594041  HIT %:    27.4855  MISS %:    72.5145   MPKI: 152.97
L0D LOAD      NON_SPEC    ACCESS:    4334912  HIT:     315001  MISS:    4019911  HIT %:    7.26661  MISS %:    92.7334   MPKI: 20.0996
L0D LOAD      SPEC        ACCESS:   37855342  HIT:   11281212  MISS:   26574130  HIT %:    29.8008  MISS %:    70.1992   MPKI: 132.871
L0D PREFETCH  REQUESTED:          0  ISSUED:          0  USEFUL:          0  USELESS:          0
L0D USEFUL LOAD PREFETCHES:          0 PREFETCH ISSUED TO LOWER LEVEL:          0  ACCURACY: -nan
L0D TIMELY PREFETCHES:          0 LATE PREFETCHES: 0 DROPPED PREFETCHES: 0
L0D COMMIT LATE PREFETCHES: 0 MISSED OPPORTUNITY: 0 LATE IN PQ: 0 UNCOVERED: 0
L0D COMMIT LATE MSHR PREFETCHES: 0
L0D MPKI TOTAL: 193.549 MSHR LATE: 0 PQ LATE: 0 COMMIT LATE: 0 MISSED OPPORTUNITY: 0 UNCOVERED: 0
L0D PREFETCHES SAME FILL-ORIGIN LEVEL: 0 DIFFERENT FILL-ORIGIN LEVEL: 0
L0D AVERAGE MISS LATENCY: 40.8342 cycles
L0D AVERAGE MISS LATENCY LOAD: 40.8342 cycles
L0D AVERAGE MISS LATENCY PREFETCH: -nan cycles
L0D AVERAGE MSHR OCCUPANCY: 3.21743
L0D MSHR FULL: 0.0937863
L0D RQ	ACCESS:   76274246	FORWARD:          0	MERGED:   25968263	TO_CACHE:   50305983
L0D WQ	ACCESS:   12318954	FORWARD:          0	MERGED:          0	TO_CACHE:   12318954

L1D SPEC fills:          0  NON-SPEC fills:     313595
L1D Test counter :    4418971
L1D Leapfrog:          0
L1D MSHR merge:     192718
L1D TOTAL     ACCESS:   91298903  HIT:   81222559  MISS:   10076344  HIT %:    88.9633  MISS %:    11.0367   MPKI: 50.3817
L1D LOAD      TOTAL       ACCESS:   30401323  HIT:   25726084  MISS:    4675239  HIT %:    84.6216  MISS %:    15.3784   MPKI: 23.3762
L1D LOAD      NON_SPEC    ACCESS:    4006160  HIT:    3692565  MISS:     313595  HIT %:    92.1722  MISS %:    7.82782   MPKI: 1.56797
L1D LOAD      SPEC        ACCESS:   26395163  HIT:   22033519  MISS:    4361644  HIT %:    83.4756  MISS %:    16.5244   MPKI: 21.8082
L1D RFO       NON_SPEC    ACCESS:    8610569  HIT:    7477933  MISS:    1132636  HIT %:     86.846  MISS %:     13.154   MPKI: 5.66318
L1D COMMIT LOAD NON_SPEC    ACCESS:   29435000  HIT:   29108270  MISS:     326730  HIT %:      98.89  MISS %:    1.11001   MPKI: 1.63365
L1D COMMIT WRITE NON_SPEC    ACCESS:   22852011  HIT:   18910272  MISS:    3941739  HIT %:     82.751  MISS %:     17.249   MPKI: 19.7087
L1D PREFETCH  REQUESTED:          0  ISSUED:          0  USEFUL:          0  USELESS:          0
L1D USEFUL LOAD PREFETCHES:          0 PREFETCH ISSUED TO LOWER LEVEL:          0  ACCURACY: -nan
L1D TIMELY PREFETCHES:          0 LATE PREFETCHES: 0 DROPPED PREFETCHES: 0
L1D COMMIT LATE PREFETCHES: 0 MISSED OPPORTUNITY: 0 LATE IN PQ: 0 UNCOVERED: 0
L1D COMMIT LATE MSHR PREFETCHES: 0
L1D MPKI TOTAL: 24.3398 MSHR LATE: 0 PQ LATE: 0 COMMIT LATE: 0 MISSED OPPORTUNITY: 0 UNCOVERED: 0
L1D PREFETCHES SAME FILL-ORIGIN LEVEL: 0 DIFFERENT FILL-ORIGIN LEVEL: 0
L1D AVERAGE MISS LATENCY: 138.619 cycles
L1D AVERAGE MISS LATENCY LOAD: 222.534 cycles
L1D AVERAGE MISS LATENCY PREFETCH: -nan cycles
L1D AVERAGE MSHR OCCUPANCY: 1.78931
L1D MSHR FULL: 0.000481939
L1D RQ	ACCESS:   79584940	FORWARD:          0	MERGED:   18375669	TO_CACHE:   60203103
L1D WQ	ACCESS:   35174741	FORWARD:    1006168	MERGED:     130447	TO_CACHE:   35044294

L1D UNIQUE REGIONS ACCESSED: 0
L1D REGIONS CONFLICTS: 0
L1D Cross Page Prefetch Requests: 0
L1D Same Page Prefetch Requests: 0
L1D ROI Sum of L1D PQ occupancy: 0
L1D PREFETCHES PUSHED FROM L2C: 0
L1I SPEC fills:          0  NON-SPEC fills:          0
L1I Test counter :          0
L1I Leapfrog:          0
L1I MSHR merge:        345
L1I TOTAL     ACCESS:   37672417  HIT:   37671647  MISS:        770  HIT %:     99.998  MISS %: 0.00204394   MPKI: 0.00385
L1I LOAD      TOTAL       ACCESS:   37672417  HIT:   37671647  MISS:        770  HIT %:     99.998  MISS %: 0.00204394   MPKI: 0.00385
L1I LOAD      NON_SPEC    ACCESS:   37672417  HIT:   37671647  MISS:        770  HIT %:     99.998  MISS %: 0.00204394   MPKI: 0.00385
L1I PREFETCH  REQUESTED:          0  ISSUED:          0  USEFUL:          0  USELESS:          0
L1I USEFUL LOAD PREFETCHES:          0 PREFETCH ISSUED TO LOWER LEVEL:          0  ACCURACY: -nan
L1I TIMELY PREFETCHES:          0 LATE PREFETCHES: 0 DROPPED PREFETCHES: 0
L1I COMMIT LATE PREFETCHES: 0 MISSED OPPORTUNITY: 0 LATE IN PQ: 0 UNCOVERED: 0
L1I COMMIT LATE MSHR PREFETCHES: 0
L1I MPKI TOTAL: 0.005575 MSHR LATE: 0 PQ LATE: 0 COMMIT LATE: 0 MISSED OPPORTUNITY: 0 UNCOVERED: 0
L1I PREFETCHES SAME FILL-ORIGIN LEVEL: 0 DIFFERENT FILL-ORIGIN LEVEL: 0
L1I AVERAGE MISS LATENCY: 270.142 cycles
L1I AVERAGE MISS LATENCY LOAD: 270.142 cycles
L1I AVERAGE MISS LATENCY PREFETCH: -nan cycles
L1I AVERAGE MSHR OCCUPANCY: 2.36776e-05
L1I MSHR FULL: 0
L1I RQ	ACCESS:   54552083	FORWARD:          0	MERGED:   16879321	TO_CACHE:   37672762

BTB SPEC fills:          0  NON-SPEC fills:          0
BTB Test counter :          0
BTB Leapfrog:          0
BTB MSHR merge:          0
BTB TOTAL     ACCESS:    7433879  HIT:    7433570  MISS:        309  HIT %:    99.9958  MISS %: 0.00415665   MPKI: 0.001545
BTB BRANCH_DIRECT_JUMP	ACCESS:       1193  HIT:       1166  MISS:         27
BTB BRANCH_INDIRECT	ACCESS:          0  HIT:          0  MISS:          0
BTB BRANCH_CONDITIONAL	ACCESS:    7432412  HIT:    7432255  MISS:        157
BTB BRANCH_DIRECT_CALL	ACCESS:        137  HIT:         76  MISS:         61
BTB BRANCH_INDIRECT_CALL	ACCESS:          0  HIT:          0  MISS:          0
BTB BRANCH_RETURN	ACCESS:        137  HIT:         73  MISS:         64
BTB BRANCH_OTHER ACCESS:          0  HIT:          0  MISS:          0

L2C SPEC fills:          0  NON-SPEC fills:     262595
L2C Test counter :    3868996
L2C Leapfrog:          0
L2C MSHR merge:          0
L2C TOTAL     ACCESS:   12299163  HIT:    3352478  MISS:    8946685  HIT %:    27.2578  MISS %:    72.7422   MPKI: 44.7334
L2C LOAD      TOTAL       ACCESS:    4675720  HIT:     608555  MISS:    4067165  HIT %:    13.0152  MISS %:    86.9848   MPKI: 20.3358
L2C LOAD      NON_SPEC    ACCESS:     314349  HIT:      50984  MISS:     263365  HIT %:    16.2189  MISS %:    83.7811   MPKI: 1.31682
L2C LOAD      SPEC        ACCESS:    4361371  HIT:     557571  MISS:    3803800  HIT %:    12.7843  MISS %:    87.2157   MPKI: 19.019
L2C RFO       NON_SPEC    ACCESS:    1132636  HIT:         18  MISS:    1132618  HIT %: 0.00158921  MISS %:    99.9984   MPKI: 5.66309
L2C WRITEBACK NON_SPEC    ACCESS:    1169221  HIT:    1169194  MISS:         27  HIT %:    99.9977  MISS %: 0.00230923   MPKI: 0.000135
L2C CLEAN_EVICTION NON_SPEC    ACCESS:    4418818  HIT:     911710  MISS:    3507108  HIT %:    20.6324  MISS %:    79.3676   MPKI: 17.5355
L2C COMMIT LOAD NON_SPEC    ACCESS:     326230  HIT:     110692  MISS:     215538  HIT %:    33.9307  MISS %:    66.0693   MPKI: 1.07769
L2C LOAD TRANSLATION NON_SPEC    ACCESS:     576538  HIT:     552309  MISS:      24229  HIT %:    95.7975  MISS %:     4.2025   MPKI: 0.121145
L2C PREFETCH  REQUESTED:          0  ISSUED:          0  USEFUL:          0  USELESS:          0
L2C USEFUL LOAD PREFETCHES:          0 PREFETCH ISSUED TO LOWER LEVEL:          0  ACCURACY: -nan
L2C TIMELY PREFETCHES:          0 LATE PREFETCHES: 0 DROPPED PREFETCHES: 0
L2C COMMIT LATE PREFETCHES: 0 MISSED OPPORTUNITY: 0 LATE IN PQ: 0 UNCOVERED: 0
L2C COMMIT LATE MSHR PREFETCHES: 0
L2C MPKI TOTAL: 20.3358 MSHR LATE: 0 PQ LATE: 0 COMMIT LATE: 0 MISSED OPPORTUNITY: 0 UNCOVERED: 0
L2C PREFETCHES SAME FILL-ORIGIN LEVEL: 0 DIFFERENT FILL-ORIGIN LEVEL: 0
L2C AVERAGE MISS LATENCY: 148.456 cycles
L2C AVERAGE MISS LATENCY LOAD: 242.838 cycles
L2C AVERAGE MISS LATENCY PREFETCH: -nan cycles
L2C AVERAGE MSHR OCCUPANCY: 1.77498
L2C MSHR FULL: 0
L2C RQ	ACCESS:    6711915	FORWARD:          0	MERGED:          0	TO_CACHE:    6711126
L2C WQ	ACCESS:    5588222	FORWARD:        789	MERGED:        183	TO_CACHE:    5588039

L2C Instructions Evicting Data 770
L2C Translations Evicting Data 24118
L2C Data Evicting Data 1602747
L2C Instructions Evicting Instructions 0
L2C Translations Evicting Instructions 5
L2C Data Evicting Instructions 218
L2C Instructions Evicting Translations 0
L2C Translations Evicting Translations 106
L2C Data Evicting Translations 7786
L2C Dense regions hint from L2: 0
PSCL5 SPEC fills:          0  NON-SPEC fills:          0
PSCL5 Test counter :          0
PSCL5 Leapfrog:          0
PSCL5 MSHR merge:          0
PSCL5 TOTAL     ACCESS:          0  HIT:          0  MISS:          0  HIT %:       -nan  MISS %:       -nan   MPKI: 0
PSCL5 PREFETCH  REQUESTED:          0  ISSUED:          0  USEFUL:          0  USELESS:          0
PSCL5 USEFUL LOAD PREFETCHES:          0 PREFETCH ISSUED TO LOWER LEVEL:          0  ACCURACY: -nan
PSCL5 TIMELY PREFETCHES:          0 LATE PREFETCHES: 0 DROPPED PREFETCHES: 0
PSCL5 COMMIT LATE PREFETCHES: 0 MISSED OPPORTUNITY: 0 LATE IN PQ: 0 UNCOVERED: 0
PSCL5 COMMIT LATE MSHR PREFETCHES: 0
PSCL5 MPKI TOTAL: 0 MSHR LATE: 0 PQ LATE: 0 COMMIT LATE: 0 MISSED OPPORTUNITY: 0 UNCOVERED: 0
PSCL5 PREFETCHES SAME FILL-ORIGIN LEVEL: 0 DIFFERENT FILL-ORIGIN LEVEL: 0

PSCL4 SPEC fills:          0  NON-SPEC fills:          0
PSCL4 Test counter :          0
PSCL4 Leapfrog:          0
PSCL4 MSHR merge:          0
PSCL4 TOTAL     ACCESS:          0  HIT:          0  MISS:          0  HIT %:       -nan  MISS %:       -nan   MPKI: 0
PSCL4 PREFETCH  REQUESTED:          0  ISSUED:          0  USEFUL:          0  USELESS:          0
PSCL4 USEFUL LOAD PREFETCHES:          0 PREFETCH ISSUED TO LOWER LEVEL:          0  ACCURACY: -nan
PSCL4 TIMELY PREFETCHES:          0 LATE PREFETCHES: 0 DROPPED PREFETCHES: 0
PSCL4 COMMIT LATE PREFETCHES: 0 MISSED OPPORTUNITY: 0 LATE IN PQ: 0 UNCOVERED: 0
PSCL4 COMMIT LATE MSHR PREFETCHES: 0
PSCL4 MPKI TOTAL: 0 MSHR LATE: 0 PQ LATE: 0 COMMIT LATE: 0 MISSED OPPORTUNITY: 0 UNCOVERED: 0
PSCL4 PREFETCHES SAME FILL-ORIGIN LEVEL: 0 DIFFERENT FILL-ORIGIN LEVEL: 0

PSCL3 SPEC fills:          0  NON-SPEC fills:          0
PSCL3 Test counter :          0
PSCL3 Leapfrog:          0
PSCL3 MSHR merge:          0
PSCL3 TOTAL     ACCESS:          0  HIT:          0  MISS:          0  HIT %:       -nan  MISS %:       -nan   MPKI: 0
PSCL3 PREFETCH  REQUESTED:          0  ISSUED:          0  USEFUL:          0  USELESS:          0
PSCL3 USEFUL LOAD PREFETCHES:          0 PREFETCH ISSUED TO LOWER LEVEL:          0  ACCURACY: -nan
PSCL3 TIMELY PREFETCHES:          0 LATE PREFETCHES: 0 DROPPED PREFETCHES: 0
PSCL3 COMMIT LATE PREFETCHES: 0 MISSED OPPORTUNITY: 0 LATE IN PQ: 0 UNCOVERED: 0
PSCL3 COMMIT LATE MSHR PREFETCHES: 0
PSCL3 MPKI TOTAL: 0 MSHR LATE: 0 PQ LATE: 0 COMMIT LATE: 0 MISSED OPPORTUNITY: 0 UNCOVERED: 0
PSCL3 PREFETCHES SAME FILL-ORIGIN LEVEL: 0 DIFFERENT FILL-ORIGIN LEVEL: 0

PSCL2 SPEC fills:          0  NON-SPEC fills:          0
PSCL2 Test counter :          0
PSCL2 Leapfrog:          0
PSCL2 MSHR merge:          0
PSCL2 TOTAL     ACCESS:          0  HIT:          0  MISS:          0  HIT %:       -nan  MISS %:       -nan   MPKI: 0
PSCL2 PREFETCH  REQUESTED:          0  ISSUED:          0  USEFUL:          0  USELESS:          0
PSCL2 USEFUL LOAD PREFETCHES:          0 PREFETCH ISSUED TO LOWER LEVEL:          0  ACCURACY: -nan
PSCL2 TIMELY PREFETCHES:          0 LATE PREFETCHES: 0 DROPPED PREFETCHES: 0
PSCL2 COMMIT LATE PREFETCHES: 0 MISSED OPPORTUNITY: 0 LATE IN PQ: 0 UNCOVERED: 0
PSCL2 COMMIT LATE MSHR PREFETCHES: 0
PSCL2 MPKI TOTAL: 0 MSHR LATE: 0 PQ LATE: 0 COMMIT LATE: 0 MISSED OPPORTUNITY: 0 UNCOVERED: 0
PSCL2 PREFETCHES SAME FILL-ORIGIN LEVEL: 0 DIFFERENT FILL-ORIGIN LEVEL: 0

LLC SPEC fills:          0  NON-SPEC fills:     262593
LLC Test counter :    3866180
LLC Leapfrog:          0
LLC MSHR merge:          0
LLC TOTAL     ACCESS:   10477979  HIT:    1531309  MISS:    8946670  HIT %:    14.6145  MISS %:    85.3855   MPKI: 44.7333
LLC LOAD      TOTAL       ACCESS:    4067165  HIT:        224  MISS:    4066941  HIT %: 0.00550752  MISS %:    99.9945   MPKI: 20.3347
LLC LOAD      NON_SPEC    ACCESS:     263365  HIT:          2  MISS:     263363  HIT %: 0.000759402  MISS %:    99.9992   MPKI: 1.31681
LLC LOAD      SPEC        ACCESS:    3803800  HIT:        222  MISS:    3803578  HIT %: 0.00583627  MISS %:    99.9942   MPKI: 19.0179
LLC RFO       NON_SPEC    ACCESS:    1132618  HIT:         18  MISS:    1132600  HIT %: 0.00158924  MISS %:    99.9984   MPKI: 5.663
LLC WRITEBACK NON_SPEC    ACCESS:    1169433  HIT:    1169400  MISS:         33  HIT %:    99.9972  MISS %: 0.00282188   MPKI: 0.000165
LLC CLEAN_EVICTION NON_SPEC    ACCESS:    3868996  HIT:     361630  MISS:    3507366  HIT %:    9.34687  MISS %:    90.6531   MPKI: 17.5368
LLC COMMIT LOAD NON_SPEC    ACCESS:     215538  HIT:         29  MISS:     215509  HIT %:  0.0134547  MISS %:    99.9865   MPKI: 1.07754
LLC LOAD TRANSLATION NON_SPEC    ACCESS:      24229  HIT:          8  MISS:      24221  HIT %:  0.0330183  MISS %:     99.967   MPKI: 0.121105
LLC PREFETCH  REQUESTED:          0  ISSUED:          0  USEFUL:          0  USELESS:          0
LLC USEFUL LOAD PREFETCHES:          0 PREFETCH ISSUED TO LOWER LEVEL:          0  ACCURACY: -nan
LLC TIMELY PREFETCHES:          0 LATE PREFETCHES: 0 DROPPED PREFETCHES: 0
LLC COMMIT LATE PREFETCHES: 0 MISSED OPPORTUNITY: 0 LATE IN PQ: 0 UNCOVERED: 0
LLC COMMIT LATE MSHR PREFETCHES: 0
LLC MPKI TOTAL: 20.3347 MSHR LATE: 0 PQ LATE: 0 COMMIT LATE: 0 MISSED OPPORTUNITY: 0 UNCOVERED: 0
LLC PREFETCHES SAME FILL-ORIGIN LEVEL: 0 DIFFERENT FILL-ORIGIN LEVEL: 0
LLC AVERAGE MISS LATENCY: 133.99 cycles
LLC AVERAGE MISS LATENCY LOAD: 221.174 cycles
LLC AVERAGE MISS LATENCY PREFETCH: -nan cycles
LLC AVERAGE MSHR OCCUPANCY: 1.72372
LLC MSHR FULL: 0
LLC RQ	ACCESS:    5439552	FORWARD:          0	MERGED:          0	TO_CACHE:    5439552
LLC WQ	ACCESS:    5038429	FORWARD:          0	MERGED:          0	TO_CACHE:    5038429

LLC Dense regions hint to LLC: 0

RAW hits: 2128857
Loads Generated: 78403122
Loads sent to L1D: 76274246
Stores Generated: 12318964
Stores sent to L1D: 12318954
Major fault: 0 Minor fault: 55185
Allocated PAGES: 55185
Total Load insts: 113910464
Total Non-spec loads: 5069648
Percentage of speculative loads: 95.5494

LeapFrogging counter: 639682
Commit hits: 22856019 miss: 48990899
Commit hit %: 31.8121 miss %: 68.1879
Commits not translated: 0
Loads retired: 4675239
Stores retired: 12318954
Cache fills: 4675239
L1D response latency: 222.534 cycles
Load retirement latency: 320.567 cycles
OOO test counter: 0
Discarded buffer inserts: 22856019 hits: 68554 hit %: 0.299938

DRAM Statistics
 CHANNEL 0
 RQ ROW_BUFFER_HIT:     558335  ROW_BUFFER_MISS:    4880936
 DBUS_CONGESTED:       2638
 WQ ROW_BUFFER_HIT:    2335926  ROW_BUFFER_MISS:    2704232  FULL:       5045

 AVG_CONGESTED_CYCLE: 5
 All warmup complete: 2
Channel 0 Bank busy for read cycles: 0
Channel 0 Bank busy for write cycles: 0
Channel 0
Rank 0
0banks busy for read cycles: 3689564
0banks busy for write cycles: 17894
1banks busy for read cycles: 149736900
1banks busy for write cycles: 3676875
2banks busy for read cycles: 122690832
2banks busy for write cycles: 3934165
3banks busy for read cycles: 69808009
3banks busy for write cycles: 3675118
4banks busy for read cycles: 25683359
4banks busy for write cycles: 2971473
5banks busy for read cycles: 3224885
5banks busy for write cycles: 2120739
6banks busy for read cycles: 4746640
6banks busy for write cycles: 2039859
7banks busy for read cycles: 1756911
7banks busy for write cycles: 10977258
8banks busy for read cycles: 469388
8banks busy for write cycles: 128024761

CPU 0 Branch Prediction Accuracy: 99.7722% MPKI: 0.08495 Average ROB Occupancy at Mispredict: 315.218
Branch types
NOT_BRANCH: 192541502 96.2707%
BRANCH_DIRECT_JUMP: 1193 0.0005965%
BRANCH_INDIRECT: 0 0%
BRANCH_CONDITIONAL: 7457358 3.72868%
BRANCH_DIRECT_CALL: 137 6.85e-05%
BRANCH_INDIRECT_CALL: 0 0%
BRANCH_RETURN: 137 6.85e-05%
BRANCH_OTHER: 0 0%

DRAM PAGES: 1048576
Allocated PAGES: 55185
