
*** ChampSim Multicore Out-of-Order Simulator ***

Warmup Instructions: 50000000
Simulation Instructions: 200000000
Number of CPUs: 1
LLC sets: 2048
LLC ways: 16
L0D sets: 16
L0D ways: 2
ROB size: 352
LQ size: 128
SQ size: 72
Secure Berti: OFF
Berti: OFF
Berti Fill: OFF
On commit prefetching: OFF
Hit-based filter: OFF
Time-guarding: ON
Free-slotting: ON
Leap-frogging: ON
Train prefetcher on L0D bypass: OFF
No translation penalty for prefetchers: OFF
Prefetch to L0D only: OFF
Prefetch to L1D only: OFF
Clean evictions: ON
Commit loads: ON
Commit write: ON
Fill commit loads to L2C, LLC: ON
DRAM IO FREQUENCY: 6400
ROB SIZE: 352
Off-chip DRAM Size: 4096 MB Channels: 1 Width: 64-bit Data Rate: 6400 MT/s
CPU 0 runs /home/sumon/secure_berti/GhostMinion/../../traces/spec/654.roms_s-1613B.champsimtrace.xz
.xz
BTB has LRU replacement policy
ITLB has LRU replacement policy
DTLB has LRU replacement policy
STLB has LRU replacement policy
L1I has LRU replacement policy
L0D has LRU replacement policy
L1D has LRU replacement policy
L2C has LRU replacement policy
LLC has LRU replacement policy
Heartbeat CPU 0 instructions: 10000001 cycles: 4752534 heartbeat IPC: 2.10414 cumulative IPC: 2.10414 (Simulation time: 0 hr 0 min 31 sec) 
Heartbeat CPU 0 instructions: 20000003 cycles: 9505064 heartbeat IPC: 2.10414 cumulative IPC: 2.10414 (Simulation time: 0 hr 1 min 2 sec) 
Heartbeat CPU 0 instructions: 30000000 cycles: 14257613 heartbeat IPC: 2.10413 cumulative IPC: 2.10414 (Simulation time: 0 hr 1 min 33 sec) 
Heartbeat CPU 0 instructions: 40000002 cycles: 19009103 heartbeat IPC: 2.1046 cumulative IPC: 2.10426 (Simulation time: 0 hr 2 min 4 sec) 
Heartbeat CPU 0 instructions: 50000003 cycles: 25262684 heartbeat IPC: 1.59908 cumulative IPC: 1.9792 (Simulation time: 0 hr 2 min 36 sec) 

Warmup complete CPU 0 instructions: 50000003 cycles: 25262684 (Simulation time: 0 hr 2 min 36 sec) 

Heartbeat CPU 0 instructions: 60000001 cycles: 41414812 heartbeat IPC: 0.619113 cumulative IPC: 0.619113 (Simulation time: 0 hr 3 min 10 sec) 
Heartbeat CPU 0 instructions: 70000003 cycles: 57550040 heartbeat IPC: 0.619762 cumulative IPC: 0.619438 (Simulation time: 0 hr 3 min 46 sec) 
Heartbeat CPU 0 instructions: 80000000 cycles: 73667896 heartbeat IPC: 0.62043 cumulative IPC: 0.619768 (Simulation time: 0 hr 4 min 21 sec) 
Heartbeat CPU 0 instructions: 90000001 cycles: 89776972 heartbeat IPC: 0.620768 cumulative IPC: 0.620018 (Simulation time: 0 hr 4 min 58 sec) 
Heartbeat CPU 0 instructions: 100000000 cycles: 105885261 heartbeat IPC: 0.620798 cumulative IPC: 0.620174 (Simulation time: 0 hr 5 min 34 sec) 
Heartbeat CPU 0 instructions: 110000000 cycles: 121996554 heartbeat IPC: 0.620683 cumulative IPC: 0.620258 (Simulation time: 0 hr 6 min 11 sec) 
Heartbeat CPU 0 instructions: 120000001 cycles: 153325535 heartbeat IPC: 0.319193 cumulative IPC: 0.546607 (Simulation time: 0 hr 7 min 4 sec) 
Heartbeat CPU 0 instructions: 130000000 cycles: 169446821 heartbeat IPC: 0.620298 cumulative IPC: 0.554846 (Simulation time: 0 hr 7 min 41 sec) 
Heartbeat CPU 0 instructions: 140000003 cycles: 185568524 heartbeat IPC: 0.620282 cumulative IPC: 0.561427 (Simulation time: 0 hr 8 min 19 sec) 
Heartbeat CPU 0 instructions: 150000001 cycles: 201687865 heartbeat IPC: 0.620373 cumulative IPC: 0.566813 (Simulation time: 0 hr 8 min 56 sec) 
Heartbeat CPU 0 instructions: 160000001 cycles: 217795379 heartbeat IPC: 0.620828 cumulative IPC: 0.571332 (Simulation time: 0 hr 9 min 34 sec) 
Heartbeat CPU 0 instructions: 170000002 cycles: 233903283 heartbeat IPC: 0.620813 cumulative IPC: 0.575152 (Simulation time: 0 hr 10 min 12 sec) 
Heartbeat CPU 0 instructions: 180000000 cycles: 250010177 heartbeat IPC: 0.620852 cumulative IPC: 0.578427 (Simulation time: 0 hr 10 min 50 sec) 
Heartbeat CPU 0 instructions: 190000000 cycles: 266120188 heartbeat IPC: 0.620732 cumulative IPC: 0.581257 (Simulation time: 0 hr 11 min 29 sec) 
Heartbeat CPU 0 instructions: 200000003 cycles: 297939410 heartbeat IPC: 0.314276 cumulative IPC: 0.550102 (Simulation time: 0 hr 12 min 23 sec) 
Heartbeat CPU 0 instructions: 210000001 cycles: 314062505 heartbeat IPC: 0.620228 cumulative IPC: 0.554017 (Simulation time: 0 hr 13 min 1 sec) 
Heartbeat CPU 0 instructions: 220000000 cycles: 330184689 heartbeat IPC: 0.620263 cumulative IPC: 0.55752 (Simulation time: 0 hr 13 min 40 sec) 
Heartbeat CPU 0 instructions: 230000003 cycles: 346297488 heartbeat IPC: 0.620625 cumulative IPC: 0.560687 (Simulation time: 0 hr 14 min 18 sec) 
Heartbeat CPU 0 instructions: 240000003 cycles: 362405178 heartbeat IPC: 0.620821 cumulative IPC: 0.56356 (Simulation time: 0 hr 14 min 55 sec) 
Heartbeat CPU 0 instructions: 250000000 cycles: 378513150 heartbeat IPC: 0.62081 cumulative IPC: 0.566171 (Simulation time: 0 hr 15 min 32 sec) 
Finished CPU 0 instructions: 200000000 cycles: 353250496 cumulative IPC: 0.56617 (Simulation time: 0 hr 15 min 32 sec) 
 Instruction ID: 250000065

ChampSim completed all CPUs

Region of Interest Statistics

CPU 0 cumulative IPC: 0.56617 instructions: 200000000 cycles: 353250496
ITLB SPEC fills:          0  NON-SPEC fills:          0
ITLB Test counter :          0
ITLB Leapfrog:          0
ITLB MSHR merge:          0
ITLB TOTAL     ACCESS:   30513840  HIT:   30513832  MISS:          8  HIT %:        100  MISS %: 2.62176e-05   MPKI: 4e-05
ITLB LOAD TRANSLATION NON_SPEC    ACCESS:   30513840  HIT:   30513832  MISS:          8  HIT %:        100  MISS %: 2.62176e-05   MPKI: 4e-05
ITLB PREFETCH  REQUESTED:          0  ISSUED:          0  USEFUL:          0  USELESS:          0
ITLB USEFUL LOAD PREFETCHES:          0 PREFETCH ISSUED TO LOWER LEVEL:          0  ACCURACY: -nan
ITLB TIMELY PREFETCHES:          0 LATE PREFETCHES: 0 DROPPED PREFETCHES: 0
ITLB COMMIT LATE PREFETCHES: 0 MISSED OPPORTUNITY: 0 LATE IN PQ: 0 UNCOVERED: 0
ITLB COMMIT LATE MSHR PREFETCHES: 0
ITLB MPKI TOTAL: 0 MSHR LATE: 0 PQ LATE: 0 COMMIT LATE: 0 MISSED OPPORTUNITY: 0 UNCOVERED: 0
ITLB PREFETCHES SAME FILL-ORIGIN LEVEL: 0 DIFFERENT FILL-ORIGIN LEVEL: 0
ITLB AVERAGE MISS LATENCY: 386.875 cycles
ITLB AVERAGE MISS LATENCY LOAD: -nan cycles
ITLB AVERAGE MISS LATENCY PREFETCH: -nan cycles
ITLB AVERAGE MSHR OCCUPANCY: 0
ITLB MSHR FULL: 0
ITLB RQ	ACCESS:   39774568	FORWARD:          0	MERGED:    9260728	TO_CACHE:   30513840

DTLB SPEC fills:          0  NON-SPEC fills:          0
DTLB Test counter :          0
DTLB Leapfrog:          0
DTLB MSHR merge:          0
DTLB TOTAL     ACCESS:   43995185  HIT:   43982985  MISS:      12200  HIT %:    99.9723  MISS %:  0.0277303   MPKI: 0.061
DTLB LOAD TRANSLATION NON_SPEC    ACCESS:   43995185  HIT:   43982985  MISS:      12200  HIT %:    99.9723  MISS %:  0.0277303   MPKI: 0.061
DTLB PREFETCH  REQUESTED:          0  ISSUED:          0  USEFUL:          0  USELESS:          0
DTLB USEFUL LOAD PREFETCHES:          0 PREFETCH ISSUED TO LOWER LEVEL:          0  ACCURACY: -nan
DTLB TIMELY PREFETCHES:          0 LATE PREFETCHES: 0 DROPPED PREFETCHES: 0
DTLB COMMIT LATE PREFETCHES: 0 MISSED OPPORTUNITY: 0 LATE IN PQ: 0 UNCOVERED: 0
DTLB COMMIT LATE MSHR PREFETCHES: 0
DTLB MPKI TOTAL: 0 MSHR LATE: 0 PQ LATE: 0 COMMIT LATE: 0 MISSED OPPORTUNITY: 0 UNCOVERED: 0
DTLB PREFETCHES SAME FILL-ORIGIN LEVEL: 0 DIFFERENT FILL-ORIGIN LEVEL: 0
DTLB AVERAGE MISS LATENCY: 135.163 cycles
DTLB AVERAGE MISS LATENCY LOAD: -nan cycles
DTLB AVERAGE MISS LATENCY PREFETCH: -nan cycles
DTLB AVERAGE MSHR OCCUPANCY: 0.00167598
DTLB MSHR FULL: 0
DTLB RQ	ACCESS:   52969870	FORWARD:          0	MERGED:    8961114	TO_CACHE:   44008756

STLB SPEC fills:          0  NON-SPEC fills:          0
STLB Test counter :          0
STLB Leapfrog:          0
STLB MSHR merge:          0
STLB TOTAL     ACCESS:      12208  HIT:        858  MISS:      11350  HIT %:    7.02818  MISS %:    92.9718   MPKI: 0.05675
STLB LOAD TRANSLATION NON_SPEC    ACCESS:      12208  HIT:        858  MISS:      11350  HIT %:    7.02818  MISS %:    92.9718   MPKI: 0.05675
STLB PREFETCH  REQUESTED:          0  ISSUED:          0  USEFUL:          0  USELESS:          0
STLB USEFUL LOAD PREFETCHES:          0 PREFETCH ISSUED TO LOWER LEVEL:          0  ACCURACY: -nan
STLB TIMELY PREFETCHES:          0 LATE PREFETCHES: 0 DROPPED PREFETCHES: 0
STLB COMMIT LATE PREFETCHES: 0 MISSED OPPORTUNITY: 0 LATE IN PQ: 0 UNCOVERED: 0
STLB COMMIT LATE MSHR PREFETCHES: 0
STLB MPKI TOTAL: 0 MSHR LATE: 0 PQ LATE: 0 COMMIT LATE: 0 MISSED OPPORTUNITY: 0 UNCOVERED: 0
STLB PREFETCHES SAME FILL-ORIGIN LEVEL: 0 DIFFERENT FILL-ORIGIN LEVEL: 0
STLB AVERAGE MISS LATENCY: 135.869 cycles
STLB AVERAGE MISS LATENCY LOAD: -nan cycles
STLB AVERAGE MISS LATENCY PREFETCH: -nan cycles
STLB AVERAGE MSHR OCCUPANCY: 0.0131881
STLB MSHR FULL: 0
STLB RQ	ACCESS:      12208	FORWARD:          0	MERGED:          0	TO_CACHE:      12208

STLB Hit, L1D data hit: 0
STLB Hit, L2C data hit: 0
STLB Hit, LLC data hit: 0
STLB Hit, LLC data miss: 0
STLB STLB hints to L2: 0
L0D SPEC fills:   15303416  NON-SPEC fills:          0
L0D TimeGuard Request with older TS:       6507 Restricted eviction:       7722 read:     916572
L0D Test counter :          0
L0D Leapfrog:          0
L0D MSHR merge:     777247
L0D TOTAL     ACCESS:   30480255  HIT:    2349741  MISS:   28130514  HIT %:    7.70906  MISS %:    92.2909   MPKI: 140.653
L0D LOAD      TOTAL       ACCESS:   30480255  HIT:    2349741  MISS:   28130514  HIT %:    7.70906  MISS %:    92.2909   MPKI: 140.653
L0D LOAD      NON_SPEC    ACCESS:   12824117  HIT:       4741  MISS:   12819376  HIT %:  0.0369694  MISS %:     99.963   MPKI: 64.0969
L0D LOAD      SPEC        ACCESS:   17656138  HIT:    2345000  MISS:   15311138  HIT %:    13.2815  MISS %:    86.7185   MPKI: 76.5557
L0D PREFETCH  REQUESTED:          0  ISSUED:          0  USEFUL:          0  USELESS:          0
L0D USEFUL LOAD PREFETCHES:          0 PREFETCH ISSUED TO LOWER LEVEL:          0  ACCURACY: -nan
L0D TIMELY PREFETCHES:          0 LATE PREFETCHES: 0 DROPPED PREFETCHES: 0
L0D COMMIT LATE PREFETCHES: 0 MISSED OPPORTUNITY: 0 LATE IN PQ: 0 UNCOVERED: 0
L0D COMMIT LATE MSHR PREFETCHES: 0
L0D MPKI TOTAL: 144.539 MSHR LATE: 0 PQ LATE: 0 COMMIT LATE: 0 MISSED OPPORTUNITY: 0 UNCOVERED: 0
L0D PREFETCHES SAME FILL-ORIGIN LEVEL: 0 DIFFERENT FILL-ORIGIN LEVEL: 0
L0D AVERAGE MISS LATENCY: 7.7161 cycles
L0D AVERAGE MISS LATENCY LOAD: 7.7161 cycles
L0D AVERAGE MISS LATENCY PREFETCH: -nan cycles
L0D AVERAGE MSHR OCCUPANCY: 0.549669
L0D MSHR FULL: 0
L0D RQ	ACCESS:   40096878	FORWARD:          0	MERGED:    8839381	TO_CACHE:   31257497
L0D WQ	ACCESS:   21712373	FORWARD:          0	MERGED:          0	TO_CACHE:   21712373

L1D SPEC fills:          0  NON-SPEC fills:      84459
L1D Test counter :     254526
L1D Leapfrog:          0
L1D MSHR merge:         19
L1D TOTAL     ACCESS:   73105512  HIT:   72293691  MISS:     811821  HIT %:    98.8895  MISS %:    1.11048   MPKI: 4.0591
L1D LOAD      TOTAL       ACCESS:   28130494  HIT:   27793125  MISS:     337369  HIT %:    98.8007  MISS %:     1.1993   MPKI: 1.68684
L1D LOAD      NON_SPEC    ACCESS:   12819372  HIT:   12734913  MISS:      84459  HIT %:    99.3412  MISS %:   0.658839   MPKI: 0.422295
L1D LOAD      SPEC        ACCESS:   15311122  HIT:   15058212  MISS:     252910  HIT %:    98.3482  MISS %:    1.65181   MPKI: 1.26455
L1D RFO       NON_SPEC    ACCESS:   19578155  HIT:   19355028  MISS:     223127  HIT %:    98.8603  MISS %:    1.13967   MPKI: 1.11563
L1D COMMIT LOAD NON_SPEC    ACCESS:   10098525  HIT:   10098422  MISS:        103  HIT %:     99.999  MISS %: 0.00101995   MPKI: 0.000515
L1D COMMIT WRITE NON_SPEC    ACCESS:   15298338  HIT:   15047116  MISS:     251222  HIT %:    98.3578  MISS %:    1.64215   MPKI: 1.25611
L1D PREFETCH  REQUESTED:          0  ISSUED:          0  USEFUL:          0  USELESS:          0
L1D USEFUL LOAD PREFETCHES:          0 PREFETCH ISSUED TO LOWER LEVEL:          0  ACCURACY: -nan
L1D TIMELY PREFETCHES:          0 LATE PREFETCHES: 0 DROPPED PREFETCHES: 0
L1D COMMIT LATE PREFETCHES: 0 MISSED OPPORTUNITY: 0 LATE IN PQ: 0 UNCOVERED: 0
L1D COMMIT LATE MSHR PREFETCHES: 0
L1D MPKI TOTAL: 1.68694 MSHR LATE: 0 PQ LATE: 0 COMMIT LATE: 0 MISSED OPPORTUNITY: 0 UNCOVERED: 0
L1D PREFETCHES SAME FILL-ORIGIN LEVEL: 0 DIFFERENT FILL-ORIGIN LEVEL: 0
L1D AVERAGE MISS LATENCY: 149.62 cycles
L1D AVERAGE MISS LATENCY LOAD: 215.598 cycles
L1D AVERAGE MISS LATENCY PREFETCH: -nan cycles
L1D AVERAGE MSHR OCCUPANCY: 0.110155
L1D MSHR FULL: 0
L1D RQ	ACCESS:   40101566	FORWARD:          0	MERGED:    1531691	TO_CACHE:   38229084
L1D WQ	ACCESS:   37013974	FORWARD:     340791	MERGED:    1416868	TO_CACHE:   35597106

L1D UNIQUE REGIONS ACCESSED: 0
L1D REGIONS CONFLICTS: 0
L1D Cross Page Prefetch Requests: 0
L1D Same Page Prefetch Requests: 0
L1D ROI Sum of L1D PQ occupancy: 0
L1D PREFETCHES PUSHED FROM L2C: 0
L1I SPEC fills:          0  NON-SPEC fills:          0
L1I Test counter :          0
L1I Leapfrog:          0
L1I MSHR merge:         16
L1I TOTAL     ACCESS:   39774550  HIT:   39774444  MISS:        106  HIT %:    99.9997  MISS %: 0.000266502   MPKI: 0.00053
L1I LOAD      TOTAL       ACCESS:   39774550  HIT:   39774444  MISS:        106  HIT %:    99.9997  MISS %: 0.000266502   MPKI: 0.00053
L1I LOAD      NON_SPEC    ACCESS:   39774550  HIT:   39774444  MISS:        106  HIT %:    99.9997  MISS %: 0.000266502   MPKI: 0.00053
L1I PREFETCH  REQUESTED:          0  ISSUED:          0  USEFUL:          0  USELESS:          0
L1I USEFUL LOAD PREFETCHES:          0 PREFETCH ISSUED TO LOWER LEVEL:          0  ACCURACY: -nan
L1I TIMELY PREFETCHES:          0 LATE PREFETCHES: 0 DROPPED PREFETCHES: 0
L1I COMMIT LATE PREFETCHES: 0 MISSED OPPORTUNITY: 0 LATE IN PQ: 0 UNCOVERED: 0
L1I COMMIT LATE MSHR PREFETCHES: 0
L1I MPKI TOTAL: 0.00061 MSHR LATE: 0 PQ LATE: 0 COMMIT LATE: 0 MISSED OPPORTUNITY: 0 UNCOVERED: 0
L1I PREFETCHES SAME FILL-ORIGIN LEVEL: 0 DIFFERENT FILL-ORIGIN LEVEL: 0
L1I AVERAGE MISS LATENCY: 211.981 cycles
L1I AVERAGE MISS LATENCY LOAD: 211.981 cycles
L1I AVERAGE MISS LATENCY PREFETCH: -nan cycles
L1I AVERAGE MSHR OCCUPANCY: 1.53364e-06
L1I MSHR FULL: 0
L1I RQ	ACCESS:   57921081	FORWARD:          0	MERGED:   18146513	TO_CACHE:   39774568

BTB SPEC fills:          0  NON-SPEC fills:          0
BTB Test counter :          0
BTB Leapfrog:          0
BTB MSHR merge:          0
BTB TOTAL     ACCESS:   13350901  HIT:   11926181  MISS:    1424720  HIT %:    89.3287  MISS %:    10.6713   MPKI: 7.1236
BTB BRANCH_DIRECT_JUMP	ACCESS:    1424895  HIT:    1424857  MISS:         38
BTB BRANCH_INDIRECT	ACCESS:         16  HIT:         15  MISS:          1
BTB BRANCH_CONDITIONAL	ACCESS:    6226070  HIT:    6225943  MISS:        127
BTB BRANCH_DIRECT_CALL	ACCESS:    2849960  HIT:    2849915  MISS:         45
BTB BRANCH_INDIRECT_CALL	ACCESS:          0  HIT:          0  MISS:          0
BTB BRANCH_RETURN	ACCESS:    2849960  HIT:    1425451  MISS:    1424509
BTB BRANCH_OTHER ACCESS:          0  HIT:          0  MISS:          0

L2C SPEC fills:          0  NON-SPEC fills:      84459
L2C Test counter :     254773
L2C Leapfrog:          0
L2C MSHR merge:          0
L2C TOTAL     ACCESS:    1095096  HIT:     280727  MISS:     814369  HIT %:    25.6349  MISS %:    74.3651   MPKI: 4.07184
L2C LOAD      TOTAL       ACCESS:     337475  HIT:          7  MISS:     337468  HIT %: 0.00207423  MISS %:    99.9979   MPKI: 1.68734
L2C LOAD      NON_SPEC    ACCESS:      84565  HIT:          0  MISS:      84565  HIT %:          0  MISS %:        100   MPKI: 0.422825
L2C LOAD      SPEC        ACCESS:     252910  HIT:          7  MISS:     252903  HIT %: 0.00276778  MISS %:    99.9972   MPKI: 1.26452
L2C RFO       NON_SPEC    ACCESS:     223127  HIT:          0  MISS:     223127  HIT %:          0  MISS %:        100   MPKI: 1.11563
L2C WRITEBACK NON_SPEC    ACCESS:     223126  HIT:     222727  MISS:        399  HIT %:    99.8212  MISS %:   0.178823   MPKI: 0.001995
L2C CLEAN_EVICTION NON_SPEC    ACCESS:     254526  HIT:       3391  MISS:     251135  HIT %:    1.33228  MISS %:    98.6677   MPKI: 1.25568
L2C COMMIT LOAD NON_SPEC    ACCESS:        103  HIT:          0  MISS:        103  HIT %:          0  MISS %:        100   MPKI: 0.000515
L2C LOAD TRANSLATION NON_SPEC    ACCESS:      56739  HIT:      54602  MISS:       2137  HIT %:    96.2336  MISS %:    3.76637   MPKI: 0.010685
L2C PREFETCH  REQUESTED:          0  ISSUED:          0  USEFUL:          0  USELESS:          0
L2C USEFUL LOAD PREFETCHES:          0 PREFETCH ISSUED TO LOWER LEVEL:          0  ACCURACY: -nan
L2C TIMELY PREFETCHES:          0 LATE PREFETCHES: 0 DROPPED PREFETCHES: 0
L2C COMMIT LATE PREFETCHES: 0 MISSED OPPORTUNITY: 0 LATE IN PQ: 0 UNCOVERED: 0
L2C COMMIT LATE MSHR PREFETCHES: 0
L2C MPKI TOTAL: 1.68734 MSHR LATE: 0 PQ LATE: 0 COMMIT LATE: 0 MISSED OPPORTUNITY: 0 UNCOVERED: 0
L2C PREFETCHES SAME FILL-ORIGIN LEVEL: 0 DIFFERENT FILL-ORIGIN LEVEL: 0
L2C AVERAGE MISS LATENCY: 140.674 cycles
L2C AVERAGE MISS LATENCY LOAD: 203.567 cycles
L2C AVERAGE MISS LATENCY PREFETCH: -nan cycles
L2C AVERAGE MSHR OCCUPANCY: 0.859816
L2C MSHR FULL: 0
L2C RQ	ACCESS:     617444	FORWARD:          0	MERGED:          0	TO_CACHE:     617444
L2C WQ	ACCESS:     477652	FORWARD:          0	MERGED:          0	TO_CACHE:     477652

L2C Instructions Evicting Data 106
L2C Translations Evicting Data 2125
L2C Data Evicting Data 306530
L2C Instructions Evicting Instructions 0
L2C Translations Evicting Instructions 0
L2C Data Evicting Instructions 57
L2C Instructions Evicting Translations 0
L2C Translations Evicting Translations 12
L2C Data Evicting Translations 1102
L2C Dense regions hint from L2: 0
PSCL5 SPEC fills:          0  NON-SPEC fills:          0
PSCL5 Test counter :          0
PSCL5 Leapfrog:          0
PSCL5 MSHR merge:          0
PSCL5 TOTAL     ACCESS:          0  HIT:          0  MISS:          0  HIT %:       -nan  MISS %:       -nan   MPKI: 0
PSCL5 PREFETCH  REQUESTED:          0  ISSUED:          0  USEFUL:          0  USELESS:          0
PSCL5 USEFUL LOAD PREFETCHES:          0 PREFETCH ISSUED TO LOWER LEVEL:          0  ACCURACY: -nan
PSCL5 TIMELY PREFETCHES:          0 LATE PREFETCHES: 0 DROPPED PREFETCHES: 0
PSCL5 COMMIT LATE PREFETCHES: 0 MISSED OPPORTUNITY: 0 LATE IN PQ: 0 UNCOVERED: 0
PSCL5 COMMIT LATE MSHR PREFETCHES: 0
PSCL5 MPKI TOTAL: 0 MSHR LATE: 0 PQ LATE: 0 COMMIT LATE: 0 MISSED OPPORTUNITY: 0 UNCOVERED: 0
PSCL5 PREFETCHES SAME FILL-ORIGIN LEVEL: 0 DIFFERENT FILL-ORIGIN LEVEL: 0

PSCL4 SPEC fills:          0  NON-SPEC fills:          0
PSCL4 Test counter :          0
PSCL4 Leapfrog:          0
PSCL4 MSHR merge:          0
PSCL4 TOTAL     ACCESS:          0  HIT:          0  MISS:          0  HIT %:       -nan  MISS %:       -nan   MPKI: 0
PSCL4 PREFETCH  REQUESTED:          0  ISSUED:          0  USEFUL:          0  USELESS:          0
PSCL4 USEFUL LOAD PREFETCHES:          0 PREFETCH ISSUED TO LOWER LEVEL:          0  ACCURACY: -nan
PSCL4 TIMELY PREFETCHES:          0 LATE PREFETCHES: 0 DROPPED PREFETCHES: 0
PSCL4 COMMIT LATE PREFETCHES: 0 MISSED OPPORTUNITY: 0 LATE IN PQ: 0 UNCOVERED: 0
PSCL4 COMMIT LATE MSHR PREFETCHES: 0
PSCL4 MPKI TOTAL: 0 MSHR LATE: 0 PQ LATE: 0 COMMIT LATE: 0 MISSED OPPORTUNITY: 0 UNCOVERED: 0
PSCL4 PREFETCHES SAME FILL-ORIGIN LEVEL: 0 DIFFERENT FILL-ORIGIN LEVEL: 0

PSCL3 SPEC fills:          0  NON-SPEC fills:          0
PSCL3 Test counter :          0
PSCL3 Leapfrog:          0
PSCL3 MSHR merge:          0
PSCL3 TOTAL     ACCESS:          0  HIT:          0  MISS:          0  HIT %:       -nan  MISS %:       -nan   MPKI: 0
PSCL3 PREFETCH  REQUESTED:          0  ISSUED:          0  USEFUL:          0  USELESS:          0
PSCL3 USEFUL LOAD PREFETCHES:          0 PREFETCH ISSUED TO LOWER LEVEL:          0  ACCURACY: -nan
PSCL3 TIMELY PREFETCHES:          0 LATE PREFETCHES: 0 DROPPED PREFETCHES: 0
PSCL3 COMMIT LATE PREFETCHES: 0 MISSED OPPORTUNITY: 0 LATE IN PQ: 0 UNCOVERED: 0
PSCL3 COMMIT LATE MSHR PREFETCHES: 0
PSCL3 MPKI TOTAL: 0 MSHR LATE: 0 PQ LATE: 0 COMMIT LATE: 0 MISSED OPPORTUNITY: 0 UNCOVERED: 0
PSCL3 PREFETCHES SAME FILL-ORIGIN LEVEL: 0 DIFFERENT FILL-ORIGIN LEVEL: 0

PSCL2 SPEC fills:          0  NON-SPEC fills:          0
PSCL2 Test counter :          0
PSCL2 Leapfrog:          0
PSCL2 MSHR merge:          0
PSCL2 TOTAL     ACCESS:          0  HIT:          0  MISS:          0  HIT %:       -nan  MISS %:       -nan   MPKI: 0
PSCL2 PREFETCH  REQUESTED:          0  ISSUED:          0  USEFUL:          0  USELESS:          0
PSCL2 USEFUL LOAD PREFETCHES:          0 PREFETCH ISSUED TO LOWER LEVEL:          0  ACCURACY: -nan
PSCL2 TIMELY PREFETCHES:          0 LATE PREFETCHES: 0 DROPPED PREFETCHES: 0
PSCL2 COMMIT LATE PREFETCHES: 0 MISSED OPPORTUNITY: 0 LATE IN PQ: 0 UNCOVERED: 0
PSCL2 COMMIT LATE MSHR PREFETCHES: 0
PSCL2 MPKI TOTAL: 0 MSHR LATE: 0 PQ LATE: 0 COMMIT LATE: 0 MISSED OPPORTUNITY: 0 UNCOVERED: 0
PSCL2 PREFETCHES SAME FILL-ORIGIN LEVEL: 0 DIFFERENT FILL-ORIGIN LEVEL: 0

LLC SPEC fills:          0  NON-SPEC fills:      84459
LLC Test counter :     256164
LLC Leapfrog:          0
LLC MSHR merge:          0
LLC TOTAL     ACCESS:    1040324  HIT:     225774  MISS:     814550  HIT %:    21.7023  MISS %:    78.2977   MPKI: 4.07275
LLC LOAD      TOTAL       ACCESS:     337468  HIT:          0  MISS:     337468  HIT %:          0  MISS %:        100   MPKI: 1.68734
LLC LOAD      NON_SPEC    ACCESS:      84565  HIT:          0  MISS:      84565  HIT %:          0  MISS %:        100   MPKI: 0.422825
LLC LOAD      SPEC        ACCESS:     252903  HIT:          0  MISS:     252903  HIT %:          0  MISS %:        100   MPKI: 1.26452
LLC RFO       NON_SPEC    ACCESS:     223127  HIT:          1  MISS:     223126  HIT %: 0.000448175  MISS %:    99.9996   MPKI: 1.11563
LLC WRITEBACK NON_SPEC    ACCESS:     222716  HIT:     222317  MISS:        399  HIT %:    99.8208  MISS %:   0.179152   MPKI: 0.001995
LLC CLEAN_EVICTION NON_SPEC    ACCESS:     254773  HIT:       3451  MISS:     251322  HIT %:    1.35454  MISS %:    98.6455   MPKI: 1.25661
LLC COMMIT LOAD NON_SPEC    ACCESS:        103  HIT:          0  MISS:        103  HIT %:          0  MISS %:        100   MPKI: 0.000515
LLC LOAD TRANSLATION NON_SPEC    ACCESS:       2137  HIT:          5  MISS:       2132  HIT %:   0.233973  MISS %:     99.766   MPKI: 0.01066
LLC PREFETCH  REQUESTED:          0  ISSUED:          0  USEFUL:          0  USELESS:          0
LLC USEFUL LOAD PREFETCHES:          0 PREFETCH ISSUED TO LOWER LEVEL:          0  ACCURACY: -nan
LLC TIMELY PREFETCHES:          0 LATE PREFETCHES: 0 DROPPED PREFETCHES: 0
LLC COMMIT LATE PREFETCHES: 0 MISSED OPPORTUNITY: 0 LATE IN PQ: 0 UNCOVERED: 0
LLC COMMIT LATE MSHR PREFETCHES: 0
LLC MPKI TOTAL: 1.68734 MSHR LATE: 0 PQ LATE: 0 COMMIT LATE: 0 MISSED OPPORTUNITY: 0 UNCOVERED: 0
LLC PREFETCHES SAME FILL-ORIGIN LEVEL: 0 DIFFERENT FILL-ORIGIN LEVEL: 0
LLC AVERAGE MISS LATENCY: 122.623 cycles
LLC AVERAGE MISS LATENCY LOAD: 180.178 cycles
LLC AVERAGE MISS LATENCY PREFETCH: -nan cycles
LLC AVERAGE MSHR OCCUPANCY: 0.747887
LLC MSHR FULL: 0
LLC RQ	ACCESS:     562835	FORWARD:          0	MERGED:          0	TO_CACHE:     562835
LLC WQ	ACCESS:     477489	FORWARD:          0	MERGED:          0	TO_CACHE:     477489

LLC Dense regions hint to LLC: 0

RAW hits: 5673469
Loads Generated: 45770347
Loads sent to L1D: 40096878
Stores Generated: 21712374
Stores sent to L1D: 21712373
Major fault: 0 Minor fault: 7557
Allocated PAGES: 7557
Total Load insts: 49389739
Total Non-spec loads: 14646052
Percentage of speculative loads: 70.346

LeapFrogging counter: 0
Commit hits: 15301600 miss: 11971056
Commit hit %: 56.106 miss %: 43.894
Commits not translated: 0
Loads retired: 337369
Stores retired: 21712373
Cache fills: 337369
L1D response latency: 215.598 cycles
Load retirement latency: 259.292 cycles
OOO test counter: 0
Discarded buffer inserts: 15301600 hits: 1412 hit %: 0.00922779

DRAM Statistics
 CHANNEL 0
 RQ ROW_BUFFER_HIT:      65477  ROW_BUFFER_MISS:     497352
 DBUS_CONGESTED:         12
 WQ ROW_BUFFER_HIT:     174766  ROW_BUFFER_MISS:     302519  FULL:          0

 AVG_CONGESTED_CYCLE: 5
 All warmup complete: 2
Channel 0 Bank busy for read cycles: 0
Channel 0 Bank busy for write cycles: 0
Channel 0
Rank 0
0banks busy for read cycles: 252670941
0banks busy for write cycles: 186755
1banks busy for read cycles: 39782642
1banks busy for write cycles: 31067787
2banks busy for read cycles: 9434498
2banks busy for write cycles: 3430905
3banks busy for read cycles: 6395433
3banks busy for write cycles: 722443
4banks busy for read cycles: 106309
4banks busy for write cycles: 1299231
5banks busy for read cycles: 9029
5banks busy for write cycles: 793799
6banks busy for read cycles: 1262
6banks busy for write cycles: 245389
7banks busy for read cycles: 156
7banks busy for write cycles: 575850
8banks busy for read cycles: 0
8banks busy for write cycles: 6528068

CPU 0 Branch Prediction Accuracy: 99.9797% MPKI: 0.020805 Average ROB Occupancy at Mispredict: 105.859
Branch types
NOT_BRANCH: 179514591 89.7573%
BRANCH_DIRECT_JUMP: 1424895 0.712448%
BRANCH_INDIRECT: 16 8e-06%
BRANCH_CONDITIONAL: 13360262 6.68013%
BRANCH_DIRECT_CALL: 2849960 1.42498%
BRANCH_INDIRECT_CALL: 0 0%
BRANCH_RETURN: 2849960 1.42498%
BRANCH_OTHER: 0 0%

DRAM PAGES: 1048576
Allocated PAGES: 7557
