
*** ChampSim Multicore Out-of-Order Simulator ***

Warmup Instructions: 50000000
Simulation Instructions: 200000000
Number of CPUs: 1
LLC sets: 2048
LLC ways: 16
L0D sets: 16
L0D ways: 2
ROB size: 352
LQ size: 128
SQ size: 72
Secure Berti: OFF
Berti: OFF
Berti Fill: OFF
On commit prefetching: OFF
Hit-based filter: OFF
Time-guarding: ON
Free-slotting: ON
Leap-frogging: ON
Train prefetcher on L0D bypass: OFF
No translation penalty for prefetchers: OFF
Prefetch to L0D only: OFF
Prefetch to L1D only: OFF
Clean evictions: ON
Commit loads: ON
Commit write: ON
Fill commit loads to L2C, LLC: ON
DRAM IO FREQUENCY: 6400
ROB SIZE: 352
Off-chip DRAM Size: 4096 MB Channels: 1 Width: 64-bit Data Rate: 6400 MT/s
CPU 0 runs /home/sumon/secure_berti/GhostMinion/../../traces/spec/654.roms_s-294B.champsimtrace.xz
.xz
BTB has LRU replacement policy
ITLB has LRU replacement policy
DTLB has LRU replacement policy
STLB has LRU replacement policy
L1I has LRU replacement policy
L0D has LRU replacement policy
L1D has LRU replacement policy
L2C has LRU replacement policy
LLC has LRU replacement policy
Heartbeat CPU 0 instructions: 10000001 cycles: 3503431 heartbeat IPC: 2.85435 cumulative IPC: 2.85435 (Simulation time: 0 hr 0 min 34 sec) 
Heartbeat CPU 0 instructions: 20000000 cycles: 7006248 heartbeat IPC: 2.85484 cumulative IPC: 2.85459 (Simulation time: 0 hr 1 min 8 sec) 
Heartbeat CPU 0 instructions: 30000003 cycles: 10508620 heartbeat IPC: 2.85521 cumulative IPC: 2.8548 (Simulation time: 0 hr 1 min 42 sec) 
Heartbeat CPU 0 instructions: 40000001 cycles: 14011052 heartbeat IPC: 2.85516 cumulative IPC: 2.85489 (Simulation time: 0 hr 2 min 16 sec) 
Heartbeat CPU 0 instructions: 50000002 cycles: 17513698 heartbeat IPC: 2.85498 cumulative IPC: 2.85491 (Simulation time: 0 hr 2 min 50 sec) 

Warmup complete CPU 0 instructions: 50000002 cycles: 17513698 (Simulation time: 0 hr 2 min 50 sec) 

Heartbeat CPU 0 instructions: 60000002 cycles: 32517325 heartbeat IPC: 0.666506 cumulative IPC: 0.666506 (Simulation time: 0 hr 3 min 37 sec) 
Heartbeat CPU 0 instructions: 70000000 cycles: 47494870 heartbeat IPC: 0.667666 cumulative IPC: 0.667085 (Simulation time: 0 hr 4 min 24 sec) 
Heartbeat CPU 0 instructions: 80000001 cycles: 62526784 heartbeat IPC: 0.665251 cumulative IPC: 0.666473 (Simulation time: 0 hr 5 min 10 sec) 
Heartbeat CPU 0 instructions: 90000002 cycles: 77581925 heartbeat IPC: 0.664225 cumulative IPC: 0.665909 (Simulation time: 0 hr 5 min 57 sec) 
Heartbeat CPU 0 instructions: 100000001 cycles: 92631778 heartbeat IPC: 0.664458 cumulative IPC: 0.665619 (Simulation time: 0 hr 6 min 44 sec) 
Heartbeat CPU 0 instructions: 110000000 cycles: 107690471 heartbeat IPC: 0.664068 cumulative IPC: 0.66536 (Simulation time: 0 hr 7 min 30 sec) 
Heartbeat CPU 0 instructions: 120000002 cycles: 122702229 heartbeat IPC: 0.666145 cumulative IPC: 0.665472 (Simulation time: 0 hr 8 min 17 sec) 
Heartbeat CPU 0 instructions: 130000001 cycles: 137748763 heartbeat IPC: 0.664605 cumulative IPC: 0.665363 (Simulation time: 0 hr 9 min 4 sec) 
Heartbeat CPU 0 instructions: 140000000 cycles: 152788975 heartbeat IPC: 0.664884 cumulative IPC: 0.66531 (Simulation time: 0 hr 9 min 51 sec) 
Heartbeat CPU 0 instructions: 150000001 cycles: 167810724 heartbeat IPC: 0.665702 cumulative IPC: 0.665349 (Simulation time: 0 hr 10 min 38 sec) 
Heartbeat CPU 0 instructions: 160000000 cycles: 182811646 heartbeat IPC: 0.666626 cumulative IPC: 0.665465 (Simulation time: 0 hr 11 min 25 sec) 
Heartbeat CPU 0 instructions: 170000003 cycles: 197823277 heartbeat IPC: 0.66615 cumulative IPC: 0.665522 (Simulation time: 0 hr 12 min 12 sec) 
Heartbeat CPU 0 instructions: 180000003 cycles: 212858309 heartbeat IPC: 0.665113 cumulative IPC: 0.665491 (Simulation time: 0 hr 12 min 58 sec) 
Heartbeat CPU 0 instructions: 190000002 cycles: 227879572 heartbeat IPC: 0.665723 cumulative IPC: 0.665507 (Simulation time: 0 hr 13 min 45 sec) 
Heartbeat CPU 0 instructions: 200000001 cycles: 242946589 heartbeat IPC: 0.663701 cumulative IPC: 0.665386 (Simulation time: 0 hr 14 min 31 sec) 
Heartbeat CPU 0 instructions: 210000002 cycles: 258002412 heartbeat IPC: 0.664195 cumulative IPC: 0.665312 (Simulation time: 0 hr 15 min 17 sec) 
Heartbeat CPU 0 instructions: 220000000 cycles: 273054871 heartbeat IPC: 0.664343 cumulative IPC: 0.665255 (Simulation time: 0 hr 16 min 2 sec) 
Heartbeat CPU 0 instructions: 230000001 cycles: 288071320 heartbeat IPC: 0.665936 cumulative IPC: 0.665293 (Simulation time: 0 hr 16 min 46 sec) 
Heartbeat CPU 0 instructions: 240000002 cycles: 303096640 heartbeat IPC: 0.665543 cumulative IPC: 0.665306 (Simulation time: 0 hr 17 min 30 sec) 
Heartbeat CPU 0 instructions: 250000000 cycles: 318099191 heartbeat IPC: 0.666553 cumulative IPC: 0.665368 (Simulation time: 0 hr 18 min 14 sec) 
Finished CPU 0 instructions: 200000002 cycles: 300585494 cumulative IPC: 0.665368 (Simulation time: 0 hr 18 min 14 sec) 
 Instruction ID: 250000264

ChampSim completed all CPUs

Region of Interest Statistics

CPU 0 cumulative IPC: 0.665368 instructions: 200000002 cycles: 300585494
ITLB SPEC fills:          0  NON-SPEC fills:          0
ITLB Test counter :          0
ITLB Leapfrog:          0
ITLB MSHR merge:          0
ITLB TOTAL     ACCESS:   29759269  HIT:   29759269  MISS:          0  HIT %:        100  MISS %:          0   MPKI: 0
ITLB LOAD TRANSLATION NON_SPEC    ACCESS:   29759269  HIT:   29759269  MISS:          0  HIT %:        100  MISS %:          0   MPKI: 0
ITLB PREFETCH  REQUESTED:          0  ISSUED:          0  USEFUL:          0  USELESS:          0
ITLB USEFUL LOAD PREFETCHES:          0 PREFETCH ISSUED TO LOWER LEVEL:          0  ACCURACY: -nan
ITLB TIMELY PREFETCHES:          0 LATE PREFETCHES: 0 DROPPED PREFETCHES: 0
ITLB COMMIT LATE PREFETCHES: 0 MISSED OPPORTUNITY: 0 LATE IN PQ: 0 UNCOVERED: 0
ITLB COMMIT LATE MSHR PREFETCHES: 0
ITLB MPKI TOTAL: 0 MSHR LATE: 0 PQ LATE: 0 COMMIT LATE: 0 MISSED OPPORTUNITY: 0 UNCOVERED: 0
ITLB PREFETCHES SAME FILL-ORIGIN LEVEL: 0 DIFFERENT FILL-ORIGIN LEVEL: 0
ITLB AVERAGE MISS LATENCY: -nan cycles
ITLB AVERAGE MISS LATENCY LOAD: -nan cycles
ITLB AVERAGE MISS LATENCY PREFETCH: -nan cycles
ITLB AVERAGE MSHR OCCUPANCY: 0
ITLB MSHR FULL: 0
ITLB RQ	ACCESS:   36069632	FORWARD:          0	MERGED:    6310364	TO_CACHE:   29759268

DTLB SPEC fills:          0  NON-SPEC fills:          0
DTLB Test counter :          0
DTLB Leapfrog:          0
DTLB MSHR merge:          0
DTLB TOTAL     ACCESS:   53223875  HIT:   53139259  MISS:      84616  HIT %:     99.841  MISS %:   0.158981   MPKI: 0.42308
DTLB LOAD TRANSLATION NON_SPEC    ACCESS:   53223875  HIT:   53139259  MISS:      84616  HIT %:     99.841  MISS %:   0.158981   MPKI: 0.42308
DTLB PREFETCH  REQUESTED:          0  ISSUED:          0  USEFUL:          0  USELESS:          0
DTLB USEFUL LOAD PREFETCHES:          0 PREFETCH ISSUED TO LOWER LEVEL:          0  ACCURACY: -nan
DTLB TIMELY PREFETCHES:          0 LATE PREFETCHES: 0 DROPPED PREFETCHES: 0
DTLB COMMIT LATE PREFETCHES: 0 MISSED OPPORTUNITY: 0 LATE IN PQ: 0 UNCOVERED: 0
DTLB COMMIT LATE MSHR PREFETCHES: 0
DTLB MPKI TOTAL: 0 MSHR LATE: 0 PQ LATE: 0 COMMIT LATE: 0 MISSED OPPORTUNITY: 0 UNCOVERED: 0
DTLB PREFETCHES SAME FILL-ORIGIN LEVEL: 0 DIFFERENT FILL-ORIGIN LEVEL: 0
DTLB AVERAGE MISS LATENCY: 425.018 cycles
DTLB AVERAGE MISS LATENCY LOAD: -nan cycles
DTLB AVERAGE MISS LATENCY PREFETCH: -nan cycles
DTLB AVERAGE MSHR OCCUPANCY: 0.0201066
DTLB MSHR FULL: 2.02877e-06
DTLB RQ	ACCESS:   58465001	FORWARD:          0	MERGED:    5230936	TO_CACHE:   53234065

STLB SPEC fills:          0  NON-SPEC fills:          0
STLB Test counter :          0
STLB Leapfrog:          0
STLB MSHR merge:          0
STLB TOTAL     ACCESS:      84616  HIT:      18860  MISS:      65756  HIT %:    22.2889  MISS %:    77.7111   MPKI: 0.32878
STLB LOAD TRANSLATION NON_SPEC    ACCESS:      84616  HIT:      18860  MISS:      65756  HIT %:    22.2889  MISS %:    77.7111   MPKI: 0.32878
STLB PREFETCH  REQUESTED:          0  ISSUED:          0  USEFUL:          0  USELESS:          0
STLB USEFUL LOAD PREFETCHES:          0 PREFETCH ISSUED TO LOWER LEVEL:          0  ACCURACY: -nan
STLB TIMELY PREFETCHES:          0 LATE PREFETCHES: 0 DROPPED PREFETCHES: 0
STLB COMMIT LATE PREFETCHES: 0 MISSED OPPORTUNITY: 0 LATE IN PQ: 0 UNCOVERED: 0
STLB COMMIT LATE MSHR PREFETCHES: 0
STLB MPKI TOTAL: 0 MSHR LATE: 0 PQ LATE: 0 COMMIT LATE: 0 MISSED OPPORTUNITY: 0 UNCOVERED: 0
STLB PREFETCHES SAME FILL-ORIGIN LEVEL: 0 DIFFERENT FILL-ORIGIN LEVEL: 0
STLB AVERAGE MISS LATENCY: 534.987 cycles
STLB AVERAGE MISS LATENCY LOAD: -nan cycles
STLB AVERAGE MISS LATENCY PREFETCH: -nan cycles
STLB AVERAGE MSHR OCCUPANCY: 1.1924
STLB MSHR FULL: 0
STLB RQ	ACCESS:      84616	FORWARD:          0	MERGED:          0	TO_CACHE:      84616

STLB Hit, L1D data hit: 0
STLB Hit, L2C data hit: 0
STLB Hit, LLC data hit: 0
STLB Hit, LLC data miss: 0
STLB STLB hints to L2: 0
L0D SPEC fills:   27507146  NON-SPEC fills:          0
L0D TimeGuard Request with older TS:    1931523 Restricted eviction:    2081064 read:     545068
L0D Test counter :          0
L0D Leapfrog:          0
L0D MSHR merge:    5241470
L0D TOTAL     ACCESS:   46422836  HIT:   11070793  MISS:   35352043  HIT %:    23.8477  MISS %:    76.1523   MPKI: 176.76
L0D LOAD      TOTAL       ACCESS:   46422836  HIT:   11070793  MISS:   35352043  HIT %:    23.8477  MISS %:    76.1523   MPKI: 176.76
L0D LOAD      NON_SPEC    ACCESS:    6103874  HIT:     340041  MISS:    5763833  HIT %:     5.5709  MISS %:    94.4291   MPKI: 28.8192
L0D LOAD      SPEC        ACCESS:   40318962  HIT:   10730752  MISS:   29588210  HIT %:    26.6147  MISS %:    73.3853   MPKI: 147.941
L0D PREFETCH  REQUESTED:          0  ISSUED:          0  USEFUL:          0  USELESS:          0
L0D USEFUL LOAD PREFETCHES:          0 PREFETCH ISSUED TO LOWER LEVEL:          0  ACCURACY: -nan
L0D TIMELY PREFETCHES:          0 LATE PREFETCHES: 0 DROPPED PREFETCHES: 0
L0D COMMIT LATE PREFETCHES: 0 MISSED OPPORTUNITY: 0 LATE IN PQ: 0 UNCOVERED: 0
L0D COMMIT LATE MSHR PREFETCHES: 0
L0D MPKI TOTAL: 202.968 MSHR LATE: 0 PQ LATE: 0 COMMIT LATE: 0 MISSED OPPORTUNITY: 0 UNCOVERED: 0
L0D PREFETCHES SAME FILL-ORIGIN LEVEL: 0 DIFFERENT FILL-ORIGIN LEVEL: 0
L0D AVERAGE MISS LATENCY: 18.6097 cycles
L0D AVERAGE MISS LATENCY LOAD: 18.6097 cycles
L0D AVERAGE MISS LATENCY PREFETCH: -nan cycles
L0D AVERAGE MSHR OCCUPANCY: 2.33547
L0D MSHR FULL: 0.00132353
L0D RQ	ACCESS:   76447332	FORWARD:          0	MERGED:   24783022	TO_CACHE:   51664310
L0D WQ	ACCESS:    6800691	FORWARD:          0	MERGED:          0	TO_CACHE:    6800691

L1D SPEC fills:          0  NON-SPEC fills:      80085
L1D Test counter :    2549913
L1D Leapfrog:          0
L1D MSHR merge:      58309
L1D TOTAL     ACCESS:   87609669  HIT:   82459068  MISS:    5150601  HIT %:     94.121  MISS %:    5.87903   MPKI: 25.753
L1D LOAD      TOTAL       ACCESS:   35293734  HIT:   32649658  MISS:    2644076  HIT %:    92.5084  MISS %:    7.49163   MPKI: 13.2204
L1D LOAD      NON_SPEC    ACCESS:    5763612  HIT:    5683527  MISS:      80085  HIT %:    98.6105  MISS %:    1.38949   MPKI: 0.400425
L1D LOAD      SPEC        ACCESS:   29530122  HIT:   26966131  MISS:    2563991  HIT %:    91.3174  MISS %:    8.68263   MPKI: 12.82
L1D RFO       NON_SPEC    ACCESS:    4247295  HIT:    4227804  MISS:      19491  HIT %:    99.5411  MISS %:   0.458904   MPKI: 0.097455
L1D COMMIT LOAD NON_SPEC    ACCESS:   22039503  HIT:   21962236  MISS:      77267  HIT %:    99.6494  MISS %:   0.350584   MPKI: 0.386335
L1D COMMIT WRITE NON_SPEC    ACCESS:   26029137  HIT:   23619370  MISS:    2409767  HIT %:     90.742  MISS %:    9.25796   MPKI: 12.0488
L1D PREFETCH  REQUESTED:          0  ISSUED:          0  USEFUL:          0  USELESS:          0
L1D USEFUL LOAD PREFETCHES:          0 PREFETCH ISSUED TO LOWER LEVEL:          0  ACCURACY: -nan
L1D TIMELY PREFETCHES:          0 LATE PREFETCHES: 0 DROPPED PREFETCHES: 0
L1D COMMIT LATE PREFETCHES: 0 MISSED OPPORTUNITY: 0 LATE IN PQ: 0 UNCOVERED: 0
L1D COMMIT LATE MSHR PREFETCHES: 0
L1D MPKI TOTAL: 13.5119 MSHR LATE: 0 PQ LATE: 0 COMMIT LATE: 0 MISSED OPPORTUNITY: 0 UNCOVERED: 0
L1D PREFETCHES SAME FILL-ORIGIN LEVEL: 0 DIFFERENT FILL-ORIGIN LEVEL: 0
L1D AVERAGE MISS LATENCY: 94.4156 cycles
L1D AVERAGE MISS LATENCY LOAD: 178.16 cycles
L1D AVERAGE MISS LATENCY PREFETCH: -nan cycles
L1D AVERAGE MSHR OCCUPANCY: 0.738414
L1D MSHR FULL: 0.000834719
L1D RQ	ACCESS:   79553981	FORWARD:          0	MERGED:   22134201	TO_CACHE:   57419780
L1D WQ	ACCESS:   32822558	FORWARD:          0	MERGED:    2449102	TO_CACHE:   30373456

L1D UNIQUE REGIONS ACCESSED: 0
L1D REGIONS CONFLICTS: 0
L1D Cross Page Prefetch Requests: 0
L1D Same Page Prefetch Requests: 0
L1D ROI Sum of L1D PQ occupancy: 0
L1D PREFETCHES PUSHED FROM L2C: 0
L1I SPEC fills:          0  NON-SPEC fills:          0
L1I Test counter :          0
L1I Leapfrog:          0
L1I MSHR merge:          0
L1I TOTAL     ACCESS:   36069633  HIT:   36069633  MISS:          0  HIT %:        100  MISS %:          0   MPKI: 0
L1I LOAD      TOTAL       ACCESS:   36069633  HIT:   36069633  MISS:          0  HIT %:        100  MISS %:          0   MPKI: 0
L1I LOAD      NON_SPEC    ACCESS:   36069633  HIT:   36069633  MISS:          0  HIT %:        100  MISS %:          0   MPKI: 0
L1I PREFETCH  REQUESTED:          0  ISSUED:          0  USEFUL:          0  USELESS:          0
L1I USEFUL LOAD PREFETCHES:          0 PREFETCH ISSUED TO LOWER LEVEL:          0  ACCURACY: -nan
L1I TIMELY PREFETCHES:          0 LATE PREFETCHES: 0 DROPPED PREFETCHES: 0
L1I COMMIT LATE PREFETCHES: 0 MISSED OPPORTUNITY: 0 LATE IN PQ: 0 UNCOVERED: 0
L1I COMMIT LATE MSHR PREFETCHES: 0
L1I MPKI TOTAL: 0 MSHR LATE: 0 PQ LATE: 0 COMMIT LATE: 0 MISSED OPPORTUNITY: 0 UNCOVERED: 0
L1I PREFETCHES SAME FILL-ORIGIN LEVEL: 0 DIFFERENT FILL-ORIGIN LEVEL: 0
L1I AVERAGE MISS LATENCY: -nan cycles
L1I AVERAGE MISS LATENCY LOAD: -nan cycles
L1I AVERAGE MISS LATENCY PREFETCH: -nan cycles
L1I AVERAGE MSHR OCCUPANCY: 0
L1I MSHR FULL: 0
L1I RQ	ACCESS:   57857207	FORWARD:          0	MERGED:   21787575	TO_CACHE:   36069632

BTB SPEC fills:          0  NON-SPEC fills:          0
BTB Test counter :          0
BTB Leapfrog:          0
BTB MSHR merge:          0
BTB TOTAL     ACCESS:   10024830  HIT:   10024819  MISS:         11  HIT %:    99.9999  MISS %: 0.000109728   MPKI: 5.5e-05
BTB BRANCH_DIRECT_JUMP	ACCESS:        162  HIT:        161  MISS:          1
BTB BRANCH_INDIRECT	ACCESS:          0  HIT:          0  MISS:          0
BTB BRANCH_CONDITIONAL	ACCESS:   10024344  HIT:   10024336  MISS:          8
BTB BRANCH_DIRECT_CALL	ACCESS:        162  HIT:        161  MISS:          1
BTB BRANCH_INDIRECT_CALL	ACCESS:          0  HIT:          0  MISS:          0
BTB BRANCH_RETURN	ACCESS:        162  HIT:        161  MISS:          1
BTB BRANCH_OTHER ACCESS:          0  HIT:          0  MISS:          0

L2C SPEC fills:          0  NON-SPEC fills:      71379
L2C Test counter :    2540459
L2C Leapfrog:          0
L2C MSHR merge:          0
L2C TOTAL     ACCESS:    5646883  HIT:     449829  MISS:    5197054  HIT %:    7.96597  MISS %:     92.034   MPKI: 25.9853
L2C LOAD      TOTAL       ACCESS:    2643675  HIT:      18337  MISS:    2625338  HIT %:   0.693618  MISS %:    99.3064   MPKI: 13.1267
L2C LOAD      NON_SPEC    ACCESS:      79699  HIT:       8320  MISS:      71379  HIT %:    10.4393  MISS %:    89.5607   MPKI: 0.356895
L2C LOAD      SPEC        ACCESS:    2563976  HIT:      10017  MISS:    2553959  HIT %:   0.390682  MISS %:    99.6093   MPKI: 12.7698
L2C RFO       NON_SPEC    ACCESS:      19491  HIT:         14  MISS:      19477  HIT %:   0.071828  MISS %:    99.9282   MPKI: 0.097385
L2C WRITEBACK NON_SPEC    ACCESS:      28021  HIT:       9824  MISS:      18197  HIT %:    35.0594  MISS %:    64.9406   MPKI: 0.090985
L2C CLEAN_EVICTION NON_SPEC    ACCESS:    2549913  HIT:     147716  MISS:    2402197  HIT %:    5.79298  MISS %:     94.207   MPKI: 12.011
L2C COMMIT LOAD NON_SPEC    ACCESS:      77262  HIT:        258  MISS:      77004  HIT %:   0.333929  MISS %:    99.6661   MPKI: 0.38502
L2C LOAD TRANSLATION NON_SPEC    ACCESS:     328521  HIT:     273680  MISS:      54841  HIT %:    83.3067  MISS %:    16.6933   MPKI: 0.274205
L2C PREFETCH  REQUESTED:          0  ISSUED:          0  USEFUL:          0  USELESS:          0
L2C USEFUL LOAD PREFETCHES:          0 PREFETCH ISSUED TO LOWER LEVEL:          0  ACCURACY: -nan
L2C TIMELY PREFETCHES:          0 LATE PREFETCHES: 0 DROPPED PREFETCHES: 0
L2C COMMIT LATE PREFETCHES: 0 MISSED OPPORTUNITY: 0 LATE IN PQ: 0 UNCOVERED: 0
L2C COMMIT LATE MSHR PREFETCHES: 0
L2C MPKI TOTAL: 13.1267 MSHR LATE: 0 PQ LATE: 0 COMMIT LATE: 0 MISSED OPPORTUNITY: 0 UNCOVERED: 0
L2C PREFETCHES SAME FILL-ORIGIN LEVEL: 0 DIFFERENT FILL-ORIGIN LEVEL: 0
L2C AVERAGE MISS LATENCY: 88.5173 cycles
L2C AVERAGE MISS LATENCY LOAD: 168.19 cycles
L2C AVERAGE MISS LATENCY PREFETCH: -nan cycles
L2C AVERAGE MSHR OCCUPANCY: 1.68384
L2C MSHR FULL: 0
L2C RQ	ACCESS:    3069357	FORWARD:          0	MERGED:          0	TO_CACHE:    3068951
L2C WQ	ACCESS:    2577934	FORWARD:        406	MERGED:          0	TO_CACHE:    2577934

L2C Instructions Evicting Data 0
L2C Translations Evicting Data 53885
L2C Data Evicting Data 164482
L2C Instructions Evicting Instructions 0
L2C Translations Evicting Instructions 0
L2C Data Evicting Instructions 0
L2C Instructions Evicting Translations 0
L2C Translations Evicting Translations 956
L2C Data Evicting Translations 3378
L2C Dense regions hint from L2: 0
PSCL5 SPEC fills:          0  NON-SPEC fills:          0
PSCL5 Test counter :          0
PSCL5 Leapfrog:          0
PSCL5 MSHR merge:          0
PSCL5 TOTAL     ACCESS:          0  HIT:          0  MISS:          0  HIT %:       -nan  MISS %:       -nan   MPKI: 0
PSCL5 PREFETCH  REQUESTED:          0  ISSUED:          0  USEFUL:          0  USELESS:          0
PSCL5 USEFUL LOAD PREFETCHES:          0 PREFETCH ISSUED TO LOWER LEVEL:          0  ACCURACY: -nan
PSCL5 TIMELY PREFETCHES:          0 LATE PREFETCHES: 0 DROPPED PREFETCHES: 0
PSCL5 COMMIT LATE PREFETCHES: 0 MISSED OPPORTUNITY: 0 LATE IN PQ: 0 UNCOVERED: 0
PSCL5 COMMIT LATE MSHR PREFETCHES: 0
PSCL5 MPKI TOTAL: 0 MSHR LATE: 0 PQ LATE: 0 COMMIT LATE: 0 MISSED OPPORTUNITY: 0 UNCOVERED: 0
PSCL5 PREFETCHES SAME FILL-ORIGIN LEVEL: 0 DIFFERENT FILL-ORIGIN LEVEL: 0

PSCL4 SPEC fills:          0  NON-SPEC fills:          0
PSCL4 Test counter :          0
PSCL4 Leapfrog:          0
PSCL4 MSHR merge:          0
PSCL4 TOTAL     ACCESS:          0  HIT:          0  MISS:          0  HIT %:       -nan  MISS %:       -nan   MPKI: 0
PSCL4 PREFETCH  REQUESTED:          0  ISSUED:          0  USEFUL:          0  USELESS:          0
PSCL4 USEFUL LOAD PREFETCHES:          0 PREFETCH ISSUED TO LOWER LEVEL:          0  ACCURACY: -nan
PSCL4 TIMELY PREFETCHES:          0 LATE PREFETCHES: 0 DROPPED PREFETCHES: 0
PSCL4 COMMIT LATE PREFETCHES: 0 MISSED OPPORTUNITY: 0 LATE IN PQ: 0 UNCOVERED: 0
PSCL4 COMMIT LATE MSHR PREFETCHES: 0
PSCL4 MPKI TOTAL: 0 MSHR LATE: 0 PQ LATE: 0 COMMIT LATE: 0 MISSED OPPORTUNITY: 0 UNCOVERED: 0
PSCL4 PREFETCHES SAME FILL-ORIGIN LEVEL: 0 DIFFERENT FILL-ORIGIN LEVEL: 0

PSCL3 SPEC fills:          0  NON-SPEC fills:          0
PSCL3 Test counter :          0
PSCL3 Leapfrog:          0
PSCL3 MSHR merge:          0
PSCL3 TOTAL     ACCESS:          0  HIT:          0  MISS:          0  HIT %:       -nan  MISS %:       -nan   MPKI: 0
PSCL3 PREFETCH  REQUESTED:          0  ISSUED:          0  USEFUL:          0  USELESS:          0
PSCL3 USEFUL LOAD PREFETCHES:          0 PREFETCH ISSUED TO LOWER LEVEL:          0  ACCURACY: -nan
PSCL3 TIMELY PREFETCHES:          0 LATE PREFETCHES: 0 DROPPED PREFETCHES: 0
PSCL3 COMMIT LATE PREFETCHES: 0 MISSED OPPORTUNITY: 0 LATE IN PQ: 0 UNCOVERED: 0
PSCL3 COMMIT LATE MSHR PREFETCHES: 0
PSCL3 MPKI TOTAL: 0 MSHR LATE: 0 PQ LATE: 0 COMMIT LATE: 0 MISSED OPPORTUNITY: 0 UNCOVERED: 0
PSCL3 PREFETCHES SAME FILL-ORIGIN LEVEL: 0 DIFFERENT FILL-ORIGIN LEVEL: 0

PSCL2 SPEC fills:          0  NON-SPEC fills:          0
PSCL2 Test counter :          0
PSCL2 Leapfrog:          0
PSCL2 MSHR merge:          0
PSCL2 TOTAL     ACCESS:          0  HIT:          0  MISS:          0  HIT %:       -nan  MISS %:       -nan   MPKI: 0
PSCL2 PREFETCH  REQUESTED:          0  ISSUED:          0  USEFUL:          0  USELESS:          0
PSCL2 USEFUL LOAD PREFETCHES:          0 PREFETCH ISSUED TO LOWER LEVEL:          0  ACCURACY: -nan
PSCL2 TIMELY PREFETCHES:          0 LATE PREFETCHES: 0 DROPPED PREFETCHES: 0
PSCL2 COMMIT LATE PREFETCHES: 0 MISSED OPPORTUNITY: 0 LATE IN PQ: 0 UNCOVERED: 0
PSCL2 COMMIT LATE MSHR PREFETCHES: 0
PSCL2 MPKI TOTAL: 0 MSHR LATE: 0 PQ LATE: 0 COMMIT LATE: 0 MISSED OPPORTUNITY: 0 UNCOVERED: 0
PSCL2 PREFETCHES SAME FILL-ORIGIN LEVEL: 0 DIFFERENT FILL-ORIGIN LEVEL: 0

LLC SPEC fills:          0  NON-SPEC fills:      67760
LLC Test counter :    2119269
LLC Leapfrog:          0
LLC MSHR merge:          0
LLC TOTAL     ACCESS:    5338872  HIT:    1055398  MISS:    4283474  HIT %:    19.7682  MISS %:    80.2318   MPKI: 21.4174
LLC LOAD      TOTAL       ACCESS:    2625338  HIT:     436608  MISS:    2188730  HIT %:    16.6305  MISS %:    83.3695   MPKI: 10.9436
LLC LOAD      NON_SPEC    ACCESS:      71379  HIT:       3619  MISS:      67760  HIT %:    5.07012  MISS %:    94.9299   MPKI: 0.3388
LLC LOAD      SPEC        ACCESS:    2553959  HIT:     432989  MISS:    2120970  HIT %:    16.9536  MISS %:    83.0464   MPKI: 10.6048
LLC RFO       NON_SPEC    ACCESS:      19477  HIT:        162  MISS:      19315  HIT %:    0.83175  MISS %:    99.1682   MPKI: 0.096575
LLC WRITEBACK NON_SPEC    ACCESS:      21753  HIT:      21141  MISS:        612  HIT %:    97.1866  MISS %:    2.81341   MPKI: 0.00306
LLC CLEAN_EVICTION NON_SPEC    ACCESS:    2540459  HIT:     500009  MISS:    2040450  HIT %:    19.6818  MISS %:    80.3182   MPKI: 10.2022
LLC COMMIT LOAD NON_SPEC    ACCESS:      77004  HIT:      59194  MISS:      17810  HIT %:    76.8713  MISS %:    23.1287   MPKI: 0.08905
LLC LOAD TRANSLATION NON_SPEC    ACCESS:      54841  HIT:      38284  MISS:      16557  HIT %:    69.8091  MISS %:    30.1909   MPKI: 0.082785
LLC PREFETCH  REQUESTED:          0  ISSUED:          0  USEFUL:          0  USELESS:          0
LLC USEFUL LOAD PREFETCHES:          0 PREFETCH ISSUED TO LOWER LEVEL:          0  ACCURACY: -nan
LLC TIMELY PREFETCHES:          0 LATE PREFETCHES: 0 DROPPED PREFETCHES: 0
LLC COMMIT LATE PREFETCHES: 0 MISSED OPPORTUNITY: 0 LATE IN PQ: 0 UNCOVERED: 0
LLC COMMIT LATE MSHR PREFETCHES: 0
LLC MPKI TOTAL: 10.9436 MSHR LATE: 0 PQ LATE: 0 COMMIT LATE: 0 MISSED OPPORTUNITY: 0 UNCOVERED: 0
LLC PREFETCHES SAME FILL-ORIGIN LEVEL: 0 DIFFERENT FILL-ORIGIN LEVEL: 0
LLC AVERAGE MISS LATENCY: 93.0114 cycles
LLC AVERAGE MISS LATENCY LOAD: 175.723 cycles
LLC AVERAGE MISS LATENCY PREFETCH: -nan cycles
LLC AVERAGE MSHR OCCUPANCY: 1.21307
LLC MSHR FULL: 0
LLC RQ	ACCESS:    2776661	FORWARD:          0	MERGED:          0	TO_CACHE:    2776661
LLC WQ	ACCESS:    2562212	FORWARD:          0	MERGED:          0	TO_CACHE:    2562212

LLC Dense regions hint to LLC: 0

RAW hits: 426
Loads Generated: 76447765
Loads sent to L1D: 76447332
Stores Generated: 6800691
Stores sent to L1D: 6800691
Major fault: 0 Minor fault: 82777
Allocated PAGES: 82777
Total Load insts: 95559910
Total Non-spec loads: 7173874
Percentage of speculative loads: 92.4928

LeapFrogging counter: 1119
Commit hits: 26029351 miss: 44201936
Commit hit %: 37.0623 miss %: 62.9377
Commits not translated: 0
Loads retired: 2644076
Stores retired: 6800691
Cache fills: 2644076
L1D response latency: 178.16 cycles
Load retirement latency: 245.926 cycles
OOO test counter: 0
Discarded buffer inserts: 26029351 hits: 61785 hit %: 0.237367

DRAM Statistics
 CHANNEL 0
 RQ ROW_BUFFER_HIT:     927385  ROW_BUFFER_MISS:    1315027
 DBUS_CONGESTED:       6690
 WQ ROW_BUFFER_HIT:     788086  ROW_BUFFER_MISS:    1352179  FULL:      85682

 AVG_CONGESTED_CYCLE: 5
 All warmup complete: 2
Channel 0 Bank busy for read cycles: 0
Channel 0 Bank busy for write cycles: 0
Channel 0
Rank 0
0banks busy for read cycles: 2937521
0banks busy for write cycles: 63573
1banks busy for read cycles: 109515808
1banks busy for write cycles: 9835070
2banks busy for read cycles: 64507720
2banks busy for write cycles: 27532483
3banks busy for read cycles: 909774
3banks busy for write cycles: 38179499
4banks busy for read cycles: 312249
4banks busy for write cycles: 30155449
5banks busy for read cycles: 28028
5banks busy for write cycles: 12242580
6banks busy for read cycles: 17222
6banks busy for write cycles: 2434149
7banks busy for read cycles: 20555
7banks busy for write cycles: 483509
8banks busy for read cycles: 120608
8banks busy for write cycles: 1289698

CPU 0 Branch Prediction Accuracy: 99.9315% MPKI: 0.03438 Average ROB Occupancy at Mispredict: 304.42
Branch types
NOT_BRANCH: 189955278 94.9776%
BRANCH_DIRECT_JUMP: 162 8.1e-05%
BRANCH_INDIRECT: 0 0%
BRANCH_CONDITIONAL: 10044120 5.02206%
BRANCH_DIRECT_CALL: 162 8.1e-05%
BRANCH_INDIRECT_CALL: 0 0%
BRANCH_RETURN: 162 8.1e-05%
BRANCH_OTHER: 0 0%

DRAM PAGES: 1048576
Allocated PAGES: 82777
