
*** ChampSim Multicore Out-of-Order Simulator ***

Warmup Instructions: 50000000
Simulation Instructions: 200000000
Number of CPUs: 1
LLC sets: 2048
LLC ways: 16
L0D sets: 16
L0D ways: 2
ROB size: 352
LQ size: 128
SQ size: 72
Secure Berti: OFF
Berti: OFF
Berti Fill: OFF
On commit prefetching: OFF
Hit-based filter: OFF
Time-guarding: ON
Free-slotting: ON
Leap-frogging: ON
Train prefetcher on L0D bypass: OFF
No translation penalty for prefetchers: OFF
Prefetch to L0D only: OFF
Prefetch to L1D only: OFF
Clean evictions: ON
Commit loads: ON
Commit write: ON
Fill commit loads to L2C, LLC: ON
DRAM IO FREQUENCY: 6400
ROB SIZE: 352
Off-chip DRAM Size: 4096 MB Channels: 1 Width: 64-bit Data Rate: 6400 MT/s
CPU 0 runs /home/sumon/secure_berti/GhostMinion/../../traces/spec/654.roms_s-523B.champsimtrace.xz
.xz
BTB has LRU replacement policy
ITLB has LRU replacement policy
DTLB has LRU replacement policy
STLB has LRU replacement policy
L1I has LRU replacement policy
L0D has LRU replacement policy
L1D has LRU replacement policy
L2C has LRU replacement policy
LLC has LRU replacement policy
Heartbeat CPU 0 instructions: 10000002 cycles: 3299780 heartbeat IPC: 3.03051 cumulative IPC: 3.03051 (Simulation time: 0 hr 0 min 27 sec) 
Heartbeat CPU 0 instructions: 20000003 cycles: 6523169 heartbeat IPC: 3.10233 cumulative IPC: 3.06599 (Simulation time: 0 hr 0 min 51 sec) 
Heartbeat CPU 0 instructions: 30000003 cycles: 10420761 heartbeat IPC: 2.56569 cumulative IPC: 2.87887 (Simulation time: 0 hr 1 min 27 sec) 
Heartbeat CPU 0 instructions: 40000001 cycles: 13859522 heartbeat IPC: 2.90802 cumulative IPC: 2.8861 (Simulation time: 0 hr 1 min 55 sec) 
Heartbeat CPU 0 instructions: 50000001 cycles: 17298762 heartbeat IPC: 2.90762 cumulative IPC: 2.89038 (Simulation time: 0 hr 2 min 30 sec) 

Warmup complete CPU 0 instructions: 50000001 cycles: 17298762 (Simulation time: 0 hr 2 min 30 sec) 

Heartbeat CPU 0 instructions: 60000003 cycles: 40908773 heartbeat IPC: 0.423549 cumulative IPC: 0.423549 (Simulation time: 0 hr 3 min 24 sec) 
Heartbeat CPU 0 instructions: 70000001 cycles: 63510613 heartbeat IPC: 0.442442 cumulative IPC: 0.432789 (Simulation time: 0 hr 4 min 18 sec) 
Heartbeat CPU 0 instructions: 80000000 cycles: 82227923 heartbeat IPC: 0.534265 cumulative IPC: 0.462042 (Simulation time: 0 hr 5 min 12 sec) 
Heartbeat CPU 0 instructions: 90000000 cycles: 98376248 heartbeat IPC: 0.619259 cumulative IPC: 0.493355 (Simulation time: 0 hr 5 min 57 sec) 
Heartbeat CPU 0 instructions: 100000001 cycles: 117215577 heartbeat IPC: 0.530805 cumulative IPC: 0.500416 (Simulation time: 0 hr 6 min 42 sec) 
Heartbeat CPU 0 instructions: 110000000 cycles: 149173995 heartbeat IPC: 0.312907 cumulative IPC: 0.454975 (Simulation time: 0 hr 7 min 47 sec) 
Heartbeat CPU 0 instructions: 120000001 cycles: 181099257 heartbeat IPC: 0.313232 cumulative IPC: 0.427349 (Simulation time: 0 hr 8 min 47 sec) 
Heartbeat CPU 0 instructions: 130000002 cycles: 203867964 heartbeat IPC: 0.439199 cumulative IPC: 0.428795 (Simulation time: 0 hr 9 min 47 sec) 
Heartbeat CPU 0 instructions: 140000001 cycles: 226077377 heartbeat IPC: 0.450259 cumulative IPC: 0.431079 (Simulation time: 0 hr 10 min 44 sec) 
Heartbeat CPU 0 instructions: 150000003 cycles: 248247254 heartbeat IPC: 0.451063 cumulative IPC: 0.432997 (Simulation time: 0 hr 11 min 42 sec) 
Heartbeat CPU 0 instructions: 160000002 cycles: 266965866 heartbeat IPC: 0.534228 cumulative IPC: 0.440587 (Simulation time: 0 hr 12 min 38 sec) 
Heartbeat CPU 0 instructions: 170000000 cycles: 283964086 heartbeat IPC: 0.588297 cumulative IPC: 0.450002 (Simulation time: 0 hr 13 min 26 sec) 
Heartbeat CPU 0 instructions: 180000000 cycles: 303520511 heartbeat IPC: 0.511341 cumulative IPC: 0.454193 (Simulation time: 0 hr 14 min 12 sec) 
Heartbeat CPU 0 instructions: 190000000 cycles: 334390174 heartbeat IPC: 0.323943 cumulative IPC: 0.441513 (Simulation time: 0 hr 15 min 16 sec) 
Heartbeat CPU 0 instructions: 200000001 cycles: 367434199 heartbeat IPC: 0.302627 cumulative IPC: 0.428406 (Simulation time: 0 hr 16 min 12 sec) 
Heartbeat CPU 0 instructions: 210000003 cycles: 389495743 heartbeat IPC: 0.453278 cumulative IPC: 0.42988 (Simulation time: 0 hr 17 min 4 sec) 
Heartbeat CPU 0 instructions: 220000000 cycles: 411279107 heartbeat IPC: 0.459066 cumulative IPC: 0.431494 (Simulation time: 0 hr 17 min 51 sec) 
Heartbeat CPU 0 instructions: 230000000 cycles: 432079552 heartbeat IPC: 0.480759 cumulative IPC: 0.433964 (Simulation time: 0 hr 18 min 36 sec) 
Heartbeat CPU 0 instructions: 240000000 cycles: 451729004 heartbeat IPC: 0.50892 cumulative IPC: 0.437354 (Simulation time: 0 hr 19 min 21 sec) 
Heartbeat CPU 0 instructions: 250000002 cycles: 468285619 heartbeat IPC: 0.603988 cumulative IPC: 0.443472 (Simulation time: 0 hr 19 min 59 sec) 
Finished CPU 0 instructions: 200000001 cycles: 450986857 cumulative IPC: 0.443472 (Simulation time: 0 hr 19 min 59 sec) 
 Instruction ID: 250000358

ChampSim completed all CPUs

Region of Interest Statistics

CPU 0 cumulative IPC: 0.443472 instructions: 200000001 cycles: 450986857
ITLB SPEC fills:          0  NON-SPEC fills:          0
ITLB Test counter :          0
ITLB Leapfrog:          0
ITLB MSHR merge:          0
ITLB TOTAL     ACCESS:   32801746  HIT:   32801746  MISS:          0  HIT %:        100  MISS %:          0   MPKI: 0
ITLB LOAD TRANSLATION NON_SPEC    ACCESS:   32801746  HIT:   32801746  MISS:          0  HIT %:        100  MISS %:          0   MPKI: 0
ITLB PREFETCH  REQUESTED:          0  ISSUED:          0  USEFUL:          0  USELESS:          0
ITLB USEFUL LOAD PREFETCHES:          0 PREFETCH ISSUED TO LOWER LEVEL:          0  ACCURACY: -nan
ITLB TIMELY PREFETCHES:          0 LATE PREFETCHES: 0 DROPPED PREFETCHES: 0
ITLB COMMIT LATE PREFETCHES: 0 MISSED OPPORTUNITY: 0 LATE IN PQ: 0 UNCOVERED: 0
ITLB COMMIT LATE MSHR PREFETCHES: 0
ITLB MPKI TOTAL: 0 MSHR LATE: 0 PQ LATE: 0 COMMIT LATE: 0 MISSED OPPORTUNITY: 0 UNCOVERED: 0
ITLB PREFETCHES SAME FILL-ORIGIN LEVEL: 0 DIFFERENT FILL-ORIGIN LEVEL: 0
ITLB AVERAGE MISS LATENCY: -nan cycles
ITLB AVERAGE MISS LATENCY LOAD: -nan cycles
ITLB AVERAGE MISS LATENCY PREFETCH: -nan cycles
ITLB AVERAGE MSHR OCCUPANCY: 0
ITLB MSHR FULL: 0
ITLB RQ	ACCESS:   38123335	FORWARD:          0	MERGED:    5321590	TO_CACHE:   32801745

DTLB SPEC fills:          0  NON-SPEC fills:          0
DTLB Test counter :          0
DTLB Leapfrog:          0
DTLB MSHR merge:          0
DTLB TOTAL     ACCESS:   48800410  HIT:   48699785  MISS:     100625  HIT %:    99.7938  MISS %:   0.206197   MPKI: 0.503125
DTLB LOAD TRANSLATION NON_SPEC    ACCESS:   48800410  HIT:   48699785  MISS:     100625  HIT %:    99.7938  MISS %:   0.206197   MPKI: 0.503125
DTLB PREFETCH  REQUESTED:          0  ISSUED:          0  USEFUL:          0  USELESS:          0
DTLB USEFUL LOAD PREFETCHES:          0 PREFETCH ISSUED TO LOWER LEVEL:          0  ACCURACY: -nan
DTLB TIMELY PREFETCHES:          0 LATE PREFETCHES: 0 DROPPED PREFETCHES: 0
DTLB COMMIT LATE PREFETCHES: 0 MISSED OPPORTUNITY: 0 LATE IN PQ: 0 UNCOVERED: 0
DTLB COMMIT LATE MSHR PREFETCHES: 0
DTLB MPKI TOTAL: 0 MSHR LATE: 0 PQ LATE: 0 COMMIT LATE: 0 MISSED OPPORTUNITY: 0 UNCOVERED: 0
DTLB PREFETCHES SAME FILL-ORIGIN LEVEL: 0 DIFFERENT FILL-ORIGIN LEVEL: 0
DTLB AVERAGE MISS LATENCY: 166.145 cycles
DTLB AVERAGE MISS LATENCY LOAD: -nan cycles
DTLB AVERAGE MISS LATENCY PREFETCH: -nan cycles
DTLB AVERAGE MSHR OCCUPANCY: 0.0270773
DTLB MSHR FULL: 0
DTLB RQ	ACCESS:   58574017	FORWARD:          0	MERGED:    9682980	TO_CACHE:   48891037

STLB SPEC fills:          0  NON-SPEC fills:          0
STLB Test counter :          0
STLB Leapfrog:          0
STLB MSHR merge:          0
STLB TOTAL     ACCESS:     100625  HIT:        792  MISS:      99833  HIT %:   0.787081  MISS %:    99.2129   MPKI: 0.499165
STLB LOAD TRANSLATION NON_SPEC    ACCESS:     100625  HIT:        792  MISS:      99833  HIT %:   0.787081  MISS %:    99.2129   MPKI: 0.499165
STLB PREFETCH  REQUESTED:          0  ISSUED:          0  USEFUL:          0  USELESS:          0
STLB USEFUL LOAD PREFETCHES:          0 PREFETCH ISSUED TO LOWER LEVEL:          0  ACCURACY: -nan
STLB TIMELY PREFETCHES:          0 LATE PREFETCHES: 0 DROPPED PREFETCHES: 0
STLB COMMIT LATE PREFETCHES: 0 MISSED OPPORTUNITY: 0 LATE IN PQ: 0 UNCOVERED: 0
STLB COMMIT LATE MSHR PREFETCHES: 0
STLB MPKI TOTAL: 0 MSHR LATE: 0 PQ LATE: 0 COMMIT LATE: 0 MISSED OPPORTUNITY: 0 UNCOVERED: 0
STLB PREFETCHES SAME FILL-ORIGIN LEVEL: 0 DIFFERENT FILL-ORIGIN LEVEL: 0
STLB AVERAGE MISS LATENCY: 158.354 cycles
STLB AVERAGE MISS LATENCY LOAD: -nan cycles
STLB AVERAGE MISS LATENCY PREFETCH: -nan cycles
STLB AVERAGE MSHR OCCUPANCY: 0.182957
STLB MSHR FULL: 0
STLB RQ	ACCESS:     100625	FORWARD:          0	MERGED:          0	TO_CACHE:     100625

STLB Hit, L1D data hit: 0
STLB Hit, L2C data hit: 0
STLB Hit, LLC data hit: 0
STLB Hit, LLC data miss: 0
STLB STLB hints to L2: 0
L0D SPEC fills:   20631790  NON-SPEC fills:          0
L0D TimeGuard Request with older TS:     747162 Restricted eviction:     168133 read:     869775
L0D Test counter :          0
L0D Leapfrog:          0
L0D MSHR merge:    8968617
L0D TOTAL     ACCESS:   38201640  HIT:   13909542  MISS:   24292098  HIT %:    36.4109  MISS %:    63.5891   MPKI: 121.46
L0D LOAD      TOTAL       ACCESS:   38201640  HIT:   13909542  MISS:   24292098  HIT %:    36.4109  MISS %:    63.5891   MPKI: 121.46
L0D LOAD      NON_SPEC    ACCESS:    3886139  HIT:     393923  MISS:    3492216  HIT %:    10.1366  MISS %:    89.8634   MPKI: 17.4611
L0D LOAD      SPEC        ACCESS:   34315501  HIT:   13515619  MISS:   20799882  HIT %:    39.3863  MISS %:    60.6137   MPKI: 103.999
L0D PREFETCH  REQUESTED:          0  ISSUED:          0  USEFUL:          0  USELESS:          0
L0D USEFUL LOAD PREFETCHES:          0 PREFETCH ISSUED TO LOWER LEVEL:          0  ACCURACY: -nan
L0D TIMELY PREFETCHES:          0 LATE PREFETCHES: 0 DROPPED PREFETCHES: 0
L0D COMMIT LATE PREFETCHES: 0 MISSED OPPORTUNITY: 0 LATE IN PQ: 0 UNCOVERED: 0
L0D COMMIT LATE MSHR PREFETCHES: 0
L0D MPKI TOTAL: 166.304 MSHR LATE: 0 PQ LATE: 0 COMMIT LATE: 0 MISSED OPPORTUNITY: 0 UNCOVERED: 0
L0D PREFETCHES SAME FILL-ORIGIN LEVEL: 0 DIFFERENT FILL-ORIGIN LEVEL: 0
L0D AVERAGE MISS LATENCY: 36.3568 cycles
L0D AVERAGE MISS LATENCY LOAD: 36.3568 cycles
L0D AVERAGE MISS LATENCY PREFETCH: -nan cycles
L0D AVERAGE MSHR OCCUPANCY: 2.08177
L0D MSHR FULL: 0.00087478
L0D RQ	ACCESS:   74173017	FORWARD:          0	MERGED:   27002766	TO_CACHE:   47170251
L0D WQ	ACCESS:   11403766	FORWARD:          0	MERGED:          0	TO_CACHE:   11403766

L1D SPEC fills:          0  NON-SPEC fills:     170683
L1D Test counter :    3146450
L1D Leapfrog:          0
L1D MSHR merge:       9475
L1D TOTAL     ACCESS:   79330424  HIT:   71747521  MISS:    7582903  HIT %:    90.4414  MISS %:    9.55863   MPKI: 37.9145
L1D LOAD      TOTAL       ACCESS:   24282623  HIT:   20935455  MISS:    3347168  HIT %:    86.2158  MISS %:    13.7842   MPKI: 16.7358
L1D LOAD      NON_SPEC    ACCESS:    3486734  HIT:    3316051  MISS:     170683  HIT %:    95.1048  MISS %:    4.89521   MPKI: 0.853415
L1D LOAD      SPEC        ACCESS:   20795889  HIT:   17619404  MISS:    3176485  HIT %:    84.7254  MISS %:    15.2746   MPKI: 15.8824
L1D RFO       NON_SPEC    ACCESS:    5940347  HIT:    4732143  MISS:    1208204  HIT %:    79.6611  MISS %:    20.3389   MPKI: 6.04102
L1D COMMIT LOAD NON_SPEC    ACCESS:   29080520  HIT:   29048553  MISS:      31967  HIT %:    99.8901  MISS %:   0.109926   MPKI: 0.159835
L1D COMMIT WRITE NON_SPEC    ACCESS:   20026934  HIT:   17031370  MISS:    2995564  HIT %:    85.0423  MISS %:    14.9577   MPKI: 14.9778
L1D PREFETCH  REQUESTED:          0  ISSUED:          0  USEFUL:          0  USELESS:          0
L1D USEFUL LOAD PREFETCHES:          0 PREFETCH ISSUED TO LOWER LEVEL:          0  ACCURACY: -nan
L1D TIMELY PREFETCHES:          0 LATE PREFETCHES: 0 DROPPED PREFETCHES: 0
L1D COMMIT LATE PREFETCHES: 0 MISSED OPPORTUNITY: 0 LATE IN PQ: 0 UNCOVERED: 0
L1D COMMIT LATE MSHR PREFETCHES: 0
L1D MPKI TOTAL: 16.7832 MSHR LATE: 0 PQ LATE: 0 COMMIT LATE: 0 MISSED OPPORTUNITY: 0 UNCOVERED: 0
L1D PREFETCHES SAME FILL-ORIGIN LEVEL: 0 DIFFERENT FILL-ORIGIN LEVEL: 0
L1D AVERAGE MISS LATENCY: 142.81 cycles
L1D AVERAGE MISS LATENCY LOAD: 224.86 cycles
L1D AVERAGE MISS LATENCY PREFETCH: -nan cycles
L1D AVERAGE MSHR OCCUPANCY: 1.38618
L1D MSHR FULL: 0.00016066
L1D RQ	ACCESS:   74344081	FORWARD:          0	MERGED:   19934660	TO_CACHE:   53409838
L1D WQ	ACCESS:   31461865	FORWARD:     999583	MERGED:     175194	TO_CACHE:   31286671

L1D UNIQUE REGIONS ACCESSED: 0
L1D REGIONS CONFLICTS: 0
L1D Cross Page Prefetch Requests: 0
L1D Same Page Prefetch Requests: 0
L1D ROI Sum of L1D PQ occupancy: 0
L1D PREFETCHES PUSHED FROM L2C: 0
L1I SPEC fills:          0  NON-SPEC fills:          0
L1I Test counter :          0
L1I Leapfrog:          0
L1I MSHR merge:         16
L1I TOTAL     ACCESS:   38123320  HIT:   38123288  MISS:         32  HIT %:    99.9999  MISS %: 8.39381e-05   MPKI: 0.00016
L1I LOAD      TOTAL       ACCESS:   38123320  HIT:   38123288  MISS:         32  HIT %:    99.9999  MISS %: 8.39381e-05   MPKI: 0.00016
L1I LOAD      NON_SPEC    ACCESS:   38123320  HIT:   38123288  MISS:         32  HIT %:    99.9999  MISS %: 8.39381e-05   MPKI: 0.00016
L1I PREFETCH  REQUESTED:          0  ISSUED:          0  USEFUL:          0  USELESS:          0
L1I USEFUL LOAD PREFETCHES:          0 PREFETCH ISSUED TO LOWER LEVEL:          0  ACCURACY: -nan
L1I TIMELY PREFETCHES:          0 LATE PREFETCHES: 0 DROPPED PREFETCHES: 0
L1I COMMIT LATE PREFETCHES: 0 MISSED OPPORTUNITY: 0 LATE IN PQ: 0 UNCOVERED: 0
L1I COMMIT LATE MSHR PREFETCHES: 0
L1I MPKI TOTAL: 0.00024 MSHR LATE: 0 PQ LATE: 0 COMMIT LATE: 0 MISSED OPPORTUNITY: 0 UNCOVERED: 0
L1I PREFETCHES SAME FILL-ORIGIN LEVEL: 0 DIFFERENT FILL-ORIGIN LEVEL: 0
L1I AVERAGE MISS LATENCY: 299 cycles
L1I AVERAGE MISS LATENCY LOAD: 299 cycles
L1I AVERAGE MISS LATENCY PREFETCH: -nan cycles
L1I AVERAGE MSHR OCCUPANCY: 1.07546e-06
L1I MSHR FULL: 0
L1I RQ	ACCESS:   57861731	FORWARD:          0	MERGED:   19738396	TO_CACHE:   38123335

BTB SPEC fills:          0  NON-SPEC fills:          0
BTB Test counter :          0
BTB Leapfrog:          0
BTB MSHR merge:          0
BTB TOTAL     ACCESS:   12959624  HIT:   12959578  MISS:         46  HIT %:    99.9996  MISS %: 0.000354949   MPKI: 0.00023
BTB BRANCH_DIRECT_JUMP	ACCESS:    1451293  HIT:    1451288  MISS:          5
BTB BRANCH_INDIRECT	ACCESS:          0  HIT:          0  MISS:          0
BTB BRANCH_CONDITIONAL	ACCESS:   11508331  HIT:   11508290  MISS:         41
BTB BRANCH_DIRECT_CALL	ACCESS:          0  HIT:          0  MISS:          0
BTB BRANCH_INDIRECT_CALL	ACCESS:          0  HIT:          0  MISS:          0
BTB BRANCH_RETURN	ACCESS:          0  HIT:          0  MISS:          0
BTB BRANCH_OTHER ACCESS:          0  HIT:          0  MISS:          0

L2C SPEC fills:          0  NON-SPEC fills:     170658
L2C Test counter :    3139077
L2C Leapfrog:          0
L2C MSHR merge:          0
L2C TOTAL     ACCESS:    9467034  HIT:    1878736  MISS:    7588298  HIT %:     19.845  MISS %:     80.155   MPKI: 37.9415
L2C LOAD      TOTAL       ACCESS:    3347194  HIT:        934  MISS:    3346260  HIT %:   0.027904  MISS %:    99.9721   MPKI: 16.7313
L2C LOAD      NON_SPEC    ACCESS:     170715  HIT:         25  MISS:     170690  HIT %:  0.0146443  MISS %:    99.9854   MPKI: 0.85345
L2C LOAD      SPEC        ACCESS:    3176479  HIT:        909  MISS:    3175570  HIT %:  0.0286166  MISS %:    99.9714   MPKI: 15.8778
L2C RFO       NON_SPEC    ACCESS:    1208204  HIT:          3  MISS:    1208201  HIT %: 0.000248302  MISS %:    99.9998   MPKI: 6.041
L2C WRITEBACK NON_SPEC    ACCESS:    1234133  HIT:    1234098  MISS:         35  HIT %:    99.9972  MISS %:   0.002836   MPKI: 0.000175
L2C CLEAN_EVICTION NON_SPEC    ACCESS:    3146439  HIT:     164673  MISS:    2981766  HIT %:    5.23363  MISS %:    94.7664   MPKI: 14.9088
L2C COMMIT LOAD NON_SPEC    ACCESS:      31964  HIT:        795  MISS:      31169  HIT %:    2.48717  MISS %:    97.5128   MPKI: 0.155845
L2C LOAD TRANSLATION NON_SPEC    ACCESS:     499100  HIT:     478233  MISS:      20867  HIT %:    95.8191  MISS %:    4.18093   MPKI: 0.104335
L2C PREFETCH  REQUESTED:          0  ISSUED:          0  USEFUL:          0  USELESS:          0
L2C USEFUL LOAD PREFETCHES:          0 PREFETCH ISSUED TO LOWER LEVEL:          0  ACCURACY: -nan
L2C TIMELY PREFETCHES:          0 LATE PREFETCHES: 0 DROPPED PREFETCHES: 0
L2C COMMIT LATE PREFETCHES: 0 MISSED OPPORTUNITY: 0 LATE IN PQ: 0 UNCOVERED: 0
L2C COMMIT LATE MSHR PREFETCHES: 0
L2C MPKI TOTAL: 16.7313 MSHR LATE: 0 PQ LATE: 0 COMMIT LATE: 0 MISSED OPPORTUNITY: 0 UNCOVERED: 0
L2C PREFETCHES SAME FILL-ORIGIN LEVEL: 0 DIFFERENT FILL-ORIGIN LEVEL: 0
L2C AVERAGE MISS LATENCY: 135.95 cycles
L2C AVERAGE MISS LATENCY LOAD: 213.681 cycles
L2C AVERAGE MISS LATENCY PREFETCH: -nan cycles
L2C AVERAGE MSHR OCCUPANCY: 1.5604
L2C MSHR FULL: 0
L2C RQ	ACCESS:    5086472	FORWARD:          0	MERGED:          0	TO_CACHE:    5086463
L2C WQ	ACCESS:    4380584	FORWARD:          9	MERGED:         11	TO_CACHE:    4380573

L2C Instructions Evicting Data 32
L2C Translations Evicting Data 20789
L2C Data Evicting Data 1403358
L2C Instructions Evicting Instructions 0
L2C Translations Evicting Instructions 0
L2C Data Evicting Instructions 5
L2C Instructions Evicting Translations 0
L2C Translations Evicting Translations 78
L2C Data Evicting Translations 6665
L2C Dense regions hint from L2: 0
PSCL5 SPEC fills:          0  NON-SPEC fills:          0
PSCL5 Test counter :          0
PSCL5 Leapfrog:          0
PSCL5 MSHR merge:          0
PSCL5 TOTAL     ACCESS:          0  HIT:          0  MISS:          0  HIT %:       -nan  MISS %:       -nan   MPKI: 0
PSCL5 PREFETCH  REQUESTED:          0  ISSUED:          0  USEFUL:          0  USELESS:          0
PSCL5 USEFUL LOAD PREFETCHES:          0 PREFETCH ISSUED TO LOWER LEVEL:          0  ACCURACY: -nan
PSCL5 TIMELY PREFETCHES:          0 LATE PREFETCHES: 0 DROPPED PREFETCHES: 0
PSCL5 COMMIT LATE PREFETCHES: 0 MISSED OPPORTUNITY: 0 LATE IN PQ: 0 UNCOVERED: 0
PSCL5 COMMIT LATE MSHR PREFETCHES: 0
PSCL5 MPKI TOTAL: 0 MSHR LATE: 0 PQ LATE: 0 COMMIT LATE: 0 MISSED OPPORTUNITY: 0 UNCOVERED: 0
PSCL5 PREFETCHES SAME FILL-ORIGIN LEVEL: 0 DIFFERENT FILL-ORIGIN LEVEL: 0

PSCL4 SPEC fills:          0  NON-SPEC fills:          0
PSCL4 Test counter :          0
PSCL4 Leapfrog:          0
PSCL4 MSHR merge:          0
PSCL4 TOTAL     ACCESS:          0  HIT:          0  MISS:          0  HIT %:       -nan  MISS %:       -nan   MPKI: 0
PSCL4 PREFETCH  REQUESTED:          0  ISSUED:          0  USEFUL:          0  USELESS:          0
PSCL4 USEFUL LOAD PREFETCHES:          0 PREFETCH ISSUED TO LOWER LEVEL:          0  ACCURACY: -nan
PSCL4 TIMELY PREFETCHES:          0 LATE PREFETCHES: 0 DROPPED PREFETCHES: 0
PSCL4 COMMIT LATE PREFETCHES: 0 MISSED OPPORTUNITY: 0 LATE IN PQ: 0 UNCOVERED: 0
PSCL4 COMMIT LATE MSHR PREFETCHES: 0
PSCL4 MPKI TOTAL: 0 MSHR LATE: 0 PQ LATE: 0 COMMIT LATE: 0 MISSED OPPORTUNITY: 0 UNCOVERED: 0
PSCL4 PREFETCHES SAME FILL-ORIGIN LEVEL: 0 DIFFERENT FILL-ORIGIN LEVEL: 0

PSCL3 SPEC fills:          0  NON-SPEC fills:          0
PSCL3 Test counter :          0
PSCL3 Leapfrog:          0
PSCL3 MSHR merge:          0
PSCL3 TOTAL     ACCESS:          0  HIT:          0  MISS:          0  HIT %:       -nan  MISS %:       -nan   MPKI: 0
PSCL3 PREFETCH  REQUESTED:          0  ISSUED:          0  USEFUL:          0  USELESS:          0
PSCL3 USEFUL LOAD PREFETCHES:          0 PREFETCH ISSUED TO LOWER LEVEL:          0  ACCURACY: -nan
PSCL3 TIMELY PREFETCHES:          0 LATE PREFETCHES: 0 DROPPED PREFETCHES: 0
PSCL3 COMMIT LATE PREFETCHES: 0 MISSED OPPORTUNITY: 0 LATE IN PQ: 0 UNCOVERED: 0
PSCL3 COMMIT LATE MSHR PREFETCHES: 0
PSCL3 MPKI TOTAL: 0 MSHR LATE: 0 PQ LATE: 0 COMMIT LATE: 0 MISSED OPPORTUNITY: 0 UNCOVERED: 0
PSCL3 PREFETCHES SAME FILL-ORIGIN LEVEL: 0 DIFFERENT FILL-ORIGIN LEVEL: 0

PSCL2 SPEC fills:          0  NON-SPEC fills:          0
PSCL2 Test counter :          0
PSCL2 Leapfrog:          0
PSCL2 MSHR merge:          0
PSCL2 TOTAL     ACCESS:          0  HIT:          0  MISS:          0  HIT %:       -nan  MISS %:       -nan   MPKI: 0
PSCL2 PREFETCH  REQUESTED:          0  ISSUED:          0  USEFUL:          0  USELESS:          0
PSCL2 USEFUL LOAD PREFETCHES:          0 PREFETCH ISSUED TO LOWER LEVEL:          0  ACCURACY: -nan
PSCL2 TIMELY PREFETCHES:          0 LATE PREFETCHES: 0 DROPPED PREFETCHES: 0
PSCL2 COMMIT LATE PREFETCHES: 0 MISSED OPPORTUNITY: 0 LATE IN PQ: 0 UNCOVERED: 0
PSCL2 COMMIT LATE MSHR PREFETCHES: 0
PSCL2 MPKI TOTAL: 0 MSHR LATE: 0 PQ LATE: 0 COMMIT LATE: 0 MISSED OPPORTUNITY: 0 UNCOVERED: 0
PSCL2 PREFETCHES SAME FILL-ORIGIN LEVEL: 0 DIFFERENT FILL-ORIGIN LEVEL: 0

LLC SPEC fills:          0  NON-SPEC fills:     170658
LLC Test counter :    3138366
LLC Leapfrog:          0
LLC MSHR merge:          0
LLC TOTAL     ACCESS:    8979604  HIT:    1391676  MISS:    7587928  HIT %:    15.4982  MISS %:    84.5018   MPKI: 37.9396
LLC LOAD      TOTAL       ACCESS:    3346260  HIT:          7  MISS:    3346253  HIT %: 0.000209189  MISS %:    99.9998   MPKI: 16.7313
LLC LOAD      NON_SPEC    ACCESS:     170690  HIT:          0  MISS:     170690  HIT %:          0  MISS %:        100   MPKI: 0.85345
LLC LOAD      SPEC        ACCESS:    3175570  HIT:          7  MISS:    3175563  HIT %: 0.000220433  MISS %:    99.9998   MPKI: 15.8778
LLC RFO       NON_SPEC    ACCESS:    1208201  HIT:          0  MISS:    1208201  HIT %:          0  MISS %:        100   MPKI: 6.041
LLC WRITEBACK NON_SPEC    ACCESS:    1234030  HIT:    1234004  MISS:         26  HIT %:    99.9979  MISS %: 0.00210692   MPKI: 0.00013
LLC CLEAN_EVICTION NON_SPEC    ACCESS:    3139077  HIT:     157665  MISS:    2981412  HIT %:    5.02265  MISS %:    94.9773   MPKI: 14.9071
LLC COMMIT LOAD NON_SPEC    ACCESS:      31169  HIT:          0  MISS:      31169  HIT %:          0  MISS %:        100   MPKI: 0.155845
LLC LOAD TRANSLATION NON_SPEC    ACCESS:      20867  HIT:          0  MISS:      20867  HIT %:          0  MISS %:        100   MPKI: 0.104335
LLC PREFETCH  REQUESTED:          0  ISSUED:          0  USEFUL:          0  USELESS:          0
LLC USEFUL LOAD PREFETCHES:          0 PREFETCH ISSUED TO LOWER LEVEL:          0  ACCURACY: -nan
LLC TIMELY PREFETCHES:          0 LATE PREFETCHES: 0 DROPPED PREFETCHES: 0
LLC COMMIT LATE PREFETCHES: 0 MISSED OPPORTUNITY: 0 LATE IN PQ: 0 UNCOVERED: 0
LLC COMMIT LATE MSHR PREFETCHES: 0
LLC MPKI TOTAL: 16.7313 MSHR LATE: 0 PQ LATE: 0 COMMIT LATE: 0 MISSED OPPORTUNITY: 0 UNCOVERED: 0
LLC PREFETCHES SAME FILL-ORIGIN LEVEL: 0 DIFFERENT FILL-ORIGIN LEVEL: 0
LLC AVERAGE MISS LATENCY: 121.476 cycles
LLC AVERAGE MISS LATENCY LOAD: 192.174 cycles
LLC AVERAGE MISS LATENCY PREFETCH: -nan cycles
LLC AVERAGE MSHR OCCUPANCY: 1.45338
LLC MSHR FULL: 0
LLC RQ	ACCESS:    4606497	FORWARD:          0	MERGED:          0	TO_CACHE:    4606497
LLC WQ	ACCESS:    4373107	FORWARD:          0	MERGED:          0	TO_CACHE:    4373107

LLC Dense regions hint to LLC: 0

RAW hits: 32270
Loads Generated: 74205291
Loads sent to L1D: 74173017
Stores Generated: 11403766
Stores sent to L1D: 11403766
Major fault: 0 Minor fault: 35137
Allocated PAGES: 35137
Total Load insts: 91257659
Total Non-spec loads: 5094333
Percentage of speculative loads: 94.4176

LeapFrogging counter: 12253
Commit hits: 20059365 miss: 50051984
Commit hit %: 28.6107 miss %: 71.3893
Commits not translated: 0
Loads retired: 3347168
Stores retired: 11403766
Cache fills: 3347168
L1D response latency: 224.86 cycles
Load retirement latency: 282.74 cycles
OOO test counter: 0
Discarded buffer inserts: 20059365 hits: 63050 hit %: 0.314317

DRAM Statistics
 CHANNEL 0
 RQ ROW_BUFFER_HIT:     151094  ROW_BUFFER_MISS:    4455396
 DBUS_CONGESTED:        413
 WQ ROW_BUFFER_HIT:    2420686  ROW_BUFFER_MISS:    1952002  FULL:       1881

 AVG_CONGESTED_CYCLE: 5
 All warmup complete: 2
Channel 0 Bank busy for read cycles: 0
Channel 0 Bank busy for write cycles: 0
Channel 0
Rank 0
0banks busy for read cycles: 1344730
0banks busy for write cycles: 38
1banks busy for read cycles: 98676498
1banks busy for write cycles: 1279601
2banks busy for read cycles: 89681190
2banks busy for write cycles: 1289040
3banks busy for read cycles: 77428204
3banks busy for write cycles: 1303121
4banks busy for read cycles: 38557276
4banks busy for write cycles: 1387996
5banks busy for read cycles: 2924846
5banks busy for write cycles: 1733630
6banks busy for read cycles: 44709
6banks busy for write cycles: 2535235
7banks busy for read cycles: 11036
7banks busy for write cycles: 10138578
8banks busy for read cycles: 6863
8banks busy for write cycles: 122644267

CPU 0 Branch Prediction Accuracy: 99.8522% MPKI: 0.096965 Average ROB Occupancy at Mispredict: 322.53
Branch types
NOT_BRANCH: 186881441 93.4407%
BRANCH_DIRECT_JUMP: 1451293 0.725646%
BRANCH_INDIRECT: 0 0%
BRANCH_CONDITIONAL: 11667245 5.83362%
BRANCH_DIRECT_CALL: 0 0%
BRANCH_INDIRECT_CALL: 0 0%
BRANCH_RETURN: 0 0%
BRANCH_OTHER: 0 0%

DRAM PAGES: 1048576
Allocated PAGES: 35137
