
*** ChampSim Multicore Out-of-Order Simulator ***

Warmup Instructions: 50000000
Simulation Instructions: 200000000
Number of CPUs: 1
LLC sets: 2048
LLC ways: 16
L0D sets: 16
L0D ways: 2
ROB size: 352
LQ size: 128
SQ size: 72
Secure Berti: OFF
Berti: OFF
Berti Fill: OFF
On commit prefetching: OFF
Hit-based filter: OFF
Time-guarding: ON
Free-slotting: ON
Leap-frogging: ON
Train prefetcher on L0D bypass: OFF
No translation penalty for prefetchers: OFF
Prefetch to L0D only: OFF
Prefetch to L1D only: OFF
Clean evictions: ON
Commit loads: ON
Commit write: ON
Fill commit loads to L2C, LLC: ON
DRAM IO FREQUENCY: 6400
ROB SIZE: 352
Off-chip DRAM Size: 4096 MB Channels: 1 Width: 64-bit Data Rate: 6400 MT/s
CPU 0 runs /home/sumon/secure_berti/GhostMinion/../../traces/gap/bc-0.trace.gz
.gz
BTB has LRU replacement policy
ITLB has LRU replacement policy
DTLB has LRU replacement policy
STLB has LRU replacement policy
L1I has LRU replacement policy
L0D has LRU replacement policy
History Sets: 8
History Ways: 16
BERTI Size: 16
BERTI Stride Size: 16
L1D has LRU replacement policy
L2C has LRU replacement policy
LLC has LRU replacement policy
Heartbeat CPU 0 instructions: 10000002 cycles: 3800431 heartbeat IPC: 2.63128 cumulative IPC: 2.63128 (Simulation time: 0 hr 0 min 41 sec) 
Heartbeat CPU 0 instructions: 20000000 cycles: 7254355 heartbeat IPC: 2.89526 cumulative IPC: 2.75696 (Simulation time: 0 hr 1 min 19 sec) 
Heartbeat CPU 0 instructions: 30000003 cycles: 10745242 heartbeat IPC: 2.8646 cumulative IPC: 2.79193 (Simulation time: 0 hr 1 min 56 sec) 
Heartbeat CPU 0 instructions: 40000000 cycles: 14209935 heartbeat IPC: 2.88626 cumulative IPC: 2.81493 (Simulation time: 0 hr 2 min 32 sec) 
Heartbeat CPU 0 instructions: 50000002 cycles: 17678391 heartbeat IPC: 2.88313 cumulative IPC: 2.82831 (Simulation time: 0 hr 3 min 7 sec) 

Warmup complete CPU 0 instructions: 50000002 cycles: 17678391 (Simulation time: 0 hr 3 min 7 sec) 

Heartbeat CPU 0 instructions: 60000003 cycles: 82198649 heartbeat IPC: 0.15499 cumulative IPC: 0.15499 (Simulation time: 0 hr 4 min 8 sec) 
Heartbeat CPU 0 instructions: 70000001 cycles: 147107339 heartbeat IPC: 0.154063 cumulative IPC: 0.154525 (Simulation time: 0 hr 5 min 9 sec) 
Heartbeat CPU 0 instructions: 80000000 cycles: 211273208 heartbeat IPC: 0.155846 cumulative IPC: 0.154963 (Simulation time: 0 hr 6 min 8 sec) 
Heartbeat CPU 0 instructions: 90000002 cycles: 275898299 heartbeat IPC: 0.154739 cumulative IPC: 0.154907 (Simulation time: 0 hr 7 min 6 sec) 
Heartbeat CPU 0 instructions: 100000001 cycles: 339714212 heartbeat IPC: 0.156701 cumulative IPC: 0.155262 (Simulation time: 0 hr 8 min 4 sec) 
Heartbeat CPU 0 instructions: 110000000 cycles: 402693311 heartbeat IPC: 0.158783 cumulative IPC: 0.155838 (Simulation time: 0 hr 8 min 58 sec) 
Heartbeat CPU 0 instructions: 120000000 cycles: 464527686 heartbeat IPC: 0.161722 cumulative IPC: 0.156652 (Simulation time: 0 hr 9 min 52 sec) 
Heartbeat CPU 0 instructions: 130000002 cycles: 526835067 heartbeat IPC: 0.160495 cumulative IPC: 0.157123 (Simulation time: 0 hr 10 min 46 sec) 
Heartbeat CPU 0 instructions: 140000000 cycles: 589022897 heartbeat IPC: 0.160803 cumulative IPC: 0.157523 (Simulation time: 0 hr 11 min 40 sec) 
Heartbeat CPU 0 instructions: 150000000 cycles: 650959091 heartbeat IPC: 0.161456 cumulative IPC: 0.157908 (Simulation time: 0 hr 12 min 36 sec) 
Heartbeat CPU 0 instructions: 160000003 cycles: 711252519 heartbeat IPC: 0.165856 cumulative IPC: 0.158599 (Simulation time: 0 hr 13 min 30 sec) 
Heartbeat CPU 0 instructions: 170000001 cycles: 771952789 heartbeat IPC: 0.164744 cumulative IPC: 0.159093 (Simulation time: 0 hr 14 min 23 sec) 
Heartbeat CPU 0 instructions: 180000002 cycles: 832616518 heartbeat IPC: 0.164843 cumulative IPC: 0.159521 (Simulation time: 0 hr 15 min 17 sec) 
Heartbeat CPU 0 instructions: 190000002 cycles: 893096325 heartbeat IPC: 0.165344 cumulative IPC: 0.159924 (Simulation time: 0 hr 16 min 10 sec) 
Heartbeat CPU 0 instructions: 200000000 cycles: 954255300 heartbeat IPC: 0.163508 cumulative IPC: 0.160158 (Simulation time: 0 hr 17 min 4 sec) 
Heartbeat CPU 0 instructions: 210000000 cycles: 1015229295 heartbeat IPC: 0.164004 cumulative IPC: 0.160393 (Simulation time: 0 hr 17 min 56 sec) 
Heartbeat CPU 0 instructions: 220000000 cycles: 1076102912 heartbeat IPC: 0.164275 cumulative IPC: 0.160616 (Simulation time: 0 hr 18 min 48 sec) 
Heartbeat CPU 0 instructions: 230000000 cycles: 1136679567 heartbeat IPC: 0.16508 cumulative IPC: 0.160858 (Simulation time: 0 hr 19 min 40 sec) 
Heartbeat CPU 0 instructions: 240000003 cycles: 1197362774 heartbeat IPC: 0.16479 cumulative IPC: 0.16106 (Simulation time: 0 hr 20 min 31 sec) 
Heartbeat CPU 0 instructions: 250000003 cycles: 1257782809 heartbeat IPC: 0.165508 cumulative IPC: 0.161277 (Simulation time: 0 hr 21 min 21 sec) 
Finished CPU 0 instructions: 200000001 cycles: 1240104418 cumulative IPC: 0.161277 (Simulation time: 0 hr 21 min 21 sec) 
 Instruction ID: 250000008

ChampSim completed all CPUs

Region of Interest Statistics

CPU 0 cumulative IPC: 0.161277 instructions: 200000001 cycles: 1240104418
ITLB SPEC fills:          0  NON-SPEC fills:          0
ITLB Test counter :          0
ITLB Leapfrog:          0
ITLB MSHR merge:          0
ITLB TOTAL     ACCESS:   40679560  HIT:   40679560  MISS:          0  HIT %:        100  MISS %:          0   MPKI: 0
ITLB LOAD TRANSLATION NON_SPEC    ACCESS:   40679560  HIT:   40679560  MISS:          0  HIT %:        100  MISS %:          0   MPKI: 0
ITLB PREFETCH  REQUESTED:          0  ISSUED:          0  USEFUL:          0  USELESS:          0
ITLB USEFUL LOAD PREFETCHES:          0 PREFETCH ISSUED TO LOWER LEVEL:          0  ACCURACY: -nan
ITLB TIMELY PREFETCHES:          0 LATE PREFETCHES: 0 DROPPED PREFETCHES: 0
ITLB COMMIT LATE PREFETCHES: 0 NORMAL LATE: 0 MISSED OPPORTUNITY: 0 UNCOVERED: 0
ITLB PREFETCHES SAME FILL-ORIGIN LEVEL: 0 DIFFERENT FILL-ORIGIN LEVEL: 0
ITLB AVERAGE MISS LATENCY: -nan cycles
ITLB AVERAGE MISS LATENCY LOAD: -nan cycles
ITLB AVERAGE MISS LATENCY PREFETCH: -nan cycles
ITLB AVERAGE MSHR OCCUPANCY: 0
ITLB MSHR FULL: 0
ITLB RQ	ACCESS:   40943574	FORWARD:          0	MERGED:     264015	TO_CACHE:   40679559

DTLB SPEC fills:          0  NON-SPEC fills:          0
DTLB Test counter :          0
DTLB Leapfrog:          0
DTLB MSHR merge:          0
DTLB TOTAL     ACCESS:   55215847  HIT:   45796481  MISS:    9419366  HIT %:    82.9408  MISS %:    17.0592   MPKI: 47.0968
DTLB LOAD TRANSLATION NON_SPEC    ACCESS:   55215847  HIT:   45796481  MISS:    9419366  HIT %:    82.9408  MISS %:    17.0592   MPKI: 47.0968
DTLB PREFETCH  REQUESTED:          0  ISSUED:          0  USEFUL:          0  USELESS:          0
DTLB USEFUL LOAD PREFETCHES:          0 PREFETCH ISSUED TO LOWER LEVEL:          0  ACCURACY: -nan
DTLB TIMELY PREFETCHES:          0 LATE PREFETCHES: 0 DROPPED PREFETCHES: 0
DTLB COMMIT LATE PREFETCHES: 0 NORMAL LATE: 0 MISSED OPPORTUNITY: 0 UNCOVERED: 0
DTLB PREFETCHES SAME FILL-ORIGIN LEVEL: 0 DIFFERENT FILL-ORIGIN LEVEL: 0
DTLB AVERAGE MISS LATENCY: 36.7472 cycles
DTLB AVERAGE MISS LATENCY LOAD: -nan cycles
DTLB AVERAGE MISS LATENCY PREFETCH: -nan cycles
DTLB AVERAGE MSHR OCCUPANCY: 0.372166
DTLB MSHR FULL: 0.00127133
DTLB RQ	ACCESS:   60566513	FORWARD:          0	MERGED:    4601962	TO_CACHE:   55964551

STLB SPEC fills:          0  NON-SPEC fills:          0
STLB Test counter :          0
STLB Leapfrog:          0
STLB MSHR merge:          0
STLB TOTAL     ACCESS:   18024557  HIT:   14979110  MISS:    3045447  HIT %:    83.1039  MISS %:    16.8961   MPKI: 15.2272
STLB LOAD TRANSLATION NON_SPEC    ACCESS:    9419366  HIT:    6480061  MISS:    2939305  HIT %:    68.7951  MISS %:    31.2049   MPKI: 14.6965
STLB TRANSLATION FROM L1D PREFETCHER NON_SPEC    ACCESS:    8605191  HIT:    8499049  MISS:     106142  HIT %:    98.7665  MISS %:    1.23346   MPKI: 0.53071
STLB PREFETCH  REQUESTED:          0  ISSUED:          0  USEFUL:     104068  USELESS:       2072
STLB USEFUL LOAD PREFETCHES:     104068 PREFETCH ISSUED TO LOWER LEVEL:          0  ACCURACY: inf
STLB TIMELY PREFETCHES:     104068 LATE PREFETCHES: 14972 DROPPED PREFETCHES: 901458
STLB COMMIT LATE PREFETCHES: 0 NORMAL LATE: 14972 MISSED OPPORTUNITY: 0 UNCOVERED: 18446744073709536644
STLB PREFETCHES SAME FILL-ORIGIN LEVEL: 0 DIFFERENT FILL-ORIGIN LEVEL: 0
STLB AVERAGE MISS LATENCY: 89.1565 cycles
STLB AVERAGE MISS LATENCY LOAD: -nan cycles
STLB AVERAGE MISS LATENCY PREFETCH: -nan cycles
STLB AVERAGE MSHR OCCUPANCY: 0.348907
STLB MSHR FULL: 0
STLB RQ	ACCESS:   51662749	FORWARD:          0	MERGED:   32609653	TO_CACHE:   19053096

STLB Hit, L1D data hit: 0
STLB Hit, L2C data hit: 0
STLB Hit, LLC data hit: 0
STLB Hit, LLC data miss: 0
STLB STLB hints to L2: 0
L0D SPEC fills:   32196593  NON-SPEC fills:          0
L0D TimeGuard Request with older TS:     298310 Restricted eviction:     324591 read:          2
L0D Test counter :          0
L0D Leapfrog:          0
L0D MSHR merge:     227439
L0D TOTAL     ACCESS:   51218021  HIT:   12493949  MISS:   38724072  HIT %:    24.3937  MISS %:    75.6063   MPKI: 193.62
L0D LOAD      TOTAL       ACCESS:   51218021  HIT:   12493949  MISS:   38724072  HIT %:    24.3937  MISS %:    75.6063   MPKI: 193.62
L0D LOAD      NON_SPEC    ACCESS:    6205362  HIT:       2382  MISS:    6202980  HIT %:  0.0383862  MISS %:    99.9616   MPKI: 31.0149
L0D LOAD      SPEC        ACCESS:   45012659  HIT:   12491567  MISS:   32521092  HIT %:    27.7512  MISS %:    72.2488   MPKI: 162.605
L0D PREFETCH  REQUESTED:          0  ISSUED:          0  USEFUL:          0  USELESS:          0
L0D USEFUL LOAD PREFETCHES:          0 PREFETCH ISSUED TO LOWER LEVEL:          0  ACCURACY: -nan
L0D TIMELY PREFETCHES:          0 LATE PREFETCHES: 0 DROPPED PREFETCHES: 0
L0D COMMIT LATE PREFETCHES: 0 NORMAL LATE: 0 MISSED OPPORTUNITY: 0 UNCOVERED: 38724072
L0D PREFETCHES SAME FILL-ORIGIN LEVEL: 0 DIFFERENT FILL-ORIGIN LEVEL: 0
L0D AVERAGE MISS LATENCY: 51.2041 cycles
L0D AVERAGE MISS LATENCY LOAD: 51.2041 cycles
L0D AVERAGE MISS LATENCY PREFETCH: -nan cycles
L0D AVERAGE MSHR OCCUPANCY: 1.20533
L0D MSHR FULL: 0.0174965
L0D RQ	ACCESS:   52229201	FORWARD:          0	MERGED:     783749	TO_CACHE:   51445452
L0D WQ	ACCESS:    9121061	FORWARD:          0	MERGED:          0	TO_CACHE:    9121061

L1D SPEC fills:          0  NON-SPEC fills:     623492
L1D Test counter :          0
L1D Leapfrog:          0
L1D MSHR merge:       8397
L1D TOTAL     ACCESS:  111651646  HIT:   77739843  MISS:   33911803  HIT %:    69.6271  MISS %:    30.3729   MPKI: 169.559
L1D LOAD      TOTAL       ACCESS:   38723015  HIT:   21950100  MISS:   16772915  HIT %:    56.6849  MISS %:    43.3151   MPKI: 83.8646
L1D LOAD      NON_SPEC    ACCESS:    6202183  HIT:    5578691  MISS:     623492  HIT %:    89.9472  MISS %:    10.0528   MPKI: 3.11746
L1D LOAD      SPEC        ACCESS:   32520832  HIT:   16371409  MISS:   16149423  HIT %:    50.3413  MISS %:    49.6587   MPKI: 80.7471
L1D RFO       NON_SPEC    ACCESS:    3748449  HIT:    3719057  MISS:      29392  HIT %:    99.2159  MISS %:   0.784111   MPKI: 0.14696
L1D PREFETCH  NON_SPEC    ACCESS:   26594920  HIT:   25642468  MISS:     952452  HIT %:    96.4187  MISS %:    3.58133   MPKI: 4.76226
L1D COMMIT LOAD NON_SPEC    ACCESS:   10663916  HIT:   10450700  MISS:     213216  HIT %:    98.0006  MISS %:    1.99942   MPKI: 1.06608
L1D COMMIT WRITE NON_SPEC    ACCESS:   31921346  HIT:   15977518  MISS:   15943828  HIT %:    50.0528  MISS %:    49.9472   MPKI: 79.7191
L1D PREFETCH  REQUESTED:   44504303  ISSUED:   44180656  USEFUL:     791345  USELESS:     161098
L1D USEFUL LOAD PREFETCHES:     791345 PREFETCH ISSUED TO LOWER LEVEL:   14055830  ACCURACY: 5.63001
L1D TIMELY PREFETCHES:     791345 LATE PREFETCHES: 7352 DROPPED PREFETCHES: 2430338
L1D COMMIT LATE PREFETCHES: 0 NORMAL LATE: 7352 MISSED OPPORTUNITY: 0 UNCOVERED: 16765563
L1D PREFETCHES SAME FILL-ORIGIN LEVEL: 959804 DIFFERENT FILL-ORIGIN LEVEL: 13096026
L1D AVERAGE MISS LATENCY: 57.4126 cycles
L1D AVERAGE MISS LATENCY LOAD: 106.56 cycles
L1D AVERAGE MISS LATENCY PREFETCH: 142.381 cycles
L1D AVERAGE MSHR OCCUPANCY: 1.09503
L1D MSHR FULL: 0.014881
L1D RQ	ACCESS:   52826067	FORWARD:          0	MERGED:    3289176	TO_CACHE:   49388827
L1D WQ	ACCESS:   41042922	FORWARD:     148064	MERGED:    5315566	TO_CACHE:   35727356
L1D PQ	ACCESS:   44180656	FORWARD:          0	MERGED:    1937272	TO_CACHE:   42243384

L1D UNIQUE REGIONS ACCESSED: 0
L1D REGIONS CONFLICTS: 0
L1D Cross Page Prefetch Requests: 6083096
L1D Same Page Prefetch Requests: 46991026
L1D ROI Sum of L1D PQ occupancy: 934274811
L1D PREFETCHES PUSHED FROM L2C: 0
L1I SPEC fills:          0  NON-SPEC fills:          0
L1I Test counter :          0
L1I Leapfrog:          0
L1I MSHR merge:          0
L1I TOTAL     ACCESS:   40943575  HIT:   40943575  MISS:          0  HIT %:        100  MISS %:          0   MPKI: 0
L1I LOAD      TOTAL       ACCESS:   40943575  HIT:   40943575  MISS:          0  HIT %:        100  MISS %:          0   MPKI: 0
L1I LOAD      NON_SPEC    ACCESS:   40943575  HIT:   40943575  MISS:          0  HIT %:        100  MISS %:          0   MPKI: 0
L1I PREFETCH  REQUESTED:          0  ISSUED:          0  USEFUL:          0  USELESS:          0
L1I USEFUL LOAD PREFETCHES:          0 PREFETCH ISSUED TO LOWER LEVEL:          0  ACCURACY: -nan
L1I TIMELY PREFETCHES:          0 LATE PREFETCHES: 0 DROPPED PREFETCHES: 0
L1I COMMIT LATE PREFETCHES: 0 NORMAL LATE: 0 MISSED OPPORTUNITY: 0 UNCOVERED: 0
L1I PREFETCHES SAME FILL-ORIGIN LEVEL: 0 DIFFERENT FILL-ORIGIN LEVEL: 0
L1I AVERAGE MISS LATENCY: -nan cycles
L1I AVERAGE MISS LATENCY LOAD: -nan cycles
L1I AVERAGE MISS LATENCY PREFETCH: -nan cycles
L1I AVERAGE MSHR OCCUPANCY: 0
L1I MSHR FULL: 0
L1I RQ	ACCESS:   52456282	FORWARD:          0	MERGED:   11512708	TO_CACHE:   40943574

BTB SPEC fills:          0  NON-SPEC fills:          0
BTB Test counter :          0
BTB Leapfrog:          0
BTB MSHR merge:          0
BTB TOTAL     ACCESS:   38946633  HIT:   38946619  MISS:         14  HIT %:        100  MISS %: 3.59466e-05   MPKI: 7e-05
BTB BRANCH_DIRECT_JUMP	ACCESS:     251798  HIT:     251794  MISS:          4
BTB BRANCH_INDIRECT	ACCESS:          0  HIT:          0  MISS:          0
BTB BRANCH_CONDITIONAL	ACCESS:   38694807  HIT:   38694799  MISS:          8
BTB BRANCH_DIRECT_CALL	ACCESS:         14  HIT:         13  MISS:          1
BTB BRANCH_INDIRECT_CALL	ACCESS:          0  HIT:          0  MISS:          0
BTB BRANCH_RETURN	ACCESS:         14  HIT:         13  MISS:          1
BTB BRANCH_OTHER ACCESS:          0  HIT:          0  MISS:          0

L2C SPEC fills:          0  NON-SPEC fills:     508699
L2C Test counter :          0
L2C Leapfrog:          0
L2C MSHR merge:      46781
L2C TOTAL     ACCESS:   67502473  HIT:   37887454  MISS:   29615019  HIT %:    56.1275  MISS %:    43.8725   MPKI: 148.075
L2C LOAD      TOTAL       ACCESS:   16765515  HIT:    3148559  MISS:   13616956  HIT %:      18.78  MISS %:      81.22   MPKI: 68.0848
L2C LOAD      NON_SPEC    ACCESS:     623474  HIT:     114775  MISS:     508699  HIT %:    18.4089  MISS %:    81.5911   MPKI: 2.54349
L2C LOAD      SPEC        ACCESS:   16142041  HIT:    3033784  MISS:   13108257  HIT %:    18.7943  MISS %:    81.2057   MPKI: 65.5413
L2C RFO       NON_SPEC    ACCESS:      29392  HIT:        809  MISS:      28583  HIT %:    2.75245  MISS %:    97.2476   MPKI: 0.142915
L2C PREFETCH  NON_SPEC    ACCESS:   13730266  HIT:   11211184  MISS:    2519082  HIT %:    81.6531  MISS %:    18.3469   MPKI: 12.5954
L2C WRITEBACK NON_SPEC    ACCESS:     250622  HIT:     250487  MISS:        135  HIT %:    99.9461  MISS %:   0.053866   MPKI: 0.000675
L2C CLEAN_EVICTION NON_SPEC    ACCESS:   16761746  HIT:    3581252  MISS:   13180494  HIT %:    21.3656  MISS %:    78.6344   MPKI: 65.9025
L2C COMMIT LOAD NON_SPEC    ACCESS:     213094  HIT:      80822  MISS:     132272  HIT %:    37.9279  MISS %:    62.0721   MPKI: 0.66136
L2C LOAD TRANSLATION NON_SPEC    ACCESS:   14639706  HIT:   14520826  MISS:     118880  HIT %:     99.188  MISS %:   0.812038   MPKI: 0.5944
L2C TRANSLATION FROM L1D PREFETCHER NON_SPEC    ACCESS:    5112132  HIT:    5093515  MISS:      18617  HIT %:    99.6358  MISS %:   0.364173   MPKI: 0.093085
L2C PREFETCH  REQUESTED:          0  ISSUED:          0  USEFUL:     295644  USELESS:    2241987
L2C USEFUL LOAD PREFETCHES:     295644 PREFETCH ISSUED TO LOWER LEVEL:    2565877  ACCURACY: 11.5221
L2C TIMELY PREFETCHES:     295644 LATE PREFETCHES: 46795 DROPPED PREFETCHES: 0
L2C COMMIT LATE PREFETCHES: 0 NORMAL LATE: 46795 MISSED OPPORTUNITY: 0 UNCOVERED: 13570161
L2C PREFETCHES SAME FILL-ORIGIN LEVEL: 2014885 DIFFERENT FILL-ORIGIN LEVEL: 0
L2C AVERAGE MISS LATENCY: 76.2607 cycles
L2C AVERAGE MISS LATENCY LOAD: 117.226 cycles
L2C AVERAGE MISS LATENCY PREFETCH: 248.664 cycles
L2C AVERAGE MSHR OCCUPANCY: 1.4757
L2C MSHR FULL: 4.89099e-05
L2C RQ	ACCESS:   36760007	FORWARD:          0	MERGED:          0	TO_CACHE:   36759837
L2C WQ	ACCESS:   17012369	FORWARD:        170	MERGED:          0	TO_CACHE:   17012369
L2C PQ	ACCESS:   14054488	FORWARD:          0	MERGED:       1601	TO_CACHE:   14052887

L2C Instructions Evicting Data 0
L2C Translations Evicting Data 137309
L2C Data Evicting Data 3158703
L2C Instructions Evicting Instructions 0
L2C Translations Evicting Instructions 0
L2C Data Evicting Instructions 0
L2C Instructions Evicting Translations 0
L2C Translations Evicting Translations 188
L2C Data Evicting Translations 29933
L2C Dense regions hint from L2: 0
PSCL5 SPEC fills:          0  NON-SPEC fills:          0
PSCL5 Test counter :          0
PSCL5 Leapfrog:          0
PSCL5 MSHR merge:          0
PSCL5 TOTAL     ACCESS:          0  HIT:          0  MISS:          0  HIT %:       -nan  MISS %:       -nan   MPKI: 0
PSCL5 PREFETCH  REQUESTED:          0  ISSUED:          0  USEFUL:          0  USELESS:          0
PSCL5 USEFUL LOAD PREFETCHES:          0 PREFETCH ISSUED TO LOWER LEVEL:          0  ACCURACY: -nan
PSCL5 TIMELY PREFETCHES:          0 LATE PREFETCHES: 0 DROPPED PREFETCHES: 0
PSCL5 COMMIT LATE PREFETCHES: 0 NORMAL LATE: 0 MISSED OPPORTUNITY: 0 UNCOVERED: 0
PSCL5 PREFETCHES SAME FILL-ORIGIN LEVEL: 0 DIFFERENT FILL-ORIGIN LEVEL: 0

PSCL4 SPEC fills:          0  NON-SPEC fills:          0
PSCL4 Test counter :          0
PSCL4 Leapfrog:          0
PSCL4 MSHR merge:          0
PSCL4 TOTAL     ACCESS:          0  HIT:          0  MISS:          0  HIT %:       -nan  MISS %:       -nan   MPKI: 0
PSCL4 PREFETCH  REQUESTED:          0  ISSUED:          0  USEFUL:          0  USELESS:          0
PSCL4 USEFUL LOAD PREFETCHES:          0 PREFETCH ISSUED TO LOWER LEVEL:          0  ACCURACY: -nan
PSCL4 TIMELY PREFETCHES:          0 LATE PREFETCHES: 0 DROPPED PREFETCHES: 0
PSCL4 COMMIT LATE PREFETCHES: 0 NORMAL LATE: 0 MISSED OPPORTUNITY: 0 UNCOVERED: 0
PSCL4 PREFETCHES SAME FILL-ORIGIN LEVEL: 0 DIFFERENT FILL-ORIGIN LEVEL: 0

PSCL3 SPEC fills:          0  NON-SPEC fills:          0
PSCL3 Test counter :          0
PSCL3 Leapfrog:          0
PSCL3 MSHR merge:          0
PSCL3 TOTAL     ACCESS:          0  HIT:          0  MISS:          0  HIT %:       -nan  MISS %:       -nan   MPKI: 0
PSCL3 PREFETCH  REQUESTED:          0  ISSUED:          0  USEFUL:          0  USELESS:          0
PSCL3 USEFUL LOAD PREFETCHES:          0 PREFETCH ISSUED TO LOWER LEVEL:          0  ACCURACY: -nan
PSCL3 TIMELY PREFETCHES:          0 LATE PREFETCHES: 0 DROPPED PREFETCHES: 0
PSCL3 COMMIT LATE PREFETCHES: 0 NORMAL LATE: 0 MISSED OPPORTUNITY: 0 UNCOVERED: 0
PSCL3 PREFETCHES SAME FILL-ORIGIN LEVEL: 0 DIFFERENT FILL-ORIGIN LEVEL: 0

PSCL2 SPEC fills:          0  NON-SPEC fills:          0
PSCL2 Test counter :          0
PSCL2 Leapfrog:          0
PSCL2 MSHR merge:          0
PSCL2 TOTAL     ACCESS:          0  HIT:          0  MISS:          0  HIT %:       -nan  MISS %:       -nan   MPKI: 0
PSCL2 PREFETCH  REQUESTED:          0  ISSUED:          0  USEFUL:          0  USELESS:          0
PSCL2 USEFUL LOAD PREFETCHES:          0 PREFETCH ISSUED TO LOWER LEVEL:          0  ACCURACY: -nan
PSCL2 TIMELY PREFETCHES:          0 LATE PREFETCHES: 0 DROPPED PREFETCHES: 0
PSCL2 COMMIT LATE PREFETCHES: 0 NORMAL LATE: 0 MISSED OPPORTUNITY: 0 UNCOVERED: 0
PSCL2 PREFETCHES SAME FILL-ORIGIN LEVEL: 0 DIFFERENT FILL-ORIGIN LEVEL: 0

LLC SPEC fills:          0  NON-SPEC fills:     321176
LLC Test counter :          0
LLC Leapfrog:          0
LLC MSHR merge:          0
LLC TOTAL     ACCESS:   30977394  HIT:   12456821  MISS:   18520573  HIT %:    40.2126  MISS %:    59.7874   MPKI: 92.6029
LLC LOAD      TOTAL       ACCESS:   13570126  HIT:    5733459  MISS:    7836667  HIT %:    42.2506  MISS %:    57.7494   MPKI: 39.1833
LLC LOAD      NON_SPEC    ACCESS:     508135  HIT:     186959  MISS:     321176  HIT %:    36.7932  MISS %:    63.2068   MPKI: 1.60588
LLC LOAD      SPEC        ACCESS:   13061991  HIT:    5546500  MISS:    7515491  HIT %:    42.4629  MISS %:    57.5371   MPKI: 37.5775
LLC RFO       NON_SPEC    ACCESS:      28583  HIT:        560  MISS:      28023  HIT %:    1.95921  MISS %:    98.0408   MPKI: 0.140115
LLC PREFETCH  NON_SPEC    ACCESS:    2565877  HIT:     280216  MISS:    2285661  HIT %:    10.9209  MISS %:    89.0791   MPKI: 11.4283
LLC WRITEBACK NON_SPEC    ACCESS:     242223  HIT:     242200  MISS:         23  HIT %:    99.9905  MISS %: 0.00949538   MPKI: 0.000115
LLC CLEAN_EVICTION NON_SPEC    ACCESS:   14300878  HIT:    6006151  MISS:    8294727  HIT %:    41.9985  MISS %:    58.0015   MPKI: 41.4736
LLC COMMIT LOAD NON_SPEC    ACCESS:     132210  HIT:     113322  MISS:      18888  HIT %:    85.7136  MISS %:    14.2864   MPKI: 0.09444
LLC LOAD TRANSLATION NON_SPEC    ACCESS:     118880  HIT:      73513  MISS:      45367  HIT %:     61.838  MISS %:     38.162   MPKI: 0.226835
LLC TRANSLATION FROM L1D PREFETCHER NON_SPEC    ACCESS:      18617  HIT:       7400  MISS:      11217  HIT %:    39.7486  MISS %:    60.2514   MPKI: 0.056085
LLC PREFETCH  REQUESTED:          0  ISSUED:          0  USEFUL:     149654  USELESS:    2148886
LLC USEFUL LOAD PREFETCHES:     149654 PREFETCH ISSUED TO LOWER LEVEL:    2285661  ACCURACY: 6.54752
LLC TIMELY PREFETCHES:     149654 LATE PREFETCHES: 0 DROPPED PREFETCHES: 0
LLC COMMIT LATE PREFETCHES: 0 NORMAL LATE: 0 MISSED OPPORTUNITY: 0 UNCOVERED: 7836667
LLC PREFETCHES SAME FILL-ORIGIN LEVEL: 0 DIFFERENT FILL-ORIGIN LEVEL: 0
LLC AVERAGE MISS LATENCY: 102.097 cycles
LLC AVERAGE MISS LATENCY LOAD: 165.09 cycles
LLC AVERAGE MISS LATENCY PREFETCH: 249.514 cycles
LLC AVERAGE MSHR OCCUPANCY: 1.14494
LLC MSHR FULL: 0
LLC RQ	ACCESS:   13868512	FORWARD:          0	MERGED:          0	TO_CACHE:   13868415
LLC WQ	ACCESS:   14543103	FORWARD:         97	MERGED:          0	TO_CACHE:   14543103
LLC PQ	ACCESS:    2565877	FORWARD:          0	MERGED:          0	TO_CACHE:    2565877

LLC Dense regions hint to LLC: 0

RAW hits: 269745
Loads Generated: 52498946
Loads sent to L1D: 52229201
Stores Generated: 9121059
Stores sent to L1D: 9121061
Major fault: 0 Minor fault: 33138
Allocated PAGES: 33138
Total Load insts: 64358859
Total Non-spec loads: 6501662
Percentage of speculative loads: 89.8978

LeapFrogging counter: 214346
Commit hits: 31921862 miss: 14102000
Commit hit %: 69.3594 miss %: 30.6406
Commits not translated: 0
Loads retired: 16772914
Stores retired: 9121061
Cache fills: 16772915
L1D response latency: 106.56 cycles
Load retirement latency: 218.998 cycles
OOO test counter: 0
Discarded buffer inserts: 31921862 hits: 9180 hit %: 0.0287577
Filter prediction accuracy: -nan
LATENCY_FILL: 106.341 16746836

DRAM Statistics
 CHANNEL 0
 RQ ROW_BUFFER_HIT:     916319  ROW_BUFFER_MISS:    9307346
 DBUS_CONGESTED:       3575
 WQ ROW_BUFFER_HIT:    4720623  ROW_BUFFER_MISS:    4922582  FULL:      39051

 AVG_CONGESTED_CYCLE: 4
 All warmup complete: 2
Channel 0 Bank busy for read cycles: 0
Channel 0 Bank busy for write cycles: 0
Channel 0
Rank 0
0banks busy for read cycles: 6400384
0banks busy for write cycles: 33206
1banks busy for read cycles: 424894012
1banks busy for write cycles: 9703950
2banks busy for read cycles: 248565553
2banks busy for write cycles: 15709691
3banks busy for read cycles: 84709221
3banks busy for write cycles: 23749582
4banks busy for read cycles: 28373121
4banks busy for write cycles: 34374458
5banks busy for read cycles: 10763035
5banks busy for write cycles: 47518073
6banks busy for read cycles: 5595174
6banks busy for write cycles: 65737692
7banks busy for read cycles: 3810396
7banks busy for write cycles: 96384834
8banks busy for read cycles: 6294823
8banks busy for write cycles: 127487214

CPU 0 Branch Prediction Accuracy: 88.9318% MPKI: 21.5679 Average ROB Occupancy at Mispredict: 33.0565
Branch types
NOT_BRANCH: 161026980 80.5135%
BRANCH_DIRECT_JUMP: 251798 0.125899%
BRANCH_INDIRECT: 0 0%
BRANCH_CONDITIONAL: 38720835 19.3604%
BRANCH_DIRECT_CALL: 14 7e-06%
BRANCH_INDIRECT_CALL: 0 0%
BRANCH_RETURN: 14 7e-06%
BRANCH_OTHER: 0 0%

DRAM PAGES: 1048576
Allocated PAGES: 33138
