
*** ChampSim Multicore Out-of-Order Simulator ***

Warmup Instructions: 50000000
Simulation Instructions: 200000000
Number of CPUs: 1
LLC sets: 2048
LLC ways: 16
L0D sets: 16
L0D ways: 2
ROB size: 352
LQ size: 128
SQ size: 72
Secure Berti: OFF
Berti: OFF
Berti Fill: OFF
On commit prefetching: OFF
Hit-based filter: OFF
Time-guarding: ON
Free-slotting: ON
Leap-frogging: ON
Train prefetcher on L0D bypass: OFF
No translation penalty for prefetchers: OFF
Prefetch to L0D only: OFF
Prefetch to L1D only: OFF
Clean evictions: ON
Commit loads: ON
Commit write: ON
Fill commit loads to L2C, LLC: ON
DRAM IO FREQUENCY: 6400
ROB SIZE: 352
Off-chip DRAM Size: 4096 MB Channels: 1 Width: 64-bit Data Rate: 6400 MT/s
CPU 0 runs /home/sumon/secure_berti/GhostMinion/../../traces/gap/bc-12.trace.gz
.gz
BTB has LRU replacement policy
ITLB has LRU replacement policy
DTLB has LRU replacement policy
STLB has LRU replacement policy
L1I has LRU replacement policy
L0D has LRU replacement policy
History Sets: 8
History Ways: 16
BERTI Size: 16
BERTI Stride Size: 16
L1D has LRU replacement policy
L2C has LRU replacement policy
LLC has LRU replacement policy
Heartbeat CPU 0 instructions: 10000001 cycles: 3913123 heartbeat IPC: 2.5555 cumulative IPC: 2.5555 (Simulation time: 0 hr 0 min 41 sec) 
Heartbeat CPU 0 instructions: 20000000 cycles: 7484836 heartbeat IPC: 2.79978 cumulative IPC: 2.67207 (Simulation time: 0 hr 1 min 20 sec) 
Heartbeat CPU 0 instructions: 30000002 cycles: 11082716 heartbeat IPC: 2.77942 cumulative IPC: 2.70692 (Simulation time: 0 hr 1 min 58 sec) 
Heartbeat CPU 0 instructions: 40000001 cycles: 14670177 heartbeat IPC: 2.78749 cumulative IPC: 2.72662 (Simulation time: 0 hr 2 min 36 sec) 
Heartbeat CPU 0 instructions: 50000001 cycles: 18216694 heartbeat IPC: 2.81967 cumulative IPC: 2.74474 (Simulation time: 0 hr 3 min 13 sec) 

Warmup complete CPU 0 instructions: 50000001 cycles: 18216694 (Simulation time: 0 hr 3 min 13 sec) 

Heartbeat CPU 0 instructions: 60000001 cycles: 85880566 heartbeat IPC: 0.147789 cumulative IPC: 0.147789 (Simulation time: 0 hr 4 min 16 sec) 
Heartbeat CPU 0 instructions: 70000002 cycles: 154337537 heartbeat IPC: 0.146077 cumulative IPC: 0.146928 (Simulation time: 0 hr 5 min 16 sec) 
Heartbeat CPU 0 instructions: 80000002 cycles: 222252395 heartbeat IPC: 0.147243 cumulative IPC: 0.147033 (Simulation time: 0 hr 6 min 16 sec) 
Heartbeat CPU 0 instructions: 90000002 cycles: 291135464 heartbeat IPC: 0.145174 cumulative IPC: 0.146564 (Simulation time: 0 hr 7 min 15 sec) 
Heartbeat CPU 0 instructions: 100000001 cycles: 359649475 heartbeat IPC: 0.145956 cumulative IPC: 0.146442 (Simulation time: 0 hr 8 min 12 sec) 
Heartbeat CPU 0 instructions: 110000000 cycles: 428411637 heartbeat IPC: 0.145429 cumulative IPC: 0.146272 (Simulation time: 0 hr 9 min 9 sec) 
Heartbeat CPU 0 instructions: 120000001 cycles: 496893586 heartbeat IPC: 0.146024 cumulative IPC: 0.146236 (Simulation time: 0 hr 10 min 7 sec) 
Heartbeat CPU 0 instructions: 130000000 cycles: 565573866 heartbeat IPC: 0.145602 cumulative IPC: 0.146157 (Simulation time: 0 hr 11 min 3 sec) 
Heartbeat CPU 0 instructions: 140000000 cycles: 634000681 heartbeat IPC: 0.146142 cumulative IPC: 0.146155 (Simulation time: 0 hr 12 min 1 sec) 
Heartbeat CPU 0 instructions: 150000001 cycles: 702884382 heartbeat IPC: 0.145172 cumulative IPC: 0.146056 (Simulation time: 0 hr 12 min 58 sec) 
Heartbeat CPU 0 instructions: 160000001 cycles: 771039681 heartbeat IPC: 0.146724 cumulative IPC: 0.146117 (Simulation time: 0 hr 13 min 56 sec) 
Heartbeat CPU 0 instructions: 170000003 cycles: 839139533 heartbeat IPC: 0.146843 cumulative IPC: 0.146177 (Simulation time: 0 hr 14 min 54 sec) 
Heartbeat CPU 0 instructions: 180000001 cycles: 907776328 heartbeat IPC: 0.145694 cumulative IPC: 0.14614 (Simulation time: 0 hr 15 min 50 sec) 
Heartbeat CPU 0 instructions: 190000000 cycles: 972215169 heartbeat IPC: 0.155186 cumulative IPC: 0.146751 (Simulation time: 0 hr 16 min 46 sec) 
Heartbeat CPU 0 instructions: 200000000 cycles: 1040506874 heartbeat IPC: 0.146431 cumulative IPC: 0.146729 (Simulation time: 0 hr 17 min 39 sec) 
Heartbeat CPU 0 instructions: 210000002 cycles: 1108760257 heartbeat IPC: 0.146513 cumulative IPC: 0.146716 (Simulation time: 0 hr 18 min 33 sec) 
Heartbeat CPU 0 instructions: 220000000 cycles: 1176960070 heartbeat IPC: 0.146628 cumulative IPC: 0.146711 (Simulation time: 0 hr 19 min 26 sec) 
Heartbeat CPU 0 instructions: 230000001 cycles: 1244993757 heartbeat IPC: 0.146986 cumulative IPC: 0.146726 (Simulation time: 0 hr 20 min 18 sec) 
Heartbeat CPU 0 instructions: 240000001 cycles: 1313398178 heartbeat IPC: 0.146189 cumulative IPC: 0.146698 (Simulation time: 0 hr 21 min 11 sec) 
Heartbeat CPU 0 instructions: 250000003 cycles: 1381054761 heartbeat IPC: 0.147805 cumulative IPC: 0.146753 (Simulation time: 0 hr 22 min 1 sec) 
Finished CPU 0 instructions: 200000002 cycles: 1362838067 cumulative IPC: 0.146753 (Simulation time: 0 hr 22 min 1 sec) 
 Instruction ID: 250000045

ChampSim completed all CPUs

Region of Interest Statistics

CPU 0 cumulative IPC: 0.146753 instructions: 200000002 cycles: 1362838067
ITLB SPEC fills:          0  NON-SPEC fills:          0
ITLB Test counter :          0
ITLB Leapfrog:          0
ITLB MSHR merge:          0
ITLB TOTAL     ACCESS:   36665074  HIT:   36665074  MISS:          0  HIT %:        100  MISS %:          0   MPKI: 0
ITLB LOAD TRANSLATION NON_SPEC    ACCESS:   36665074  HIT:   36665074  MISS:          0  HIT %:        100  MISS %:          0   MPKI: 0
ITLB PREFETCH  REQUESTED:          0  ISSUED:          0  USEFUL:          0  USELESS:          0
ITLB USEFUL LOAD PREFETCHES:          0 PREFETCH ISSUED TO LOWER LEVEL:          0  ACCURACY: -nan
ITLB TIMELY PREFETCHES:          0 LATE PREFETCHES: 0 DROPPED PREFETCHES: 0
ITLB COMMIT LATE PREFETCHES: 0 NORMAL LATE: 0 MISSED OPPORTUNITY: 0 UNCOVERED: 0
ITLB PREFETCHES SAME FILL-ORIGIN LEVEL: 0 DIFFERENT FILL-ORIGIN LEVEL: 0
ITLB AVERAGE MISS LATENCY: -nan cycles
ITLB AVERAGE MISS LATENCY LOAD: -nan cycles
ITLB AVERAGE MISS LATENCY PREFETCH: -nan cycles
ITLB AVERAGE MSHR OCCUPANCY: 0
ITLB MSHR FULL: 0
ITLB RQ	ACCESS:   36966868	FORWARD:          0	MERGED:     301794	TO_CACHE:   36665074

DTLB SPEC fills:          0  NON-SPEC fills:          0
DTLB Test counter :          0
DTLB Leapfrog:          0
DTLB MSHR merge:          0
DTLB TOTAL     ACCESS:   60111155  HIT:   51604869  MISS:    8506286  HIT %:    85.8491  MISS %:    14.1509   MPKI: 42.5314
DTLB LOAD TRANSLATION NON_SPEC    ACCESS:   60111155  HIT:   51604869  MISS:    8506286  HIT %:    85.8491  MISS %:    14.1509   MPKI: 42.5314
DTLB PREFETCH  REQUESTED:          0  ISSUED:          0  USEFUL:          0  USELESS:          0
DTLB USEFUL LOAD PREFETCHES:          0 PREFETCH ISSUED TO LOWER LEVEL:          0  ACCURACY: -nan
DTLB TIMELY PREFETCHES:          0 LATE PREFETCHES: 0 DROPPED PREFETCHES: 0
DTLB COMMIT LATE PREFETCHES: 0 NORMAL LATE: 0 MISSED OPPORTUNITY: 0 UNCOVERED: 0
DTLB PREFETCHES SAME FILL-ORIGIN LEVEL: 0 DIFFERENT FILL-ORIGIN LEVEL: 0
DTLB AVERAGE MISS LATENCY: 42.5047 cycles
DTLB AVERAGE MISS LATENCY LOAD: -nan cycles
DTLB AVERAGE MISS LATENCY PREFETCH: -nan cycles
DTLB AVERAGE MSHR OCCUPANCY: 0.257373
DTLB MSHR FULL: 0.000416239
DTLB RQ	ACCESS:   66063388	FORWARD:          0	MERGED:    5253080	TO_CACHE:   60810308

STLB SPEC fills:          0  NON-SPEC fills:          0
STLB Test counter :          0
STLB Leapfrog:          0
STLB MSHR merge:          0
STLB TOTAL     ACCESS:   18249410  HIT:   14880093  MISS:    3369317  HIT %:    81.5374  MISS %:    18.4626   MPKI: 16.8466
STLB LOAD TRANSLATION NON_SPEC    ACCESS:    8506286  HIT:    5279960  MISS:    3226326  HIT %:    62.0713  MISS %:    37.9287   MPKI: 16.1316
STLB TRANSLATION FROM L1D PREFETCHER NON_SPEC    ACCESS:    9743124  HIT:    9600133  MISS:     142991  HIT %:    98.5324  MISS %:    1.46761   MPKI: 0.714955
STLB PREFETCH  REQUESTED:          0  ISSUED:          0  USEFUL:     140356  USELESS:       2636
STLB USEFUL LOAD PREFETCHES:     140356 PREFETCH ISSUED TO LOWER LEVEL:          0  ACCURACY: inf
STLB TIMELY PREFETCHES:     140356 LATE PREFETCHES: 14652 DROPPED PREFETCHES: 1002374
STLB COMMIT LATE PREFETCHES: 0 NORMAL LATE: 14652 MISSED OPPORTUNITY: 0 UNCOVERED: 18446744073709536964
STLB PREFETCHES SAME FILL-ORIGIN LEVEL: 0 DIFFERENT FILL-ORIGIN LEVEL: 0
STLB AVERAGE MISS LATENCY: 88.7144 cycles
STLB AVERAGE MISS LATENCY LOAD: -nan cycles
STLB AVERAGE MISS LATENCY PREFETCH: -nan cycles
STLB AVERAGE MSHR OCCUPANCY: 0.305452
STLB MSHR FULL: 0
STLB RQ	ACCESS:   59679300	FORWARD:          0	MERGED:   40308457	TO_CACHE:   19370843

STLB Hit, L1D data hit: 0
STLB Hit, L2C data hit: 0
STLB Hit, LLC data hit: 0
STLB Hit, LLC data miss: 0
STLB STLB hints to L2: 0
L0D SPEC fills:   35840880  NON-SPEC fills:          0
L0D TimeGuard Request with older TS:     405961 Restricted eviction:     392612 read:          0
L0D Test counter :          0
L0D Leapfrog:          0
L0D MSHR merge:     233833
L0D TOTAL     ACCESS:   54584619  HIT:    9049543  MISS:   45535076  HIT %:    16.5789  MISS %:    83.4211   MPKI: 227.675
L0D LOAD      TOTAL       ACCESS:   54584619  HIT:    9049543  MISS:   45535076  HIT %:    16.5789  MISS %:    83.4211   MPKI: 227.675
L0D LOAD      NON_SPEC    ACCESS:    9305789  HIT:       4136  MISS:    9301653  HIT %:  0.0444455  MISS %:    99.9556   MPKI: 46.5083
L0D LOAD      SPEC        ACCESS:   45278830  HIT:    9045407  MISS:   36233423  HIT %:    19.9771  MISS %:    80.0229   MPKI: 181.167
L0D PREFETCH  REQUESTED:          0  ISSUED:          0  USEFUL:          0  USELESS:          0
L0D USEFUL LOAD PREFETCHES:          0 PREFETCH ISSUED TO LOWER LEVEL:          0  ACCURACY: -nan
L0D TIMELY PREFETCHES:          0 LATE PREFETCHES: 0 DROPPED PREFETCHES: 0
L0D COMMIT LATE PREFETCHES: 0 NORMAL LATE: 0 MISSED OPPORTUNITY: 0 UNCOVERED: 45535076
L0D PREFETCHES SAME FILL-ORIGIN LEVEL: 0 DIFFERENT FILL-ORIGIN LEVEL: 0
L0D AVERAGE MISS LATENCY: 47.8745 cycles
L0D AVERAGE MISS LATENCY LOAD: 47.8745 cycles
L0D AVERAGE MISS LATENCY PREFETCH: -nan cycles
L0D AVERAGE MSHR OCCUPANCY: 1.42153
L0D MSHR FULL: 0.0402879
L0D RQ	ACCESS:   55504529	FORWARD:          0	MERGED:     686079	TO_CACHE:   54818450
L0D WQ	ACCESS:   11244938	FORWARD:          0	MERGED:          0	TO_CACHE:   11244938

L1D SPEC fills:          0  NON-SPEC fills:    3623794
L1D Test counter :          0
L1D Leapfrog:          0
L1D MSHR merge:      13995
L1D TOTAL     ACCESS:  123907828  HIT:   93681001  MISS:   30226827  HIT %:    75.6054  MISS %:    24.3946   MPKI: 151.134
L1D LOAD      TOTAL       ACCESS:   45533534  HIT:   29058454  MISS:   16475080  HIT %:    63.8177  MISS %:    36.1823   MPKI: 82.3754
L1D LOAD      NON_SPEC    ACCESS:    9300509  HIT:    5676715  MISS:    3623794  HIT %:    61.0366  MISS %:    38.9634   MPKI: 18.119
L1D LOAD      SPEC        ACCESS:   36233025  HIT:   23381739  MISS:   12851286  HIT %:    64.5316  MISS %:    35.4684   MPKI: 64.2564
L1D RFO       NON_SPEC    ACCESS:    6865548  HIT:    6835742  MISS:      29806  HIT %:    99.5659  MISS %:   0.434139   MPKI: 0.14903
L1D PREFETCH  NON_SPEC    ACCESS:   28180446  HIT:   27315849  MISS:     864597  HIT %:    96.9319  MISS %:    3.06807   MPKI: 4.32298
L1D COMMIT LOAD NON_SPEC    ACCESS:    7723782  HIT:    7535008  MISS:     188774  HIT %:    97.5559  MISS %:    2.44406   MPKI: 0.94387
L1D COMMIT WRITE NON_SPEC    ACCESS:   35604518  HIT:   22935948  MISS:   12668570  HIT %:    64.4186  MISS %:    35.5814   MPKI: 63.3428
L1D PREFETCH  REQUESTED:   55878338  ISSUED:   54448084  USEFUL:     732811  USELESS:     131804
L1D USEFUL LOAD PREFETCHES:     732811 PREFETCH ISSUED TO LOWER LEVEL:   20973904  ACCURACY: 3.49392
L1D TIMELY PREFETCHES:     732811 LATE PREFETCHES: 12455 DROPPED PREFETCHES: 2762161
L1D COMMIT LATE PREFETCHES: 0 NORMAL LATE: 12455 MISSED OPPORTUNITY: 0 UNCOVERED: 16462625
L1D PREFETCHES SAME FILL-ORIGIN LEVEL: 877058 DIFFERENT FILL-ORIGIN LEVEL: 20096846
L1D AVERAGE MISS LATENCY: 68.8199 cycles
L1D AVERAGE MISS LATENCY LOAD: 117.723 cycles
L1D AVERAGE MISS LATENCY PREFETCH: 136.814 cycles
L1D AVERAGE MSHR OCCUPANCY: 0.984011
L1D MSHR FULL: 0.0122011
L1D RQ	ACCESS:   56124783	FORWARD:          0	MERGED:    2243713	TO_CACHE:   53259965
L1D WQ	ACCESS:   46853918	FORWARD:     621105	MERGED:    4310063	TO_CACHE:   42543855
L1D PQ	ACCESS:   54448084	FORWARD:          0	MERGED:    3275070	TO_CACHE:   51173014

L1D UNIQUE REGIONS ACCESSED: 0
L1D REGIONS CONFLICTS: 0
L1D Cross Page Prefetch Requests: 7103844
L1D Same Page Prefetch Requests: 55832514
L1D ROI Sum of L1D PQ occupancy: 1164023919
L1D PREFETCHES PUSHED FROM L2C: 0
L1I SPEC fills:          0  NON-SPEC fills:          0
L1I Test counter :          0
L1I Leapfrog:          0
L1I MSHR merge:          0
L1I TOTAL     ACCESS:   36966868  HIT:   36966868  MISS:          0  HIT %:        100  MISS %:          0   MPKI: 0
L1I LOAD      TOTAL       ACCESS:   36966868  HIT:   36966868  MISS:          0  HIT %:        100  MISS %:          0   MPKI: 0
L1I LOAD      NON_SPEC    ACCESS:   36966868  HIT:   36966868  MISS:          0  HIT %:        100  MISS %:          0   MPKI: 0
L1I PREFETCH  REQUESTED:          0  ISSUED:          0  USEFUL:          0  USELESS:          0
L1I USEFUL LOAD PREFETCHES:          0 PREFETCH ISSUED TO LOWER LEVEL:          0  ACCURACY: -nan
L1I TIMELY PREFETCHES:          0 LATE PREFETCHES: 0 DROPPED PREFETCHES: 0
L1I COMMIT LATE PREFETCHES: 0 NORMAL LATE: 0 MISSED OPPORTUNITY: 0 UNCOVERED: 0
L1I PREFETCHES SAME FILL-ORIGIN LEVEL: 0 DIFFERENT FILL-ORIGIN LEVEL: 0
L1I AVERAGE MISS LATENCY: -nan cycles
L1I AVERAGE MISS LATENCY LOAD: -nan cycles
L1I AVERAGE MISS LATENCY PREFETCH: -nan cycles
L1I AVERAGE MSHR OCCUPANCY: 0
L1I MSHR FULL: 0
L1I RQ	ACCESS:   48282832	FORWARD:          0	MERGED:   11315964	TO_CACHE:   36966868

BTB SPEC fills:          0  NON-SPEC fills:          0
BTB Test counter :          0
BTB Leapfrog:          0
BTB MSHR merge:          0
BTB TOTAL     ACCESS:   35189020  HIT:   35189006  MISS:         14  HIT %:        100  MISS %: 3.97851e-05   MPKI: 7e-05
BTB BRANCH_DIRECT_JUMP	ACCESS:     253973  HIT:     253969  MISS:          4
BTB BRANCH_INDIRECT	ACCESS:          0  HIT:          0  MISS:          0
BTB BRANCH_CONDITIONAL	ACCESS:   34935019  HIT:   34935011  MISS:          8
BTB BRANCH_DIRECT_CALL	ACCESS:         14  HIT:         13  MISS:          1
BTB BRANCH_INDIRECT_CALL	ACCESS:          0  HIT:          0  MISS:          0
BTB BRANCH_RETURN	ACCESS:         14  HIT:         13  MISS:          1
BTB BRANCH_OTHER ACCESS:          0  HIT:          0  MISS:          0

L2C SPEC fills:          0  NON-SPEC fills:    3346759
L2C Test counter :          0
L2C Leapfrog:          0
L2C MSHR merge:      85166
L2C TOTAL     ACCESS:   75268773  HIT:   47905996  MISS:   27362777  HIT %:    63.6466  MISS %:    36.3534   MPKI: 136.814
L2C LOAD      TOTAL       ACCESS:   16462590  HIT:    2814340  MISS:   13648250  HIT %:    17.0954  MISS %:    82.9046   MPKI: 68.2412
L2C LOAD      NON_SPEC    ACCESS:    3622976  HIT:     276217  MISS:    3346759  HIT %:    7.62404  MISS %:     92.376   MPKI: 16.7338
L2C LOAD      SPEC        ACCESS:   12839614  HIT:    2538123  MISS:   10301491  HIT %:    19.7679  MISS %:    80.2321   MPKI: 51.5075
L2C RFO       NON_SPEC    ACCESS:      29806  HIT:        751  MISS:      29055  HIT %:    2.51963  MISS %:    97.4804   MPKI: 0.145275
L2C PREFETCH  NON_SPEC    ACCESS:   20352002  HIT:   17273262  MISS:    3078740  HIT %:    84.8725  MISS %:    15.1275   MPKI: 15.3937
L2C WRITEBACK NON_SPEC    ACCESS:    2942860  HIT:    2942801  MISS:         59  HIT %:     99.998  MISS %: 0.00200485   MPKI: 0.000295
L2C CLEAN_EVICTION NON_SPEC    ACCESS:   13421810  HIT:    3070348  MISS:   10351462  HIT %:    22.8758  MISS %:    77.1242   MPKI: 51.7573
L2C COMMIT LOAD NON_SPEC    ACCESS:     188720  HIT:      65302  MISS:     123418  HIT %:    34.6026  MISS %:    65.3974   MPKI: 0.61709
L2C LOAD TRANSLATION NON_SPEC    ACCESS:   16072638  HIT:   15961200  MISS:     111438  HIT %:    99.3067  MISS %:    0.69334   MPKI: 0.55719
L2C TRANSLATION FROM L1D PREFETCHER NON_SPEC    ACCESS:    5798347  HIT:    5777992  MISS:      20355  HIT %:     99.649  MISS %:   0.351048   MPKI: 0.101775
L2C PREFETCH  REQUESTED:          0  ISSUED:          0  USEFUL:     464893  USELESS:    2634305
L2C USEFUL LOAD PREFETCHES:     464893 PREFETCH ISSUED TO LOWER LEVEL:    3163918  ACCURACY: 14.6936
L2C TIMELY PREFETCHES:     464893 LATE PREFETCHES: 85178 DROPPED PREFETCHES: 0
L2C COMMIT LATE PREFETCHES: 0 NORMAL LATE: 85178 MISSED OPPORTUNITY: 0 UNCOVERED: 13563072
L2C PREFETCHES SAME FILL-ORIGIN LEVEL: 2718150 DIFFERENT FILL-ORIGIN LEVEL: 0
L2C AVERAGE MISS LATENCY: 95.9125 cycles
L2C AVERAGE MISS LATENCY LOAD: 127.427 cycles
L2C AVERAGE MISS LATENCY PREFETCH: 276.413 cycles
L2C AVERAGE MSHR OCCUPANCY: 1.51121
L2C MSHR FULL: 0.00089536
L2C RQ	ACCESS:   38552190	FORWARD:          0	MERGED:          0	TO_CACHE:   38552102
L2C WQ	ACCESS:   16364671	FORWARD:         88	MERGED:          1	TO_CACHE:   16364670
L2C PQ	ACCESS:   20942990	FORWARD:          0	MERGED:       4863	TO_CACHE:   20938127

L2C Instructions Evicting Data 0
L2C Translations Evicting Data 131691
L2C Data Evicting Data 6524550
L2C Instructions Evicting Instructions 0
L2C Translations Evicting Instructions 0
L2C Data Evicting Instructions 0
L2C Instructions Evicting Translations 0
L2C Translations Evicting Translations 102
L2C Data Evicting Translations 53422
L2C Dense regions hint from L2: 0
PSCL5 SPEC fills:          0  NON-SPEC fills:          0
PSCL5 Test counter :          0
PSCL5 Leapfrog:          0
PSCL5 MSHR merge:          0
PSCL5 TOTAL     ACCESS:          0  HIT:          0  MISS:          0  HIT %:       -nan  MISS %:       -nan   MPKI: 0
PSCL5 PREFETCH  REQUESTED:          0  ISSUED:          0  USEFUL:          0  USELESS:          0
PSCL5 USEFUL LOAD PREFETCHES:          0 PREFETCH ISSUED TO LOWER LEVEL:          0  ACCURACY: -nan
PSCL5 TIMELY PREFETCHES:          0 LATE PREFETCHES: 0 DROPPED PREFETCHES: 0
PSCL5 COMMIT LATE PREFETCHES: 0 NORMAL LATE: 0 MISSED OPPORTUNITY: 0 UNCOVERED: 0
PSCL5 PREFETCHES SAME FILL-ORIGIN LEVEL: 0 DIFFERENT FILL-ORIGIN LEVEL: 0

PSCL4 SPEC fills:          0  NON-SPEC fills:          0
PSCL4 Test counter :          0
PSCL4 Leapfrog:          0
PSCL4 MSHR merge:          0
PSCL4 TOTAL     ACCESS:          0  HIT:          0  MISS:          0  HIT %:       -nan  MISS %:       -nan   MPKI: 0
PSCL4 PREFETCH  REQUESTED:          0  ISSUED:          0  USEFUL:          0  USELESS:          0
PSCL4 USEFUL LOAD PREFETCHES:          0 PREFETCH ISSUED TO LOWER LEVEL:          0  ACCURACY: -nan
PSCL4 TIMELY PREFETCHES:          0 LATE PREFETCHES: 0 DROPPED PREFETCHES: 0
PSCL4 COMMIT LATE PREFETCHES: 0 NORMAL LATE: 0 MISSED OPPORTUNITY: 0 UNCOVERED: 0
PSCL4 PREFETCHES SAME FILL-ORIGIN LEVEL: 0 DIFFERENT FILL-ORIGIN LEVEL: 0

PSCL3 SPEC fills:          0  NON-SPEC fills:          0
PSCL3 Test counter :          0
PSCL3 Leapfrog:          0
PSCL3 MSHR merge:          0
PSCL3 TOTAL     ACCESS:          0  HIT:          0  MISS:          0  HIT %:       -nan  MISS %:       -nan   MPKI: 0
PSCL3 PREFETCH  REQUESTED:          0  ISSUED:          0  USEFUL:          0  USELESS:          0
PSCL3 USEFUL LOAD PREFETCHES:          0 PREFETCH ISSUED TO LOWER LEVEL:          0  ACCURACY: -nan
PSCL3 TIMELY PREFETCHES:          0 LATE PREFETCHES: 0 DROPPED PREFETCHES: 0
PSCL3 COMMIT LATE PREFETCHES: 0 NORMAL LATE: 0 MISSED OPPORTUNITY: 0 UNCOVERED: 0
PSCL3 PREFETCHES SAME FILL-ORIGIN LEVEL: 0 DIFFERENT FILL-ORIGIN LEVEL: 0

PSCL2 SPEC fills:          0  NON-SPEC fills:          0
PSCL2 Test counter :          0
PSCL2 Leapfrog:          0
PSCL2 MSHR merge:          0
PSCL2 TOTAL     ACCESS:          0  HIT:          0  MISS:          0  HIT %:       -nan  MISS %:       -nan   MPKI: 0
PSCL2 PREFETCH  REQUESTED:          0  ISSUED:          0  USEFUL:          0  USELESS:          0
PSCL2 USEFUL LOAD PREFETCHES:          0 PREFETCH ISSUED TO LOWER LEVEL:          0  ACCURACY: -nan
PSCL2 TIMELY PREFETCHES:          0 LATE PREFETCHES: 0 DROPPED PREFETCHES: 0
PSCL2 COMMIT LATE PREFETCHES: 0 NORMAL LATE: 0 MISSED OPPORTUNITY: 0 UNCOVERED: 0
PSCL2 PREFETCHES SAME FILL-ORIGIN LEVEL: 0 DIFFERENT FILL-ORIGIN LEVEL: 0

LLC SPEC fills:          0  NON-SPEC fills:    2596315
LLC Test counter :          0
LLC Leapfrog:          0
LLC MSHR merge:          0
LLC TOTAL     ACCESS:   31347682  HIT:   13863258  MISS:   17484424  HIT %:    44.2242  MISS %:    55.7758   MPKI: 87.4221
LLC LOAD      TOTAL       ACCESS:   13563050  HIT:    5337772  MISS:    8225278  HIT %:    39.3552  MISS %:    60.6448   MPKI: 41.1264
LLC LOAD      NON_SPEC    ACCESS:    3338479  HIT:     742164  MISS:    2596315  HIT %:    22.2306  MISS %:    77.7694   MPKI: 12.9816
LLC LOAD      SPEC        ACCESS:   10224571  HIT:    4595608  MISS:    5628963  HIT %:    44.9467  MISS %:    55.0533   MPKI: 28.1448
LLC RFO       NON_SPEC    ACCESS:      29055  HIT:        550  MISS:      28505  HIT %:    1.89296  MISS %:     98.107   MPKI: 0.142525
LLC PREFETCH  NON_SPEC    ACCESS:    3163917  HIT:     319198  MISS:    2844719  HIT %:    10.0887  MISS %:    89.9113   MPKI: 14.2236
LLC WRITEBACK NON_SPEC    ACCESS:    2839120  HIT:    2839100  MISS:         20  HIT %:    99.9993  MISS %: 0.000704444   MPKI: 0.0001
LLC CLEAN_EVICTION NON_SPEC    ACCESS:   11497361  HIT:    5187134  MISS:    6310227  HIT %:    45.1159  MISS %:    54.8841   MPKI: 31.5511
LLC COMMIT LOAD NON_SPEC    ACCESS:     123386  HIT:     101619  MISS:      21767  HIT %:    82.3586  MISS %:    17.6414   MPKI: 0.108835
LLC LOAD TRANSLATION NON_SPEC    ACCESS:     111438  HIT:      69729  MISS:      41709  HIT %:     62.572  MISS %:     37.428   MPKI: 0.208545
LLC TRANSLATION FROM L1D PREFETCHER NON_SPEC    ACCESS:      20355  HIT:       8156  MISS:      12199  HIT %:    40.0688  MISS %:    59.9312   MPKI: 0.060995
LLC PREFETCH  REQUESTED:          0  ISSUED:          0  USEFUL:     189722  USELESS:    2670294
LLC USEFUL LOAD PREFETCHES:     189722 PREFETCH ISSUED TO LOWER LEVEL:    2844719  ACCURACY: 6.66927
LLC TIMELY PREFETCHES:     189722 LATE PREFETCHES: 0 DROPPED PREFETCHES: 0
LLC COMMIT LATE PREFETCHES: 0 NORMAL LATE: 0 MISSED OPPORTUNITY: 0 UNCOVERED: 8225278
LLC PREFETCHES SAME FILL-ORIGIN LEVEL: 0 DIFFERENT FILL-ORIGIN LEVEL: 0
LLC AVERAGE MISS LATENCY: 127.183 cycles
LLC AVERAGE MISS LATENCY LOAD: 170.287 cycles
LLC AVERAGE MISS LATENCY PREFETCH: 280.291 cycles
LLC AVERAGE MSHR OCCUPANCY: 1.15338
LLC MSHR FULL: 0
LLC RQ	ACCESS:   13847339	FORWARD:          0	MERGED:          0	TO_CACHE:   13847285
LLC WQ	ACCESS:   14336481	FORWARD:         55	MERGED:          0	TO_CACHE:   14336481
LLC PQ	ACCESS:    3163918	FORWARD:          0	MERGED:          0	TO_CACHE:    3163917

LLC Dense regions hint to LLC: 0

RAW hits: 832254
Loads Generated: 56336782
Loads sent to L1D: 55504529
Stores Generated: 11244939
Stores sent to L1D: 11244938
Major fault: 0 Minor fault: 31004
Allocated PAGES: 31004
Total Load insts: 68037591
Total Non-spec loads: 9692719
Percentage of speculative loads: 85.7539

LeapFrogging counter: 1064741
Commit hits: 35609043 miss: 10589709
Commit hit %: 77.0779 miss %: 22.9221
Commits not translated: 0
Loads retired: 16475078
Stores retired: 11244938
Cache fills: 16475080
L1D response latency: 117.723 cycles
Load retirement latency: 232.146 cycles
OOO test counter: 0
Discarded buffer inserts: 35609043 hits: 8888 hit %: 0.02496
Filter prediction accuracy: -nan
LATENCY_FILL: 117.488 16447244

DRAM Statistics
 CHANNEL 0
 RQ ROW_BUFFER_HIT:    1316778  ROW_BUFFER_MISS:    9856002
 DBUS_CONGESTED:       5786
 WQ ROW_BUFFER_HIT:    4579286  ROW_BUFFER_MISS:    5320527  FULL:      15837

 AVG_CONGESTED_CYCLE: 4
 All warmup complete: 2
Channel 0 Bank busy for read cycles: 0
Channel 0 Bank busy for write cycles: 0
Channel 0
Rank 0
0banks busy for read cycles: 11008747
0banks busy for write cycles: 88199
1banks busy for read cycles: 476050043
1banks busy for write cycles: 20549446
2banks busy for read cycles: 256605353
2banks busy for write cycles: 35559520
3banks busy for read cycles: 74817329
3banks busy for write cycles: 52428731
4banks busy for read cycles: 26476353
4banks busy for write cycles: 66608885
5banks busy for read cycles: 13280032
5banks busy for write cycles: 73304421
6banks busy for read cycles: 8820863
6banks busy for write cycles: 73140549
7banks busy for read cycles: 6985985
7banks busy for write cycles: 73783238
8banks busy for read cycles: 9512023
8banks busy for write cycles: 83818351

CPU 0 Branch Prediction Accuracy: 85.1853% MPKI: 26.0899 Average ROB Occupancy at Mispredict: 29.1029
Branch types
NOT_BRANCH: 164778075 82.389%
BRANCH_DIRECT_JUMP: 253973 0.126986%
BRANCH_INDIRECT: 0 0%
BRANCH_CONDITIONAL: 34967586 17.4838%
BRANCH_DIRECT_CALL: 14 7e-06%
BRANCH_INDIRECT_CALL: 0 0%
BRANCH_RETURN: 14 7e-06%
BRANCH_OTHER: 0 0%

DRAM PAGES: 1048576
Allocated PAGES: 31004
