
*** ChampSim Multicore Out-of-Order Simulator ***

Warmup Instructions: 50000000
Simulation Instructions: 200000000
Number of CPUs: 1
LLC sets: 2048
LLC ways: 16
L0D sets: 16
L0D ways: 2
ROB size: 352
LQ size: 128
SQ size: 72
Secure Berti: OFF
Berti: OFF
Berti Fill: OFF
On commit prefetching: OFF
Hit-based filter: OFF
Time-guarding: ON
Free-slotting: ON
Leap-frogging: ON
Train prefetcher on L0D bypass: OFF
No translation penalty for prefetchers: OFF
Prefetch to L0D only: OFF
Prefetch to L1D only: OFF
Clean evictions: ON
Commit loads: ON
Commit write: ON
Fill commit loads to L2C, LLC: ON
DRAM IO FREQUENCY: 6400
ROB SIZE: 352
Off-chip DRAM Size: 4096 MB Channels: 1 Width: 64-bit Data Rate: 6400 MT/s
CPU 0 runs /home/sumon/secure_berti/GhostMinion/../../traces/gap/bc-3.trace.gz
.gz
BTB has LRU replacement policy
ITLB has LRU replacement policy
DTLB has LRU replacement policy
STLB has LRU replacement policy
L1I has LRU replacement policy
L0D has LRU replacement policy
History Sets: 8
History Ways: 16
BERTI Size: 16
BERTI Stride Size: 16
L1D has LRU replacement policy
L2C has LRU replacement policy
LLC has LRU replacement policy
Heartbeat CPU 0 instructions: 10000002 cycles: 3738546 heartbeat IPC: 2.67484 cumulative IPC: 2.67484 (Simulation time: 0 hr 0 min 39 sec) 
Heartbeat CPU 0 instructions: 20000000 cycles: 7046983 heartbeat IPC: 3.02257 cumulative IPC: 2.83809 (Simulation time: 0 hr 1 min 15 sec) 
Heartbeat CPU 0 instructions: 30000002 cycles: 10432406 heartbeat IPC: 2.95384 cumulative IPC: 2.87566 (Simulation time: 0 hr 1 min 50 sec) 
Heartbeat CPU 0 instructions: 40000003 cycles: 13826057 heartbeat IPC: 2.94668 cumulative IPC: 2.89309 (Simulation time: 0 hr 2 min 25 sec) 
Heartbeat CPU 0 instructions: 50000003 cycles: 17221073 heartbeat IPC: 2.94549 cumulative IPC: 2.90342 (Simulation time: 0 hr 2 min 59 sec) 

Warmup complete CPU 0 instructions: 50000003 cycles: 17221073 (Simulation time: 0 hr 2 min 59 sec) 

Heartbeat CPU 0 instructions: 60000001 cycles: 70818832 heartbeat IPC: 0.186575 cumulative IPC: 0.186575 (Simulation time: 0 hr 3 min 58 sec) 
Heartbeat CPU 0 instructions: 70000000 cycles: 124322300 heartbeat IPC: 0.186904 cumulative IPC: 0.186739 (Simulation time: 0 hr 4 min 56 sec) 
Heartbeat CPU 0 instructions: 80000000 cycles: 178142453 heartbeat IPC: 0.185804 cumulative IPC: 0.186426 (Simulation time: 0 hr 5 min 52 sec) 
Heartbeat CPU 0 instructions: 90000000 cycles: 231959998 heartbeat IPC: 0.185813 cumulative IPC: 0.186273 (Simulation time: 0 hr 6 min 47 sec) 
Heartbeat CPU 0 instructions: 100000003 cycles: 285135633 heartbeat IPC: 0.188056 cumulative IPC: 0.186627 (Simulation time: 0 hr 7 min 42 sec) 
Heartbeat CPU 0 instructions: 110000000 cycles: 338892515 heartbeat IPC: 0.186023 cumulative IPC: 0.186526 (Simulation time: 0 hr 8 min 36 sec) 
Heartbeat CPU 0 instructions: 120000000 cycles: 391568625 heartbeat IPC: 0.189839 cumulative IPC: 0.186992 (Simulation time: 0 hr 9 min 29 sec) 
Heartbeat CPU 0 instructions: 130000003 cycles: 445433828 heartbeat IPC: 0.185649 cumulative IPC: 0.186823 (Simulation time: 0 hr 10 min 23 sec) 
Heartbeat CPU 0 instructions: 140000001 cycles: 498973746 heartbeat IPC: 0.186776 cumulative IPC: 0.186818 (Simulation time: 0 hr 11 min 17 sec) 
Heartbeat CPU 0 instructions: 150000000 cycles: 552734787 heartbeat IPC: 0.186008 cumulative IPC: 0.186737 (Simulation time: 0 hr 12 min 12 sec) 
Heartbeat CPU 0 instructions: 160000001 cycles: 605014313 heartbeat IPC: 0.191279 cumulative IPC: 0.187141 (Simulation time: 0 hr 13 min 7 sec) 
Heartbeat CPU 0 instructions: 170000000 cycles: 656612467 heartbeat IPC: 0.193805 cumulative IPC: 0.187678 (Simulation time: 0 hr 14 min 0 sec) 
Heartbeat CPU 0 instructions: 180000000 cycles: 707173956 heartbeat IPC: 0.197779 cumulative IPC: 0.188419 (Simulation time: 0 hr 14 min 53 sec) 
Heartbeat CPU 0 instructions: 190000001 cycles: 757224519 heartbeat IPC: 0.199798 cumulative IPC: 0.189188 (Simulation time: 0 hr 15 min 46 sec) 
Heartbeat CPU 0 instructions: 200000000 cycles: 807274424 heartbeat IPC: 0.199801 cumulative IPC: 0.189861 (Simulation time: 0 hr 16 min 39 sec) 
Heartbeat CPU 0 instructions: 210000000 cycles: 857373706 heartbeat IPC: 0.199604 cumulative IPC: 0.190442 (Simulation time: 0 hr 17 min 33 sec) 
Heartbeat CPU 0 instructions: 220000000 cycles: 907543176 heartbeat IPC: 0.199324 cumulative IPC: 0.190942 (Simulation time: 0 hr 18 min 25 sec) 
Heartbeat CPU 0 instructions: 230000000 cycles: 957828056 heartbeat IPC: 0.198867 cumulative IPC: 0.191366 (Simulation time: 0 hr 19 min 17 sec) 
Heartbeat CPU 0 instructions: 240000000 cycles: 1008106446 heartbeat IPC: 0.198893 cumulative IPC: 0.191748 (Simulation time: 0 hr 20 min 8 sec) 
Heartbeat CPU 0 instructions: 250000003 cycles: 1058242955 heartbeat IPC: 0.199456 cumulative IPC: 0.192119 (Simulation time: 0 hr 20 min 58 sec) 
Finished CPU 0 instructions: 200000000 cycles: 1041021882 cumulative IPC: 0.192119 (Simulation time: 0 hr 20 min 58 sec) 
 Instruction ID: 250000203

ChampSim completed all CPUs

Region of Interest Statistics

CPU 0 cumulative IPC: 0.192119 instructions: 200000000 cycles: 1041021882
ITLB SPEC fills:          0  NON-SPEC fills:          0
ITLB Test counter :          0
ITLB Leapfrog:          0
ITLB MSHR merge:          0
ITLB TOTAL     ACCESS:   42178292  HIT:   42178292  MISS:          0  HIT %:        100  MISS %:          0   MPKI: 0
ITLB LOAD TRANSLATION NON_SPEC    ACCESS:   42178292  HIT:   42178292  MISS:          0  HIT %:        100  MISS %:          0   MPKI: 0
ITLB PREFETCH  REQUESTED:          0  ISSUED:          0  USEFUL:          0  USELESS:          0
ITLB USEFUL LOAD PREFETCHES:          0 PREFETCH ISSUED TO LOWER LEVEL:          0  ACCURACY: -nan
ITLB TIMELY PREFETCHES:          0 LATE PREFETCHES: 0 DROPPED PREFETCHES: 0
ITLB COMMIT LATE PREFETCHES: 0 NORMAL LATE: 0 MISSED OPPORTUNITY: 0 UNCOVERED: 0
ITLB PREFETCHES SAME FILL-ORIGIN LEVEL: 0 DIFFERENT FILL-ORIGIN LEVEL: 0
ITLB AVERAGE MISS LATENCY: -nan cycles
ITLB AVERAGE MISS LATENCY LOAD: -nan cycles
ITLB AVERAGE MISS LATENCY PREFETCH: -nan cycles
ITLB AVERAGE MSHR OCCUPANCY: 0
ITLB MSHR FULL: 0
ITLB RQ	ACCESS:   42459837	FORWARD:          0	MERGED:     281546	TO_CACHE:   42178291

DTLB SPEC fills:          0  NON-SPEC fills:          0
DTLB Test counter :          0
DTLB Leapfrog:          0
DTLB MSHR merge:          0
DTLB TOTAL     ACCESS:   48628975  HIT:   38272510  MISS:   10356465  HIT %:    78.7031  MISS %:    21.2969   MPKI: 51.7823
DTLB LOAD TRANSLATION NON_SPEC    ACCESS:   48628975  HIT:   38272510  MISS:   10356465  HIT %:    78.7031  MISS %:    21.2969   MPKI: 51.7823
DTLB PREFETCH  REQUESTED:          0  ISSUED:          0  USEFUL:          0  USELESS:          0
DTLB USEFUL LOAD PREFETCHES:          0 PREFETCH ISSUED TO LOWER LEVEL:          0  ACCURACY: -nan
DTLB TIMELY PREFETCHES:          0 LATE PREFETCHES: 0 DROPPED PREFETCHES: 0
DTLB COMMIT LATE PREFETCHES: 0 NORMAL LATE: 0 MISSED OPPORTUNITY: 0 UNCOVERED: 0
DTLB PREFETCHES SAME FILL-ORIGIN LEVEL: 0 DIFFERENT FILL-ORIGIN LEVEL: 0
DTLB AVERAGE MISS LATENCY: 27.1473 cycles
DTLB AVERAGE MISS LATENCY LOAD: -nan cycles
DTLB AVERAGE MISS LATENCY PREFETCH: -nan cycles
DTLB AVERAGE MSHR OCCUPANCY: 0.482661
DTLB MSHR FULL: 0.00428977
DTLB RQ	ACCESS:   52991283	FORWARD:          0	MERGED:    3696759	TO_CACHE:   49294524

STLB SPEC fills:          0  NON-SPEC fills:          0
STLB Test counter :          0
STLB Leapfrog:          0
STLB MSHR merge:          0
STLB TOTAL     ACCESS:   19393397  HIT:   17205265  MISS:    2188132  HIT %:    88.7171  MISS %:    11.2829   MPKI: 10.9407
STLB LOAD TRANSLATION NON_SPEC    ACCESS:   10356465  HIT:    8230400  MISS:    2126065  HIT %:    79.4711  MISS %:    20.5289   MPKI: 10.6303
STLB TRANSLATION FROM L1D PREFETCHER NON_SPEC    ACCESS:    9036932  HIT:    8974865  MISS:      62067  HIT %:    99.3132  MISS %:   0.686815   MPKI: 0.310335
STLB PREFETCH  REQUESTED:          0  ISSUED:          0  USEFUL:      61121  USELESS:        946
STLB USEFUL LOAD PREFETCHES:      61121 PREFETCH ISSUED TO LOWER LEVEL:          0  ACCURACY: inf
STLB TIMELY PREFETCHES:      61121 LATE PREFETCHES: 15055 DROPPED PREFETCHES: 765043
STLB COMMIT LATE PREFETCHES: 0 NORMAL LATE: 15055 MISSED OPPORTUNITY: 0 UNCOVERED: 18446744073709536561
STLB PREFETCHES SAME FILL-ORIGIN LEVEL: 0 DIFFERENT FILL-ORIGIN LEVEL: 0
STLB AVERAGE MISS LATENCY: 88.1689 cycles
STLB AVERAGE MISS LATENCY LOAD: -nan cycles
STLB AVERAGE MISS LATENCY PREFETCH: -nan cycles
STLB AVERAGE MSHR OCCUPANCY: 0.330491
STLB MSHR FULL: 0
STLB RQ	ACCESS:   54913577	FORWARD:          0	MERGED:   34625804	TO_CACHE:   20287773

STLB Hit, L1D data hit: 0
STLB Hit, L2C data hit: 0
STLB Hit, LLC data hit: 0
STLB Hit, LLC data miss: 0
STLB STLB hints to L2: 0
L0D SPEC fills:   28518706  NON-SPEC fills:          0
L0D TimeGuard Request with older TS:     334362 Restricted eviction:     399406 read:          2
L0D Test counter :          0
L0D Leapfrog:          0
L0D MSHR merge:     366246
L0D TOTAL     ACCESS:   45996531  HIT:   12061296  MISS:   33935235  HIT %:    26.2222  MISS %:    73.7778   MPKI: 169.676
L0D LOAD      TOTAL       ACCESS:   45996531  HIT:   12061296  MISS:   33935235  HIT %:    26.2222  MISS %:    73.7778   MPKI: 169.676
L0D LOAD      NON_SPEC    ACCESS:    5018991  HIT:       1664  MISS:    5017327  HIT %:  0.0331541  MISS %:    99.9668   MPKI: 25.0866
L0D LOAD      SPEC        ACCESS:   40977540  HIT:   12059632  MISS:   28917908  HIT %:    29.4299  MISS %:    70.5701   MPKI: 144.59
L0D PREFETCH  REQUESTED:          0  ISSUED:          0  USEFUL:          0  USELESS:          0
L0D USEFUL LOAD PREFETCHES:          0 PREFETCH ISSUED TO LOWER LEVEL:          0  ACCURACY: -nan
L0D TIMELY PREFETCHES:          0 LATE PREFETCHES: 0 DROPPED PREFETCHES: 0
L0D COMMIT LATE PREFETCHES: 0 NORMAL LATE: 0 MISSED OPPORTUNITY: 0 UNCOVERED: 33935235
L0D PREFETCHES SAME FILL-ORIGIN LEVEL: 0 DIFFERENT FILL-ORIGIN LEVEL: 0
L0D AVERAGE MISS LATENCY: 55.6895 cycles
L0D AVERAGE MISS LATENCY LOAD: 55.6895 cycles
L0D AVERAGE MISS LATENCY PREFETCH: -nan cycles
L0D AVERAGE MSHR OCCUPANCY: 1.77668
L0D MSHR FULL: 0.0544983
L0D RQ	ACCESS:   47841421	FORWARD:          0	MERGED:    1478646	TO_CACHE:   46362775
L0D WQ	ACCESS:    6628508	FORWARD:          0	MERGED:          0	TO_CACHE:    6628508

L1D SPEC fills:          0  NON-SPEC fills:     671892
L1D Test counter :          0
L1D Leapfrog:          0
L1D MSHR merge:      10804
L1D TOTAL     ACCESS:  100493077  HIT:   66204999  MISS:   34288078  HIT %:    65.8802  MISS %:    34.1198   MPKI: 171.44
L1D LOAD      TOTAL       ACCESS:   33933585  HIT:   17029989  MISS:   16903596  HIT %:    50.1862  MISS %:    49.8138   MPKI: 84.518
L1D LOAD      NON_SPEC    ACCESS:    5016005  HIT:    4344113  MISS:     671892  HIT %:     86.605  MISS %:     13.395   MPKI: 3.35946
L1D LOAD      SPEC        ACCESS:   28917580  HIT:   12685876  MISS:   16231704  HIT %:    43.8691  MISS %:    56.1309   MPKI: 81.1585
L1D RFO       NON_SPEC    ACCESS:    2874104  HIT:    2844424  MISS:      29680  HIT %:    98.9673  MISS %:    1.03267   MPKI: 0.1484
L1D PREFETCH  NON_SPEC    ACCESS:   25302750  HIT:   24191379  MISS:    1111371  HIT %:    95.6077  MISS %:    4.39229   MPKI: 5.55685
L1D COMMIT LOAD NON_SPEC    ACCESS:   10173417  HIT:    9864591  MISS:     308826  HIT %:    96.9644  MISS %:    3.03562   MPKI: 1.54413
L1D COMMIT WRITE NON_SPEC    ACCESS:   28209221  HIT:   12274616  MISS:   15934605  HIT %:    43.5128  MISS %:    56.4872   MPKI: 79.673
L1D PREFETCH  REQUESTED:   48223912  ISSUED:   47577170  USEFUL:     906677  USELESS:     204705
L1D USEFUL LOAD PREFETCHES:     906677 PREFETCH ISSUED TO LOWER LEVEL:   18110727  ACCURACY: 5.0063
L1D TIMELY PREFETCHES:     906677 LATE PREFETCHES: 9159 DROPPED PREFETCHES: 2098060
L1D COMMIT LATE PREFETCHES: 0 NORMAL LATE: 9159 MISSED OPPORTUNITY: 0 UNCOVERED: 16894437
L1D PREFETCHES SAME FILL-ORIGIN LEVEL: 1120529 DIFFERENT FILL-ORIGIN LEVEL: 16990198
L1D AVERAGE MISS LATENCY: 55.7694 cycles
L1D AVERAGE MISS LATENCY LOAD: 101.581 cycles
L1D AVERAGE MISS LATENCY PREFETCH: 149.579 cycles
L1D AVERAGE MSHR OCCUPANCY: 1.42615
L1D MSHR FULL: 0.0160568
L1D RQ	ACCESS:   48548323	FORWARD:          0	MERGED:    4354883	TO_CACHE:   44109534
L1D WQ	ACCESS:   34837851	FORWARD:      83906	MERGED:    3702085	TO_CACHE:   31135766
L1D PQ	ACCESS:   47577170	FORWARD:          0	MERGED:    3020057	TO_CACHE:   44557113

L1D UNIQUE REGIONS ACCESSED: 0
L1D REGIONS CONFLICTS: 0
L1D Cross Page Prefetch Requests: 5804659
L1D Same Page Prefetch Requests: 51248970
L1D ROI Sum of L1D PQ occupancy: 986152249
L1D PREFETCHES PUSHED FROM L2C: 0
L1I SPEC fills:          0  NON-SPEC fills:          0
L1I Test counter :          0
L1I Leapfrog:          0
L1I MSHR merge:          0
L1I TOTAL     ACCESS:   42459836  HIT:   42459836  MISS:          0  HIT %:        100  MISS %:          0   MPKI: 0
L1I LOAD      TOTAL       ACCESS:   42459836  HIT:   42459836  MISS:          0  HIT %:        100  MISS %:          0   MPKI: 0
L1I LOAD      NON_SPEC    ACCESS:   42459836  HIT:   42459836  MISS:          0  HIT %:        100  MISS %:          0   MPKI: 0
L1I PREFETCH  REQUESTED:          0  ISSUED:          0  USEFUL:          0  USELESS:          0
L1I USEFUL LOAD PREFETCHES:          0 PREFETCH ISSUED TO LOWER LEVEL:          0  ACCURACY: -nan
L1I TIMELY PREFETCHES:          0 LATE PREFETCHES: 0 DROPPED PREFETCHES: 0
L1I COMMIT LATE PREFETCHES: 0 NORMAL LATE: 0 MISSED OPPORTUNITY: 0 UNCOVERED: 0
L1I PREFETCHES SAME FILL-ORIGIN LEVEL: 0 DIFFERENT FILL-ORIGIN LEVEL: 0
L1I AVERAGE MISS LATENCY: -nan cycles
L1I AVERAGE MISS LATENCY LOAD: -nan cycles
L1I AVERAGE MISS LATENCY PREFETCH: -nan cycles
L1I AVERAGE MSHR OCCUPANCY: 0
L1I MSHR FULL: 0
L1I RQ	ACCESS:   56789466	FORWARD:          0	MERGED:   14329629	TO_CACHE:   42459837

BTB SPEC fills:          0  NON-SPEC fills:          0
BTB Test counter :          0
BTB Leapfrog:          0
BTB MSHR merge:          0
BTB TOTAL     ACCESS:   43358691  HIT:   43358677  MISS:         14  HIT %:        100  MISS %: 3.22888e-05   MPKI: 7e-05
BTB BRANCH_DIRECT_JUMP	ACCESS:     271551  HIT:     271547  MISS:          4
BTB BRANCH_INDIRECT	ACCESS:          0  HIT:          0  MISS:          0
BTB BRANCH_CONDITIONAL	ACCESS:   43087112  HIT:   43087104  MISS:          8
BTB BRANCH_DIRECT_CALL	ACCESS:         14  HIT:         13  MISS:          1
BTB BRANCH_INDIRECT_CALL	ACCESS:          0  HIT:          0  MISS:          0
BTB BRANCH_RETURN	ACCESS:         14  HIT:         13  MISS:          1
BTB BRANCH_OTHER ACCESS:          0  HIT:          0  MISS:          0

L2C SPEC fills:          0  NON-SPEC fills:     511287
L2C Test counter :          0
L2C Leapfrog:          0
L2C MSHR merge:      41330
L2C TOTAL     ACCESS:   66919023  HIT:   38160653  MISS:   28758370  HIT %:    57.0251  MISS %:    42.9749   MPKI: 143.792
L2C LOAD      TOTAL       ACCESS:   16894351  HIT:    3658379  MISS:   13235972  HIT %:    21.6545  MISS %:    78.3455   MPKI: 66.1799
L2C LOAD      NON_SPEC    ACCESS:     671859  HIT:     160572  MISS:     511287  HIT %:    23.8997  MISS %:    76.1003   MPKI: 2.55644
L2C LOAD      SPEC        ACCESS:   16222492  HIT:    3497807  MISS:   12724685  HIT %:    21.5615  MISS %:    78.4385   MPKI: 63.6234
L2C RFO       NON_SPEC    ACCESS:      29680  HIT:        957  MISS:      28723  HIT %:    3.22439  MISS %:    96.7756   MPKI: 0.143615
L2C PREFETCH  NON_SPEC    ACCESS:   17824607  HIT:   15441433  MISS:    2383174  HIT %:    86.6299  MISS %:    13.3701   MPKI: 11.9159
L2C WRITEBACK NON_SPEC    ACCESS:     216475  HIT:     216313  MISS:        162  HIT %:    99.9252  MISS %:  0.0748354   MPKI: 0.00081
L2C CLEAN_EVICTION NON_SPEC    ACCESS:   16859259  HIT:    4099067  MISS:   12760192  HIT %:    24.3134  MISS %:    75.6866   MPKI: 63.801
L2C COMMIT LOAD NON_SPEC    ACCESS:     308673  HIT:     121442  MISS:     187231  HIT %:    39.3433  MISS %:    60.6567   MPKI: 0.936155
L2C LOAD TRANSLATION NON_SPEC    ACCESS:   10575153  HIT:   10426176  MISS:     148977  HIT %:    98.5913  MISS %:    1.40875   MPKI: 0.744885
L2C TRANSLATION FROM L1D PREFETCHER NON_SPEC    ACCESS:    4210825  HIT:    4196886  MISS:      13939  HIT %:     99.669  MISS %:   0.331028   MPKI: 0.069695
L2C PREFETCH  REQUESTED:          0  ISSUED:          0  USEFUL:     255481  USELESS:    2141469
L2C USEFUL LOAD PREFETCHES:     255481 PREFETCH ISSUED TO LOWER LEVEL:    2424519  ACCURACY: 10.5374
L2C TIMELY PREFETCHES:     255481 LATE PREFETCHES: 41345 DROPPED PREFETCHES: 0
L2C COMMIT LATE PREFETCHES: 0 NORMAL LATE: 41345 MISSED OPPORTUNITY: 0 UNCOVERED: 13194627
L2C PREFETCHES SAME FILL-ORIGIN LEVEL: 1766439 DIFFERENT FILL-ORIGIN LEVEL: 0
L2C AVERAGE MISS LATENCY: 74.5006 cycles
L2C AVERAGE MISS LATENCY LOAD: 115.101 cycles
L2C AVERAGE MISS LATENCY PREFETCH: 244.124 cycles
L2C AVERAGE MSHR OCCUPANCY: 1.81843
L2C MSHR FULL: 3.92882e-05
L2C RQ	ACCESS:   32018920	FORWARD:          0	MERGED:          0	TO_CACHE:   32018682
L2C WQ	ACCESS:   17075742	FORWARD:        238	MERGED:          4	TO_CACHE:   17075738
L2C PQ	ACCESS:   18110481	FORWARD:          0	MERGED:       1197	TO_CACHE:   18109284

L2C Instructions Evicting Data 0
L2C Translations Evicting Data 162573
L2C Data Evicting Data 3077162
L2C Instructions Evicting Instructions 0
L2C Translations Evicting Instructions 0
L2C Data Evicting Instructions 0
L2C Instructions Evicting Translations 0
L2C Translations Evicting Translations 343
L2C Data Evicting Translations 33253
L2C Dense regions hint from L2: 0
PSCL5 SPEC fills:          0  NON-SPEC fills:          0
PSCL5 Test counter :          0
PSCL5 Leapfrog:          0
PSCL5 MSHR merge:          0
PSCL5 TOTAL     ACCESS:          0  HIT:          0  MISS:          0  HIT %:       -nan  MISS %:       -nan   MPKI: 0
PSCL5 PREFETCH  REQUESTED:          0  ISSUED:          0  USEFUL:          0  USELESS:          0
PSCL5 USEFUL LOAD PREFETCHES:          0 PREFETCH ISSUED TO LOWER LEVEL:          0  ACCURACY: -nan
PSCL5 TIMELY PREFETCHES:          0 LATE PREFETCHES: 0 DROPPED PREFETCHES: 0
PSCL5 COMMIT LATE PREFETCHES: 0 NORMAL LATE: 0 MISSED OPPORTUNITY: 0 UNCOVERED: 0
PSCL5 PREFETCHES SAME FILL-ORIGIN LEVEL: 0 DIFFERENT FILL-ORIGIN LEVEL: 0

PSCL4 SPEC fills:          0  NON-SPEC fills:          0
PSCL4 Test counter :          0
PSCL4 Leapfrog:          0
PSCL4 MSHR merge:          0
PSCL4 TOTAL     ACCESS:          0  HIT:          0  MISS:          0  HIT %:       -nan  MISS %:       -nan   MPKI: 0
PSCL4 PREFETCH  REQUESTED:          0  ISSUED:          0  USEFUL:          0  USELESS:          0
PSCL4 USEFUL LOAD PREFETCHES:          0 PREFETCH ISSUED TO LOWER LEVEL:          0  ACCURACY: -nan
PSCL4 TIMELY PREFETCHES:          0 LATE PREFETCHES: 0 DROPPED PREFETCHES: 0
PSCL4 COMMIT LATE PREFETCHES: 0 NORMAL LATE: 0 MISSED OPPORTUNITY: 0 UNCOVERED: 0
PSCL4 PREFETCHES SAME FILL-ORIGIN LEVEL: 0 DIFFERENT FILL-ORIGIN LEVEL: 0

PSCL3 SPEC fills:          0  NON-SPEC fills:          0
PSCL3 Test counter :          0
PSCL3 Leapfrog:          0
PSCL3 MSHR merge:          0
PSCL3 TOTAL     ACCESS:          0  HIT:          0  MISS:          0  HIT %:       -nan  MISS %:       -nan   MPKI: 0
PSCL3 PREFETCH  REQUESTED:          0  ISSUED:          0  USEFUL:          0  USELESS:          0
PSCL3 USEFUL LOAD PREFETCHES:          0 PREFETCH ISSUED TO LOWER LEVEL:          0  ACCURACY: -nan
PSCL3 TIMELY PREFETCHES:          0 LATE PREFETCHES: 0 DROPPED PREFETCHES: 0
PSCL3 COMMIT LATE PREFETCHES: 0 NORMAL LATE: 0 MISSED OPPORTUNITY: 0 UNCOVERED: 0
PSCL3 PREFETCHES SAME FILL-ORIGIN LEVEL: 0 DIFFERENT FILL-ORIGIN LEVEL: 0

PSCL2 SPEC fills:          0  NON-SPEC fills:          0
PSCL2 Test counter :          0
PSCL2 Leapfrog:          0
PSCL2 MSHR merge:          0
PSCL2 TOTAL     ACCESS:          0  HIT:          0  MISS:          0  HIT %:       -nan  MISS %:       -nan   MPKI: 0
PSCL2 PREFETCH  REQUESTED:          0  ISSUED:          0  USEFUL:          0  USELESS:          0
PSCL2 USEFUL LOAD PREFETCHES:          0 PREFETCH ISSUED TO LOWER LEVEL:          0  ACCURACY: -nan
PSCL2 TIMELY PREFETCHES:          0 LATE PREFETCHES: 0 DROPPED PREFETCHES: 0
PSCL2 COMMIT LATE PREFETCHES: 0 NORMAL LATE: 0 MISSED OPPORTUNITY: 0 UNCOVERED: 0
PSCL2 PREFETCHES SAME FILL-ORIGIN LEVEL: 0 DIFFERENT FILL-ORIGIN LEVEL: 0

LLC SPEC fills:          0  NON-SPEC fills:     302139
LLC Test counter :          0
LLC Leapfrog:          0
LLC MSHR merge:          0
LLC TOTAL     ACCESS:   30163451  HIT:   13138012  MISS:   17025439  HIT %:    43.5561  MISS %:    56.4439   MPKI: 85.1272
LLC LOAD      TOTAL       ACCESS:   13194573  HIT:    6024296  MISS:    7170277  HIT %:    45.6574  MISS %:    54.3426   MPKI: 35.8514
LLC LOAD      NON_SPEC    ACCESS:     510809  HIT:     208670  MISS:     302139  HIT %:    40.8509  MISS %:    59.1491   MPKI: 1.51069
LLC LOAD      SPEC        ACCESS:   12683764  HIT:    5815626  MISS:    6868138  HIT %:    45.8509  MISS %:    54.1491   MPKI: 34.3407
LLC RFO       NON_SPEC    ACCESS:      28723  HIT:        629  MISS:      28094  HIT %:    2.18988  MISS %:    97.8101   MPKI: 0.14047
LLC PREFETCH  NON_SPEC    ACCESS:    2424517  HIT:     266937  MISS:    2157580  HIT %:    11.0099  MISS %:    88.9901   MPKI: 10.7879
LLC WRITEBACK NON_SPEC    ACCESS:     211004  HIT:     210985  MISS:         19  HIT %:     99.991  MISS %: 0.00900457   MPKI: 9.5e-05
LLC CLEAN_EVICTION NON_SPEC    ACCESS:   13954578  HIT:    6354223  MISS:    7600355  HIT %:     45.535  MISS %:     54.465   MPKI: 38.0018
LLC COMMIT LOAD NON_SPEC    ACCESS:     187140  HIT:     159205  MISS:      27935  HIT %:    85.0727  MISS %:    14.9273   MPKI: 0.139675
LLC LOAD TRANSLATION NON_SPEC    ACCESS:     148977  HIT:     114459  MISS:      34518  HIT %:      76.83  MISS %:      23.17   MPKI: 0.17259
LLC TRANSLATION FROM L1D PREFETCHER NON_SPEC    ACCESS:      13939  HIT:       7278  MISS:       6661  HIT %:    52.2132  MISS %:    47.7868   MPKI: 0.033305
LLC PREFETCH  REQUESTED:          0  ISSUED:          0  USEFUL:     140450  USELESS:    2023120
LLC USEFUL LOAD PREFETCHES:     140450 PREFETCH ISSUED TO LOWER LEVEL:    2157580  ACCURACY: 6.50961
LLC TIMELY PREFETCHES:     140450 LATE PREFETCHES: 0 DROPPED PREFETCHES: 0
LLC COMMIT LATE PREFETCHES: 0 NORMAL LATE: 0 MISSED OPPORTUNITY: 0 UNCOVERED: 7170277
LLC PREFETCHES SAME FILL-ORIGIN LEVEL: 0 DIFFERENT FILL-ORIGIN LEVEL: 0
LLC AVERAGE MISS LATENCY: 104.692 cycles
LLC AVERAGE MISS LATENCY LOAD: 171.562 cycles
LLC AVERAGE MISS LATENCY PREFETCH: 243.991 cycles
LLC AVERAGE MSHR OCCUPANCY: 1.45329
LLC MSHR FULL: 0
LLC RQ	ACCESS:   13573497	FORWARD:          0	MERGED:          0	TO_CACHE:   13573352
LLC WQ	ACCESS:   14165584	FORWARD:        147	MERGED:          0	TO_CACHE:   14165584
LLC PQ	ACCESS:    2424519	FORWARD:          0	MERGED:          0	TO_CACHE:    2424517

LLC Dense regions hint to LLC: 0

RAW hits: 161524
Loads Generated: 48002948
Loads sent to L1D: 47841421
Stores Generated: 6628505
Stores sent to L1D: 6628508
Major fault: 0 Minor fault: 32429
Allocated PAGES: 32429
Total Load insts: 59406097
Total Non-spec loads: 5291335
Percentage of speculative loads: 91.0929

LeapFrogging counter: 384780
Commit hits: 28209357 miss: 14613088
Commit hit %: 65.8752 miss %: 34.1248
Commits not translated: 0
Loads retired: 16903594
Stores retired: 6628508
Cache fills: 16903596
L1D response latency: 101.581 cycles
Load retirement latency: 228.494 cycles
OOO test counter: 0
Discarded buffer inserts: 28209357 hits: 12786 hit %: 0.0453254
Filter prediction accuracy: -nan
LATENCY_FILL: 101.353 16878942

DRAM Statistics
 CHANNEL 0
 RQ ROW_BUFFER_HIT:     818381  ROW_BUFFER_MISS:    8603498
 DBUS_CONGESTED:       2087
 WQ ROW_BUFFER_HIT:    4521467  ROW_BUFFER_MISS:    4468968  FULL:      63130

 AVG_CONGESTED_CYCLE: 5
 All warmup complete: 2
Channel 0 Bank busy for read cycles: 0
Channel 0 Bank busy for write cycles: 0
Channel 0
Rank 0
0banks busy for read cycles: 3917645
0banks busy for write cycles: 6410
1banks busy for read cycles: 324673716
1banks busy for write cycles: 4032677
2banks busy for read cycles: 210613338
2banks busy for write cycles: 5308437
3banks busy for read cycles: 92912076
3banks busy for write cycles: 7688421
4banks busy for read cycles: 36286879
4banks busy for write cycles: 12317958
5banks busy for read cycles: 13408876
5banks busy for write cycles: 21557362
6banks busy for read cycles: 5824512
6banks busy for write cycles: 43343601
7banks busy for read cycles: 3510531
7banks busy for write cycles: 94744087
8banks busy for read cycles: 5790104
8banks busy for write cycles: 155085253

CPU 0 Branch Prediction Accuracy: 92.9184% MPKI: 15.3683 Average ROB Occupancy at Mispredict: 49.0354
Branch types
NOT_BRANCH: 156596339 78.2982%
BRANCH_DIRECT_JUMP: 271551 0.135775%
BRANCH_INDIRECT: 0 0%
BRANCH_CONDITIONAL: 43131912 21.566%
BRANCH_DIRECT_CALL: 14 7e-06%
BRANCH_INDIRECT_CALL: 0 0%
BRANCH_RETURN: 14 7e-06%
BRANCH_OTHER: 0 0%

DRAM PAGES: 1048576
Allocated PAGES: 32429
