
*** ChampSim Multicore Out-of-Order Simulator ***

Warmup Instructions: 50000000
Simulation Instructions: 200000000
Number of CPUs: 1
LLC sets: 2048
LLC ways: 16
L0D sets: 16
L0D ways: 2
ROB size: 352
LQ size: 128
SQ size: 72
Secure Berti: OFF
Berti: OFF
Berti Fill: OFF
On commit prefetching: OFF
Hit-based filter: OFF
Time-guarding: ON
Free-slotting: ON
Leap-frogging: ON
Train prefetcher on L0D bypass: OFF
No translation penalty for prefetchers: OFF
Prefetch to L0D only: OFF
Prefetch to L1D only: OFF
Clean evictions: ON
Commit loads: ON
Commit write: ON
Fill commit loads to L2C, LLC: ON
DRAM IO FREQUENCY: 6400
ROB SIZE: 352
Off-chip DRAM Size: 4096 MB Channels: 1 Width: 64-bit Data Rate: 6400 MT/s
CPU 0 runs /home/sumon/secure_berti/GhostMinion/../../traces/gap/bfs-10.trace.gz
.gz
BTB has LRU replacement policy
ITLB has LRU replacement policy
DTLB has LRU replacement policy
STLB has LRU replacement policy
L1I has LRU replacement policy
L0D has LRU replacement policy
History Sets: 8
History Ways: 16
BERTI Size: 16
BERTI Stride Size: 16
L1D has LRU replacement policy
L2C has LRU replacement policy
LLC has LRU replacement policy
Heartbeat CPU 0 instructions: 10000002 cycles: 2972907 heartbeat IPC: 3.36371 cumulative IPC: 3.36371 (Simulation time: 0 hr 0 min 24 sec) 
Heartbeat CPU 0 instructions: 20000001 cycles: 6060432 heartbeat IPC: 3.23884 cumulative IPC: 3.30009 (Simulation time: 0 hr 0 min 55 sec) 
Heartbeat CPU 0 instructions: 30000003 cycles: 9138399 heartbeat IPC: 3.2489 cumulative IPC: 3.28285 (Simulation time: 0 hr 1 min 28 sec) 
Heartbeat CPU 0 instructions: 40000001 cycles: 12216515 heartbeat IPC: 3.24874 cumulative IPC: 3.27426 (Simulation time: 0 hr 1 min 58 sec) 
Heartbeat CPU 0 instructions: 50000000 cycles: 15293845 heartbeat IPC: 3.24957 cumulative IPC: 3.26929 (Simulation time: 0 hr 2 min 28 sec) 

Warmup complete CPU 0 instructions: 50000004 cycles: 15293846 (Simulation time: 0 hr 2 min 28 sec) 

Heartbeat CPU 0 instructions: 60000001 cycles: 52232101 heartbeat IPC: 0.270722 cumulative IPC: 0.270722 (Simulation time: 0 hr 3 min 10 sec) 
Heartbeat CPU 0 instructions: 70000003 cycles: 95241295 heartbeat IPC: 0.232508 cumulative IPC: 0.250164 (Simulation time: 0 hr 3 min 54 sec) 
Heartbeat CPU 0 instructions: 80000002 cycles: 124996115 heartbeat IPC: 0.33608 cumulative IPC: 0.273467 (Simulation time: 0 hr 4 min 33 sec) 
Heartbeat CPU 0 instructions: 90000000 cycles: 139174808 heartbeat IPC: 0.705283 cumulative IPC: 0.322891 (Simulation time: 0 hr 5 min 2 sec) 
Heartbeat CPU 0 instructions: 100000000 cycles: 157156428 heartbeat IPC: 0.556123 cumulative IPC: 0.352454 (Simulation time: 0 hr 5 min 37 sec) 
Heartbeat CPU 0 instructions: 110000000 cycles: 183765273 heartbeat IPC: 0.375815 cumulative IPC: 0.356143 (Simulation time: 0 hr 6 min 13 sec) 
Heartbeat CPU 0 instructions: 120000000 cycles: 221534180 heartbeat IPC: 0.264768 cumulative IPC: 0.33941 (Simulation time: 0 hr 6 min 51 sec) 
Heartbeat CPU 0 instructions: 130000002 cycles: 259227036 heartbeat IPC: 0.265302 cumulative IPC: 0.327959 (Simulation time: 0 hr 7 min 29 sec) 
Heartbeat CPU 0 instructions: 140000001 cycles: 301350272 heartbeat IPC: 0.237399 cumulative IPC: 0.314623 (Simulation time: 0 hr 8 min 9 sec) 
Heartbeat CPU 0 instructions: 150000003 cycles: 347493760 heartbeat IPC: 0.216715 cumulative IPC: 0.301024 (Simulation time: 0 hr 8 min 51 sec) 
Heartbeat CPU 0 instructions: 160000001 cycles: 371237338 heartbeat IPC: 0.421166 cumulative IPC: 0.309038 (Simulation time: 0 hr 9 min 24 sec) 
Heartbeat CPU 0 instructions: 170000001 cycles: 384930523 heartbeat IPC: 0.73029 cumulative IPC: 0.324643 (Simulation time: 0 hr 9 min 51 sec) 
Heartbeat CPU 0 instructions: 180000000 cycles: 404586998 heartbeat IPC: 0.508738 cumulative IPC: 0.333939 (Simulation time: 0 hr 10 min 25 sec) 
Heartbeat CPU 0 instructions: 190000000 cycles: 434855177 heartbeat IPC: 0.33038 cumulative IPC: 0.333682 (Simulation time: 0 hr 11 min 1 sec) 
Heartbeat CPU 0 instructions: 200000000 cycles: 472475134 heartbeat IPC: 0.265816 cumulative IPC: 0.328097 (Simulation time: 0 hr 11 min 37 sec) 
Heartbeat CPU 0 instructions: 210000002 cycles: 510047237 heartbeat IPC: 0.266155 cumulative IPC: 0.323393 (Simulation time: 0 hr 12 min 14 sec) 
Heartbeat CPU 0 instructions: 220000000 cycles: 555096144 heartbeat IPC: 0.221981 cumulative IPC: 0.31493 (Simulation time: 0 hr 12 min 56 sec) 
Heartbeat CPU 0 instructions: 230000000 cycles: 595348453 heartbeat IPC: 0.248433 cumulative IPC: 0.310316 (Simulation time: 0 hr 13 min 36 sec) 
Heartbeat CPU 0 instructions: 240000002 cycles: 615781059 heartbeat IPC: 0.489414 cumulative IPC: 0.31641 (Simulation time: 0 hr 14 min 8 sec) 
Heartbeat CPU 0 instructions: 250000001 cycles: 629896286 heartbeat IPC: 0.708455 cumulative IPC: 0.325414 (Simulation time: 0 hr 14 min 36 sec) 
Finished CPU 0 instructions: 200000002 cycles: 614602442 cumulative IPC: 0.325414 (Simulation time: 0 hr 14 min 36 sec) 
 Instruction ID: 250000030

ChampSim completed all CPUs

Region of Interest Statistics

CPU 0 cumulative IPC: 0.325414 instructions: 200000002 cycles: 614602442
ITLB SPEC fills:          0  NON-SPEC fills:          0
ITLB Test counter :          0
ITLB Leapfrog:          0
ITLB MSHR merge:          0
ITLB TOTAL     ACCESS:   33483762  HIT:   33483762  MISS:          0  HIT %:        100  MISS %:          0   MPKI: 0
ITLB LOAD TRANSLATION NON_SPEC    ACCESS:   33483762  HIT:   33483762  MISS:          0  HIT %:        100  MISS %:          0   MPKI: 0
ITLB PREFETCH  REQUESTED:          0  ISSUED:          0  USEFUL:          0  USELESS:          0
ITLB USEFUL LOAD PREFETCHES:          0 PREFETCH ISSUED TO LOWER LEVEL:          0  ACCURACY: -nan
ITLB TIMELY PREFETCHES:          0 LATE PREFETCHES: 0 DROPPED PREFETCHES: 0
ITLB COMMIT LATE PREFETCHES: 0 NORMAL LATE: 0 MISSED OPPORTUNITY: 0 UNCOVERED: 0
ITLB PREFETCHES SAME FILL-ORIGIN LEVEL: 0 DIFFERENT FILL-ORIGIN LEVEL: 0
ITLB AVERAGE MISS LATENCY: -nan cycles
ITLB AVERAGE MISS LATENCY LOAD: -nan cycles
ITLB AVERAGE MISS LATENCY PREFETCH: -nan cycles
ITLB AVERAGE MSHR OCCUPANCY: 0
ITLB MSHR FULL: 0
ITLB RQ	ACCESS:   42010959	FORWARD:          0	MERGED:    8527198	TO_CACHE:   33483761

DTLB SPEC fills:          0  NON-SPEC fills:          0
DTLB Test counter :          0
DTLB Leapfrog:          0
DTLB MSHR merge:          0
DTLB TOTAL     ACCESS:   43848613  HIT:   43658472  MISS:     190141  HIT %:    99.5664  MISS %:   0.433631   MPKI: 0.950705
DTLB LOAD TRANSLATION NON_SPEC    ACCESS:   43848613  HIT:   43658472  MISS:     190141  HIT %:    99.5664  MISS %:   0.433631   MPKI: 0.950705
DTLB PREFETCH  REQUESTED:          0  ISSUED:          0  USEFUL:          0  USELESS:          0
DTLB USEFUL LOAD PREFETCHES:          0 PREFETCH ISSUED TO LOWER LEVEL:          0  ACCURACY: -nan
DTLB TIMELY PREFETCHES:          0 LATE PREFETCHES: 0 DROPPED PREFETCHES: 0
DTLB COMMIT LATE PREFETCHES: 0 NORMAL LATE: 0 MISSED OPPORTUNITY: 0 UNCOVERED: 0
DTLB PREFETCHES SAME FILL-ORIGIN LEVEL: 0 DIFFERENT FILL-ORIGIN LEVEL: 0
DTLB AVERAGE MISS LATENCY: 83.4028 cycles
DTLB AVERAGE MISS LATENCY LOAD: -nan cycles
DTLB AVERAGE MISS LATENCY PREFETCH: -nan cycles
DTLB AVERAGE MSHR OCCUPANCY: 0.00794237
DTLB MSHR FULL: 0
DTLB RQ	ACCESS:   46757955	FORWARD:          0	MERGED:    2898023	TO_CACHE:   43859932

STLB SPEC fills:          0  NON-SPEC fills:          0
STLB Test counter :          0
STLB Leapfrog:          0
STLB MSHR merge:          0
STLB TOTAL     ACCESS:   20919355  HIT:   20751427  MISS:     167928  HIT %:    99.1973  MISS %:    0.80274   MPKI: 0.83964
STLB LOAD TRANSLATION NON_SPEC    ACCESS:     190141  HIT:      89748  MISS:     100393  HIT %:    47.2008  MISS %:    52.7992   MPKI: 0.501965
STLB TRANSLATION FROM L1D PREFETCHER NON_SPEC    ACCESS:   20729214  HIT:   20661679  MISS:      67535  HIT %:    99.6742  MISS %:   0.325796   MPKI: 0.337675
STLB PREFETCH  REQUESTED:          0  ISSUED:          0  USEFUL:      67092  USELESS:        448
STLB USEFUL LOAD PREFETCHES:      67092 PREFETCH ISSUED TO LOWER LEVEL:          0  ACCURACY: inf
STLB TIMELY PREFETCHES:      67092 LATE PREFETCHES: 636 DROPPED PREFETCHES: 25858
STLB COMMIT LATE PREFETCHES: 0 NORMAL LATE: 636 MISSED OPPORTUNITY: 0 UNCOVERED: 18446744073709550980
STLB PREFETCHES SAME FILL-ORIGIN LEVEL: 0 DIFFERENT FILL-ORIGIN LEVEL: 0
STLB AVERAGE MISS LATENCY: 121.035 cycles
STLB AVERAGE MISS LATENCY LOAD: -nan cycles
STLB AVERAGE MISS LATENCY PREFETCH: -nan cycles
STLB AVERAGE MSHR OCCUPANCY: 0.0112427
STLB MSHR FULL: 0
STLB RQ	ACCESS:  107965079	FORWARD:          0	MERGED:   87016034	TO_CACHE:   20949045

STLB Hit, L1D data hit: 0
STLB Hit, L2C data hit: 0
STLB Hit, LLC data hit: 0
STLB Hit, LLC data miss: 0
STLB STLB hints to L2: 0
L0D SPEC fills:   20167671  NON-SPEC fills:          0
L0D TimeGuard Request with older TS:      33854 Restricted eviction:       3707 read:        142
L0D Test counter :          0
L0D Leapfrog:          0
L0D MSHR merge:     292699
L0D TOTAL     ACCESS:   40922682  HIT:    3448640  MISS:   37474042  HIT %:    8.42721  MISS %:    91.5728   MPKI: 187.37
L0D LOAD      TOTAL       ACCESS:   40922682  HIT:    3448640  MISS:   37474042  HIT %:    8.42721  MISS %:    91.5728   MPKI: 187.37
L0D LOAD      NON_SPEC    ACCESS:   17302894  HIT:        230  MISS:   17302664  HIT %: 0.00132926  MISS %:    99.9987   MPKI: 86.5133
L0D LOAD      SPEC        ACCESS:   23619788  HIT:    3448410  MISS:   20171378  HIT %:    14.5997  MISS %:    85.4003   MPKI: 100.857
L0D PREFETCH  REQUESTED:          0  ISSUED:          0  USEFUL:          0  USELESS:          0
L0D USEFUL LOAD PREFETCHES:          0 PREFETCH ISSUED TO LOWER LEVEL:          0  ACCURACY: -nan
L0D TIMELY PREFETCHES:          0 LATE PREFETCHES: 0 DROPPED PREFETCHES: 0
L0D COMMIT LATE PREFETCHES: 0 NORMAL LATE: 0 MISSED OPPORTUNITY: 0 UNCOVERED: 37474042
L0D PREFETCHES SAME FILL-ORIGIN LEVEL: 0 DIFFERENT FILL-ORIGIN LEVEL: 0
L0D AVERAGE MISS LATENCY: 9.38088 cycles
L0D AVERAGE MISS LATENCY LOAD: 9.38088 cycles
L0D AVERAGE MISS LATENCY PREFETCH: -nan cycles
L0D AVERAGE MSHR OCCUPANCY: 0.445494
L0D MSHR FULL: 0.00225237
L0D RQ	ACCESS:   49165447	FORWARD:          0	MERGED:    7950067	TO_CACHE:   41215380
L0D WQ	ACCESS:    5542575	FORWARD:          0	MERGED:          0	TO_CACHE:    5542575

L1D SPEC fills:          0  NON-SPEC fills:    2183078
L1D Test counter :          0
L1D Leapfrog:          0
L1D MSHR merge:       1091
L1D TOTAL     ACCESS:  150541013  HIT:  144226768  MISS:    6314245  HIT %:    95.8056  MISS %:    4.19437   MPKI: 31.5712
L1D LOAD      TOTAL       ACCESS:   37473993  HIT:   34246066  MISS:    3227927  HIT %:    91.3862  MISS %:    8.61378   MPKI: 16.1396
L1D LOAD      NON_SPEC    ACCESS:   17302654  HIT:   15119576  MISS:    2183078  HIT %:     87.383  MISS %:     12.617   MPKI: 10.9154
L1D LOAD      SPEC        ACCESS:   20171339  HIT:   19126490  MISS:    1044849  HIT %:    94.8201  MISS %:    5.17987   MPKI: 5.22424
L1D RFO       NON_SPEC    ACCESS:    3679934  HIT:    3529912  MISS:     150022  HIT %:    95.9232  MISS %:    4.07676   MPKI: 0.75011
L1D PREFETCH  NON_SPEC    ACCESS:   79075026  HIT:   77185119  MISS:    1889907  HIT %:      97.61  MISS %:    2.39002   MPKI: 9.44953
L1D COMMIT LOAD NON_SPEC    ACCESS:   10153735  HIT:   10149183  MISS:       4552  HIT %:    99.9552  MISS %:  0.0448308   MPKI: 0.02276
L1D COMMIT WRITE NON_SPEC    ACCESS:   20158325  HIT:   19116488  MISS:    1041837  HIT %:    94.8317  MISS %:    5.16827   MPKI: 5.20918
L1D PREFETCH  REQUESTED:  145385116  ISSUED:  136457560  USEFUL:    1849947  USELESS:      39966
L1D USEFUL LOAD PREFETCHES:    1849947 PREFETCH ISSUED TO LOWER LEVEL:   27102378  ACCURACY: 6.82577
L1D TIMELY PREFETCHES:    1849947 LATE PREFETCHES: 1045 DROPPED PREFETCHES: 49465
L1D COMMIT LATE PREFETCHES: 0 NORMAL LATE: 1045 MISSED OPPORTUNITY: 0 UNCOVERED: 3226882
L1D PREFETCHES SAME FILL-ORIGIN LEVEL: 1890953 DIFFERENT FILL-ORIGIN LEVEL: 25211425
L1D AVERAGE MISS LATENCY: 70.4714 cycles
L1D AVERAGE MISS LATENCY LOAD: 49.9236 cycles
L1D AVERAGE MISS LATENCY PREFETCH: 132.164 cycles
L1D AVERAGE MSHR OCCUPANCY: 0.621791
L1D MSHR FULL: 0.00280064
L1D RQ	ACCESS:   49178117	FORWARD:          0	MERGED:     889114	TO_CACHE:   47627910
L1D WQ	ACCESS:   25667160	FORWARD:     661093	MERGED:     578899	TO_CACHE:   25088261
L1D PQ	ACCESS:  136457560	FORWARD:          0	MERGED:   28682622	TO_CACHE:  107774938

L1D UNIQUE REGIONS ACCESSED: 0
L1D REGIONS CONFLICTS: 0
L1D Cross Page Prefetch Requests: 12128100
L1D Same Page Prefetch Requests: 132074310
L1D ROI Sum of L1D PQ occupancy: 1640820129
L1D PREFETCHES PUSHED FROM L2C: 0
L1I SPEC fills:          0  NON-SPEC fills:          0
L1I Test counter :          0
L1I Leapfrog:          0
L1I MSHR merge:          1
L1I TOTAL     ACCESS:   42010958  HIT:   42010943  MISS:         15  HIT %:        100  MISS %: 3.5705e-05   MPKI: 7.5e-05
L1I LOAD      TOTAL       ACCESS:   42010958  HIT:   42010943  MISS:         15  HIT %:        100  MISS %: 3.5705e-05   MPKI: 7.5e-05
L1I LOAD      NON_SPEC    ACCESS:   42010958  HIT:   42010943  MISS:         15  HIT %:        100  MISS %: 3.5705e-05   MPKI: 7.5e-05
L1I PREFETCH  REQUESTED:          0  ISSUED:          0  USEFUL:          0  USELESS:          0
L1I USEFUL LOAD PREFETCHES:          0 PREFETCH ISSUED TO LOWER LEVEL:          0  ACCURACY: -nan
L1I TIMELY PREFETCHES:          0 LATE PREFETCHES: 0 DROPPED PREFETCHES: 0
L1I COMMIT LATE PREFETCHES: 0 NORMAL LATE: 0 MISSED OPPORTUNITY: 0 UNCOVERED: 15
L1I PREFETCHES SAME FILL-ORIGIN LEVEL: 0 DIFFERENT FILL-ORIGIN LEVEL: 0
L1I AVERAGE MISS LATENCY: 259 cycles
L1I AVERAGE MISS LATENCY LOAD: 259 cycles
L1I AVERAGE MISS LATENCY PREFETCH: -nan cycles
L1I AVERAGE MSHR OCCUPANCY: 1.90427e-07
L1I MSHR FULL: 0
L1I RQ	ACCESS:   65235592	FORWARD:          0	MERGED:   23224633	TO_CACHE:   42010959

BTB SPEC fills:          0  NON-SPEC fills:          0
BTB Test counter :          0
BTB Leapfrog:          0
BTB MSHR merge:          0
BTB TOTAL     ACCESS:   42321273  HIT:   42320954  MISS:        319  HIT %:    99.9992  MISS %: 0.000753758   MPKI: 0.001595
BTB BRANCH_DIRECT_JUMP	ACCESS:       5431  HIT:       5387  MISS:         44
BTB BRANCH_INDIRECT	ACCESS:          2  HIT:          1  MISS:          1
BTB BRANCH_CONDITIONAL	ACCESS:   42315328  HIT:   42315225  MISS:        103
BTB BRANCH_DIRECT_CALL	ACCESS:        250  HIT:        208  MISS:         42
BTB BRANCH_INDIRECT_CALL	ACCESS:          6  HIT:          3  MISS:          3
BTB BRANCH_RETURN	ACCESS:        256  HIT:        130  MISS:        126
BTB BRANCH_OTHER ACCESS:          0  HIT:          0  MISS:          0

L2C SPEC fills:          0  NON-SPEC fills:     715126
L2C Test counter :          0
L2C Leapfrog:          0
L2C MSHR merge:      42550
L2C TOTAL     ACCESS:   32700573  HIT:   27985925  MISS:    4714648  HIT %:    85.5824  MISS %:    14.4176   MPKI: 23.5732
L2C LOAD      TOTAL       ACCESS:    3226812  HIT:    2383108  MISS:     843704  HIT %:    73.8533  MISS %:    26.1467   MPKI: 4.21852
L2C LOAD      NON_SPEC    ACCESS:    2182403  HIT:    1467262  MISS:     715141  HIT %:    67.2315  MISS %:    32.7685   MPKI: 3.5757
L2C LOAD      SPEC        ACCESS:    1044409  HIT:     915846  MISS:     128563  HIT %:    87.6904  MISS %:    12.3096   MPKI: 0.642815
L2C RFO       NON_SPEC    ACCESS:     150022  HIT:       8960  MISS:     141062  HIT %:    5.97246  MISS %:    94.0275   MPKI: 0.70531
L2C PREFETCH  NON_SPEC    ACCESS:   25211924  HIT:   21656051  MISS:    3555873  HIT %:    85.8961  MISS %:    14.1039   MPKI: 17.7794
L2C WRITEBACK NON_SPEC    ACCESS:     254598  HIT:     254442  MISS:        156  HIT %:    99.9387  MISS %:  0.0612731   MPKI: 0.00078
L2C CLEAN_EVICTION NON_SPEC    ACCESS:    2883238  HIT:    2744727  MISS:     138511  HIT %:     95.196  MISS %:    4.80401   MPKI: 0.692555
L2C COMMIT LOAD NON_SPEC    ACCESS:       4542  HIT:       2083  MISS:       2459  HIT %:    45.8609  MISS %:    54.1391   MPKI: 0.012295
L2C LOAD TRANSLATION NON_SPEC    ACCESS:     499308  HIT:     476045  MISS:      23263  HIT %:     95.341  MISS %:    4.65905   MPKI: 0.116315
L2C TRANSLATION FROM L1D PREFETCHER NON_SPEC    ACCESS:     470129  HIT:     460509  MISS:       9620  HIT %:    97.9538  MISS %:    2.04625   MPKI: 0.0481
L2C PREFETCH  REQUESTED:          0  ISSUED:          0  USEFUL:     694973  USELESS:    2865873
L2C USEFUL LOAD PREFETCHES:     694973 PREFETCH ISSUED TO LOWER LEVEL:    3598424  ACCURACY: 19.3133
L2C TIMELY PREFETCHES:     694973 LATE PREFETCHES: 42550 DROPPED PREFETCHES: 0
L2C COMMIT LATE PREFETCHES: 0 NORMAL LATE: 42550 MISSED OPPORTUNITY: 0 UNCOVERED: 801154
L2C PREFETCHES SAME FILL-ORIGIN LEVEL: 2484028 DIFFERENT FILL-ORIGIN LEVEL: 0
L2C AVERAGE MISS LATENCY: 170.941 cycles
L2C AVERAGE MISS LATENCY LOAD: 138.812 cycles
L2C AVERAGE MISS LATENCY PREFETCH: 182.847 cycles
L2C AVERAGE MSHR OCCUPANCY: 1.21867
L2C MSHR FULL: 0
L2C RQ	ACCESS:    4350908	FORWARD:          0	MERGED:          0	TO_CACHE:    4350813
L2C WQ	ACCESS:    3137836	FORWARD:         97	MERGED:          0	TO_CACHE:    3137836
L2C PQ	ACCESS:   27102378	FORWARD:          0	MERGED:       1293	TO_CACHE:   27101083

L2C Instructions Evicting Data 15
L2C Translations Evicting Data 32401
L2C Data Evicting Data 4383471
L2C Instructions Evicting Instructions 0
L2C Translations Evicting Instructions 1
L2C Data Evicting Instructions 10
L2C Instructions Evicting Translations 0
L2C Translations Evicting Translations 481
L2C Data Evicting Translations 31039
L2C Dense regions hint from L2: 0
PSCL5 SPEC fills:          0  NON-SPEC fills:          0
PSCL5 Test counter :          0
PSCL5 Leapfrog:          0
PSCL5 MSHR merge:          0
PSCL5 TOTAL     ACCESS:          0  HIT:          0  MISS:          0  HIT %:       -nan  MISS %:       -nan   MPKI: 0
PSCL5 PREFETCH  REQUESTED:          0  ISSUED:          0  USEFUL:          0  USELESS:          0
PSCL5 USEFUL LOAD PREFETCHES:          0 PREFETCH ISSUED TO LOWER LEVEL:          0  ACCURACY: -nan
PSCL5 TIMELY PREFETCHES:          0 LATE PREFETCHES: 0 DROPPED PREFETCHES: 0
PSCL5 COMMIT LATE PREFETCHES: 0 NORMAL LATE: 0 MISSED OPPORTUNITY: 0 UNCOVERED: 0
PSCL5 PREFETCHES SAME FILL-ORIGIN LEVEL: 0 DIFFERENT FILL-ORIGIN LEVEL: 0

PSCL4 SPEC fills:          0  NON-SPEC fills:          0
PSCL4 Test counter :          0
PSCL4 Leapfrog:          0
PSCL4 MSHR merge:          0
PSCL4 TOTAL     ACCESS:          0  HIT:          0  MISS:          0  HIT %:       -nan  MISS %:       -nan   MPKI: 0
PSCL4 PREFETCH  REQUESTED:          0  ISSUED:          0  USEFUL:          0  USELESS:          0
PSCL4 USEFUL LOAD PREFETCHES:          0 PREFETCH ISSUED TO LOWER LEVEL:          0  ACCURACY: -nan
PSCL4 TIMELY PREFETCHES:          0 LATE PREFETCHES: 0 DROPPED PREFETCHES: 0
PSCL4 COMMIT LATE PREFETCHES: 0 NORMAL LATE: 0 MISSED OPPORTUNITY: 0 UNCOVERED: 0
PSCL4 PREFETCHES SAME FILL-ORIGIN LEVEL: 0 DIFFERENT FILL-ORIGIN LEVEL: 0

PSCL3 SPEC fills:          0  NON-SPEC fills:          0
PSCL3 Test counter :          0
PSCL3 Leapfrog:          0
PSCL3 MSHR merge:          0
PSCL3 TOTAL     ACCESS:          0  HIT:          0  MISS:          0  HIT %:       -nan  MISS %:       -nan   MPKI: 0
PSCL3 PREFETCH  REQUESTED:          0  ISSUED:          0  USEFUL:          0  USELESS:          0
PSCL3 USEFUL LOAD PREFETCHES:          0 PREFETCH ISSUED TO LOWER LEVEL:          0  ACCURACY: -nan
PSCL3 TIMELY PREFETCHES:          0 LATE PREFETCHES: 0 DROPPED PREFETCHES: 0
PSCL3 COMMIT LATE PREFETCHES: 0 NORMAL LATE: 0 MISSED OPPORTUNITY: 0 UNCOVERED: 0
PSCL3 PREFETCHES SAME FILL-ORIGIN LEVEL: 0 DIFFERENT FILL-ORIGIN LEVEL: 0

PSCL2 SPEC fills:          0  NON-SPEC fills:          0
PSCL2 Test counter :          0
PSCL2 Leapfrog:          0
PSCL2 MSHR merge:          0
PSCL2 TOTAL     ACCESS:          0  HIT:          0  MISS:          0  HIT %:       -nan  MISS %:       -nan   MPKI: 0
PSCL2 PREFETCH  REQUESTED:          0  ISSUED:          0  USEFUL:          0  USELESS:          0
PSCL2 USEFUL LOAD PREFETCHES:          0 PREFETCH ISSUED TO LOWER LEVEL:          0  ACCURACY: -nan
PSCL2 TIMELY PREFETCHES:          0 LATE PREFETCHES: 0 DROPPED PREFETCHES: 0
PSCL2 COMMIT LATE PREFETCHES: 0 NORMAL LATE: 0 MISSED OPPORTUNITY: 0 UNCOVERED: 0
PSCL2 PREFETCHES SAME FILL-ORIGIN LEVEL: 0 DIFFERENT FILL-ORIGIN LEVEL: 0

LLC SPEC fills:          0  NON-SPEC fills:     534126
LLC Test counter :          0
LLC Leapfrog:          0
LLC MSHR merge:          0
LLC TOTAL     ACCESS:    6860621  HIT:    2419749  MISS:    4440872  HIT %:    35.2701  MISS %:    64.7299   MPKI: 22.2044
LLC LOAD      TOTAL       ACCESS:     801147  HIT:     212906  MISS:     588241  HIT %:    26.5751  MISS %:    73.4249   MPKI: 2.9412
LLC LOAD      NON_SPEC    ACCESS:     680127  HIT:     145986  MISS:     534141  HIT %:    21.4645  MISS %:    78.5355   MPKI: 2.6707
LLC LOAD      SPEC        ACCESS:     121020  HIT:      66920  MISS:      54100  HIT %:    55.2966  MISS %:    44.7034   MPKI: 0.2705
LLC RFO       NON_SPEC    ACCESS:     141062  HIT:       2634  MISS:     138428  HIT %:    1.86726  MISS %:    98.1327   MPKI: 0.69214
LLC PREFETCH  NON_SPEC    ACCESS:    3598423  HIT:       6572  MISS:    3591851  HIT %:   0.182636  MISS %:    99.8174   MPKI: 17.9593
LLC WRITEBACK NON_SPEC    ACCESS:     250101  HIT:     246971  MISS:       3130  HIT %:    98.7485  MISS %:    1.25149   MPKI: 0.01565
LLC CLEAN_EVICTION NON_SPEC    ACCESS:    2034546  HIT:    1949457  MISS:      85089  HIT %:    95.8178  MISS %:    4.18221   MPKI: 0.425445
LLC COMMIT LOAD NON_SPEC    ACCESS:       2459  HIT:        415  MISS:       2044  HIT %:    16.8768  MISS %:    83.1232   MPKI: 0.01022
LLC LOAD TRANSLATION NON_SPEC    ACCESS:      23263  HIT:        527  MISS:      22736  HIT %:     2.2654  MISS %:    97.7346   MPKI: 0.11368
LLC TRANSLATION FROM L1D PREFETCHER NON_SPEC    ACCESS:       9620  HIT:        267  MISS:       9353  HIT %:    2.77547  MISS %:    97.2245   MPKI: 0.046765
LLC PREFETCH  REQUESTED:          0  ISSUED:          0  USEFUL:       3075  USELESS:    3591816
LLC USEFUL LOAD PREFETCHES:       3075 PREFETCH ISSUED TO LOWER LEVEL:    3591852  ACCURACY: 0.0856104
LLC TIMELY PREFETCHES:       3075 LATE PREFETCHES: 0 DROPPED PREFETCHES: 0
LLC COMMIT LATE PREFETCHES: 0 NORMAL LATE: 0 MISSED OPPORTUNITY: 0 UNCOVERED: 588241
LLC PREFETCHES SAME FILL-ORIGIN LEVEL: 0 DIFFERENT FILL-ORIGIN LEVEL: 0
LLC AVERAGE MISS LATENCY: 151.934 cycles
LLC AVERAGE MISS LATENCY LOAD: 154.266 cycles
LLC AVERAGE MISS LATENCY PREFETCH: 153.302 cycles
LLC AVERAGE MSHR OCCUPANCY: 0.903726
LLC MSHR FULL: 0
LLC RQ	ACCESS:     977558	FORWARD:          0	MERGED:          0	TO_CACHE:     977551
LLC WQ	ACCESS:    2284647	FORWARD:          7	MERGED:          0	TO_CACHE:    2284647
LLC PQ	ACCESS:    3598424	FORWARD:          0	MERGED:          0	TO_CACHE:    3598424

LLC Dense regions hint to LLC: 0

RAW hits: 16055
Loads Generated: 49181502
Loads sent to L1D: 49165447
Stores Generated: 5542573
Stores sent to L1D: 5542575
Major fault: 0 Minor fault: 27212
Allocated PAGES: 27212
Total Load insts: 61472581
Total Non-spec loads: 17522956
Percentage of speculative loads: 71.4947

LeapFrogging counter: 21066
Commit hits: 20158438 miss: 11704077
Commit hit %: 63.2669 miss %: 36.7331
Commits not translated: 0
Loads retired: 3227927
Stores retired: 5542575
Cache fills: 3227927
L1D response latency: 49.9236 cycles
Load retirement latency: 68.6359 cycles
OOO test counter: 0
Discarded buffer inserts: 20158438 hits: 4084 hit %: 0.0202595
Filter prediction accuracy: -nan
LATENCY_FILL: 49.8169 3225468

DRAM Statistics
 CHANNEL 0
 RQ ROW_BUFFER_HIT:    1151444  ROW_BUFFER_MISS:    3201201
 DBUS_CONGESTED:      11559
 WQ ROW_BUFFER_HIT:     748060  ROW_BUFFER_MISS:    1445828  FULL:      11948

 AVG_CONGESTED_CYCLE: 4
 All warmup complete: 2
Channel 0 Bank busy for read cycles: 0
Channel 0 Bank busy for write cycles: 0
Channel 0
Rank 0
0banks busy for read cycles: 134998736
0banks busy for write cycles: 440694
1banks busy for read cycles: 190041331
1banks busy for write cycles: 54287111
2banks busy for read cycles: 91507794
2banks busy for write cycles: 32730721
3banks busy for read cycles: 29445502
3banks busy for write cycles: 18657251
4banks busy for read cycles: 9818235
4banks busy for write cycles: 10848041
5banks busy for read cycles: 3817813
5banks busy for write cycles: 6861804
6banks busy for read cycles: 1602730
6banks busy for write cycles: 4827963
7banks busy for read cycles: 730207
7banks busy for write cycles: 4718742
8banks busy for read cycles: 448408
8banks busy for write cycles: 18819360

CPU 0 Branch Prediction Accuracy: 85.7266% MPKI: 31.0332 Average ROB Occupancy at Mispredict: 6.73118
Branch types
NOT_BRANCH: 156515655 78.2578%
BRANCH_DIRECT_JUMP: 5431 0.0027155%
BRANCH_INDIRECT: 2 1e-06%
BRANCH_CONDITIONAL: 43478066 21.739%
BRANCH_DIRECT_CALL: 250 0.000125%
BRANCH_INDIRECT_CALL: 6 3e-06%
BRANCH_RETURN: 256 0.000128%
BRANCH_OTHER: 0 0%

DRAM PAGES: 1048576
Allocated PAGES: 27212
