
*** ChampSim Multicore Out-of-Order Simulator ***

Warmup Instructions: 50000000
Simulation Instructions: 200000000
Number of CPUs: 1
LLC sets: 2048
LLC ways: 16
L0D sets: 16
L0D ways: 2
ROB size: 352
LQ size: 128
SQ size: 72
Secure Berti: OFF
Berti: OFF
Berti Fill: OFF
On commit prefetching: OFF
Hit-based filter: OFF
Time-guarding: ON
Free-slotting: ON
Leap-frogging: ON
Train prefetcher on L0D bypass: OFF
No translation penalty for prefetchers: OFF
Prefetch to L0D only: OFF
Prefetch to L1D only: OFF
Clean evictions: ON
Commit loads: ON
Commit write: ON
Fill commit loads to L2C, LLC: ON
DRAM IO FREQUENCY: 6400
ROB SIZE: 352
Off-chip DRAM Size: 4096 MB Channels: 1 Width: 64-bit Data Rate: 6400 MT/s
CPU 0 runs /home/sumon/secure_berti/GhostMinion/../../traces/gap/bfs-3.trace.gz
.gz
BTB has LRU replacement policy
ITLB has LRU replacement policy
DTLB has LRU replacement policy
STLB has LRU replacement policy
L1I has LRU replacement policy
L0D has LRU replacement policy
History Sets: 8
History Ways: 16
BERTI Size: 16
BERTI Stride Size: 16
L1D has LRU replacement policy
L2C has LRU replacement policy
LLC has LRU replacement policy
Heartbeat CPU 0 instructions: 10000002 cycles: 2973577 heartbeat IPC: 3.36295 cumulative IPC: 3.36295 (Simulation time: 0 hr 0 min 27 sec) 
Heartbeat CPU 0 instructions: 20000002 cycles: 6114465 heartbeat IPC: 3.18381 cumulative IPC: 3.27093 (Simulation time: 0 hr 1 min 6 sec) 
Heartbeat CPU 0 instructions: 30000002 cycles: 9248256 heartbeat IPC: 3.19102 cumulative IPC: 3.24385 (Simulation time: 0 hr 1 min 45 sec) 
Heartbeat CPU 0 instructions: 40000003 cycles: 12382535 heartbeat IPC: 3.19053 cumulative IPC: 3.23036 (Simulation time: 0 hr 2 min 23 sec) 
Heartbeat CPU 0 instructions: 50000003 cycles: 15544257 heartbeat IPC: 3.16283 cumulative IPC: 3.21662 (Simulation time: 0 hr 3 min 2 sec) 

Warmup complete CPU 0 instructions: 50000003 cycles: 15544257 (Simulation time: 0 hr 3 min 2 sec) 

Heartbeat CPU 0 instructions: 60000000 cycles: 61032391 heartbeat IPC: 0.219837 cumulative IPC: 0.219837 (Simulation time: 0 hr 3 min 57 sec) 
Heartbeat CPU 0 instructions: 70000001 cycles: 85800528 heartbeat IPC: 0.403745 cumulative IPC: 0.284672 (Simulation time: 0 hr 4 min 40 sec) 
Heartbeat CPU 0 instructions: 80000001 cycles: 99708362 heartbeat IPC: 0.719019 cumulative IPC: 0.356446 (Simulation time: 0 hr 5 min 13 sec) 
Heartbeat CPU 0 instructions: 90000000 cycles: 119023233 heartbeat IPC: 0.517736 cumulative IPC: 0.386552 (Simulation time: 0 hr 5 min 53 sec) 
Heartbeat CPU 0 instructions: 100000001 cycles: 151997001 heartbeat IPC: 0.303271 cumulative IPC: 0.366427 (Simulation time: 0 hr 6 min 37 sec) 
Heartbeat CPU 0 instructions: 110000000 cycles: 186906636 heartbeat IPC: 0.286454 cumulative IPC: 0.350135 (Simulation time: 0 hr 7 min 24 sec) 
Heartbeat CPU 0 instructions: 120000001 cycles: 223818932 heartbeat IPC: 0.270912 cumulative IPC: 0.336095 (Simulation time: 0 hr 8 min 10 sec) 
Heartbeat CPU 0 instructions: 130000000 cycles: 258210361 heartbeat IPC: 0.29077 cumulative IPC: 0.329671 (Simulation time: 0 hr 8 min 52 sec) 
Heartbeat CPU 0 instructions: 140000001 cycles: 279105368 heartbeat IPC: 0.478583 cumulative IPC: 0.341477 (Simulation time: 0 hr 9 min 25 sec) 
Heartbeat CPU 0 instructions: 150000000 cycles: 296773008 heartbeat IPC: 0.566006 cumulative IPC: 0.355582 (Simulation time: 0 hr 9 min 59 sec) 
Heartbeat CPU 0 instructions: 160000001 cycles: 319680474 heartbeat IPC: 0.436539 cumulative IPC: 0.36168 (Simulation time: 0 hr 10 min 33 sec) 
Heartbeat CPU 0 instructions: 170000002 cycles: 363591175 heartbeat IPC: 0.227735 cumulative IPC: 0.344781 (Simulation time: 0 hr 11 min 20 sec) 
Heartbeat CPU 0 instructions: 180000000 cycles: 401900313 heartbeat IPC: 0.261034 cumulative IPC: 0.336477 (Simulation time: 0 hr 12 min 9 sec) 
Heartbeat CPU 0 instructions: 190000000 cycles: 429970310 heartbeat IPC: 0.356252 cumulative IPC: 0.337817 (Simulation time: 0 hr 12 min 54 sec) 
Heartbeat CPU 0 instructions: 200000000 cycles: 471640710 heartbeat IPC: 0.239978 cumulative IPC: 0.328878 (Simulation time: 0 hr 13 min 36 sec) 
Heartbeat CPU 0 instructions: 210000002 cycles: 509086002 heartbeat IPC: 0.267056 cumulative IPC: 0.324187 (Simulation time: 0 hr 14 min 16 sec) 
Heartbeat CPU 0 instructions: 220000000 cycles: 532010228 heartbeat IPC: 0.43622 cumulative IPC: 0.32916 (Simulation time: 0 hr 14 min 48 sec) 
Heartbeat CPU 0 instructions: 230000000 cycles: 547023330 heartbeat IPC: 0.666085 cumulative IPC: 0.338677 (Simulation time: 0 hr 15 min 17 sec) 
Heartbeat CPU 0 instructions: 240000000 cycles: 568104457 heartbeat IPC: 0.474358 cumulative IPC: 0.343854 (Simulation time: 0 hr 15 min 50 sec) 
Heartbeat CPU 0 instructions: 250000001 cycles: 600436222 heartbeat IPC: 0.309293 cumulative IPC: 0.341943 (Simulation time: 0 hr 16 min 29 sec) 
Finished CPU 0 instructions: 200000000 cycles: 584891968 cumulative IPC: 0.341944 (Simulation time: 0 hr 16 min 29 sec) 
 Instruction ID: 250000003

ChampSim completed all CPUs

Region of Interest Statistics

CPU 0 cumulative IPC: 0.341944 instructions: 200000000 cycles: 584891968
ITLB SPEC fills:          0  NON-SPEC fills:          0
ITLB Test counter :          0
ITLB Leapfrog:          0
ITLB MSHR merge:          0
ITLB TOTAL     ACCESS:   33867800  HIT:   33867800  MISS:          0  HIT %:        100  MISS %:          0   MPKI: 0
ITLB LOAD TRANSLATION NON_SPEC    ACCESS:   33867800  HIT:   33867800  MISS:          0  HIT %:        100  MISS %:          0   MPKI: 0
ITLB PREFETCH  REQUESTED:          0  ISSUED:          0  USEFUL:          0  USELESS:          0
ITLB USEFUL LOAD PREFETCHES:          0 PREFETCH ISSUED TO LOWER LEVEL:          0  ACCURACY: -nan
ITLB TIMELY PREFETCHES:          0 LATE PREFETCHES: 0 DROPPED PREFETCHES: 0
ITLB COMMIT LATE PREFETCHES: 0 NORMAL LATE: 0 MISSED OPPORTUNITY: 0 UNCOVERED: 0
ITLB PREFETCHES SAME FILL-ORIGIN LEVEL: 0 DIFFERENT FILL-ORIGIN LEVEL: 0
ITLB AVERAGE MISS LATENCY: -nan cycles
ITLB AVERAGE MISS LATENCY LOAD: -nan cycles
ITLB AVERAGE MISS LATENCY PREFETCH: -nan cycles
ITLB AVERAGE MSHR OCCUPANCY: 0
ITLB MSHR FULL: 0
ITLB RQ	ACCESS:   41436453	FORWARD:          0	MERGED:    7568654	TO_CACHE:   33867799

DTLB SPEC fills:          0  NON-SPEC fills:          0
DTLB Test counter :          0
DTLB Leapfrog:          0
DTLB MSHR merge:          0
DTLB TOTAL     ACCESS:   45055007  HIT:   44322953  MISS:     732054  HIT %:    98.3752  MISS %:     1.6248   MPKI: 3.66027
DTLB LOAD TRANSLATION NON_SPEC    ACCESS:   45055007  HIT:   44322953  MISS:     732054  HIT %:    98.3752  MISS %:     1.6248   MPKI: 3.66027
DTLB PREFETCH  REQUESTED:          0  ISSUED:          0  USEFUL:          0  USELESS:          0
DTLB USEFUL LOAD PREFETCHES:          0 PREFETCH ISSUED TO LOWER LEVEL:          0  ACCURACY: -nan
DTLB TIMELY PREFETCHES:          0 LATE PREFETCHES: 0 DROPPED PREFETCHES: 0
DTLB COMMIT LATE PREFETCHES: 0 NORMAL LATE: 0 MISSED OPPORTUNITY: 0 UNCOVERED: 0
DTLB PREFETCHES SAME FILL-ORIGIN LEVEL: 0 DIFFERENT FILL-ORIGIN LEVEL: 0
DTLB AVERAGE MISS LATENCY: 31.4985 cycles
DTLB AVERAGE MISS LATENCY LOAD: -nan cycles
DTLB AVERAGE MISS LATENCY PREFETCH: -nan cycles
DTLB AVERAGE MSHR OCCUPANCY: 0.029034
DTLB MSHR FULL: 0.000167812
DTLB RQ	ACCESS:   47727417	FORWARD:          0	MERGED:    2612520	TO_CACHE:   45114897

STLB SPEC fills:          0  NON-SPEC fills:          0
STLB Test counter :          0
STLB Leapfrog:          0
STLB MSHR merge:          0
STLB TOTAL     ACCESS:   20647651  HIT:   20499857  MISS:     147794  HIT %:    99.2842  MISS %:   0.715791   MPKI: 0.73897
STLB LOAD TRANSLATION NON_SPEC    ACCESS:     732054  HIT:     635003  MISS:      97051  HIT %:    86.7426  MISS %:    13.2574   MPKI: 0.485255
STLB TRANSLATION FROM L1D PREFETCHER NON_SPEC    ACCESS:   19915597  HIT:   19864854  MISS:      50743  HIT %:    99.7452  MISS %:    0.25479   MPKI: 0.253715
STLB PREFETCH  REQUESTED:          0  ISSUED:          0  USEFUL:      50467  USELESS:        280
STLB USEFUL LOAD PREFETCHES:      50467 PREFETCH ISSUED TO LOWER LEVEL:          0  ACCURACY: inf
STLB TIMELY PREFETCHES:      50467 LATE PREFETCHES: 1198 DROPPED PREFETCHES: 92880
STLB COMMIT LATE PREFETCHES: 0 NORMAL LATE: 1198 MISSED OPPORTUNITY: 0 UNCOVERED: 18446744073709550418
STLB PREFETCHES SAME FILL-ORIGIN LEVEL: 0 DIFFERENT FILL-ORIGIN LEVEL: 0
STLB AVERAGE MISS LATENCY: 144.458 cycles
STLB AVERAGE MISS LATENCY LOAD: -nan cycles
STLB AVERAGE MISS LATENCY PREFETCH: -nan cycles
STLB AVERAGE MSHR OCCUPANCY: 0.0200659
STLB MSHR FULL: 0
STLB RQ	ACCESS:  108429559	FORWARD:          0	MERGED:   87673791	TO_CACHE:   20755768

STLB Hit, L1D data hit: 0
STLB Hit, L2C data hit: 0
STLB Hit, LLC data hit: 0
STLB Hit, LLC data miss: 0
STLB STLB hints to L2: 0
L0D SPEC fills:   21486012  NON-SPEC fills:          0
L0D TimeGuard Request with older TS:      83011 Restricted eviction:      33959 read:        308
L0D Test counter :          0
L0D Leapfrog:          0
L0D MSHR merge:     277807
L0D TOTAL     ACCESS:   39812795  HIT:    5347681  MISS:   34465114  HIT %:    13.4321  MISS %:    86.5679   MPKI: 172.326
L0D LOAD      TOTAL       ACCESS:   39812795  HIT:    5347681  MISS:   34465114  HIT %:    13.4321  MISS %:    86.5679   MPKI: 172.326
L0D LOAD      NON_SPEC    ACCESS:   12945676  HIT:        533  MISS:   12945143  HIT %:  0.0041172  MISS %:    99.9959   MPKI: 64.7257
L0D LOAD      SPEC        ACCESS:   26867119  HIT:    5347148  MISS:   21519971  HIT %:    19.9022  MISS %:    80.0978   MPKI: 107.6
L0D PREFETCH  REQUESTED:          0  ISSUED:          0  USEFUL:          0  USELESS:          0
L0D USEFUL LOAD PREFETCHES:          0 PREFETCH ISSUED TO LOWER LEVEL:          0  ACCURACY: -nan
L0D TIMELY PREFETCHES:          0 LATE PREFETCHES: 0 DROPPED PREFETCHES: 0
L0D COMMIT LATE PREFETCHES: 0 NORMAL LATE: 0 MISSED OPPORTUNITY: 0 UNCOVERED: 34465114
L0D PREFETCHES SAME FILL-ORIGIN LEVEL: 0 DIFFERENT FILL-ORIGIN LEVEL: 0
L0D AVERAGE MISS LATENCY: 14.9989 cycles
L0D AVERAGE MISS LATENCY LOAD: 14.9989 cycles
L0D AVERAGE MISS LATENCY PREFETCH: -nan cycles
L0D AVERAGE MSHR OCCUPANCY: 1.08515
L0D MSHR FULL: 0.0522026
L0D RQ	ACCESS:   47491296	FORWARD:          0	MERGED:    7400699	TO_CACHE:   40090597
L0D WQ	ACCESS:    7636820	FORWARD:          0	MERGED:          0	TO_CACHE:    7636820

L1D SPEC fills:          0  NON-SPEC fills:    1795643
L1D Test counter :          0
L1D Leapfrog:          0
L1D MSHR merge:      20433
L1D TOTAL     ACCESS:  154702714  HIT:  146119272  MISS:    8583442  HIT %:    94.4517  MISS %:    5.54835   MPKI: 42.9172
L1D LOAD      TOTAL       ACCESS:   34464870  HIT:   30436037  MISS:    4028833  HIT %:    88.3103  MISS %:    11.6897   MPKI: 20.1442
L1D LOAD      NON_SPEC    ACCESS:   12945024  HIT:   11149381  MISS:    1795643  HIT %:    86.1287  MISS %:    13.8713   MPKI: 8.97822
L1D LOAD      SPEC        ACCESS:   21519846  HIT:   19286656  MISS:    2233190  HIT %:    89.6226  MISS %:    10.3774   MPKI: 11.166
L1D RFO       NON_SPEC    ACCESS:    4400827  HIT:    4123908  MISS:     276919  HIT %:    93.7076  MISS %:    6.29243   MPKI: 1.3846
L1D PREFETCH  NON_SPEC    ACCESS:   84125967  HIT:   82092771  MISS:    2033196  HIT %:    97.5832  MISS %:    2.41685   MPKI: 10.166
L1D COMMIT LOAD NON_SPEC    ACCESS:   10270790  HIT:   10231998  MISS:      38792  HIT %:    99.6223  MISS %:   0.377692   MPKI: 0.19396
L1D COMMIT WRITE NON_SPEC    ACCESS:   21440260  HIT:   19234558  MISS:    2205702  HIT %:    89.7123  MISS %:    10.2877   MPKI: 11.0285
L1D PREFETCH  REQUESTED:  149574805  ISSUED:  141754624  USEFUL:    1949408  USELESS:      83780
L1D USEFUL LOAD PREFETCHES:    1949408 PREFETCH ISSUED TO LOWER LEVEL:   21162926  ACCURACY: 9.21143
L1D TIMELY PREFETCHES:    1949408 LATE PREFETCHES: 20206 DROPPED PREFETCHES: 270470
L1D COMMIT LATE PREFETCHES: 0 NORMAL LATE: 20206 MISSED OPPORTUNITY: 0 UNCOVERED: 4008627
L1D PREFETCHES SAME FILL-ORIGIN LEVEL: 2053403 DIFFERENT FILL-ORIGIN LEVEL: 19109523
L1D AVERAGE MISS LATENCY: 79.4449 cycles
L1D AVERAGE MISS LATENCY LOAD: 84.0058 cycles
L1D AVERAGE MISS LATENCY PREFETCH: 134.476 cycles
L1D AVERAGE MSHR OCCUPANCY: 1.24237
L1D MSHR FULL: 0.0242963
L1D RQ	ACCESS:   47569612	FORWARD:          0	MERGED:    1733660	TO_CACHE:   44736074
L1D WQ	ACCESS:   29028679	FORWARD:    1099878	MERGED:    1231584	TO_CACHE:   27797095
L1D PQ	ACCESS:  141754624	FORWARD:          0	MERGED:   34057119	TO_CACHE:  107697505

L1D UNIQUE REGIONS ACCESSED: 0
L1D REGIONS CONFLICTS: 0
L1D Cross Page Prefetch Requests: 12942373
L1D Same Page Prefetch Requests: 138183820
L1D ROI Sum of L1D PQ occupancy: 1665966712
L1D PREFETCHES PUSHED FROM L2C: 0
L1I SPEC fills:          0  NON-SPEC fills:          0
L1I Test counter :          0
L1I Leapfrog:          0
L1I MSHR merge:          2
L1I TOTAL     ACCESS:   41436452  HIT:   41436435  MISS:         17  HIT %:        100  MISS %: 4.10267e-05   MPKI: 8.5e-05
L1I LOAD      TOTAL       ACCESS:   41436452  HIT:   41436435  MISS:         17  HIT %:        100  MISS %: 4.10267e-05   MPKI: 8.5e-05
L1I LOAD      NON_SPEC    ACCESS:   41436452  HIT:   41436435  MISS:         17  HIT %:        100  MISS %: 4.10267e-05   MPKI: 8.5e-05
L1I PREFETCH  REQUESTED:          0  ISSUED:          0  USEFUL:          0  USELESS:          0
L1I USEFUL LOAD PREFETCHES:          0 PREFETCH ISSUED TO LOWER LEVEL:          0  ACCURACY: -nan
L1I TIMELY PREFETCHES:          0 LATE PREFETCHES: 0 DROPPED PREFETCHES: 0
L1I COMMIT LATE PREFETCHES: 0 NORMAL LATE: 0 MISSED OPPORTUNITY: 0 UNCOVERED: 17
L1I PREFETCHES SAME FILL-ORIGIN LEVEL: 0 DIFFERENT FILL-ORIGIN LEVEL: 0
L1I AVERAGE MISS LATENCY: 257.882 cycles
L1I AVERAGE MISS LATENCY LOAD: 257.882 cycles
L1I AVERAGE MISS LATENCY PREFETCH: -nan cycles
L1I AVERAGE MSHR OCCUPANCY: 1.93067e-07
L1I MSHR FULL: 0
L1I RQ	ACCESS:   64755511	FORWARD:          0	MERGED:   23319058	TO_CACHE:   41436453

BTB SPEC fills:          0  NON-SPEC fills:          0
BTB Test counter :          0
BTB Leapfrog:          0
BTB MSHR merge:          0
BTB TOTAL     ACCESS:   40442036  HIT:   40441679  MISS:        357  HIT %:    99.9991  MISS %: 0.000882745   MPKI: 0.001785
BTB BRANCH_DIRECT_JUMP	ACCESS:      22041  HIT:      21996  MISS:         45
BTB BRANCH_INDIRECT	ACCESS:          3  HIT:          2  MISS:          1
BTB BRANCH_CONDITIONAL	ACCESS:   40419252  HIT:   40419148  MISS:        104
BTB BRANCH_DIRECT_CALL	ACCESS:        361  HIT:        318  MISS:         43
BTB BRANCH_INDIRECT_CALL	ACCESS:          9  HIT:          6  MISS:          3
BTB BRANCH_RETURN	ACCESS:        370  HIT:        209  MISS:        161
BTB BRANCH_OTHER ACCESS:          0  HIT:          0  MISS:          0

L2C SPEC fills:          0  NON-SPEC fills:     823695
L2C Test counter :          0
L2C Leapfrog:          0
L2C MSHR merge:     123568
L2C TOTAL     ACCESS:   29062846  HIT:   20964162  MISS:    8098684  HIT %:    72.1339  MISS %:    27.8661   MPKI: 40.4934
L2C LOAD      TOTAL       ACCESS:    4008634  HIT:    1661689  MISS:    2346945  HIT %:    41.4527  MISS %:    58.5473   MPKI: 11.7347
L2C LOAD      NON_SPEC    ACCESS:    1791114  HIT:     967402  MISS:     823712  HIT %:    54.0112  MISS %:    45.9888   MPKI: 4.11856
L2C LOAD      SPEC        ACCESS:    2217520  HIT:     694287  MISS:    1523233  HIT %:    31.3092  MISS %:    68.6908   MPKI: 7.61616
L2C RFO       NON_SPEC    ACCESS:     276918  HIT:       7477  MISS:     269441  HIT %:    2.70008  MISS %:    97.2999   MPKI: 1.3472
L2C PREFETCH  NON_SPEC    ACCESS:   19007762  HIT:   15108681  MISS:    3899081  HIT %:    79.4869  MISS %:    20.5131   MPKI: 19.4954
L2C WRITEBACK NON_SPEC    ACCESS:     605251  HIT:     605211  MISS:         40  HIT %:    99.9934  MISS %: 0.00660883   MPKI: 0.0002
L2C CLEAN_EVICTION NON_SPEC    ACCESS:    3919285  HIT:    2394114  MISS:    1525171  HIT %:    61.0855  MISS %:    38.9145   MPKI: 7.62585
L2C COMMIT LOAD NON_SPEC    ACCESS:      38772  HIT:      15234  MISS:      23538  HIT %:    39.2912  MISS %:    60.7088   MPKI: 0.11769
L2C LOAD TRANSLATION NON_SPEC    ACCESS:     482119  HIT:     455359  MISS:      26760  HIT %:    94.4495  MISS %:     5.5505   MPKI: 0.1338
L2C TRANSLATION FROM L1D PREFETCHER NON_SPEC    ACCESS:     724105  HIT:     716397  MISS:       7708  HIT %:    98.9355  MISS %:    1.06449   MPKI: 0.03854
L2C PREFETCH  REQUESTED:          0  ISSUED:          0  USEFUL:     591805  USELESS:    3314448
L2C USEFUL LOAD PREFETCHES:     591805 PREFETCH ISSUED TO LOWER LEVEL:    4022695  ACCURACY: 14.7117
L2C TIMELY PREFETCHES:     591805 LATE PREFETCHES: 123614 DROPPED PREFETCHES: 0
L2C COMMIT LATE PREFETCHES: 0 NORMAL LATE: 123614 MISSED OPPORTUNITY: 0 UNCOVERED: 2223331
L2C PREFETCHES SAME FILL-ORIGIN LEVEL: 2896081 DIFFERENT FILL-ORIGIN LEVEL: 0
L2C AVERAGE MISS LATENCY: 145.403 cycles
L2C AVERAGE MISS LATENCY LOAD: 120.732 cycles
L2C AVERAGE MISS LATENCY PREFETCH: 210.68 cycles
L2C AVERAGE MSHR OCCUPANCY: 2.54325
L2C MSHR FULL: 0.00351091
L2C RQ	ACCESS:    5530578	FORWARD:          0	MERGED:          0	TO_CACHE:    5530548
L2C WQ	ACCESS:    4524536	FORWARD:         35	MERGED:          0	TO_CACHE:    4524536
L2C PQ	ACCESS:   21145289	FORWARD:          0	MERGED:       6635	TO_CACHE:   21138649

L2C Instructions Evicting Data 17
L2C Translations Evicting Data 33751
L2C Data Evicting Data 4987101
L2C Instructions Evicting Instructions 0
L2C Translations Evicting Instructions 2
L2C Data Evicting Instructions 14
L2C Instructions Evicting Translations 0
L2C Translations Evicting Translations 715
L2C Data Evicting Translations 28640
L2C Dense regions hint from L2: 0
PSCL5 SPEC fills:          0  NON-SPEC fills:          0
PSCL5 Test counter :          0
PSCL5 Leapfrog:          0
PSCL5 MSHR merge:          0
PSCL5 TOTAL     ACCESS:          0  HIT:          0  MISS:          0  HIT %:       -nan  MISS %:       -nan   MPKI: 0
PSCL5 PREFETCH  REQUESTED:          0  ISSUED:          0  USEFUL:          0  USELESS:          0
PSCL5 USEFUL LOAD PREFETCHES:          0 PREFETCH ISSUED TO LOWER LEVEL:          0  ACCURACY: -nan
PSCL5 TIMELY PREFETCHES:          0 LATE PREFETCHES: 0 DROPPED PREFETCHES: 0
PSCL5 COMMIT LATE PREFETCHES: 0 NORMAL LATE: 0 MISSED OPPORTUNITY: 0 UNCOVERED: 0
PSCL5 PREFETCHES SAME FILL-ORIGIN LEVEL: 0 DIFFERENT FILL-ORIGIN LEVEL: 0

PSCL4 SPEC fills:          0  NON-SPEC fills:          0
PSCL4 Test counter :          0
PSCL4 Leapfrog:          0
PSCL4 MSHR merge:          0
PSCL4 TOTAL     ACCESS:          0  HIT:          0  MISS:          0  HIT %:       -nan  MISS %:       -nan   MPKI: 0
PSCL4 PREFETCH  REQUESTED:          0  ISSUED:          0  USEFUL:          0  USELESS:          0
PSCL4 USEFUL LOAD PREFETCHES:          0 PREFETCH ISSUED TO LOWER LEVEL:          0  ACCURACY: -nan
PSCL4 TIMELY PREFETCHES:          0 LATE PREFETCHES: 0 DROPPED PREFETCHES: 0
PSCL4 COMMIT LATE PREFETCHES: 0 NORMAL LATE: 0 MISSED OPPORTUNITY: 0 UNCOVERED: 0
PSCL4 PREFETCHES SAME FILL-ORIGIN LEVEL: 0 DIFFERENT FILL-ORIGIN LEVEL: 0

PSCL3 SPEC fills:          0  NON-SPEC fills:          0
PSCL3 Test counter :          0
PSCL3 Leapfrog:          0
PSCL3 MSHR merge:          0
PSCL3 TOTAL     ACCESS:          0  HIT:          0  MISS:          0  HIT %:       -nan  MISS %:       -nan   MPKI: 0
PSCL3 PREFETCH  REQUESTED:          0  ISSUED:          0  USEFUL:          0  USELESS:          0
PSCL3 USEFUL LOAD PREFETCHES:          0 PREFETCH ISSUED TO LOWER LEVEL:          0  ACCURACY: -nan
PSCL3 TIMELY PREFETCHES:          0 LATE PREFETCHES: 0 DROPPED PREFETCHES: 0
PSCL3 COMMIT LATE PREFETCHES: 0 NORMAL LATE: 0 MISSED OPPORTUNITY: 0 UNCOVERED: 0
PSCL3 PREFETCHES SAME FILL-ORIGIN LEVEL: 0 DIFFERENT FILL-ORIGIN LEVEL: 0

PSCL2 SPEC fills:          0  NON-SPEC fills:          0
PSCL2 Test counter :          0
PSCL2 Leapfrog:          0
PSCL2 MSHR merge:          0
PSCL2 TOTAL     ACCESS:          0  HIT:          0  MISS:          0  HIT %:       -nan  MISS %:       -nan   MPKI: 0
PSCL2 PREFETCH  REQUESTED:          0  ISSUED:          0  USEFUL:          0  USELESS:          0
PSCL2 USEFUL LOAD PREFETCHES:          0 PREFETCH ISSUED TO LOWER LEVEL:          0  ACCURACY: -nan
PSCL2 TIMELY PREFETCHES:          0 LATE PREFETCHES: 0 DROPPED PREFETCHES: 0
PSCL2 COMMIT LATE PREFETCHES: 0 NORMAL LATE: 0 MISSED OPPORTUNITY: 0 UNCOVERED: 0
PSCL2 PREFETCHES SAME FILL-ORIGIN LEVEL: 0 DIFFERENT FILL-ORIGIN LEVEL: 0

LLC SPEC fills:          0  NON-SPEC fills:     510210
LLC Test counter :          0
LLC Leapfrog:          0
LLC MSHR merge:          0
LLC TOTAL     ACCESS:   10573088  HIT:    4559948  MISS:    6013140  HIT %:    43.1279  MISS %:    56.8721   MPKI: 30.0657
LLC LOAD      TOTAL       ACCESS:    2223366  HIT:    1033764  MISS:    1189602  HIT %:    46.4954  MISS %:    53.5046   MPKI: 5.94801
LLC LOAD      NON_SPEC    ACCESS:     793421  HIT:     283194  MISS:     510227  HIT %:    35.6928  MISS %:    64.3072   MPKI: 2.55113
LLC LOAD      SPEC        ACCESS:    1429945  HIT:     750570  MISS:     679375  HIT %:    52.4894  MISS %:    47.5106   MPKI: 3.39688
LLC RFO       NON_SPEC    ACCESS:     269441  HIT:      14433  MISS:     255008  HIT %:    5.35665  MISS %:    94.6434   MPKI: 1.27504
LLC PREFETCH  NON_SPEC    ACCESS:    4022693  HIT:     284247  MISS:    3738446  HIT %:    7.06609  MISS %:    92.9339   MPKI: 18.6922
LLC WRITEBACK NON_SPEC    ACCESS:     470754  HIT:     468859  MISS:       1895  HIT %:    99.5975  MISS %:   0.402546   MPKI: 0.009475
LLC CLEAN_EVICTION NON_SPEC    ACCESS:    3528876  HIT:    2743709  MISS:     785167  HIT %:    77.7502  MISS %:    22.2498   MPKI: 3.92584
LLC COMMIT LOAD NON_SPEC    ACCESS:      23490  HIT:      13729  MISS:       9761  HIT %:    58.4461  MISS %:    41.5539   MPKI: 0.048805
LLC LOAD TRANSLATION NON_SPEC    ACCESS:      26760  HIT:       1002  MISS:      25758  HIT %:    3.74439  MISS %:    96.2556   MPKI: 0.12879
LLC TRANSLATION FROM L1D PREFETCHER NON_SPEC    ACCESS:       7708  HIT:        205  MISS:       7503  HIT %:    2.65957  MISS %:    97.3404   MPKI: 0.037515
LLC PREFETCH  REQUESTED:          0  ISSUED:          0  USEFUL:     146887  USELESS:    3594654
LLC USEFUL LOAD PREFETCHES:     146887 PREFETCH ISSUED TO LOWER LEVEL:    3738446  ACCURACY: 3.92909
LLC TIMELY PREFETCHES:     146887 LATE PREFETCHES: 0 DROPPED PREFETCHES: 0
LLC COMMIT LATE PREFETCHES: 0 NORMAL LATE: 0 MISSED OPPORTUNITY: 0 UNCOVERED: 1189602
LLC PREFETCHES SAME FILL-ORIGIN LEVEL: 0 DIFFERENT FILL-ORIGIN LEVEL: 0
LLC AVERAGE MISS LATENCY: 167.596 cycles
LLC AVERAGE MISS LATENCY LOAD: 172.089 cycles
LLC AVERAGE MISS LATENCY PREFETCH: 197.984 cycles
LLC AVERAGE MSHR OCCUPANCY: 1.90263
LLC MSHR FULL: 0
LLC RQ	ACCESS:    2550778	FORWARD:          0	MERGED:          0	TO_CACHE:    2550765
LLC WQ	ACCESS:    3999630	FORWARD:         15	MERGED:          0	TO_CACHE:    3999630
LLC PQ	ACCESS:    4022695	FORWARD:          0	MERGED:          0	TO_CACHE:    4022693

LLC Dense regions hint to LLC: 0

RAW hits: 212252
Loads Generated: 47703547
Loads sent to L1D: 47491296
Stores Generated: 7636817
Stores sent to L1D: 7636820
Major fault: 0 Minor fault: 29015
Allocated PAGES: 29015
Total Load insts: 60249410
Total Non-spec loads: 13210029
Percentage of speculative loads: 78.0744

LeapFrogging counter: 424189
Commit hits: 21441090 miss: 13104503
Commit hit %: 62.0661 miss %: 37.9339
Commits not translated: 0
Loads retired: 4028833
Stores retired: 7636820
Cache fills: 4028833
L1D response latency: 84.0058 cycles
Load retirement latency: 144.774 cycles
OOO test counter: 0
Discarded buffer inserts: 21441090 hits: 26066 hit %: 0.12157
Filter prediction accuracy: -nan
LATENCY_FILL: 83.5849 4023751

DRAM Statistics
 CHANNEL 0
 RQ ROW_BUFFER_HIT:    1258690  ROW_BUFFER_MISS:    3967018
 DBUS_CONGESTED:       9472
 WQ ROW_BUFFER_HIT:    1256628  ROW_BUFFER_MISS:    2022660  FULL:      12586

 AVG_CONGESTED_CYCLE: 4
 All warmup complete: 2
Channel 0 Bank busy for read cycles: 0
Channel 0 Bank busy for write cycles: 0
Channel 0
Rank 0
0banks busy for read cycles: 86830941
0banks busy for write cycles: 242060
1banks busy for read cycles: 171123938
1banks busy for write cycles: 32475381
2banks busy for read cycles: 91129661
2banks busy for write cycles: 23234823
3banks busy for read cycles: 35797983
3banks busy for write cycles: 16071585
4banks busy for read cycles: 16012759
4banks busy for write cycles: 11622583
5banks busy for read cycles: 8602019
5banks busy for write cycles: 9249605
6banks busy for read cycles: 5240908
6banks busy for write cycles: 8518944
7banks busy for read cycles: 3896656
7banks busy for write cycles: 12658060
8banks busy for read cycles: 4677402
8banks busy for write cycles: 47506661

CPU 0 Branch Prediction Accuracy: 88.7511% MPKI: 23.6813 Average ROB Occupancy at Mispredict: 9.71155
Branch types
NOT_BRANCH: 157895415 78.9477%
BRANCH_DIRECT_JUMP: 22041 0.0110205%
BRANCH_INDIRECT: 3 1.5e-06%
BRANCH_CONDITIONAL: 42081441 21.0407%
BRANCH_DIRECT_CALL: 361 0.0001805%
BRANCH_INDIRECT_CALL: 9 4.5e-06%
BRANCH_RETURN: 370 0.000185%
BRANCH_OTHER: 0 0%

DRAM PAGES: 1048576
Allocated PAGES: 29015
