
*** ChampSim Multicore Out-of-Order Simulator ***

Warmup Instructions: 50000000
Simulation Instructions: 200000000
Number of CPUs: 1
LLC sets: 2048
LLC ways: 16
L0D sets: 16
L0D ways: 2
ROB size: 352
LQ size: 128
SQ size: 72
Secure Berti: OFF
Berti: OFF
Berti Fill: OFF
On commit prefetching: OFF
Hit-based filter: OFF
Time-guarding: ON
Free-slotting: ON
Leap-frogging: ON
Train prefetcher on L0D bypass: OFF
No translation penalty for prefetchers: OFF
Prefetch to L0D only: OFF
Prefetch to L1D only: OFF
Clean evictions: ON
Commit loads: ON
Commit write: ON
Fill commit loads to L2C, LLC: ON
DRAM IO FREQUENCY: 6400
ROB SIZE: 352
Off-chip DRAM Size: 4096 MB Channels: 1 Width: 64-bit Data Rate: 6400 MT/s
CPU 0 runs /home/sumon/secure_berti/GhostMinion/../../traces/gap/pr-3.trace.gz
.gz
BTB has LRU replacement policy
ITLB has LRU replacement policy
DTLB has LRU replacement policy
STLB has LRU replacement policy
L1I has LRU replacement policy
L0D has LRU replacement policy
History Sets: 8
History Ways: 16
BERTI Size: 16
BERTI Stride Size: 16
L1D has LRU replacement policy
L2C has LRU replacement policy
LLC has LRU replacement policy
Heartbeat CPU 0 instructions: 10000002 cycles: 3333772 heartbeat IPC: 2.99961 cumulative IPC: 2.99961 (Simulation time: 0 hr 0 min 31 sec) 
Heartbeat CPU 0 instructions: 20000002 cycles: 17924978 heartbeat IPC: 0.685344 cumulative IPC: 1.11576 (Simulation time: 0 hr 1 min 29 sec) 
Heartbeat CPU 0 instructions: 30000001 cycles: 34445582 heartbeat IPC: 0.605305 cumulative IPC: 0.870939 (Simulation time: 0 hr 2 min 30 sec) 
Heartbeat CPU 0 instructions: 40000000 cycles: 51047275 heartbeat IPC: 0.602348 cumulative IPC: 0.783587 (Simulation time: 0 hr 3 min 31 sec) 
Heartbeat CPU 0 instructions: 50000000 cycles: 67681860 heartbeat IPC: 0.601157 cumulative IPC: 0.73875 (Simulation time: 0 hr 4 min 29 sec) 

Warmup complete CPU 0 instructions: 50000001 cycles: 67681861 (Simulation time: 0 hr 4 min 29 sec) 

Heartbeat CPU 0 instructions: 60000003 cycles: 253874339 heartbeat IPC: 0.0537079 cumulative IPC: 0.0537079 (Simulation time: 0 hr 6 min 47 sec) 
Heartbeat CPU 0 instructions: 70000001 cycles: 443117408 heartbeat IPC: 0.0528421 cumulative IPC: 0.0532715 (Simulation time: 0 hr 8 min 57 sec) 
Heartbeat CPU 0 instructions: 80000003 cycles: 633205185 heartbeat IPC: 0.0526073 cumulative IPC: 0.0530482 (Simulation time: 0 hr 11 min 3 sec) 
Heartbeat CPU 0 instructions: 90000000 cycles: 823073463 heartbeat IPC: 0.0526681 cumulative IPC: 0.0529527 (Simulation time: 0 hr 13 min 2 sec) 
Heartbeat CPU 0 instructions: 100000002 cycles: 1013802457 heartbeat IPC: 0.0524304 cumulative IPC: 0.0528474 (Simulation time: 0 hr 15 min 5 sec) 
Heartbeat CPU 0 instructions: 110000000 cycles: 1203342039 heartbeat IPC: 0.0527594 cumulative IPC: 0.0528327 (Simulation time: 0 hr 17 min 4 sec) 
Heartbeat CPU 0 instructions: 120000001 cycles: 1393520463 heartbeat IPC: 0.0525822 cumulative IPC: 0.0527968 (Simulation time: 0 hr 19 min 3 sec) 
Heartbeat CPU 0 instructions: 130000001 cycles: 1583314964 heartbeat IPC: 0.0526886 cumulative IPC: 0.0527832 (Simulation time: 0 hr 21 min 0 sec) 
Heartbeat CPU 0 instructions: 140000002 cycles: 1773451055 heartbeat IPC: 0.0525939 cumulative IPC: 0.0527621 (Simulation time: 0 hr 22 min 51 sec) 
Heartbeat CPU 0 instructions: 150000000 cycles: 1963547322 heartbeat IPC: 0.0526049 cumulative IPC: 0.0527464 (Simulation time: 0 hr 24 min 43 sec) 
Heartbeat CPU 0 instructions: 160000002 cycles: 2152966332 heartbeat IPC: 0.052793 cumulative IPC: 0.0527506 (Simulation time: 0 hr 26 min 33 sec) 
Heartbeat CPU 0 instructions: 170000003 cycles: 2342970490 heartbeat IPC: 0.0526304 cumulative IPC: 0.0527406 (Simulation time: 0 hr 28 min 23 sec) 
Heartbeat CPU 0 instructions: 180000002 cycles: 2533473799 heartbeat IPC: 0.0524925 cumulative IPC: 0.0527214 (Simulation time: 0 hr 30 min 13 sec) 
Heartbeat CPU 0 instructions: 190000000 cycles: 2671697783 heartbeat IPC: 0.0723463 cumulative IPC: 0.0537631 (Simulation time: 0 hr 31 min 41 sec) 
Heartbeat CPU 0 instructions: 200000001 cycles: 2713852312 heartbeat IPC: 0.237222 cumulative IPC: 0.0566857 (Simulation time: 0 hr 32 min 27 sec) 
Heartbeat CPU 0 instructions: 210000003 cycles: 2903170729 heartbeat IPC: 0.0528211 cumulative IPC: 0.0564277 (Simulation time: 0 hr 34 min 17 sec) 
Heartbeat CPU 0 instructions: 220000000 cycles: 3091237835 heartbeat IPC: 0.0531725 cumulative IPC: 0.0562252 (Simulation time: 0 hr 36 min 7 sec) 
Heartbeat CPU 0 instructions: 230000000 cycles: 3281246769 heartbeat IPC: 0.0526291 cumulative IPC: 0.0560126 (Simulation time: 0 hr 37 min 56 sec) 
Heartbeat CPU 0 instructions: 240000003 cycles: 3472802492 heartbeat IPC: 0.0522041 cumulative IPC: 0.0557983 (Simulation time: 0 hr 39 min 47 sec) 
Heartbeat CPU 0 instructions: 250000001 cycles: 3658635166 heartbeat IPC: 0.0538118 cumulative IPC: 0.0556955 (Simulation time: 0 hr 41 min 38 sec) 
Finished CPU 0 instructions: 200000000 cycles: 3590953305 cumulative IPC: 0.0556955 (Simulation time: 0 hr 41 min 38 sec) 
 Instruction ID: 250000383

ChampSim completed all CPUs

Region of Interest Statistics

CPU 0 cumulative IPC: 0.0556955 instructions: 200000000 cycles: 3590953305
ITLB SPEC fills:          0  NON-SPEC fills:          0
ITLB Test counter :          0
ITLB Leapfrog:          0
ITLB MSHR merge:          0
ITLB TOTAL     ACCESS:   58819122  HIT:   58819122  MISS:          0  HIT %:        100  MISS %:          0   MPKI: 0
ITLB LOAD TRANSLATION NON_SPEC    ACCESS:   58819122  HIT:   58819122  MISS:          0  HIT %:        100  MISS %:          0   MPKI: 0
ITLB PREFETCH  REQUESTED:          0  ISSUED:          0  USEFUL:          0  USELESS:          0
ITLB USEFUL LOAD PREFETCHES:          0 PREFETCH ISSUED TO LOWER LEVEL:          0  ACCURACY: -nan
ITLB TIMELY PREFETCHES:          0 LATE PREFETCHES: 0 DROPPED PREFETCHES: 0
ITLB COMMIT LATE PREFETCHES: 0 NORMAL LATE: 0 MISSED OPPORTUNITY: 0 UNCOVERED: 0
ITLB PREFETCHES SAME FILL-ORIGIN LEVEL: 0 DIFFERENT FILL-ORIGIN LEVEL: 0
ITLB AVERAGE MISS LATENCY: -nan cycles
ITLB AVERAGE MISS LATENCY LOAD: -nan cycles
ITLB AVERAGE MISS LATENCY PREFETCH: -nan cycles
ITLB AVERAGE MSHR OCCUPANCY: 0
ITLB MSHR FULL: 0
ITLB RQ	ACCESS:   59944443	FORWARD:          0	MERGED:    1125322	TO_CACHE:   58819121

DTLB SPEC fills:          0  NON-SPEC fills:          0
DTLB Test counter :          0
DTLB Leapfrog:          0
DTLB MSHR merge:          0
DTLB TOTAL     ACCESS:   71589264  HIT:   48703653  MISS:   22885611  HIT %:    68.0321  MISS %:    31.9679   MPKI: 114.428
DTLB LOAD TRANSLATION NON_SPEC    ACCESS:   71589264  HIT:   48703653  MISS:   22885611  HIT %:    68.0321  MISS %:    31.9679   MPKI: 114.428
DTLB PREFETCH  REQUESTED:          0  ISSUED:          0  USEFUL:          0  USELESS:          0
DTLB USEFUL LOAD PREFETCHES:          0 PREFETCH ISSUED TO LOWER LEVEL:          0  ACCURACY: -nan
DTLB TIMELY PREFETCHES:          0 LATE PREFETCHES: 0 DROPPED PREFETCHES: 0
DTLB COMMIT LATE PREFETCHES: 0 NORMAL LATE: 0 MISSED OPPORTUNITY: 0 UNCOVERED: 0
DTLB PREFETCHES SAME FILL-ORIGIN LEVEL: 0 DIFFERENT FILL-ORIGIN LEVEL: 0
DTLB AVERAGE MISS LATENCY: 9.19514 cycles
DTLB AVERAGE MISS LATENCY LOAD: -nan cycles
DTLB AVERAGE MISS LATENCY PREFETCH: -nan cycles
DTLB AVERAGE MSHR OCCUPANCY: 0.19433
DTLB MSHR FULL: 0
DTLB RQ	ACCESS:   72429910	FORWARD:          0	MERGED:     830567	TO_CACHE:   71599343

STLB SPEC fills:          0  NON-SPEC fills:          0
STLB Test counter :          0
STLB Leapfrog:          0
STLB MSHR merge:          0
STLB TOTAL     ACCESS:   30131717  HIT:   30090851  MISS:      40866  HIT %:    99.8644  MISS %:   0.135625   MPKI: 0.20433
STLB LOAD TRANSLATION NON_SPEC    ACCESS:   22885611  HIT:   22860101  MISS:      25510  HIT %:    99.8885  MISS %:   0.111467   MPKI: 0.12755
STLB TRANSLATION FROM L1D PREFETCHER NON_SPEC    ACCESS:    7246106  HIT:    7230750  MISS:      15356  HIT %:    99.7881  MISS %:   0.211921   MPKI: 0.07678
STLB PREFETCH  REQUESTED:          0  ISSUED:          0  USEFUL:      15356  USELESS:          0
STLB USEFUL LOAD PREFETCHES:      15356 PREFETCH ISSUED TO LOWER LEVEL:          0  ACCURACY: inf
STLB TIMELY PREFETCHES:      15356 LATE PREFETCHES: 5846 DROPPED PREFETCHES: 324675
STLB COMMIT LATE PREFETCHES: 0 NORMAL LATE: 5846 MISSED OPPORTUNITY: 0 UNCOVERED: 18446744073709545770
STLB PREFETCHES SAME FILL-ORIGIN LEVEL: 0 DIFFERENT FILL-ORIGIN LEVEL: 0
STLB AVERAGE MISS LATENCY: 145.229 cycles
STLB AVERAGE MISS LATENCY LOAD: -nan cycles
STLB AVERAGE MISS LATENCY PREFETCH: -nan cycles
STLB AVERAGE MSHR OCCUPANCY: 0.0151936
STLB MSHR FULL: 0
STLB RQ	ACCESS:   63296280	FORWARD:          0	MERGED:   32742061	TO_CACHE:   30554219

STLB Hit, L1D data hit: 0
STLB Hit, L2C data hit: 0
STLB Hit, LLC data hit: 0
STLB Hit, LLC data miss: 0
STLB STLB hints to L2: 0
L0D SPEC fills:    5868259  NON-SPEC fills:          0
L0D TimeGuard Request with older TS:      70136 Restricted eviction:      12578 read:          7
L0D Test counter :          0
L0D Leapfrog:          0
L0D MSHR merge:    1107259
L0D TOTAL     ACCESS:   68022050  HIT:   24469325  MISS:   43552725  HIT %:    35.9726  MISS %:    64.0274   MPKI: 217.764
L0D LOAD      TOTAL       ACCESS:   68022050  HIT:   24469325  MISS:   43552725  HIT %:    35.9726  MISS %:    64.0274   MPKI: 217.764
L0D LOAD      NON_SPEC    ACCESS:   37671893  HIT:          5  MISS:   37671888  HIT %: 1.32725e-05  MISS %:        100   MPKI: 188.359
L0D LOAD      SPEC        ACCESS:   30350157  HIT:   24469320  MISS:    5880837  HIT %:    80.6234  MISS %:    19.3766   MPKI: 29.4042
L0D PREFETCH  REQUESTED:          0  ISSUED:          0  USEFUL:          0  USELESS:          0
L0D USEFUL LOAD PREFETCHES:          0 PREFETCH ISSUED TO LOWER LEVEL:          0  ACCURACY: -nan
L0D TIMELY PREFETCHES:          0 LATE PREFETCHES: 0 DROPPED PREFETCHES: 0
L0D COMMIT LATE PREFETCHES: 0 NORMAL LATE: 0 MISSED OPPORTUNITY: 0 UNCOVERED: 43552725
L0D PREFETCHES SAME FILL-ORIGIN LEVEL: 0 DIFFERENT FILL-ORIGIN LEVEL: 0
L0D AVERAGE MISS LATENCY: 70.3515 cycles
L0D AVERAGE MISS LATENCY LOAD: 70.3515 cycles
L0D AVERAGE MISS LATENCY PREFETCH: -nan cycles
L0D AVERAGE MSHR OCCUPANCY: 0.220192
L0D MSHR FULL: 0
L0D RQ	ACCESS:   77353315	FORWARD:          0	MERGED:    8224008	TO_CACHE:   69129307
L0D WQ	ACCESS:    3300603	FORWARD:          0	MERGED:          0	TO_CACHE:    3300603

L1D SPEC fills:          0  NON-SPEC fills:   31892495
L1D Test counter :          0
L1D Leapfrog:          0
L1D MSHR merge:      24372
L1D TOTAL     ACCESS:  112881513  HIT:   78161709  MISS:   34719804  HIT %:    69.2423  MISS %:    30.7577   MPKI: 173.599
L1D LOAD      TOTAL       ACCESS:   43552716  HIT:   11576428  MISS:   31976288  HIT %:    26.5803  MISS %:    73.4197   MPKI: 159.881
L1D LOAD      NON_SPEC    ACCESS:   37671885  HIT:    5779390  MISS:   31892495  HIT %:    15.3414  MISS %:    84.6586   MPKI: 159.462
L1D LOAD      SPEC        ACCESS:    5880831  HIT:    5797038  MISS:      83793  HIT %:    98.5752  MISS %:    1.42485   MPKI: 0.418965
L1D RFO       NON_SPEC    ACCESS:    2518528  HIT:    2452969  MISS:      65559  HIT %:    97.3969  MISS %:    2.60307   MPKI: 0.327795
L1D PREFETCH  NON_SPEC    ACCESS:   27802322  HIT:   25208717  MISS:    2593605  HIT %:    90.6713  MISS %:    9.32874   MPKI: 12.968
L1D COMMIT LOAD NON_SPEC    ACCESS:   33139718  HIT:   33139659  MISS:         59  HIT %:    99.9998  MISS %: 0.000178034   MPKI: 0.000295
L1D COMMIT WRITE NON_SPEC    ACCESS:    5868229  HIT:    5783936  MISS:      84293  HIT %:    98.5636  MISS %:    1.43643   MPKI: 0.421465
L1D PREFETCH  REQUESTED:   46637298  ISSUED:   45163478  USEFUL:    2498119  USELESS:      95502
L1D USEFUL LOAD PREFETCHES:    2498119 PREFETCH ISSUED TO LOWER LEVEL:   13149988  ACCURACY: 18.9971
L1D TIMELY PREFETCHES:    2498119 LATE PREFETCHES: 24363 DROPPED PREFETCHES: 1083274
L1D COMMIT LATE PREFETCHES: 0 NORMAL LATE: 24363 MISSED OPPORTUNITY: 0 UNCOVERED: 31951925
L1D PREFETCHES SAME FILL-ORIGIN LEVEL: 2617968 DIFFERENT FILL-ORIGIN LEVEL: 10532020
L1D AVERAGE MISS LATENCY: 92.6678 cycles
L1D AVERAGE MISS LATENCY LOAD: 89.0023 cycles
L1D AVERAGE MISS LATENCY PREFETCH: 137.13 cycles
L1D AVERAGE MSHR OCCUPANCY: 0.266815
L1D MSHR FULL: 1.30391e-08
L1D RQ	ACCESS:   77312064	FORWARD:          0	MERGED:     607991	TO_CACHE:   76692443
L1D WQ	ACCESS:    9168832	FORWARD:      11630	MERGED:       1208	TO_CACHE:    9167624
L1D PQ	ACCESS:   45163478	FORWARD:          0	MERGED:    4752809	TO_CACHE:   40410669

L1D UNIQUE REGIONS ACCESSED: 0
L1D REGIONS CONFLICTS: 0
L1D Cross Page Prefetch Requests: 5629830
L1D Same Page Prefetch Requests: 50967075
L1D ROI Sum of L1D PQ occupancy: 702614604
L1D PREFETCHES PUSHED FROM L2C: 0
L1I SPEC fills:          0  NON-SPEC fills:          0
L1I Test counter :          0
L1I Leapfrog:          0
L1I MSHR merge:          1
L1I TOTAL     ACCESS:   59944443  HIT:   59944420  MISS:         23  HIT %:        100  MISS %: 3.83689e-05   MPKI: 0.000115
L1I LOAD      TOTAL       ACCESS:   59944443  HIT:   59944420  MISS:         23  HIT %:        100  MISS %: 3.83689e-05   MPKI: 0.000115
L1I LOAD      NON_SPEC    ACCESS:   59944443  HIT:   59944420  MISS:         23  HIT %:        100  MISS %: 3.83689e-05   MPKI: 0.000115
L1I PREFETCH  REQUESTED:          0  ISSUED:          0  USEFUL:          0  USELESS:          0
L1I USEFUL LOAD PREFETCHES:          0 PREFETCH ISSUED TO LOWER LEVEL:          0  ACCURACY: -nan
L1I TIMELY PREFETCHES:          0 LATE PREFETCHES: 0 DROPPED PREFETCHES: 0
L1I COMMIT LATE PREFETCHES: 0 NORMAL LATE: 0 MISSED OPPORTUNITY: 0 UNCOVERED: 23
L1I PREFETCHES SAME FILL-ORIGIN LEVEL: 0 DIFFERENT FILL-ORIGIN LEVEL: 0
L1I AVERAGE MISS LATENCY: 192.478 cycles
L1I AVERAGE MISS LATENCY LOAD: 192.478 cycles
L1I AVERAGE MISS LATENCY PREFETCH: -nan cycles
L1I AVERAGE MSHR OCCUPANCY: 1.50139e-07
L1I MSHR FULL: 0
L1I RQ	ACCESS:   71047611	FORWARD:          0	MERGED:   11103168	TO_CACHE:   59944443

BTB SPEC fills:          0  NON-SPEC fills:          0
BTB Test counter :          0
BTB Leapfrog:          0
BTB MSHR merge:          0
BTB TOTAL     ACCESS:   37026577  HIT:   37026405  MISS:        172  HIT %:    99.9995  MISS %: 0.000464531   MPKI: 0.00086
BTB BRANCH_DIRECT_JUMP	ACCESS:         66  HIT:         33  MISS:         33
BTB BRANCH_INDIRECT	ACCESS:          4  HIT:          0  MISS:          4
BTB BRANCH_CONDITIONAL	ACCESS:   37026441  HIT:   37026352  MISS:         89
BTB BRANCH_DIRECT_CALL	ACCESS:         28  HIT:         10  MISS:         18
BTB BRANCH_INDIRECT_CALL	ACCESS:          5  HIT:          1  MISS:          4
BTB BRANCH_RETURN	ACCESS:         33  HIT:          9  MISS:         24
BTB BRANCH_OTHER ACCESS:          0  HIT:          0  MISS:          0

L2C SPEC fills:          0  NON-SPEC fills:   22659862
L2C Test counter :          0
L2C Leapfrog:          0
L2C MSHR merge:      89756
L2C TOTAL     ACCESS:   48411026  HIT:   20350002  MISS:   28061024  HIT %:    42.0359  MISS %:    57.9641   MPKI: 140.305
L2C LOAD      TOTAL       ACCESS:   31951946  HIT:    9275738  MISS:   22676208  HIT %:    29.0303  MISS %:    70.9697   MPKI: 113.381
L2C LOAD      NON_SPEC    ACCESS:   31881019  HIT:    9221134  MISS:   22659885  HIT %:    28.9236  MISS %:    71.0764   MPKI: 113.299
L2C LOAD      SPEC        ACCESS:      70927  HIT:      54604  MISS:      16323  HIT %:    76.9862  MISS %:    23.0138   MPKI: 0.081615
L2C RFO       NON_SPEC    ACCESS:      65559  HIT:        130  MISS:      65429  HIT %:   0.198295  MISS %:    99.8017   MPKI: 0.327145
L2C PREFETCH  NON_SPEC    ACCESS:   11931766  HIT:    6648414  MISS:    5283352  HIT %:    55.7203  MISS %:    44.2797   MPKI: 26.4168
L2C WRITEBACK NON_SPEC    ACCESS:      73035  HIT:      72605  MISS:        430  HIT %:    99.4112  MISS %:   0.588759   MPKI: 0.00215
L2C CLEAN_EVICTION NON_SPEC    ACCESS:    2532448  HIT:    2509941  MISS:      22507  HIT %:    99.1113  MISS %:   0.888745   MPKI: 0.112535
L2C COMMIT LOAD NON_SPEC    ACCESS:         59  HIT:         58  MISS:          1  HIT %:    98.3051  MISS %:    1.69492   MPKI: 5e-06
L2C LOAD TRANSLATION NON_SPEC    ACCESS:     127503  HIT:     127253  MISS:        250  HIT %:    99.8039  MISS %:   0.196074   MPKI: 0.00125
L2C TRANSLATION FROM L1D PREFETCHER NON_SPEC    ACCESS:    1728710  HIT:    1715863  MISS:      12847  HIT %:    99.2568  MISS %:   0.743155   MPKI: 0.064235
L2C PREFETCH  REQUESTED:          0  ISSUED:          0  USEFUL:     619731  USELESS:    4676640
L2C USEFUL LOAD PREFETCHES:     619731 PREFETCH ISSUED TO LOWER LEVEL:    5373108  ACCURACY: 11.5339
L2C TIMELY PREFETCHES:     619731 LATE PREFETCHES: 89756 DROPPED PREFETCHES: 0
L2C COMMIT LATE PREFETCHES: 0 NORMAL LATE: 89756 MISSED OPPORTUNITY: 0 UNCOVERED: 22586452
L2C PREFETCHES SAME FILL-ORIGIN LEVEL: 3878275 DIFFERENT FILL-ORIGIN LEVEL: 0
L2C AVERAGE MISS LATENCY: 116.874 cycles
L2C AVERAGE MISS LATENCY LOAD: 104.247 cycles
L2C AVERAGE MISS LATENCY PREFETCH: 170.22 cycles
L2C AVERAGE MSHR OCCUPANCY: 0.289079
L2C MSHR FULL: 0
L2C RQ	ACCESS:   33873779	FORWARD:          0	MERGED:          0	TO_CACHE:   33873777
L2C WQ	ACCESS:    2605483	FORWARD:          2	MERGED:          0	TO_CACHE:    2605483
L2C PQ	ACCESS:   13149988	FORWARD:          0	MERGED:         52	TO_CACHE:   13149936

L2C Instructions Evicting Data 23
L2C Translations Evicting Data 13095
L2C Data Evicting Data 27995542
L2C Instructions Evicting Instructions 0
L2C Translations Evicting Instructions 0
L2C Data Evicting Instructions 23
L2C Instructions Evicting Translations 0
L2C Translations Evicting Translations 2
L2C Data Evicting Translations 13079
L2C Dense regions hint from L2: 0
PSCL5 SPEC fills:          0  NON-SPEC fills:          0
PSCL5 Test counter :          0
PSCL5 Leapfrog:          0
PSCL5 MSHR merge:          0
PSCL5 TOTAL     ACCESS:          0  HIT:          0  MISS:          0  HIT %:       -nan  MISS %:       -nan   MPKI: 0
PSCL5 PREFETCH  REQUESTED:          0  ISSUED:          0  USEFUL:          0  USELESS:          0
PSCL5 USEFUL LOAD PREFETCHES:          0 PREFETCH ISSUED TO LOWER LEVEL:          0  ACCURACY: -nan
PSCL5 TIMELY PREFETCHES:          0 LATE PREFETCHES: 0 DROPPED PREFETCHES: 0
PSCL5 COMMIT LATE PREFETCHES: 0 NORMAL LATE: 0 MISSED OPPORTUNITY: 0 UNCOVERED: 0
PSCL5 PREFETCHES SAME FILL-ORIGIN LEVEL: 0 DIFFERENT FILL-ORIGIN LEVEL: 0

PSCL4 SPEC fills:          0  NON-SPEC fills:          0
PSCL4 Test counter :          0
PSCL4 Leapfrog:          0
PSCL4 MSHR merge:          0
PSCL4 TOTAL     ACCESS:          0  HIT:          0  MISS:          0  HIT %:       -nan  MISS %:       -nan   MPKI: 0
PSCL4 PREFETCH  REQUESTED:          0  ISSUED:          0  USEFUL:          0  USELESS:          0
PSCL4 USEFUL LOAD PREFETCHES:          0 PREFETCH ISSUED TO LOWER LEVEL:          0  ACCURACY: -nan
PSCL4 TIMELY PREFETCHES:          0 LATE PREFETCHES: 0 DROPPED PREFETCHES: 0
PSCL4 COMMIT LATE PREFETCHES: 0 NORMAL LATE: 0 MISSED OPPORTUNITY: 0 UNCOVERED: 0
PSCL4 PREFETCHES SAME FILL-ORIGIN LEVEL: 0 DIFFERENT FILL-ORIGIN LEVEL: 0

PSCL3 SPEC fills:          0  NON-SPEC fills:          0
PSCL3 Test counter :          0
PSCL3 Leapfrog:          0
PSCL3 MSHR merge:          0
PSCL3 TOTAL     ACCESS:          0  HIT:          0  MISS:          0  HIT %:       -nan  MISS %:       -nan   MPKI: 0
PSCL3 PREFETCH  REQUESTED:          0  ISSUED:          0  USEFUL:          0  USELESS:          0
PSCL3 USEFUL LOAD PREFETCHES:          0 PREFETCH ISSUED TO LOWER LEVEL:          0  ACCURACY: -nan
PSCL3 TIMELY PREFETCHES:          0 LATE PREFETCHES: 0 DROPPED PREFETCHES: 0
PSCL3 COMMIT LATE PREFETCHES: 0 NORMAL LATE: 0 MISSED OPPORTUNITY: 0 UNCOVERED: 0
PSCL3 PREFETCHES SAME FILL-ORIGIN LEVEL: 0 DIFFERENT FILL-ORIGIN LEVEL: 0

PSCL2 SPEC fills:          0  NON-SPEC fills:          0
PSCL2 Test counter :          0
PSCL2 Leapfrog:          0
PSCL2 MSHR merge:          0
PSCL2 TOTAL     ACCESS:          0  HIT:          0  MISS:          0  HIT %:       -nan  MISS %:       -nan   MPKI: 0
PSCL2 PREFETCH  REQUESTED:          0  ISSUED:          0  USEFUL:          0  USELESS:          0
PSCL2 USEFUL LOAD PREFETCHES:          0 PREFETCH ISSUED TO LOWER LEVEL:          0  ACCURACY: -nan
PSCL2 TIMELY PREFETCHES:          0 LATE PREFETCHES: 0 DROPPED PREFETCHES: 0
PSCL2 COMMIT LATE PREFETCHES: 0 NORMAL LATE: 0 MISSED OPPORTUNITY: 0 UNCOVERED: 0
PSCL2 PREFETCHES SAME FILL-ORIGIN LEVEL: 0 DIFFERENT FILL-ORIGIN LEVEL: 0

LLC SPEC fills:          0  NON-SPEC fills:   10428162
LLC Test counter :          0
LLC Leapfrog:          0
LLC MSHR merge:          0
LLC TOTAL     ACCESS:   30622377  HIT:   15371889  MISS:   15250488  HIT %:    50.1982  MISS %:    49.8018   MPKI: 76.2524
LLC LOAD      TOTAL       ACCESS:   22586452  HIT:   12142697  MISS:   10443755  HIT %:     53.761  MISS %:     46.239   MPKI: 52.2188
LLC LOAD      NON_SPEC    ACCESS:   22570129  HIT:   12141944  MISS:   10428185  HIT %:    53.7965  MISS %:    46.2035   MPKI: 52.1409
LLC LOAD      SPEC        ACCESS:      16323  HIT:        753  MISS:      15570  HIT %:    4.61312  MISS %:    95.3869   MPKI: 0.07785
LLC RFO       NON_SPEC    ACCESS:      65429  HIT:       1401  MISS:      64028  HIT %:    2.14125  MISS %:    97.8587   MPKI: 0.32014
LLC PREFETCH  NON_SPEC    ACCESS:    5373108  HIT:     652983  MISS:    4720125  HIT %:    12.1528  MISS %:    87.8472   MPKI: 23.6006
LLC WRITEBACK NON_SPEC    ACCESS:      66732  HIT:      66453  MISS:        279  HIT %:    99.5819  MISS %:    0.41809   MPKI: 0.001395
LLC CLEAN_EVICTION NON_SPEC    ACCESS:    2517558  HIT:    2501488  MISS:      16070  HIT %:    99.3617  MISS %:   0.638317   MPKI: 0.08035
LLC COMMIT LOAD NON_SPEC    ACCESS:          1  HIT:          1  MISS:          0  HIT %:        100  MISS %:          0   MPKI: 0
LLC LOAD TRANSLATION NON_SPEC    ACCESS:        250  HIT:          2  MISS:        248  HIT %:        0.8  MISS %:       99.2   MPKI: 0.00124
LLC TRANSLATION FROM L1D PREFETCHER NON_SPEC    ACCESS:      12847  HIT:       6864  MISS:       5983  HIT %:    53.4288  MISS %:    46.5712   MPKI: 0.029915
LLC PREFETCH  REQUESTED:          0  ISSUED:          0  USEFUL:     353619  USELESS:    4374757
LLC USEFUL LOAD PREFETCHES:     353619 PREFETCH ISSUED TO LOWER LEVEL:    4720125  ACCURACY: 7.49173
LLC TIMELY PREFETCHES:     353619 LATE PREFETCHES: 0 DROPPED PREFETCHES: 0
LLC COMMIT LATE PREFETCHES: 0 NORMAL LATE: 0 MISSED OPPORTUNITY: 0 UNCOVERED: 10443755
LLC PREFETCHES SAME FILL-ORIGIN LEVEL: 0 DIFFERENT FILL-ORIGIN LEVEL: 0
LLC AVERAGE MISS LATENCY: 160.392 cycles
LLC AVERAGE MISS LATENCY LOAD: 160.603 cycles
LLC AVERAGE MISS LATENCY PREFETCH: 159.905 cycles
LLC AVERAGE MSHR OCCUPANCY: 0.168856
LLC MSHR FULL: 0
LLC RQ	ACCESS:   22664979	FORWARD:          0	MERGED:          0	TO_CACHE:   22664979
LLC WQ	ACCESS:    2584290	FORWARD:          0	MERGED:          0	TO_CACHE:    2584290
LLC PQ	ACCESS:    5373108	FORWARD:          0	MERGED:          0	TO_CACHE:    5373108

LLC Dense regions hint to LLC: 0

RAW hits: 20
Loads Generated: 77353336
Loads sent to L1D: 77353315
Stores Generated: 3300603
Stores sent to L1D: 3300603
Major fault: 0 Minor fault: 34900
Allocated PAGES: 34900
Total Load insts: 95642811
Total Non-spec loads: 45006396
Percentage of speculative loads: 52.9433

LeapFrogging counter: 0
Commit hits: 5868229 miss: 33759340
Commit hit %: 14.8085 miss %: 85.1915
Commits not translated: 0
Loads retired: 31976288
Stores retired: 3300603
Cache fills: 31976288
L1D response latency: 89.0023 cycles
Load retirement latency: 107.342 cycles
OOO test counter: 0
Discarded buffer inserts: 5868229 hits: 15652 hit %: 0.266724
Filter prediction accuracy: -nan
LATENCY_FILL: 88.8894 31933003

DRAM Statistics
 CHANNEL 0
 RQ ROW_BUFFER_HIT:    2626232  ROW_BUFFER_MISS:   12607905
 DBUS_CONGESTED:      15622
 WQ ROW_BUFFER_HIT:     853413  ROW_BUFFER_MISS:    1729570  FULL:          0

 AVG_CONGESTED_CYCLE: 2
 All warmup complete: 2
Channel 0 Bank busy for read cycles: 0
Channel 0 Bank busy for write cycles: 0
Channel 0
Rank 0
0banks busy for read cycles: 1524276762
0banks busy for write cycles: 1585061
1banks busy for read cycles: 1456382389
1banks busy for write cycles: 300562693
2banks busy for read cycles: 144931510
2banks busy for write cycles: 55689991
3banks busy for read cycles: 41857757
3banks busy for write cycles: 14255583
4banks busy for read cycles: 12110051
4banks busy for write cycles: 5307836
5banks busy for read cycles: 5910152
5banks busy for write cycles: 2901103
6banks busy for read cycles: 3265100
6banks busy for write cycles: 1938486
7banks busy for read cycles: 2205081
7banks busy for write cycles: 2224087
8banks busy for read cycles: 4933131
8banks busy for write cycles: 10616533

CPU 0 Branch Prediction Accuracy: 96.9582% MPKI: 5.63138 Average ROB Occupancy at Mispredict: 137.637
Branch types
NOT_BRANCH: 162973200 81.4866%
BRANCH_DIRECT_JUMP: 66 3.3e-05%
BRANCH_INDIRECT: 4 2e-06%
BRANCH_CONDITIONAL: 37026665 18.5133%
BRANCH_DIRECT_CALL: 28 1.4e-05%
BRANCH_INDIRECT_CALL: 5 2.5e-06%
BRANCH_RETURN: 33 1.65e-05%
BRANCH_OTHER: 0 0%

DRAM PAGES: 1048576
Allocated PAGES: 34900
