
*** ChampSim Multicore Out-of-Order Simulator ***

Warmup Instructions: 50000000
Simulation Instructions: 200000000
Number of CPUs: 1
LLC sets: 2048
LLC ways: 16
L0D sets: 16
L0D ways: 2
ROB size: 352
LQ size: 128
SQ size: 72
Secure Berti: OFF
Berti: OFF
Berti Fill: OFF
On commit prefetching: OFF
Hit-based filter: OFF
Time-guarding: ON
Free-slotting: ON
Leap-frogging: ON
Train prefetcher on L0D bypass: OFF
No translation penalty for prefetchers: OFF
Prefetch to L0D only: OFF
Prefetch to L1D only: OFF
Clean evictions: ON
Commit loads: ON
Commit write: ON
Fill commit loads to L2C, LLC: ON
DRAM IO FREQUENCY: 6400
ROB SIZE: 352
Off-chip DRAM Size: 4096 MB Channels: 1 Width: 64-bit Data Rate: 6400 MT/s
CPU 0 runs /home/sumon/secure_berti/GhostMinion/../../traces/gap/sssp-10.trace.gz
.gz
BTB has LRU replacement policy
ITLB has LRU replacement policy
DTLB has LRU replacement policy
STLB has LRU replacement policy
L1I has LRU replacement policy
L0D has LRU replacement policy
History Sets: 8
History Ways: 16
BERTI Size: 16
BERTI Stride Size: 16
L1D has LRU replacement policy
L2C has LRU replacement policy
LLC has LRU replacement policy
Heartbeat CPU 0 instructions: 10000000 cycles: 3956717 heartbeat IPC: 2.52735 cumulative IPC: 2.52735 (Simulation time: 0 hr 0 min 34 sec) 
Heartbeat CPU 0 instructions: 20000001 cycles: 7791000 heartbeat IPC: 2.60805 cumulative IPC: 2.56706 (Simulation time: 0 hr 1 min 8 sec) 
Heartbeat CPU 0 instructions: 30000003 cycles: 11581213 heartbeat IPC: 2.63837 cumulative IPC: 2.5904 (Simulation time: 0 hr 1 min 40 sec) 
Heartbeat CPU 0 instructions: 40000002 cycles: 15341631 heartbeat IPC: 2.65928 cumulative IPC: 2.60728 (Simulation time: 0 hr 2 min 13 sec) 
Heartbeat CPU 0 instructions: 50000001 cycles: 19082282 heartbeat IPC: 2.67333 cumulative IPC: 2.62023 (Simulation time: 0 hr 2 min 45 sec) 

Warmup complete CPU 0 instructions: 50000001 cycles: 19082282 (Simulation time: 0 hr 2 min 45 sec) 

Heartbeat CPU 0 instructions: 60000000 cycles: 47190935 heartbeat IPC: 0.355762 cumulative IPC: 0.355762 (Simulation time: 0 hr 3 min 29 sec) 
Heartbeat CPU 0 instructions: 70000000 cycles: 74078962 heartbeat IPC: 0.371913 cumulative IPC: 0.363658 (Simulation time: 0 hr 4 min 13 sec) 
Heartbeat CPU 0 instructions: 80000001 cycles: 100523256 heartbeat IPC: 0.378153 cumulative IPC: 0.368365 (Simulation time: 0 hr 4 min 57 sec) 
Heartbeat CPU 0 instructions: 90000000 cycles: 125828919 heartbeat IPC: 0.395168 cumulative IPC: 0.374719 (Simulation time: 0 hr 5 min 41 sec) 
Heartbeat CPU 0 instructions: 100000000 cycles: 151316485 heartbeat IPC: 0.392348 cumulative IPC: 0.378117 (Simulation time: 0 hr 6 min 25 sec) 
Heartbeat CPU 0 instructions: 110000000 cycles: 176307261 heartbeat IPC: 0.400148 cumulative IPC: 0.381619 (Simulation time: 0 hr 7 min 8 sec) 
Heartbeat CPU 0 instructions: 120000003 cycles: 201498068 heartbeat IPC: 0.39697 cumulative IPC: 0.383739 (Simulation time: 0 hr 7 min 51 sec) 
Heartbeat CPU 0 instructions: 130000002 cycles: 225808474 heartbeat IPC: 0.411346 cumulative IPC: 0.386985 (Simulation time: 0 hr 8 min 34 sec) 
Heartbeat CPU 0 instructions: 140000002 cycles: 250091208 heartbeat IPC: 0.411815 cumulative IPC: 0.389595 (Simulation time: 0 hr 9 min 17 sec) 
Heartbeat CPU 0 instructions: 150000000 cycles: 275006316 heartbeat IPC: 0.401363 cumulative IPC: 0.390741 (Simulation time: 0 hr 10 min 0 sec) 
Heartbeat CPU 0 instructions: 160000001 cycles: 299035870 heartbeat IPC: 0.416154 cumulative IPC: 0.392922 (Simulation time: 0 hr 10 min 43 sec) 
Heartbeat CPU 0 instructions: 170000002 cycles: 323400858 heartbeat IPC: 0.410425 cumulative IPC: 0.394324 (Simulation time: 0 hr 11 min 27 sec) 
Heartbeat CPU 0 instructions: 180000001 cycles: 348320826 heartbeat IPC: 0.401285 cumulative IPC: 0.39485 (Simulation time: 0 hr 12 min 12 sec) 
Heartbeat CPU 0 instructions: 190000002 cycles: 373039333 heartbeat IPC: 0.404555 cumulative IPC: 0.395528 (Simulation time: 0 hr 12 min 56 sec) 
Heartbeat CPU 0 instructions: 200000003 cycles: 396219158 heartbeat IPC: 0.43141 cumulative IPC: 0.397734 (Simulation time: 0 hr 13 min 40 sec) 
Heartbeat CPU 0 instructions: 210000003 cycles: 419800699 heartbeat IPC: 0.42406 cumulative IPC: 0.399283 (Simulation time: 0 hr 14 min 23 sec) 
Heartbeat CPU 0 instructions: 220000000 cycles: 443449030 heartbeat IPC: 0.422863 cumulative IPC: 0.400597 (Simulation time: 0 hr 15 min 8 sec) 
Heartbeat CPU 0 instructions: 230000001 cycles: 466633420 heartbeat IPC: 0.431325 cumulative IPC: 0.402189 (Simulation time: 0 hr 15 min 51 sec) 
Heartbeat CPU 0 instructions: 240000001 cycles: 489788525 heartbeat IPC: 0.43187 cumulative IPC: 0.403649 (Simulation time: 0 hr 16 min 34 sec) 
Heartbeat CPU 0 instructions: 250000000 cycles: 512967897 heartbeat IPC: 0.431418 cumulative IPC: 0.404952 (Simulation time: 0 hr 17 min 17 sec) 
Finished CPU 0 instructions: 200000003 cycles: 493885616 cumulative IPC: 0.404952 (Simulation time: 0 hr 17 min 17 sec) 
 Instruction ID: 250000054

ChampSim completed all CPUs

Region of Interest Statistics

CPU 0 cumulative IPC: 0.404952 instructions: 200000003 cycles: 493885616
ITLB SPEC fills:          0  NON-SPEC fills:          0
ITLB Test counter :          0
ITLB Leapfrog:          0
ITLB MSHR merge:          0
ITLB TOTAL     ACCESS:   24173232  HIT:   24173232  MISS:          0  HIT %:        100  MISS %:          0   MPKI: 0
ITLB LOAD TRANSLATION NON_SPEC    ACCESS:   24173232  HIT:   24173232  MISS:          0  HIT %:        100  MISS %:          0   MPKI: 0
ITLB PREFETCH  REQUESTED:          0  ISSUED:          0  USEFUL:          0  USELESS:          0
ITLB USEFUL LOAD PREFETCHES:          0 PREFETCH ISSUED TO LOWER LEVEL:          0  ACCURACY: -nan
ITLB TIMELY PREFETCHES:          0 LATE PREFETCHES: 0 DROPPED PREFETCHES: 0
ITLB COMMIT LATE PREFETCHES: 0 NORMAL LATE: 0 MISSED OPPORTUNITY: 0 UNCOVERED: 0
ITLB PREFETCHES SAME FILL-ORIGIN LEVEL: 0 DIFFERENT FILL-ORIGIN LEVEL: 0
ITLB AVERAGE MISS LATENCY: -nan cycles
ITLB AVERAGE MISS LATENCY LOAD: -nan cycles
ITLB AVERAGE MISS LATENCY PREFETCH: -nan cycles
ITLB AVERAGE MSHR OCCUPANCY: 0
ITLB MSHR FULL: 0
ITLB RQ	ACCESS:   24837480	FORWARD:          0	MERGED:     664248	TO_CACHE:   24173232

DTLB SPEC fills:          0  NON-SPEC fills:          0
DTLB Test counter :          0
DTLB Leapfrog:          0
DTLB MSHR merge:          0
DTLB TOTAL     ACCESS:   48574921  HIT:   43899962  MISS:    4674959  HIT %:    90.3758  MISS %:    9.62422   MPKI: 23.3748
DTLB LOAD TRANSLATION NON_SPEC    ACCESS:   48574921  HIT:   43899962  MISS:    4674959  HIT %:    90.3758  MISS %:    9.62422   MPKI: 23.3748
DTLB PREFETCH  REQUESTED:          0  ISSUED:          0  USEFUL:          0  USELESS:          0
DTLB USEFUL LOAD PREFETCHES:          0 PREFETCH ISSUED TO LOWER LEVEL:          0  ACCURACY: -nan
DTLB TIMELY PREFETCHES:          0 LATE PREFETCHES: 0 DROPPED PREFETCHES: 0
DTLB COMMIT LATE PREFETCHES: 0 NORMAL LATE: 0 MISSED OPPORTUNITY: 0 UNCOVERED: 0
DTLB PREFETCHES SAME FILL-ORIGIN LEVEL: 0 DIFFERENT FILL-ORIGIN LEVEL: 0
DTLB AVERAGE MISS LATENCY: 12.2102 cycles
DTLB AVERAGE MISS LATENCY LOAD: -nan cycles
DTLB AVERAGE MISS LATENCY PREFETCH: -nan cycles
DTLB AVERAGE MSHR OCCUPANCY: 0.23506
DTLB MSHR FULL: 4.08407e-07
DTLB RQ	ACCESS:   52967316	FORWARD:          0	MERGED:    3996589	TO_CACHE:   48970727

STLB SPEC fills:          0  NON-SPEC fills:          0
STLB Test counter :          0
STLB Leapfrog:          0
STLB MSHR merge:          0
STLB TOTAL     ACCESS:    8629359  HIT:    8567445  MISS:      61914  HIT %:    99.2825  MISS %:   0.717481   MPKI: 0.30957
STLB LOAD TRANSLATION NON_SPEC    ACCESS:    4674959  HIT:    4615797  MISS:      59162  HIT %:    98.7345  MISS %:    1.26551   MPKI: 0.29581
STLB TRANSLATION FROM L1D PREFETCHER NON_SPEC    ACCESS:    3954400  HIT:    3951648  MISS:       2752  HIT %:    99.9304  MISS %:  0.0695934   MPKI: 0.01376
STLB PREFETCH  REQUESTED:          0  ISSUED:          0  USEFUL:       2644  USELESS:        107
STLB USEFUL LOAD PREFETCHES:       2644 PREFETCH ISSUED TO LOWER LEVEL:          0  ACCURACY: inf
STLB TIMELY PREFETCHES:       2644 LATE PREFETCHES: 7921 DROPPED PREFETCHES: 420945
STLB COMMIT LATE PREFETCHES: 0 NORMAL LATE: 7921 MISSED OPPORTUNITY: 0 UNCOVERED: 18446744073709543695
STLB PREFETCHES SAME FILL-ORIGIN LEVEL: 0 DIFFERENT FILL-ORIGIN LEVEL: 0
STLB AVERAGE MISS LATENCY: 233.567 cycles
STLB AVERAGE MISS LATENCY LOAD: -nan cycles
STLB AVERAGE MISS LATENCY PREFETCH: -nan cycles
STLB AVERAGE MSHR OCCUPANCY: 0.140765
STLB MSHR FULL: 0
STLB RQ	ACCESS:   28123863	FORWARD:          0	MERGED:   18950878	TO_CACHE:    9172985

STLB Hit, L1D data hit: 0
STLB Hit, L2C data hit: 0
STLB Hit, LLC data hit: 0
STLB Hit, LLC data miss: 0
STLB STLB hints to L2: 0
L0D SPEC fills:   26387363  NON-SPEC fills:          0
L0D TimeGuard Request with older TS:    2316245 Restricted eviction:     235969 read:    4331735
L0D Test counter :          0
L0D Leapfrog:          0
L0D MSHR merge:    2031681
L0D TOTAL     ACCESS:   48718864  HIT:   17033072  MISS:   31685792  HIT %:     34.962  MISS %:     65.038   MPKI: 158.429
L0D LOAD      TOTAL       ACCESS:   48718864  HIT:   17033072  MISS:   31685792  HIT %:     34.962  MISS %:     65.038   MPKI: 158.429
L0D LOAD      NON_SPEC    ACCESS:    5149536  HIT:      87076  MISS:    5062460  HIT %:    1.69095  MISS %:    98.3091   MPKI: 25.3123
L0D LOAD      SPEC        ACCESS:   43569328  HIT:   16945996  MISS:   26623332  HIT %:    38.8943  MISS %:    61.1057   MPKI: 133.117
L0D PREFETCH  REQUESTED:          0  ISSUED:          0  USEFUL:          0  USELESS:          0
L0D USEFUL LOAD PREFETCHES:          0 PREFETCH ISSUED TO LOWER LEVEL:          0  ACCURACY: -nan
L0D TIMELY PREFETCHES:          0 LATE PREFETCHES: 0 DROPPED PREFETCHES: 0
L0D COMMIT LATE PREFETCHES: 0 NORMAL LATE: 0 MISSED OPPORTUNITY: 0 UNCOVERED: 31685792
L0D PREFETCHES SAME FILL-ORIGIN LEVEL: 0 DIFFERENT FILL-ORIGIN LEVEL: 0
L0D AVERAGE MISS LATENCY: 29.2106 cycles
L0D AVERAGE MISS LATENCY LOAD: 29.2106 cycles
L0D AVERAGE MISS LATENCY PREFETCH: -nan cycles
L0D AVERAGE MSHR OCCUPANCY: 2.04116
L0D MSHR FULL: 0.0366229
L0D RQ	ACCESS:   76742273	FORWARD:          0	MERGED:   25991729	TO_CACHE:   50750544
L0D WQ	ACCESS:    2216772	FORWARD:          0	MERGED:          0	TO_CACHE:    2216772

L1D SPEC fills:          0  NON-SPEC fills:    1722120
L1D Test counter :          0
L1D Leapfrog:          0
L1D MSHR merge:      31156
L1D TOTAL     ACCESS:   95255301  HIT:   76766207  MISS:   18489094  HIT %:      80.59  MISS %:      19.41   MPKI: 92.4455
L1D LOAD      TOTAL       ACCESS:   31685076  HIT:   22475446  MISS:    9209630  HIT %:    70.9339  MISS %:    29.0661   MPKI: 46.0481
L1D LOAD      NON_SPEC    ACCESS:    5061914  HIT:    3339794  MISS:    1722120  HIT %:    65.9789  MISS %:    34.0211   MPKI: 8.6106
L1D LOAD      SPEC        ACCESS:   26623162  HIT:   19135652  MISS:    7487510  HIT %:     71.876  MISS %:     28.124   MPKI: 37.4375
L1D RFO       NON_SPEC    ACCESS:    2024283  HIT:    1550116  MISS:     474167  HIT %:    76.5761  MISS %:    23.4239   MPKI: 2.37083
L1D PREFETCH  NON_SPEC    ACCESS:   18849494  HIT:   17548637  MISS:    1300857  HIT %:    93.0987  MISS %:    6.90128   MPKI: 6.50428
L1D COMMIT LOAD NON_SPEC    ACCESS:   18515402  HIT:   18395186  MISS:     120216  HIT %:    99.3507  MISS %:   0.649276   MPKI: 0.60108
L1D COMMIT WRITE NON_SPEC    ACCESS:   24181046  HIT:   16796822  MISS:    7384224  HIT %:    69.4628  MISS %:    30.5372   MPKI: 36.9211
L1D PREFETCH  REQUESTED:   29806599  ISSUED:   29536895  USEFUL:    1153992  USELESS:     146873
L1D USEFUL LOAD PREFETCHES:    1153992 PREFETCH ISSUED TO LOWER LEVEL:    4046432  ACCURACY: 28.5188
L1D TIMELY PREFETCHES:    1153992 LATE PREFETCHES: 30477 DROPPED PREFETCHES: 1312154
L1D COMMIT LATE PREFETCHES: 0 NORMAL LATE: 30477 MISSED OPPORTUNITY: 0 UNCOVERED: 9179153
L1D PREFETCHES SAME FILL-ORIGIN LEVEL: 1331335 DIFFERENT FILL-ORIGIN LEVEL: 2715097
L1D AVERAGE MISS LATENCY: 57.9773 cycles
L1D AVERAGE MISS LATENCY LOAD: 82.6622 cycles
L1D AVERAGE MISS LATENCY PREFETCH: 195.195 cycles
L1D AVERAGE MSHR OCCUPANCY: 2.15874
L1D MSHR FULL: 0.0431774
L1D RQ	ACCESS:   78956746	FORWARD:          0	MERGED:   23543567	TO_CACHE:   50202018
L1D WQ	ACCESS:   26426845	FORWARD:    5211161	MERGED:      30786	TO_CACHE:   26396059
L1D PQ	ACCESS:   29536895	FORWARD:          0	MERGED:    6087991	TO_CACHE:   23448904

L1D UNIQUE REGIONS ACCESSED: 0
L1D REGIONS CONFLICTS: 0
L1D Cross Page Prefetch Requests: 3761080
L1D Same Page Prefetch Requests: 31959351
L1D ROI Sum of L1D PQ occupancy: 492721704
L1D PREFETCHES PUSHED FROM L2C: 0
L1I SPEC fills:          0  NON-SPEC fills:          0
L1I Test counter :          0
L1I Leapfrog:          0
L1I MSHR merge:          0
L1I TOTAL     ACCESS:   24837480  HIT:   24837480  MISS:          0  HIT %:        100  MISS %:          0   MPKI: 0
L1I LOAD      TOTAL       ACCESS:   24837480  HIT:   24837480  MISS:          0  HIT %:        100  MISS %:          0   MPKI: 0
L1I LOAD      NON_SPEC    ACCESS:   24837480  HIT:   24837480  MISS:          0  HIT %:        100  MISS %:          0   MPKI: 0
L1I PREFETCH  REQUESTED:          0  ISSUED:          0  USEFUL:          0  USELESS:          0
L1I USEFUL LOAD PREFETCHES:          0 PREFETCH ISSUED TO LOWER LEVEL:          0  ACCURACY: -nan
L1I TIMELY PREFETCHES:          0 LATE PREFETCHES: 0 DROPPED PREFETCHES: 0
L1I COMMIT LATE PREFETCHES: 0 NORMAL LATE: 0 MISSED OPPORTUNITY: 0 UNCOVERED: 0
L1I PREFETCHES SAME FILL-ORIGIN LEVEL: 0 DIFFERENT FILL-ORIGIN LEVEL: 0
L1I AVERAGE MISS LATENCY: -nan cycles
L1I AVERAGE MISS LATENCY LOAD: -nan cycles
L1I AVERAGE MISS LATENCY PREFETCH: -nan cycles
L1I AVERAGE MSHR OCCUPANCY: 0
L1I MSHR FULL: 0
L1I RQ	ACCESS:   38853379	FORWARD:          0	MERGED:   14015899	TO_CACHE:   24837480

BTB SPEC fills:          0  NON-SPEC fills:          0
BTB Test counter :          0
BTB Leapfrog:          0
BTB MSHR merge:          0
BTB TOTAL     ACCESS:   29056031  HIT:   29055886  MISS:        145  HIT %:    99.9995  MISS %: 0.000499036   MPKI: 0.000725
BTB BRANCH_DIRECT_JUMP	ACCESS:    9225403  HIT:    9225362  MISS:         41
BTB BRANCH_INDIRECT	ACCESS:          0  HIT:          0  MISS:          0
BTB BRANCH_CONDITIONAL	ACCESS:   19828000  HIT:   19827919  MISS:         81
BTB BRANCH_DIRECT_CALL	ACCESS:       1314  HIT:       1305  MISS:          9
BTB BRANCH_INDIRECT_CALL	ACCESS:          0  HIT:          0  MISS:          0
BTB BRANCH_RETURN	ACCESS:       1314  HIT:       1300  MISS:         14
BTB BRANCH_OTHER ACCESS:          0  HIT:          0  MISS:          0

L2C SPEC fills:          0  NON-SPEC fills:    1107107
L2C Test counter :          0
L2C Leapfrog:          0
L2C MSHR merge:      62019
L2C TOTAL     ACCESS:   25255989  HIT:   10348957  MISS:   14907032  HIT %:    40.9762  MISS %:    59.0238   MPKI: 74.5352
L2C LOAD      TOTAL       ACCESS:    9179155  HIT:    2529872  MISS:    6649283  HIT %:    27.5611  MISS %:    72.4389   MPKI: 33.2464
L2C LOAD      NON_SPEC    ACCESS:    1721133  HIT:     614026  MISS:    1107107  HIT %:    35.6757  MISS %:    64.3243   MPKI: 5.53553
L2C LOAD      SPEC        ACCESS:    7458022  HIT:    1915846  MISS:    5542176  HIT %:    25.6884  MISS %:    74.3116   MPKI: 27.7109
L2C RFO       NON_SPEC    ACCESS:     474162  HIT:     295237  MISS:     178925  HIT %:     62.265  MISS %:     37.735   MPKI: 0.894625
L2C PREFETCH  NON_SPEC    ACCESS:    3680785  HIT:    1307089  MISS:    2373696  HIT %:    35.5111  MISS %:    64.4889   MPKI: 11.8685
L2C WRITEBACK NON_SPEC    ACCESS:     803355  HIT:     799350  MISS:       4005  HIT %:    99.5015  MISS %:   0.498534   MPKI: 0.020025
L2C CLEAN_EVICTION NON_SPEC    ACCESS:    8546757  HIT:    2963023  MISS:    5583734  HIT %:    34.6684  MISS %:    65.3316   MPKI: 27.9187
L2C COMMIT LOAD NON_SPEC    ACCESS:     120159  HIT:      49553  MISS:      70606  HIT %:    41.2395  MISS %:    58.7605   MPKI: 0.35303
L2C LOAD TRANSLATION NON_SPEC    ACCESS:     293526  HIT:     250797  MISS:      42729  HIT %:    85.4429  MISS %:    14.5571   MPKI: 0.213645
L2C TRANSLATION FROM L1D PREFETCHER NON_SPEC    ACCESS:    2158090  HIT:    2154036  MISS:       4054  HIT %:    99.8121  MISS %:   0.187851   MPKI: 0.02027
L2C PREFETCH  REQUESTED:          0  ISSUED:          0  USEFUL:     223616  USELESS:    2155386
L2C USEFUL LOAD PREFETCHES:     223616 PREFETCH ISSUED TO LOWER LEVEL:    2435738  ACCURACY: 9.18063
L2C TIMELY PREFETCHES:     223616 LATE PREFETCHES: 62041 DROPPED PREFETCHES: 0
L2C COMMIT LATE PREFETCHES: 0 NORMAL LATE: 62041 MISSED OPPORTUNITY: 0 UNCOVERED: 6587242
L2C PREFETCHES SAME FILL-ORIGIN LEVEL: 1359250 DIFFERENT FILL-ORIGIN LEVEL: 0
L2C AVERAGE MISS LATENCY: 82.9095 cycles
L2C AVERAGE MISS LATENCY LOAD: 96.1819 cycles
L2C AVERAGE MISS LATENCY PREFETCH: 227.732 cycles
L2C AVERAGE MSHR OCCUPANCY: 2.334
L2C MSHR FULL: 0.00011745
L2C RQ	ACCESS:   12225154	FORWARD:          0	MERGED:          0	TO_CACHE:   12225094
L2C WQ	ACCESS:    9350120	FORWARD:         63	MERGED:          7	TO_CACHE:    9350113
L2C PQ	ACCESS:    4045428	FORWARD:          0	MERGED:       3815	TO_CACHE:    4041610

L2C Instructions Evicting Data 0
L2C Translations Evicting Data 46505
L2C Data Evicting Data 3713371
L2C Instructions Evicting Instructions 0
L2C Translations Evicting Instructions 0
L2C Data Evicting Instructions 0
L2C Instructions Evicting Translations 0
L2C Translations Evicting Translations 278
L2C Data Evicting Translations 17054
L2C Dense regions hint from L2: 0
PSCL5 SPEC fills:          0  NON-SPEC fills:          0
PSCL5 Test counter :          0
PSCL5 Leapfrog:          0
PSCL5 MSHR merge:          0
PSCL5 TOTAL     ACCESS:          0  HIT:          0  MISS:          0  HIT %:       -nan  MISS %:       -nan   MPKI: 0
PSCL5 PREFETCH  REQUESTED:          0  ISSUED:          0  USEFUL:          0  USELESS:          0
PSCL5 USEFUL LOAD PREFETCHES:          0 PREFETCH ISSUED TO LOWER LEVEL:          0  ACCURACY: -nan
PSCL5 TIMELY PREFETCHES:          0 LATE PREFETCHES: 0 DROPPED PREFETCHES: 0
PSCL5 COMMIT LATE PREFETCHES: 0 NORMAL LATE: 0 MISSED OPPORTUNITY: 0 UNCOVERED: 0
PSCL5 PREFETCHES SAME FILL-ORIGIN LEVEL: 0 DIFFERENT FILL-ORIGIN LEVEL: 0

PSCL4 SPEC fills:          0  NON-SPEC fills:          0
PSCL4 Test counter :          0
PSCL4 Leapfrog:          0
PSCL4 MSHR merge:          0
PSCL4 TOTAL     ACCESS:          0  HIT:          0  MISS:          0  HIT %:       -nan  MISS %:       -nan   MPKI: 0
PSCL4 PREFETCH  REQUESTED:          0  ISSUED:          0  USEFUL:          0  USELESS:          0
PSCL4 USEFUL LOAD PREFETCHES:          0 PREFETCH ISSUED TO LOWER LEVEL:          0  ACCURACY: -nan
PSCL4 TIMELY PREFETCHES:          0 LATE PREFETCHES: 0 DROPPED PREFETCHES: 0
PSCL4 COMMIT LATE PREFETCHES: 0 NORMAL LATE: 0 MISSED OPPORTUNITY: 0 UNCOVERED: 0
PSCL4 PREFETCHES SAME FILL-ORIGIN LEVEL: 0 DIFFERENT FILL-ORIGIN LEVEL: 0

PSCL3 SPEC fills:          0  NON-SPEC fills:          0
PSCL3 Test counter :          0
PSCL3 Leapfrog:          0
PSCL3 MSHR merge:          0
PSCL3 TOTAL     ACCESS:          0  HIT:          0  MISS:          0  HIT %:       -nan  MISS %:       -nan   MPKI: 0
PSCL3 PREFETCH  REQUESTED:          0  ISSUED:          0  USEFUL:          0  USELESS:          0
PSCL3 USEFUL LOAD PREFETCHES:          0 PREFETCH ISSUED TO LOWER LEVEL:          0  ACCURACY: -nan
PSCL3 TIMELY PREFETCHES:          0 LATE PREFETCHES: 0 DROPPED PREFETCHES: 0
PSCL3 COMMIT LATE PREFETCHES: 0 NORMAL LATE: 0 MISSED OPPORTUNITY: 0 UNCOVERED: 0
PSCL3 PREFETCHES SAME FILL-ORIGIN LEVEL: 0 DIFFERENT FILL-ORIGIN LEVEL: 0

PSCL2 SPEC fills:          0  NON-SPEC fills:          0
PSCL2 Test counter :          0
PSCL2 Leapfrog:          0
PSCL2 MSHR merge:          0
PSCL2 TOTAL     ACCESS:          0  HIT:          0  MISS:          0  HIT %:       -nan  MISS %:       -nan   MPKI: 0
PSCL2 PREFETCH  REQUESTED:          0  ISSUED:          0  USEFUL:          0  USELESS:          0
PSCL2 USEFUL LOAD PREFETCHES:          0 PREFETCH ISSUED TO LOWER LEVEL:          0  ACCURACY: -nan
PSCL2 TIMELY PREFETCHES:          0 LATE PREFETCHES: 0 DROPPED PREFETCHES: 0
PSCL2 COMMIT LATE PREFETCHES: 0 NORMAL LATE: 0 MISSED OPPORTUNITY: 0 UNCOVERED: 0
PSCL2 PREFETCHES SAME FILL-ORIGIN LEVEL: 0 DIFFERENT FILL-ORIGIN LEVEL: 0

LLC SPEC fills:          0  NON-SPEC fills:     464126
LLC Test counter :          0
LLC Leapfrog:          0
LLC MSHR merge:          0
LLC TOTAL     ACCESS:   16692478  HIT:    8852067  MISS:    7840411  HIT %:    53.0303  MISS %:    46.9697   MPKI: 39.2021
LLC LOAD      TOTAL       ACCESS:    6587214  HIT:    3774466  MISS:    2812748  HIT %:    57.2999  MISS %:    42.7001   MPKI: 14.0637
LLC LOAD      NON_SPEC    ACCESS:    1102570  HIT:     638444  MISS:     464126  HIT %:    57.9051  MISS %:    42.0949   MPKI: 2.32063
LLC LOAD      SPEC        ACCESS:    5484644  HIT:    3136022  MISS:    2348622  HIT %:    57.1782  MISS %:    42.8218   MPKI: 11.7431
LLC RFO       NON_SPEC    ACCESS:     178924  HIT:      72916  MISS:     106008  HIT %:    40.7525  MISS %:    59.2475   MPKI: 0.53004
LLC PREFETCH  NON_SPEC    ACCESS:    2435736  HIT:     288912  MISS:    2146824  HIT %:    11.8614  MISS %:    88.1386   MPKI: 10.7341
LLC WRITEBACK NON_SPEC    ACCESS:     309464  HIT:     301433  MISS:       8031  HIT %:    97.4049  MISS %:    2.59513   MPKI: 0.040155
LLC CLEAN_EVICTION NON_SPEC    ACCESS:    7063791  HIT:    4343691  MISS:    2720100  HIT %:    61.4923  MISS %:    38.5077   MPKI: 13.6005
LLC COMMIT LOAD NON_SPEC    ACCESS:      70566  HIT:      59796  MISS:      10770  HIT %:    84.7377  MISS %:    15.2623   MPKI: 0.05385
LLC LOAD TRANSLATION NON_SPEC    ACCESS:      42729  HIT:      10620  MISS:      32109  HIT %:    24.8543  MISS %:    75.1457   MPKI: 0.160545
LLC TRANSLATION FROM L1D PREFETCHER NON_SPEC    ACCESS:       4054  HIT:        233  MISS:       3821  HIT %:    5.74741  MISS %:    94.2526   MPKI: 0.019105
LLC PREFETCH  REQUESTED:          0  ISSUED:          0  USEFUL:     153089  USELESS:    1998647
LLC USEFUL LOAD PREFETCHES:     153089 PREFETCH ISSUED TO LOWER LEVEL:    2146825  ACCURACY: 7.13095
LLC TIMELY PREFETCHES:     153089 LATE PREFETCHES: 0 DROPPED PREFETCHES: 0
LLC COMMIT LATE PREFETCHES: 0 NORMAL LATE: 0 MISSED OPPORTUNITY: 0 UNCOVERED: 2812748
LLC PREFETCHES SAME FILL-ORIGIN LEVEL: 0 DIFFERENT FILL-ORIGIN LEVEL: 0
LLC AVERAGE MISS LATENCY: 129.546 cycles
LLC AVERAGE MISS LATENCY LOAD: 168.72 cycles
LLC AVERAGE MISS LATENCY PREFETCH: 230.218 cycles
LLC AVERAGE MSHR OCCUPANCY: 1.83395
LLC MSHR FULL: 0
LLC RQ	ACCESS:    6883558	FORWARD:          0	MERGED:          0	TO_CACHE:    6883489
LLC WQ	ACCESS:    7373254	FORWARD:         70	MERGED:          0	TO_CACHE:    7373254
LLC PQ	ACCESS:    2435738	FORWARD:          0	MERGED:          0	TO_CACHE:    2435737

LLC Dense regions hint to LLC: 0

RAW hits: 63446
Loads Generated: 76805719
Loads sent to L1D: 76742273
Stores Generated: 2216772
Stores sent to L1D: 2216772
Major fault: 0 Minor fault: 37080
Allocated PAGES: 37080
Total Load insts: 93563020
Total Non-spec loads: 6318435
Percentage of speculative loads: 93.2469

LeapFrogging counter: 530047
Commit hits: 24210126 miss: 47270955
Commit hit %: 33.8693 miss %: 66.1307
Commits not translated: 0
Loads retired: 9209629
Stores retired: 2216772
Cache fills: 9209630
L1D response latency: 82.6622 cycles
Load retirement latency: 168.435 cycles
OOO test counter: 0
Discarded buffer inserts: 24210126 hits: 22624 hit %: 0.0934485
Filter prediction accuracy: -nan
LATENCY_FILL: 82.184 9198424

DRAM Statistics
 CHANNEL 0
 RQ ROW_BUFFER_HIT:     864583  ROW_BUFFER_MISS:    4246391
 DBUS_CONGESTED:       2444
 WQ ROW_BUFFER_HIT:    1754284  ROW_BUFFER_MISS:    2677895  FULL:      31174

 AVG_CONGESTED_CYCLE: 5
 All warmup complete: 2
Channel 0 Bank busy for read cycles: 0
Channel 0 Bank busy for write cycles: 0
Channel 0
Rank 0
0banks busy for read cycles: 5786308
0banks busy for write cycles: 44407
1banks busy for read cycles: 131795825
1banks busy for write cycles: 8538478
2banks busy for read cycles: 85434403
2banks busy for write cycles: 10843313
3banks busy for read cycles: 48863475
3banks busy for write cycles: 12427933
4banks busy for read cycles: 21746294
4banks busy for write cycles: 14230860
5banks busy for read cycles: 8479776
5banks busy for write cycles: 16569605
6banks busy for read cycles: 4313751
6banks busy for write cycles: 21160863
7banks busy for read cycles: 3258076
7banks busy for write cycles: 32881574
8banks busy for read cycles: 7477832
8banks busy for write cycles: 60032844

CPU 0 Branch Prediction Accuracy: 97.7909% MPKI: 3.2859 Average ROB Occupancy at Mispredict: 161.997
Branch types
NOT_BRANCH: 170250761 85.1254%
BRANCH_DIRECT_JUMP: 9225403 4.6127%
BRANCH_INDIRECT: 0 0%
BRANCH_CONDITIONAL: 20520883 10.2604%
BRANCH_DIRECT_CALL: 1314 0.000657%
BRANCH_INDIRECT_CALL: 0 0%
BRANCH_RETURN: 1314 0.000657%
BRANCH_OTHER: 0 0%

DRAM PAGES: 1048576
Allocated PAGES: 37080
