Initialize SIGNATURE TABLE
ST_SET: 1
ST_WAY: 256
ST_TAG_BIT: 16
ST_TAG_MASK: ffff

Initialize PATTERN TABLE
PT_SET: 512
PT_WAY: 4
SIG_DELTA_BIT: 7
C_SIG_BIT: 4
C_DELTA_BIT: 4

Initialize PREFETCH FILTER
FILTER_SET: 1024

Initialize PERCEPTRON
PERC_ENTRIES: 4096
PERC_FEATURES: 9
Initialize SIGNATURE TABLE
ST_SET: 1
ST_WAY: 256
ST_TAG_BIT: 16
ST_TAG_MASK: ffff

Initialize PATTERN TABLE
PT_SET: 512
PT_WAY: 4
SIG_DELTA_BIT: 7
C_SIG_BIT: 4
C_DELTA_BIT: 4

Initialize PREFETCH FILTER
FILTER_SET: 1024

Initialize PERCEPTRON
PERC_ENTRIES: 4096
PERC_FEATURES: 9

*** ChampSim Multicore Out-of-Order Simulator ***

Warmup Instructions: 50000000
Simulation Instructions: 200000000
Number of CPUs: 1
LLC sets: 2048
LLC ways: 16
L0D sets: 16
L0D ways: 2
ROB size: 352
LQ size: 128
SQ size: 72
Secure Berti: OFF
Berti: OFF
Berti Fill: OFF
On commit prefetching: ON
Hit-based filter: OFF
Time-guarding: ON
Free-slotting: ON
Leap-frogging: ON
Train prefetcher on L0D bypass: OFF
No translation penalty for prefetchers: OFF
Prefetch to L0D only: OFF
Prefetch to L1D only: OFF
Clean evictions: ON
Commit loads: ON
Commit write: ON
Fill commit loads to L2C, LLC: ON
DRAM IO FREQUENCY: 6400
ROB SIZE: 352
Off-chip DRAM Size: 4096 MB Channels: 1 Width: 64-bit Data Rate: 6400 MT/s
CPU 0 runs /home/sumon/secure_berti/GhostMinion/../../traces/gap/bc-3.trace.gz
.gz
BTB has LRU replacement policy
ITLB has LRU replacement policy
DTLB has LRU replacement policy
STLB has LRU replacement policy
L1I has LRU replacement policy
L0D has LRU replacement policy
PERC_ENTRIES: 4096
L1D has LRU replacement policy
PERC_ENTRIES: 4096
L2C has LRU replacement policy
LLC has LRU replacement policy
Heartbeat CPU 0 instructions: 10000002 cycles: 3752170 heartbeat IPC: 2.66512 cumulative IPC: 2.66512 (Simulation time: 0 hr 3 min 19 sec) 
Heartbeat CPU 0 instructions: 20000000 cycles: 7058816 heartbeat IPC: 3.02421 cumulative IPC: 2.83334 (Simulation time: 0 hr 6 min 25 sec) 
Heartbeat CPU 0 instructions: 30000002 cycles: 10415528 heartbeat IPC: 2.97911 cumulative IPC: 2.88032 (Simulation time: 0 hr 9 min 27 sec) 
Heartbeat CPU 0 instructions: 40000003 cycles: 13773633 heartbeat IPC: 2.97787 cumulative IPC: 2.9041 (Simulation time: 0 hr 12 min 27 sec) 
Heartbeat CPU 0 instructions: 50000003 cycles: 17135856 heartbeat IPC: 2.97422 cumulative IPC: 2.91786 (Simulation time: 0 hr 15 min 29 sec) 

Warmup complete CPU 0 instructions: 50000003 cycles: 17135856 (Simulation time: 0 hr 15 min 29 sec) 

Heartbeat CPU 0 instructions: 60000001 cycles: 74644883 heartbeat IPC: 0.173886 cumulative IPC: 0.173886 (Simulation time: 0 hr 20 min 32 sec) 
Heartbeat CPU 0 instructions: 70000000 cycles: 132115549 heartbeat IPC: 0.174002 cumulative IPC: 0.173944 (Simulation time: 0 hr 25 min 34 sec) 
Heartbeat CPU 0 instructions: 80000000 cycles: 190049235 heartbeat IPC: 0.172611 cumulative IPC: 0.173497 (Simulation time: 0 hr 30 min 38 sec) 
Heartbeat CPU 0 instructions: 90000002 cycles: 247754288 heartbeat IPC: 0.173295 cumulative IPC: 0.173447 (Simulation time: 0 hr 35 min 31 sec) 
Heartbeat CPU 0 instructions: 100000003 cycles: 304794254 heartbeat IPC: 0.175316 cumulative IPC: 0.173817 (Simulation time: 0 hr 38 min 37 sec) 
Heartbeat CPU 0 instructions: 110000000 cycles: 362735242 heartbeat IPC: 0.172589 cumulative IPC: 0.173611 (Simulation time: 0 hr 41 min 44 sec) 
Heartbeat CPU 0 instructions: 120000000 cycles: 418785942 heartbeat IPC: 0.17841 cumulative IPC: 0.174281 (Simulation time: 0 hr 44 min 47 sec) 
Heartbeat CPU 0 instructions: 130000003 cycles: 476260367 heartbeat IPC: 0.17399 cumulative IPC: 0.174245 (Simulation time: 0 hr 47 min 52 sec) 
Heartbeat CPU 0 instructions: 140000001 cycles: 533619702 heartbeat IPC: 0.17434 cumulative IPC: 0.174255 (Simulation time: 0 hr 50 min 56 sec) 
Heartbeat CPU 0 instructions: 150000001 cycles: 591193465 heartbeat IPC: 0.17369 cumulative IPC: 0.174199 (Simulation time: 0 hr 54 min 0 sec) 
Heartbeat CPU 0 instructions: 160000001 cycles: 646300883 heartbeat IPC: 0.181464 cumulative IPC: 0.174835 (Simulation time: 0 hr 56 min 59 sec) 
Heartbeat CPU 0 instructions: 170000000 cycles: 700675422 heartbeat IPC: 0.18391 cumulative IPC: 0.175557 (Simulation time: 0 hr 59 min 56 sec) 
Heartbeat CPU 0 instructions: 180000000 cycles: 753818671 heartbeat IPC: 0.188171 cumulative IPC: 0.176467 (Simulation time: 1 hr 2 min 54 sec) 
Heartbeat CPU 0 instructions: 190000001 cycles: 806119321 heartbeat IPC: 0.191202 cumulative IPC: 0.177444 (Simulation time: 1 hr 5 min 50 sec) 
Heartbeat CPU 0 instructions: 200000000 cycles: 858562728 heartbeat IPC: 0.190682 cumulative IPC: 0.178269 (Simulation time: 1 hr 8 min 45 sec) 
Heartbeat CPU 0 instructions: 210000000 cycles: 910405987 heartbeat IPC: 0.192889 cumulative IPC: 0.179117 (Simulation time: 1 hr 11 min 38 sec) 
Heartbeat CPU 0 instructions: 220000000 cycles: 962791337 heartbeat IPC: 0.190893 cumulative IPC: 0.179769 (Simulation time: 1 hr 14 min 31 sec) 
Heartbeat CPU 0 instructions: 230000000 cycles: 1014953485 heartbeat IPC: 0.19171 cumulative IPC: 0.180394 (Simulation time: 1 hr 17 min 26 sec) 
Heartbeat CPU 0 instructions: 240000000 cycles: 1067643141 heartbeat IPC: 0.189791 cumulative IPC: 0.180865 (Simulation time: 1 hr 20 min 18 sec) 
Heartbeat CPU 0 instructions: 250000003 cycles: 1119669360 heartbeat IPC: 0.192211 cumulative IPC: 0.1814 (Simulation time: 1 hr 23 min 9 sec) 
Finished CPU 0 instructions: 200000000 cycles: 1102533504 cumulative IPC: 0.1814 (Simulation time: 1 hr 23 min 9 sec) 
 Instruction ID: 250000121

ChampSim completed all CPUs

Region of Interest Statistics

CPU 0 cumulative IPC: 0.1814 instructions: 200000000 cycles: 1102533504
ITLB SPEC fills:          0  NON-SPEC fills:          0
ITLB Test counter :          0
ITLB Leapfrog:          0
ITLB MSHR merge:          0
ITLB TOTAL     ACCESS:   42182297  HIT:   42182297  MISS:          0  HIT %:        100  MISS %:          0   MPKI: 0
ITLB LOAD TRANSLATION NON_SPEC    ACCESS:   42182297  HIT:   42182297  MISS:          0  HIT %:        100  MISS %:          0   MPKI: 0
ITLB PREFETCH  REQUESTED:          0  ISSUED:          0  USEFUL:          0  USELESS:          0
ITLB USEFUL LOAD PREFETCHES:          0 PREFETCH ISSUED TO LOWER LEVEL:          0  ACCURACY: -nan
ITLB TIMELY PREFETCHES:          0 LATE PREFETCHES: 0 DROPPED PREFETCHES: 0
ITLB COMMIT LATE PREFETCHES: 0 NORMAL LATE: 0 MISSED OPPORTUNITY: 0 UNCOVERED: 0
ITLB PREFETCHES SAME FILL-ORIGIN LEVEL: 0 DIFFERENT FILL-ORIGIN LEVEL: 0
ITLB AVERAGE MISS LATENCY: -nan cycles
ITLB AVERAGE MISS LATENCY LOAD: -nan cycles
ITLB AVERAGE MISS LATENCY PREFETCH: -nan cycles
ITLB AVERAGE MSHR OCCUPANCY: 0
ITLB MSHR FULL: 0
ITLB RQ	ACCESS:   42461151	FORWARD:          0	MERGED:     278854	TO_CACHE:   42182297

DTLB SPEC fills:          0  NON-SPEC fills:          0
DTLB Test counter :          0
DTLB Leapfrog:          0
DTLB MSHR merge:          0
DTLB TOTAL     ACCESS:   48433158  HIT:   38076648  MISS:   10356510  HIT %:    78.6169  MISS %:    21.3831   MPKI: 51.7826
DTLB LOAD TRANSLATION NON_SPEC    ACCESS:   48433158  HIT:   38076648  MISS:   10356510  HIT %:    78.6169  MISS %:    21.3831   MPKI: 51.7826
DTLB PREFETCH  REQUESTED:          0  ISSUED:          0  USEFUL:          0  USELESS:          0
DTLB USEFUL LOAD PREFETCHES:          0 PREFETCH ISSUED TO LOWER LEVEL:          0  ACCURACY: -nan
DTLB TIMELY PREFETCHES:          0 LATE PREFETCHES: 0 DROPPED PREFETCHES: 0
DTLB COMMIT LATE PREFETCHES: 0 NORMAL LATE: 0 MISSED OPPORTUNITY: 0 UNCOVERED: 0
DTLB PREFETCHES SAME FILL-ORIGIN LEVEL: 0 DIFFERENT FILL-ORIGIN LEVEL: 0
DTLB AVERAGE MISS LATENCY: 26.0222 cycles
DTLB AVERAGE MISS LATENCY LOAD: -nan cycles
DTLB AVERAGE MISS LATENCY PREFETCH: -nan cycles
DTLB AVERAGE MSHR OCCUPANCY: 0.459612
DTLB MSHR FULL: 0.00364298
DTLB RQ	ACCESS:   52974895	FORWARD:          0	MERGED:    3903197	TO_CACHE:   49071698

STLB SPEC fills:          0  NON-SPEC fills:          0
STLB Test counter :          0
STLB Leapfrog:          0
STLB MSHR merge:          0
STLB TOTAL     ACCESS:   10356509  HIT:    8187920  MISS:    2168589  HIT %:    79.0606  MISS %:    20.9394   MPKI: 10.8429
STLB LOAD TRANSLATION NON_SPEC    ACCESS:   10356509  HIT:    8187920  MISS:    2168589  HIT %:    79.0606  MISS %:    20.9394   MPKI: 10.8429
STLB PREFETCH  REQUESTED:          0  ISSUED:          0  USEFUL:          0  USELESS:          0
STLB USEFUL LOAD PREFETCHES:          0 PREFETCH ISSUED TO LOWER LEVEL:          0  ACCURACY: -nan
STLB TIMELY PREFETCHES:          0 LATE PREFETCHES: 0 DROPPED PREFETCHES: 0
STLB COMMIT LATE PREFETCHES: 0 NORMAL LATE: 0 MISSED OPPORTUNITY: 0 UNCOVERED: 0
STLB PREFETCHES SAME FILL-ORIGIN LEVEL: 0 DIFFERENT FILL-ORIGIN LEVEL: 0
STLB AVERAGE MISS LATENCY: 80.7501 cycles
STLB AVERAGE MISS LATENCY LOAD: -nan cycles
STLB AVERAGE MISS LATENCY PREFETCH: -nan cycles
STLB AVERAGE MSHR OCCUPANCY: 0.300228
STLB MSHR FULL: 0
STLB RQ	ACCESS:   10356509	FORWARD:          0	MERGED:          0	TO_CACHE:   10356509

STLB Hit, L1D data hit: 0
STLB Hit, L2C data hit: 0
STLB Hit, LLC data hit: 0
STLB Hit, LLC data miss: 0
STLB STLB hints to L2: 0
L0D SPEC fills:   30074266  NON-SPEC fills:          0
L0D TimeGuard Request with older TS:     326947 Restricted eviction:     376553 read:         22
L0D Test counter :          0
L0D Leapfrog:          0
L0D MSHR merge:     708944
L0D TOTAL     ACCESS:   45637446  HIT:   11729914  MISS:   33907532  HIT %:    25.7024  MISS %:    74.2976   MPKI: 169.538
L0D LOAD      TOTAL       ACCESS:   45637446  HIT:   11729914  MISS:   33907532  HIT %:    25.7024  MISS %:    74.2976   MPKI: 169.538
L0D LOAD      NON_SPEC    ACCESS:    3458390  HIT:       1506  MISS:    3456884  HIT %:  0.0435463  MISS %:    99.9565   MPKI: 17.2844
L0D LOAD      SPEC        ACCESS:   42179056  HIT:   11728408  MISS:   30450648  HIT %:    27.8062  MISS %:    72.1938   MPKI: 152.253
L0D PREFETCH  REQUESTED:          0  ISSUED:          0  USEFUL:          0  USELESS:          0
L0D USEFUL LOAD PREFETCHES:          0 PREFETCH ISSUED TO LOWER LEVEL:          0  ACCURACY: -nan
L0D TIMELY PREFETCHES:          0 LATE PREFETCHES: 0 DROPPED PREFETCHES: 0
L0D COMMIT LATE PREFETCHES: 0 NORMAL LATE: 0 MISSED OPPORTUNITY: 0 UNCOVERED: 0
L0D PREFETCHES SAME FILL-ORIGIN LEVEL: 0 DIFFERENT FILL-ORIGIN LEVEL: 0
L0D AVERAGE MISS LATENCY: 60.7133 cycles
L0D AVERAGE MISS LATENCY LOAD: 60.7133 cycles
L0D AVERAGE MISS LATENCY PREFETCH: -nan cycles
L0D AVERAGE MSHR OCCUPANCY: 1.8639
L0D MSHR FULL: 0.0645326
L0D RQ	ACCESS:   47846055	FORWARD:          0	MERGED:    1499668	TO_CACHE:   46346387
L0D WQ	ACCESS:    6628508	FORWARD:          0	MERGED:          0	TO_CACHE:    6628508

L1D SPEC fills:          0  NON-SPEC fills:     714474
L1D Test counter :          0
L1D Leapfrog:          0
L1D MSHR merge:       9085
L1D TOTAL     ACCESS:   76680565  HIT:   41697834  MISS:   34982731  HIT %:    54.3786  MISS %:    45.6214   MPKI: 174.914
L1D LOAD      TOTAL       ACCESS:   33898447  HIT:   16043798  MISS:   17854649  HIT %:     47.329  MISS %:     52.671   MPKI: 89.2732
L1D LOAD      NON_SPEC    ACCESS:    3455182  HIT:    2740708  MISS:     714474  HIT %:    79.3217  MISS %:    20.6783   MPKI: 3.57237
L1D LOAD      SPEC        ACCESS:   30443265  HIT:   13303090  MISS:   17140175  HIT %:     43.698  MISS %:     56.302   MPKI: 85.7009
L1D RFO       NON_SPEC    ACCESS:    2896526  HIT:    2866930  MISS:      29596  HIT %:    98.9782  MISS %:    1.02178   MPKI: 0.14798
L1D COMMIT LOAD NON_SPEC    ACCESS:   10114362  HIT:    9755767  MISS:     358595  HIT %:    96.4546  MISS %:     3.5454   MPKI: 1.79297
L1D COMMIT WRITE NON_SPEC    ACCESS:   29771230  HIT:   13031339  MISS:   16739891  HIT %:    43.7716  MISS %:    56.2284   MPKI: 83.6995
L1D PREFETCH  REQUESTED:          0  ISSUED:          0  USEFUL:          0  USELESS:          0
L1D USEFUL LOAD PREFETCHES:          0 PREFETCH ISSUED TO LOWER LEVEL:          0  ACCURACY: -nan
L1D TIMELY PREFETCHES:          0 LATE PREFETCHES: 0 DROPPED PREFETCHES: 0
L1D COMMIT LATE PREFETCHES: 0 NORMAL LATE: 0 MISSED OPPORTUNITY: 0 UNCOVERED: 17859357
L1D PREFETCHES SAME FILL-ORIGIN LEVEL: 0 DIFFERENT FILL-ORIGIN LEVEL: 0
L1D AVERAGE MISS LATENCY: 54.8362 cycles
L1D AVERAGE MISS LATENCY LOAD: 105.59 cycles
L1D AVERAGE MISS LATENCY PREFETCH: -nan cycles
L1D AVERAGE MSHR OCCUPANCY: 1.3353
L1D MSHR FULL: 0.0162325
L1D RQ	ACCESS:   48523795	FORWARD:          0	MERGED:    4381283	TO_CACHE:   44059256
L1D WQ	ACCESS:   36399926	FORWARD:      83256	MERGED:    3679580	TO_CACHE:   32720346

L1D UNIQUE REGIONS ACCESSED: 0
L1D REGIONS CONFLICTS: 0
L1D Cross Page Prefetch Requests: 0
L1D Same Page Prefetch Requests: 0
L1D ROI Sum of L1D PQ occupancy: 0
L1D PREFETCHES PUSHED FROM L2C: 0
L1I SPEC fills:          0  NON-SPEC fills:          0
L1I Test counter :          0
L1I Leapfrog:          0
L1I MSHR merge:          0
L1I TOTAL     ACCESS:   42461150  HIT:   42461150  MISS:          0  HIT %:        100  MISS %:          0   MPKI: 0
L1I LOAD      TOTAL       ACCESS:   42461150  HIT:   42461150  MISS:          0  HIT %:        100  MISS %:          0   MPKI: 0
L1I LOAD      NON_SPEC    ACCESS:   42461150  HIT:   42461150  MISS:          0  HIT %:        100  MISS %:          0   MPKI: 0
L1I PREFETCH  REQUESTED:          0  ISSUED:          0  USEFUL:          0  USELESS:          0
L1I USEFUL LOAD PREFETCHES:          0 PREFETCH ISSUED TO LOWER LEVEL:          0  ACCURACY: -nan
L1I TIMELY PREFETCHES:          0 LATE PREFETCHES: 0 DROPPED PREFETCHES: 0
L1I COMMIT LATE PREFETCHES: 0 NORMAL LATE: 0 MISSED OPPORTUNITY: 0 UNCOVERED: 0
L1I PREFETCHES SAME FILL-ORIGIN LEVEL: 0 DIFFERENT FILL-ORIGIN LEVEL: 0
L1I AVERAGE MISS LATENCY: -nan cycles
L1I AVERAGE MISS LATENCY LOAD: -nan cycles
L1I AVERAGE MISS LATENCY PREFETCH: -nan cycles
L1I AVERAGE MSHR OCCUPANCY: 0
L1I MSHR FULL: 0
L1I RQ	ACCESS:   56789619	FORWARD:          0	MERGED:   14328468	TO_CACHE:   42461151

BTB SPEC fills:          0  NON-SPEC fills:          0
BTB Test counter :          0
BTB Leapfrog:          0
BTB MSHR merge:          0
BTB TOTAL     ACCESS:   43358669  HIT:   43358655  MISS:         14  HIT %:        100  MISS %: 3.22888e-05   MPKI: 7e-05
BTB BRANCH_DIRECT_JUMP	ACCESS:     271551  HIT:     271547  MISS:          4
BTB BRANCH_INDIRECT	ACCESS:          0  HIT:          0  MISS:          0
BTB BRANCH_CONDITIONAL	ACCESS:   43087090  HIT:   43087082  MISS:          8
BTB BRANCH_DIRECT_CALL	ACCESS:         14  HIT:         13  MISS:          1
BTB BRANCH_INDIRECT_CALL	ACCESS:          0  HIT:          0  MISS:          0
BTB BRANCH_RETURN	ACCESS:         14  HIT:         13  MISS:          1
BTB BRANCH_OTHER ACCESS:          0  HIT:          0  MISS:          0

L2C SPEC fills:          0  NON-SPEC fills:     536024
L2C Test counter :          0
L2C Leapfrog:          0
L2C MSHR merge:      50765
L2C TOTAL     ACCESS:   49873938  HIT:   20810665  MISS:   29063273  HIT %:    41.7265  MISS %:    58.2735   MPKI: 145.316
L2C LOAD      TOTAL       ACCESS:   17854576  HIT:    4423713  MISS:   13430863  HIT %:    24.7764  MISS %:    75.2236   MPKI: 67.1543
L2C LOAD      NON_SPEC    ACCESS:     714473  HIT:     178449  MISS:     536024  HIT %:    24.9763  MISS %:    75.0237   MPKI: 2.68012
L2C LOAD      SPEC        ACCESS:   17140103  HIT:    4245264  MISS:   12894839  HIT %:     24.768  MISS %:     75.232   MPKI: 64.4742
L2C RFO       NON_SPEC    ACCESS:      29595  HIT:        869  MISS:      28726  HIT %:    2.93631  MISS %:    97.0637   MPKI: 0.14363
L2C PREFETCH  NON_SPEC    ACCESS:    3734017  HIT:    1325438  MISS:    2408579  HIT %:    35.4963  MISS %:    64.5037   MPKI: 12.0429
L2C WRITEBACK NON_SPEC    ACCESS:     216381  HIT:     216334  MISS:         47  HIT %:    99.9783  MISS %:  0.0217209   MPKI: 0.000235
L2C CLEAN_EVICTION NON_SPEC    ACCESS:   16837984  HIT:    4008857  MISS:   12829127  HIT %:    23.8084  MISS %:    76.1916   MPKI: 64.1456
L2C COMMIT LOAD NON_SPEC    ACCESS:     358440  HIT:     162786  MISS:     195654  HIT %:    45.4151  MISS %:    54.5849   MPKI: 0.97827
L2C LOAD TRANSLATION NON_SPEC    ACCESS:   10842945  HIT:   10672668  MISS:     170277  HIT %:    98.4296  MISS %:    1.57039   MPKI: 0.851385
L2C PREFETCH  REQUESTED:    6910258  ISSUED:    6910247  USEFUL:     990129  USELESS:    1418735
L2C USEFUL LOAD PREFETCHES:     990129 PREFETCH ISSUED TO LOWER LEVEL:    5429849  ACCURACY: 18.2349
L2C TIMELY PREFETCHES:     990129 LATE PREFETCHES: 53521 DROPPED PREFETCHES: 0
L2C COMMIT LATE PREFETCHES: 75896 NORMAL LATE: 53213 MISSED OPPORTUNITY: 106298 UNCOVERED: 13198211
L2C PREFETCHES SAME FILL-ORIGIN LEVEL: 2462101 DIFFERENT FILL-ORIGIN LEVEL: 2967748
L2C AVERAGE MISS LATENCY: 78.3211 cycles
L2C AVERAGE MISS LATENCY LOAD: 125.365 cycles
L2C AVERAGE MISS LATENCY PREFETCH: 228.211 cycles
L2C AVERAGE MSHR OCCUPANCY: 1.86108
L2C MSHR FULL: 8.25151e-07
L2C RQ	ACCESS:   29085784	FORWARD:          0	MERGED:          0	TO_CACHE:   29085555
L2C WQ	ACCESS:   17054378	FORWARD:        252	MERGED:          8	TO_CACHE:   17054370
L2C PQ	ACCESS:    6910247	FORWARD:          0	MERGED:      91824	TO_CACHE:    6818400

L2C Instructions Evicting Data 0
L2C Translations Evicting Data 169934
L2C Data Evicting Data 3134127
L2C Instructions Evicting Instructions 0
L2C Translations Evicting Instructions 0
L2C Data Evicting Instructions 0
L2C Instructions Evicting Translations 0
L2C Translations Evicting Translations 343
L2C Data Evicting Translations 34856
L2C Dense regions hint from L2: 0
PSCL5 SPEC fills:          0  NON-SPEC fills:          0
PSCL5 Test counter :          0
PSCL5 Leapfrog:          0
PSCL5 MSHR merge:          0
PSCL5 TOTAL     ACCESS:          0  HIT:          0  MISS:          0  HIT %:       -nan  MISS %:       -nan   MPKI: 0
PSCL5 PREFETCH  REQUESTED:          0  ISSUED:          0  USEFUL:          0  USELESS:          0
PSCL5 USEFUL LOAD PREFETCHES:          0 PREFETCH ISSUED TO LOWER LEVEL:          0  ACCURACY: -nan
PSCL5 TIMELY PREFETCHES:          0 LATE PREFETCHES: 0 DROPPED PREFETCHES: 0
PSCL5 COMMIT LATE PREFETCHES: 0 NORMAL LATE: 0 MISSED OPPORTUNITY: 0 UNCOVERED: 0
PSCL5 PREFETCHES SAME FILL-ORIGIN LEVEL: 0 DIFFERENT FILL-ORIGIN LEVEL: 0

PSCL4 SPEC fills:          0  NON-SPEC fills:          0
PSCL4 Test counter :          0
PSCL4 Leapfrog:          0
PSCL4 MSHR merge:          0
PSCL4 TOTAL     ACCESS:          0  HIT:          0  MISS:          0  HIT %:       -nan  MISS %:       -nan   MPKI: 0
PSCL4 PREFETCH  REQUESTED:          0  ISSUED:          0  USEFUL:          0  USELESS:          0
PSCL4 USEFUL LOAD PREFETCHES:          0 PREFETCH ISSUED TO LOWER LEVEL:          0  ACCURACY: -nan
PSCL4 TIMELY PREFETCHES:          0 LATE PREFETCHES: 0 DROPPED PREFETCHES: 0
PSCL4 COMMIT LATE PREFETCHES: 0 NORMAL LATE: 0 MISSED OPPORTUNITY: 0 UNCOVERED: 0
PSCL4 PREFETCHES SAME FILL-ORIGIN LEVEL: 0 DIFFERENT FILL-ORIGIN LEVEL: 0

PSCL3 SPEC fills:          0  NON-SPEC fills:          0
PSCL3 Test counter :          0
PSCL3 Leapfrog:          0
PSCL3 MSHR merge:          0
PSCL3 TOTAL     ACCESS:          0  HIT:          0  MISS:          0  HIT %:       -nan  MISS %:       -nan   MPKI: 0
PSCL3 PREFETCH  REQUESTED:          0  ISSUED:          0  USEFUL:          0  USELESS:          0
PSCL3 USEFUL LOAD PREFETCHES:          0 PREFETCH ISSUED TO LOWER LEVEL:          0  ACCURACY: -nan
PSCL3 TIMELY PREFETCHES:          0 LATE PREFETCHES: 0 DROPPED PREFETCHES: 0
PSCL3 COMMIT LATE PREFETCHES: 0 NORMAL LATE: 0 MISSED OPPORTUNITY: 0 UNCOVERED: 0
PSCL3 PREFETCHES SAME FILL-ORIGIN LEVEL: 0 DIFFERENT FILL-ORIGIN LEVEL: 0

PSCL2 SPEC fills:          0  NON-SPEC fills:          0
PSCL2 Test counter :          0
PSCL2 Leapfrog:          0
PSCL2 MSHR merge:          0
PSCL2 TOTAL     ACCESS:          0  HIT:          0  MISS:          0  HIT %:       -nan  MISS %:       -nan   MPKI: 0
PSCL2 PREFETCH  REQUESTED:          0  ISSUED:          0  USEFUL:          0  USELESS:          0
PSCL2 USEFUL LOAD PREFETCHES:          0 PREFETCH ISSUED TO LOWER LEVEL:          0  ACCURACY: -nan
PSCL2 TIMELY PREFETCHES:          0 LATE PREFETCHES: 0 DROPPED PREFETCHES: 0
PSCL2 COMMIT LATE PREFETCHES: 0 NORMAL LATE: 0 MISSED OPPORTUNITY: 0 UNCOVERED: 0
PSCL2 PREFETCHES SAME FILL-ORIGIN LEVEL: 0 DIFFERENT FILL-ORIGIN LEVEL: 0

LLC SPEC fills:          0  NON-SPEC fills:     319302
LLC Test counter :          0
LLC Leapfrog:          0
LLC MSHR merge:      17769
LLC TOTAL     ACCESS:   33346506  HIT:   14366675  MISS:   18979831  HIT %:     43.083  MISS %:     56.917   MPKI: 94.8992
LLC LOAD      TOTAL       ACCESS:   13380029  HIT:    5982867  MISS:    7397162  HIT %:    44.7149  MISS %:    55.2851   MPKI: 36.9858
LLC LOAD      NON_SPEC    ACCESS:     531918  HIT:     212616  MISS:     319302  HIT %:    39.9716  MISS %:    60.0284   MPKI: 1.59651
LLC LOAD      SPEC        ACCESS:   12848111  HIT:    5770251  MISS:    7077860  HIT %:    44.9113  MISS %:    55.0887   MPKI: 35.3893
LLC RFO       NON_SPEC    ACCESS:      28726  HIT:        503  MISS:      28223  HIT %:    1.75103  MISS %:     98.249   MPKI: 0.141115
LLC PREFETCH  NON_SPEC    ACCESS:    5390009  HIT:    1807705  MISS:    3582304  HIT %:    33.5381  MISS %:    66.4619   MPKI: 17.9115
LLC WRITEBACK NON_SPEC    ACCESS:     211066  HIT:     211062  MISS:          4  HIT %:    99.9981  MISS %: 0.00189514   MPKI: 2e-05
LLC CLEAN_EVICTION NON_SPEC    ACCESS:   13973579  HIT:    6081662  MISS:    7891917  HIT %:    43.5226  MISS %:    56.4774   MPKI: 39.4596
LLC COMMIT LOAD NON_SPEC    ACCESS:     192820  HIT:     160767  MISS:      32053  HIT %:    83.3767  MISS %:    16.6233   MPKI: 0.160265
LLC LOAD TRANSLATION NON_SPEC    ACCESS:     170277  HIT:     122109  MISS:      48168  HIT %:     71.712  MISS %:     28.288   MPKI: 0.24084
LLC PREFETCH  REQUESTED:          0  ISSUED:          0  USEFUL:     404878  USELESS:    3180389
LLC USEFUL LOAD PREFETCHES:     404878 PREFETCH ISSUED TO LOWER LEVEL:    3600299  ACCURACY: 11.2457
LLC TIMELY PREFETCHES:     404878 LATE PREFETCHES: 17995 DROPPED PREFETCHES: 0
LLC COMMIT LATE PREFETCHES: 0 NORMAL LATE: 0 MISSED OPPORTUNITY: 0 UNCOVERED: 0
LLC PREFETCHES SAME FILL-ORIGIN LEVEL: 1575061 DIFFERENT FILL-ORIGIN LEVEL: 0
LLC AVERAGE MISS LATENCY: 119.904 cycles
LLC AVERAGE MISS LATENCY LOAD: 187.391 cycles
LLC AVERAGE MISS LATENCY PREFETCH: 239.84 cycles
LLC AVERAGE MSHR OCCUPANCY: 1.87845
LLC MSHR FULL: 0
LLC RQ	ACCESS:   13771998	FORWARD:          0	MERGED:          0	TO_CACHE:   13771851
LLC WQ	ACCESS:   14184646	FORWARD:        193	MERGED:          0	TO_CACHE:   14184646
LLC PQ	ACCESS:    5429849	FORWARD:          0	MERGED:       5386	TO_CACHE:    5424417

LLC Dense regions hint to LLC: 0

RAW hits: 156891
Loads Generated: 48002948
Loads sent to L1D: 47846055
Stores Generated: 6628506
Stores sent to L1D: 6628508
Major fault: 0 Minor fault: 32429
Allocated PAGES: 32429
Total Load insts: 59412114
Total Non-spec loads: 3723048
Percentage of speculative loads: 93.7335

LeapFrogging counter: 430131
Commit hits: 29771416 miss: 14616263
Commit hit %: 67.0714 miss %: 32.9286
Commits not translated: 0
Loads retired: 17854647
Stores retired: 6628508
Cache fills: 17854649
L1D response latency: 105.59 cycles
Load retirement latency: 240.144 cycles
OOO test counter: 0
Discarded buffer inserts: 29771416 hits: 24176 hit %: 0.0812054
Filter prediction accuracy: -nan
------------------
Depth Distribution
------------------
depth 0: 16808336
depth 1: 3978719
depth 2: 542791
depth 3: 337185
depth 4: 22665
depth 5: 7000
depth 6: 4409
depth 7: 5338
depth 8: 4634
depth 9: 1747
depth 10: 86
depth 11: 70
depth 12: 0
depth 13: 0
depth 14: 0
depth 15: 0
depth 16: 0
depth 17: 0
depth 18: 0
depth 19: 0
depth 20: 0
depth 21: 0
depth 22: 0
depth 23: 0
depth 24: 0
depth 25: 0
depth 26: 0
depth 27: 0
depth 28: 0
depth 29: 0
Total: 21712980
------------------
ST read accesses: 8086214
ST write accesses: 9768361
PT read accesses: 127242779
PT write accesses: 8272121
FILTER read accesses: 119722871
FILTER write accesses: 147271269
GHR read accesses: 81328237
GHR write accesses: 264246
PERC read accesses: 830425284
PERC write accesses: 40537773
GHR counter read accesses: 35709150
GHR counter write accesses: 21733844
GHR ip read accesses: 106805355
GHR ip write accesses: 71418300
ST tag read accesses: 11864960870
ST tag write accesses: 2587439867
------------------
Depth Distribution
------------------
depth 0: 24558016
depth 1: 29770246
depth 2: 2834589
depth 3: 2352216
depth 4: 766924
depth 5: 183893
depth 6: 14444
depth 7: 10188
depth 8: 6891
depth 9: 2516
depth 10: 375
depth 11: 446
depth 12: 55
depth 13: 4
depth 14: 0
depth 15: 0
depth 16: 0
depth 17: 0
depth 18: 0
depth 19: 0
depth 20: 0
depth 21: 0
depth 22: 0
depth 23: 0
depth 24: 0
depth 25: 0
depth 26: 0
depth 27: 0
depth 28: 0
depth 29: 0
Total: 60500803
------------------
ST read accesses: 38121125
ST write accesses: 9881837
PT read accesses: 411251442
PT write accesses: 17627940
FILTER read accesses: 162610493
FILTER write accesses: 63505768
GHR read accesses: 88035567
GHR write accesses: 1529762
PERC read accesses: 3044678202
PERC write accesses: 49196243
GHR counter read accesses: 96005924
GHR counter write accesses: 53073880
GHR ip read accesses: 231290184
GHR ip write accesses: 192011848
ST tag read accesses: 22387956207
ST tag write accesses: 2749148024

DRAM Statistics
 CHANNEL 0
 RQ ROW_BUFFER_HIT:    1136665  ROW_BUFFER_MISS:    9946059
 DBUS_CONGESTED:       2382
 WQ ROW_BUFFER_HIT:    3753432  ROW_BUFFER_MISS:    5697655  FULL:      11689

 AVG_CONGESTED_CYCLE: 5
 All warmup complete: 2
Channel 0 Bank busy for read cycles: 0
Channel 0 Bank busy for write cycles: 0
Channel 0
Rank 0
0banks busy for read cycles: 3440441
0banks busy for write cycles: 844
1banks busy for read cycles: 314810921
1banks busy for write cycles: 2920956
2banks busy for read cycles: 252677957
2banks busy for write cycles: 3032417
3banks busy for read cycles: 125101826
3banks busy for write cycles: 3315889
4banks busy for read cycles: 51733010
4banks busy for write cycles: 4054241
5banks busy for read cycles: 19764451
5banks busy for write cycles: 6950873
6banks busy for read cycles: 7384689
6banks busy for write cycles: 21516186
7banks busy for read cycles: 2610923
7banks busy for write cycles: 84371794
8banks busy for read cycles: 1096592
8banks busy for write cycles: 197749495

CPU 0 Branch Prediction Accuracy: 92.9184% MPKI: 15.3683 Average ROB Occupancy at Mispredict: 48.8608
Branch types
NOT_BRANCH: 156596279 78.2981%
BRANCH_DIRECT_JUMP: 271551 0.135775%
BRANCH_INDIRECT: 0 0%
BRANCH_CONDITIONAL: 43131890 21.5659%
BRANCH_DIRECT_CALL: 14 7e-06%
BRANCH_INDIRECT_CALL: 0 0%
BRANCH_RETURN: 14 7e-06%
BRANCH_OTHER: 0 0%

DRAM PAGES: 1048576
Allocated PAGES: 32429
