Initialize SIGNATURE TABLE
ST_SET: 1
ST_WAY: 256
ST_TAG_BIT: 16
ST_TAG_MASK: ffff

Initialize PATTERN TABLE
PT_SET: 512
PT_WAY: 4
SIG_DELTA_BIT: 7
C_SIG_BIT: 4
C_DELTA_BIT: 4

Initialize PREFETCH FILTER
FILTER_SET: 1024

Initialize PERCEPTRON
PERC_ENTRIES: 4096
PERC_FEATURES: 9
Initialize SIGNATURE TABLE
ST_SET: 1
ST_WAY: 256
ST_TAG_BIT: 16
ST_TAG_MASK: ffff

Initialize PATTERN TABLE
PT_SET: 512
PT_WAY: 4
SIG_DELTA_BIT: 7
C_SIG_BIT: 4
C_DELTA_BIT: 4

Initialize PREFETCH FILTER
FILTER_SET: 1024

Initialize PERCEPTRON
PERC_ENTRIES: 4096
PERC_FEATURES: 9

*** ChampSim Multicore Out-of-Order Simulator ***

Warmup Instructions: 50000000
Simulation Instructions: 200000000
Number of CPUs: 1
LLC sets: 2048
LLC ways: 16
L0D sets: 16
L0D ways: 2
ROB size: 352
LQ size: 128
SQ size: 72
Secure Berti: OFF
Berti: OFF
Berti Fill: OFF
On commit prefetching: ON
Hit-based filter: OFF
Time-guarding: ON
Free-slotting: ON
Leap-frogging: ON
Train prefetcher on L0D bypass: OFF
No translation penalty for prefetchers: OFF
Prefetch to L0D only: OFF
Prefetch to L1D only: OFF
Clean evictions: ON
Commit loads: ON
Commit write: ON
Fill commit loads to L2C, LLC: ON
DRAM IO FREQUENCY: 6400
ROB SIZE: 352
Off-chip DRAM Size: 4096 MB Channels: 1 Width: 64-bit Data Rate: 6400 MT/s
CPU 0 runs /home/sumon/secure_berti/GhostMinion/../../traces/gap/bc-5.trace.gz
.gz
BTB has LRU replacement policy
ITLB has LRU replacement policy
DTLB has LRU replacement policy
STLB has LRU replacement policy
L1I has LRU replacement policy
L0D has LRU replacement policy
PERC_ENTRIES: 4096
L1D has LRU replacement policy
PERC_ENTRIES: 4096
L2C has LRU replacement policy
LLC has LRU replacement policy
Heartbeat CPU 0 instructions: 10000002 cycles: 3910412 heartbeat IPC: 2.55728 cumulative IPC: 2.55728 (Simulation time: 0 hr 2 min 39 sec) 
Heartbeat CPU 0 instructions: 20000001 cycles: 7411385 heartbeat IPC: 2.85635 cumulative IPC: 2.69855 (Simulation time: 0 hr 5 min 21 sec) 
Heartbeat CPU 0 instructions: 30000001 cycles: 10933641 heartbeat IPC: 2.83909 cumulative IPC: 2.74383 (Simulation time: 0 hr 8 min 4 sec) 
Heartbeat CPU 0 instructions: 40000003 cycles: 14405470 heartbeat IPC: 2.88033 cumulative IPC: 2.77672 (Simulation time: 0 hr 10 min 47 sec) 
Heartbeat CPU 0 instructions: 50000000 cycles: 17978810 heartbeat IPC: 2.7985 cumulative IPC: 2.78105 (Simulation time: 0 hr 13 min 30 sec) 

Warmup complete CPU 0 instructions: 50000004 cycles: 17978811 (Simulation time: 0 hr 13 min 30 sec) 

Heartbeat CPU 0 instructions: 60000000 cycles: 73512905 heartbeat IPC: 0.18007 cumulative IPC: 0.180069 (Simulation time: 0 hr 17 min 52 sec) 
Heartbeat CPU 0 instructions: 70000001 cycles: 127157230 heartbeat IPC: 0.186413 cumulative IPC: 0.183186 (Simulation time: 0 hr 22 min 14 sec) 
Heartbeat CPU 0 instructions: 80000003 cycles: 182173003 heartbeat IPC: 0.181766 cumulative IPC: 0.18271 (Simulation time: 0 hr 26 min 40 sec) 
Heartbeat CPU 0 instructions: 90000000 cycles: 236834095 heartbeat IPC: 0.182945 cumulative IPC: 0.182769 (Simulation time: 0 hr 31 min 5 sec) 
Heartbeat CPU 0 instructions: 100000000 cycles: 293774700 heartbeat IPC: 0.175622 cumulative IPC: 0.181293 (Simulation time: 0 hr 35 min 44 sec) 
Heartbeat CPU 0 instructions: 110000000 cycles: 348005050 heartbeat IPC: 0.184399 cumulative IPC: 0.181804 (Simulation time: 0 hr 40 min 18 sec) 
Heartbeat CPU 0 instructions: 120000000 cycles: 401242448 heartbeat IPC: 0.187838 cumulative IPC: 0.182642 (Simulation time: 0 hr 44 min 47 sec) 
Heartbeat CPU 0 instructions: 130000001 cycles: 454929325 heartbeat IPC: 0.186265 cumulative IPC: 0.183087 (Simulation time: 0 hr 49 min 12 sec) 
Heartbeat CPU 0 instructions: 140000002 cycles: 496197435 heartbeat IPC: 0.242318 cumulative IPC: 0.188198 (Simulation time: 0 hr 53 min 4 sec) 
Heartbeat CPU 0 instructions: 150000002 cycles: 528703872 heartbeat IPC: 0.307631 cumulative IPC: 0.1958 (Simulation time: 0 hr 56 min 21 sec) 
Heartbeat CPU 0 instructions: 160000001 cycles: 561334452 heartbeat IPC: 0.306461 cumulative IPC: 0.202446 (Simulation time: 0 hr 59 min 25 sec) 
Heartbeat CPU 0 instructions: 170000001 cycles: 593066573 heartbeat IPC: 0.315138 cumulative IPC: 0.208664 (Simulation time: 1 hr 2 min 25 sec) 
Heartbeat CPU 0 instructions: 180000003 cycles: 624976070 heartbeat IPC: 0.313386 cumulative IPC: 0.214169 (Simulation time: 1 hr 5 min 25 sec) 
Heartbeat CPU 0 instructions: 190000002 cycles: 656852521 heartbeat IPC: 0.313711 cumulative IPC: 0.219136 (Simulation time: 1 hr 8 min 12 sec) 
Heartbeat CPU 0 instructions: 200000002 cycles: 688469889 heartbeat IPC: 0.316282 cumulative IPC: 0.223717 (Simulation time: 1 hr 10 min 57 sec) 
Heartbeat CPU 0 instructions: 210000003 cycles: 720286527 heartbeat IPC: 0.314301 cumulative IPC: 0.22782 (Simulation time: 1 hr 13 min 42 sec) 
Heartbeat CPU 0 instructions: 220000000 cycles: 752606698 heartbeat IPC: 0.309404 cumulative IPC: 0.23141 (Simulation time: 1 hr 16 min 27 sec) 
Heartbeat CPU 0 instructions: 230000002 cycles: 785130341 heartbeat IPC: 0.307469 cumulative IPC: 0.234634 (Simulation time: 1 hr 19 min 13 sec) 
Heartbeat CPU 0 instructions: 240000002 cycles: 818108431 heartbeat IPC: 0.303232 cumulative IPC: 0.237462 (Simulation time: 1 hr 21 min 58 sec) 
Heartbeat CPU 0 instructions: 250000002 cycles: 851039212 heartbeat IPC: 0.303667 cumulative IPC: 0.240079 (Simulation time: 1 hr 24 min 43 sec) 
Finished CPU 0 instructions: 200000002 cycles: 833060402 cumulative IPC: 0.240079 (Simulation time: 1 hr 24 min 43 sec) 
 Instruction ID: 250000258

ChampSim completed all CPUs

Region of Interest Statistics

CPU 0 cumulative IPC: 0.240079 instructions: 200000002 cycles: 833060402
ITLB SPEC fills:          0  NON-SPEC fills:          0
ITLB Test counter :          0
ITLB Leapfrog:          0
ITLB MSHR merge:          0
ITLB TOTAL     ACCESS:   33907979  HIT:   33907979  MISS:          0  HIT %:        100  MISS %:          0   MPKI: 0
ITLB LOAD TRANSLATION NON_SPEC    ACCESS:   33907979  HIT:   33907979  MISS:          0  HIT %:        100  MISS %:          0   MPKI: 0
ITLB PREFETCH  REQUESTED:          0  ISSUED:          0  USEFUL:          0  USELESS:          0
ITLB USEFUL LOAD PREFETCHES:          0 PREFETCH ISSUED TO LOWER LEVEL:          0  ACCURACY: -nan
ITLB TIMELY PREFETCHES:          0 LATE PREFETCHES: 0 DROPPED PREFETCHES: 0
ITLB COMMIT LATE PREFETCHES: 0 NORMAL LATE: 0 MISSED OPPORTUNITY: 0 UNCOVERED: 0
ITLB PREFETCHES SAME FILL-ORIGIN LEVEL: 0 DIFFERENT FILL-ORIGIN LEVEL: 0
ITLB AVERAGE MISS LATENCY: -nan cycles
ITLB AVERAGE MISS LATENCY LOAD: -nan cycles
ITLB AVERAGE MISS LATENCY PREFETCH: -nan cycles
ITLB AVERAGE MSHR OCCUPANCY: 0
ITLB MSHR FULL: 0
ITLB RQ	ACCESS:   34216420	FORWARD:          0	MERGED:     308441	TO_CACHE:   33907979

DTLB SPEC fills:          0  NON-SPEC fills:          0
DTLB Test counter :          0
DTLB Leapfrog:          0
DTLB MSHR merge:          0
DTLB TOTAL     ACCESS:   41940255  HIT:   33752280  MISS:    8187975  HIT %:    80.4771  MISS %:    19.5229   MPKI: 40.9399
DTLB LOAD TRANSLATION NON_SPEC    ACCESS:   41940255  HIT:   33752280  MISS:    8187975  HIT %:    80.4771  MISS %:    19.5229   MPKI: 40.9399
DTLB PREFETCH  REQUESTED:          0  ISSUED:          0  USEFUL:          0  USELESS:          0
DTLB USEFUL LOAD PREFETCHES:          0 PREFETCH ISSUED TO LOWER LEVEL:          0  ACCURACY: -nan
DTLB TIMELY PREFETCHES:          0 LATE PREFETCHES: 0 DROPPED PREFETCHES: 0
DTLB COMMIT LATE PREFETCHES: 0 NORMAL LATE: 0 MISSED OPPORTUNITY: 0 UNCOVERED: 0
DTLB PREFETCHES SAME FILL-ORIGIN LEVEL: 0 DIFFERENT FILL-ORIGIN LEVEL: 0
DTLB AVERAGE MISS LATENCY: 29.9065 cycles
DTLB AVERAGE MISS LATENCY LOAD: -nan cycles
DTLB AVERAGE MISS LATENCY PREFETCH: -nan cycles
DTLB AVERAGE MSHR OCCUPANCY: 0.749068
DTLB MSHR FULL: 0.0220309
DTLB RQ	ACCESS:   47751588	FORWARD:          0	MERGED:    4493746	TO_CACHE:   43257842

STLB SPEC fills:          0  NON-SPEC fills:          0
STLB Test counter :          0
STLB Leapfrog:          0
STLB MSHR merge:          0
STLB TOTAL     ACCESS:    8187975  HIT:    6790786  MISS:    1397189  HIT %:    82.9361  MISS %:    17.0639   MPKI: 6.98594
STLB LOAD TRANSLATION NON_SPEC    ACCESS:    8187975  HIT:    6790786  MISS:    1397189  HIT %:    82.9361  MISS %:    17.0639   MPKI: 6.98594
STLB PREFETCH  REQUESTED:          0  ISSUED:          0  USEFUL:          0  USELESS:          0
STLB USEFUL LOAD PREFETCHES:          0 PREFETCH ISSUED TO LOWER LEVEL:          0  ACCURACY: -nan
STLB TIMELY PREFETCHES:          0 LATE PREFETCHES: 0 DROPPED PREFETCHES: 0
STLB COMMIT LATE PREFETCHES: 0 NORMAL LATE: 0 MISSED OPPORTUNITY: 0 UNCOVERED: 0
STLB PREFETCHES SAME FILL-ORIGIN LEVEL: 0 DIFFERENT FILL-ORIGIN LEVEL: 0
STLB AVERAGE MISS LATENCY: 120.645 cycles
STLB AVERAGE MISS LATENCY LOAD: -nan cycles
STLB AVERAGE MISS LATENCY PREFETCH: -nan cycles
STLB AVERAGE MSHR OCCUPANCY: 0.25447
STLB MSHR FULL: 0
STLB RQ	ACCESS:    8187974	FORWARD:          0	MERGED:          0	TO_CACHE:    8187974

STLB Hit, L1D data hit: 0
STLB Hit, L2C data hit: 0
STLB Hit, LLC data hit: 0
STLB Hit, LLC data miss: 0
STLB STLB hints to L2: 0
L0D SPEC fills:   25175595  NON-SPEC fills:          0
L0D TimeGuard Request with older TS:     488919 Restricted eviction:     347804 read:       2717
L0D Test counter :          0
L0D Leapfrog:          0
L0D MSHR merge:    1951396
L0D TOTAL     ACCESS:   38295016  HIT:   10731491  MISS:   27563525  HIT %:    28.0232  MISS %:    71.9768   MPKI: 137.818
L0D LOAD      TOTAL       ACCESS:   38295016  HIT:   10731491  MISS:   27563525  HIT %:    28.0232  MISS %:    71.9768   MPKI: 137.818
L0D LOAD      NON_SPEC    ACCESS:    2042369  HIT:       2196  MISS:    2040173  HIT %:   0.107522  MISS %:    99.8925   MPKI: 10.2009
L0D LOAD      SPEC        ACCESS:   36252647  HIT:   10729295  MISS:   25523352  HIT %:    29.5959  MISS %:    70.4041   MPKI: 127.617
L0D PREFETCH  REQUESTED:          0  ISSUED:          0  USEFUL:          0  USELESS:          0
L0D USEFUL LOAD PREFETCHES:          0 PREFETCH ISSUED TO LOWER LEVEL:          0  ACCURACY: -nan
L0D TIMELY PREFETCHES:          0 LATE PREFETCHES: 0 DROPPED PREFETCHES: 0
L0D COMMIT LATE PREFETCHES: 0 NORMAL LATE: 0 MISSED OPPORTUNITY: 0 UNCOVERED: 0
L0D PREFETCHES SAME FILL-ORIGIN LEVEL: 0 DIFFERENT FILL-ORIGIN LEVEL: 0
L0D AVERAGE MISS LATENCY: 83.6912 cycles
L0D AVERAGE MISS LATENCY LOAD: 83.6912 cycles
L0D AVERAGE MISS LATENCY PREFETCH: -nan cycles
L0D AVERAGE MSHR OCCUPANCY: 5.44105
L0D MSHR FULL: 0.516056
L0D RQ	ACCESS:   47033500	FORWARD:          0	MERGED:    6787094	TO_CACHE:   40246406
L0D WQ	ACCESS:    7505182	FORWARD:          0	MERGED:          0	TO_CACHE:    7505182

L1D SPEC fills:          0  NON-SPEC fills:    1005600
L1D Test counter :          0
L1D Leapfrog:          0
L1D MSHR merge:      22580
L1D TOTAL     ACCESS:   70497822  HIT:   36308751  MISS:   34189071  HIT %:    51.5034  MISS %:    48.4966   MPKI: 170.945
L1D LOAD      TOTAL       ACCESS:   27540944  HIT:    9903322  MISS:   17637622  HIT %:    35.9585  MISS %:    64.0415   MPKI: 88.1881
L1D LOAD      NON_SPEC    ACCESS:    2036368  HIT:    1030768  MISS:    1005600  HIT %:     50.618  MISS %:     49.382   MPKI: 5.028
L1D LOAD      SPEC        ACCESS:   25504576  HIT:    8872554  MISS:   16632022  HIT %:    34.7881  MISS %:    65.2119   MPKI: 83.1601
L1D RFO       NON_SPEC    ACCESS:    3184877  HIT:    3150826  MISS:      34051  HIT %:    98.9309  MISS %:    1.06915   MPKI: 0.170255
L1D COMMIT LOAD NON_SPEC    ACCESS:   15043213  HIT:   14598320  MISS:     444893  HIT %:    97.0426  MISS %:    2.95743   MPKI: 2.22446
L1D COMMIT WRITE NON_SPEC    ACCESS:   24728788  HIT:    8656283  MISS:   16072505  HIT %:    35.0049  MISS %:    64.9951   MPKI: 80.3625
L1D PREFETCH  REQUESTED:          0  ISSUED:          0  USEFUL:          0  USELESS:          0
L1D USEFUL LOAD PREFETCHES:          0 PREFETCH ISSUED TO LOWER LEVEL:          0  ACCURACY: -nan
L1D TIMELY PREFETCHES:          0 LATE PREFETCHES: 0 DROPPED PREFETCHES: 0
L1D COMMIT LATE PREFETCHES: 0 NORMAL LATE: 0 MISSED OPPORTUNITY: 0 UNCOVERED: 17651463
L1D PREFETCHES SAME FILL-ORIGIN LEVEL: 0 DIFFERENT FILL-ORIGIN LEVEL: 0
L1D AVERAGE MISS LATENCY: 60.9887 cycles
L1D AVERAGE MISS LATENCY LOAD: 115.722 cycles
L1D AVERAGE MISS LATENCY PREFETCH: -nan cycles
L1D AVERAGE MSHR OCCUPANCY: 2.3691
L1D MSHR FULL: 0.0160021
L1D RQ	ACCESS:   47820528	FORWARD:          0	MERGED:    4703155	TO_CACHE:   42661635
L1D WQ	ACCESS:   32239304	FORWARD:     455738	MERGED:    4241004	TO_CACHE:   27998300

L1D UNIQUE REGIONS ACCESSED: 0
L1D REGIONS CONFLICTS: 0
L1D Cross Page Prefetch Requests: 0
L1D Same Page Prefetch Requests: 0
L1D ROI Sum of L1D PQ occupancy: 0
L1D PREFETCHES PUSHED FROM L2C: 0
L1I SPEC fills:          0  NON-SPEC fills:          0
L1I Test counter :          0
L1I Leapfrog:          0
L1I MSHR merge:          0
L1I TOTAL     ACCESS:   34216418  HIT:   34216418  MISS:          0  HIT %:        100  MISS %:          0   MPKI: 0
L1I LOAD      TOTAL       ACCESS:   34216418  HIT:   34216418  MISS:          0  HIT %:        100  MISS %:          0   MPKI: 0
L1I LOAD      NON_SPEC    ACCESS:   34216418  HIT:   34216418  MISS:          0  HIT %:        100  MISS %:          0   MPKI: 0
L1I PREFETCH  REQUESTED:          0  ISSUED:          0  USEFUL:          0  USELESS:          0
L1I USEFUL LOAD PREFETCHES:          0 PREFETCH ISSUED TO LOWER LEVEL:          0  ACCURACY: -nan
L1I TIMELY PREFETCHES:          0 LATE PREFETCHES: 0 DROPPED PREFETCHES: 0
L1I COMMIT LATE PREFETCHES: 0 NORMAL LATE: 0 MISSED OPPORTUNITY: 0 UNCOVERED: 0
L1I PREFETCHES SAME FILL-ORIGIN LEVEL: 0 DIFFERENT FILL-ORIGIN LEVEL: 0
L1I AVERAGE MISS LATENCY: -nan cycles
L1I AVERAGE MISS LATENCY LOAD: -nan cycles
L1I AVERAGE MISS LATENCY PREFETCH: -nan cycles
L1I AVERAGE MSHR OCCUPANCY: 0
L1I MSHR FULL: 0
L1I RQ	ACCESS:   54194370	FORWARD:          0	MERGED:   19977950	TO_CACHE:   34216420

BTB SPEC fills:          0  NON-SPEC fills:          0
BTB Test counter :          0
BTB Leapfrog:          0
BTB MSHR merge:          0
BTB TOTAL     ACCESS:   41913137  HIT:   41913095  MISS:         42  HIT %:    99.9999  MISS %: 0.000100207   MPKI: 0.00021
BTB BRANCH_DIRECT_JUMP	ACCESS:     294369  HIT:     294357  MISS:         12
BTB BRANCH_INDIRECT	ACCESS:          0  HIT:          0  MISS:          0
BTB BRANCH_CONDITIONAL	ACCESS:   41618724  HIT:   41618709  MISS:         15
BTB BRANCH_DIRECT_CALL	ACCESS:         22  HIT:         15  MISS:          7
BTB BRANCH_INDIRECT_CALL	ACCESS:          0  HIT:          0  MISS:          0
BTB BRANCH_RETURN	ACCESS:         22  HIT:         14  MISS:          8
BTB BRANCH_OTHER ACCESS:          0  HIT:          0  MISS:          0

L2C SPEC fills:          0  NON-SPEC fills:     806738
L2C Test counter :          0
L2C Leapfrog:          0
L2C MSHR merge:     124915
L2C TOTAL     ACCESS:   45982741  HIT:   17050530  MISS:   28932211  HIT %:    37.0803  MISS %:    62.9197   MPKI: 144.661
L2C LOAD      TOTAL       ACCESS:   17637447  HIT:    4461111  MISS:   13176336  HIT %:    25.2934  MISS %:    74.7066   MPKI: 65.8817
L2C LOAD      NON_SPEC    ACCESS:    1005594  HIT:     198856  MISS:     806738  HIT %:     19.775  MISS %:     80.225   MPKI: 4.03369
L2C LOAD      SPEC        ACCESS:   16631853  HIT:    4262255  MISS:   12369598  HIT %:    25.6271  MISS %:    74.3729   MPKI: 61.848
L2C RFO       NON_SPEC    ACCESS:      34051  HIT:        435  MISS:      33616  HIT %:     1.2775  MISS %:    98.7225   MPKI: 0.16808
L2C PREFETCH  NON_SPEC    ACCESS:    4471820  HIT:    1260508  MISS:    3211312  HIT %:    28.1878  MISS %:    71.8122   MPKI: 16.0566
L2C WRITEBACK NON_SPEC    ACCESS:     253511  HIT:     253486  MISS:         25  HIT %:    99.9901  MISS %: 0.00986151   MPKI: 0.000125
L2C CLEAN_EVICTION NON_SPEC    ACCESS:   16155239  HIT:    4083320  MISS:   12071919  HIT %:    25.2755  MISS %:    74.7245   MPKI: 60.3596
L2C COMMIT LOAD NON_SPEC    ACCESS:     444771  HIT:     182110  MISS:     262661  HIT %:    40.9447  MISS %:    59.0553   MPKI: 1.3133
L2C LOAD TRANSLATION NON_SPEC    ACCESS:    6985902  HIT:    6809560  MISS:     176342  HIT %:    97.4757  MISS %:    2.52426   MPKI: 0.88171
L2C PREFETCH  REQUESTED:    8407366  ISSUED:    8407313  USEFUL:     895258  USELESS:    2316650
L2C USEFUL LOAD PREFETCHES:     895258 PREFETCH ISSUED TO LOWER LEVEL:    6368932  ACCURACY: 14.0566
L2C TIMELY PREFETCHES:     895258 LATE PREFETCHES: 130581 DROPPED PREFETCHES: 0
L2C COMMIT LATE PREFETCHES: 204351 NORMAL LATE: 126112 MISSED OPPORTUNITY: 204907 UNCOVERED: 12646632
L2C PREFETCHES SAME FILL-ORIGIN LEVEL: 3341893 DIFFERENT FILL-ORIGIN LEVEL: 3027039
L2C AVERAGE MISS LATENCY: 95.1754 cycles
L2C AVERAGE MISS LATENCY LOAD: 139.506 cycles
L2C AVERAGE MISS LATENCY PREFETCH: 267.934 cycles
L2C AVERAGE MSHR OCCUPANCY: 3.59049
L2C MSHR FULL: 6.91128e-05
L2C RQ	ACCESS:   25102468	FORWARD:          0	MERGED:          0	TO_CACHE:   25102171
L2C WQ	ACCESS:   16408785	FORWARD:        358	MERGED:         35	TO_CACHE:   16408750
L2C PQ	ACCESS:    8407313	FORWARD:          0	MERGED:     618645	TO_CACHE:    7788607

L2C Instructions Evicting Data 0
L2C Translations Evicting Data 174742
L2C Data Evicting Data 4270757
L2C Instructions Evicting Instructions 0
L2C Translations Evicting Instructions 0
L2C Data Evicting Instructions 0
L2C Instructions Evicting Translations 0
L2C Translations Evicting Translations 1600
L2C Data Evicting Translations 43570
L2C Dense regions hint from L2: 0
PSCL5 SPEC fills:          0  NON-SPEC fills:          0
PSCL5 Test counter :          0
PSCL5 Leapfrog:          0
PSCL5 MSHR merge:          0
PSCL5 TOTAL     ACCESS:          0  HIT:          0  MISS:          0  HIT %:       -nan  MISS %:       -nan   MPKI: 0
PSCL5 PREFETCH  REQUESTED:          0  ISSUED:          0  USEFUL:          0  USELESS:          0
PSCL5 USEFUL LOAD PREFETCHES:          0 PREFETCH ISSUED TO LOWER LEVEL:          0  ACCURACY: -nan
PSCL5 TIMELY PREFETCHES:          0 LATE PREFETCHES: 0 DROPPED PREFETCHES: 0
PSCL5 COMMIT LATE PREFETCHES: 0 NORMAL LATE: 0 MISSED OPPORTUNITY: 0 UNCOVERED: 0
PSCL5 PREFETCHES SAME FILL-ORIGIN LEVEL: 0 DIFFERENT FILL-ORIGIN LEVEL: 0

PSCL4 SPEC fills:          0  NON-SPEC fills:          0
PSCL4 Test counter :          0
PSCL4 Leapfrog:          0
PSCL4 MSHR merge:          0
PSCL4 TOTAL     ACCESS:          0  HIT:          0  MISS:          0  HIT %:       -nan  MISS %:       -nan   MPKI: 0
PSCL4 PREFETCH  REQUESTED:          0  ISSUED:          0  USEFUL:          0  USELESS:          0
PSCL4 USEFUL LOAD PREFETCHES:          0 PREFETCH ISSUED TO LOWER LEVEL:          0  ACCURACY: -nan
PSCL4 TIMELY PREFETCHES:          0 LATE PREFETCHES: 0 DROPPED PREFETCHES: 0
PSCL4 COMMIT LATE PREFETCHES: 0 NORMAL LATE: 0 MISSED OPPORTUNITY: 0 UNCOVERED: 0
PSCL4 PREFETCHES SAME FILL-ORIGIN LEVEL: 0 DIFFERENT FILL-ORIGIN LEVEL: 0

PSCL3 SPEC fills:          0  NON-SPEC fills:          0
PSCL3 Test counter :          0
PSCL3 Leapfrog:          0
PSCL3 MSHR merge:          0
PSCL3 TOTAL     ACCESS:          0  HIT:          0  MISS:          0  HIT %:       -nan  MISS %:       -nan   MPKI: 0
PSCL3 PREFETCH  REQUESTED:          0  ISSUED:          0  USEFUL:          0  USELESS:          0
PSCL3 USEFUL LOAD PREFETCHES:          0 PREFETCH ISSUED TO LOWER LEVEL:          0  ACCURACY: -nan
PSCL3 TIMELY PREFETCHES:          0 LATE PREFETCHES: 0 DROPPED PREFETCHES: 0
PSCL3 COMMIT LATE PREFETCHES: 0 NORMAL LATE: 0 MISSED OPPORTUNITY: 0 UNCOVERED: 0
PSCL3 PREFETCHES SAME FILL-ORIGIN LEVEL: 0 DIFFERENT FILL-ORIGIN LEVEL: 0

PSCL2 SPEC fills:          0  NON-SPEC fills:          0
PSCL2 Test counter :          0
PSCL2 Leapfrog:          0
PSCL2 MSHR merge:          0
PSCL2 TOTAL     ACCESS:          0  HIT:          0  MISS:          0  HIT %:       -nan  MISS %:       -nan   MPKI: 0
PSCL2 PREFETCH  REQUESTED:          0  ISSUED:          0  USEFUL:          0  USELESS:          0
PSCL2 USEFUL LOAD PREFETCHES:          0 PREFETCH ISSUED TO LOWER LEVEL:          0  ACCURACY: -nan
PSCL2 TIMELY PREFETCHES:          0 LATE PREFETCHES: 0 DROPPED PREFETCHES: 0
PSCL2 COMMIT LATE PREFETCHES: 0 NORMAL LATE: 0 MISSED OPPORTUNITY: 0 UNCOVERED: 0
PSCL2 PREFETCHES SAME FILL-ORIGIN LEVEL: 0 DIFFERENT FILL-ORIGIN LEVEL: 0

LLC SPEC fills:          0  NON-SPEC fills:     460739
LLC Test counter :          0
LLC Leapfrog:          0
LLC MSHR merge:      25311
LLC TOTAL     ACCESS:   33269862  HIT:   14675487  MISS:   18594375  HIT %:    44.1105  MISS %:    55.8895   MPKI: 92.9719
LLC LOAD      TOTAL       ACCESS:   13051200  HIT:    6190926  MISS:    6860274  HIT %:    47.4357  MISS %:    52.5643   MPKI: 34.3014
LLC LOAD      NON_SPEC    ACCESS:     784720  HIT:     323981  MISS:     460739  HIT %:    41.2862  MISS %:    58.7138   MPKI: 2.30369
LLC LOAD      SPEC        ACCESS:   12266480  HIT:    5866945  MISS:    6399535  HIT %:    47.8291  MISS %:    52.1709   MPKI: 31.9977
LLC RFO       NON_SPEC    ACCESS:      33613  HIT:        708  MISS:      32905  HIT %:    2.10633  MISS %:    97.8937   MPKI: 0.164525
LLC PREFETCH  NON_SPEC    ACCESS:    6209668  HIT:    1643769  MISS:    4565899  HIT %:    26.4711  MISS %:    73.5289   MPKI: 22.8295
LLC WRITEBACK NON_SPEC    ACCESS:     243411  HIT:     243365  MISS:         46  HIT %:    99.9811  MISS %:  0.0188981   MPKI: 0.00023
LLC CLEAN_EVICTION NON_SPEC    ACCESS:   13298733  HIT:    6273353  MISS:    7025380  HIT %:    47.1726  MISS %:    52.8274   MPKI: 35.1269
LLC COMMIT LOAD NON_SPEC    ACCESS:     256895  HIT:     200512  MISS:      56383  HIT %:    78.0521  MISS %:    21.9479   MPKI: 0.281915
LLC LOAD TRANSLATION NON_SPEC    ACCESS:     176342  HIT:     122854  MISS:      53488  HIT %:     69.668  MISS %:     30.332   MPKI: 0.26744
LLC PREFETCH  REQUESTED:          0  ISSUED:          0  USEFUL:     405449  USELESS:    4165839
LLC USEFUL LOAD PREFETCHES:     405449 PREFETCH ISSUED TO LOWER LEVEL:    4592254  ACCURACY: 8.82898
LLC TIMELY PREFETCHES:     405449 LATE PREFETCHES: 26355 DROPPED PREFETCHES: 0
LLC COMMIT LATE PREFETCHES: 0 NORMAL LATE: 0 MISSED OPPORTUNITY: 0 UNCOVERED: 0
LLC PREFETCHES SAME FILL-ORIGIN LEVEL: 1714041 DIFFERENT FILL-ORIGIN LEVEL: 0
LLC AVERAGE MISS LATENCY: 150.956 cycles
LLC AVERAGE MISS LATENCY LOAD: 222.558 cycles
LLC AVERAGE MISS LATENCY PREFETCH: 271.672 cycles
LLC AVERAGE MSHR OCCUPANCY: 3.56917
LLC MSHR FULL: 0
LLC RQ	ACCESS:   13518374	FORWARD:          0	MERGED:          0	TO_CACHE:   13518050
LLC WQ	ACCESS:   13542144	FORWARD:        366	MERGED:          0	TO_CACHE:   13542144
LLC PQ	ACCESS:    6368932	FORWARD:          0	MERGED:      97563	TO_CACHE:    6271327

LLC Dense regions hint to LLC: 0

RAW hits: 2443430
Loads Generated: 49476931
Loads sent to L1D: 47033500
Stores Generated: 7505174
Stores sent to L1D: 7505182
Major fault: 0 Minor fault: 33326
Allocated PAGES: 33326
Total Load insts: 60842636
Total Non-spec loads: 2437976
Percentage of speculative loads: 95.993

LeapFrogging counter: 16298360
Commit hits: 24734124 miss: 20257006
Commit hit %: 54.9756 miss %: 45.0244
Commits not translated: 0
Loads retired: 17637613
Stores retired: 7505182
Cache fills: 17637622
L1D response latency: 115.722 cycles
Load retirement latency: 316.313 cycles
OOO test counter: 0
Discarded buffer inserts: 24734124 hits: 83339 hit %: 0.336939
Filter prediction accuracy: -nan
------------------
Depth Distribution
------------------
depth 0: 15786681
depth 1: 4747819
depth 2: 313365
depth 3: 383196
depth 4: 53155
depth 5: 6422
depth 6: 4449
depth 7: 5132
depth 8: 4170
depth 9: 1214
depth 10: 35
depth 11: 26
depth 12: 0
depth 13: 0
depth 14: 0
depth 15: 0
depth 16: 0
depth 17: 0
depth 18: 0
depth 19: 0
depth 20: 0
depth 21: 0
depth 22: 0
depth 23: 0
depth 24: 0
depth 25: 0
depth 26: 0
depth 27: 0
depth 28: 0
depth 29: 0
Total: 21305664
------------------
ST read accesses: 9953372
ST write accesses: 7684075
PT read accesses: 140120829
PT write accesses: 10835219
FILTER read accesses: 112889825
FILTER write accesses: 134905642
GHR read accesses: 64776796
GHR write accesses: 331802
PERC read accesses: 851713902
PERC write accesses: 54302063
GHR counter read accesses: 35274894
GHR counter write accesses: 22374710
GHR ip read accesses: 103414539
GHR ip write accesses: 70549788
ST tag read accesses: 10715733520
ST tag write accesses: 2033074419
------------------
Depth Distribution
------------------
depth 0: 29364027
depth 1: 33319531
depth 2: 1280989
depth 3: 723233
depth 4: 217660
depth 5: 163483
depth 6: 14280
depth 7: 10396
depth 8: 8811
depth 9: 2730
depth 10: 483
depth 11: 173
depth 12: 0
depth 13: 0
depth 14: 0
depth 15: 0
depth 16: 0
depth 17: 0
depth 18: 0
depth 19: 0
depth 20: 0
depth 21: 0
depth 22: 0
depth 23: 0
depth 24: 0
depth 25: 0
depth 26: 0
depth 27: 0
depth 28: 0
depth 29: 0
Total: 65105796
------------------
ST read accesses: 41698343
ST write accesses: 7778603
PT read accesses: 391855322
PT write accesses: 20906406
FILTER read accesses: 162261705
FILTER write accesses: 70967612
GHR read accesses: 71593312
GHR write accesses: 1579491
PERC read accesses: 2855737521
PERC write accesses: 64723399
GHR counter read accesses: 98953892
GHR counter write accesses: 55826531
GHR ip read accesses: 254565519
GHR ip write accesses: 197907784
ST tag read accesses: 21866313597
ST tag write accesses: 2205825450

DRAM Statistics
 CHANNEL 0
 RQ ROW_BUFFER_HIT:    2361205  ROW_BUFFER_MISS:    9201275
 DBUS_CONGESTED:       2592
 WQ ROW_BUFFER_HIT:    1952793  ROW_BUFFER_MISS:    6789253  FULL:       7813

 AVG_CONGESTED_CYCLE: 5
 All warmup complete: 2
Channel 0 Bank busy for read cycles: 0
Channel 0 Bank busy for write cycles: 0
Channel 0
Rank 0
0banks busy for read cycles: 32459841
0banks busy for write cycles: 49930
1banks busy for read cycles: 136876345
1banks busy for write cycles: 7699317
2banks busy for read cycles: 127853756
2banks busy for write cycles: 6350765
3banks busy for read cycles: 103695159
3banks busy for write cycles: 6184884
4banks busy for read cycles: 74538136
4banks busy for write cycles: 6654749
5banks busy for read cycles: 46744376
5banks busy for write cycles: 7960230
6banks busy for read cycles: 26630656
6banks busy for write cycles: 13857597
7banks busy for read cycles: 14095021
7banks busy for write cycles: 50140314
8banks busy for read cycles: 6846740
8banks busy for write cycles: 164422587

CPU 0 Branch Prediction Accuracy: 97.9623% MPKI: 4.27319 Average ROB Occupancy at Mispredict: 140.104
Branch types
NOT_BRANCH: 158057977 79.029%
BRANCH_DIRECT_JUMP: 294369 0.147184%
BRANCH_INDIRECT: 0 0%
BRANCH_CONDITIONAL: 41647482 20.8237%
BRANCH_DIRECT_CALL: 22 1.1e-05%
BRANCH_INDIRECT_CALL: 0 0%
BRANCH_RETURN: 22 1.1e-05%
BRANCH_OTHER: 0 0%

DRAM PAGES: 1048576
Allocated PAGES: 33326
