Initialize SIGNATURE TABLE
ST_SET: 1
ST_WAY: 256
ST_TAG_BIT: 16
ST_TAG_MASK: ffff

Initialize PATTERN TABLE
PT_SET: 512
PT_WAY: 4
SIG_DELTA_BIT: 7
C_SIG_BIT: 4
C_DELTA_BIT: 4

Initialize PREFETCH FILTER
FILTER_SET: 1024

Initialize PERCEPTRON
PERC_ENTRIES: 4096
PERC_FEATURES: 9
Initialize SIGNATURE TABLE
ST_SET: 1
ST_WAY: 256
ST_TAG_BIT: 16
ST_TAG_MASK: ffff

Initialize PATTERN TABLE
PT_SET: 512
PT_WAY: 4
SIG_DELTA_BIT: 7
C_SIG_BIT: 4
C_DELTA_BIT: 4

Initialize PREFETCH FILTER
FILTER_SET: 1024

Initialize PERCEPTRON
PERC_ENTRIES: 4096
PERC_FEATURES: 9

*** ChampSim Multicore Out-of-Order Simulator ***

Warmup Instructions: 50000000
Simulation Instructions: 200000000
Number of CPUs: 1
LLC sets: 2048
LLC ways: 16
L0D sets: 16
L0D ways: 2
ROB size: 352
LQ size: 128
SQ size: 72
Secure Berti: OFF
Berti: OFF
Berti Fill: OFF
On commit prefetching: ON
Hit-based filter: OFF
Time-guarding: ON
Free-slotting: ON
Leap-frogging: ON
Train prefetcher on L0D bypass: OFF
No translation penalty for prefetchers: OFF
Prefetch to L0D only: OFF
Prefetch to L1D only: OFF
Clean evictions: ON
Commit loads: ON
Commit write: ON
Fill commit loads to L2C, LLC: ON
DRAM IO FREQUENCY: 6400
ROB SIZE: 352
Off-chip DRAM Size: 4096 MB Channels: 1 Width: 64-bit Data Rate: 6400 MT/s
CPU 0 runs /home/sumon/secure_berti/GhostMinion/../../traces/gap/pr-3.trace.gz
.gz
BTB has LRU replacement policy
ITLB has LRU replacement policy
DTLB has LRU replacement policy
STLB has LRU replacement policy
L1I has LRU replacement policy
L0D has LRU replacement policy
PERC_ENTRIES: 4096
L1D has LRU replacement policy
PERC_ENTRIES: 4096
L2C has LRU replacement policy
LLC has LRU replacement policy
Heartbeat CPU 0 instructions: 10000002 cycles: 3333771 heartbeat IPC: 2.99961 cumulative IPC: 2.99961 (Simulation time: 0 hr 2 min 55 sec) 
Heartbeat CPU 0 instructions: 20000002 cycles: 17923516 heartbeat IPC: 0.685413 cumulative IPC: 1.11585 (Simulation time: 0 hr 8 min 42 sec) 
Heartbeat CPU 0 instructions: 30000001 cycles: 34472669 heartbeat IPC: 0.60426 cumulative IPC: 0.870255 (Simulation time: 0 hr 15 min 1 sec) 
Heartbeat CPU 0 instructions: 40000000 cycles: 51075464 heartbeat IPC: 0.602308 cumulative IPC: 0.783155 (Simulation time: 0 hr 21 min 17 sec) 
Heartbeat CPU 0 instructions: 50000000 cycles: 67700368 heartbeat IPC: 0.601507 cumulative IPC: 0.738548 (Simulation time: 0 hr 27 min 34 sec) 

Warmup complete CPU 0 instructions: 50000001 cycles: 67700369 (Simulation time: 0 hr 27 min 34 sec) 

Heartbeat CPU 0 instructions: 60000003 cycles: 262299153 heartbeat IPC: 0.0513878 cumulative IPC: 0.0513878 (Simulation time: 0 hr 39 min 0 sec) 
Heartbeat CPU 0 instructions: 70000001 cycles: 459106568 heartbeat IPC: 0.0508111 cumulative IPC: 0.0510978 (Simulation time: 0 hr 47 min 6 sec) 
Heartbeat CPU 0 instructions: 80000003 cycles: 656102167 heartbeat IPC: 0.0507626 cumulative IPC: 0.0509856 (Simulation time: 0 hr 54 min 54 sec) 
Heartbeat CPU 0 instructions: 90000000 cycles: 851800613 heartbeat IPC: 0.051099 cumulative IPC: 0.0510139 (Simulation time: 1 hr 2 min 8 sec) 
Heartbeat CPU 0 instructions: 100000002 cycles: 1047873680 heartbeat IPC: 0.0510014 cumulative IPC: 0.0510114 (Simulation time: 1 hr 9 min 7 sec) 
Heartbeat CPU 0 instructions: 110000000 cycles: 1245039428 heartbeat IPC: 0.0507187 cumulative IPC: 0.0509624 (Simulation time: 1 hr 15 min 56 sec) 
Heartbeat CPU 0 instructions: 120000001 cycles: 1443534680 heartbeat IPC: 0.050379 cumulative IPC: 0.0508782 (Simulation time: 1 hr 22 min 47 sec) 
Heartbeat CPU 0 instructions: 130000001 cycles: 1639157830 heartbeat IPC: 0.0511187 cumulative IPC: 0.0509082 (Simulation time: 1 hr 29 min 32 sec) 
Heartbeat CPU 0 instructions: 140000002 cycles: 1835058135 heartbeat IPC: 0.0510464 cumulative IPC: 0.0509235 (Simulation time: 1 hr 36 min 16 sec) 
Heartbeat CPU 0 instructions: 150000000 cycles: 2031344062 heartbeat IPC: 0.0509461 cumulative IPC: 0.0509257 (Simulation time: 1 hr 43 min 0 sec) 
Heartbeat CPU 0 instructions: 160000002 cycles: 2226773871 heartbeat IPC: 0.0511693 cumulative IPC: 0.0509478 (Simulation time: 1 hr 49 min 42 sec) 
Heartbeat CPU 0 instructions: 170000003 cycles: 2422736314 heartbeat IPC: 0.0510302 cumulative IPC: 0.0509546 (Simulation time: 1 hr 56 min 24 sec) 
Heartbeat CPU 0 instructions: 180000002 cycles: 2618182089 heartbeat IPC: 0.0511651 cumulative IPC: 0.0509708 (Simulation time: 2 hr 3 min 5 sec) 
Heartbeat CPU 0 instructions: 190000001 cycles: 2761144396 heartbeat IPC: 0.0699485 cumulative IPC: 0.0519781 (Simulation time: 2 hr 8 min 26 sec) 
Heartbeat CPU 0 instructions: 200000001 cycles: 2804019765 heartbeat IPC: 0.233234 cumulative IPC: 0.0548182 (Simulation time: 2 hr 11 min 14 sec) 
Heartbeat CPU 0 instructions: 210000003 cycles: 2999477901 heartbeat IPC: 0.0511619 cumulative IPC: 0.0545744 (Simulation time: 2 hr 17 min 55 sec) 
Heartbeat CPU 0 instructions: 220000000 cycles: 3195524245 heartbeat IPC: 0.0510083 cumulative IPC: 0.0543509 (Simulation time: 2 hr 24 min 38 sec) 
Heartbeat CPU 0 instructions: 230000000 cycles: 3389537943 heartbeat IPC: 0.0515428 cumulative IPC: 0.0541869 (Simulation time: 2 hr 31 min 15 sec) 
Heartbeat CPU 0 instructions: 240000003 cycles: 3585754774 heartbeat IPC: 0.050964 cumulative IPC: 0.0540071 (Simulation time: 2 hr 37 min 59 sec) 
Heartbeat CPU 0 instructions: 250000001 cycles: 3779606052 heartbeat IPC: 0.0515859 cumulative IPC: 0.0538807 (Simulation time: 2 hr 44 min 39 sec) 
Finished CPU 0 instructions: 200000000 cycles: 3711905683 cumulative IPC: 0.0538807 (Simulation time: 2 hr 44 min 39 sec) 
 Instruction ID: 250000383

ChampSim completed all CPUs

Region of Interest Statistics

CPU 0 cumulative IPC: 0.0538807 instructions: 200000000 cycles: 3711905683
ITLB SPEC fills:          0  NON-SPEC fills:          0
ITLB Test counter :          0
ITLB Leapfrog:          0
ITLB MSHR merge:          0
ITLB TOTAL     ACCESS:   58843519  HIT:   58843519  MISS:          0  HIT %:        100  MISS %:          0   MPKI: 0
ITLB LOAD TRANSLATION NON_SPEC    ACCESS:   58843519  HIT:   58843519  MISS:          0  HIT %:        100  MISS %:          0   MPKI: 0
ITLB PREFETCH  REQUESTED:          0  ISSUED:          0  USEFUL:          0  USELESS:          0
ITLB USEFUL LOAD PREFETCHES:          0 PREFETCH ISSUED TO LOWER LEVEL:          0  ACCURACY: -nan
ITLB TIMELY PREFETCHES:          0 LATE PREFETCHES: 0 DROPPED PREFETCHES: 0
ITLB COMMIT LATE PREFETCHES: 0 NORMAL LATE: 0 MISSED OPPORTUNITY: 0 UNCOVERED: 0
ITLB PREFETCHES SAME FILL-ORIGIN LEVEL: 0 DIFFERENT FILL-ORIGIN LEVEL: 0
ITLB AVERAGE MISS LATENCY: -nan cycles
ITLB AVERAGE MISS LATENCY LOAD: -nan cycles
ITLB AVERAGE MISS LATENCY PREFETCH: -nan cycles
ITLB AVERAGE MSHR OCCUPANCY: 0
ITLB MSHR FULL: 0
ITLB RQ	ACCESS:   59968840	FORWARD:          0	MERGED:    1125322	TO_CACHE:   58843518

DTLB SPEC fills:          0  NON-SPEC fills:          0
DTLB Test counter :          0
DTLB Leapfrog:          0
DTLB MSHR merge:          0
DTLB TOTAL     ACCESS:   71280211  HIT:   48394652  MISS:   22885559  HIT %:    67.8935  MISS %:    32.1065   MPKI: 114.428
DTLB LOAD TRANSLATION NON_SPEC    ACCESS:   71280211  HIT:   48394652  MISS:   22885559  HIT %:    67.8935  MISS %:    32.1065   MPKI: 114.428
DTLB PREFETCH  REQUESTED:          0  ISSUED:          0  USEFUL:          0  USELESS:          0
DTLB USEFUL LOAD PREFETCHES:          0 PREFETCH ISSUED TO LOWER LEVEL:          0  ACCURACY: -nan
DTLB TIMELY PREFETCHES:          0 LATE PREFETCHES: 0 DROPPED PREFETCHES: 0
DTLB COMMIT LATE PREFETCHES: 0 NORMAL LATE: 0 MISSED OPPORTUNITY: 0 UNCOVERED: 0
DTLB PREFETCHES SAME FILL-ORIGIN LEVEL: 0 DIFFERENT FILL-ORIGIN LEVEL: 0
DTLB AVERAGE MISS LATENCY: 9.29258 cycles
DTLB AVERAGE MISS LATENCY LOAD: -nan cycles
DTLB AVERAGE MISS LATENCY PREFETCH: -nan cycles
DTLB AVERAGE MSHR OCCUPANCY: 0.195648
DTLB MSHR FULL: 0
DTLB RQ	ACCESS:   72189728	FORWARD:          0	MERGED:     900873	TO_CACHE:   71288855

STLB SPEC fills:          0  NON-SPEC fills:          0
STLB Test counter :          0
STLB Leapfrog:          0
STLB MSHR merge:          0
STLB TOTAL     ACCESS:   22885559  HIT:   22844741  MISS:      40818  HIT %:    99.8216  MISS %:   0.178357   MPKI: 0.20409
STLB LOAD TRANSLATION NON_SPEC    ACCESS:   22885559  HIT:   22844741  MISS:      40818  HIT %:    99.8216  MISS %:   0.178357   MPKI: 0.20409
STLB PREFETCH  REQUESTED:          0  ISSUED:          0  USEFUL:          0  USELESS:          0
STLB USEFUL LOAD PREFETCHES:          0 PREFETCH ISSUED TO LOWER LEVEL:          0  ACCURACY: -nan
STLB TIMELY PREFETCHES:          0 LATE PREFETCHES: 0 DROPPED PREFETCHES: 0
STLB COMMIT LATE PREFETCHES: 0 NORMAL LATE: 0 MISSED OPPORTUNITY: 0 UNCOVERED: 0
STLB PREFETCHES SAME FILL-ORIGIN LEVEL: 0 DIFFERENT FILL-ORIGIN LEVEL: 0
STLB AVERAGE MISS LATENCY: 155.348 cycles
STLB AVERAGE MISS LATENCY LOAD: -nan cycles
STLB AVERAGE MISS LATENCY PREFETCH: -nan cycles
STLB AVERAGE MSHR OCCUPANCY: 0.00108684
STLB MSHR FULL: 0
STLB RQ	ACCESS:   22885559	FORWARD:          0	MERGED:          0	TO_CACHE:   22885559

STLB Hit, L1D data hit: 0
STLB Hit, L2C data hit: 0
STLB Hit, LLC data hit: 0
STLB Hit, LLC data miss: 0
STLB STLB hints to L2: 0
L0D SPEC fills:    5535042  NON-SPEC fills:          0
L0D TimeGuard Request with older TS:      69697 Restricted eviction:      11296 read:       7161
L0D Test counter :          0
L0D Leapfrog:          0
L0D MSHR merge:    3149297
L0D TOTAL     ACCESS:   65739830  HIT:   22612412  MISS:   43127418  HIT %:    34.3968  MISS %:    65.6032   MPKI: 215.637
L0D LOAD      TOTAL       ACCESS:   65739830  HIT:   22612412  MISS:   43127418  HIT %:    34.3968  MISS %:    65.6032   MPKI: 215.637
L0D LOAD      NON_SPEC    ACCESS:   37588334  HIT:       7254  MISS:   37581080  HIT %:  0.0192985  MISS %:    99.9807   MPKI: 187.905
L0D LOAD      SPEC        ACCESS:   28151496  HIT:   22605158  MISS:    5546338  HIT %:    80.2982  MISS %:    19.7018   MPKI: 27.7317
L0D PREFETCH  REQUESTED:          0  ISSUED:          0  USEFUL:          0  USELESS:          0
L0D USEFUL LOAD PREFETCHES:          0 PREFETCH ISSUED TO LOWER LEVEL:          0  ACCURACY: -nan
L0D TIMELY PREFETCHES:          0 LATE PREFETCHES: 0 DROPPED PREFETCHES: 0
L0D COMMIT LATE PREFETCHES: 0 NORMAL LATE: 0 MISSED OPPORTUNITY: 0 UNCOVERED: 0
L0D PREFETCHES SAME FILL-ORIGIN LEVEL: 0 DIFFERENT FILL-ORIGIN LEVEL: 0
L0D AVERAGE MISS LATENCY: 74.8165 cycles
L0D AVERAGE MISS LATENCY LOAD: 74.8165 cycles
L0D AVERAGE MISS LATENCY PREFETCH: -nan cycles
L0D AVERAGE MSHR OCCUPANCY: 0.267284
L0D MSHR FULL: 0
L0D RQ	ACCESS:   77353314	FORWARD:          0	MERGED:    8464189	TO_CACHE:   68889125
L0D WQ	ACCESS:    3300603	FORWARD:          0	MERGED:          0	TO_CACHE:    3300603

L1D SPEC fills:          0  NON-SPEC fills:   31921648
L1D Test counter :          0
L1D Leapfrog:          0
L1D MSHR merge:         40
L1D TOTAL     ACCESS:   84358610  HIT:   47274066  MISS:   37084544  HIT %:    56.0394  MISS %:    43.9606   MPKI: 185.423
L1D LOAD      TOTAL       ACCESS:   43127378  HIT:    8632519  MISS:   34494859  HIT %:    20.0163  MISS %:    79.9837   MPKI: 172.474
L1D LOAD      NON_SPEC    ACCESS:   37581078  HIT:    5659430  MISS:   31921648  HIT %:    15.0593  MISS %:    84.9407   MPKI: 159.608
L1D LOAD      SPEC        ACCESS:    5546300  HIT:    2973089  MISS:    2573211  HIT %:    53.6049  MISS %:    46.3951   MPKI: 12.8661
L1D RFO       NON_SPEC    ACCESS:    2528790  HIT:    2463231  MISS:      65559  HIT %:    97.4075  MISS %:     2.5925   MPKI: 0.327795
L1D COMMIT LOAD NON_SPEC    ACCESS:   33168211  HIT:   33167654  MISS:        557  HIT %:    99.9983  MISS %: 0.00167932   MPKI: 0.002785
L1D COMMIT WRITE NON_SPEC    ACCESS:    5534231  HIT:    3010662  MISS:    2523569  HIT %:    54.4007  MISS %:    45.5993   MPKI: 12.6178
L1D PREFETCH  REQUESTED:          0  ISSUED:          0  USEFUL:          0  USELESS:          0
L1D USEFUL LOAD PREFETCHES:          0 PREFETCH ISSUED TO LOWER LEVEL:          0  ACCURACY: -nan
L1D TIMELY PREFETCHES:          0 LATE PREFETCHES: 0 DROPPED PREFETCHES: 0
L1D COMMIT LATE PREFETCHES: 0 NORMAL LATE: 0 MISSED OPPORTUNITY: 0 UNCOVERED: 34494865
L1D PREFETCHES SAME FILL-ORIGIN LEVEL: 0 DIFFERENT FILL-ORIGIN LEVEL: 0
L1D AVERAGE MISS LATENCY: 81.6221 cycles
L1D AVERAGE MISS LATENCY LOAD: 87.2802 cycles
L1D AVERAGE MISS LATENCY PREFETCH: -nan cycles
L1D AVERAGE MSHR OCCUPANCY: 0.0763781
L1D MSHR FULL: 0
L1D RQ	ACCESS:   77344659	FORWARD:          0	MERGED:     966090	TO_CACHE:   76295637
L1D WQ	ACCESS:    8835317	FORWARD:      82932	MERGED:       3343	TO_CACHE:    8831974

L1D UNIQUE REGIONS ACCESSED: 0
L1D REGIONS CONFLICTS: 0
L1D Cross Page Prefetch Requests: 0
L1D Same Page Prefetch Requests: 0
L1D ROI Sum of L1D PQ occupancy: 0
L1D PREFETCHES PUSHED FROM L2C: 0
L1I SPEC fills:          0  NON-SPEC fills:          0
L1I Test counter :          0
L1I Leapfrog:          0
L1I MSHR merge:          1
L1I TOTAL     ACCESS:   59968840  HIT:   59968817  MISS:         23  HIT %:        100  MISS %: 3.83533e-05   MPKI: 0.000115
L1I LOAD      TOTAL       ACCESS:   59968840  HIT:   59968817  MISS:         23  HIT %:        100  MISS %: 3.83533e-05   MPKI: 0.000115
L1I LOAD      NON_SPEC    ACCESS:   59968840  HIT:   59968817  MISS:         23  HIT %:        100  MISS %: 3.83533e-05   MPKI: 0.000115
L1I PREFETCH  REQUESTED:          0  ISSUED:          0  USEFUL:          0  USELESS:          0
L1I USEFUL LOAD PREFETCHES:          0 PREFETCH ISSUED TO LOWER LEVEL:          0  ACCURACY: -nan
L1I TIMELY PREFETCHES:          0 LATE PREFETCHES: 0 DROPPED PREFETCHES: 0
L1I COMMIT LATE PREFETCHES: 0 NORMAL LATE: 0 MISSED OPPORTUNITY: 0 UNCOVERED: 0
L1I PREFETCHES SAME FILL-ORIGIN LEVEL: 0 DIFFERENT FILL-ORIGIN LEVEL: 0
L1I AVERAGE MISS LATENCY: 202.435 cycles
L1I AVERAGE MISS LATENCY LOAD: 202.435 cycles
L1I AVERAGE MISS LATENCY PREFETCH: -nan cycles
L1I AVERAGE MSHR OCCUPANCY: 1.50078e-07
L1I MSHR FULL: 0
L1I RQ	ACCESS:   71070796	FORWARD:          0	MERGED:   11101956	TO_CACHE:   59968840

BTB SPEC fills:          0  NON-SPEC fills:          0
BTB Test counter :          0
BTB Leapfrog:          0
BTB MSHR merge:          0
BTB TOTAL     ACCESS:   37026577  HIT:   37026405  MISS:        172  HIT %:    99.9995  MISS %: 0.000464531   MPKI: 0.00086
BTB BRANCH_DIRECT_JUMP	ACCESS:         66  HIT:         33  MISS:         33
BTB BRANCH_INDIRECT	ACCESS:          4  HIT:          0  MISS:          4
BTB BRANCH_CONDITIONAL	ACCESS:   37026441  HIT:   37026352  MISS:         89
BTB BRANCH_DIRECT_CALL	ACCESS:         28  HIT:         10  MISS:         18
BTB BRANCH_INDIRECT_CALL	ACCESS:          5  HIT:          1  MISS:          4
BTB BRANCH_RETURN	ACCESS:         33  HIT:          9  MISS:         24
BTB BRANCH_OTHER ACCESS:          0  HIT:          0  MISS:          0

L2C SPEC fills:          0  NON-SPEC fills:   23143747
L2C Test counter :          0
L2C Leapfrog:          0
L2C MSHR merge:     342224
L2C TOTAL     ACCESS:   43155182  HIT:   15068491  MISS:   28086691  HIT %:     34.917  MISS %:     65.083   MPKI: 140.433
L2C LOAD      TOTAL       ACCESS:   34494882  HIT:   11215382  MISS:   23279500  HIT %:    32.5132  MISS %:    67.4868   MPKI: 116.397
L2C LOAD      NON_SPEC    ACCESS:   31921671  HIT:    8777901  MISS:   23143770  HIT %:    27.4983  MISS %:    72.5017   MPKI: 115.719
L2C LOAD      SPEC        ACCESS:    2573211  HIT:    2437481  MISS:     135730  HIT %:    94.7253  MISS %:    5.27473   MPKI: 0.67865
L2C RFO       NON_SPEC    ACCESS:      65559  HIT:        130  MISS:      65429  HIT %:   0.198295  MISS %:    99.8017   MPKI: 0.327145
L2C PREFETCH  NON_SPEC    ACCESS:    5784502  HIT:    1129475  MISS:    4655027  HIT %:    19.5259  MISS %:    80.4741   MPKI: 23.2751
L2C WRITEBACK NON_SPEC    ACCESS:      72913  HIT:      72909  MISS:          4  HIT %:    99.9945  MISS %: 0.00548599   MPKI: 2e-05
L2C CLEAN_EVICTION NON_SPEC    ACCESS:    2532726  HIT:    2458897  MISS:      73829  HIT %:     97.085  MISS %:      2.915   MPKI: 0.369145
L2C COMMIT LOAD NON_SPEC    ACCESS:        557  HIT:        547  MISS:         10  HIT %:    98.2047  MISS %:    1.79533   MPKI: 5e-05
L2C LOAD TRANSLATION NON_SPEC    ACCESS:     204043  HIT:     191151  MISS:      12892  HIT %:    93.6817  MISS %:    6.31828   MPKI: 0.06446
L2C PREFETCH  REQUESTED:    9897924  ISSUED:    9897924  USEFUL:    2607304  USELESS:    2047787
L2C USEFUL LOAD PREFETCHES:    2607304 PREFETCH ISSUED TO LOWER LEVEL:    8709310  ACCURACY: 29.937
L2C TIMELY PREFETCHES:    2607304 LATE PREFETCHES: 342225 DROPPED PREFETCHES: 0
L2C COMMIT LATE PREFETCHES: 46687 NORMAL LATE: 341780 MISSED OPPORTUNITY: 2195 UNCOVERED: 22888839
L2C PREFETCHES SAME FILL-ORIGIN LEVEL: 4997252 DIFFERENT FILL-ORIGIN LEVEL: 3712058
L2C AVERAGE MISS LATENCY: 117.559 cycles
L2C AVERAGE MISS LATENCY LOAD: 107.679 cycles
L2C AVERAGE MISS LATENCY PREFETCH: 167.214 cycles
L2C AVERAGE MSHR OCCUPANCY: 0.343645
L2C MSHR FULL: 0
L2C RQ	ACCESS:   34765041	FORWARD:          0	MERGED:          0	TO_CACHE:   34765041
L2C WQ	ACCESS:    2605640	FORWARD:          0	MERGED:          0	TO_CACHE:    2605640
L2C PQ	ACCESS:    9897924	FORWARD:          0	MERGED:      35586	TO_CACHE:    9862338

L2C Instructions Evicting Data 23
L2C Translations Evicting Data 12892
L2C Data Evicting Data 27851372
L2C Instructions Evicting Instructions 0
L2C Translations Evicting Instructions 0
L2C Data Evicting Instructions 23
L2C Instructions Evicting Translations 0
L2C Translations Evicting Translations 0
L2C Data Evicting Translations 12818
L2C Dense regions hint from L2: 0
PSCL5 SPEC fills:          0  NON-SPEC fills:          0
PSCL5 Test counter :          0
PSCL5 Leapfrog:          0
PSCL5 MSHR merge:          0
PSCL5 TOTAL     ACCESS:          0  HIT:          0  MISS:          0  HIT %:       -nan  MISS %:       -nan   MPKI: 0
PSCL5 PREFETCH  REQUESTED:          0  ISSUED:          0  USEFUL:          0  USELESS:          0
PSCL5 USEFUL LOAD PREFETCHES:          0 PREFETCH ISSUED TO LOWER LEVEL:          0  ACCURACY: -nan
PSCL5 TIMELY PREFETCHES:          0 LATE PREFETCHES: 0 DROPPED PREFETCHES: 0
PSCL5 COMMIT LATE PREFETCHES: 0 NORMAL LATE: 0 MISSED OPPORTUNITY: 0 UNCOVERED: 0
PSCL5 PREFETCHES SAME FILL-ORIGIN LEVEL: 0 DIFFERENT FILL-ORIGIN LEVEL: 0

PSCL4 SPEC fills:          0  NON-SPEC fills:          0
PSCL4 Test counter :          0
PSCL4 Leapfrog:          0
PSCL4 MSHR merge:          0
PSCL4 TOTAL     ACCESS:          0  HIT:          0  MISS:          0  HIT %:       -nan  MISS %:       -nan   MPKI: 0
PSCL4 PREFETCH  REQUESTED:          0  ISSUED:          0  USEFUL:          0  USELESS:          0
PSCL4 USEFUL LOAD PREFETCHES:          0 PREFETCH ISSUED TO LOWER LEVEL:          0  ACCURACY: -nan
PSCL4 TIMELY PREFETCHES:          0 LATE PREFETCHES: 0 DROPPED PREFETCHES: 0
PSCL4 COMMIT LATE PREFETCHES: 0 NORMAL LATE: 0 MISSED OPPORTUNITY: 0 UNCOVERED: 0
PSCL4 PREFETCHES SAME FILL-ORIGIN LEVEL: 0 DIFFERENT FILL-ORIGIN LEVEL: 0

PSCL3 SPEC fills:          0  NON-SPEC fills:          0
PSCL3 Test counter :          0
PSCL3 Leapfrog:          0
PSCL3 MSHR merge:          0
PSCL3 TOTAL     ACCESS:          0  HIT:          0  MISS:          0  HIT %:       -nan  MISS %:       -nan   MPKI: 0
PSCL3 PREFETCH  REQUESTED:          0  ISSUED:          0  USEFUL:          0  USELESS:          0
PSCL3 USEFUL LOAD PREFETCHES:          0 PREFETCH ISSUED TO LOWER LEVEL:          0  ACCURACY: -nan
PSCL3 TIMELY PREFETCHES:          0 LATE PREFETCHES: 0 DROPPED PREFETCHES: 0
PSCL3 COMMIT LATE PREFETCHES: 0 NORMAL LATE: 0 MISSED OPPORTUNITY: 0 UNCOVERED: 0
PSCL3 PREFETCHES SAME FILL-ORIGIN LEVEL: 0 DIFFERENT FILL-ORIGIN LEVEL: 0

PSCL2 SPEC fills:          0  NON-SPEC fills:          0
PSCL2 Test counter :          0
PSCL2 Leapfrog:          0
PSCL2 MSHR merge:          0
PSCL2 TOTAL     ACCESS:          0  HIT:          0  MISS:          0  HIT %:       -nan  MISS %:       -nan   MPKI: 0
PSCL2 PREFETCH  REQUESTED:          0  ISSUED:          0  USEFUL:          0  USELESS:          0
PSCL2 USEFUL LOAD PREFETCHES:          0 PREFETCH ISSUED TO LOWER LEVEL:          0  ACCURACY: -nan
PSCL2 TIMELY PREFETCHES:          0 LATE PREFETCHES: 0 DROPPED PREFETCHES: 0
PSCL2 COMMIT LATE PREFETCHES: 0 NORMAL LATE: 0 MISSED OPPORTUNITY: 0 UNCOVERED: 0
PSCL2 PREFETCHES SAME FILL-ORIGIN LEVEL: 0 DIFFERENT FILL-ORIGIN LEVEL: 0

LLC SPEC fills:          0  NON-SPEC fills:   10956516
LLC Test counter :          0
LLC Leapfrog:          0
LLC MSHR merge:      69775
LLC TOTAL     ACCESS:   34176040  HIT:   16633087  MISS:   17542953  HIT %:    48.6689  MISS %:    51.3311   MPKI: 87.7148
LLC LOAD      TOTAL       ACCESS:   22937276  HIT:   11868299  MISS:   11068977  HIT %:    51.7424  MISS %:    48.2576   MPKI: 55.3449
LLC LOAD      NON_SPEC    ACCESS:   22821722  HIT:   11865183  MISS:   10956539  HIT %:    51.9907  MISS %:    48.0093   MPKI: 54.7827
LLC LOAD      SPEC        ACCESS:     115554  HIT:       3116  MISS:     112438  HIT %:    2.69657  MISS %:    97.3034   MPKI: 0.56219
LLC RFO       NON_SPEC    ACCESS:      65429  HIT:       1456  MISS:      63973  HIT %:    2.22531  MISS %:    97.7747   MPKI: 0.319865
LLC PREFETCH  NON_SPEC    ACCESS:    8580347  HIT:    2227223  MISS:    6353124  HIT %:    25.9573  MISS %:    74.0427   MPKI: 31.7656
LLC WRITEBACK NON_SPEC    ACCESS:      66129  HIT:      65884  MISS:        245  HIT %:    99.6295  MISS %:   0.370488   MPKI: 0.001225
LLC CLEAN_EVICTION NON_SPEC    ACCESS:    2513958  HIT:    2463657  MISS:      50301  HIT %:    97.9991  MISS %:    2.00087   MPKI: 0.251505
LLC COMMIT LOAD NON_SPEC    ACCESS:          9  HIT:          4  MISS:          5  HIT %:    44.4444  MISS %:    55.5556   MPKI: 2.5e-05
LLC LOAD TRANSLATION NON_SPEC    ACCESS:      12892  HIT:       6564  MISS:       6328  HIT %:    50.9153  MISS %:    49.0847   MPKI: 0.03164
LLC PREFETCH  REQUESTED:          0  ISSUED:          0  USEFUL:     768584  USELESS:    5585141
LLC USEFUL LOAD PREFETCHES:     768584 PREFETCH ISSUED TO LOWER LEVEL:    6422899  ACCURACY: 11.9663
LLC TIMELY PREFETCHES:     768584 LATE PREFETCHES: 69775 DROPPED PREFETCHES: 0
LLC COMMIT LATE PREFETCHES: 0 NORMAL LATE: 0 MISSED OPPORTUNITY: 0 UNCOVERED: 0
LLC PREFETCHES SAME FILL-ORIGIN LEVEL: 2210922 DIFFERENT FILL-ORIGIN LEVEL: 0
LLC AVERAGE MISS LATENCY: 159.376 cycles
LLC AVERAGE MISS LATENCY LOAD: 160.798 cycles
LLC AVERAGE MISS LATENCY PREFETCH: 157.667 cycles
LLC AVERAGE MSHR OCCUPANCY: 0.379061
LLC MSHR FULL: 0
LLC RQ	ACCESS:   23015606	FORWARD:          0	MERGED:          0	TO_CACHE:   23015606
LLC WQ	ACCESS:    2580087	FORWARD:          0	MERGED:          0	TO_CACHE:    2580087
LLC PQ	ACCESS:    8709310	FORWARD:          0	MERGED:      35479	TO_CACHE:    8673831

LLC Dense regions hint to LLC: 0

RAW hits: 21
Loads Generated: 77353336
Loads sent to L1D: 77353314
Stores Generated: 3300603
Stores sent to L1D: 3300603
Major fault: 0 Minor fault: 34900
Allocated PAGES: 34900
Total Load insts: 95642810
Total Non-spec loads: 44868834
Percentage of speculative loads: 53.0871

LeapFrogging counter: 0
Commit hits: 5534714 miss: 34217242
Commit hit %: 13.9231 miss %: 86.0769
Commits not translated: 0
Loads retired: 34494857
Stores retired: 3300603
Cache fills: 34494859
L1D response latency: 87.2802 cycles
Load retirement latency: 238.516 cycles
OOO test counter: 0
Discarded buffer inserts: 5534714 hits: 57647 hit %: 1.04155
Filter prediction accuracy: -nan
------------------
Depth Distribution
------------------
depth 0: 33657258
depth 1: 4885337
depth 2: 638545
depth 3: 1394207
depth 4: 690367
depth 5: 48679
depth 6: 222
depth 7: 1033
depth 8: 27255
depth 9: 208435
depth 10: 48866
depth 11: 103622
depth 12: 5205
depth 13: 524
depth 14: 466
depth 15: 49
depth 16: 30
depth 17: 10
depth 18: 9
depth 19: 1
depth 20: 0
depth 21: 0
depth 22: 0
depth 23: 0
depth 24: 0
depth 25: 0
depth 26: 0
depth 27: 0
depth 28: 0
depth 29: 0
Total: 41710120
------------------
ST read accesses: 15543942
ST write accesses: 18950917
PT read accesses: 259460895
PT write accesses: 15537411
FILTER read accesses: 215635043
FILTER write accesses: 249923031
GHR read accesses: 158834761
GHR write accesses: 760416
PERC read accesses: 1745592804
PERC write accesses: 81185842
GHR counter read accesses: 68989718
GHR counter write accesses: 43555448
GHR ip read accesses: 206675925
GHR ip write accesses: 137979436
ST tag read accesses: 22966563838
ST tag write accesses: 5360935110
------------------
Depth Distribution
------------------
depth 0: 46708301
depth 1: 36204724
depth 2: 4710875
depth 3: 1854333
depth 4: 3301658
depth 5: 1574825
depth 6: 403263
depth 7: 209019
depth 8: 103776
depth 9: 94400
depth 10: 136022
depth 11: 169189
depth 12: 123584
depth 13: 34944
depth 14: 10298
depth 15: 2917
depth 16: 705
depth 17: 101
depth 18: 5
depth 19: 0
depth 20: 0
depth 21: 0
depth 22: 0
depth 23: 0
depth 24: 0
depth 25: 0
depth 26: 0
depth 27: 0
depth 28: 0
depth 29: 0
Total: 95642939
------------------
ST read accesses: 57747384
ST write accesses: 19605951
PT read accesses: 709971848
PT write accesses: 19382902
FILTER read accesses: 264892777
FILTER write accesses: 100530063
GHR read accesses: 178979776
GHR write accesses: 4028671
PERC read accesses: 5245426026
PERC write accesses: 86098156
GHR counter read accesses: 154706670
GHR counter write accesses: 87801401
GHR ip read accesses: 352943427
GHR ip write accesses: 309413340
ST tag read accesses: 39775686990
ST tag write accesses: 5712899793

DRAM Statistics
 CHANNEL 0
 RQ ROW_BUFFER_HIT:    2519939  ROW_BUFFER_MISS:   14972465
 DBUS_CONGESTED:      20084
 WQ ROW_BUFFER_HIT:     963945  ROW_BUFFER_MISS:    1615425  FULL:          0

 AVG_CONGESTED_CYCLE: 2
 All warmup complete: 2
Channel 0 Bank busy for read cycles: 0
Channel 0 Bank busy for write cycles: 0
Channel 0
Rank 0
0banks busy for read cycles: 1325280355
0banks busy for write cycles: 1591245
1banks busy for read cycles: 1595269594
1banks busy for write cycles: 330197981
2banks busy for read cycles: 261698061
2banks busy for write cycles: 70420399
3banks busy for read cycles: 57392466
3banks busy for write cycles: 19572912
4banks busy for read cycles: 14752349
4banks busy for write cycles: 7869602
5banks busy for read cycles: 3573466
5banks busy for write cycles: 4326653
6banks busy for read cycles: 838824
6banks busy for write cycles: 3249907
7banks busy for read cycles: 52017
7banks busy for write cycles: 4368349
8banks busy for read cycles: 1977
8banks busy for write cycles: 11449527

CPU 0 Branch Prediction Accuracy: 96.9582% MPKI: 5.63138 Average ROB Occupancy at Mispredict: 137.555
Branch types
NOT_BRANCH: 162973200 81.4866%
BRANCH_DIRECT_JUMP: 66 3.3e-05%
BRANCH_INDIRECT: 4 2e-06%
BRANCH_CONDITIONAL: 37026665 18.5133%
BRANCH_DIRECT_CALL: 28 1.4e-05%
BRANCH_INDIRECT_CALL: 5 2.5e-06%
BRANCH_RETURN: 33 1.65e-05%
BRANCH_OTHER: 0 0%

DRAM PAGES: 1048576
Allocated PAGES: 34900
