
*** ChampSim Multicore Out-of-Order Simulator ***

Warmup Instructions: 50000000
Simulation Instructions: 200000000
Number of CPUs: 1
LLC sets: 2048
LLC ways: 16
L0D sets: 16
L0D ways: 2
ROB size: 352
LQ size: 128
SQ size: 72
Secure Berti: OFF
Berti: OFF
Berti Fill: OFF
On commit prefetching: ON
Hit-based filter: ON
Time-guarding: ON
Free-slotting: ON
Leap-frogging: ON
Train prefetcher on L0D bypass: OFF
No translation penalty for prefetchers: OFF
Prefetch to L0D only: OFF
Prefetch to L1D only: OFF
Clean evictions: ON
Commit loads: ON
Commit write: ON
Fill commit loads to L2C, LLC: ON
DRAM IO FREQUENCY: 6400
ROB SIZE: 352
Off-chip DRAM Size: 4096 MB Channels: 1 Width: 64-bit Data Rate: 6400 MT/s
CPU 0 runs /home/sumon/secure_berti/GhostMinion/../../traces/gap/bc-12.trace.gz
.gz
BTB has LRU replacement policy
ITLB has LRU replacement policy
DTLB has LRU replacement policy
STLB has LRU replacement policy
L1I has LRU replacement policy
L0D has LRU replacement policy
IP Table Entries: 1024
CSPT Entries: 128
RR_ENTRIES: 32
RST_ENTRIES: 8
L1D has LRU replacement policy
L2C has LRU replacement policy
LLC has LRU replacement policy
Heartbeat CPU 0 instructions: 10000001 cycles: 3902145 heartbeat IPC: 2.56269 cumulative IPC: 2.56269 (Simulation time: 0 hr 1 min 56 sec) 
Heartbeat CPU 0 instructions: 20000000 cycles: 7467130 heartbeat IPC: 2.80506 cumulative IPC: 2.67841 (Simulation time: 0 hr 3 min 30 sec) 
Heartbeat CPU 0 instructions: 30000002 cycles: 11067530 heartbeat IPC: 2.77747 cumulative IPC: 2.71063 (Simulation time: 0 hr 4 min 35 sec) 
Heartbeat CPU 0 instructions: 40000000 cycles: 14661922 heartbeat IPC: 2.78211 cumulative IPC: 2.72816 (Simulation time: 0 hr 5 min 40 sec) 
Heartbeat CPU 0 instructions: 50000001 cycles: 18221573 heartbeat IPC: 2.80926 cumulative IPC: 2.744 (Simulation time: 0 hr 6 min 45 sec) 

Warmup complete CPU 0 instructions: 50000001 cycles: 18221573 (Simulation time: 0 hr 6 min 45 sec) 

Heartbeat CPU 0 instructions: 60000000 cycles: 96666135 heartbeat IPC: 0.127479 cumulative IPC: 0.127479 (Simulation time: 0 hr 8 min 8 sec) 
Heartbeat CPU 0 instructions: 70000002 cycles: 175827215 heartbeat IPC: 0.126325 cumulative IPC: 0.126899 (Simulation time: 0 hr 9 min 32 sec) 
Heartbeat CPU 0 instructions: 80000001 cycles: 254716334 heartbeat IPC: 0.12676 cumulative IPC: 0.126853 (Simulation time: 0 hr 10 min 54 sec) 
Heartbeat CPU 0 instructions: 90000002 cycles: 334385262 heartbeat IPC: 0.125519 cumulative IPC: 0.126517 (Simulation time: 0 hr 12 min 12 sec) 
Heartbeat CPU 0 instructions: 100000001 cycles: 413844525 heartbeat IPC: 0.125851 cumulative IPC: 0.126383 (Simulation time: 0 hr 13 min 23 sec) 
Heartbeat CPU 0 instructions: 110000000 cycles: 493546570 heartbeat IPC: 0.125467 cumulative IPC: 0.126229 (Simulation time: 0 hr 14 min 32 sec) 
Heartbeat CPU 0 instructions: 120000001 cycles: 572821275 heartbeat IPC: 0.126144 cumulative IPC: 0.126217 (Simulation time: 0 hr 15 min 38 sec) 
Heartbeat CPU 0 instructions: 130000000 cycles: 652564738 heartbeat IPC: 0.125402 cumulative IPC: 0.126115 (Simulation time: 0 hr 16 min 40 sec) 
Heartbeat CPU 0 instructions: 140000000 cycles: 731686971 heartbeat IPC: 0.126387 cumulative IPC: 0.126145 (Simulation time: 0 hr 17 min 42 sec) 
Heartbeat CPU 0 instructions: 150000000 cycles: 811596092 heartbeat IPC: 0.125142 cumulative IPC: 0.126044 (Simulation time: 0 hr 18 min 45 sec) 
Heartbeat CPU 0 instructions: 160000001 cycles: 890917870 heartbeat IPC: 0.126069 cumulative IPC: 0.126046 (Simulation time: 0 hr 19 min 46 sec) 
Heartbeat CPU 0 instructions: 170000003 cycles: 969634775 heartbeat IPC: 0.127038 cumulative IPC: 0.126128 (Simulation time: 0 hr 20 min 47 sec) 
Heartbeat CPU 0 instructions: 180000001 cycles: 1049115129 heartbeat IPC: 0.125817 cumulative IPC: 0.126104 (Simulation time: 0 hr 21 min 47 sec) 
Heartbeat CPU 0 instructions: 190000003 cycles: 1125705620 heartbeat IPC: 0.130565 cumulative IPC: 0.126413 (Simulation time: 0 hr 22 min 47 sec) 
Heartbeat CPU 0 instructions: 200000000 cycles: 1205211334 heartbeat IPC: 0.125777 cumulative IPC: 0.12637 (Simulation time: 0 hr 23 min 48 sec) 
Heartbeat CPU 0 instructions: 210000002 cycles: 1284487863 heartbeat IPC: 0.126141 cumulative IPC: 0.126356 (Simulation time: 0 hr 24 min 49 sec) 
Heartbeat CPU 0 instructions: 220000000 cycles: 1363916076 heartbeat IPC: 0.1259 cumulative IPC: 0.126329 (Simulation time: 0 hr 25 min 49 sec) 
Heartbeat CPU 0 instructions: 230000001 cycles: 1443237234 heartbeat IPC: 0.12607 cumulative IPC: 0.126314 (Simulation time: 0 hr 26 min 50 sec) 
Heartbeat CPU 0 instructions: 240000001 cycles: 1522896583 heartbeat IPC: 0.125535 cumulative IPC: 0.126273 (Simulation time: 0 hr 27 min 51 sec) 
Heartbeat CPU 0 instructions: 250000003 cycles: 1601916459 heartbeat IPC: 0.12655 cumulative IPC: 0.126287 (Simulation time: 0 hr 28 min 50 sec) 
Finished CPU 0 instructions: 200000002 cycles: 1583694886 cumulative IPC: 0.126287 (Simulation time: 0 hr 28 min 50 sec) 
 Instruction ID: 250000063

ChampSim completed all CPUs

Region of Interest Statistics

CPU 0 cumulative IPC: 0.126287 instructions: 200000002 cycles: 1583694886
ITLB SPEC fills:          0  NON-SPEC fills:          0
ITLB Test counter :          0
ITLB Leapfrog:          0
ITLB MSHR merge:          0
ITLB TOTAL     ACCESS:   36669426  HIT:   36669426  MISS:          0  HIT %:        100  MISS %:          0   MPKI: 0
ITLB LOAD TRANSLATION NON_SPEC    ACCESS:   36669426  HIT:   36669426  MISS:          0  HIT %:        100  MISS %:          0   MPKI: 0
ITLB PREFETCH  REQUESTED:          0  ISSUED:          0  USEFUL:          0  USELESS:          0
ITLB USEFUL LOAD PREFETCHES:          0 PREFETCH ISSUED TO LOWER LEVEL:          0  ACCURACY: -nan
ITLB TIMELY PREFETCHES:          0 LATE PREFETCHES: 0 DROPPED PREFETCHES: 0
ITLB COMMIT LATE PREFETCHES: 0 MISSED OPPORTUNITY: 0 LATE IN PQ: 0 UNCOVERED: 0
ITLB COMMIT LATE MSHR PREFETCHES: 0
ITLB MPKI TOTAL: 0 MSHR LATE: 0 PQ LATE: 0 COMMIT LATE: 0 MISSED OPPORTUNITY: 0 UNCOVERED: 0
ITLB PREFETCHES SAME FILL-ORIGIN LEVEL: 0 DIFFERENT FILL-ORIGIN LEVEL: 0
ITLB AVERAGE MISS LATENCY: -nan cycles
ITLB AVERAGE MISS LATENCY LOAD: -nan cycles
ITLB AVERAGE MISS LATENCY PREFETCH: -nan cycles
ITLB AVERAGE MSHR OCCUPANCY: 0
ITLB MSHR FULL: 0
ITLB RQ	ACCESS:   36968332	FORWARD:          0	MERGED:     298906	TO_CACHE:   36669426

DTLB SPEC fills:          0  NON-SPEC fills:          0
DTLB Test counter :          0
DTLB Leapfrog:          0
DTLB MSHR merge:          0
DTLB TOTAL     ACCESS:   60060774  HIT:   51554314  MISS:    8506460  HIT %:    85.8369  MISS %:    14.1631   MPKI: 42.5323
DTLB LOAD TRANSLATION NON_SPEC    ACCESS:   60060774  HIT:   51554314  MISS:    8506460  HIT %:    85.8369  MISS %:    14.1631   MPKI: 42.5323
DTLB PREFETCH  REQUESTED:          0  ISSUED:          0  USEFUL:          0  USELESS:          0
DTLB USEFUL LOAD PREFETCHES:          0 PREFETCH ISSUED TO LOWER LEVEL:          0  ACCURACY: -nan
DTLB TIMELY PREFETCHES:          0 LATE PREFETCHES: 0 DROPPED PREFETCHES: 0
DTLB COMMIT LATE PREFETCHES: 0 MISSED OPPORTUNITY: 0 LATE IN PQ: 0 UNCOVERED: 0
DTLB COMMIT LATE MSHR PREFETCHES: 0
DTLB MPKI TOTAL: 0 MSHR LATE: 0 PQ LATE: 0 COMMIT LATE: 0 MISSED OPPORTUNITY: 0 UNCOVERED: 0
DTLB PREFETCHES SAME FILL-ORIGIN LEVEL: 0 DIFFERENT FILL-ORIGIN LEVEL: 0
DTLB AVERAGE MISS LATENCY: 42.4743 cycles
DTLB AVERAGE MISS LATENCY LOAD: -nan cycles
DTLB AVERAGE MISS LATENCY PREFETCH: -nan cycles
DTLB AVERAGE MSHR OCCUPANCY: 0.252267
DTLB MSHR FULL: 0.000477155
DTLB RQ	ACCESS:   66045280	FORWARD:          0	MERGED:    5230018	TO_CACHE:   60815262

STLB SPEC fills:          0  NON-SPEC fills:          0
STLB Test counter :          0
STLB Leapfrog:          0
STLB MSHR merge:          0
STLB TOTAL     ACCESS:   22729594  HIT:   19376453  MISS:    3353141  HIT %:    85.2477  MISS %:    14.7523   MPKI: 16.7657
STLB LOAD TRANSLATION NON_SPEC    ACCESS:    8506460  HIT:    5153816  MISS:    3352644  HIT %:    60.5871  MISS %:    39.4129   MPKI: 16.7632
STLB TRANSLATION FROM L1D PREFETCHER NON_SPEC    ACCESS:   14223134  HIT:   14222637  MISS:        497  HIT %:    99.9965  MISS %: 0.00349431   MPKI: 0.002485
STLB PREFETCH  REQUESTED:          0  ISSUED:          0  USEFUL:        452  USELESS:         45
STLB USEFUL LOAD PREFETCHES:        452 PREFETCH ISSUED TO LOWER LEVEL:          0  ACCURACY: inf
STLB TIMELY PREFETCHES:        452 LATE PREFETCHES: 0 DROPPED PREFETCHES: 0
STLB COMMIT LATE PREFETCHES: 0 MISSED OPPORTUNITY: 0 LATE IN PQ: 0 UNCOVERED: 0
STLB COMMIT LATE MSHR PREFETCHES: 0
STLB MPKI TOTAL: 0 MSHR LATE: 0 PQ LATE: 0 COMMIT LATE: 0 MISSED OPPORTUNITY: 0 UNCOVERED: 0
STLB PREFETCHES SAME FILL-ORIGIN LEVEL: 0 DIFFERENT FILL-ORIGIN LEVEL: 0
STLB AVERAGE MISS LATENCY: 84.8595 cycles
STLB AVERAGE MISS LATENCY LOAD: -nan cycles
STLB AVERAGE MISS LATENCY PREFETCH: -nan cycles
STLB AVERAGE MSHR OCCUPANCY: 0.175049
STLB MSHR FULL: 0
STLB RQ	ACCESS:   26088164	FORWARD:          0	MERGED:    3358512	TO_CACHE:   22729652

STLB Hit, L1D data hit: 0
STLB Hit, L2C data hit: 0
STLB Hit, LLC data hit: 0
STLB Hit, LLC data miss: 0
STLB STLB hints to L2: 0
L0D SPEC fills:   35564815  NON-SPEC fills:          0
L0D TimeGuard Request with older TS:     400464 Restricted eviction:     399153 read:          4
L0D Test counter :          0
L0D Leapfrog:          0
L0D MSHR merge:     262997
L0D TOTAL     ACCESS:   54537347  HIT:    9166478  MISS:   45370869  HIT %:    16.8077  MISS %:    83.1923   MPKI: 226.854
L0D LOAD      TOTAL       ACCESS:   54537347  HIT:    9166478  MISS:   45370869  HIT %:    16.8077  MISS %:    83.1923   MPKI: 226.854
L0D LOAD      NON_SPEC    ACCESS:    9415098  HIT:       8115  MISS:    9406983  HIT %:  0.0861913  MISS %:    99.9138   MPKI: 47.0349
L0D LOAD      SPEC        ACCESS:   45122249  HIT:    9158363  MISS:   35963886  HIT %:    20.2968  MISS %:    79.7032   MPKI: 179.819
L0D PREFETCH  REQUESTED:          0  ISSUED:          0  USEFUL:          0  USELESS:          0
L0D USEFUL LOAD PREFETCHES:          0 PREFETCH ISSUED TO LOWER LEVEL:          0  ACCURACY: -nan
L0D TIMELY PREFETCHES:          0 LATE PREFETCHES: 0 DROPPED PREFETCHES: 0
L0D COMMIT LATE PREFETCHES: 0 MISSED OPPORTUNITY: 0 LATE IN PQ: 0 UNCOVERED: 0
L0D COMMIT LATE MSHR PREFETCHES: 0
L0D MPKI TOTAL: 228.169 MSHR LATE: 0 PQ LATE: 0 COMMIT LATE: 0 MISSED OPPORTUNITY: 0 UNCOVERED: 0
L0D PREFETCHES SAME FILL-ORIGIN LEVEL: 0 DIFFERENT FILL-ORIGIN LEVEL: 0
L0D AVERAGE MISS LATENCY: 59.8314 cycles
L0D AVERAGE MISS LATENCY LOAD: 59.8314 cycles
L0D AVERAGE MISS LATENCY PREFETCH: -nan cycles
L0D AVERAGE MSHR OCCUPANCY: 1.71657
L0D MSHR FULL: 0.0775554
L0D RQ	ACCESS:   55491678	FORWARD:          0	MERGED:     691336	TO_CACHE:   54800342
L0D WQ	ACCESS:   11244938	FORWARD:          0	MERGED:          0	TO_CACHE:   11244938

L1D SPEC fills:          0  NON-SPEC fills:    3653110
L1D Test counter :          0
L1D Leapfrog:          0
L1D MSHR merge:     218521
L1D TOTAL     ACCESS:   84410075  HIT:   38323329  MISS:   46086746  HIT %:    45.4014  MISS %:    54.5986   MPKI: 230.434
L1D LOAD      TOTAL       ACCESS:   45368907  HIT:   28759330  MISS:   16609577  HIT %:      63.39  MISS %:      36.61   MPKI: 83.0479
L1D LOAD      NON_SPEC    ACCESS:    9405512  HIT:    5752402  MISS:    3653110  HIT %:    61.1599  MISS %:    38.8401   MPKI: 18.2655
L1D LOAD      SPEC        ACCESS:   35963395  HIT:   23006928  MISS:   12956467  HIT %:    63.9732  MISS %:    36.0268   MPKI: 64.7823
L1D RFO       NON_SPEC    ACCESS:    8566146  HIT:    8534140  MISS:      32006  HIT %:    99.6264  MISS %:   0.373634   MPKI: 0.16003
L1D PREFETCH  NON_SPEC    ACCESS:   17199650  HIT:     689438  MISS:   16510212  HIT %:    4.00844  MISS %:    95.9916   MPKI: 82.5511
L1D COMMIT LOAD NON_SPEC    ACCESS:     508387  HIT:     311798  MISS:     196589  HIT %:    61.3308  MISS %:    38.6692   MPKI: 0.982945
L1D COMMIT WRITE NON_SPEC    ACCESS:   12766985  HIT:      28623  MISS:   12738362  HIT %:   0.224195  MISS %:    99.7758   MPKI: 63.6918
L1D PREFETCH  REQUESTED:   17581737  ISSUED:   17581704  USEFUL:     766314  USELESS:   15743890
L1D USEFUL LOAD PREFETCHES:     766314 PREFETCH ISSUED TO LOWER LEVEL:   16737001  ACCURACY: 4.57856
L1D TIMELY PREFETCHES:     766314 LATE PREFETCHES: 219303 DROPPED PREFETCHES: 0
L1D COMMIT LATE PREFETCHES: 0 MISSED OPPORTUNITY: 0 LATE IN PQ: 0 UNCOVERED: 0
L1D COMMIT LATE MSHR PREFETCHES: 0
L1D MPKI TOTAL: 83.0577 MSHR LATE: 1.09651 PQ LATE: 0 COMMIT LATE: 0 MISSED OPPORTUNITY: 0 UNCOVERED: 0
L1D PREFETCHES SAME FILL-ORIGIN LEVEL: 16737001 DIFFERENT FILL-ORIGIN LEVEL: 0
L1D AVERAGE MISS LATENCY: 119.35 cycles
L1D AVERAGE MISS LATENCY LOAD: 148.53 cycles
L1D AVERAGE MISS LATENCY PREFETCH: 182.498 cycles
L1D AVERAGE MSHR OCCUPANCY: 3.18027
L1D MSHR FULL: 0.0112252
L1D RQ	ACCESS:   45915644	FORWARD:          0	MERGED:      35455	TO_CACHE:   45880183
L1D WQ	ACCESS:   24011926	FORWARD:          6	MERGED:    2607550	TO_CACHE:   21404376
L1D PQ	ACCESS:   17581704	FORWARD:          0	MERGED:          0	TO_CACHE:   17581704

L1D UNIQUE REGIONS ACCESSED: 0
L1D REGIONS CONFLICTS: 0
L1D Cross Page Prefetch Requests: 0
L1D Same Page Prefetch Requests: 21949206
L1D ROI Sum of L1D PQ occupancy: 242145427
L1D PREFETCHES PUSHED FROM L2C: 0
L1I SPEC fills:          0  NON-SPEC fills:          0
L1I Test counter :          0
L1I Leapfrog:          0
L1I MSHR merge:          0
L1I TOTAL     ACCESS:   36968331  HIT:   36968331  MISS:          0  HIT %:        100  MISS %:          0   MPKI: 0
L1I LOAD      TOTAL       ACCESS:   36968331  HIT:   36968331  MISS:          0  HIT %:        100  MISS %:          0   MPKI: 0
L1I LOAD      NON_SPEC    ACCESS:   36968331  HIT:   36968331  MISS:          0  HIT %:        100  MISS %:          0   MPKI: 0
L1I PREFETCH  REQUESTED:          0  ISSUED:          0  USEFUL:          0  USELESS:          0
L1I USEFUL LOAD PREFETCHES:          0 PREFETCH ISSUED TO LOWER LEVEL:          0  ACCURACY: -nan
L1I TIMELY PREFETCHES:          0 LATE PREFETCHES: 0 DROPPED PREFETCHES: 0
L1I COMMIT LATE PREFETCHES: 0 MISSED OPPORTUNITY: 0 LATE IN PQ: 0 UNCOVERED: 0
L1I COMMIT LATE MSHR PREFETCHES: 0
L1I MPKI TOTAL: 0 MSHR LATE: 0 PQ LATE: 0 COMMIT LATE: 0 MISSED OPPORTUNITY: 0 UNCOVERED: 0
L1I PREFETCHES SAME FILL-ORIGIN LEVEL: 0 DIFFERENT FILL-ORIGIN LEVEL: 0
L1I AVERAGE MISS LATENCY: -nan cycles
L1I AVERAGE MISS LATENCY LOAD: -nan cycles
L1I AVERAGE MISS LATENCY PREFETCH: -nan cycles
L1I AVERAGE MSHR OCCUPANCY: 0
L1I MSHR FULL: 0
L1I RQ	ACCESS:   48283868	FORWARD:          0	MERGED:   11315536	TO_CACHE:   36968332

BTB SPEC fills:          0  NON-SPEC fills:          0
BTB Test counter :          0
BTB Leapfrog:          0
BTB MSHR merge:          0
BTB TOTAL     ACCESS:   35189021  HIT:   35189007  MISS:         14  HIT %:        100  MISS %: 3.97851e-05   MPKI: 7e-05
BTB BRANCH_DIRECT_JUMP	ACCESS:     253973  HIT:     253969  MISS:          4
BTB BRANCH_INDIRECT	ACCESS:          0  HIT:          0  MISS:          0
BTB BRANCH_CONDITIONAL	ACCESS:   34935020  HIT:   34935012  MISS:          8
BTB BRANCH_DIRECT_CALL	ACCESS:         14  HIT:         13  MISS:          1
BTB BRANCH_INDIRECT_CALL	ACCESS:          0  HIT:          0  MISS:          0
BTB BRANCH_RETURN	ACCESS:         14  HIT:         13  MISS:          1
BTB BRANCH_OTHER ACCESS:          0  HIT:          0  MISS:          0

L2C SPEC fills:          0  NON-SPEC fills:    3411114
L2C Test counter :          0
L2C Leapfrog:          0
L2C MSHR merge:          0
L2C TOTAL     ACCESS:   64470856  HIT:   22420768  MISS:   42050088  HIT %:    34.7766  MISS %:    65.2234   MPKI: 210.25
L2C LOAD      TOTAL       ACCESS:   16392454  HIT:    1510897  MISS:   14881557  HIT %:    9.21703  MISS %:     90.783   MPKI: 74.4078
L2C LOAD      NON_SPEC    ACCESS:    3526893  HIT:     115779  MISS:    3411114  HIT %:    3.28275  MISS %:    96.7173   MPKI: 17.0556
L2C LOAD      SPEC        ACCESS:   12865561  HIT:    1395118  MISS:   11470443  HIT %:    10.8438  MISS %:    89.1562   MPKI: 57.3522
L2C RFO       NON_SPEC    ACCESS:      24513  HIT:      17794  MISS:       6719  HIT %:    72.5901  MISS %:    27.4099   MPKI: 0.033595
L2C PREFETCH  NON_SPEC    ACCESS:   16736996  HIT:    1278577  MISS:   15458419  HIT %:    7.63923  MISS %:    92.3608   MPKI: 77.2921
L2C WRITEBACK NON_SPEC    ACCESS:    2939082  HIT:    2938963  MISS:        119  HIT %:     99.996  MISS %: 0.00404888   MPKI: 0.000595
L2C CLEAN_EVICTION NON_SPEC    ACCESS:   11418297  HIT:     226043  MISS:   11192254  HIT %:    1.97966  MISS %:    98.0203   MPKI: 55.9613
L2C COMMIT LOAD NON_SPEC    ACCESS:     193846  HIT:      39371  MISS:     154475  HIT %:    20.3105  MISS %:    79.6895   MPKI: 0.772375
L2C LOAD TRANSLATION NON_SPEC    ACCESS:   16763183  HIT:   16406720  MISS:     356463  HIT %:    97.8735  MISS %:    2.12646   MPKI: 1.78231
L2C TRANSLATION FROM L1D PREFETCHER NON_SPEC    ACCESS:       2485  HIT:       2403  MISS:         82  HIT %:    96.7002  MISS %:     3.2998   MPKI: 0.00041
L2C PREFETCH  REQUESTED:          0  ISSUED:          0  USEFUL:     289525  USELESS:   15169078
L2C USEFUL LOAD PREFETCHES:     289525 PREFETCH ISSUED TO LOWER LEVEL:   15458419  ACCURACY: 1.87293
L2C TIMELY PREFETCHES:     289525 LATE PREFETCHES: 0 DROPPED PREFETCHES: 0
L2C COMMIT LATE PREFETCHES: 0 MISSED OPPORTUNITY: 0 LATE IN PQ: 0 UNCOVERED: 0
L2C COMMIT LATE MSHR PREFETCHES: 0
L2C MPKI TOTAL: 74.4078 MSHR LATE: 0 PQ LATE: 0 COMMIT LATE: 0 MISSED OPPORTUNITY: 0 UNCOVERED: 0
L2C PREFETCHES SAME FILL-ORIGIN LEVEL: 0 DIFFERENT FILL-ORIGIN LEVEL: 0
L2C AVERAGE MISS LATENCY: 120.929 cycles
L2C AVERAGE MISS LATENCY LOAD: 150.08 cycles
L2C AVERAGE MISS LATENCY PREFETCH: 181.752 cycles
L2C AVERAGE MSHR OCCUPANCY: 3.13984
L2C MSHR FULL: 0
L2C RQ	ACCESS:   33377050	FORWARD:          0	MERGED:          0	TO_CACHE:   33376481
L2C WQ	ACCESS:   14357379	FORWARD:        574	MERGED:          0	TO_CACHE:   14357379
L2C PQ	ACCESS:   16737001	FORWARD:          0	MERGED:          0	TO_CACHE:   16736996

L2C Instructions Evicting Data 0
L2C Translations Evicting Data 356319
L2C Data Evicting Data 18806288
L2C Instructions Evicting Instructions 0
L2C Translations Evicting Instructions 0
L2C Data Evicting Instructions 0
L2C Instructions Evicting Translations 0
L2C Translations Evicting Translations 226
L2C Data Evicting Translations 224439
L2C Dense regions hint from L2: 0
PSCL5 SPEC fills:          0  NON-SPEC fills:          0
PSCL5 Test counter :          0
PSCL5 Leapfrog:          0
PSCL5 MSHR merge:          0
PSCL5 TOTAL     ACCESS:          0  HIT:          0  MISS:          0  HIT %:       -nan  MISS %:       -nan   MPKI: 0
PSCL5 PREFETCH  REQUESTED:          0  ISSUED:          0  USEFUL:          0  USELESS:          0
PSCL5 USEFUL LOAD PREFETCHES:          0 PREFETCH ISSUED TO LOWER LEVEL:          0  ACCURACY: -nan
PSCL5 TIMELY PREFETCHES:          0 LATE PREFETCHES: 0 DROPPED PREFETCHES: 0
PSCL5 COMMIT LATE PREFETCHES: 0 MISSED OPPORTUNITY: 0 LATE IN PQ: 0 UNCOVERED: 0
PSCL5 COMMIT LATE MSHR PREFETCHES: 0
PSCL5 MPKI TOTAL: 0 MSHR LATE: 0 PQ LATE: 0 COMMIT LATE: 0 MISSED OPPORTUNITY: 0 UNCOVERED: 0
PSCL5 PREFETCHES SAME FILL-ORIGIN LEVEL: 0 DIFFERENT FILL-ORIGIN LEVEL: 0

PSCL4 SPEC fills:          0  NON-SPEC fills:          0
PSCL4 Test counter :          0
PSCL4 Leapfrog:          0
PSCL4 MSHR merge:          0
PSCL4 TOTAL     ACCESS:          0  HIT:          0  MISS:          0  HIT %:       -nan  MISS %:       -nan   MPKI: 0
PSCL4 PREFETCH  REQUESTED:          0  ISSUED:          0  USEFUL:          0  USELESS:          0
PSCL4 USEFUL LOAD PREFETCHES:          0 PREFETCH ISSUED TO LOWER LEVEL:          0  ACCURACY: -nan
PSCL4 TIMELY PREFETCHES:          0 LATE PREFETCHES: 0 DROPPED PREFETCHES: 0
PSCL4 COMMIT LATE PREFETCHES: 0 MISSED OPPORTUNITY: 0 LATE IN PQ: 0 UNCOVERED: 0
PSCL4 COMMIT LATE MSHR PREFETCHES: 0
PSCL4 MPKI TOTAL: 0 MSHR LATE: 0 PQ LATE: 0 COMMIT LATE: 0 MISSED OPPORTUNITY: 0 UNCOVERED: 0
PSCL4 PREFETCHES SAME FILL-ORIGIN LEVEL: 0 DIFFERENT FILL-ORIGIN LEVEL: 0

PSCL3 SPEC fills:          0  NON-SPEC fills:          0
PSCL3 Test counter :          0
PSCL3 Leapfrog:          0
PSCL3 MSHR merge:          0
PSCL3 TOTAL     ACCESS:          0  HIT:          0  MISS:          0  HIT %:       -nan  MISS %:       -nan   MPKI: 0
PSCL3 PREFETCH  REQUESTED:          0  ISSUED:          0  USEFUL:          0  USELESS:          0
PSCL3 USEFUL LOAD PREFETCHES:          0 PREFETCH ISSUED TO LOWER LEVEL:          0  ACCURACY: -nan
PSCL3 TIMELY PREFETCHES:          0 LATE PREFETCHES: 0 DROPPED PREFETCHES: 0
PSCL3 COMMIT LATE PREFETCHES: 0 MISSED OPPORTUNITY: 0 LATE IN PQ: 0 UNCOVERED: 0
PSCL3 COMMIT LATE MSHR PREFETCHES: 0
PSCL3 MPKI TOTAL: 0 MSHR LATE: 0 PQ LATE: 0 COMMIT LATE: 0 MISSED OPPORTUNITY: 0 UNCOVERED: 0
PSCL3 PREFETCHES SAME FILL-ORIGIN LEVEL: 0 DIFFERENT FILL-ORIGIN LEVEL: 0

PSCL2 SPEC fills:          0  NON-SPEC fills:          0
PSCL2 Test counter :          0
PSCL2 Leapfrog:          0
PSCL2 MSHR merge:          0
PSCL2 TOTAL     ACCESS:          0  HIT:          0  MISS:          0  HIT %:       -nan  MISS %:       -nan   MPKI: 0
PSCL2 PREFETCH  REQUESTED:          0  ISSUED:          0  USEFUL:          0  USELESS:          0
PSCL2 USEFUL LOAD PREFETCHES:          0 PREFETCH ISSUED TO LOWER LEVEL:          0  ACCURACY: -nan
PSCL2 TIMELY PREFETCHES:          0 LATE PREFETCHES: 0 DROPPED PREFETCHES: 0
PSCL2 COMMIT LATE PREFETCHES: 0 MISSED OPPORTUNITY: 0 LATE IN PQ: 0 UNCOVERED: 0
PSCL2 COMMIT LATE MSHR PREFETCHES: 0
PSCL2 MPKI TOTAL: 0 MSHR LATE: 0 PQ LATE: 0 COMMIT LATE: 0 MISSED OPPORTUNITY: 0 UNCOVERED: 0
PSCL2 PREFETCHES SAME FILL-ORIGIN LEVEL: 0 DIFFERENT FILL-ORIGIN LEVEL: 0

LLC SPEC fills:          0  NON-SPEC fills:    2761011
LLC Test counter :          0
LLC Leapfrog:          0
LLC MSHR merge:          0
LLC TOTAL     ACCESS:   45165212  HIT:   17002819  MISS:   28162393  HIT %:    37.6458  MISS %:    62.3542   MPKI: 140.812
LLC LOAD      TOTAL       ACCESS:   14881509  HIT:    5295813  MISS:    9585696  HIT %:    35.5865  MISS %:    64.4135   MPKI: 47.9285
LLC LOAD      NON_SPEC    ACCESS:    3411114  HIT:     650103  MISS:    2761011  HIT %:    19.0584  MISS %:    80.9416   MPKI: 13.8051
LLC LOAD      SPEC        ACCESS:   11470395  HIT:    4645710  MISS:    6824685  HIT %:    40.5017  MISS %:    59.4983   MPKI: 34.1234
LLC RFO       NON_SPEC    ACCESS:       6719  HIT:        267  MISS:       6452  HIT %:    3.97381  MISS %:    96.0262   MPKI: 0.03226
LLC PREFETCH  NON_SPEC    ACCESS:   15458395  HIT:    4460252  MISS:   10998143  HIT %:    28.8533  MISS %:    71.1467   MPKI: 54.9907
LLC WRITEBACK NON_SPEC    ACCESS:    2891556  HIT:    2891518  MISS:         38  HIT %:    99.9987  MISS %: 0.00131417   MPKI: 0.00019
LLC CLEAN_EVICTION NON_SPEC    ACCESS:   11416024  HIT:    3953668  MISS:    7462356  HIT %:    34.6326  MISS %:    65.3674   MPKI: 37.3118
LLC COMMIT LOAD NON_SPEC    ACCESS:     154464  HIT:     109861  MISS:      44603  HIT %:     71.124  MISS %:     28.876   MPKI: 0.223015
LLC LOAD TRANSLATION NON_SPEC    ACCESS:     356463  HIT:     291375  MISS:      65088  HIT %:    81.7406  MISS %:    18.2594   MPKI: 0.32544
LLC TRANSLATION FROM L1D PREFETCHER NON_SPEC    ACCESS:         82  HIT:         65  MISS:         17  HIT %:    79.2683  MISS %:    20.7317   MPKI: 8.5e-05
LLC PREFETCH  REQUESTED:          0  ISSUED:          0  USEFUL:     922122  USELESS:   10076915
LLC USEFUL LOAD PREFETCHES:     922122 PREFETCH ISSUED TO LOWER LEVEL:   10998143  ACCURACY: 8.38434
LLC TIMELY PREFETCHES:     922122 LATE PREFETCHES: 0 DROPPED PREFETCHES: 0
LLC COMMIT LATE PREFETCHES: 0 MISSED OPPORTUNITY: 0 LATE IN PQ: 0 UNCOVERED: 0
LLC COMMIT LATE MSHR PREFETCHES: 0
LLC MPKI TOTAL: 47.9285 MSHR LATE: 0 PQ LATE: 0 COMMIT LATE: 0 MISSED OPPORTUNITY: 0 UNCOVERED: 0
LLC PREFETCHES SAME FILL-ORIGIN LEVEL: 0 DIFFERENT FILL-ORIGIN LEVEL: 0
LLC AVERAGE MISS LATENCY: 151.324 cycles
LLC AVERAGE MISS LATENCY LOAD: 197.167 cycles
LLC AVERAGE MISS LATENCY PREFETCH: 213.233 cycles
LLC AVERAGE MSHR OCCUPANCY: 2.63505
LLC MSHR FULL: 0
LLC RQ	ACCESS:   15399296	FORWARD:          0	MERGED:          0	TO_CACHE:   15399237
LLC WQ	ACCESS:   14307578	FORWARD:         83	MERGED:          0	TO_CACHE:   14307578
LLC PQ	ACCESS:   15458419	FORWARD:          0	MERGED:          0	TO_CACHE:   15458395

LLC Dense regions hint to LLC: 0

RAW hits: 845105
Loads Generated: 56336782
Loads sent to L1D: 55491678
Stores Generated: 11244939
Stores sent to L1D: 11244938
Major fault: 0 Minor fault: 31004
Allocated PAGES: 31004
Total Load insts: 68024706
Total Non-spec loads: 9789999
Percentage of speculative loads: 85.6082

LeapFrogging counter: 2061964
Commit hits: 35338255 miss: 10738337
Commit hit %: 76.6946 miss %: 23.3054
Commits not translated: 0
Loads retired: 16609573
Stores retired: 11244938
Cache fills: 16609577
L1D response latency: 148.53 cycles
Load retirement latency: 271.859 cycles
OOO test counter: 0
Discarded buffer inserts: 35338255 hits: 36260 hit %: 0.102608
Filter prediction accuracy: 99.8687

stream: 
stream:times selected: 24036981
stream:pref_filled: 19390938
stream:pref_useful: 624392
stream:pref_late: 111045
stream:misses: 4176974
stream:misses_by_poll: 0

CS: 
CS:times selected: 2617992
CS:pref_filled: 385087
CS:pref_useful: 305221
CS:pref_late: 1452
CS:misses: 39839
CS:misses_by_poll: 8844

CPLX: 
CPLX:times selected: 23677298
CPLX:pref_filled: 989809
CPLX:pref_useful: 28659
CPLX:pref_late: 6953
CPLX:misses: 15854695
CPLX:misses_by_poll: 55117

NL_L1: 
NL:times selected: 23315
NL:pref_filled: 20813
NL:pref_useful: 100
NL:pref_late: 7
NL:misses: 25121
NL:misses_by_poll: 0

total selections: 50355586
total_filled: 16510212
total_useful: 766314
total_late: 132560
total_polluted: 63961
total_misses_after_warmup: 15745185
conflicts: 0
Degree Incremented Times: 59676
Degree Decremented Times: 981614

L1 IP Table Write Accesses: 67578238
L1 IP Table Read Accesses: 67578238
L1 RST Write Accesses: 18165545
L1 RST Read Accesses: 36331090
L1 CSPT Write Accesses: 18165545
L1 CSPT Read Accesses: 36001800
L1 RR Filter Tag Write Accesses: 17581737
L1 RR Filter Tag Read Accesses: 649931005
L1 IP Table Tag Write Accesses: 67578266
L1 IP Table Tag Read Accesses: 67578266
L1 RST Tag Write Accesses: 0
L1 RST Tag Read Accesses: 163225135
L1 RR Filter Write Accesses: 0
L1 RR Filter Read Accesses: 20739525
test: 9878612

DRAM Statistics
 CHANNEL 0
 RQ ROW_BUFFER_HIT:    2823674  ROW_BUFFER_MISS:   17868352
 DBUS_CONGESTED:       4166
 WQ ROW_BUFFER_HIT:    3460324  ROW_BUFFER_MISS:    7360231  FULL:          0

 AVG_CONGESTED_CYCLE: 5
 All warmup complete: 2
Channel 0 Bank busy for read cycles: 0
Channel 0 Bank busy for write cycles: 0
Channel 0
Rank 0
0banks busy for read cycles: 6232245
0banks busy for write cycles: 5491
1banks busy for read cycles: 344056169
1banks busy for write cycles: 3791625
2banks busy for read cycles: 378097631
2banks busy for write cycles: 3694515
3banks busy for read cycles: 266108416
3banks busy for write cycles: 3731113
4banks busy for read cycles: 138472761
4banks busy for write cycles: 3869673
5banks busy for read cycles: 52855089
5banks busy for write cycles: 4492517
6banks busy for read cycles: 16163300
6banks busy for write cycles: 12496900
7banks busy for read cycles: 4015497
7banks busy for write cycles: 77234631
8banks busy for read cycles: 903368
8banks busy for write cycles: 267473946

CPU 0 Branch Prediction Accuracy: 85.1853% MPKI: 26.0899 Average ROB Occupancy at Mispredict: 28.9946
Branch types
NOT_BRANCH: 164778092 82.389%
BRANCH_DIRECT_JUMP: 253973 0.126986%
BRANCH_INDIRECT: 0 0%
BRANCH_CONDITIONAL: 34967587 17.4838%
BRANCH_DIRECT_CALL: 14 7e-06%
BRANCH_INDIRECT_CALL: 0 0%
BRANCH_RETURN: 14 7e-06%
BRANCH_OTHER: 0 0%

DRAM PAGES: 1048576
Allocated PAGES: 31004
