
*** ChampSim Multicore Out-of-Order Simulator ***

Warmup Instructions: 50000000
Simulation Instructions: 200000000
Number of CPUs: 1
LLC sets: 2048
LLC ways: 16
L0D sets: 16
L0D ways: 2
ROB size: 352
LQ size: 128
SQ size: 72
Secure Berti: OFF
Berti: OFF
Berti Fill: OFF
On commit prefetching: ON
Hit-based filter: ON
Time-guarding: ON
Free-slotting: ON
Leap-frogging: ON
Train prefetcher on L0D bypass: OFF
No translation penalty for prefetchers: OFF
Prefetch to L0D only: OFF
Prefetch to L1D only: OFF
Clean evictions: ON
Commit loads: ON
Commit write: ON
Fill commit loads to L2C, LLC: ON
DRAM IO FREQUENCY: 6400
ROB SIZE: 352
Off-chip DRAM Size: 4096 MB Channels: 1 Width: 64-bit Data Rate: 6400 MT/s
CPU 0 runs /home/sumon/secure_berti/GhostMinion/../../traces/gap/bc-3.trace.gz
.gz
BTB has LRU replacement policy
ITLB has LRU replacement policy
DTLB has LRU replacement policy
STLB has LRU replacement policy
L1I has LRU replacement policy
L0D has LRU replacement policy
IP Table Entries: 1024
CSPT Entries: 128
RR_ENTRIES: 32
RST_ENTRIES: 8
L1D has LRU replacement policy
L2C has LRU replacement policy
LLC has LRU replacement policy
Heartbeat CPU 0 instructions: 10000002 cycles: 3751414 heartbeat IPC: 2.66566 cumulative IPC: 2.66566 (Simulation time: 0 hr 0 min 59 sec) 
Heartbeat CPU 0 instructions: 20000000 cycles: 7067530 heartbeat IPC: 3.01558 cumulative IPC: 2.82984 (Simulation time: 0 hr 1 min 53 sec) 
Heartbeat CPU 0 instructions: 30000003 cycles: 10444712 heartbeat IPC: 2.96105 cumulative IPC: 2.87227 (Simulation time: 0 hr 2 min 47 sec) 
Heartbeat CPU 0 instructions: 40000003 cycles: 13825929 heartbeat IPC: 2.95752 cumulative IPC: 2.89312 (Simulation time: 0 hr 3 min 42 sec) 
Heartbeat CPU 0 instructions: 50000003 cycles: 17212657 heartbeat IPC: 2.9527 cumulative IPC: 2.90484 (Simulation time: 0 hr 4 min 36 sec) 

Warmup complete CPU 0 instructions: 50000003 cycles: 17212657 (Simulation time: 0 hr 4 min 36 sec) 

Heartbeat CPU 0 instructions: 60000001 cycles: 81162092 heartbeat IPC: 0.156374 cumulative IPC: 0.156374 (Simulation time: 0 hr 5 min 48 sec) 
Heartbeat CPU 0 instructions: 70000000 cycles: 145253508 heartbeat IPC: 0.156027 cumulative IPC: 0.1562 (Simulation time: 0 hr 6 min 58 sec) 
Heartbeat CPU 0 instructions: 80000000 cycles: 209546755 heartbeat IPC: 0.155537 cumulative IPC: 0.155979 (Simulation time: 0 hr 8 min 6 sec) 
Heartbeat CPU 0 instructions: 90000002 cycles: 273871198 heartbeat IPC: 0.155462 cumulative IPC: 0.155849 (Simulation time: 0 hr 9 min 14 sec) 
Heartbeat CPU 0 instructions: 100000003 cycles: 337704441 heartbeat IPC: 0.156658 cumulative IPC: 0.15601 (Simulation time: 0 hr 10 min 21 sec) 
Heartbeat CPU 0 instructions: 110000000 cycles: 402099364 heartbeat IPC: 0.155292 cumulative IPC: 0.15589 (Simulation time: 0 hr 11 min 27 sec) 
Heartbeat CPU 0 instructions: 120000000 cycles: 465485337 heartbeat IPC: 0.157764 cumulative IPC: 0.156155 (Simulation time: 0 hr 12 min 30 sec) 
Heartbeat CPU 0 instructions: 130000001 cycles: 529825251 heartbeat IPC: 0.155425 cumulative IPC: 0.156063 (Simulation time: 0 hr 13 min 31 sec) 
Heartbeat CPU 0 instructions: 140000001 cycles: 594053395 heartbeat IPC: 0.155695 cumulative IPC: 0.156022 (Simulation time: 0 hr 14 min 34 sec) 
Heartbeat CPU 0 instructions: 150000003 cycles: 658409519 heartbeat IPC: 0.155385 cumulative IPC: 0.155958 (Simulation time: 0 hr 15 min 36 sec) 
Heartbeat CPU 0 instructions: 160000001 cycles: 721577207 heartbeat IPC: 0.158309 cumulative IPC: 0.156169 (Simulation time: 0 hr 16 min 35 sec) 
Heartbeat CPU 0 instructions: 170000003 cycles: 783997141 heartbeat IPC: 0.160205 cumulative IPC: 0.156498 (Simulation time: 0 hr 17 min 35 sec) 
Heartbeat CPU 0 instructions: 180000000 cycles: 845806181 heartbeat IPC: 0.161789 cumulative IPC: 0.156892 (Simulation time: 0 hr 18 min 34 sec) 
Heartbeat CPU 0 instructions: 190000001 cycles: 907226935 heartbeat IPC: 0.162811 cumulative IPC: 0.157301 (Simulation time: 0 hr 19 min 33 sec) 
Heartbeat CPU 0 instructions: 200000000 cycles: 968650858 heartbeat IPC: 0.162803 cumulative IPC: 0.157656 (Simulation time: 0 hr 20 min 32 sec) 
Heartbeat CPU 0 instructions: 210000000 cycles: 1030175079 heartbeat IPC: 0.162538 cumulative IPC: 0.157953 (Simulation time: 0 hr 21 min 30 sec) 
Heartbeat CPU 0 instructions: 220000000 cycles: 1091769162 heartbeat IPC: 0.162353 cumulative IPC: 0.158205 (Simulation time: 0 hr 22 min 28 sec) 
Heartbeat CPU 0 instructions: 230000000 cycles: 1153441514 heartbeat IPC: 0.162147 cumulative IPC: 0.158419 (Simulation time: 0 hr 23 min 27 sec) 
Heartbeat CPU 0 instructions: 240000000 cycles: 1215002928 heartbeat IPC: 0.162439 cumulative IPC: 0.158625 (Simulation time: 0 hr 24 min 24 sec) 
Heartbeat CPU 0 instructions: 250000002 cycles: 1276534974 heartbeat IPC: 0.162517 cumulative IPC: 0.158816 (Simulation time: 0 hr 25 min 22 sec) 
Finished CPU 0 instructions: 200000003 cycles: 1259322318 cumulative IPC: 0.158816 (Simulation time: 0 hr 25 min 22 sec) 
 Instruction ID: 250000029

ChampSim completed all CPUs

Region of Interest Statistics

CPU 0 cumulative IPC: 0.158816 instructions: 200000003 cycles: 1259322318
ITLB SPEC fills:          0  NON-SPEC fills:          0
ITLB Test counter :          0
ITLB Leapfrog:          0
ITLB MSHR merge:          0
ITLB TOTAL     ACCESS:   42183084  HIT:   42183084  MISS:          0  HIT %:        100  MISS %:          0   MPKI: 0
ITLB LOAD TRANSLATION NON_SPEC    ACCESS:   42183084  HIT:   42183084  MISS:          0  HIT %:        100  MISS %:          0   MPKI: 0
ITLB PREFETCH  REQUESTED:          0  ISSUED:          0  USEFUL:          0  USELESS:          0
ITLB USEFUL LOAD PREFETCHES:          0 PREFETCH ISSUED TO LOWER LEVEL:          0  ACCURACY: -nan
ITLB TIMELY PREFETCHES:          0 LATE PREFETCHES: 0 DROPPED PREFETCHES: 0
ITLB COMMIT LATE PREFETCHES: 0 MISSED OPPORTUNITY: 0 LATE IN PQ: 0 UNCOVERED: 0
ITLB COMMIT LATE MSHR PREFETCHES: 0
ITLB MPKI TOTAL: 0 MSHR LATE: 0 PQ LATE: 0 COMMIT LATE: 0 MISSED OPPORTUNITY: 0 UNCOVERED: 0
ITLB PREFETCHES SAME FILL-ORIGIN LEVEL: 0 DIFFERENT FILL-ORIGIN LEVEL: 0
ITLB AVERAGE MISS LATENCY: -nan cycles
ITLB AVERAGE MISS LATENCY LOAD: -nan cycles
ITLB AVERAGE MISS LATENCY PREFETCH: -nan cycles
ITLB AVERAGE MSHR OCCUPANCY: 0
ITLB MSHR FULL: 0
ITLB RQ	ACCESS:   42461719	FORWARD:          0	MERGED:     278636	TO_CACHE:   42183083

DTLB SPEC fills:          0  NON-SPEC fills:          0
DTLB Test counter :          0
DTLB Leapfrog:          0
DTLB MSHR merge:          0
DTLB TOTAL     ACCESS:   48456959  HIT:   38100156  MISS:   10356803  HIT %:    78.6268  MISS %:    21.3732   MPKI: 51.784
DTLB LOAD TRANSLATION NON_SPEC    ACCESS:   48456959  HIT:   38100156  MISS:   10356803  HIT %:    78.6268  MISS %:    21.3732   MPKI: 51.784
DTLB PREFETCH  REQUESTED:          0  ISSUED:          0  USEFUL:          0  USELESS:          0
DTLB USEFUL LOAD PREFETCHES:          0 PREFETCH ISSUED TO LOWER LEVEL:          0  ACCURACY: -nan
DTLB TIMELY PREFETCHES:          0 LATE PREFETCHES: 0 DROPPED PREFETCHES: 0
DTLB COMMIT LATE PREFETCHES: 0 MISSED OPPORTUNITY: 0 LATE IN PQ: 0 UNCOVERED: 0
DTLB COMMIT LATE MSHR PREFETCHES: 0
DTLB MPKI TOTAL: 0 MSHR LATE: 0 PQ LATE: 0 COMMIT LATE: 0 MISSED OPPORTUNITY: 0 UNCOVERED: 0
DTLB PREFETCHES SAME FILL-ORIGIN LEVEL: 0 DIFFERENT FILL-ORIGIN LEVEL: 0
DTLB AVERAGE MISS LATENCY: 27.0437 cycles
DTLB AVERAGE MISS LATENCY LOAD: -nan cycles
DTLB AVERAGE MISS LATENCY PREFETCH: -nan cycles
DTLB AVERAGE MSHR OCCUPANCY: 0.473384
DTLB MSHR FULL: 0.00419381
DTLB RQ	ACCESS:   52887632	FORWARD:          0	MERGED:    3732430	TO_CACHE:   49155202

STLB SPEC fills:          0  NON-SPEC fills:          0
STLB Test counter :          0
STLB Leapfrog:          0
STLB MSHR merge:          0
STLB TOTAL     ACCESS:   24419022  HIT:   22239604  MISS:    2179418  HIT %:    91.0749  MISS %:    8.92508   MPKI: 10.8971
STLB LOAD TRANSLATION NON_SPEC    ACCESS:   10356803  HIT:    8177668  MISS:    2179135  HIT %:    78.9594  MISS %:    21.0406   MPKI: 10.8957
STLB TRANSLATION FROM L1D PREFETCHER NON_SPEC    ACCESS:   14062219  HIT:   14061936  MISS:        283  HIT %:     99.998  MISS %: 0.00201248   MPKI: 0.001415
STLB PREFETCH  REQUESTED:          0  ISSUED:          0  USEFUL:        261  USELESS:         22
STLB USEFUL LOAD PREFETCHES:        261 PREFETCH ISSUED TO LOWER LEVEL:          0  ACCURACY: inf
STLB TIMELY PREFETCHES:        261 LATE PREFETCHES: 0 DROPPED PREFETCHES: 0
STLB COMMIT LATE PREFETCHES: 0 MISSED OPPORTUNITY: 0 LATE IN PQ: 0 UNCOVERED: 0
STLB COMMIT LATE MSHR PREFETCHES: 0
STLB MPKI TOTAL: 0 MSHR LATE: 0 PQ LATE: 0 COMMIT LATE: 0 MISSED OPPORTUNITY: 0 UNCOVERED: 0
STLB PREFETCHES SAME FILL-ORIGIN LEVEL: 0 DIFFERENT FILL-ORIGIN LEVEL: 0
STLB AVERAGE MISS LATENCY: 85.249 cycles
STLB AVERAGE MISS LATENCY LOAD: -nan cycles
STLB AVERAGE MISS LATENCY PREFETCH: -nan cycles
STLB AVERAGE MSHR OCCUPANCY: 0.171156
STLB MSHR FULL: 0
STLB RQ	ACCESS:   29067291	FORWARD:          0	MERGED:    4648236	TO_CACHE:   24419055

STLB Hit, L1D data hit: 0
STLB Hit, L2C data hit: 0
STLB Hit, LLC data hit: 0
STLB Hit, LLC data miss: 0
STLB STLB hints to L2: 0
L0D SPEC fills:   28276179  NON-SPEC fills:          0
L0D TimeGuard Request with older TS:     361171 Restricted eviction:     453879 read:          2
L0D Test counter :          0
L0D Leapfrog:          0
L0D MSHR merge:     457719
L0D TOTAL     ACCESS:   45801409  HIT:   12100866  MISS:   33700543  HIT %:    26.4203  MISS %:    73.5797   MPKI: 168.503
L0D LOAD      TOTAL       ACCESS:   45801409  HIT:   12100866  MISS:   33700543  HIT %:    26.4203  MISS %:    73.5797   MPKI: 168.503
L0D LOAD      NON_SPEC    ACCESS:    4973065  HIT:       2323  MISS:    4970742  HIT %:  0.0467116  MISS %:    99.9533   MPKI: 24.8537
L0D LOAD      SPEC        ACCESS:   40828344  HIT:   12098543  MISS:   28729801  HIT %:    29.6327  MISS %:    70.3673   MPKI: 143.649
L0D PREFETCH  REQUESTED:          0  ISSUED:          0  USEFUL:          0  USELESS:          0
L0D USEFUL LOAD PREFETCHES:          0 PREFETCH ISSUED TO LOWER LEVEL:          0  ACCURACY: -nan
L0D TIMELY PREFETCHES:          0 LATE PREFETCHES: 0 DROPPED PREFETCHES: 0
L0D COMMIT LATE PREFETCHES: 0 MISSED OPPORTUNITY: 0 LATE IN PQ: 0 UNCOVERED: 0
L0D COMMIT LATE MSHR PREFETCHES: 0
L0D MPKI TOTAL: 170.791 MSHR LATE: 0 PQ LATE: 0 COMMIT LATE: 0 MISSED OPPORTUNITY: 0 UNCOVERED: 0
L0D PREFETCHES SAME FILL-ORIGIN LEVEL: 0 DIFFERENT FILL-ORIGIN LEVEL: 0
L0D AVERAGE MISS LATENCY: 74.9832 cycles
L0D AVERAGE MISS LATENCY LOAD: 74.9832 cycles
L0D AVERAGE MISS LATENCY PREFETCH: -nan cycles
L0D AVERAGE MSHR OCCUPANCY: 2.16863
L0D MSHR FULL: 0.0968328
L0D RQ	ACCESS:   47806202	FORWARD:          0	MERGED:    1547078	TO_CACHE:   46259124
L0D WQ	ACCESS:    6628508	FORWARD:          0	MERGED:          0	TO_CACHE:    6628508

L1D SPEC fills:          0  NON-SPEC fills:     746294
L1D Test counter :          0
L1D Leapfrog:          0
L1D MSHR merge:      95569
L1D TOTAL     ACCESS:   72717420  HIT:   21738320  MISS:   50979100  HIT %:    29.8942  MISS %:    70.1058   MPKI: 254.895
L1D LOAD      TOTAL       ACCESS:   33698181  HIT:   16530801  MISS:   17167380  HIT %:    49.0555  MISS %:    50.9445   MPKI: 85.8369
L1D LOAD      NON_SPEC    ACCESS:    4969072  HIT:    4222778  MISS:     746294  HIT %:    84.9812  MISS %:    15.0188   MPKI: 3.73147
L1D LOAD      SPEC        ACCESS:   28729109  HIT:   12308023  MISS:   16421086  HIT %:    42.8416  MISS %:    57.1584   MPKI: 82.1054
L1D RFO       NON_SPEC    ACCESS:    3661254  HIT:    3628464  MISS:      32790  HIT %:    99.1044  MISS %:   0.895595   MPKI: 0.16395
L1D PREFETCH  NON_SPEC    ACCESS:   18516928  HIT:    1152249  MISS:   17364679  HIT %:    6.22268  MISS %:    93.7773   MPKI: 86.8234
L1D COMMIT LOAD NON_SPEC    ACCESS:     750176  HIT:     408644  MISS:     341532  HIT %:    54.4731  MISS %:    45.5269   MPKI: 1.70766
L1D COMMIT WRITE NON_SPEC    ACCESS:   16090881  HIT:      18162  MISS:   16072719  HIT %:   0.112871  MISS %:    99.8871   MPKI: 80.3636
L1D PREFETCH  REQUESTED:   18710588  ISSUED:   18710489  USEFUL:     931955  USELESS:   16432724
L1D USEFUL LOAD PREFETCHES:     931955 PREFETCH ISSUED TO LOWER LEVEL:   17466639  ACCURACY: 5.33563
L1D TIMELY PREFETCHES:     931955 LATE PREFETCHES: 94440 DROPPED PREFETCHES: 0
L1D COMMIT LATE PREFETCHES: 0 MISSED OPPORTUNITY: 0 LATE IN PQ: 0 UNCOVERED: 0
L1D COMMIT LATE MSHR PREFETCHES: 0
L1D MPKI TOTAL: 85.8487 MSHR LATE: 0.4722 PQ LATE: 0 COMMIT LATE: 0 MISSED OPPORTUNITY: 0 UNCOVERED: 0
L1D PREFETCHES SAME FILL-ORIGIN LEVEL: 17466639 DIFFERENT FILL-ORIGIN LEVEL: 0
L1D AVERAGE MISS LATENCY: 106.885 cycles
L1D AVERAGE MISS LATENCY LOAD: 137.042 cycles
L1D AVERAGE MISS LATENCY PREFETCH: 176.497 cycles
L1D AVERAGE MSHR OCCUPANCY: 4.52634
L1D MSHR FULL: 0.0272124
L1D RQ	ACCESS:   34551480	FORWARD:          0	MERGED:      99780	TO_CACHE:   34451697
L1D WQ	ACCESS:   22719392	FORWARD:          3	MERGED:    2914895	TO_CACHE:   19804497
L1D PQ	ACCESS:   18710489	FORWARD:          0	MERGED:          0	TO_CACHE:   18710489

L1D UNIQUE REGIONS ACCESSED: 0
L1D REGIONS CONFLICTS: 0
L1D Cross Page Prefetch Requests: 0
L1D Same Page Prefetch Requests: 23072479
L1D ROI Sum of L1D PQ occupancy: 256048927
L1D PREFETCHES PUSHED FROM L2C: 0
L1I SPEC fills:          0  NON-SPEC fills:          0
L1I Test counter :          0
L1I Leapfrog:          0
L1I MSHR merge:          0
L1I TOTAL     ACCESS:   42461720  HIT:   42461720  MISS:          0  HIT %:        100  MISS %:          0   MPKI: 0
L1I LOAD      TOTAL       ACCESS:   42461720  HIT:   42461720  MISS:          0  HIT %:        100  MISS %:          0   MPKI: 0
L1I LOAD      NON_SPEC    ACCESS:   42461720  HIT:   42461720  MISS:          0  HIT %:        100  MISS %:          0   MPKI: 0
L1I PREFETCH  REQUESTED:          0  ISSUED:          0  USEFUL:          0  USELESS:          0
L1I USEFUL LOAD PREFETCHES:          0 PREFETCH ISSUED TO LOWER LEVEL:          0  ACCURACY: -nan
L1I TIMELY PREFETCHES:          0 LATE PREFETCHES: 0 DROPPED PREFETCHES: 0
L1I COMMIT LATE PREFETCHES: 0 MISSED OPPORTUNITY: 0 LATE IN PQ: 0 UNCOVERED: 0
L1I COMMIT LATE MSHR PREFETCHES: 0
L1I MPKI TOTAL: 0 MSHR LATE: 0 PQ LATE: 0 COMMIT LATE: 0 MISSED OPPORTUNITY: 0 UNCOVERED: 0
L1I PREFETCHES SAME FILL-ORIGIN LEVEL: 0 DIFFERENT FILL-ORIGIN LEVEL: 0
L1I AVERAGE MISS LATENCY: -nan cycles
L1I AVERAGE MISS LATENCY LOAD: -nan cycles
L1I AVERAGE MISS LATENCY PREFETCH: -nan cycles
L1I AVERAGE MSHR OCCUPANCY: 0
L1I MSHR FULL: 0
L1I RQ	ACCESS:   56790292	FORWARD:          0	MERGED:   14328573	TO_CACHE:   42461719

BTB SPEC fills:          0  NON-SPEC fills:          0
BTB Test counter :          0
BTB Leapfrog:          0
BTB MSHR merge:          0
BTB TOTAL     ACCESS:   43358648  HIT:   43358634  MISS:         14  HIT %:        100  MISS %: 3.22888e-05   MPKI: 7e-05
BTB BRANCH_DIRECT_JUMP	ACCESS:     271551  HIT:     271547  MISS:          4
BTB BRANCH_INDIRECT	ACCESS:          0  HIT:          0  MISS:          0
BTB BRANCH_CONDITIONAL	ACCESS:   43087069  HIT:   43087061  MISS:          8
BTB BRANCH_DIRECT_CALL	ACCESS:         14  HIT:         13  MISS:          1
BTB BRANCH_INDIRECT_CALL	ACCESS:          0  HIT:          0  MISS:          0
BTB BRANCH_RETURN	ACCESS:         14  HIT:         13  MISS:          1
BTB BRANCH_OTHER ACCESS:          0  HIT:          0  MISS:          0

L2C SPEC fills:          0  NON-SPEC fills:     628753
L2C Test counter :          0
L2C Leapfrog:          0
L2C MSHR merge:          0
L2C TOTAL     ACCESS:   59986683  HIT:   15515052  MISS:   44471631  HIT %:    25.8642  MISS %:    74.1358   MPKI: 222.358
L2C LOAD      TOTAL       ACCESS:   17073786  HIT:    2389038  MISS:   14684748  HIT %:    13.9924  MISS %:    86.0076   MPKI: 73.4237
L2C LOAD      NON_SPEC    ACCESS:     733349  HIT:     104596  MISS:     628753  HIT %:    14.2628  MISS %:    85.7372   MPKI: 3.14376
L2C LOAD      SPEC        ACCESS:   16340437  HIT:    2284442  MISS:   14055995  HIT %:    13.9803  MISS %:    86.0197   MPKI: 70.28
L2C RFO       NON_SPEC    ACCESS:      25247  HIT:      18521  MISS:       6726  HIT %:    73.3592  MISS %:    26.6408   MPKI: 0.03363
L2C PREFETCH  NON_SPEC    ACCESS:   17466617  HIT:    2109956  MISS:   15356661  HIT %:    12.0799  MISS %:    87.9201   MPKI: 76.7833
L2C WRITEBACK NON_SPEC    ACCESS:     280184  HIT:     280050  MISS:        134  HIT %:    99.9522  MISS %:  0.0478257   MPKI: 0.00067
L2C CLEAN_EVICTION NON_SPEC    ACCESS:   13903461  HIT:     139601  MISS:   13763860  HIT %:    1.00407  MISS %:    98.9959   MPKI: 68.8193
L2C COMMIT LOAD NON_SPEC    ACCESS:     340300  HIT:      84429  MISS:     255871  HIT %:    24.8102  MISS %:    75.1898   MPKI: 1.27935
L2C LOAD TRANSLATION NON_SPEC    ACCESS:   10895673  HIT:   10492108  MISS:     403565  HIT %:    96.2961  MISS %:     3.7039   MPKI: 2.01782
L2C TRANSLATION FROM L1D PREFETCHER NON_SPEC    ACCESS:       1415  HIT:       1349  MISS:         66  HIT %:    95.3357  MISS %:    4.66431   MPKI: 0.00033
L2C PREFETCH  REQUESTED:          0  ISSUED:          0  USEFUL:     432957  USELESS:   14923802
L2C USEFUL LOAD PREFETCHES:     432957 PREFETCH ISSUED TO LOWER LEVEL:   15356662  ACCURACY: 2.81934
L2C TIMELY PREFETCHES:     432957 LATE PREFETCHES: 0 DROPPED PREFETCHES: 0
L2C COMMIT LATE PREFETCHES: 0 MISSED OPPORTUNITY: 0 LATE IN PQ: 0 UNCOVERED: 0
L2C COMMIT LATE MSHR PREFETCHES: 0
L2C MPKI TOTAL: 73.4237 MSHR LATE: 0 PQ LATE: 0 COMMIT LATE: 0 MISSED OPPORTUNITY: 0 UNCOVERED: 0
L2C PREFETCHES SAME FILL-ORIGIN LEVEL: 0 DIFFERENT FILL-ORIGIN LEVEL: 0
L2C AVERAGE MISS LATENCY: 112.884 cycles
L2C AVERAGE MISS LATENCY LOAD: 145.864 cycles
L2C AVERAGE MISS LATENCY PREFETCH: 184.202 cycles
L2C AVERAGE MSHR OCCUPANCY: 4.08697
L2C MSHR FULL: 0
L2C RQ	ACCESS:   28336831	FORWARD:          0	MERGED:          0	TO_CACHE:   28336420
L2C WQ	ACCESS:   14183648	FORWARD:        431	MERGED:          1	TO_CACHE:   14183647
L2C PQ	ACCESS:   17466639	FORWARD:          0	MERGED:          0	TO_CACHE:   17466619

L2C Instructions Evicting Data 0
L2C Translations Evicting Data 403082
L2C Data Evicting Data 16030108
L2C Instructions Evicting Instructions 0
L2C Translations Evicting Instructions 0
L2C Data Evicting Instructions 0
L2C Instructions Evicting Translations 0
L2C Translations Evicting Translations 549
L2C Data Evicting Translations 217903
L2C Dense regions hint from L2: 0
PSCL5 SPEC fills:          0  NON-SPEC fills:          0
PSCL5 Test counter :          0
PSCL5 Leapfrog:          0
PSCL5 MSHR merge:          0
PSCL5 TOTAL     ACCESS:          0  HIT:          0  MISS:          0  HIT %:       -nan  MISS %:       -nan   MPKI: 0
PSCL5 PREFETCH  REQUESTED:          0  ISSUED:          0  USEFUL:          0  USELESS:          0
PSCL5 USEFUL LOAD PREFETCHES:          0 PREFETCH ISSUED TO LOWER LEVEL:          0  ACCURACY: -nan
PSCL5 TIMELY PREFETCHES:          0 LATE PREFETCHES: 0 DROPPED PREFETCHES: 0
PSCL5 COMMIT LATE PREFETCHES: 0 MISSED OPPORTUNITY: 0 LATE IN PQ: 0 UNCOVERED: 0
PSCL5 COMMIT LATE MSHR PREFETCHES: 0
PSCL5 MPKI TOTAL: 0 MSHR LATE: 0 PQ LATE: 0 COMMIT LATE: 0 MISSED OPPORTUNITY: 0 UNCOVERED: 0
PSCL5 PREFETCHES SAME FILL-ORIGIN LEVEL: 0 DIFFERENT FILL-ORIGIN LEVEL: 0

PSCL4 SPEC fills:          0  NON-SPEC fills:          0
PSCL4 Test counter :          0
PSCL4 Leapfrog:          0
PSCL4 MSHR merge:          0
PSCL4 TOTAL     ACCESS:          0  HIT:          0  MISS:          0  HIT %:       -nan  MISS %:       -nan   MPKI: 0
PSCL4 PREFETCH  REQUESTED:          0  ISSUED:          0  USEFUL:          0  USELESS:          0
PSCL4 USEFUL LOAD PREFETCHES:          0 PREFETCH ISSUED TO LOWER LEVEL:          0  ACCURACY: -nan
PSCL4 TIMELY PREFETCHES:          0 LATE PREFETCHES: 0 DROPPED PREFETCHES: 0
PSCL4 COMMIT LATE PREFETCHES: 0 MISSED OPPORTUNITY: 0 LATE IN PQ: 0 UNCOVERED: 0
PSCL4 COMMIT LATE MSHR PREFETCHES: 0
PSCL4 MPKI TOTAL: 0 MSHR LATE: 0 PQ LATE: 0 COMMIT LATE: 0 MISSED OPPORTUNITY: 0 UNCOVERED: 0
PSCL4 PREFETCHES SAME FILL-ORIGIN LEVEL: 0 DIFFERENT FILL-ORIGIN LEVEL: 0

PSCL3 SPEC fills:          0  NON-SPEC fills:          0
PSCL3 Test counter :          0
PSCL3 Leapfrog:          0
PSCL3 MSHR merge:          0
PSCL3 TOTAL     ACCESS:          0  HIT:          0  MISS:          0  HIT %:       -nan  MISS %:       -nan   MPKI: 0
PSCL3 PREFETCH  REQUESTED:          0  ISSUED:          0  USEFUL:          0  USELESS:          0
PSCL3 USEFUL LOAD PREFETCHES:          0 PREFETCH ISSUED TO LOWER LEVEL:          0  ACCURACY: -nan
PSCL3 TIMELY PREFETCHES:          0 LATE PREFETCHES: 0 DROPPED PREFETCHES: 0
PSCL3 COMMIT LATE PREFETCHES: 0 MISSED OPPORTUNITY: 0 LATE IN PQ: 0 UNCOVERED: 0
PSCL3 COMMIT LATE MSHR PREFETCHES: 0
PSCL3 MPKI TOTAL: 0 MSHR LATE: 0 PQ LATE: 0 COMMIT LATE: 0 MISSED OPPORTUNITY: 0 UNCOVERED: 0
PSCL3 PREFETCHES SAME FILL-ORIGIN LEVEL: 0 DIFFERENT FILL-ORIGIN LEVEL: 0

PSCL2 SPEC fills:          0  NON-SPEC fills:          0
PSCL2 Test counter :          0
PSCL2 Leapfrog:          0
PSCL2 MSHR merge:          0
PSCL2 TOTAL     ACCESS:          0  HIT:          0  MISS:          0  HIT %:       -nan  MISS %:       -nan   MPKI: 0
PSCL2 PREFETCH  REQUESTED:          0  ISSUED:          0  USEFUL:          0  USELESS:          0
PSCL2 USEFUL LOAD PREFETCHES:          0 PREFETCH ISSUED TO LOWER LEVEL:          0  ACCURACY: -nan
PSCL2 TIMELY PREFETCHES:          0 LATE PREFETCHES: 0 DROPPED PREFETCHES: 0
PSCL2 COMMIT LATE PREFETCHES: 0 MISSED OPPORTUNITY: 0 LATE IN PQ: 0 UNCOVERED: 0
PSCL2 COMMIT LATE MSHR PREFETCHES: 0
PSCL2 MPKI TOTAL: 0 MSHR LATE: 0 PQ LATE: 0 COMMIT LATE: 0 MISSED OPPORTUNITY: 0 UNCOVERED: 0
PSCL2 PREFETCHES SAME FILL-ORIGIN LEVEL: 0 DIFFERENT FILL-ORIGIN LEVEL: 0

LLC SPEC fills:          0  NON-SPEC fills:     399333
LLC Test counter :          0
LLC Leapfrog:          0
LLC MSHR merge:          0
LLC TOTAL     ACCESS:   44867980  HIT:   17925086  MISS:   26942894  HIT %:    39.9507  MISS %:    60.0493   MPKI: 134.714
LLC LOAD      TOTAL       ACCESS:   14684611  HIT:    6410970  MISS:    8273641  HIT %:    43.6577  MISS %:    56.3423   MPKI: 41.3682
LLC LOAD      NON_SPEC    ACCESS:     628743  HIT:     229410  MISS:     399333  HIT %:    36.4871  MISS %:    63.5129   MPKI: 1.99666
LLC LOAD      SPEC        ACCESS:   14055868  HIT:    6181560  MISS:    7874308  HIT %:    43.9785  MISS %:    56.0215   MPKI: 39.3715
LLC RFO       NON_SPEC    ACCESS:       6726  HIT:        359  MISS:       6367  HIT %:     5.3375  MISS %:    94.6625   MPKI: 0.031835
LLC PREFETCH  NON_SPEC    ACCESS:   15356586  HIT:    5467168  MISS:    9889418  HIT %:    35.6015  MISS %:    64.3985   MPKI: 49.4471
LLC WRITEBACK NON_SPEC    ACCESS:     270138  HIT:     270091  MISS:         47  HIT %:    99.9826  MISS %:  0.0173985   MPKI: 0.000235
LLC CLEAN_EVICTION NON_SPEC    ACCESS:   13890455  HIT:    5225134  MISS:    8665321  HIT %:    37.6167  MISS %:    62.3833   MPKI: 43.3266
LLC COMMIT LOAD NON_SPEC    ACCESS:     255833  HIT:     193632  MISS:      62201  HIT %:    75.6869  MISS %:    24.3131   MPKI: 0.311005
LLC LOAD TRANSLATION NON_SPEC    ACCESS:     403565  HIT:     357676  MISS:      45889  HIT %:    88.6291  MISS %:    11.3709   MPKI: 0.229445
LLC TRANSLATION FROM L1D PREFETCHER NON_SPEC    ACCESS:         66  HIT:         56  MISS:         10  HIT %:    84.8485  MISS %:    15.1515   MPKI: 5e-05
LLC PREFETCH  REQUESTED:          0  ISSUED:          0  USEFUL:     972063  USELESS:    8917715
LLC USEFUL LOAD PREFETCHES:     972063 PREFETCH ISSUED TO LOWER LEVEL:    9889418  ACCURACY: 9.82932
LLC TIMELY PREFETCHES:     972063 LATE PREFETCHES: 0 DROPPED PREFETCHES: 0
LLC COMMIT LATE PREFETCHES: 0 MISSED OPPORTUNITY: 0 LATE IN PQ: 0 UNCOVERED: 0
LLC COMMIT LATE MSHR PREFETCHES: 0
LLC MPKI TOTAL: 41.3682 MSHR LATE: 0 PQ LATE: 0 COMMIT LATE: 0 MISSED OPPORTUNITY: 0 UNCOVERED: 0
LLC PREFETCHES SAME FILL-ORIGIN LEVEL: 0 DIFFERENT FILL-ORIGIN LEVEL: 0
LLC AVERAGE MISS LATENCY: 156.784 cycles
LLC AVERAGE MISS LATENCY LOAD: 220.898 cycles
LLC AVERAGE MISS LATENCY PREFETCH: 239.362 cycles
LLC AVERAGE MSHR OCCUPANCY: 3.42227
LLC MSHR FULL: 0
LLC RQ	ACCESS:   15350976	FORWARD:          0	MERGED:          0	TO_CACHE:   15350801
LLC WQ	ACCESS:   14160593	FORWARD:        250	MERGED:          0	TO_CACHE:   14160593
LLC PQ	ACCESS:   15356662	FORWARD:          0	MERGED:          0	TO_CACHE:   15356587

LLC Dense regions hint to LLC: 0

RAW hits: 196736
Loads Generated: 48002938
Loads sent to L1D: 47806202
Stores Generated: 6628504
Stores sent to L1D: 6628508
Major fault: 0 Minor fault: 32429
Allocated PAGES: 32429
Total Load insts: 59370762
Total Non-spec loads: 5232832
Percentage of speculative loads: 91.1862

LeapFrogging counter: 775358
Commit hits: 27943738 miss: 14889421
Commit hit %: 65.2386 miss %: 34.7614
Commits not translated: 0
Loads retired: 17167378
Stores retired: 6628508
Cache fills: 17167380
L1D response latency: 137.042 cycles
Load retirement latency: 294.62 cycles
OOO test counter: 0
Discarded buffer inserts: 27943738 hits: 45620 hit %: 0.163257
Filter prediction accuracy: 99.916

stream: 
stream:times selected: 24815353
stream:pref_filled: 19952751
stream:pref_useful: 629387
stream:pref_late: 15793
stream:misses: 5150075
stream:misses_by_poll: 0

CS: 
CS:times selected: 2889068
CS:pref_filled: 690414
CS:pref_useful: 528337
CS:pref_late: 1199
CS:misses: 82380
CS:misses_by_poll: 20044

CPLX: 
CPLX:times selected: 24130760
CPLX:pref_filled: 963922
CPLX:pref_useful: 35054
CPLX:pref_late: 920
CPLX:misses: 18494534
CPLX:misses_by_poll: 54498

NL_L1: 
NL:times selected: 20381
NL:pref_filled: 18320
NL:pref_useful: 94
NL:pref_late: 5
NL:misses: 20652
NL:misses_by_poll: 1

total selections: 51855562
total_filled: 17364679
total_useful: 931955
total_late: 18110
total_polluted: 74543
total_misses_after_warmup: 19727850
conflicts: 0
Degree Incremented Times: 96123
Degree Decremented Times: 902767

L1 IP Table Write Accesses: 54628421
L1 IP Table Read Accesses: 54628421
L1 RST Write Accesses: 18908918
L1 RST Read Accesses: 37817836
L1 CSPT Write Accesses: 18908918
L1 CSPT Read Accesses: 37161680
L1 RR Filter Tag Write Accesses: 18710588
L1 RR Filter Tag Read Accesses: 684903138
L1 IP Table Tag Write Accesses: 54628449
L1 IP Table Tag Read Accesses: 54628449
L1 RST Tag Write Accesses: 0
L1 RST Tag Read Accesses: 170527553
L1 RR Filter Write Accesses: 0
L1 RR Filter Read Accesses: 21927576
test: 11040516

DRAM Statistics
 CHANNEL 0
 RQ ROW_BUFFER_HIT:    2886305  ROW_BUFFER_MISS:   15379819
 DBUS_CONGESTED:       1628
 WQ ROW_BUFFER_HIT:    2134943  ROW_BUFFER_MISS:    7628905  FULL:         97

 AVG_CONGESTED_CYCLE: 5
 All warmup complete: 2
Channel 0 Bank busy for read cycles: 0
Channel 0 Bank busy for write cycles: 0
Channel 0
Rank 0
0banks busy for read cycles: 2942604
0banks busy for write cycles: 977
1banks busy for read cycles: 224999641
1banks busy for write cycles: 2251949
2banks busy for read cycles: 268997347
2banks busy for write cycles: 2228820
3banks busy for read cycles: 220647200
3banks busy for write cycles: 2223914
4banks busy for read cycles: 139402019
4banks busy for write cycles: 2237273
5banks busy for read cycles: 67360284
5banks busy for write cycles: 2520635
6banks busy for read cycles: 23800342
6banks busy for write cycles: 8011454
7banks busy for read cycles: 5631821
7banks busy for write cycles: 59544544
8banks busy for read cycles: 963268
8banks busy for write cycles: 225558227

CPU 0 Branch Prediction Accuracy: 92.9184% MPKI: 15.3683 Average ROB Occupancy at Mispredict: 51.64
Branch types
NOT_BRANCH: 156596208 78.2981%
BRANCH_DIRECT_JUMP: 271551 0.135775%
BRANCH_INDIRECT: 0 0%
BRANCH_CONDITIONAL: 43131869 21.5659%
BRANCH_DIRECT_CALL: 14 7e-06%
BRANCH_INDIRECT_CALL: 0 0%
BRANCH_RETURN: 14 7e-06%
BRANCH_OTHER: 0 0%

DRAM PAGES: 1048576
Allocated PAGES: 32429
