
*** ChampSim Multicore Out-of-Order Simulator ***

Warmup Instructions: 50000000
Simulation Instructions: 200000000
Number of CPUs: 1
LLC sets: 2048
LLC ways: 16
L0D sets: 16
L0D ways: 2
ROB size: 352
LQ size: 128
SQ size: 72
Secure Berti: OFF
Berti: OFF
Berti Fill: OFF
On commit prefetching: ON
Hit-based filter: ON
Time-guarding: ON
Free-slotting: ON
Leap-frogging: ON
Train prefetcher on L0D bypass: OFF
No translation penalty for prefetchers: OFF
Prefetch to L0D only: OFF
Prefetch to L1D only: OFF
Clean evictions: ON
Commit loads: ON
Commit write: ON
Fill commit loads to L2C, LLC: ON
DRAM IO FREQUENCY: 6400
ROB SIZE: 352
Off-chip DRAM Size: 4096 MB Channels: 1 Width: 64-bit Data Rate: 6400 MT/s
CPU 0 runs /home/sumon/secure_berti/GhostMinion/../../traces/gap/bc-5.trace.gz
.gz
BTB has LRU replacement policy
ITLB has LRU replacement policy
DTLB has LRU replacement policy
STLB has LRU replacement policy
L1I has LRU replacement policy
L0D has LRU replacement policy
IP Table Entries: 1024
CSPT Entries: 128
RR_ENTRIES: 32
RST_ENTRIES: 8
L1D has LRU replacement policy
L2C has LRU replacement policy
LLC has LRU replacement policy
Heartbeat CPU 0 instructions: 10000002 cycles: 3928796 heartbeat IPC: 2.54531 cumulative IPC: 2.54531 (Simulation time: 0 hr 1 min 42 sec) 
Heartbeat CPU 0 instructions: 20000001 cycles: 7461519 heartbeat IPC: 2.83068 cumulative IPC: 2.68042 (Simulation time: 0 hr 3 min 19 sec) 
Heartbeat CPU 0 instructions: 30000001 cycles: 11021644 heartbeat IPC: 2.80889 cumulative IPC: 2.72192 (Simulation time: 0 hr 4 min 45 sec) 
Heartbeat CPU 0 instructions: 40000003 cycles: 14526514 heartbeat IPC: 2.85317 cumulative IPC: 2.75359 (Simulation time: 0 hr 5 min 41 sec) 
Heartbeat CPU 0 instructions: 50000000 cycles: 18152583 heartbeat IPC: 2.75781 cumulative IPC: 2.75443 (Simulation time: 0 hr 6 min 39 sec) 

Warmup complete CPU 0 instructions: 50000004 cycles: 18152584 (Simulation time: 0 hr 6 min 39 sec) 

Heartbeat CPU 0 instructions: 60000000 cycles: 80136477 heartbeat IPC: 0.161332 cumulative IPC: 0.161332 (Simulation time: 0 hr 7 min 53 sec) 
Heartbeat CPU 0 instructions: 70000001 cycles: 140752960 heartbeat IPC: 0.164972 cumulative IPC: 0.163132 (Simulation time: 0 hr 9 min 4 sec) 
Heartbeat CPU 0 instructions: 80000003 cycles: 203521351 heartbeat IPC: 0.159316 cumulative IPC: 0.16184 (Simulation time: 0 hr 10 min 16 sec) 
Heartbeat CPU 0 instructions: 90000000 cycles: 265606423 heartbeat IPC: 0.161069 cumulative IPC: 0.161646 (Simulation time: 0 hr 11 min 26 sec) 
Heartbeat CPU 0 instructions: 100000003 cycles: 328085492 heartbeat IPC: 0.160054 cumulative IPC: 0.161325 (Simulation time: 0 hr 12 min 35 sec) 
Heartbeat CPU 0 instructions: 110000000 cycles: 389076897 heartbeat IPC: 0.163957 cumulative IPC: 0.161758 (Simulation time: 0 hr 13 min 41 sec) 
Heartbeat CPU 0 instructions: 120000001 cycles: 450220206 heartbeat IPC: 0.16355 cumulative IPC: 0.162012 (Simulation time: 0 hr 14 min 47 sec) 
Heartbeat CPU 0 instructions: 130000001 cycles: 511078152 heartbeat IPC: 0.164317 cumulative IPC: 0.162296 (Simulation time: 0 hr 15 min 53 sec) 
Heartbeat CPU 0 instructions: 140000002 cycles: 560679305 heartbeat IPC: 0.201608 cumulative IPC: 0.16589 (Simulation time: 0 hr 16 min 55 sec) 
Heartbeat CPU 0 instructions: 150000002 cycles: 600370097 heartbeat IPC: 0.251948 cumulative IPC: 0.171757 (Simulation time: 0 hr 17 min 55 sec) 
Heartbeat CPU 0 instructions: 160000001 cycles: 640314686 heartbeat IPC: 0.250347 cumulative IPC: 0.176803 (Simulation time: 0 hr 18 min 53 sec) 
Heartbeat CPU 0 instructions: 170000001 cycles: 680122764 heartbeat IPC: 0.251205 cumulative IPC: 0.181277 (Simulation time: 0 hr 19 min 51 sec) 
Heartbeat CPU 0 instructions: 180000003 cycles: 720065708 heartbeat IPC: 0.250357 cumulative IPC: 0.185208 (Simulation time: 0 hr 20 min 49 sec) 
Heartbeat CPU 0 instructions: 190000002 cycles: 759778612 heartbeat IPC: 0.251807 cumulative IPC: 0.188774 (Simulation time: 0 hr 21 min 47 sec) 
Heartbeat CPU 0 instructions: 200000002 cycles: 799550281 heartbeat IPC: 0.251435 cumulative IPC: 0.191964 (Simulation time: 0 hr 22 min 45 sec) 
Heartbeat CPU 0 instructions: 210000003 cycles: 839272879 heartbeat IPC: 0.251746 cumulative IPC: 0.194856 (Simulation time: 0 hr 23 min 42 sec) 
Heartbeat CPU 0 instructions: 220000000 cycles: 879633217 heartbeat IPC: 0.247768 cumulative IPC: 0.197335 (Simulation time: 0 hr 24 min 40 sec) 
Heartbeat CPU 0 instructions: 230000002 cycles: 920516509 heartbeat IPC: 0.244599 cumulative IPC: 0.199476 (Simulation time: 0 hr 25 min 39 sec) 
Heartbeat CPU 0 instructions: 240000002 cycles: 961456627 heartbeat IPC: 0.244259 cumulative IPC: 0.20142 (Simulation time: 0 hr 26 min 36 sec) 
Heartbeat CPU 0 instructions: 250000002 cycles: 1002698141 heartbeat IPC: 0.242474 cumulative IPC: 0.203139 (Simulation time: 0 hr 27 min 34 sec) 
Finished CPU 0 instructions: 200000002 cycles: 984545558 cumulative IPC: 0.203139 (Simulation time: 0 hr 27 min 34 sec) 
 Instruction ID: 250000264

ChampSim completed all CPUs

Region of Interest Statistics

CPU 0 cumulative IPC: 0.203139 instructions: 200000002 cycles: 984545558
ITLB SPEC fills:          0  NON-SPEC fills:          0
ITLB Test counter :          0
ITLB Leapfrog:          0
ITLB MSHR merge:          0
ITLB TOTAL     ACCESS:   34199165  HIT:   34199165  MISS:          0  HIT %:        100  MISS %:          0   MPKI: 0
ITLB LOAD TRANSLATION NON_SPEC    ACCESS:   34199165  HIT:   34199165  MISS:          0  HIT %:        100  MISS %:          0   MPKI: 0
ITLB PREFETCH  REQUESTED:          0  ISSUED:          0  USEFUL:          0  USELESS:          0
ITLB USEFUL LOAD PREFETCHES:          0 PREFETCH ISSUED TO LOWER LEVEL:          0  ACCURACY: -nan
ITLB TIMELY PREFETCHES:          0 LATE PREFETCHES: 0 DROPPED PREFETCHES: 0
ITLB COMMIT LATE PREFETCHES: 0 MISSED OPPORTUNITY: 0 LATE IN PQ: 0 UNCOVERED: 0
ITLB COMMIT LATE MSHR PREFETCHES: 0
ITLB MPKI TOTAL: 0 MSHR LATE: 0 PQ LATE: 0 COMMIT LATE: 0 MISSED OPPORTUNITY: 0 UNCOVERED: 0
ITLB PREFETCHES SAME FILL-ORIGIN LEVEL: 0 DIFFERENT FILL-ORIGIN LEVEL: 0
ITLB AVERAGE MISS LATENCY: -nan cycles
ITLB AVERAGE MISS LATENCY LOAD: -nan cycles
ITLB AVERAGE MISS LATENCY PREFETCH: -nan cycles
ITLB AVERAGE MSHR OCCUPANCY: 0
ITLB MSHR FULL: 0
ITLB RQ	ACCESS:   34507711	FORWARD:          0	MERGED:     308546	TO_CACHE:   34199165

DTLB SPEC fills:          0  NON-SPEC fills:          0
DTLB Test counter :          0
DTLB Leapfrog:          0
DTLB MSHR merge:          0
DTLB TOTAL     ACCESS:   41799889  HIT:   33611846  MISS:    8188043  HIT %:    80.4113  MISS %:    19.5887   MPKI: 40.9402
DTLB LOAD TRANSLATION NON_SPEC    ACCESS:   41799889  HIT:   33611846  MISS:    8188043  HIT %:    80.4113  MISS %:    19.5887   MPKI: 40.9402
DTLB PREFETCH  REQUESTED:          0  ISSUED:          0  USEFUL:          0  USELESS:          0
DTLB USEFUL LOAD PREFETCHES:          0 PREFETCH ISSUED TO LOWER LEVEL:          0  ACCURACY: -nan
DTLB TIMELY PREFETCHES:          0 LATE PREFETCHES: 0 DROPPED PREFETCHES: 0
DTLB COMMIT LATE PREFETCHES: 0 MISSED OPPORTUNITY: 0 LATE IN PQ: 0 UNCOVERED: 0
DTLB COMMIT LATE MSHR PREFETCHES: 0
DTLB MPKI TOTAL: 0 MSHR LATE: 0 PQ LATE: 0 COMMIT LATE: 0 MISSED OPPORTUNITY: 0 UNCOVERED: 0
DTLB PREFETCHES SAME FILL-ORIGIN LEVEL: 0 DIFFERENT FILL-ORIGIN LEVEL: 0
DTLB AVERAGE MISS LATENCY: 31.1682 cycles
DTLB AVERAGE MISS LATENCY LOAD: -nan cycles
DTLB AVERAGE MISS LATENCY PREFETCH: -nan cycles
DTLB AVERAGE MSHR OCCUPANCY: 0.824321
DTLB MSHR FULL: 0.0277703
DTLB RQ	ACCESS:   47749073	FORWARD:          0	MERGED:    4606738	TO_CACHE:   43142335

STLB SPEC fills:          0  NON-SPEC fills:          0
STLB Test counter :          0
STLB Leapfrog:          0
STLB MSHR merge:          0
STLB TOTAL     ACCESS:   21447693  HIT:   20047093  MISS:    1400600  HIT %:    93.4697  MISS %:    6.53031   MPKI: 7.003
STLB LOAD TRANSLATION NON_SPEC    ACCESS:    8188043  HIT:    6787660  MISS:    1400383  HIT %:    82.8972  MISS %:    17.1028   MPKI: 7.00191
STLB TRANSLATION FROM L1D PREFETCHER NON_SPEC    ACCESS:   13259650  HIT:   13259433  MISS:        217  HIT %:    99.9984  MISS %: 0.00163654   MPKI: 0.001085
STLB PREFETCH  REQUESTED:          0  ISSUED:          0  USEFUL:        193  USELESS:         24
STLB USEFUL LOAD PREFETCHES:        193 PREFETCH ISSUED TO LOWER LEVEL:          0  ACCURACY: inf
STLB TIMELY PREFETCHES:        193 LATE PREFETCHES: 0 DROPPED PREFETCHES: 0
STLB COMMIT LATE PREFETCHES: 0 MISSED OPPORTUNITY: 0 LATE IN PQ: 0 UNCOVERED: 0
STLB COMMIT LATE MSHR PREFETCHES: 0
STLB MPKI TOTAL: 0 MSHR LATE: 0 PQ LATE: 0 COMMIT LATE: 0 MISSED OPPORTUNITY: 0 UNCOVERED: 0
STLB PREFETCHES SAME FILL-ORIGIN LEVEL: 0 DIFFERENT FILL-ORIGIN LEVEL: 0
STLB AVERAGE MISS LATENCY: 127.412 cycles
STLB AVERAGE MISS LATENCY LOAD: -nan cycles
STLB AVERAGE MISS LATENCY PREFETCH: -nan cycles
STLB AVERAGE MSHR OCCUPANCY: 0.155725
STLB MSHR FULL: 0
STLB RQ	ACCESS:   26170702	FORWARD:          0	MERGED:    4722900	TO_CACHE:   21447802

STLB Hit, L1D data hit: 0
STLB Hit, L2C data hit: 0
STLB Hit, LLC data hit: 0
STLB Hit, LLC data miss: 0
STLB STLB hints to L2: 0
L0D SPEC fills:   24963019  NON-SPEC fills:          0
L0D TimeGuard Request with older TS:     473331 Restricted eviction:     344383 read:       1218
L0D Test counter :          0
L0D Leapfrog:          0
L0D MSHR merge:    2152704
L0D TOTAL     ACCESS:   38091194  HIT:   10544962  MISS:   27546232  HIT %:    27.6835  MISS %:    72.3165   MPKI: 137.731
L0D LOAD      TOTAL       ACCESS:   38091194  HIT:   10544962  MISS:   27546232  HIT %:    27.6835  MISS %:    72.3165   MPKI: 137.731
L0D LOAD      NON_SPEC    ACCESS:    2241396  HIT:       2479  MISS:    2238917  HIT %:   0.110601  MISS %:    99.8894   MPKI: 11.1946
L0D LOAD      SPEC        ACCESS:   35849798  HIT:   10542483  MISS:   25307315  HIT %:    29.4074  MISS %:    70.5926   MPKI: 126.537
L0D PREFETCH  REQUESTED:          0  ISSUED:          0  USEFUL:          0  USELESS:          0
L0D USEFUL LOAD PREFETCHES:          0 PREFETCH ISSUED TO LOWER LEVEL:          0  ACCURACY: -nan
L0D TIMELY PREFETCHES:          0 LATE PREFETCHES: 0 DROPPED PREFETCHES: 0
L0D COMMIT LATE PREFETCHES: 0 MISSED OPPORTUNITY: 0 LATE IN PQ: 0 UNCOVERED: 0
L0D COMMIT LATE MSHR PREFETCHES: 0
L0D MPKI TOTAL: 148.495 MSHR LATE: 0 PQ LATE: 0 COMMIT LATE: 0 MISSED OPPORTUNITY: 0 UNCOVERED: 0
L0D PREFETCHES SAME FILL-ORIGIN LEVEL: 0 DIFFERENT FILL-ORIGIN LEVEL: 0
L0D AVERAGE MISS LATENCY: 100.158 cycles
L0D AVERAGE MISS LATENCY LOAD: 100.158 cycles
L0D AVERAGE MISS LATENCY PREFETCH: -nan cycles
L0D AVERAGE MSHR OCCUPANCY: 5.84155
L0D MSHR FULL: 0.588427
L0D RQ	ACCESS:   47031656	FORWARD:          0	MERGED:    6787765	TO_CACHE:   40243891
L0D WQ	ACCESS:    7505182	FORWARD:          0	MERGED:          0	TO_CACHE:    7505182

L1D SPEC fills:          0  NON-SPEC fills:    1108629
L1D Test counter :          0
L1D Leapfrog:          0
L1D MSHR merge:     412394
L1D TOTAL     ACCESS:   66719285  HIT:   16781482  MISS:   49937803  HIT %:    25.1524  MISS %:    74.8476   MPKI: 249.689
L1D LOAD      TOTAL       ACCESS:   27537262  HIT:   10333664  MISS:   17203598  HIT %:    37.5261  MISS %:    62.4739   MPKI: 86.018
L1D LOAD      NON_SPEC    ACCESS:    2235025  HIT:    1126396  MISS:    1108629  HIT %:    50.3975  MISS %:    49.6025   MPKI: 5.54314
L1D LOAD      SPEC        ACCESS:   25302237  HIT:    9207268  MISS:   16094969  HIT %:    36.3891  MISS %:    63.6109   MPKI: 80.4748
L1D RFO       NON_SPEC    ACCESS:    3949803  HIT:    3914512  MISS:      35291  HIT %:    99.1065  MISS %:   0.893488   MPKI: 0.176455
L1D PREFETCH  NON_SPEC    ACCESS:   17392253  HIT:     708195  MISS:   16684058  HIT %:     4.0719  MISS %:    95.9281   MPKI: 83.4203
L1D COMMIT LOAD NON_SPEC    ACCESS:    1883025  HIT:    1490862  MISS:     392163  HIT %:    79.1738  MISS %:    20.8262   MPKI: 1.96081
L1D COMMIT WRITE NON_SPEC    ACCESS:   15956942  HIT:     334249  MISS:   15622693  HIT %:    2.09469  MISS %:    97.9053   MPKI: 78.1135
L1D PREFETCH  REQUESTED:   17982730  ISSUED:   17982660  USEFUL:     579187  USELESS:   16104888
L1D USEFUL LOAD PREFETCHES:     579187 PREFETCH ISSUED TO LOWER LEVEL:   17101967  ACCURACY: 3.38667
L1D TIMELY PREFETCHES:     579187 LATE PREFETCHES: 408149 DROPPED PREFETCHES: 0
L1D COMMIT LATE PREFETCHES: 0 MISSED OPPORTUNITY: 0 LATE IN PQ: 0 UNCOVERED: 0
L1D COMMIT LATE MSHR PREFETCHES: 0
L1D MPKI TOTAL: 86.0628 MSHR LATE: 2.04074 PQ LATE: 0 COMMIT LATE: 0 MISSED OPPORTUNITY: 0 UNCOVERED: 0
L1D PREFETCHES SAME FILL-ORIGIN LEVEL: 17101967 DIFFERENT FILL-ORIGIN LEVEL: 0
L1D AVERAGE MISS LATENCY: 107.58 cycles
L1D AVERAGE MISS LATENCY LOAD: 142.359 cycles
L1D AVERAGE MISS LATENCY PREFETCH: 173.052 cycles
L1D AVERAGE MSHR OCCUPANCY: 8.59756
L1D MSHR FULL: 0.187941
L1D RQ	ACCESS:   30074542	FORWARD:          0	MERGED:     632951	TO_CACHE:   29441543
L1D WQ	ACCESS:   23462135	FORWARD:         48	MERGED:    3472618	TO_CACHE:   19989517
L1D PQ	ACCESS:   17982660	FORWARD:          0	MERGED:          0	TO_CACHE:   17982660

L1D UNIQUE REGIONS ACCESSED: 0
L1D REGIONS CONFLICTS: 0
L1D Cross Page Prefetch Requests: 0
L1D Same Page Prefetch Requests: 22120336
L1D ROI Sum of L1D PQ occupancy: 247211278
L1D PREFETCHES PUSHED FROM L2C: 0
L1I SPEC fills:          0  NON-SPEC fills:          0
L1I Test counter :          0
L1I Leapfrog:          0
L1I MSHR merge:          0
L1I TOTAL     ACCESS:   34507710  HIT:   34507710  MISS:          0  HIT %:        100  MISS %:          0   MPKI: 0
L1I LOAD      TOTAL       ACCESS:   34507710  HIT:   34507710  MISS:          0  HIT %:        100  MISS %:          0   MPKI: 0
L1I LOAD      NON_SPEC    ACCESS:   34507710  HIT:   34507710  MISS:          0  HIT %:        100  MISS %:          0   MPKI: 0
L1I PREFETCH  REQUESTED:          0  ISSUED:          0  USEFUL:          0  USELESS:          0
L1I USEFUL LOAD PREFETCHES:          0 PREFETCH ISSUED TO LOWER LEVEL:          0  ACCURACY: -nan
L1I TIMELY PREFETCHES:          0 LATE PREFETCHES: 0 DROPPED PREFETCHES: 0
L1I COMMIT LATE PREFETCHES: 0 MISSED OPPORTUNITY: 0 LATE IN PQ: 0 UNCOVERED: 0
L1I COMMIT LATE MSHR PREFETCHES: 0
L1I MPKI TOTAL: 0 MSHR LATE: 0 PQ LATE: 0 COMMIT LATE: 0 MISSED OPPORTUNITY: 0 UNCOVERED: 0
L1I PREFETCHES SAME FILL-ORIGIN LEVEL: 0 DIFFERENT FILL-ORIGIN LEVEL: 0
L1I AVERAGE MISS LATENCY: -nan cycles
L1I AVERAGE MISS LATENCY LOAD: -nan cycles
L1I AVERAGE MISS LATENCY PREFETCH: -nan cycles
L1I AVERAGE MSHR OCCUPANCY: 0
L1I MSHR FULL: 0
L1I RQ	ACCESS:   54353428	FORWARD:          0	MERGED:   19845717	TO_CACHE:   34507711

BTB SPEC fills:          0  NON-SPEC fills:          0
BTB Test counter :          0
BTB Leapfrog:          0
BTB MSHR merge:          0
BTB TOTAL     ACCESS:   41913138  HIT:   41913096  MISS:         42  HIT %:    99.9999  MISS %: 0.000100207   MPKI: 0.00021
BTB BRANCH_DIRECT_JUMP	ACCESS:     294369  HIT:     294357  MISS:         12
BTB BRANCH_INDIRECT	ACCESS:          0  HIT:          0  MISS:          0
BTB BRANCH_CONDITIONAL	ACCESS:   41618725  HIT:   41618710  MISS:         15
BTB BRANCH_DIRECT_CALL	ACCESS:         22  HIT:         15  MISS:          7
BTB BRANCH_INDIRECT_CALL	ACCESS:          0  HIT:          0  MISS:          0
BTB BRANCH_RETURN	ACCESS:         22  HIT:         14  MISS:          8
BTB BRANCH_OTHER ACCESS:          0  HIT:          0  MISS:          0

L2C SPEC fills:          0  NON-SPEC fills:     926502
L2C Test counter :          0
L2C Leapfrog:          0
L2C MSHR merge:          0
L2C TOTAL     ACCESS:   55174627  HIT:   12250849  MISS:   42923778  HIT %:    22.2038  MISS %:    77.7962   MPKI: 214.619
L2C LOAD      TOTAL       ACCESS:   16799458  HIT:    2399659  MISS:   14399799  HIT %:    14.2841  MISS %:    85.7159   MPKI: 71.999
L2C LOAD      NON_SPEC    ACCESS:    1061349  HIT:     134847  MISS:     926502  HIT %:    12.7052  MISS %:    87.2948   MPKI: 4.63251
L2C LOAD      SPEC        ACCESS:   15738109  HIT:    2264812  MISS:   13473297  HIT %:    14.3906  MISS %:    85.6094   MPKI: 67.3665
L2C RFO       NON_SPEC    ACCESS:      25514  HIT:      18511  MISS:       7003  HIT %:    72.5523  MISS %:    27.4477   MPKI: 0.035015
L2C PREFETCH  NON_SPEC    ACCESS:   17101955  HIT:    2090317  MISS:   15011638  HIT %:    12.2227  MISS %:    87.7773   MPKI: 75.0582
L2C WRITEBACK NON_SPEC    ACCESS:     296048  HIT:     295593  MISS:        455  HIT %:    99.8463  MISS %:   0.153691   MPKI: 0.002275
L2C CLEAN_EVICTION NON_SPEC    ACCESS:   13561256  HIT:     611021  MISS:   12950235  HIT %:    4.50564  MISS %:    95.4944   MPKI: 64.7512
L2C COMMIT LOAD NON_SPEC    ACCESS:     387439  HIT:      97928  MISS:     289511  HIT %:    25.2757  MISS %:    74.7243   MPKI: 1.44755
L2C LOAD TRANSLATION NON_SPEC    ACCESS:    7001872  HIT:    6736750  MISS:     265122  HIT %:    96.2136  MISS %:    3.78644   MPKI: 1.32561
L2C TRANSLATION FROM L1D PREFETCHER NON_SPEC    ACCESS:       1085  HIT:       1070  MISS:         15  HIT %:    98.6175  MISS %:    1.38249   MPKI: 7.5e-05
L2C PREFETCH  REQUESTED:          0  ISSUED:          0  USEFUL:     467531  USELESS:   14544156
L2C USEFUL LOAD PREFETCHES:     467531 PREFETCH ISSUED TO LOWER LEVEL:   15011638  ACCURACY: 3.11446
L2C TIMELY PREFETCHES:     467531 LATE PREFETCHES: 0 DROPPED PREFETCHES: 0
L2C COMMIT LATE PREFETCHES: 0 MISSED OPPORTUNITY: 0 LATE IN PQ: 0 UNCOVERED: 0
L2C COMMIT LATE MSHR PREFETCHES: 0
L2C MPKI TOTAL: 71.999 MSHR LATE: 0 PQ LATE: 0 COMMIT LATE: 0 MISSED OPPORTUNITY: 0 UNCOVERED: 0
L2C PREFETCHES SAME FILL-ORIGIN LEVEL: 0 DIFFERENT FILL-ORIGIN LEVEL: 0
L2C AVERAGE MISS LATENCY: 115.908 cycles
L2C AVERAGE MISS LATENCY LOAD: 149.524 cycles
L2C AVERAGE MISS LATENCY PREFETCH: 184.395 cycles
L2C AVERAGE MSHR OCCUPANCY: 6.50345
L2C MSHR FULL: 0
L2C RQ	ACCESS:   24216097	FORWARD:          0	MERGED:          0	TO_CACHE:   24215367
L2C WQ	ACCESS:   13857313	FORWARD:        744	MERGED:          9	TO_CACHE:   13857304
L2C PQ	ACCESS:   17101967	FORWARD:          0	MERGED:          0	TO_CACHE:   17101953

L2C Instructions Evicting Data 0
L2C Translations Evicting Data 261793
L2C Data Evicting Data 16088518
L2C Instructions Evicting Instructions 0
L2C Translations Evicting Instructions 0
L2C Data Evicting Instructions 0
L2C Instructions Evicting Translations 0
L2C Translations Evicting Translations 3344
L2C Data Evicting Translations 146136
L2C Dense regions hint from L2: 0
PSCL5 SPEC fills:          0  NON-SPEC fills:          0
PSCL5 Test counter :          0
PSCL5 Leapfrog:          0
PSCL5 MSHR merge:          0
PSCL5 TOTAL     ACCESS:          0  HIT:          0  MISS:          0  HIT %:       -nan  MISS %:       -nan   MPKI: 0
PSCL5 PREFETCH  REQUESTED:          0  ISSUED:          0  USEFUL:          0  USELESS:          0
PSCL5 USEFUL LOAD PREFETCHES:          0 PREFETCH ISSUED TO LOWER LEVEL:          0  ACCURACY: -nan
PSCL5 TIMELY PREFETCHES:          0 LATE PREFETCHES: 0 DROPPED PREFETCHES: 0
PSCL5 COMMIT LATE PREFETCHES: 0 MISSED OPPORTUNITY: 0 LATE IN PQ: 0 UNCOVERED: 0
PSCL5 COMMIT LATE MSHR PREFETCHES: 0
PSCL5 MPKI TOTAL: 0 MSHR LATE: 0 PQ LATE: 0 COMMIT LATE: 0 MISSED OPPORTUNITY: 0 UNCOVERED: 0
PSCL5 PREFETCHES SAME FILL-ORIGIN LEVEL: 0 DIFFERENT FILL-ORIGIN LEVEL: 0

PSCL4 SPEC fills:          0  NON-SPEC fills:          0
PSCL4 Test counter :          0
PSCL4 Leapfrog:          0
PSCL4 MSHR merge:          0
PSCL4 TOTAL     ACCESS:          0  HIT:          0  MISS:          0  HIT %:       -nan  MISS %:       -nan   MPKI: 0
PSCL4 PREFETCH  REQUESTED:          0  ISSUED:          0  USEFUL:          0  USELESS:          0
PSCL4 USEFUL LOAD PREFETCHES:          0 PREFETCH ISSUED TO LOWER LEVEL:          0  ACCURACY: -nan
PSCL4 TIMELY PREFETCHES:          0 LATE PREFETCHES: 0 DROPPED PREFETCHES: 0
PSCL4 COMMIT LATE PREFETCHES: 0 MISSED OPPORTUNITY: 0 LATE IN PQ: 0 UNCOVERED: 0
PSCL4 COMMIT LATE MSHR PREFETCHES: 0
PSCL4 MPKI TOTAL: 0 MSHR LATE: 0 PQ LATE: 0 COMMIT LATE: 0 MISSED OPPORTUNITY: 0 UNCOVERED: 0
PSCL4 PREFETCHES SAME FILL-ORIGIN LEVEL: 0 DIFFERENT FILL-ORIGIN LEVEL: 0

PSCL3 SPEC fills:          0  NON-SPEC fills:          0
PSCL3 Test counter :          0
PSCL3 Leapfrog:          0
PSCL3 MSHR merge:          0
PSCL3 TOTAL     ACCESS:          0  HIT:          0  MISS:          0  HIT %:       -nan  MISS %:       -nan   MPKI: 0
PSCL3 PREFETCH  REQUESTED:          0  ISSUED:          0  USEFUL:          0  USELESS:          0
PSCL3 USEFUL LOAD PREFETCHES:          0 PREFETCH ISSUED TO LOWER LEVEL:          0  ACCURACY: -nan
PSCL3 TIMELY PREFETCHES:          0 LATE PREFETCHES: 0 DROPPED PREFETCHES: 0
PSCL3 COMMIT LATE PREFETCHES: 0 MISSED OPPORTUNITY: 0 LATE IN PQ: 0 UNCOVERED: 0
PSCL3 COMMIT LATE MSHR PREFETCHES: 0
PSCL3 MPKI TOTAL: 0 MSHR LATE: 0 PQ LATE: 0 COMMIT LATE: 0 MISSED OPPORTUNITY: 0 UNCOVERED: 0
PSCL3 PREFETCHES SAME FILL-ORIGIN LEVEL: 0 DIFFERENT FILL-ORIGIN LEVEL: 0

PSCL2 SPEC fills:          0  NON-SPEC fills:          0
PSCL2 Test counter :          0
PSCL2 Leapfrog:          0
PSCL2 MSHR merge:          0
PSCL2 TOTAL     ACCESS:          0  HIT:          0  MISS:          0  HIT %:       -nan  MISS %:       -nan   MPKI: 0
PSCL2 PREFETCH  REQUESTED:          0  ISSUED:          0  USEFUL:          0  USELESS:          0
PSCL2 USEFUL LOAD PREFETCHES:          0 PREFETCH ISSUED TO LOWER LEVEL:          0  ACCURACY: -nan
PSCL2 TIMELY PREFETCHES:          0 LATE PREFETCHES: 0 DROPPED PREFETCHES: 0
PSCL2 COMMIT LATE PREFETCHES: 0 MISSED OPPORTUNITY: 0 LATE IN PQ: 0 UNCOVERED: 0
PSCL2 COMMIT LATE MSHR PREFETCHES: 0
PSCL2 MPKI TOTAL: 0 MSHR LATE: 0 PQ LATE: 0 COMMIT LATE: 0 MISSED OPPORTUNITY: 0 UNCOVERED: 0
PSCL2 PREFETCHES SAME FILL-ORIGIN LEVEL: 0 DIFFERENT FILL-ORIGIN LEVEL: 0

LLC SPEC fills:          0  NON-SPEC fills:     554780
LLC Test counter :          0
LLC Leapfrog:          0
LLC MSHR merge:          0
LLC TOTAL     ACCESS:   43808965  HIT:   18830104  MISS:   24978861  HIT %:    42.9823  MISS %:    57.0177   MPKI: 124.894
LLC LOAD      TOTAL       ACCESS:   14399557  HIT:    6665584  MISS:    7733973  HIT %:    46.2902  MISS %:    53.7098   MPKI: 38.6699
LLC LOAD      NON_SPEC    ACCESS:     926490  HIT:     371710  MISS:     554780  HIT %:    40.1202  MISS %:    59.8798   MPKI: 2.7739
LLC LOAD      SPEC        ACCESS:   13473067  HIT:    6293874  MISS:    7179193  HIT %:    46.7145  MISS %:    53.2855   MPKI: 35.896
LLC RFO       NON_SPEC    ACCESS:       7003  HIT:        108  MISS:       6895  HIT %:     1.5422  MISS %:    98.4578   MPKI: 0.034475
LLC PREFETCH  NON_SPEC    ACCESS:   15011559  HIT:    5715398  MISS:    9296161  HIT %:    38.0733  MISS %:    61.9267   MPKI: 46.4808
LLC WRITEBACK NON_SPEC    ACCESS:     286806  HIT:     286713  MISS:         93  HIT %:    99.9676  MISS %:  0.0324261   MPKI: 0.000465
LLC CLEAN_EVICTION NON_SPEC    ACCESS:   13549447  HIT:    5746058  MISS:    7803389  HIT %:    42.4081  MISS %:    57.5919   MPKI: 39.0169
LLC COMMIT LOAD NON_SPEC    ACCESS:     289456  HIT:     214154  MISS:      75302  HIT %:     73.985  MISS %:     26.015   MPKI: 0.37651
LLC LOAD TRANSLATION NON_SPEC    ACCESS:     265122  HIT:     202079  MISS:      63043  HIT %:    76.2211  MISS %:    23.7789   MPKI: 0.315215
LLC TRANSLATION FROM L1D PREFETCHER NON_SPEC    ACCESS:         15  HIT:         10  MISS:          5  HIT %:    66.6667  MISS %:    33.3333   MPKI: 2.5e-05
LLC PREFETCH  REQUESTED:          0  ISSUED:          0  USEFUL:     964038  USELESS:    8334790
LLC USEFUL LOAD PREFETCHES:     964038 PREFETCH ISSUED TO LOWER LEVEL:    9296161  ACCURACY: 10.3703
LLC TIMELY PREFETCHES:     964038 LATE PREFETCHES: 0 DROPPED PREFETCHES: 0
LLC COMMIT LATE PREFETCHES: 0 MISSED OPPORTUNITY: 0 LATE IN PQ: 0 UNCOVERED: 0
LLC COMMIT LATE MSHR PREFETCHES: 0
LLC MPKI TOTAL: 38.6699 MSHR LATE: 0 PQ LATE: 0 COMMIT LATE: 0 MISSED OPPORTUNITY: 0 UNCOVERED: 0
LLC PREFETCHES SAME FILL-ORIGIN LEVEL: 0 DIFFERENT FILL-ORIGIN LEVEL: 0
LLC AVERAGE MISS LATENCY: 167.962 cycles
LLC AVERAGE MISS LATENCY LOAD: 238.157 cycles
LLC AVERAGE MISS LATENCY PREFETCH: 249.184 cycles
LLC AVERAGE MSHR OCCUPANCY: 5.07128
LLC MSHR FULL: 0
LLC RQ	ACCESS:   14961449	FORWARD:          0	MERGED:          0	TO_CACHE:   14961152
LLC WQ	ACCESS:   13836253	FORWARD:        376	MERGED:          0	TO_CACHE:   13836253
LLC PQ	ACCESS:   15011638	FORWARD:          0	MERGED:          0	TO_CACHE:   15011559

LLC Dense regions hint to LLC: 0

RAW hits: 2445274
Loads Generated: 49476931
Loads sent to L1D: 47031656
Stores Generated: 7505174
Stores sent to L1D: 7505182
Major fault: 0 Minor fault: 33326
Allocated PAGES: 33326
Total Load insts: 60840933
Total Non-spec loads: 2625386
Percentage of speculative loads: 95.6848

LeapFrogging counter: 24511839
Commit hits: 24542196 miss: 20248067
Commit hit %: 54.7936 miss %: 45.2064
Commits not translated: 0
Loads retired: 17203589
Stores retired: 7505182
Cache fills: 17203598
L1D response latency: 142.359 cycles
Load retirement latency: 366.181 cycles
OOO test counter: 0
Discarded buffer inserts: 24542196 hits: 80205 hit %: 0.326804
Filter prediction accuracy: 99.7014

stream: 
stream:times selected: 24310037
stream:pref_filled: 19488499
stream:pref_useful: 618913
stream:pref_late: 48725
stream:misses: 4625551
stream:misses_by_poll: 0

CS: 
CS:times selected: 2775179
CS:pref_filled: 190486
CS:pref_useful: 131623
CS:pref_late: 918
CS:misses: 41460
CS:misses_by_poll: 4368

CPLX: 
CPLX:times selected: 24162959
CPLX:pref_filled: 1039099
CPLX:pref_useful: 33701
CPLX:pref_late: 3106
CPLX:misses: 19345459
CPLX:misses_by_poll: 61560

NL_L1: 
NL:times selected: 16379
NL:pref_filled: 14566
NL:pref_useful: 107
NL:pref_late: 1
NL:misses: 19781
NL:misses_by_poll: 0

total selections: 51264554
total_filled: 16684058
total_useful: 579187
total_late: 55312
total_polluted: 65928
total_misses_after_warmup: 19623056
conflicts: 4
Degree Incremented Times: 0
Degree Decremented Times: 974601

L1 IP Table Write Accesses: 56977959
L1 IP Table Read Accesses: 56977955
L1 RST Write Accesses: 18730067
L1 RST Read Accesses: 37460134
L1 CSPT Write Accesses: 18730067
L1 CSPT Read Accesses: 37335787
L1 RR Filter Tag Write Accesses: 17982730
L1 RR Filter Tag Read Accesses: 676246866
L1 IP Table Tag Write Accesses: 56978004
L1 IP Table Tag Read Accesses: 56978004
L1 RST Tag Write Accesses: 0
L1 RST Tag Read Accesses: 167914792
L1 RR Filter Write Accesses: 0
L1 RR Filter Read Accesses: 21456138
test: 9156201

DRAM Statistics
 CHANNEL 0
 RQ ROW_BUFFER_HIT:    4436157  ROW_BUFFER_MISS:   12726614
 DBUS_CONGESTED:       3301
 WQ ROW_BUFFER_HIT:    1384859  ROW_BUFFER_MISS:    7941506  FULL:        747

 AVG_CONGESTED_CYCLE: 5
 All warmup complete: 2
Channel 0 Bank busy for read cycles: 0
Channel 0 Bank busy for write cycles: 0
Channel 0
Rank 0
0banks busy for read cycles: 43016647
0banks busy for write cycles: 65416
1banks busy for read cycles: 109090208
1banks busy for write cycles: 9319626
2banks busy for read cycles: 131984542
2banks busy for write cycles: 7352403
3banks busy for read cycles: 134900170
3banks busy for write cycles: 6911016
4banks busy for read cycles: 120143063
4banks busy for write cycles: 6999602
5banks busy for read cycles: 89569388
5banks busy for write cycles: 7796770
6banks busy for read cycles: 52440319
6banks busy for write cycles: 12725063
7banks busy for read cycles: 21794675
7banks busy for write cycles: 49881408
8banks busy for read cycles: 5110563
8banks busy for write cycles: 175444680

CPU 0 Branch Prediction Accuracy: 97.9623% MPKI: 4.27319 Average ROB Occupancy at Mispredict: 142.685
Branch types
NOT_BRANCH: 158057982 79.029%
BRANCH_DIRECT_JUMP: 294369 0.147184%
BRANCH_INDIRECT: 0 0%
BRANCH_CONDITIONAL: 41647483 20.8237%
BRANCH_DIRECT_CALL: 22 1.1e-05%
BRANCH_INDIRECT_CALL: 0 0%
BRANCH_RETURN: 22 1.1e-05%
BRANCH_OTHER: 0 0%

DRAM PAGES: 1048576
Allocated PAGES: 33326
