
*** ChampSim Multicore Out-of-Order Simulator ***

Warmup Instructions: 50000000
Simulation Instructions: 200000000
Number of CPUs: 1
LLC sets: 2048
LLC ways: 16
L0D sets: 16
L0D ways: 2
ROB size: 352
LQ size: 128
SQ size: 72
Secure Berti: OFF
Berti: OFF
Berti Fill: OFF
On commit prefetching: ON
Hit-based filter: ON
Time-guarding: ON
Free-slotting: ON
Leap-frogging: ON
Train prefetcher on L0D bypass: OFF
No translation penalty for prefetchers: OFF
Prefetch to L0D only: OFF
Prefetch to L1D only: OFF
Clean evictions: ON
Commit loads: ON
Commit write: ON
Fill commit loads to L2C, LLC: ON
DRAM IO FREQUENCY: 6400
ROB SIZE: 352
Off-chip DRAM Size: 4096 MB Channels: 1 Width: 64-bit Data Rate: 6400 MT/s
CPU 0 runs /home/sumon/secure_berti/GhostMinion/../../traces/gap/cc-14.trace.gz
.gz
BTB has LRU replacement policy
ITLB has LRU replacement policy
DTLB has LRU replacement policy
STLB has LRU replacement policy
L1I has LRU replacement policy
L0D has LRU replacement policy
IP Table Entries: 1024
CSPT Entries: 128
RR_ENTRIES: 32
RST_ENTRIES: 8
L1D has LRU replacement policy
L2C has LRU replacement policy
LLC has LRU replacement policy
Heartbeat CPU 0 instructions: 10000003 cycles: 3230861 heartbeat IPC: 3.09515 cumulative IPC: 3.09515 (Simulation time: 0 hr 0 min 50 sec) 
Heartbeat CPU 0 instructions: 20000001 cycles: 6466544 heartbeat IPC: 3.09054 cumulative IPC: 3.09284 (Simulation time: 0 hr 1 min 46 sec) 
Heartbeat CPU 0 instructions: 30000002 cycles: 9711440 heartbeat IPC: 3.08176 cumulative IPC: 3.08914 (Simulation time: 0 hr 2 min 43 sec) 
Heartbeat CPU 0 instructions: 40000001 cycles: 12950465 heartbeat IPC: 3.08735 cumulative IPC: 3.08869 (Simulation time: 0 hr 3 min 40 sec) 
Heartbeat CPU 0 instructions: 50000002 cycles: 16192543 heartbeat IPC: 3.08444 cumulative IPC: 3.08784 (Simulation time: 0 hr 4 min 35 sec) 

Warmup complete CPU 0 instructions: 50000002 cycles: 16192543 (Simulation time: 0 hr 4 min 35 sec) 

Heartbeat CPU 0 instructions: 60000003 cycles: 59156777 heartbeat IPC: 0.232752 cumulative IPC: 0.232752 (Simulation time: 0 hr 5 min 41 sec) 
Heartbeat CPU 0 instructions: 70000001 cycles: 101565039 heartbeat IPC: 0.235803 cumulative IPC: 0.234267 (Simulation time: 0 hr 6 min 47 sec) 
Heartbeat CPU 0 instructions: 80000001 cycles: 144599750 heartbeat IPC: 0.232371 cumulative IPC: 0.233632 (Simulation time: 0 hr 7 min 54 sec) 
Heartbeat CPU 0 instructions: 90000000 cycles: 186365072 heartbeat IPC: 0.239433 cumulative IPC: 0.235056 (Simulation time: 0 hr 8 min 59 sec) 
Heartbeat CPU 0 instructions: 100000001 cycles: 228213852 heartbeat IPC: 0.238956 cumulative IPC: 0.235825 (Simulation time: 0 hr 10 min 5 sec) 
Heartbeat CPU 0 instructions: 110000000 cycles: 270883558 heartbeat IPC: 0.234358 cumulative IPC: 0.23558 (Simulation time: 0 hr 11 min 8 sec) 
Heartbeat CPU 0 instructions: 120000000 cycles: 313932861 heartbeat IPC: 0.232292 cumulative IPC: 0.235104 (Simulation time: 0 hr 12 min 10 sec) 
Heartbeat CPU 0 instructions: 130000003 cycles: 357151759 heartbeat IPC: 0.23138 cumulative IPC: 0.234632 (Simulation time: 0 hr 13 min 7 sec) 
Heartbeat CPU 0 instructions: 140000001 cycles: 399306927 heartbeat IPC: 0.237219 cumulative IPC: 0.234917 (Simulation time: 0 hr 14 min 2 sec) 
Heartbeat CPU 0 instructions: 150000001 cycles: 441061901 heartbeat IPC: 0.239492 cumulative IPC: 0.235366 (Simulation time: 0 hr 14 min 56 sec) 
Heartbeat CPU 0 instructions: 160000003 cycles: 483051626 heartbeat IPC: 0.238154 cumulative IPC: 0.235617 (Simulation time: 0 hr 15 min 50 sec) 
Heartbeat CPU 0 instructions: 170000000 cycles: 526197105 heartbeat IPC: 0.231774 cumulative IPC: 0.235292 (Simulation time: 0 hr 16 min 39 sec) 
Heartbeat CPU 0 instructions: 180000003 cycles: 568727020 heartbeat IPC: 0.235129 cumulative IPC: 0.235279 (Simulation time: 0 hr 17 min 28 sec) 
Heartbeat CPU 0 instructions: 190000000 cycles: 610213410 heartbeat IPC: 0.241043 cumulative IPC: 0.235682 (Simulation time: 0 hr 18 min 17 sec) 
Heartbeat CPU 0 instructions: 200000001 cycles: 652755783 heartbeat IPC: 0.23506 cumulative IPC: 0.23564 (Simulation time: 0 hr 19 min 5 sec) 
Heartbeat CPU 0 instructions: 210000000 cycles: 695285110 heartbeat IPC: 0.235132 cumulative IPC: 0.235609 (Simulation time: 0 hr 19 min 53 sec) 
Heartbeat CPU 0 instructions: 220000000 cycles: 737526193 heartbeat IPC: 0.236736 cumulative IPC: 0.235675 (Simulation time: 0 hr 20 min 42 sec) 
Heartbeat CPU 0 instructions: 230000000 cycles: 780966018 heartbeat IPC: 0.230204 cumulative IPC: 0.235364 (Simulation time: 0 hr 21 min 29 sec) 
Heartbeat CPU 0 instructions: 240000000 cycles: 822952513 heartbeat IPC: 0.238172 cumulative IPC: 0.23551 (Simulation time: 0 hr 22 min 17 sec) 
Heartbeat CPU 0 instructions: 250000002 cycles: 864807456 heartbeat IPC: 0.23892 cumulative IPC: 0.235678 (Simulation time: 0 hr 23 min 5 sec) 
Finished CPU 0 instructions: 200000000 cycles: 848614913 cumulative IPC: 0.235678 (Simulation time: 0 hr 23 min 5 sec) 
 Instruction ID: 250000145

ChampSim completed all CPUs

Region of Interest Statistics

CPU 0 cumulative IPC: 0.235678 instructions: 200000000 cycles: 848614913
ITLB SPEC fills:          0  NON-SPEC fills:          0
ITLB Test counter :          0
ITLB Leapfrog:          0
ITLB MSHR merge:          0
ITLB TOTAL     ACCESS:   30541717  HIT:   30541717  MISS:          0  HIT %:        100  MISS %:          0   MPKI: 0
ITLB LOAD TRANSLATION NON_SPEC    ACCESS:   30541717  HIT:   30541717  MISS:          0  HIT %:        100  MISS %:          0   MPKI: 0
ITLB PREFETCH  REQUESTED:          0  ISSUED:          0  USEFUL:          0  USELESS:          0
ITLB USEFUL LOAD PREFETCHES:          0 PREFETCH ISSUED TO LOWER LEVEL:          0  ACCURACY: -nan
ITLB TIMELY PREFETCHES:          0 LATE PREFETCHES: 0 DROPPED PREFETCHES: 0
ITLB COMMIT LATE PREFETCHES: 0 MISSED OPPORTUNITY: 0 LATE IN PQ: 0 UNCOVERED: 0
ITLB COMMIT LATE MSHR PREFETCHES: 0
ITLB MPKI TOTAL: 0 MSHR LATE: 0 PQ LATE: 0 COMMIT LATE: 0 MISSED OPPORTUNITY: 0 UNCOVERED: 0
ITLB PREFETCHES SAME FILL-ORIGIN LEVEL: 0 DIFFERENT FILL-ORIGIN LEVEL: 0
ITLB AVERAGE MISS LATENCY: -nan cycles
ITLB AVERAGE MISS LATENCY LOAD: -nan cycles
ITLB AVERAGE MISS LATENCY PREFETCH: -nan cycles
ITLB AVERAGE MSHR OCCUPANCY: 0
ITLB MSHR FULL: 0
ITLB RQ	ACCESS:   31145642	FORWARD:          0	MERGED:     603926	TO_CACHE:   30541716

DTLB SPEC fills:          0  NON-SPEC fills:          0
DTLB Test counter :          0
DTLB Leapfrog:          0
DTLB MSHR merge:          0
DTLB TOTAL     ACCESS:   47533662  HIT:   37833316  MISS:    9700346  HIT %:    79.5927  MISS %:    20.4073   MPKI: 48.5017
DTLB LOAD TRANSLATION NON_SPEC    ACCESS:   47533662  HIT:   37833316  MISS:    9700346  HIT %:    79.5927  MISS %:    20.4073   MPKI: 48.5017
DTLB PREFETCH  REQUESTED:          0  ISSUED:          0  USEFUL:          0  USELESS:          0
DTLB USEFUL LOAD PREFETCHES:          0 PREFETCH ISSUED TO LOWER LEVEL:          0  ACCURACY: -nan
DTLB TIMELY PREFETCHES:          0 LATE PREFETCHES: 0 DROPPED PREFETCHES: 0
DTLB COMMIT LATE PREFETCHES: 0 MISSED OPPORTUNITY: 0 LATE IN PQ: 0 UNCOVERED: 0
DTLB COMMIT LATE MSHR PREFETCHES: 0
DTLB MPKI TOTAL: 0 MSHR LATE: 0 PQ LATE: 0 COMMIT LATE: 0 MISSED OPPORTUNITY: 0 UNCOVERED: 0
DTLB PREFETCHES SAME FILL-ORIGIN LEVEL: 0 DIFFERENT FILL-ORIGIN LEVEL: 0
DTLB AVERAGE MISS LATENCY: 9.51506 cycles
DTLB AVERAGE MISS LATENCY LOAD: -nan cycles
DTLB AVERAGE MISS LATENCY PREFETCH: -nan cycles
DTLB AVERAGE MSHR OCCUPANCY: 0.363073
DTLB MSHR FULL: 0.00328558
DTLB RQ	ACCESS:   49683949	FORWARD:          0	MERGED:    1808100	TO_CACHE:   47875849

STLB SPEC fills:          0  NON-SPEC fills:          0
STLB Test counter :          0
STLB Leapfrog:          0
STLB MSHR merge:          0
STLB TOTAL     ACCESS:   25335480  HIT:   25320836  MISS:      14644  HIT %:    99.9422  MISS %:  0.0578004   MPKI: 0.07322
STLB LOAD TRANSLATION NON_SPEC    ACCESS:    9700345  HIT:    9685701  MISS:      14644  HIT %:     99.849  MISS %:   0.150964   MPKI: 0.07322
STLB TRANSLATION FROM L1D PREFETCHER NON_SPEC    ACCESS:   15635135  HIT:   15635135  MISS:          0  HIT %:        100  MISS %:          0   MPKI: 0
STLB PREFETCH  REQUESTED:          0  ISSUED:          0  USEFUL:          0  USELESS:          0
STLB USEFUL LOAD PREFETCHES:          0 PREFETCH ISSUED TO LOWER LEVEL:          0  ACCURACY: -nan
STLB TIMELY PREFETCHES:          0 LATE PREFETCHES: 0 DROPPED PREFETCHES: 0
STLB COMMIT LATE PREFETCHES: 0 MISSED OPPORTUNITY: 0 LATE IN PQ: 0 UNCOVERED: 0
STLB COMMIT LATE MSHR PREFETCHES: 0
STLB MPKI TOTAL: 0 MSHR LATE: 0 PQ LATE: 0 COMMIT LATE: 0 MISSED OPPORTUNITY: 0 UNCOVERED: 0
STLB PREFETCHES SAME FILL-ORIGIN LEVEL: 0 DIFFERENT FILL-ORIGIN LEVEL: 0
STLB AVERAGE MISS LATENCY: 194.638 cycles
STLB AVERAGE MISS LATENCY LOAD: -nan cycles
STLB AVERAGE MISS LATENCY PREFETCH: -nan cycles
STLB AVERAGE MSHR OCCUPANCY: 0.00108642
STLB MSHR FULL: 0
STLB RQ	ACCESS:   28851499	FORWARD:          0	MERGED:    3516017	TO_CACHE:   25335482

STLB Hit, L1D data hit: 0
STLB Hit, L2C data hit: 0
STLB Hit, LLC data hit: 0
STLB Hit, LLC data miss: 0
STLB STLB hints to L2: 0
L0D SPEC fills:   24875066  NON-SPEC fills:          0
L0D TimeGuard Request with older TS:     671264 Restricted eviction:     273053 read:     601090
L0D Test counter :          0
L0D Leapfrog:          0
L0D MSHR merge:     863091
L0D TOTAL     ACCESS:   48573349  HIT:   13091627  MISS:   35481722  HIT %:    26.9523  MISS %:    73.0477   MPKI: 177.409
L0D LOAD      TOTAL       ACCESS:   48573349  HIT:   13091627  MISS:   35481722  HIT %:    26.9523  MISS %:    73.0477   MPKI: 177.409
L0D LOAD      NON_SPEC    ACCESS:   11296409  HIT:     962806  MISS:   10333603  HIT %:    8.52312  MISS %:    91.4769   MPKI: 51.668
L0D LOAD      SPEC        ACCESS:   37276940  HIT:   12128821  MISS:   25148119  HIT %:    32.5371  MISS %:    67.4629   MPKI: 125.741
L0D PREFETCH  REQUESTED:          0  ISSUED:          0  USEFUL:          0  USELESS:          0
L0D USEFUL LOAD PREFETCHES:          0 PREFETCH ISSUED TO LOWER LEVEL:          0  ACCURACY: -nan
L0D TIMELY PREFETCHES:          0 LATE PREFETCHES: 0 DROPPED PREFETCHES: 0
L0D COMMIT LATE PREFETCHES: 0 MISSED OPPORTUNITY: 0 LATE IN PQ: 0 UNCOVERED: 0
L0D COMMIT LATE MSHR PREFETCHES: 0
L0D MPKI TOTAL: 181.724 MSHR LATE: 0 PQ LATE: 0 COMMIT LATE: 0 MISSED OPPORTUNITY: 0 UNCOVERED: 0
L0D PREFETCHES SAME FILL-ORIGIN LEVEL: 0 DIFFERENT FILL-ORIGIN LEVEL: 0
L0D AVERAGE MISS LATENCY: 37.5552 cycles
L0D AVERAGE MISS LATENCY LOAD: 37.5552 cycles
L0D AVERAGE MISS LATENCY PREFETCH: -nan cycles
L0D AVERAGE MSHR OCCUPANCY: 2.1598
L0D MSHR FULL: 0.0571559
L0D RQ	ACCESS:   55035479	FORWARD:          0	MERGED:    5599036	TO_CACHE:   49436443
L0D WQ	ACCESS:     247506	FORWARD:          0	MERGED:          0	TO_CACHE:     247506

L1D SPEC fills:          0  NON-SPEC fills:    3448635
L1D Test counter :          0
L1D Leapfrog:          0
L1D MSHR merge:      58727
L1D TOTAL     ACCESS:   65870006  HIT:   25955757  MISS:   39914249  HIT %:    39.4045  MISS %:    60.5955   MPKI: 199.571
L1D LOAD      TOTAL       ACCESS:   35480595  HIT:   21154839  MISS:   14325756  HIT %:    59.6237  MISS %:    40.3763   MPKI: 71.6288
L1D LOAD      NON_SPEC    ACCESS:   10333062  HIT:    6884427  MISS:    3448635  HIT %:    66.6252  MISS %:    33.3748   MPKI: 17.2432
L1D LOAD      SPEC        ACCESS:   25147533  HIT:   14270412  MISS:   10877121  HIT %:    56.7468  MISS %:    43.2532   MPKI: 54.3856
L1D RFO       NON_SPEC    ACCESS:     245973  HIT:     245969  MISS:          4  HIT %:    99.9984  MISS %: 0.00162619   MPKI: 2e-05
L1D PREFETCH  NON_SPEC    ACCESS:   19046070  HIT:    4321200  MISS:   14724870  HIT %:    22.6881  MISS %:    77.3119   MPKI: 73.6244
L1D COMMIT LOAD NON_SPEC    ACCESS:     462018  HIT:     208435  MISS:     253583  HIT %:     45.114  MISS %:     54.886   MPKI: 1.26791
L1D COMMIT WRITE NON_SPEC    ACCESS:   10635350  HIT:      25314  MISS:   10610036  HIT %:   0.238018  MISS %:     99.762   MPKI: 53.0502
L1D PREFETCH  REQUESTED:   19151153  ISSUED:   19151153  USEFUL:    1068310  USELESS:   13656562
L1D USEFUL LOAD PREFETCHES:    1068310 PREFETCH ISSUED TO LOWER LEVEL:   14783209  ACCURACY: 7.22651
L1D TIMELY PREFETCHES:    1068310 LATE PREFETCHES: 58337 DROPPED PREFETCHES: 0
L1D COMMIT LATE PREFETCHES: 0 MISSED OPPORTUNITY: 0 LATE IN PQ: 0 UNCOVERED: 0
L1D COMMIT LATE MSHR PREFETCHES: 0
L1D MPKI TOTAL: 71.6344 MSHR LATE: 0.291685 PQ LATE: 0 COMMIT LATE: 0 MISSED OPPORTUNITY: 0 UNCOVERED: 0
L1D PREFETCHES SAME FILL-ORIGIN LEVEL: 14783209 DIFFERENT FILL-ORIGIN LEVEL: 0
L1D AVERAGE MISS LATENCY: 68.5629 cycles
L1D AVERAGE MISS LATENCY LOAD: 80.2663 cycles
L1D AVERAGE MISS LATENCY PREFETCH: 106.878 cycles
L1D AVERAGE MSHR OCCUPANCY: 4.05984
L1D MSHR FULL: 0.00556448
L1D RQ	ACCESS:   35987464	FORWARD:          0	MERGED:      33467	TO_CACHE:   35946028
L1D WQ	ACCESS:   10884312	FORWARD:       7969	MERGED:       1456	TO_CACHE:   10882856
L1D PQ	ACCESS:   19151153	FORWARD:          0	MERGED:          0	TO_CACHE:   19151153

L1D UNIQUE REGIONS ACCESSED: 0
L1D REGIONS CONFLICTS: 0
L1D Cross Page Prefetch Requests: 0
L1D Same Page Prefetch Requests: 23639813
L1D ROI Sum of L1D PQ occupancy: 265277446
L1D PREFETCHES PUSHED FROM L2C: 0
L1I SPEC fills:          0  NON-SPEC fills:          0
L1I Test counter :          0
L1I Leapfrog:          0
L1I MSHR merge:          0
L1I TOTAL     ACCESS:   31145643  HIT:   31145643  MISS:          0  HIT %:        100  MISS %:          0   MPKI: 0
L1I LOAD      TOTAL       ACCESS:   31145643  HIT:   31145643  MISS:          0  HIT %:        100  MISS %:          0   MPKI: 0
L1I LOAD      NON_SPEC    ACCESS:   31145643  HIT:   31145643  MISS:          0  HIT %:        100  MISS %:          0   MPKI: 0
L1I PREFETCH  REQUESTED:          0  ISSUED:          0  USEFUL:          0  USELESS:          0
L1I USEFUL LOAD PREFETCHES:          0 PREFETCH ISSUED TO LOWER LEVEL:          0  ACCURACY: -nan
L1I TIMELY PREFETCHES:          0 LATE PREFETCHES: 0 DROPPED PREFETCHES: 0
L1I COMMIT LATE PREFETCHES: 0 MISSED OPPORTUNITY: 0 LATE IN PQ: 0 UNCOVERED: 0
L1I COMMIT LATE MSHR PREFETCHES: 0
L1I MPKI TOTAL: 0 MSHR LATE: 0 PQ LATE: 0 COMMIT LATE: 0 MISSED OPPORTUNITY: 0 UNCOVERED: 0
L1I PREFETCHES SAME FILL-ORIGIN LEVEL: 0 DIFFERENT FILL-ORIGIN LEVEL: 0
L1I AVERAGE MISS LATENCY: -nan cycles
L1I AVERAGE MISS LATENCY LOAD: -nan cycles
L1I AVERAGE MISS LATENCY PREFETCH: -nan cycles
L1I AVERAGE MSHR OCCUPANCY: 0
L1I MSHR FULL: 0
L1I RQ	ACCESS:   55851695	FORWARD:          0	MERGED:   24706053	TO_CACHE:   31145642

BTB SPEC fills:          0  NON-SPEC fills:          0
BTB Test counter :          0
BTB Leapfrog:          0
BTB MSHR merge:          0
BTB TOTAL     ACCESS:   40353859  HIT:   40353854  MISS:          5  HIT %:        100  MISS %: 1.23904e-05   MPKI: 2.5e-05
BTB BRANCH_DIRECT_JUMP	ACCESS:          0  HIT:          0  MISS:          0
BTB BRANCH_INDIRECT	ACCESS:          0  HIT:          0  MISS:          0
BTB BRANCH_CONDITIONAL	ACCESS:   40353859  HIT:   40353854  MISS:          5
BTB BRANCH_DIRECT_CALL	ACCESS:          0  HIT:          0  MISS:          0
BTB BRANCH_INDIRECT_CALL	ACCESS:          0  HIT:          0  MISS:          0
BTB BRANCH_RETURN	ACCESS:          0  HIT:          0  MISS:          0
BTB BRANCH_OTHER ACCESS:          0  HIT:          0  MISS:          0

L2C SPEC fills:          0  NON-SPEC fills:    2453697
L2C Test counter :          0
L2C Leapfrog:          0
L2C MSHR merge:          0
L2C TOTAL     ACCESS:   37562657  HIT:    7261702  MISS:   30300955  HIT %:    19.3322  MISS %:    80.6678   MPKI: 151.505
L2C LOAD      TOTAL       ACCESS:   14267121  HIT:    3547662  MISS:   10719459  HIT %:     24.866  MISS %:     75.134   MPKI: 53.5973
L2C LOAD      NON_SPEC    ACCESS:    3397495  HIT:     943798  MISS:    2453697  HIT %:    27.7792  MISS %:    72.2208   MPKI: 12.2685
L2C LOAD      SPEC        ACCESS:   10869626  HIT:    2603864  MISS:    8265762  HIT %:    23.9554  MISS %:    76.0446   MPKI: 41.3288
L2C RFO       NON_SPEC    ACCESS:          4  HIT:          4  MISS:          0  HIT %:        100  MISS %:          0   MPKI: 0
L2C PREFETCH  NON_SPEC    ACCESS:   14783181  HIT:    3387013  MISS:   11396168  HIT %:    22.9113  MISS %:    77.0887   MPKI: 56.9808
L2C WRITEBACK NON_SPEC    ACCESS:      57454  HIT:      57446  MISS:          8  HIT %:    99.9861  MISS %:  0.0139242   MPKI: 4e-05
L2C CLEAN_EVICTION NON_SPEC    ACCESS:    8128860  HIT:     116569  MISS:    8012291  HIT %:    1.43401  MISS %:     98.566   MPKI: 40.0615
L2C COMMIT LOAD NON_SPEC    ACCESS:     252846  HIT:      85210  MISS:     167636  HIT %:    33.7004  MISS %:    66.2996   MPKI: 0.83818
L2C LOAD TRANSLATION NON_SPEC    ACCESS:      73191  HIT:      67798  MISS:       5393  HIT %:    92.6316  MISS %:    7.36839   MPKI: 0.026965
L2C PREFETCH  REQUESTED:          0  ISSUED:          0  USEFUL:     556045  USELESS:   10840190
L2C USEFUL LOAD PREFETCHES:     556045 PREFETCH ISSUED TO LOWER LEVEL:   11396170  ACCURACY: 4.87923
L2C TIMELY PREFETCHES:     556045 LATE PREFETCHES: 0 DROPPED PREFETCHES: 0
L2C COMMIT LATE PREFETCHES: 0 MISSED OPPORTUNITY: 0 LATE IN PQ: 0 UNCOVERED: 0
L2C COMMIT LATE MSHR PREFETCHES: 0
L2C MPKI TOTAL: 53.5973 MSHR LATE: 0 PQ LATE: 0 COMMIT LATE: 0 MISSED OPPORTUNITY: 0 UNCOVERED: 0
L2C PREFETCHES SAME FILL-ORIGIN LEVEL: 0 DIFFERENT FILL-ORIGIN LEVEL: 0
L2C AVERAGE MISS LATENCY: 77.1953 cycles
L2C AVERAGE MISS LATENCY LOAD: 90.6597 cycles
L2C AVERAGE MISS LATENCY PREFETCH: 119.119 cycles
L2C AVERAGE MSHR OCCUPANCY: 3.75199
L2C MSHR FULL: 0
L2C RQ	ACCESS:   14594201	FORWARD:          0	MERGED:          0	TO_CACHE:   14593166
L2C WQ	ACCESS:    8186316	FORWARD:       1061	MERGED:          1	TO_CACHE:    8186315
L2C PQ	ACCESS:   14783209	FORWARD:          0	MERGED:          0	TO_CACHE:   14783183

L2C Instructions Evicting Data 0
L2C Translations Evicting Data 5391
L2C Data Evicting Data 14013924
L2C Instructions Evicting Instructions 0
L2C Translations Evicting Instructions 0
L2C Data Evicting Instructions 0
L2C Instructions Evicting Translations 0
L2C Translations Evicting Translations 2
L2C Data Evicting Translations 3577
L2C Dense regions hint from L2: 0
PSCL5 SPEC fills:          0  NON-SPEC fills:          0
PSCL5 Test counter :          0
PSCL5 Leapfrog:          0
PSCL5 MSHR merge:          0
PSCL5 TOTAL     ACCESS:          0  HIT:          0  MISS:          0  HIT %:       -nan  MISS %:       -nan   MPKI: 0
PSCL5 PREFETCH  REQUESTED:          0  ISSUED:          0  USEFUL:          0  USELESS:          0
PSCL5 USEFUL LOAD PREFETCHES:          0 PREFETCH ISSUED TO LOWER LEVEL:          0  ACCURACY: -nan
PSCL5 TIMELY PREFETCHES:          0 LATE PREFETCHES: 0 DROPPED PREFETCHES: 0
PSCL5 COMMIT LATE PREFETCHES: 0 MISSED OPPORTUNITY: 0 LATE IN PQ: 0 UNCOVERED: 0
PSCL5 COMMIT LATE MSHR PREFETCHES: 0
PSCL5 MPKI TOTAL: 0 MSHR LATE: 0 PQ LATE: 0 COMMIT LATE: 0 MISSED OPPORTUNITY: 0 UNCOVERED: 0
PSCL5 PREFETCHES SAME FILL-ORIGIN LEVEL: 0 DIFFERENT FILL-ORIGIN LEVEL: 0

PSCL4 SPEC fills:          0  NON-SPEC fills:          0
PSCL4 Test counter :          0
PSCL4 Leapfrog:          0
PSCL4 MSHR merge:          0
PSCL4 TOTAL     ACCESS:          0  HIT:          0  MISS:          0  HIT %:       -nan  MISS %:       -nan   MPKI: 0
PSCL4 PREFETCH  REQUESTED:          0  ISSUED:          0  USEFUL:          0  USELESS:          0
PSCL4 USEFUL LOAD PREFETCHES:          0 PREFETCH ISSUED TO LOWER LEVEL:          0  ACCURACY: -nan
PSCL4 TIMELY PREFETCHES:          0 LATE PREFETCHES: 0 DROPPED PREFETCHES: 0
PSCL4 COMMIT LATE PREFETCHES: 0 MISSED OPPORTUNITY: 0 LATE IN PQ: 0 UNCOVERED: 0
PSCL4 COMMIT LATE MSHR PREFETCHES: 0
PSCL4 MPKI TOTAL: 0 MSHR LATE: 0 PQ LATE: 0 COMMIT LATE: 0 MISSED OPPORTUNITY: 0 UNCOVERED: 0
PSCL4 PREFETCHES SAME FILL-ORIGIN LEVEL: 0 DIFFERENT FILL-ORIGIN LEVEL: 0

PSCL3 SPEC fills:          0  NON-SPEC fills:          0
PSCL3 Test counter :          0
PSCL3 Leapfrog:          0
PSCL3 MSHR merge:          0
PSCL3 TOTAL     ACCESS:          0  HIT:          0  MISS:          0  HIT %:       -nan  MISS %:       -nan   MPKI: 0
PSCL3 PREFETCH  REQUESTED:          0  ISSUED:          0  USEFUL:          0  USELESS:          0
PSCL3 USEFUL LOAD PREFETCHES:          0 PREFETCH ISSUED TO LOWER LEVEL:          0  ACCURACY: -nan
PSCL3 TIMELY PREFETCHES:          0 LATE PREFETCHES: 0 DROPPED PREFETCHES: 0
PSCL3 COMMIT LATE PREFETCHES: 0 MISSED OPPORTUNITY: 0 LATE IN PQ: 0 UNCOVERED: 0
PSCL3 COMMIT LATE MSHR PREFETCHES: 0
PSCL3 MPKI TOTAL: 0 MSHR LATE: 0 PQ LATE: 0 COMMIT LATE: 0 MISSED OPPORTUNITY: 0 UNCOVERED: 0
PSCL3 PREFETCHES SAME FILL-ORIGIN LEVEL: 0 DIFFERENT FILL-ORIGIN LEVEL: 0

PSCL2 SPEC fills:          0  NON-SPEC fills:          0
PSCL2 Test counter :          0
PSCL2 Leapfrog:          0
PSCL2 MSHR merge:          0
PSCL2 TOTAL     ACCESS:          0  HIT:          0  MISS:          0  HIT %:       -nan  MISS %:       -nan   MPKI: 0
PSCL2 PREFETCH  REQUESTED:          0  ISSUED:          0  USEFUL:          0  USELESS:          0
PSCL2 USEFUL LOAD PREFETCHES:          0 PREFETCH ISSUED TO LOWER LEVEL:          0  ACCURACY: -nan
PSCL2 TIMELY PREFETCHES:          0 LATE PREFETCHES: 0 DROPPED PREFETCHES: 0
PSCL2 COMMIT LATE PREFETCHES: 0 MISSED OPPORTUNITY: 0 LATE IN PQ: 0 UNCOVERED: 0
PSCL2 COMMIT LATE MSHR PREFETCHES: 0
PSCL2 MPKI TOTAL: 0 MSHR LATE: 0 PQ LATE: 0 COMMIT LATE: 0 MISSED OPPORTUNITY: 0 UNCOVERED: 0
PSCL2 PREFETCHES SAME FILL-ORIGIN LEVEL: 0 DIFFERENT FILL-ORIGIN LEVEL: 0

LLC SPEC fills:          0  NON-SPEC fills:     904425
LLC Test counter :          0
LLC Leapfrog:          0
LLC MSHR merge:          0
LLC TOTAL     ACCESS:   30461273  HIT:   17386254  MISS:   13075019  HIT %:    57.0766  MISS %:    42.9234   MPKI: 65.3751
LLC LOAD      TOTAL       ACCESS:   10719299  HIT:    6679333  MISS:    4039966  HIT %:    62.3113  MISS %:    37.6887   MPKI: 20.1998
LLC LOAD      NON_SPEC    ACCESS:    2453673  HIT:    1549248  MISS:     904425  HIT %:      63.14  MISS %:      36.86   MPKI: 4.52212
LLC LOAD      SPEC        ACCESS:    8265626  HIT:    5130085  MISS:    3135541  HIT %:    62.0653  MISS %:    37.9347   MPKI: 15.6777
LLC PREFETCH  NON_SPEC    ACCESS:   11396141  HIT:    5990725  MISS:    5405416  HIT %:     52.568  MISS %:     47.432   MPKI: 27.0271
LLC WRITEBACK NON_SPEC    ACCESS:      54559  HIT:      54526  MISS:         33  HIT %:    99.9395  MISS %:   0.060485   MPKI: 0.000165
LLC CLEAN_EVICTION NON_SPEC    ACCESS:    8118265  HIT:    4514005  MISS:    3604260  HIT %:    55.6031  MISS %:    44.3969   MPKI: 18.0213
LLC COMMIT LOAD NON_SPEC    ACCESS:     167616  HIT:     144453  MISS:      23163  HIT %:    86.1809  MISS %:    13.8191   MPKI: 0.115815
LLC LOAD TRANSLATION NON_SPEC    ACCESS:       5393  HIT:       3212  MISS:       2181  HIT %:    59.5587  MISS %:    40.4413   MPKI: 0.010905
LLC PREFETCH  REQUESTED:          0  ISSUED:          0  USEFUL:     883556  USELESS:    4521980
LLC USEFUL LOAD PREFETCHES:     883556 PREFETCH ISSUED TO LOWER LEVEL:    5405418  ACCURACY: 16.3457
LLC TIMELY PREFETCHES:     883556 LATE PREFETCHES: 0 DROPPED PREFETCHES: 0
LLC COMMIT LATE PREFETCHES: 0 MISSED OPPORTUNITY: 0 LATE IN PQ: 0 UNCOVERED: 0
LLC COMMIT LATE MSHR PREFETCHES: 0
LLC MPKI TOTAL: 20.1998 MSHR LATE: 0 PQ LATE: 0 COMMIT LATE: 0 MISSED OPPORTUNITY: 0 UNCOVERED: 0
LLC PREFETCHES SAME FILL-ORIGIN LEVEL: 0 DIFFERENT FILL-ORIGIN LEVEL: 0
LLC AVERAGE MISS LATENCY: 133.371 cycles
LLC AVERAGE MISS LATENCY LOAD: 179.315 cycles
LLC AVERAGE MISS LATENCY PREFETCH: 187.743 cycles
LLC AVERAGE MSHR OCCUPANCY: 2.54047
LLC MSHR FULL: 0
LLC RQ	ACCESS:   10892490	FORWARD:          0	MERGED:          0	TO_CACHE:   10892310
LLC WQ	ACCESS:    8172825	FORWARD:        207	MERGED:          0	TO_CACHE:    8172825
LLC PQ	ACCESS:   11396170	FORWARD:          0	MERGED:          0	TO_CACHE:   11396143

LLC Dense regions hint to LLC: 0

RAW hits: 26550
Loads Generated: 55062031
Loads sent to L1D: 55035479
Stores Generated: 247506
Stores sent to L1D: 247506
Major fault: 0 Minor fault: 19168
Allocated PAGES: 19168
Total Load insts: 67812875
Total Non-spec loads: 11778433
Percentage of speculative loads: 82.631

LeapFrogging counter: 832332
Commit hits: 24330034 miss: 19268297
Commit hit %: 55.805 miss %: 44.195
Commits not translated: 0
Loads retired: 14325755
Stores retired: 247506
Cache fills: 14325756
L1D response latency: 80.2663 cycles
Load retirement latency: 174.616 cycles
OOO test counter: 0
Discarded buffer inserts: 24330034 hits: 55831 hit %: 0.229474
Filter prediction accuracy: 99.6229

stream: 
stream:times selected: 27212896
stream:pref_filled: 16595125
stream:pref_useful: 174794
stream:pref_late: 48573
stream:misses: 3062403
stream:misses_by_poll: 0

CS: 
CS:times selected: 1374262
CS:pref_filled: 1271982
CS:pref_useful: 1135348
CS:pref_late: 1477
CS:misses: 162786
CS:misses_by_poll: 22294

CPLX: 
CPLX:times selected: 25713947
CPLX:pref_filled: 396231
CPLX:pref_useful: 11439
CPLX:pref_late: 1487
CPLX:misses: 11064495
CPLX:misses_by_poll: 29677

NL_L1: 
NL:times selected: 45693
NL:pref_filled: 31208
NL:pref_useful: 386
NL:pref_late: 2
NL:misses: 27125
NL:misses_by_poll: 0

total selections: 54346798
total_filled: 14724870
total_useful: 1068310
total_late: 52116
total_polluted: 51971
total_misses_after_warmup: 11098038
conflicts: 0
Degree Incremented Times: 266343
Degree Decremented Times: 598675

L1 IP Table Write Accesses: 55309542
L1 IP Table Read Accesses: 55309542
L1 RST Write Accesses: 21661849
L1 RST Read Accesses: 43323698
L1 CSPT Write Accesses: 21661849
L1 CSPT Read Accesses: 42108728
L1 RR Filter Tag Write Accesses: 19151153
L1 RR Filter Tag Read Accesses: 717965122
L1 IP Table Tag Write Accesses: 55309542
L1 IP Table Tag Read Accesses: 55309542
L1 RST Tag Write Accesses: 0
L1 RST Tag Read Accesses: 201143422
L1 RR Filter Write Accesses: 0
L1 RR Filter Read Accesses: 24850097
test: 12317324

DRAM Statistics
 CHANNEL 0
 RQ ROW_BUFFER_HIT:    1475230  ROW_BUFFER_MISS:    7985951
 DBUS_CONGESTED:       6350
 WQ ROW_BUFFER_HIT:    1546647  ROW_BUFFER_MISS:    2961824  FULL:          0

 AVG_CONGESTED_CYCLE: 4
 All warmup complete: 2
Channel 0 Bank busy for read cycles: 0
Channel 0 Bank busy for write cycles: 0
Channel 0
Rank 0
0banks busy for read cycles: 5471134
0banks busy for write cycles: 32449
1banks busy for read cycles: 273216807
1banks busy for write cycles: 7944540
2banks busy for read cycles: 180502953
2banks busy for write cycles: 10523483
3banks busy for read cycles: 97954978
3banks busy for write cycles: 13195638
4banks busy for read cycles: 48397566
4banks busy for write cycles: 16041537
5banks busy for read cycles: 20410718
5banks busy for write cycles: 19071252
6banks busy for read cycles: 6803770
6banks busy for write cycles: 24050156
7banks busy for read cycles: 1674354
7banks busy for write cycles: 38919668
8banks busy for read cycles: 257078
8banks busy for write cycles: 84146833

CPU 0 Branch Prediction Accuracy: 92.3859% MPKI: 15.4313 Average ROB Occupancy at Mispredict: 34.3495
Branch types
NOT_BRANCH: 159466168 79.7331%
BRANCH_DIRECT_JUMP: 0 0%
BRANCH_INDIRECT: 0 0%
BRANCH_CONDITIONAL: 40533593 20.2668%
BRANCH_DIRECT_CALL: 0 0%
BRANCH_INDIRECT_CALL: 0 0%
BRANCH_RETURN: 0 0%
BRANCH_OTHER: 0 0%

DRAM PAGES: 1048576
Allocated PAGES: 19168
