
*** ChampSim Multicore Out-of-Order Simulator ***

Warmup Instructions: 50000000
Simulation Instructions: 200000000
Number of CPUs: 1
LLC sets: 2048
LLC ways: 16
L0D sets: 16
L0D ways: 2
ROB size: 352
LQ size: 128
SQ size: 72
Secure Berti: OFF
Berti: OFF
Berti Fill: OFF
On commit prefetching: ON
Hit-based filter: ON
Time-guarding: ON
Free-slotting: ON
Leap-frogging: ON
Train prefetcher on L0D bypass: OFF
No translation penalty for prefetchers: OFF
Prefetch to L0D only: OFF
Prefetch to L1D only: OFF
Clean evictions: ON
Commit loads: ON
Commit write: ON
Fill commit loads to L2C, LLC: ON
DRAM IO FREQUENCY: 6400
ROB SIZE: 352
Off-chip DRAM Size: 4096 MB Channels: 1 Width: 64-bit Data Rate: 6400 MT/s
CPU 0 runs /home/sumon/secure_berti/GhostMinion/../../traces/gap/pr-14.trace.gz
.gz
BTB has LRU replacement policy
ITLB has LRU replacement policy
DTLB has LRU replacement policy
STLB has LRU replacement policy
L1I has LRU replacement policy
L0D has LRU replacement policy
IP Table Entries: 1024
CSPT Entries: 128
RR_ENTRIES: 32
RST_ENTRIES: 8
L1D has LRU replacement policy
L2C has LRU replacement policy
LLC has LRU replacement policy
Heartbeat CPU 0 instructions: 10000001 cycles: 3333803 heartbeat IPC: 2.99958 cumulative IPC: 2.99958 (Simulation time: 0 hr 1 min 15 sec) 
Heartbeat CPU 0 instructions: 20000001 cycles: 18971012 heartbeat IPC: 0.6395 cumulative IPC: 1.05424 (Simulation time: 0 hr 3 min 42 sec) 
Heartbeat CPU 0 instructions: 30000003 cycles: 36851473 heartbeat IPC: 0.55927 cumulative IPC: 0.814079 (Simulation time: 0 hr 5 min 42 sec) 
Heartbeat CPU 0 instructions: 40000003 cycles: 54670755 heartbeat IPC: 0.56119 cumulative IPC: 0.731653 (Simulation time: 0 hr 7 min 11 sec) 
Heartbeat CPU 0 instructions: 50000000 cycles: 72483914 heartbeat IPC: 0.561383 cumulative IPC: 0.689808 (Simulation time: 0 hr 8 min 27 sec) 

Warmup complete CPU 0 instructions: 50000004 cycles: 72483923 (Simulation time: 0 hr 8 min 27 sec) 

Heartbeat CPU 0 instructions: 60000000 cycles: 269876187 heartbeat IPC: 0.0506605 cumulative IPC: 0.0506605 (Simulation time: 0 hr 10 min 49 sec) 
Heartbeat CPU 0 instructions: 70000000 cycles: 467575905 heartbeat IPC: 0.0505818 cumulative IPC: 0.0506211 (Simulation time: 0 hr 13 min 5 sec) 
Heartbeat CPU 0 instructions: 80000001 cycles: 665556888 heartbeat IPC: 0.0505099 cumulative IPC: 0.050584 (Simulation time: 0 hr 15 min 18 sec) 
Heartbeat CPU 0 instructions: 90000000 cycles: 863404074 heartbeat IPC: 0.0505441 cumulative IPC: 0.050574 (Simulation time: 0 hr 17 min 29 sec) 
Heartbeat CPU 0 instructions: 100000001 cycles: 1061081856 heartbeat IPC: 0.0505874 cumulative IPC: 0.0505767 (Simulation time: 0 hr 19 min 40 sec) 
Heartbeat CPU 0 instructions: 110000000 cycles: 1258967467 heartbeat IPC: 0.0505342 cumulative IPC: 0.0505696 (Simulation time: 0 hr 21 min 49 sec) 
Heartbeat CPU 0 instructions: 120000001 cycles: 1456373515 heartbeat IPC: 0.050657 cumulative IPC: 0.0505821 (Simulation time: 0 hr 23 min 58 sec) 
Heartbeat CPU 0 instructions: 130000000 cycles: 1652584848 heartbeat IPC: 0.0509655 cumulative IPC: 0.0506297 (Simulation time: 0 hr 26 min 6 sec) 
Heartbeat CPU 0 instructions: 140000002 cycles: 1849890199 heartbeat IPC: 0.0506829 cumulative IPC: 0.0506356 (Simulation time: 0 hr 28 min 15 sec) 
Heartbeat CPU 0 instructions: 150000001 cycles: 2047387853 heartbeat IPC: 0.0506335 cumulative IPC: 0.0506354 (Simulation time: 0 hr 30 min 23 sec) 
Heartbeat CPU 0 instructions: 160000001 cycles: 2244850002 heartbeat IPC: 0.0506426 cumulative IPC: 0.050636 (Simulation time: 0 hr 32 min 32 sec) 
Heartbeat CPU 0 instructions: 170000003 cycles: 2441801522 heartbeat IPC: 0.0507739 cumulative IPC: 0.0506475 (Simulation time: 0 hr 34 min 37 sec) 
Heartbeat CPU 0 instructions: 180000001 cycles: 2638752942 heartbeat IPC: 0.0507739 cumulative IPC: 0.0506572 (Simulation time: 0 hr 36 min 44 sec) 
Heartbeat CPU 0 instructions: 190000001 cycles: 2782326727 heartbeat IPC: 0.0696506 cumulative IPC: 0.0516635 (Simulation time: 0 hr 38 min 29 sec) 
Heartbeat CPU 0 instructions: 200000002 cycles: 2826515009 heartbeat IPC: 0.226304 cumulative IPC: 0.0544656 (Simulation time: 0 hr 39 min 22 sec) 
Heartbeat CPU 0 instructions: 210000001 cycles: 3024066555 heartbeat IPC: 0.0506197 cumulative IPC: 0.0542082 (Simulation time: 0 hr 41 min 34 sec) 
Heartbeat CPU 0 instructions: 220000000 cycles: 3221808322 heartbeat IPC: 0.050571 cumulative IPC: 0.0539798 (Simulation time: 0 hr 43 min 47 sec) 
Heartbeat CPU 0 instructions: 230000000 cycles: 3419223771 heartbeat IPC: 0.0506546 cumulative IPC: 0.0537837 (Simulation time: 0 hr 46 min 2 sec) 
Heartbeat CPU 0 instructions: 240000002 cycles: 3616426721 heartbeat IPC: 0.0507092 cumulative IPC: 0.0536126 (Simulation time: 0 hr 48 min 24 sec) 
Heartbeat CPU 0 instructions: 250000003 cycles: 3813624239 heartbeat IPC: 0.0507106 cumulative IPC: 0.0534596 (Simulation time: 0 hr 50 min 46 sec) 
Finished CPU 0 instructions: 200000000 cycles: 3741140317 cumulative IPC: 0.0534596 (Simulation time: 0 hr 50 min 46 sec) 
 Instruction ID: 250000385

ChampSim completed all CPUs

Region of Interest Statistics

CPU 0 cumulative IPC: 0.0534596 instructions: 200000000 cycles: 3741140317
ITLB SPEC fills:          0  NON-SPEC fills:          0
ITLB Test counter :          0
ITLB Leapfrog:          0
ITLB MSHR merge:          0
ITLB TOTAL     ACCESS:   58948365  HIT:   58948365  MISS:          0  HIT %:        100  MISS %:          0   MPKI: 0
ITLB LOAD TRANSLATION NON_SPEC    ACCESS:   58948365  HIT:   58948365  MISS:          0  HIT %:        100  MISS %:          0   MPKI: 0
ITLB PREFETCH  REQUESTED:          0  ISSUED:          0  USEFUL:          0  USELESS:          0
ITLB USEFUL LOAD PREFETCHES:          0 PREFETCH ISSUED TO LOWER LEVEL:          0  ACCURACY: -nan
ITLB TIMELY PREFETCHES:          0 LATE PREFETCHES: 0 DROPPED PREFETCHES: 0
ITLB COMMIT LATE PREFETCHES: 0 MISSED OPPORTUNITY: 0 LATE IN PQ: 0 UNCOVERED: 0
ITLB COMMIT LATE MSHR PREFETCHES: 0
ITLB MPKI TOTAL: 0 MSHR LATE: 0 PQ LATE: 0 COMMIT LATE: 0 MISSED OPPORTUNITY: 0 UNCOVERED: 0
ITLB PREFETCHES SAME FILL-ORIGIN LEVEL: 0 DIFFERENT FILL-ORIGIN LEVEL: 0
ITLB AVERAGE MISS LATENCY: -nan cycles
ITLB AVERAGE MISS LATENCY LOAD: -nan cycles
ITLB AVERAGE MISS LATENCY PREFETCH: -nan cycles
ITLB AVERAGE MSHR OCCUPANCY: 0
ITLB MSHR FULL: 0
ITLB RQ	ACCESS:   60076373	FORWARD:          0	MERGED:    1128007	TO_CACHE:   58948366

DTLB SPEC fills:          0  NON-SPEC fills:          0
DTLB Test counter :          0
DTLB Leapfrog:          0
DTLB MSHR merge:          0
DTLB TOTAL     ACCESS:   70277758  HIT:   47280325  MISS:   22997433  HIT %:    67.2764  MISS %:    32.7236   MPKI: 114.987
DTLB LOAD TRANSLATION NON_SPEC    ACCESS:   70277758  HIT:   47280325  MISS:   22997433  HIT %:    67.2764  MISS %:    32.7236   MPKI: 114.987
DTLB PREFETCH  REQUESTED:          0  ISSUED:          0  USEFUL:          0  USELESS:          0
DTLB USEFUL LOAD PREFETCHES:          0 PREFETCH ISSUED TO LOWER LEVEL:          0  ACCURACY: -nan
DTLB TIMELY PREFETCHES:          0 LATE PREFETCHES: 0 DROPPED PREFETCHES: 0
DTLB COMMIT LATE PREFETCHES: 0 MISSED OPPORTUNITY: 0 LATE IN PQ: 0 UNCOVERED: 0
DTLB COMMIT LATE MSHR PREFETCHES: 0
DTLB MPKI TOTAL: 0 MSHR LATE: 0 PQ LATE: 0 COMMIT LATE: 0 MISSED OPPORTUNITY: 0 UNCOVERED: 0
DTLB PREFETCHES SAME FILL-ORIGIN LEVEL: 0 DIFFERENT FILL-ORIGIN LEVEL: 0
DTLB AVERAGE MISS LATENCY: 9.31921 cycles
DTLB AVERAGE MISS LATENCY LOAD: -nan cycles
DTLB AVERAGE MISS LATENCY PREFETCH: -nan cycles
DTLB AVERAGE MSHR OCCUPANCY: 0.199193
DTLB MSHR FULL: 0
DTLB RQ	ACCESS:   71322796	FORWARD:          0	MERGED:    1034553	TO_CACHE:   70288243

STLB SPEC fills:          0  NON-SPEC fills:          0
STLB Test counter :          0
STLB Leapfrog:          0
STLB MSHR merge:          0
STLB TOTAL     ACCESS:   57549814  HIT:   57509041  MISS:      40773  HIT %:    99.9292  MISS %:  0.0708482   MPKI: 0.203865
STLB LOAD TRANSLATION NON_SPEC    ACCESS:   22997433  HIT:   22956660  MISS:      40773  HIT %:    99.8227  MISS %:   0.177294   MPKI: 0.203865
STLB TRANSLATION FROM L1D PREFETCHER NON_SPEC    ACCESS:   34552381  HIT:   34552381  MISS:          0  HIT %:        100  MISS %:          0   MPKI: 0
STLB PREFETCH  REQUESTED:          0  ISSUED:          0  USEFUL:          0  USELESS:          0
STLB USEFUL LOAD PREFETCHES:          0 PREFETCH ISSUED TO LOWER LEVEL:          0  ACCURACY: -nan
STLB TIMELY PREFETCHES:          0 LATE PREFETCHES: 0 DROPPED PREFETCHES: 0
STLB COMMIT LATE PREFETCHES: 0 MISSED OPPORTUNITY: 0 LATE IN PQ: 0 UNCOVERED: 0
STLB COMMIT LATE MSHR PREFETCHES: 0
STLB MPKI TOTAL: 0 MSHR LATE: 0 PQ LATE: 0 COMMIT LATE: 0 MISSED OPPORTUNITY: 0 UNCOVERED: 0
STLB PREFETCHES SAME FILL-ORIGIN LEVEL: 0 DIFFERENT FILL-ORIGIN LEVEL: 0
STLB AVERAGE MISS LATENCY: 170.195 cycles
STLB AVERAGE MISS LATENCY LOAD: -nan cycles
STLB AVERAGE MISS LATENCY PREFETCH: -nan cycles
STLB AVERAGE MSHR OCCUPANCY: 0.00111376
STLB MSHR FULL: 0
STLB RQ	ACCESS:   61255016	FORWARD:          0	MERGED:    3705153	TO_CACHE:   57549863

STLB Hit, L1D data hit: 0
STLB Hit, L2C data hit: 0
STLB Hit, LLC data hit: 0
STLB Hit, LLC data miss: 0
STLB STLB hints to L2: 0
L0D SPEC fills:    4746296  NON-SPEC fills:          0
L0D TimeGuard Request with older TS:      98565 Restricted eviction:      12607 read:      78610
L0D Test counter :          0
L0D Leapfrog:          0
L0D MSHR merge:    1566619
L0D TOTAL     ACCESS:   66450361  HIT:   24399286  MISS:   42051075  HIT %:    36.7181  MISS %:    63.2819   MPKI: 210.255
L0D LOAD      TOTAL       ACCESS:   66450361  HIT:   24399286  MISS:   42051075  HIT %:    36.7181  MISS %:    63.2819   MPKI: 210.255
L0D LOAD      NON_SPEC    ACCESS:   37340801  HIT:      48627  MISS:   37292174  HIT %:   0.130225  MISS %:    99.8698   MPKI: 186.461
L0D LOAD      SPEC        ACCESS:   29109560  HIT:   24350659  MISS:    4758901  HIT %:    83.6518  MISS %:    16.3482   MPKI: 23.7945
L0D PREFETCH  REQUESTED:          0  ISSUED:          0  USEFUL:          0  USELESS:          0
L0D USEFUL LOAD PREFETCHES:          0 PREFETCH ISSUED TO LOWER LEVEL:          0  ACCURACY: -nan
L0D TIMELY PREFETCHES:          0 LATE PREFETCHES: 0 DROPPED PREFETCHES: 0
L0D COMMIT LATE PREFETCHES: 0 MISSED OPPORTUNITY: 0 LATE IN PQ: 0 UNCOVERED: 0
L0D COMMIT LATE MSHR PREFETCHES: 0
L0D MPKI TOTAL: 218.088 MSHR LATE: 0 PQ LATE: 0 COMMIT LATE: 0 MISSED OPPORTUNITY: 0 UNCOVERED: 0
L0D PREFETCHES SAME FILL-ORIGIN LEVEL: 0 DIFFERENT FILL-ORIGIN LEVEL: 0
L0D AVERAGE MISS LATENCY: 76.9837 cycles
L0D AVERAGE MISS LATENCY LOAD: 76.9837 cycles
L0D AVERAGE MISS LATENCY PREFETCH: -nan cycles
L0D AVERAGE MSHR OCCUPANCY: 0.244475
L0D MSHR FULL: 0
L0D RQ	ACCESS:   77350916	FORWARD:          0	MERGED:    9333937	TO_CACHE:   68016979
L0D WQ	ACCESS:    3305817	FORWARD:          0	MERGED:          0	TO_CACHE:    3305817

L1D SPEC fills:          0  NON-SPEC fills:   32523776
L1D Test counter :          0
L1D Leapfrog:          0
L1D MSHR merge:     154340
L1D TOTAL     ACCESS:   83800783  HIT:   16945536  MISS:   66855247  HIT %:    20.2212  MISS %:    79.7788   MPKI: 334.276
L1D LOAD      TOTAL       ACCESS:   42051032  HIT:    9235580  MISS:   32815452  HIT %:    21.9628  MISS %:    78.0372   MPKI: 164.077
L1D LOAD      NON_SPEC    ACCESS:   37292168  HIT:    4768392  MISS:   32523776  HIT %:    12.7866  MISS %:    87.2134   MPKI: 162.619
L1D LOAD      SPEC        ACCESS:    4758864  HIT:    4467188  MISS:     291676  HIT %:    93.8709  MISS %:    6.12911   MPKI: 1.45838
L1D RFO       NON_SPEC    ACCESS:    3284798  HIT:    3280888  MISS:       3910  HIT %:     99.881  MISS %:   0.119033   MPKI: 0.01955
L1D PREFETCH  NON_SPEC    ACCESS:   37352729  HIT:    3576688  MISS:   33776041  HIT %:    9.57544  MISS %:    90.4246   MPKI: 168.88
L1D COMMIT LOAD NON_SPEC    ACCESS:     739333  HIT:     738630  MISS:        703  HIT %:    99.9049  MISS %:  0.0950857   MPKI: 0.003515
L1D COMMIT WRITE NON_SPEC    ACCESS:     372891  HIT:     113750  MISS:     259141  HIT %:    30.5049  MISS %:    69.4951   MPKI: 1.29571
L1D PREFETCH  REQUESTED:   38257584  ISSUED:   38257584  USEFUL:    2407553  USELESS:   31368486
L1D USEFUL LOAD PREFETCHES:    2407553 PREFETCH ISSUED TO LOWER LEVEL:   33930863  ACCURACY: 7.09547
L1D TIMELY PREFETCHES:    2407553 LATE PREFETCHES: 154297 DROPPED PREFETCHES: 0
L1D COMMIT LATE PREFETCHES: 0 MISSED OPPORTUNITY: 0 LATE IN PQ: 0 UNCOVERED: 0
L1D COMMIT LATE MSHR PREFETCHES: 0
L1D MPKI TOTAL: 164.077 MSHR LATE: 0.771485 PQ LATE: 0 COMMIT LATE: 0 MISSED OPPORTUNITY: 0 UNCOVERED: 0
L1D PREFETCHES SAME FILL-ORIGIN LEVEL: 33930863 DIFFERENT FILL-ORIGIN LEVEL: 0
L1D AVERAGE MISS LATENCY: 97.8953 cycles
L1D AVERAGE MISS LATENCY LOAD: 92.2494 cycles
L1D AVERAGE MISS LATENCY PREFETCH: 104.134 cycles
L1D AVERAGE MSHR OCCUPANCY: 1.35996
L1D MSHR FULL: 0
L1D RQ	ACCESS:   43188120	FORWARD:          0	MERGED:     394988	TO_CACHE:   42790410
L1D WQ	ACCESS:    3678708	FORWARD:       2722	MERGED:       1056	TO_CACHE:    3677652
L1D PQ	ACCESS:   38257584	FORWARD:          0	MERGED:          0	TO_CACHE:   38257584

L1D UNIQUE REGIONS ACCESSED: 0
L1D REGIONS CONFLICTS: 0
L1D Cross Page Prefetch Requests: 0
L1D Same Page Prefetch Requests: 46350908
L1D ROI Sum of L1D PQ occupancy: 541306624
L1D PREFETCHES PUSHED FROM L2C: 0
L1I SPEC fills:          0  NON-SPEC fills:          0
L1I Test counter :          0
L1I Leapfrog:          0
L1I MSHR merge:          1
L1I TOTAL     ACCESS:   60076371  HIT:   60076350  MISS:         21  HIT %:        100  MISS %: 3.49555e-05   MPKI: 0.000105
L1I LOAD      TOTAL       ACCESS:   60076371  HIT:   60076350  MISS:         21  HIT %:        100  MISS %: 3.49555e-05   MPKI: 0.000105
L1I LOAD      NON_SPEC    ACCESS:   60076371  HIT:   60076350  MISS:         21  HIT %:        100  MISS %: 3.49555e-05   MPKI: 0.000105
L1I PREFETCH  REQUESTED:          0  ISSUED:          0  USEFUL:          0  USELESS:          0
L1I USEFUL LOAD PREFETCHES:          0 PREFETCH ISSUED TO LOWER LEVEL:          0  ACCURACY: -nan
L1I TIMELY PREFETCHES:          0 LATE PREFETCHES: 0 DROPPED PREFETCHES: 0
L1I COMMIT LATE PREFETCHES: 0 MISSED OPPORTUNITY: 0 LATE IN PQ: 0 UNCOVERED: 0
L1I COMMIT LATE MSHR PREFETCHES: 0
L1I MPKI TOTAL: 0.00011 MSHR LATE: 0 PQ LATE: 0 COMMIT LATE: 0 MISSED OPPORTUNITY: 0 UNCOVERED: 0
L1I PREFETCHES SAME FILL-ORIGIN LEVEL: 0 DIFFERENT FILL-ORIGIN LEVEL: 0
L1I AVERAGE MISS LATENCY: 166.381 cycles
L1I AVERAGE MISS LATENCY LOAD: 166.381 cycles
L1I AVERAGE MISS LATENCY PREFETCH: -nan cycles
L1I AVERAGE MSHR OCCUPANCY: 1.33164e-07
L1I MSHR FULL: 0
L1I RQ	ACCESS:   71162798	FORWARD:          0	MERGED:   11086425	TO_CACHE:   60076373

BTB SPEC fills:          0  NON-SPEC fills:          0
BTB Test counter :          0
BTB Leapfrog:          0
BTB MSHR merge:          0
BTB TOTAL     ACCESS:   37022761  HIT:   37022589  MISS:        172  HIT %:    99.9995  MISS %: 0.000464579   MPKI: 0.00086
BTB BRANCH_DIRECT_JUMP	ACCESS:         66  HIT:         33  MISS:         33
BTB BRANCH_INDIRECT	ACCESS:          4  HIT:          0  MISS:          4
BTB BRANCH_CONDITIONAL	ACCESS:   37022625  HIT:   37022536  MISS:         89
BTB BRANCH_DIRECT_CALL	ACCESS:         28  HIT:         10  MISS:         18
BTB BRANCH_INDIRECT_CALL	ACCESS:          5  HIT:          1  MISS:          4
BTB BRANCH_RETURN	ACCESS:         33  HIT:          9  MISS:         24
BTB BRANCH_OTHER ACCESS:          0  HIT:          0  MISS:          0

L2C SPEC fills:          0  NON-SPEC fills:   25032636
L2C Test counter :          0
L2C Leapfrog:          0
L2C MSHR merge:          0
L2C TOTAL     ACCESS:   67173488  HIT:   14585321  MISS:   52588167  HIT %:    21.7129  MISS %:    78.2871   MPKI: 262.941
L2C LOAD      TOTAL       ACCESS:   32661166  HIT:    7488207  MISS:   25172959  HIT %:    22.9269  MISS %:    77.0731   MPKI: 125.865
L2C LOAD      NON_SPEC    ACCESS:   32434872  HIT:    7402215  MISS:   25032657  HIT %:    22.8218  MISS %:    77.1782   MPKI: 125.163
L2C LOAD      SPEC        ACCESS:     226294  HIT:      85992  MISS:     140302  HIT %:    38.0001  MISS %:    61.9999   MPKI: 0.70151
L2C RFO       NON_SPEC    ACCESS:       3383  HIT:       1880  MISS:       1503  HIT %:     55.572  MISS %:     44.428   MPKI: 0.007515
L2C PREFETCH  NON_SPEC    ACCESS:   33930863  HIT:    6646577  MISS:   27284286  HIT %:    19.5886  MISS %:    80.4114   MPKI: 136.421
L2C WRITEBACK NON_SPEC    ACCESS:     132196  HIT:     131436  MISS:        760  HIT %:    99.4251  MISS %:   0.574904   MPKI: 0.0038
L2C CLEAN_EVICTION NON_SPEC    ACCESS:     241359  HIT:     128851  MISS:     112508  HIT %:    53.3856  MISS %:    46.6144   MPKI: 0.56254
L2C COMMIT LOAD NON_SPEC    ACCESS:        703  HIT:        693  MISS:         10  HIT %:    98.5775  MISS %:    1.42248   MPKI: 5e-05
L2C LOAD TRANSLATION NON_SPEC    ACCESS:     203818  HIT:     187677  MISS:      16141  HIT %:    92.0807  MISS %:    7.91932   MPKI: 0.080705
L2C PREFETCH  REQUESTED:          0  ISSUED:          0  USEFUL:    1157225  USELESS:   26127133
L2C USEFUL LOAD PREFETCHES:    1157225 PREFETCH ISSUED TO LOWER LEVEL:   27284286  ACCURACY: 4.24136
L2C TIMELY PREFETCHES:    1157225 LATE PREFETCHES: 0 DROPPED PREFETCHES: 0
L2C COMMIT LATE PREFETCHES: 0 MISSED OPPORTUNITY: 0 LATE IN PQ: 0 UNCOVERED: 0
L2C COMMIT LATE MSHR PREFETCHES: 0
L2C MPKI TOTAL: 125.865 MSHR LATE: 0 PQ LATE: 0 COMMIT LATE: 0 MISSED OPPORTUNITY: 0 UNCOVERED: 0
L2C PREFETCHES SAME FILL-ORIGIN LEVEL: 0 DIFFERENT FILL-ORIGIN LEVEL: 0
L2C AVERAGE MISS LATENCY: 105.639 cycles
L2C AVERAGE MISS LATENCY LOAD: 100.08 cycles
L2C AVERAGE MISS LATENCY PREFETCH: 111.186 cycles
L2C AVERAGE MSHR OCCUPANCY: 1.1177
L2C MSHR FULL: 0
L2C RQ	ACCESS:   32869082	FORWARD:          0	MERGED:          0	TO_CACHE:   32869070
L2C WQ	ACCESS:     373555	FORWARD:         12	MERGED:          0	TO_CACHE:     373555
L2C PQ	ACCESS:   33930863	FORWARD:          0	MERGED:          0	TO_CACHE:   33930863

L2C Instructions Evicting Data 21
L2C Translations Evicting Data 16136
L2C Data Evicting Data 52302423
L2C Instructions Evicting Instructions 0
L2C Translations Evicting Instructions 0
L2C Data Evicting Instructions 20
L2C Instructions Evicting Translations 0
L2C Translations Evicting Translations 5
L2C Data Evicting Translations 15992
L2C Dense regions hint from L2: 0
PSCL5 SPEC fills:          0  NON-SPEC fills:          0
PSCL5 Test counter :          0
PSCL5 Leapfrog:          0
PSCL5 MSHR merge:          0
PSCL5 TOTAL     ACCESS:          0  HIT:          0  MISS:          0  HIT %:       -nan  MISS %:       -nan   MPKI: 0
PSCL5 PREFETCH  REQUESTED:          0  ISSUED:          0  USEFUL:          0  USELESS:          0
PSCL5 USEFUL LOAD PREFETCHES:          0 PREFETCH ISSUED TO LOWER LEVEL:          0  ACCURACY: -nan
PSCL5 TIMELY PREFETCHES:          0 LATE PREFETCHES: 0 DROPPED PREFETCHES: 0
PSCL5 COMMIT LATE PREFETCHES: 0 MISSED OPPORTUNITY: 0 LATE IN PQ: 0 UNCOVERED: 0
PSCL5 COMMIT LATE MSHR PREFETCHES: 0
PSCL5 MPKI TOTAL: 0 MSHR LATE: 0 PQ LATE: 0 COMMIT LATE: 0 MISSED OPPORTUNITY: 0 UNCOVERED: 0
PSCL5 PREFETCHES SAME FILL-ORIGIN LEVEL: 0 DIFFERENT FILL-ORIGIN LEVEL: 0

PSCL4 SPEC fills:          0  NON-SPEC fills:          0
PSCL4 Test counter :          0
PSCL4 Leapfrog:          0
PSCL4 MSHR merge:          0
PSCL4 TOTAL     ACCESS:          0  HIT:          0  MISS:          0  HIT %:       -nan  MISS %:       -nan   MPKI: 0
PSCL4 PREFETCH  REQUESTED:          0  ISSUED:          0  USEFUL:          0  USELESS:          0
PSCL4 USEFUL LOAD PREFETCHES:          0 PREFETCH ISSUED TO LOWER LEVEL:          0  ACCURACY: -nan
PSCL4 TIMELY PREFETCHES:          0 LATE PREFETCHES: 0 DROPPED PREFETCHES: 0
PSCL4 COMMIT LATE PREFETCHES: 0 MISSED OPPORTUNITY: 0 LATE IN PQ: 0 UNCOVERED: 0
PSCL4 COMMIT LATE MSHR PREFETCHES: 0
PSCL4 MPKI TOTAL: 0 MSHR LATE: 0 PQ LATE: 0 COMMIT LATE: 0 MISSED OPPORTUNITY: 0 UNCOVERED: 0
PSCL4 PREFETCHES SAME FILL-ORIGIN LEVEL: 0 DIFFERENT FILL-ORIGIN LEVEL: 0

PSCL3 SPEC fills:          0  NON-SPEC fills:          0
PSCL3 Test counter :          0
PSCL3 Leapfrog:          0
PSCL3 MSHR merge:          0
PSCL3 TOTAL     ACCESS:          0  HIT:          0  MISS:          0  HIT %:       -nan  MISS %:       -nan   MPKI: 0
PSCL3 PREFETCH  REQUESTED:          0  ISSUED:          0  USEFUL:          0  USELESS:          0
PSCL3 USEFUL LOAD PREFETCHES:          0 PREFETCH ISSUED TO LOWER LEVEL:          0  ACCURACY: -nan
PSCL3 TIMELY PREFETCHES:          0 LATE PREFETCHES: 0 DROPPED PREFETCHES: 0
PSCL3 COMMIT LATE PREFETCHES: 0 MISSED OPPORTUNITY: 0 LATE IN PQ: 0 UNCOVERED: 0
PSCL3 COMMIT LATE MSHR PREFETCHES: 0
PSCL3 MPKI TOTAL: 0 MSHR LATE: 0 PQ LATE: 0 COMMIT LATE: 0 MISSED OPPORTUNITY: 0 UNCOVERED: 0
PSCL3 PREFETCHES SAME FILL-ORIGIN LEVEL: 0 DIFFERENT FILL-ORIGIN LEVEL: 0

PSCL2 SPEC fills:          0  NON-SPEC fills:          0
PSCL2 Test counter :          0
PSCL2 Leapfrog:          0
PSCL2 MSHR merge:          0
PSCL2 TOTAL     ACCESS:          0  HIT:          0  MISS:          0  HIT %:       -nan  MISS %:       -nan   MPKI: 0
PSCL2 PREFETCH  REQUESTED:          0  ISSUED:          0  USEFUL:          0  USELESS:          0
PSCL2 USEFUL LOAD PREFETCHES:          0 PREFETCH ISSUED TO LOWER LEVEL:          0  ACCURACY: -nan
PSCL2 TIMELY PREFETCHES:          0 LATE PREFETCHES: 0 DROPPED PREFETCHES: 0
PSCL2 COMMIT LATE PREFETCHES: 0 MISSED OPPORTUNITY: 0 LATE IN PQ: 0 UNCOVERED: 0
PSCL2 COMMIT LATE MSHR PREFETCHES: 0
PSCL2 MPKI TOTAL: 0 MSHR LATE: 0 PQ LATE: 0 COMMIT LATE: 0 MISSED OPPORTUNITY: 0 UNCOVERED: 0
PSCL2 PREFETCHES SAME FILL-ORIGIN LEVEL: 0 DIFFERENT FILL-ORIGIN LEVEL: 0

LLC SPEC fills:          0  NON-SPEC fills:   11050994
LLC Test counter :          0
LLC Leapfrog:          0
LLC MSHR merge:          0
LLC TOTAL     ACCESS:   52815330  HIT:   27366944  MISS:   25448386  HIT %:    51.8163  MISS %:    48.1837   MPKI: 127.242
LLC LOAD      TOTAL       ACCESS:   25172959  HIT:   13985421  MISS:   11187538  HIT %:    55.5573  MISS %:    44.4427   MPKI: 55.9377
LLC LOAD      NON_SPEC    ACCESS:   25032657  HIT:   13981642  MISS:   11051015  HIT %:    55.8536  MISS %:    44.1464   MPKI: 55.2551
LLC LOAD      SPEC        ACCESS:     140302  HIT:       3779  MISS:     136523  HIT %:    2.69348  MISS %:    97.3065   MPKI: 0.682615
LLC RFO       NON_SPEC    ACCESS:       1503  HIT:         47  MISS:       1456  HIT %:    3.12708  MISS %:    96.8729   MPKI: 0.00728
LLC PREFETCH  NON_SPEC    ACCESS:   27284286  HIT:   13142698  MISS:   14141588  HIT %:    48.1695  MISS %:    51.8305   MPKI: 70.7079
LLC WRITEBACK NON_SPEC    ACCESS:     114147  HIT:     113420  MISS:        727  HIT %:    99.3631  MISS %:   0.636898   MPKI: 0.003635
LLC CLEAN_EVICTION NON_SPEC    ACCESS:     226284  HIT:     118223  MISS:     108061  HIT %:    52.2454  MISS %:    47.7546   MPKI: 0.540305
LLC COMMIT LOAD NON_SPEC    ACCESS:         10  HIT:          7  MISS:          3  HIT %:         70  MISS %:         30   MPKI: 1.5e-05
LLC LOAD TRANSLATION NON_SPEC    ACCESS:      16141  HIT:       7128  MISS:       9013  HIT %:    44.1608  MISS %:    55.8392   MPKI: 0.045065
LLC PREFETCH  REQUESTED:          0  ISSUED:          0  USEFUL:    2054602  USELESS:   12087467
LLC USEFUL LOAD PREFETCHES:    2054602 PREFETCH ISSUED TO LOWER LEVEL:   14141589  ACCURACY: 14.5288
LLC TIMELY PREFETCHES:    2054602 LATE PREFETCHES: 0 DROPPED PREFETCHES: 0
LLC COMMIT LATE PREFETCHES: 0 MISSED OPPORTUNITY: 0 LATE IN PQ: 0 UNCOVERED: 0
LLC COMMIT LATE MSHR PREFETCHES: 0
LLC MPKI TOTAL: 55.9377 MSHR LATE: 0 PQ LATE: 0 COMMIT LATE: 0 MISSED OPPORTUNITY: 0 UNCOVERED: 0
LLC PREFETCHES SAME FILL-ORIGIN LEVEL: 0 DIFFERENT FILL-ORIGIN LEVEL: 0
LLC AVERAGE MISS LATENCY: 156.451 cycles
LLC AVERAGE MISS LATENCY LOAD: 157.767 cycles
LLC AVERAGE MISS LATENCY PREFETCH: 156.594 cycles
LLC AVERAGE MSHR OCCUPANCY: 0.751171
LLC MSHR FULL: 0
LLC RQ	ACCESS:   25190613	FORWARD:          0	MERGED:          0	TO_CACHE:   25190613
LLC WQ	ACCESS:     340431	FORWARD:          0	MERGED:          0	TO_CACHE:     340431
LLC PQ	ACCESS:   27284286	FORWARD:          0	MERGED:          0	TO_CACHE:   27284286

LLC Dense regions hint to LLC: 0

RAW hits: 25
Loads Generated: 77350942
Loads sent to L1D: 77350916
Stores Generated: 3305817
Stores sent to L1D: 3305817
Major fault: 0 Minor fault: 34901
Allocated PAGES: 34901
Total Load insts: 95645184
Total Non-spec loads: 44637403
Percentage of speculative loads: 53.3302

LeapFrogging counter: 0
Commit hits: 4717990 miss: 35270348
Commit hit %: 11.7984 miss %: 88.2016
Commits not translated: 0
Loads retired: 32815451
Stores retired: 3305817
Cache fills: 32815452
L1D response latency: 92.2494 cycles
Load retirement latency: 115.636 cycles
OOO test counter: 0
Discarded buffer inserts: 4717990 hits: 51461 hit %: 1.09074
Filter prediction accuracy: 99.7896

stream: 
stream:times selected: 43446964
stream:pref_filled: 36949394
stream:pref_useful: 408080
stream:pref_late: 61830
stream:misses: 34260
stream:misses_by_poll: 0

CS: 
CS:times selected: 3955543
CS:pref_filled: 3110490
CS:pref_useful: 2748197
CS:pref_late: 18310
CS:misses: 556796
CS:misses_by_poll: 22981

CPLX: 
CPLX:times selected: 39123207
CPLX:pref_filled: 733909
CPLX:pref_useful: 18914
CPLX:pref_late: 4818
CPLX:misses: 92574
CPLX:misses_by_poll: 980

NL_L1: 
NL:times selected: 350959
NL:pref_filled: 339328
NL:pref_useful: 1231
NL:pref_late: 94
NL:misses: 1814
NL:misses_by_poll: 585

total selections: 86876673
total_filled: 33776041
total_useful: 2407553
total_late: 90424
total_polluted: 24546
total_misses_after_warmup: 451399
conflicts: 112
Degree Incremented Times: 377413
Degree Decremented Times: 1091786

L1 IP Table Write Accesses: 80656644
L1 IP Table Read Accesses: 80656532
L1 RST Write Accesses: 35807160
L1 RST Read Accesses: 71614320
L1 CSPT Write Accesses: 35807160
L1 CSPT Read Accesses: 68276431
L1 RR Filter Tag Write Accesses: 38257584
L1 RR Filter Tag Read Accesses: 1377463870
L1 IP Table Tag Write Accesses: 80656760
L1 IP Table Tag Read Accesses: 80656760
L1 RST Tag Write Accesses: 0
L1 RST Tag Read Accesses: 321860772
L1 RR Filter Write Accesses: 0
L1 RR Filter Read Accesses: 44883826
test: 23222203

DRAM Statistics
 CHANNEL 0
 RQ ROW_BUFFER_HIT:    4844917  ROW_BUFFER_MISS:   20494675
 DBUS_CONGESTED:       9798
 WQ ROW_BUFFER_HIT:     182562  ROW_BUFFER_MISS:     156277  FULL:          0

 AVG_CONGESTED_CYCLE: 2
 All warmup complete: 2
Channel 0 Bank busy for read cycles: 0
Channel 0 Bank busy for write cycles: 0
Channel 0
Rank 0
0banks busy for read cycles: 1273611377
0banks busy for write cycles: 129170
1banks busy for read cycles: 1592174280
1banks busy for write cycles: 55879836
2banks busy for read cycles: 707892803
2banks busy for write cycles: 4833245
3banks busy for read cycles: 89280328
3banks busy for write cycles: 768980
4banks busy for read cycles: 9318527
4banks busy for write cycles: 290907
5banks busy for read cycles: 687072
5banks busy for write cycles: 356794
6banks busy for read cycles: 20589
6banks busy for write cycles: 628195
7banks busy for read cycles: 469
7banks busy for write cycles: 1418663
8banks busy for read cycles: 0
8banks busy for write cycles: 3849083

CPU 0 Branch Prediction Accuracy: 96.9509% MPKI: 5.6443 Average ROB Occupancy at Mispredict: 138.114
Branch types
NOT_BRANCH: 162977012 81.4885%
BRANCH_DIRECT_JUMP: 66 3.3e-05%
BRANCH_INDIRECT: 4 2e-06%
BRANCH_CONDITIONAL: 37022851 18.5114%
BRANCH_DIRECT_CALL: 28 1.4e-05%
BRANCH_INDIRECT_CALL: 5 2.5e-06%
BRANCH_RETURN: 33 1.65e-05%
BRANCH_OTHER: 0 0%

DRAM PAGES: 1048576
Allocated PAGES: 34901
