
*** ChampSim Multicore Out-of-Order Simulator ***

Warmup Instructions: 50000000
Simulation Instructions: 200000000
Number of CPUs: 1
LLC sets: 2048
LLC ways: 16
L0D sets: 16
L0D ways: 2
ROB size: 352
LQ size: 128
SQ size: 72
Secure Berti: OFF
Berti: OFF
Berti Fill: OFF
On commit prefetching: ON
Hit-based filter: OFF
Time-guarding: ON
Free-slotting: ON
Leap-frogging: ON
Train prefetcher on L0D bypass: OFF
No translation penalty for prefetchers: OFF
Prefetch to L0D only: OFF
Prefetch to L1D only: OFF
Clean evictions: ON
Commit loads: ON
Commit write: ON
Fill commit loads to L2C, LLC: ON
DRAM IO FREQUENCY: 6400
ROB SIZE: 352
Off-chip DRAM Size: 4096 MB Channels: 1 Width: 64-bit Data Rate: 6400 MT/s
CPU 0 runs /home/sumon/secure_berti/GhostMinion/../../traces/gap/bc-0.trace.gz
.gz
BTB has LRU replacement policy
ITLB has LRU replacement policy
DTLB has LRU replacement policy
STLB has LRU replacement policy
L1I has LRU replacement policy
L0D has LRU replacement policy
Bingo PHT WAYS: 16 and PHT_SIZE: 16384
L1D has LRU replacement policy
Bingo PHT WAYS: 16 and PHT_SIZE: 16384
L2C has LRU replacement policy
LLC has LRU replacement policy
Heartbeat CPU 0 instructions: 10000002 cycles: 3791836 heartbeat IPC: 2.63725 cumulative IPC: 2.63725 (Simulation time: 0 hr 3 min 7 sec) 
Heartbeat CPU 0 instructions: 20000000 cycles: 7210154 heartbeat IPC: 2.92541 cumulative IPC: 2.77387 (Simulation time: 0 hr 7 min 23 sec) 
Heartbeat CPU 0 instructions: 30000003 cycles: 10663588 heartbeat IPC: 2.89567 cumulative IPC: 2.81331 (Simulation time: 0 hr 11 min 52 sec) 
Heartbeat CPU 0 instructions: 40000000 cycles: 14097220 heartbeat IPC: 2.91237 cumulative IPC: 2.83744 (Simulation time: 0 hr 16 min 8 sec) 
Heartbeat CPU 0 instructions: 50000002 cycles: 17536959 heartbeat IPC: 2.9072 cumulative IPC: 2.85112 (Simulation time: 0 hr 20 min 18 sec) 

Warmup complete CPU 0 instructions: 50000002 cycles: 17536959 (Simulation time: 0 hr 20 min 18 sec) 

Heartbeat CPU 0 instructions: 60000003 cycles: 88761654 heartbeat IPC: 0.140401 cumulative IPC: 0.140401 (Simulation time: 0 hr 25 min 45 sec) 
Heartbeat CPU 0 instructions: 70000001 cycles: 160319512 heartbeat IPC: 0.139747 cumulative IPC: 0.140073 (Simulation time: 0 hr 31 min 8 sec) 
Heartbeat CPU 0 instructions: 80000001 cycles: 231541215 heartbeat IPC: 0.140407 cumulative IPC: 0.140184 (Simulation time: 0 hr 36 min 54 sec) 
Heartbeat CPU 0 instructions: 90000002 cycles: 303565260 heartbeat IPC: 0.138843 cumulative IPC: 0.139846 (Simulation time: 0 hr 42 min 31 sec) 
Heartbeat CPU 0 instructions: 100000001 cycles: 374105432 heartbeat IPC: 0.141763 cumulative IPC: 0.140226 (Simulation time: 0 hr 48 min 24 sec) 
Heartbeat CPU 0 instructions: 110000000 cycles: 444662567 heartbeat IPC: 0.141729 cumulative IPC: 0.140474 (Simulation time: 0 hr 54 min 35 sec) 
Heartbeat CPU 0 instructions: 120000000 cycles: 514088297 heartbeat IPC: 0.144039 cumulative IPC: 0.140972 (Simulation time: 1 hr 1 min 11 sec) 
Heartbeat CPU 0 instructions: 130000002 cycles: 583856572 heartbeat IPC: 0.143332 cumulative IPC: 0.141263 (Simulation time: 1 hr 7 min 39 sec) 
Heartbeat CPU 0 instructions: 140000000 cycles: 653860474 heartbeat IPC: 0.142849 cumulative IPC: 0.141437 (Simulation time: 1 hr 14 min 11 sec) 
Heartbeat CPU 0 instructions: 150000000 cycles: 723487282 heartbeat IPC: 0.143623 cumulative IPC: 0.141653 (Simulation time: 1 hr 20 min 47 sec) 
Heartbeat CPU 0 instructions: 160000003 cycles: 791778484 heartbeat IPC: 0.146432 cumulative IPC: 0.142075 (Simulation time: 1 hr 27 min 52 sec) 
Heartbeat CPU 0 instructions: 170000001 cycles: 860557828 heartbeat IPC: 0.145392 cumulative IPC: 0.142345 (Simulation time: 1 hr 34 min 49 sec) 
Heartbeat CPU 0 instructions: 180000002 cycles: 929008915 heartbeat IPC: 0.14609 cumulative IPC: 0.142626 (Simulation time: 1 hr 41 min 49 sec) 
Heartbeat CPU 0 instructions: 190000002 cycles: 997243573 heartbeat IPC: 0.146553 cumulative IPC: 0.1429 (Simulation time: 1 hr 48 min 50 sec) 
Heartbeat CPU 0 instructions: 200000000 cycles: 1066173480 heartbeat IPC: 0.145075 cumulative IPC: 0.143043 (Simulation time: 1 hr 55 min 45 sec) 
Heartbeat CPU 0 instructions: 210000000 cycles: 1134787431 heartbeat IPC: 0.145743 cumulative IPC: 0.143209 (Simulation time: 2 hr 2 min 42 sec) 
Heartbeat CPU 0 instructions: 220000000 cycles: 1203563804 heartbeat IPC: 0.145399 cumulative IPC: 0.143336 (Simulation time: 2 hr 9 min 47 sec) 
Heartbeat CPU 0 instructions: 230000000 cycles: 1272070383 heartbeat IPC: 0.145971 cumulative IPC: 0.14348 (Simulation time: 2 hr 17 min 9 sec) 
Heartbeat CPU 0 instructions: 240000003 cycles: 1340896470 heartbeat IPC: 0.145294 cumulative IPC: 0.143574 (Simulation time: 2 hr 24 min 36 sec) 
Heartbeat CPU 0 instructions: 250000000 cycles: 1409546971 heartbeat IPC: 0.145665 cumulative IPC: 0.143677 (Simulation time: 2 hr 32 min 3 sec) 
Finished CPU 0 instructions: 200000002 cycles: 1392010013 cumulative IPC: 0.143677 (Simulation time: 2 hr 32 min 3 sec) 
 Instruction ID: 250000014

ChampSim completed all CPUs

Region of Interest Statistics

CPU 0 cumulative IPC: 0.143677 instructions: 200000002 cycles: 1392010013
ITLB SPEC fills:          0  NON-SPEC fills:          0
ITLB Test counter :          0
ITLB Leapfrog:          0
ITLB MSHR merge:          0
ITLB TOTAL     ACCESS:   40679477  HIT:   40679477  MISS:          0  HIT %:        100  MISS %:          0   MPKI: 0
ITLB LOAD TRANSLATION NON_SPEC    ACCESS:   40679477  HIT:   40679477  MISS:          0  HIT %:        100  MISS %:          0   MPKI: 0
ITLB PREFETCH  REQUESTED:          0  ISSUED:          0  USEFUL:          0  USELESS:          0
ITLB USEFUL LOAD PREFETCHES:          0 PREFETCH ISSUED TO LOWER LEVEL:          0  ACCURACY: -nan
ITLB TIMELY PREFETCHES:          0 LATE PREFETCHES: 0 DROPPED PREFETCHES: 0
ITLB COMMIT LATE PREFETCHES: 0 NORMAL LATE: 0 MISSED OPPORTUNITY: 0 UNCOVERED: 0
ITLB PREFETCHES SAME FILL-ORIGIN LEVEL: 0 DIFFERENT FILL-ORIGIN LEVEL: 0
ITLB AVERAGE MISS LATENCY: -nan cycles
ITLB AVERAGE MISS LATENCY LOAD: -nan cycles
ITLB AVERAGE MISS LATENCY PREFETCH: -nan cycles
ITLB AVERAGE MSHR OCCUPANCY: 0
ITLB MSHR FULL: 0
ITLB RQ	ACCESS:   40943563	FORWARD:          0	MERGED:     264087	TO_CACHE:   40679476

DTLB SPEC fills:          0  NON-SPEC fills:          0
DTLB Test counter :          0
DTLB Leapfrog:          0
DTLB MSHR merge:          0
DTLB TOTAL     ACCESS:   55020679  HIT:   45601251  MISS:    9419428  HIT %:    82.8802  MISS %:    17.1198   MPKI: 47.0971
DTLB LOAD TRANSLATION NON_SPEC    ACCESS:   55020679  HIT:   45601251  MISS:    9419428  HIT %:    82.8802  MISS %:    17.1198   MPKI: 47.0971
DTLB PREFETCH  REQUESTED:          0  ISSUED:          0  USEFUL:          0  USELESS:          0
DTLB USEFUL LOAD PREFETCHES:          0 PREFETCH ISSUED TO LOWER LEVEL:          0  ACCURACY: -nan
DTLB TIMELY PREFETCHES:          0 LATE PREFETCHES: 0 DROPPED PREFETCHES: 0
DTLB COMMIT LATE PREFETCHES: 0 NORMAL LATE: 0 MISSED OPPORTUNITY: 0 UNCOVERED: 0
DTLB PREFETCHES SAME FILL-ORIGIN LEVEL: 0 DIFFERENT FILL-ORIGIN LEVEL: 0
DTLB AVERAGE MISS LATENCY: 36.1654 cycles
DTLB AVERAGE MISS LATENCY LOAD: -nan cycles
DTLB AVERAGE MISS LATENCY PREFETCH: -nan cycles
DTLB AVERAGE MSHR OCCUPANCY: 0.361692
DTLB MSHR FULL: 0.00149537
DTLB RQ	ACCESS:   60544319	FORWARD:          0	MERGED:    4791480	TO_CACHE:   55752839

STLB SPEC fills:          0  NON-SPEC fills:          0
STLB Test counter :          0
STLB Leapfrog:          0
STLB MSHR merge:          0
STLB TOTAL     ACCESS:    9419428  HIT:    6409358  MISS:    3010070  HIT %:     68.044  MISS %:     31.956   MPKI: 15.0503
STLB LOAD TRANSLATION NON_SPEC    ACCESS:    9419428  HIT:    6409358  MISS:    3010070  HIT %:     68.044  MISS %:     31.956   MPKI: 15.0503
STLB PREFETCH  REQUESTED:          0  ISSUED:          0  USEFUL:          0  USELESS:          0
STLB USEFUL LOAD PREFETCHES:          0 PREFETCH ISSUED TO LOWER LEVEL:          0  ACCURACY: -nan
STLB TIMELY PREFETCHES:          0 LATE PREFETCHES: 0 DROPPED PREFETCHES: 0
STLB COMMIT LATE PREFETCHES: 0 NORMAL LATE: 0 MISSED OPPORTUNITY: 0 UNCOVERED: 0
STLB PREFETCHES SAME FILL-ORIGIN LEVEL: 0 DIFFERENT FILL-ORIGIN LEVEL: 0
STLB AVERAGE MISS LATENCY: 84.8404 cycles
STLB AVERAGE MISS LATENCY LOAD: -nan cycles
STLB AVERAGE MISS LATENCY PREFETCH: -nan cycles
STLB AVERAGE MSHR OCCUPANCY: 0.329
STLB MSHR FULL: 0
STLB RQ	ACCESS:    9419427	FORWARD:          0	MERGED:          0	TO_CACHE:    9419427

STLB Hit, L1D data hit: 0
STLB Hit, L2C data hit: 0
STLB Hit, LLC data hit: 0
STLB Hit, LLC data miss: 0
STLB STLB hints to L2: 0
L0D SPEC fills:   34191561  NON-SPEC fills:          0
L0D TimeGuard Request with older TS:     288792 Restricted eviction:     310181 read:          2
L0D Test counter :          0
L0D Leapfrog:          0
L0D MSHR merge:     445374
L0D TOTAL     ACCESS:   50977891  HIT:   12305709  MISS:   38672182  HIT %:    24.1393  MISS %:    75.8607   MPKI: 193.361
L0D LOAD      TOTAL       ACCESS:   50977891  HIT:   12305709  MISS:   38672182  HIT %:    24.1393  MISS %:    75.8607   MPKI: 193.361
L0D LOAD      NON_SPEC    ACCESS:    4172714  HIT:       2202  MISS:    4170512  HIT %:  0.0527714  MISS %:    99.9472   MPKI: 20.8526
L0D LOAD      SPEC        ACCESS:   46805177  HIT:   12303507  MISS:   34501670  HIT %:    26.2866  MISS %:    73.7134   MPKI: 172.508
L0D PREFETCH  REQUESTED:          0  ISSUED:          0  USEFUL:          0  USELESS:          0
L0D USEFUL LOAD PREFETCHES:          0 PREFETCH ISSUED TO LOWER LEVEL:          0  ACCURACY: -nan
L0D TIMELY PREFETCHES:          0 LATE PREFETCHES: 0 DROPPED PREFETCHES: 0
L0D COMMIT LATE PREFETCHES: 0 NORMAL LATE: 0 MISSED OPPORTUNITY: 0 UNCOVERED: 0
L0D PREFETCHES SAME FILL-ORIGIN LEVEL: 0 DIFFERENT FILL-ORIGIN LEVEL: 0
L0D AVERAGE MISS LATENCY: 60.8713 cycles
L0D AVERAGE MISS LATENCY LOAD: 60.8713 cycles
L0D AVERAGE MISS LATENCY PREFETCH: -nan cycles
L0D AVERAGE MSHR OCCUPANCY: 1.25917
L0D MSHR FULL: 0.0208024
L0D RQ	ACCESS:   52223230	FORWARD:          0	MERGED:     799972	TO_CACHE:   51423258
L0D WQ	ACCESS:    9121061	FORWARD:          0	MERGED:          0	TO_CACHE:    9121061

L1D SPEC fills:          0  NON-SPEC fills:     645122
L1D Test counter :          0
L1D Leapfrog:          0
L1D MSHR merge:       4616
L1D TOTAL     ACCESS:   87037437  HIT:   52495080  MISS:   34542357  HIT %:    60.3132  MISS %:    39.6868   MPKI: 172.712
L1D LOAD      TOTAL       ACCESS:   38667566  HIT:   21077677  MISS:   17589889  HIT %:      54.51  MISS %:      45.49   MPKI: 87.9494
L1D LOAD      NON_SPEC    ACCESS:    4169404  HIT:    3524282  MISS:     645122  HIT %:    84.5272  MISS %:    15.4728   MPKI: 3.22561
L1D LOAD      SPEC        ACCESS:   34498162  HIT:   17553395  MISS:   16944767  HIT %:    50.8821  MISS %:    49.1179   MPKI: 84.7238
L1D RFO       NON_SPEC    ACCESS:    3793713  HIT:    3764378  MISS:      29335  HIT %:    99.2267  MISS %:   0.773253   MPKI: 0.146675
L1D COMMIT LOAD NON_SPEC    ACCESS:   10651667  HIT:   10399452  MISS:     252215  HIT %:    97.6322  MISS %:    2.36785   MPKI: 1.26107
L1D COMMIT WRITE NON_SPEC    ACCESS:   33924491  HIT:   17253573  MISS:   16670918  HIT %:    50.8588  MISS %:    49.1412   MPKI: 83.3546
L1D PREFETCH  REQUESTED:          0  ISSUED:          0  USEFUL:          0  USELESS:          0
L1D USEFUL LOAD PREFETCHES:          0 PREFETCH ISSUED TO LOWER LEVEL:          0  ACCURACY: -nan
L1D TIMELY PREFETCHES:          0 LATE PREFETCHES: 0 DROPPED PREFETCHES: 0
L1D COMMIT LATE PREFETCHES: 0 NORMAL LATE: 0 MISSED OPPORTUNITY: 0 UNCOVERED: 17592189
L1D PREFETCHES SAME FILL-ORIGIN LEVEL: 0 DIFFERENT FILL-ORIGIN LEVEL: 0
L1D AVERAGE MISS LATENCY: 63.2761 cycles
L1D AVERAGE MISS LATENCY LOAD: 122.701 cycles
L1D AVERAGE MISS LATENCY PREFETCH: -nan cycles
L1D AVERAGE MSHR OCCUPANCY: 1.02937
L1D MSHR FULL: 0.012768
L1D RQ	ACCESS:   52797565	FORWARD:          0	MERGED:    3303488	TO_CACHE:   49345079
L1D WQ	ACCESS:   43046214	FORWARD:     148998	MERGED:    5270526	TO_CACHE:   37775688

L1D UNIQUE REGIONS ACCESSED: 0
L1D REGIONS CONFLICTS: 0
L1D Cross Page Prefetch Requests: 0
L1D Same Page Prefetch Requests: 0
L1D ROI Sum of L1D PQ occupancy: 0
L1D PREFETCHES PUSHED FROM L2C: 0
L1I SPEC fills:          0  NON-SPEC fills:          0
L1I Test counter :          0
L1I Leapfrog:          0
L1I MSHR merge:          0
L1I TOTAL     ACCESS:   40943564  HIT:   40943564  MISS:          0  HIT %:        100  MISS %:          0   MPKI: 0
L1I LOAD      TOTAL       ACCESS:   40943564  HIT:   40943564  MISS:          0  HIT %:        100  MISS %:          0   MPKI: 0
L1I LOAD      NON_SPEC    ACCESS:   40943564  HIT:   40943564  MISS:          0  HIT %:        100  MISS %:          0   MPKI: 0
L1I PREFETCH  REQUESTED:          0  ISSUED:          0  USEFUL:          0  USELESS:          0
L1I USEFUL LOAD PREFETCHES:          0 PREFETCH ISSUED TO LOWER LEVEL:          0  ACCURACY: -nan
L1I TIMELY PREFETCHES:          0 LATE PREFETCHES: 0 DROPPED PREFETCHES: 0
L1I COMMIT LATE PREFETCHES: 0 NORMAL LATE: 0 MISSED OPPORTUNITY: 0 UNCOVERED: 0
L1I PREFETCHES SAME FILL-ORIGIN LEVEL: 0 DIFFERENT FILL-ORIGIN LEVEL: 0
L1I AVERAGE MISS LATENCY: -nan cycles
L1I AVERAGE MISS LATENCY LOAD: -nan cycles
L1I AVERAGE MISS LATENCY PREFETCH: -nan cycles
L1I AVERAGE MSHR OCCUPANCY: 0
L1I MSHR FULL: 0
L1I RQ	ACCESS:   52456322	FORWARD:          0	MERGED:   11512759	TO_CACHE:   40943563

BTB SPEC fills:          0  NON-SPEC fills:          0
BTB Test counter :          0
BTB Leapfrog:          0
BTB MSHR merge:          0
BTB TOTAL     ACCESS:   38946633  HIT:   38946619  MISS:         14  HIT %:        100  MISS %: 3.59466e-05   MPKI: 7e-05
BTB BRANCH_DIRECT_JUMP	ACCESS:     251798  HIT:     251794  MISS:          4
BTB BRANCH_INDIRECT	ACCESS:          0  HIT:          0  MISS:          0
BTB BRANCH_CONDITIONAL	ACCESS:   38694807  HIT:   38694799  MISS:          8
BTB BRANCH_DIRECT_CALL	ACCESS:         14  HIT:         13  MISS:          1
BTB BRANCH_INDIRECT_CALL	ACCESS:          0  HIT:          0  MISS:          0
BTB BRANCH_RETURN	ACCESS:         14  HIT:         13  MISS:          1
BTB BRANCH_OTHER ACCESS:          0  HIT:          0  MISS:          0

L2C SPEC fills:          0  NON-SPEC fills:     525391
L2C Test counter :          0
L2C Leapfrog:          0
L2C MSHR merge:     121157
L2C TOTAL     ACCESS:   62072933  HIT:   22775656  MISS:   39297277  HIT %:    36.6918  MISS %:    63.3082   MPKI: 196.486
L2C LOAD      TOTAL       ACCESS:   17589855  HIT:    3528915  MISS:   14060940  HIT %:    20.0622  MISS %:    79.9378   MPKI: 70.3047
L2C LOAD      NON_SPEC    ACCESS:     645122  HIT:     119731  MISS:     525391  HIT %:    18.5594  MISS %:    81.4406   MPKI: 2.62695
L2C LOAD      SPEC        ACCESS:   16944733  HIT:    3409184  MISS:   13535549  HIT %:    20.1194  MISS %:    79.8806   MPKI: 67.6777
L2C RFO       NON_SPEC    ACCESS:      29335  HIT:        723  MISS:      28612  HIT %:    2.46463  MISS %:    97.5354   MPKI: 0.14306
L2C PREFETCH  NON_SPEC    ACCESS:   12158809  HIT:     919241  MISS:   11239568  HIT %:    7.56029  MISS %:    92.4397   MPKI: 56.1978
L2C WRITEBACK NON_SPEC    ACCESS:     248230  HIT:     246642  MISS:       1588  HIT %:    99.3603  MISS %:   0.639729   MPKI: 0.00794
L2C CLEAN_EVICTION NON_SPEC    ACCESS:   16744261  HIT:    3208242  MISS:   13536019  HIT %:    19.1602  MISS %:    80.8398   MPKI: 67.6801
L2C COMMIT LOAD NON_SPEC    ACCESS:     252109  HIT:     107908  MISS:     144201  HIT %:    42.8021  MISS %:    57.1979   MPKI: 0.721005
L2C LOAD TRANSLATION NON_SPEC    ACCESS:   15050334  HIT:   14763985  MISS:     286349  HIT %:    98.0974  MISS %:    1.90261   MPKI: 1.43174
L2C PREFETCH  REQUESTED:   12347807  ISSUED:   12347807  USEFUL:    1226585  USELESS:   10013124
L2C USEFUL LOAD PREFETCHES:    1226585 PREFETCH ISSUED TO LOWER LEVEL:   11363713  ACCURACY: 10.7939
L2C TIMELY PREFETCHES:    1226585 LATE PREFETCHES: 124142 DROPPED PREFETCHES: 0
L2C COMMIT LATE PREFETCHES: 128097 NORMAL LATE: 130458 MISSED OPPORTUNITY: 33888 UNCOVERED: 13771481
L2C PREFETCHES SAME FILL-ORIGIN LEVEL: 11363713 DIFFERENT FILL-ORIGIN LEVEL: 0
L2C AVERAGE MISS LATENCY: 117.844 cycles
L2C AVERAGE MISS LATENCY LOAD: 139.439 cycles
L2C AVERAGE MISS LATENCY PREFETCH: 233.339 cycles
L2C AVERAGE MSHR OCCUPANCY: 3.08412
L2C MSHR FULL: 0.00684425
L2C RQ	ACCESS:   32921772	FORWARD:          0	MERGED:          0	TO_CACHE:   32921632
L2C WQ	ACCESS:   16992498	FORWARD:        187	MERGED:          3	TO_CACHE:   16992495
L2C PQ	ACCESS:   12347807	FORWARD:          0	MERGED:          6	TO_CACHE:   12347754

L2C Instructions Evicting Data 0
L2C Translations Evicting Data 286074
L2C Data Evicting Data 11790181
L2C Instructions Evicting Instructions 0
L2C Translations Evicting Instructions 0
L2C Data Evicting Instructions 0
L2C Instructions Evicting Translations 0
L2C Translations Evicting Translations 275
L2C Data Evicting Translations 147591
L2C Dense regions hint from L2: 0
PSCL5 SPEC fills:          0  NON-SPEC fills:          0
PSCL5 Test counter :          0
PSCL5 Leapfrog:          0
PSCL5 MSHR merge:          0
PSCL5 TOTAL     ACCESS:          0  HIT:          0  MISS:          0  HIT %:       -nan  MISS %:       -nan   MPKI: 0
PSCL5 PREFETCH  REQUESTED:          0  ISSUED:          0  USEFUL:          0  USELESS:          0
PSCL5 USEFUL LOAD PREFETCHES:          0 PREFETCH ISSUED TO LOWER LEVEL:          0  ACCURACY: -nan
PSCL5 TIMELY PREFETCHES:          0 LATE PREFETCHES: 0 DROPPED PREFETCHES: 0
PSCL5 COMMIT LATE PREFETCHES: 0 NORMAL LATE: 0 MISSED OPPORTUNITY: 0 UNCOVERED: 0
PSCL5 PREFETCHES SAME FILL-ORIGIN LEVEL: 0 DIFFERENT FILL-ORIGIN LEVEL: 0

PSCL4 SPEC fills:          0  NON-SPEC fills:          0
PSCL4 Test counter :          0
PSCL4 Leapfrog:          0
PSCL4 MSHR merge:          0
PSCL4 TOTAL     ACCESS:          0  HIT:          0  MISS:          0  HIT %:       -nan  MISS %:       -nan   MPKI: 0
PSCL4 PREFETCH  REQUESTED:          0  ISSUED:          0  USEFUL:          0  USELESS:          0
PSCL4 USEFUL LOAD PREFETCHES:          0 PREFETCH ISSUED TO LOWER LEVEL:          0  ACCURACY: -nan
PSCL4 TIMELY PREFETCHES:          0 LATE PREFETCHES: 0 DROPPED PREFETCHES: 0
PSCL4 COMMIT LATE PREFETCHES: 0 NORMAL LATE: 0 MISSED OPPORTUNITY: 0 UNCOVERED: 0
PSCL4 PREFETCHES SAME FILL-ORIGIN LEVEL: 0 DIFFERENT FILL-ORIGIN LEVEL: 0

PSCL3 SPEC fills:          0  NON-SPEC fills:          0
PSCL3 Test counter :          0
PSCL3 Leapfrog:          0
PSCL3 MSHR merge:          0
PSCL3 TOTAL     ACCESS:          0  HIT:          0  MISS:          0  HIT %:       -nan  MISS %:       -nan   MPKI: 0
PSCL3 PREFETCH  REQUESTED:          0  ISSUED:          0  USEFUL:          0  USELESS:          0
PSCL3 USEFUL LOAD PREFETCHES:          0 PREFETCH ISSUED TO LOWER LEVEL:          0  ACCURACY: -nan
PSCL3 TIMELY PREFETCHES:          0 LATE PREFETCHES: 0 DROPPED PREFETCHES: 0
PSCL3 COMMIT LATE PREFETCHES: 0 NORMAL LATE: 0 MISSED OPPORTUNITY: 0 UNCOVERED: 0
PSCL3 PREFETCHES SAME FILL-ORIGIN LEVEL: 0 DIFFERENT FILL-ORIGIN LEVEL: 0

PSCL2 SPEC fills:          0  NON-SPEC fills:          0
PSCL2 Test counter :          0
PSCL2 Leapfrog:          0
PSCL2 MSHR merge:          0
PSCL2 TOTAL     ACCESS:          0  HIT:          0  MISS:          0  HIT %:       -nan  MISS %:       -nan   MPKI: 0
PSCL2 PREFETCH  REQUESTED:          0  ISSUED:          0  USEFUL:          0  USELESS:          0
PSCL2 USEFUL LOAD PREFETCHES:          0 PREFETCH ISSUED TO LOWER LEVEL:          0  ACCURACY: -nan
PSCL2 TIMELY PREFETCHES:          0 LATE PREFETCHES: 0 DROPPED PREFETCHES: 0
PSCL2 COMMIT LATE PREFETCHES: 0 NORMAL LATE: 0 MISSED OPPORTUNITY: 0 UNCOVERED: 0
PSCL2 PREFETCHES SAME FILL-ORIGIN LEVEL: 0 DIFFERENT FILL-ORIGIN LEVEL: 0

LLC SPEC fills:          0  NON-SPEC fills:     340170
LLC Test counter :          0
LLC Leapfrog:          0
LLC MSHR merge:          0
LLC TOTAL     ACCESS:   40869248  HIT:   14656328  MISS:   26212920  HIT %:    35.8615  MISS %:    64.1385   MPKI: 131.065
LLC LOAD      TOTAL       ACCESS:   13939732  HIT:    5512714  MISS:    8427018  HIT %:    39.5468  MISS %:    60.4532   MPKI: 42.1351
LLC LOAD      NON_SPEC    ACCESS:     519393  HIT:     179223  MISS:     340170  HIT %:    34.5062  MISS %:    65.4938   MPKI: 1.70085
LLC LOAD      SPEC        ACCESS:   13420339  HIT:    5333491  MISS:    8086848  HIT %:    39.7419  MISS %:    60.2581   MPKI: 40.4342
LLC RFO       NON_SPEC    ACCESS:      28612  HIT:        374  MISS:      28238  HIT %:    1.30714  MISS %:    98.6929   MPKI: 0.14119
LLC PREFETCH  NON_SPEC    ACCESS:   11363618  HIT:    2607677  MISS:    8755941  HIT %:    22.9476  MISS %:    77.0524   MPKI: 43.7797
LLC WRITEBACK NON_SPEC    ACCESS:     242054  HIT:     242046  MISS:          8  HIT %:    99.9967  MISS %: 0.00330505   MPKI: 4e-05
LLC CLEAN_EVICTION NON_SPEC    ACCESS:   14867711  HIT:    5959900  MISS:    8907811  HIT %:    40.0862  MISS %:    59.9138   MPKI: 44.5391
LLC COMMIT LOAD NON_SPEC    ACCESS:     141172  HIT:     113287  MISS:      27885  HIT %:    80.2475  MISS %:    19.7525   MPKI: 0.139425
LLC LOAD TRANSLATION NON_SPEC    ACCESS:     286349  HIT:     220330  MISS:      66019  HIT %:    76.9446  MISS %:    23.0554   MPKI: 0.330095
LLC PREFETCH  REQUESTED:          0  ISSUED:          0  USEFUL:     645661  USELESS:    8113181
LLC USEFUL LOAD PREFETCHES:     645661 PREFETCH ISSUED TO LOWER LEVEL:    8755941  ACCURACY: 7.37398
LLC TIMELY PREFETCHES:     645661 LATE PREFETCHES: 0 DROPPED PREFETCHES: 0
LLC COMMIT LATE PREFETCHES: 0 NORMAL LATE: 0 MISSED OPPORTUNITY: 0 UNCOVERED: 0
LLC PREFETCHES SAME FILL-ORIGIN LEVEL: 0 DIFFERENT FILL-ORIGIN LEVEL: 0
LLC AVERAGE MISS LATENCY: 152.272 cycles
LLC AVERAGE MISS LATENCY LOAD: 194.3 cycles
LLC AVERAGE MISS LATENCY PREFETCH: 265.053 cycles
LLC AVERAGE MSHR OCCUPANCY: 2.41577
LLC MSHR FULL: 0
LLC RQ	ACCESS:   14395959	FORWARD:          0	MERGED:          0	TO_CACHE:   14395864
LLC WQ	ACCESS:   15109765	FORWARD:        187	MERGED:          0	TO_CACHE:   15109765
LLC PQ	ACCESS:   11363713	FORWARD:          0	MERGED:          0	TO_CACHE:   11363621

LLC Dense regions hint to LLC: 0

RAW hits: 275716
Loads Generated: 52498946
Loads sent to L1D: 52223230
Stores Generated: 9121059
Stores sent to L1D: 9121061
Major fault: 0 Minor fault: 33138
Allocated PAGES: 33138
Total Load insts: 64354239
Total Non-spec loads: 4462317
Percentage of speculative loads: 93.066

LeapFrogging counter: 288313
Commit hits: 33925153 miss: 14125386
Commit hit %: 70.6031 miss %: 29.3969
Commits not translated: 0
Loads retired: 17589889
Stores retired: 9121061
Cache fills: 17589889
L1D response latency: 122.701 cycles
Load retirement latency: 249.75 cycles
OOO test counter: 0
Discarded buffer inserts: 33925153 hits: 17400 hit %: 0.0512894
Filter prediction accuracy: -nan
[Bingo] PHT Access: 11537205
[Bingo] PHT Hit PC+Addr: 364048
[Bingo] PHT Hit PC+Offs: 11170694
[Bingo] PHT Miss: 2463
[Bingo] Prefetch PC+Addr: 0
[Bingo] Prefetch PC+Offs: 0
[Bingo] Useful PC+Addr: 0
[Bingo] Useful PC+Offs: 0
[Bingo] Useless PC+Addr: 0
[Bingo] Useless PC+Offs: 0
[Bingo] L1 Prefetch per Region: 0
[Bingo] L2 Prefetch per Region: 1.97597
[Bingo] L3 Prefetch per Region: 0
[Bingo] No Prefetch per Region: 30.024
[Bingo] Number of Voters Mean: 15.9847
[Bingo] Number of Voters SD: 6.43745
PHT read accesses: 181738000
PHT write accesses: 3102257
AT read accesses: 7263326
AT write accesses: 9147605
FT read accesses: 9807078
FT write accesses: 11537205
PS read accesses: 23072284
PS write accesses: 11534742
PHT tag read accesses: 279913914
PHT tag write accesses: 3466305
AT tag read accesses: 1198512870
AT tag write accesses: 10365562
FT tag read accesses: 1403536103
FT tag write accesses: 18234767
PS tag read accesses: 669765785
PS tag write accesses: 34600173
[Bingo] PHT Access: 11496649
[Bingo] PHT Hit PC+Addr: 402969
[Bingo] PHT Hit PC+Offs: 11090703
[Bingo] PHT Miss: 2977
[Bingo] Prefetch PC+Addr: 0
[Bingo] Prefetch PC+Offs: 0
[Bingo] Useful PC+Addr: 0
[Bingo] Useful PC+Offs: 0
[Bingo] Useless PC+Addr: 0
[Bingo] Useless PC+Offs: 0
[Bingo] L1 Prefetch per Region: 0
[Bingo] L2 Prefetch per Region: 2.08072
[Bingo] L3 Prefetch per Region: 0
[Bingo] No Prefetch per Region: 29.9193
[Bingo] Number of Voters Mean: 15.8728
[Bingo] Number of Voters SD: 6.44884
PHT read accesses: 179487195
PHT write accesses: 3051377
AT read accesses: 37422820
AT write accesses: 39723939
FT read accesses: 18135177
FT write accesses: 11496649
PS read accesses: 23122519
PS write accesses: 11493672
PHT tag read accesses: 277213680
PHT tag write accesses: 3454346
AT tag read accesses: 1392957748
AT tag write accesses: 40474192
FT tag read accesses: 1105345764
FT tag write accesses: 22250697
PS tag read accesses: 1249347181
PS tag write accesses: 34596364

DRAM Statistics
 CHANNEL 0
 RQ ROW_BUFFER_HIT:    2921230  ROW_BUFFER_MISS:   14375157
 DBUS_CONGESTED:       6836
 WQ ROW_BUFFER_HIT:    3400999  ROW_BUFFER_MISS:    7393331  FULL:     194340

 AVG_CONGESTED_CYCLE: 5
 All warmup complete: 2
Channel 0 Bank busy for read cycles: 0
Channel 0 Bank busy for write cycles: 0
Channel 0
Rank 0
0banks busy for read cycles: 4034101
0banks busy for write cycles: 580
1banks busy for read cycles: 345645712
1banks busy for write cycles: 3389701
2banks busy for read cycles: 318469561
2banks busy for write cycles: 3418164
3banks busy for read cycles: 177093413
3banks busy for write cycles: 3616825
4banks busy for read cycles: 84239955
4banks busy for write cycles: 4977940
5banks busy for read cycles: 36596040
5banks busy for write cycles: 12830484
6banks busy for read cycles: 16117425
6banks busy for write cycles: 45946625
7banks busy for read cycles: 10633621
7banks busy for write cycles: 125257716
8banks busy for read cycles: 17687982
8banks busy for write cycles: 182054169

CPU 0 Branch Prediction Accuracy: 88.9318% MPKI: 21.5679 Average ROB Occupancy at Mispredict: 32.8865
Branch types
NOT_BRANCH: 161026986 80.5135%
BRANCH_DIRECT_JUMP: 251798 0.125899%
BRANCH_INDIRECT: 0 0%
BRANCH_CONDITIONAL: 38720835 19.3604%
BRANCH_DIRECT_CALL: 14 7e-06%
BRANCH_INDIRECT_CALL: 0 0%
BRANCH_RETURN: 14 7e-06%
BRANCH_OTHER: 0 0%

DRAM PAGES: 1048576
Allocated PAGES: 33138
