
*** ChampSim Multicore Out-of-Order Simulator ***

Warmup Instructions: 50000000
Simulation Instructions: 200000000
Number of CPUs: 1
LLC sets: 2048
LLC ways: 16
L0D sets: 16
L0D ways: 2
ROB size: 352
LQ size: 128
SQ size: 72
Secure Berti: OFF
Berti: OFF
Berti Fill: OFF
On commit prefetching: ON
Hit-based filter: OFF
Time-guarding: ON
Free-slotting: ON
Leap-frogging: ON
Train prefetcher on L0D bypass: OFF
No translation penalty for prefetchers: OFF
Prefetch to L0D only: OFF
Prefetch to L1D only: OFF
Clean evictions: ON
Commit loads: ON
Commit write: ON
Fill commit loads to L2C, LLC: ON
DRAM IO FREQUENCY: 6400
ROB SIZE: 352
Off-chip DRAM Size: 4096 MB Channels: 1 Width: 64-bit Data Rate: 6400 MT/s
CPU 0 runs /home/sumon/secure_berti/GhostMinion/../../traces/gap/cc-14.trace.gz
.gz
BTB has LRU replacement policy
ITLB has LRU replacement policy
DTLB has LRU replacement policy
STLB has LRU replacement policy
L1I has LRU replacement policy
L0D has LRU replacement policy
Bingo PHT WAYS: 16 and PHT_SIZE: 16384
L1D has LRU replacement policy
Bingo PHT WAYS: 16 and PHT_SIZE: 16384
L2C has LRU replacement policy
LLC has LRU replacement policy
Heartbeat CPU 0 instructions: 10000003 cycles: 3228225 heartbeat IPC: 3.09768 cumulative IPC: 3.09768 (Simulation time: 0 hr 3 min 47 sec) 
Heartbeat CPU 0 instructions: 20000001 cycles: 6461590 heartbeat IPC: 3.09275 cumulative IPC: 3.09521 (Simulation time: 0 hr 8 min 31 sec) 
Heartbeat CPU 0 instructions: 30000002 cycles: 9703054 heartbeat IPC: 3.08503 cumulative IPC: 3.09181 (Simulation time: 0 hr 13 min 26 sec) 
Heartbeat CPU 0 instructions: 40000001 cycles: 12939644 heartbeat IPC: 3.08967 cumulative IPC: 3.09128 (Simulation time: 0 hr 18 min 13 sec) 
Heartbeat CPU 0 instructions: 50000002 cycles: 16179549 heartbeat IPC: 3.08651 cumulative IPC: 3.09032 (Simulation time: 0 hr 23 min 5 sec) 

Warmup complete CPU 0 instructions: 50000002 cycles: 16179549 (Simulation time: 0 hr 23 min 5 sec) 

Heartbeat CPU 0 instructions: 60000002 cycles: 58533388 heartbeat IPC: 0.236106 cumulative IPC: 0.236106 (Simulation time: 0 hr 28 min 35 sec) 
Heartbeat CPU 0 instructions: 70000000 cycles: 100624092 heartbeat IPC: 0.237582 cumulative IPC: 0.236842 (Simulation time: 0 hr 34 min 7 sec) 
Heartbeat CPU 0 instructions: 80000001 cycles: 142813171 heartbeat IPC: 0.237028 cumulative IPC: 0.236904 (Simulation time: 0 hr 39 min 47 sec) 
Heartbeat CPU 0 instructions: 90000000 cycles: 184555903 heartbeat IPC: 0.239563 cumulative IPC: 0.237563 (Simulation time: 0 hr 45 min 17 sec) 
Heartbeat CPU 0 instructions: 100000001 cycles: 226168065 heartbeat IPC: 0.240314 cumulative IPC: 0.238108 (Simulation time: 0 hr 50 min 53 sec) 
Heartbeat CPU 0 instructions: 110000000 cycles: 268369327 heartbeat IPC: 0.23696 cumulative IPC: 0.237916 (Simulation time: 0 hr 56 min 28 sec) 
Heartbeat CPU 0 instructions: 120000000 cycles: 310788379 heartbeat IPC: 0.235743 cumulative IPC: 0.237603 (Simulation time: 1 hr 2 min 1 sec) 
Heartbeat CPU 0 instructions: 130000003 cycles: 352758676 heartbeat IPC: 0.238264 cumulative IPC: 0.237686 (Simulation time: 1 hr 7 min 46 sec) 
Heartbeat CPU 0 instructions: 140000001 cycles: 394258054 heartbeat IPC: 0.240967 cumulative IPC: 0.238046 (Simulation time: 1 hr 13 min 26 sec) 
Heartbeat CPU 0 instructions: 150000001 cycles: 435858495 heartbeat IPC: 0.240382 cumulative IPC: 0.238277 (Simulation time: 1 hr 18 min 59 sec) 
Heartbeat CPU 0 instructions: 160000001 cycles: 477188968 heartbeat IPC: 0.241952 cumulative IPC: 0.238607 (Simulation time: 1 hr 24 min 41 sec) 
Heartbeat CPU 0 instructions: 170000003 cycles: 519176274 heartbeat IPC: 0.238167 cumulative IPC: 0.23857 (Simulation time: 1 hr 30 min 27 sec) 
Heartbeat CPU 0 instructions: 180000001 cycles: 561514174 heartbeat IPC: 0.236195 cumulative IPC: 0.238386 (Simulation time: 1 hr 36 min 0 sec) 
Heartbeat CPU 0 instructions: 190000000 cycles: 602699914 heartbeat IPC: 0.242802 cumulative IPC: 0.238696 (Simulation time: 1 hr 41 min 38 sec) 
Heartbeat CPU 0 instructions: 200000001 cycles: 644631911 heartbeat IPC: 0.238481 cumulative IPC: 0.238682 (Simulation time: 1 hr 47 min 18 sec) 
Heartbeat CPU 0 instructions: 210000000 cycles: 686576804 heartbeat IPC: 0.238408 cumulative IPC: 0.238664 (Simulation time: 1 hr 52 min 59 sec) 
Heartbeat CPU 0 instructions: 220000000 cycles: 728781711 heartbeat IPC: 0.236939 cumulative IPC: 0.238562 (Simulation time: 1 hr 58 min 30 sec) 
Heartbeat CPU 0 instructions: 230000000 cycles: 771290571 heartbeat IPC: 0.235245 cumulative IPC: 0.238376 (Simulation time: 2 hr 4 min 14 sec) 
Heartbeat CPU 0 instructions: 240000001 cycles: 812856036 heartbeat IPC: 0.240584 cumulative IPC: 0.238491 (Simulation time: 2 hr 9 min 55 sec) 
Heartbeat CPU 0 instructions: 250000002 cycles: 853648991 heartbeat IPC: 0.24514 cumulative IPC: 0.238815 (Simulation time: 2 hr 15 min 40 sec) 
Finished CPU 0 instructions: 200000000 cycles: 837469442 cumulative IPC: 0.238815 (Simulation time: 2 hr 15 min 40 sec) 
 Instruction ID: 250000145

ChampSim completed all CPUs

Region of Interest Statistics

CPU 0 cumulative IPC: 0.238815 instructions: 200000000 cycles: 837469442
ITLB SPEC fills:          0  NON-SPEC fills:          0
ITLB Test counter :          0
ITLB Leapfrog:          0
ITLB MSHR merge:          0
ITLB TOTAL     ACCESS:   30510692  HIT:   30510692  MISS:          0  HIT %:        100  MISS %:          0   MPKI: 0
ITLB LOAD TRANSLATION NON_SPEC    ACCESS:   30510692  HIT:   30510692  MISS:          0  HIT %:        100  MISS %:          0   MPKI: 0
ITLB PREFETCH  REQUESTED:          0  ISSUED:          0  USEFUL:          0  USELESS:          0
ITLB USEFUL LOAD PREFETCHES:          0 PREFETCH ISSUED TO LOWER LEVEL:          0  ACCURACY: -nan
ITLB TIMELY PREFETCHES:          0 LATE PREFETCHES: 0 DROPPED PREFETCHES: 0
ITLB COMMIT LATE PREFETCHES: 0 NORMAL LATE: 0 MISSED OPPORTUNITY: 0 UNCOVERED: 0
ITLB PREFETCHES SAME FILL-ORIGIN LEVEL: 0 DIFFERENT FILL-ORIGIN LEVEL: 0
ITLB AVERAGE MISS LATENCY: -nan cycles
ITLB AVERAGE MISS LATENCY LOAD: -nan cycles
ITLB AVERAGE MISS LATENCY PREFETCH: -nan cycles
ITLB AVERAGE MSHR OCCUPANCY: 0
ITLB MSHR FULL: 0
ITLB RQ	ACCESS:   31108177	FORWARD:          0	MERGED:     597486	TO_CACHE:   30510691

DTLB SPEC fills:          0  NON-SPEC fills:          0
DTLB Test counter :          0
DTLB Leapfrog:          0
DTLB MSHR merge:          0
DTLB TOTAL     ACCESS:   47453543  HIT:   37752972  MISS:    9700571  HIT %:    79.5578  MISS %:    20.4422   MPKI: 48.5029
DTLB LOAD TRANSLATION NON_SPEC    ACCESS:   47453543  HIT:   37752972  MISS:    9700571  HIT %:    79.5578  MISS %:    20.4422   MPKI: 48.5029
DTLB PREFETCH  REQUESTED:          0  ISSUED:          0  USEFUL:          0  USELESS:          0
DTLB USEFUL LOAD PREFETCHES:          0 PREFETCH ISSUED TO LOWER LEVEL:          0  ACCURACY: -nan
DTLB TIMELY PREFETCHES:          0 LATE PREFETCHES: 0 DROPPED PREFETCHES: 0
DTLB COMMIT LATE PREFETCHES: 0 NORMAL LATE: 0 MISSED OPPORTUNITY: 0 UNCOVERED: 0
DTLB PREFETCHES SAME FILL-ORIGIN LEVEL: 0 DIFFERENT FILL-ORIGIN LEVEL: 0
DTLB AVERAGE MISS LATENCY: 9.5388 cycles
DTLB AVERAGE MISS LATENCY LOAD: -nan cycles
DTLB AVERAGE MISS LATENCY PREFETCH: -nan cycles
DTLB AVERAGE MSHR OCCUPANCY: 0.341346
DTLB MSHR FULL: 0.00216178
DTLB RQ	ACCESS:   49683373	FORWARD:          0	MERGED:    1939920	TO_CACHE:   47743453

STLB SPEC fills:          0  NON-SPEC fills:          0
STLB Test counter :          0
STLB Leapfrog:          0
STLB MSHR merge:          0
STLB TOTAL     ACCESS:    9700570  HIT:    9685926  MISS:      14644  HIT %:     99.849  MISS %:    0.15096   MPKI: 0.07322
STLB LOAD TRANSLATION NON_SPEC    ACCESS:    9700570  HIT:    9685926  MISS:      14644  HIT %:     99.849  MISS %:    0.15096   MPKI: 0.07322
STLB PREFETCH  REQUESTED:          0  ISSUED:          0  USEFUL:          0  USELESS:          0
STLB USEFUL LOAD PREFETCHES:          0 PREFETCH ISSUED TO LOWER LEVEL:          0  ACCURACY: -nan
STLB TIMELY PREFETCHES:          0 LATE PREFETCHES: 0 DROPPED PREFETCHES: 0
STLB COMMIT LATE PREFETCHES: 0 NORMAL LATE: 0 MISSED OPPORTUNITY: 0 UNCOVERED: 0
STLB PREFETCHES SAME FILL-ORIGIN LEVEL: 0 DIFFERENT FILL-ORIGIN LEVEL: 0
STLB AVERAGE MISS LATENCY: 193.731 cycles
STLB AVERAGE MISS LATENCY LOAD: -nan cycles
STLB AVERAGE MISS LATENCY PREFETCH: -nan cycles
STLB AVERAGE MSHR OCCUPANCY: 0.00120807
STLB MSHR FULL: 0
STLB RQ	ACCESS:    9700571	FORWARD:          0	MERGED:          0	TO_CACHE:    9700571

STLB Hit, L1D data hit: 0
STLB Hit, L2C data hit: 0
STLB Hit, LLC data hit: 0
STLB Hit, LLC data miss: 0
STLB STLB hints to L2: 0
L0D SPEC fills:   24796923  NON-SPEC fills:          0
L0D TimeGuard Request with older TS:     656709 Restricted eviction:     262061 read:     601166
L0D Test counter :          0
L0D Leapfrog:          0
L0D MSHR merge:    1567793
L0D TOTAL     ACCESS:   47868071  HIT:   12448647  MISS:   35419424  HIT %:    26.0062  MISS %:    73.9938   MPKI: 177.097
L0D LOAD      TOTAL       ACCESS:   47868071  HIT:   12448647  MISS:   35419424  HIT %:    26.0062  MISS %:    73.9938   MPKI: 177.097
L0D LOAD      NON_SPEC    ACCESS:   11314055  HIT:     953615  MISS:   10360440  HIT %:    8.42859  MISS %:    91.5714   MPKI: 51.8022
L0D LOAD      SPEC        ACCESS:   36554016  HIT:   11495032  MISS:   25058984  HIT %:    31.4467  MISS %:    68.5533   MPKI: 125.295
L0D PREFETCH  REQUESTED:          0  ISSUED:          0  USEFUL:          0  USELESS:          0
L0D USEFUL LOAD PREFETCHES:          0 PREFETCH ISSUED TO LOWER LEVEL:          0  ACCURACY: -nan
L0D TIMELY PREFETCHES:          0 LATE PREFETCHES: 0 DROPPED PREFETCHES: 0
L0D COMMIT LATE PREFETCHES: 0 NORMAL LATE: 0 MISSED OPPORTUNITY: 0 UNCOVERED: 0
L0D PREFETCHES SAME FILL-ORIGIN LEVEL: 0 DIFFERENT FILL-ORIGIN LEVEL: 0
L0D AVERAGE MISS LATENCY: 36.621 cycles
L0D AVERAGE MISS LATENCY LOAD: 36.621 cycles
L0D AVERAGE MISS LATENCY PREFETCH: -nan cycles
L0D AVERAGE MSHR OCCUPANCY: 2.06387
L0D MSHR FULL: 0.0449377
L0D RQ	ACCESS:   55035494	FORWARD:          0	MERGED:    5599627	TO_CACHE:   49435867
L0D WQ	ACCESS:     247506	FORWARD:          0	MERGED:          0	TO_CACHE:     247506

L1D SPEC fills:          0  NON-SPEC fills:    3525985
L1D Test counter :          0
L1D Leapfrog:          0
L1D MSHR merge:       7218
L1D TOTAL     ACCESS:   71928784  HIT:   45606784  MISS:   26322000  HIT %:    63.4055  MISS %:    36.5945   MPKI: 131.61
L1D LOAD      TOTAL       ACCESS:   35412206  HIT:   20453080  MISS:   14959126  HIT %:    57.7571  MISS %:    42.2429   MPKI: 74.7956
L1D LOAD      NON_SPEC    ACCESS:   10359859  HIT:    6833874  MISS:    3525985  HIT %:    65.9649  MISS %:    34.0351   MPKI: 17.6299
L1D LOAD      SPEC        ACCESS:   25052347  HIT:   13619206  MISS:   11433141  HIT %:     54.363  MISS %:     45.637   MPKI: 57.1657
L1D RFO       NON_SPEC    ACCESS:     246029  HIT:     246029  MISS:          0  HIT %:        100  MISS %:          0   MPKI: 0
L1D COMMIT LOAD NON_SPEC    ACCESS:   12235110  HIT:   11969124  MISS:     265986  HIT %:     97.826  MISS %:    2.17396   MPKI: 1.32993
L1D COMMIT WRITE NON_SPEC    ACCESS:   24035439  HIT:   12938551  MISS:   11096888  HIT %:    53.8311  MISS %:    46.1689   MPKI: 55.4844
L1D PREFETCH  REQUESTED:          0  ISSUED:          0  USEFUL:          0  USELESS:          0
L1D USEFUL LOAD PREFETCHES:          0 PREFETCH ISSUED TO LOWER LEVEL:          0  ACCURACY: -nan
L1D TIMELY PREFETCHES:          0 LATE PREFETCHES: 0 DROPPED PREFETCHES: 0
L1D COMMIT LATE PREFETCHES: 0 NORMAL LATE: 0 MISSED OPPORTUNITY: 0 UNCOVERED: 14968922
L1D PREFETCHES SAME FILL-ORIGIN LEVEL: 0 DIFFERENT FILL-ORIGIN LEVEL: 0
L1D AVERAGE MISS LATENCY: 42.7987 cycles
L1D AVERAGE MISS LATENCY LOAD: 74.5082 cycles
L1D AVERAGE MISS LATENCY PREFETCH: -nan cycles
L1D AVERAGE MSHR OCCUPANCY: 1.24101
L1D MSHR FULL: 0
L1D RQ	ACCESS:   54747694	FORWARD:          0	MERGED:    5160444	TO_CACHE:   47674596
L1D WQ	ACCESS:   24509858	FORWARD:    1912654	MERGED:     226955	TO_CACHE:   24282903

L1D UNIQUE REGIONS ACCESSED: 0
L1D REGIONS CONFLICTS: 0
L1D Cross Page Prefetch Requests: 0
L1D Same Page Prefetch Requests: 0
L1D ROI Sum of L1D PQ occupancy: 0
L1D PREFETCHES PUSHED FROM L2C: 0
L1I SPEC fills:          0  NON-SPEC fills:          0
L1I Test counter :          0
L1I Leapfrog:          0
L1I MSHR merge:          0
L1I TOTAL     ACCESS:   31108178  HIT:   31108178  MISS:          0  HIT %:        100  MISS %:          0   MPKI: 0
L1I LOAD      TOTAL       ACCESS:   31108178  HIT:   31108178  MISS:          0  HIT %:        100  MISS %:          0   MPKI: 0
L1I LOAD      NON_SPEC    ACCESS:   31108178  HIT:   31108178  MISS:          0  HIT %:        100  MISS %:          0   MPKI: 0
L1I PREFETCH  REQUESTED:          0  ISSUED:          0  USEFUL:          0  USELESS:          0
L1I USEFUL LOAD PREFETCHES:          0 PREFETCH ISSUED TO LOWER LEVEL:          0  ACCURACY: -nan
L1I TIMELY PREFETCHES:          0 LATE PREFETCHES: 0 DROPPED PREFETCHES: 0
L1I COMMIT LATE PREFETCHES: 0 NORMAL LATE: 0 MISSED OPPORTUNITY: 0 UNCOVERED: 0
L1I PREFETCHES SAME FILL-ORIGIN LEVEL: 0 DIFFERENT FILL-ORIGIN LEVEL: 0
L1I AVERAGE MISS LATENCY: -nan cycles
L1I AVERAGE MISS LATENCY LOAD: -nan cycles
L1I AVERAGE MISS LATENCY PREFETCH: -nan cycles
L1I AVERAGE MSHR OCCUPANCY: 0
L1I MSHR FULL: 0
L1I RQ	ACCESS:   55776637	FORWARD:          0	MERGED:   24668460	TO_CACHE:   31108177

BTB SPEC fills:          0  NON-SPEC fills:          0
BTB Test counter :          0
BTB Leapfrog:          0
BTB MSHR merge:          0
BTB TOTAL     ACCESS:   40353859  HIT:   40353854  MISS:          5  HIT %:        100  MISS %: 1.23904e-05   MPKI: 2.5e-05
BTB BRANCH_DIRECT_JUMP	ACCESS:          0  HIT:          0  MISS:          0
BTB BRANCH_INDIRECT	ACCESS:          0  HIT:          0  MISS:          0
BTB BRANCH_CONDITIONAL	ACCESS:   40353859  HIT:   40353854  MISS:          5
BTB BRANCH_DIRECT_CALL	ACCESS:          0  HIT:          0  MISS:          0
BTB BRANCH_INDIRECT_CALL	ACCESS:          0  HIT:          0  MISS:          0
BTB BRANCH_RETURN	ACCESS:          0  HIT:          0  MISS:          0
BTB BRANCH_OTHER ACCESS:          0  HIT:          0  MISS:          0

L2C SPEC fills:          0  NON-SPEC fills:    2262292
L2C Test counter :          0
L2C Leapfrog:          0
L2C MSHR merge:      84117
L2C TOTAL     ACCESS:   37928572  HIT:   11879988  MISS:   26048584  HIT %:     31.322  MISS %:     68.678   MPKI: 130.243
L2C LOAD      TOTAL       ACCESS:   14958940  HIT:    5139331  MISS:    9819609  HIT %:    34.3563  MISS %:    65.6437   MPKI: 49.098
L2C LOAD      NON_SPEC    ACCESS:    3525954  HIT:    1263662  MISS:    2262292  HIT %:    35.8389  MISS %:    64.1611   MPKI: 11.3115
L2C LOAD      SPEC        ACCESS:   11432986  HIT:    3875669  MISS:    7557317  HIT %:     33.899  MISS %:     66.101   MPKI: 37.7866
L2C PREFETCH  NON_SPEC    ACCESS:   11155441  HIT:    2594978  MISS:    8560463  HIT %:     23.262  MISS %:     76.738   MPKI: 42.8023
L2C WRITEBACK NON_SPEC    ACCESS:      37900  HIT:      37822  MISS:         78  HIT %:    99.7942  MISS %:   0.205805   MPKI: 0.00039
L2C CLEAN_EVICTION NON_SPEC    ACCESS:   11437263  HIT:    3919564  MISS:    7517699  HIT %:    34.2701  MISS %:    65.7299   MPKI: 37.5885
L2C COMMIT LOAD NON_SPEC    ACCESS:     265837  HIT:     120102  MISS:     145735  HIT %:    45.1788  MISS %:    54.8212   MPKI: 0.728675
L2C LOAD TRANSLATION NON_SPEC    ACCESS:      73191  HIT:      68191  MISS:       5000  HIT %:    93.1686  MISS %:    6.83144   MPKI: 0.025
L2C PREFETCH  REQUESTED:   11294855  ISSUED:   11294855  USEFUL:    1346818  USELESS:    7213836
L2C USEFUL LOAD PREFETCHES:    1346818 PREFETCH ISSUED TO LOWER LEVEL:    8647130  ACCURACY: 15.5753
L2C TIMELY PREFETCHES:    1346818 LATE PREFETCHES: 86666 DROPPED PREFETCHES: 0
L2C COMMIT LATE PREFETCHES: 97171 NORMAL LATE: 95208 MISSED OPPORTUNITY: 41861 UNCOVERED: 9587919
L2C PREFETCHES SAME FILL-ORIGIN LEVEL: 8647130 DIFFERENT FILL-ORIGIN LEVEL: 0
L2C AVERAGE MISS LATENCY: 90.2055 cycles
L2C AVERAGE MISS LATENCY LOAD: 95.0382 cycles
L2C AVERAGE MISS LATENCY PREFETCH: 164.469 cycles
L2C AVERAGE MSHR OCCUPANCY: 4.07138
L2C MSHR FULL: 0.02615
L2C RQ	ACCESS:   15298306	FORWARD:          0	MERGED:          0	TO_CACHE:   15297971
L2C WQ	ACCESS:   11475180	FORWARD:        461	MERGED:         16	TO_CACHE:   11475164
L2C PQ	ACCESS:   11294855	FORWARD:          0	MERGED:         92	TO_CACHE:   11294637

L2C Instructions Evicting Data 0
L2C Translations Evicting Data 4999
L2C Data Evicting Data 10965921
L2C Instructions Evicting Instructions 0
L2C Translations Evicting Instructions 0
L2C Data Evicting Instructions 0
L2C Instructions Evicting Translations 0
L2C Translations Evicting Translations 1
L2C Data Evicting Translations 2569
L2C Dense regions hint from L2: 0
PSCL5 SPEC fills:          0  NON-SPEC fills:          0
PSCL5 Test counter :          0
PSCL5 Leapfrog:          0
PSCL5 MSHR merge:          0
PSCL5 TOTAL     ACCESS:          0  HIT:          0  MISS:          0  HIT %:       -nan  MISS %:       -nan   MPKI: 0
PSCL5 PREFETCH  REQUESTED:          0  ISSUED:          0  USEFUL:          0  USELESS:          0
PSCL5 USEFUL LOAD PREFETCHES:          0 PREFETCH ISSUED TO LOWER LEVEL:          0  ACCURACY: -nan
PSCL5 TIMELY PREFETCHES:          0 LATE PREFETCHES: 0 DROPPED PREFETCHES: 0
PSCL5 COMMIT LATE PREFETCHES: 0 NORMAL LATE: 0 MISSED OPPORTUNITY: 0 UNCOVERED: 0
PSCL5 PREFETCHES SAME FILL-ORIGIN LEVEL: 0 DIFFERENT FILL-ORIGIN LEVEL: 0

PSCL4 SPEC fills:          0  NON-SPEC fills:          0
PSCL4 Test counter :          0
PSCL4 Leapfrog:          0
PSCL4 MSHR merge:          0
PSCL4 TOTAL     ACCESS:          0  HIT:          0  MISS:          0  HIT %:       -nan  MISS %:       -nan   MPKI: 0
PSCL4 PREFETCH  REQUESTED:          0  ISSUED:          0  USEFUL:          0  USELESS:          0
PSCL4 USEFUL LOAD PREFETCHES:          0 PREFETCH ISSUED TO LOWER LEVEL:          0  ACCURACY: -nan
PSCL4 TIMELY PREFETCHES:          0 LATE PREFETCHES: 0 DROPPED PREFETCHES: 0
PSCL4 COMMIT LATE PREFETCHES: 0 NORMAL LATE: 0 MISSED OPPORTUNITY: 0 UNCOVERED: 0
PSCL4 PREFETCHES SAME FILL-ORIGIN LEVEL: 0 DIFFERENT FILL-ORIGIN LEVEL: 0

PSCL3 SPEC fills:          0  NON-SPEC fills:          0
PSCL3 Test counter :          0
PSCL3 Leapfrog:          0
PSCL3 MSHR merge:          0
PSCL3 TOTAL     ACCESS:          0  HIT:          0  MISS:          0  HIT %:       -nan  MISS %:       -nan   MPKI: 0
PSCL3 PREFETCH  REQUESTED:          0  ISSUED:          0  USEFUL:          0  USELESS:          0
PSCL3 USEFUL LOAD PREFETCHES:          0 PREFETCH ISSUED TO LOWER LEVEL:          0  ACCURACY: -nan
PSCL3 TIMELY PREFETCHES:          0 LATE PREFETCHES: 0 DROPPED PREFETCHES: 0
PSCL3 COMMIT LATE PREFETCHES: 0 NORMAL LATE: 0 MISSED OPPORTUNITY: 0 UNCOVERED: 0
PSCL3 PREFETCHES SAME FILL-ORIGIN LEVEL: 0 DIFFERENT FILL-ORIGIN LEVEL: 0

PSCL2 SPEC fills:          0  NON-SPEC fills:          0
PSCL2 Test counter :          0
PSCL2 Leapfrog:          0
PSCL2 MSHR merge:          0
PSCL2 TOTAL     ACCESS:          0  HIT:          0  MISS:          0  HIT %:       -nan  MISS %:       -nan   MPKI: 0
PSCL2 PREFETCH  REQUESTED:          0  ISSUED:          0  USEFUL:          0  USELESS:          0
PSCL2 USEFUL LOAD PREFETCHES:          0 PREFETCH ISSUED TO LOWER LEVEL:          0  ACCURACY: -nan
PSCL2 TIMELY PREFETCHES:          0 LATE PREFETCHES: 0 DROPPED PREFETCHES: 0
PSCL2 COMMIT LATE PREFETCHES: 0 NORMAL LATE: 0 MISSED OPPORTUNITY: 0 UNCOVERED: 0
PSCL2 PREFETCHES SAME FILL-ORIGIN LEVEL: 0 DIFFERENT FILL-ORIGIN LEVEL: 0

LLC SPEC fills:          0  NON-SPEC fills:     858185
LLC Test counter :          0
LLC Leapfrog:          0
LLC MSHR merge:          0
LLC TOTAL     ACCESS:   27716600  HIT:   15285225  MISS:   12431375  HIT %:    55.1483  MISS %:    44.8517   MPKI: 62.1569
LLC LOAD      TOTAL       ACCESS:    9735376  HIT:    5941635  MISS:    3793741  HIT %:    61.0314  MISS %:    38.9686   MPKI: 18.9687
LLC LOAD      NON_SPEC    ACCESS:    2244517  HIT:    1386332  MISS:     858185  HIT %:    61.7653  MISS %:    38.2347   MPKI: 4.29092
LLC LOAD      SPEC        ACCESS:    7490859  HIT:    4555303  MISS:    2935556  HIT %:    60.8115  MISS %:    39.1885   MPKI: 14.6778
LLC PREFETCH  NON_SPEC    ACCESS:    8646889  HIT:    3449918  MISS:    5196971  HIT %:    39.8978  MISS %:    60.1022   MPKI: 25.9849
LLC WRITEBACK NON_SPEC    ACCESS:      35606  HIT:      35598  MISS:          8  HIT %:    99.9775  MISS %:  0.0224681   MPKI: 4e-05
LLC CLEAN_EVICTION NON_SPEC    ACCESS:    9150574  HIT:    5730966  MISS:    3419608  HIT %:    62.6296  MISS %:    37.3704   MPKI: 17.098
LLC COMMIT LOAD NON_SPEC    ACCESS:     143155  HIT:     124203  MISS:      18952  HIT %:    86.7612  MISS %:    13.2388   MPKI: 0.09476
LLC LOAD TRANSLATION NON_SPEC    ACCESS:       5000  HIT:       2905  MISS:       2095  HIT %:       58.1  MISS %:       41.9   MPKI: 0.010475
LLC PREFETCH  REQUESTED:          0  ISSUED:          0  USEFUL:     711947  USELESS:    4487741
LLC USEFUL LOAD PREFETCHES:     711947 PREFETCH ISSUED TO LOWER LEVEL:    5196972  ACCURACY: 13.6993
LLC TIMELY PREFETCHES:     711947 LATE PREFETCHES: 0 DROPPED PREFETCHES: 0
LLC COMMIT LATE PREFETCHES: 0 NORMAL LATE: 0 MISSED OPPORTUNITY: 0 UNCOVERED: 0
LLC PREFETCHES SAME FILL-ORIGIN LEVEL: 0 DIFFERENT FILL-ORIGIN LEVEL: 0
LLC AVERAGE MISS LATENCY: 150.181 cycles
LLC AVERAGE MISS LATENCY LOAD: 181.394 cycles
LLC AVERAGE MISS LATENCY PREFETCH: 226.087 cycles
LLC AVERAGE MSHR OCCUPANCY: 2.40678
LLC MSHR FULL: 0
LLC RQ	ACCESS:    9883679	FORWARD:          0	MERGED:          0	TO_CACHE:    9883532
LLC WQ	ACCESS:    9186181	FORWARD:        387	MERGED:          0	TO_CACHE:    9186181
LLC PQ	ACCESS:    8647130	FORWARD:          0	MERGED:          0	TO_CACHE:    8646890

LLC Dense regions hint to LLC: 0

RAW hits: 26536
Loads Generated: 55062030
Loads sent to L1D: 55035494
Stores Generated: 247506
Stores sent to L1D: 247506
Major fault: 0 Minor fault: 19168
Allocated PAGES: 19168
Total Load insts: 67812894
Total Non-spec loads: 11786660
Percentage of speculative loads: 82.6189

LeapFrogging counter: 792014
Commit hits: 24262352 miss: 19328266
Commit hit %: 55.6596 miss %: 44.3404
Commits not translated: 0
Loads retired: 14959124
Stores retired: 247506
Cache fills: 14959126
L1D response latency: 74.5082 cycles
Load retirement latency: 169.095 cycles
OOO test counter: 0
Discarded buffer inserts: 24262352 hits: 54067 hit %: 0.222843
Filter prediction accuracy: -nan
[Bingo] PHT Access: 10646965
[Bingo] PHT Hit PC+Addr: 728383
[Bingo] PHT Hit PC+Offs: 9912156
[Bingo] PHT Miss: 6426
[Bingo] Prefetch PC+Addr: 0
[Bingo] Prefetch PC+Offs: 0
[Bingo] Useful PC+Addr: 0
[Bingo] Useful PC+Offs: 0
[Bingo] Useless PC+Addr: 0
[Bingo] Useless PC+Offs: 0
[Bingo] L1 Prefetch per Region: 0
[Bingo] L2 Prefetch per Region: 1.92301
[Bingo] L3 Prefetch per Region: 0
[Bingo] No Prefetch per Region: 30.077
[Bingo] Number of Voters Mean: 15.9998
[Bingo] Number of Voters SD: 7.7091
PHT read accesses: 163847880
PHT write accesses: 1922394
AT read accesses: 5674466
AT write accesses: 6221187
FT read accesses: 6588849
FT write accesses: 10646965
PS read accesses: 21287640
PS write accesses: 10640539
PHT tag read accesses: 223163389
PHT tag write accesses: 2650777
AT tag read accesses: 937069842
AT tag write accesses: 7596841
FT tag read accesses: 1168976383
FT tag write accesses: 15300275
PS tag read accesses: 594166919
PS tag write accesses: 31908126
[Bingo] PHT Access: 10671355
[Bingo] PHT Hit PC+Addr: 769738
[Bingo] PHT Hit PC+Offs: 9872356
[Bingo] PHT Miss: 29261
[Bingo] Prefetch PC+Addr: 0
[Bingo] Prefetch PC+Offs: 0
[Bingo] Useful PC+Addr: 0
[Bingo] Useful PC+Offs: 0
[Bingo] Useless PC+Addr: 0
[Bingo] Useless PC+Offs: 0
[Bingo] L1 Prefetch per Region: 0
[Bingo] L2 Prefetch per Region: 2.07357
[Bingo] L3 Prefetch per Region: 0
[Bingo] No Prefetch per Region: 29.9264
[Bingo] Number of Voters Mean: 15.9999
[Bingo] Number of Voters SD: 7.71349
PHT read accesses: 163982497
PHT write accesses: 1886341
AT read accesses: 38571411
AT write accesses: 39614759
FT read accesses: 19447237
FT write accesses: 10671355
PS read accesses: 21422266
PS write accesses: 10642094
PHT tag read accesses: 222335554
PHT tag write accesses: 2656079
AT tag read accesses: 1260652463
AT tag write accesses: 40457760
FT tag read accesses: 956559851
FT tag write accesses: 21569972
PS tag read accesses: 1237200513
PS tag write accesses: 32028679

DRAM Statistics
 CHANNEL 0
 RQ ROW_BUFFER_HIT:    2078028  ROW_BUFFER_MISS:    6926170
 DBUS_CONGESTED:       8661
 WQ ROW_BUFFER_HIT:    1737731  ROW_BUFFER_MISS:    3549716  FULL:      11183

 AVG_CONGESTED_CYCLE: 4
 All warmup complete: 2
Channel 0 Bank busy for read cycles: 0
Channel 0 Bank busy for write cycles: 0
Channel 0
Rank 0
0banks busy for read cycles: 25589079
0banks busy for write cycles: 200810
1banks busy for read cycles: 253266682
1banks busy for write cycles: 36824740
2banks busy for read cycles: 143283573
2banks busy for write cycles: 34715334
3banks busy for read cycles: 74202089
3banks busy for write cycles: 30072072
4banks busy for read cycles: 35068985
4banks busy for write cycles: 26228044
5banks busy for read cycles: 15510729
5banks busy for write cycles: 24939106
6banks busy for read cycles: 7467058
6banks busy for write cycles: 27701643
7banks busy for read cycles: 6335798
7banks busy for write cycles: 36964948
8banks busy for read cycles: 10658835
8banks busy for write cycles: 48439918

CPU 0 Branch Prediction Accuracy: 92.3859% MPKI: 15.4313 Average ROB Occupancy at Mispredict: 34.2234
Branch types
NOT_BRANCH: 159466168 79.7331%
BRANCH_DIRECT_JUMP: 0 0%
BRANCH_INDIRECT: 0 0%
BRANCH_CONDITIONAL: 40533593 20.2668%
BRANCH_DIRECT_CALL: 0 0%
BRANCH_INDIRECT_CALL: 0 0%
BRANCH_RETURN: 0 0%
BRANCH_OTHER: 0 0%

DRAM PAGES: 1048576
Allocated PAGES: 19168
