
*** ChampSim Multicore Out-of-Order Simulator ***

Warmup Instructions: 50000000
Simulation Instructions: 200000000
Number of CPUs: 1
LLC sets: 2048
LLC ways: 16
L0D sets: 16
L0D ways: 2
ROB size: 352
LQ size: 128
SQ size: 72
Secure Berti: OFF
Berti: OFF
Berti Fill: OFF
On commit prefetching: ON
Hit-based filter: OFF
Time-guarding: ON
Free-slotting: ON
Leap-frogging: ON
Train prefetcher on L0D bypass: OFF
No translation penalty for prefetchers: OFF
Prefetch to L0D only: OFF
Prefetch to L1D only: OFF
Clean evictions: ON
Commit loads: ON
Commit write: ON
Fill commit loads to L2C, LLC: ON
DRAM IO FREQUENCY: 6400
ROB SIZE: 352
Off-chip DRAM Size: 4096 MB Channels: 1 Width: 64-bit Data Rate: 6400 MT/s
CPU 0 runs /home/sumon/secure_berti/GhostMinion/../../traces/gap/pr-10.trace.gz
.gz
BTB has LRU replacement policy
ITLB has LRU replacement policy
DTLB has LRU replacement policy
STLB has LRU replacement policy
L1I has LRU replacement policy
L0D has LRU replacement policy
Bingo PHT WAYS: 16 and PHT_SIZE: 16384
L1D has LRU replacement policy
Bingo PHT WAYS: 16 and PHT_SIZE: 16384
L2C has LRU replacement policy
LLC has LRU replacement policy
Heartbeat CPU 0 instructions: 10000002 cycles: 3333821 heartbeat IPC: 2.99956 cumulative IPC: 2.99956 (Simulation time: 0 hr 1 min 1 sec) 
Heartbeat CPU 0 instructions: 20000000 cycles: 17967281 heartbeat IPC: 0.683365 cumulative IPC: 1.11313 (Simulation time: 0 hr 10 min 18 sec) 
Heartbeat CPU 0 instructions: 30000003 cycles: 34638553 heartbeat IPC: 0.599834 cumulative IPC: 0.866087 (Simulation time: 0 hr 21 min 7 sec) 
Heartbeat CPU 0 instructions: 40000001 cycles: 51310106 heartbeat IPC: 0.599824 cumulative IPC: 0.779574 (Simulation time: 0 hr 31 min 52 sec) 
Heartbeat CPU 0 instructions: 50000001 cycles: 67862453 heartbeat IPC: 0.604144 cumulative IPC: 0.736784 (Simulation time: 0 hr 42 min 16 sec) 

Warmup complete CPU 0 instructions: 50000001 cycles: 67862453 (Simulation time: 0 hr 42 min 16 sec) 

Heartbeat CPU 0 instructions: 60000000 cycles: 269291490 heartbeat IPC: 0.0496453 cumulative IPC: 0.0496453 (Simulation time: 0 hr 57 min 15 sec) 
Heartbeat CPU 0 instructions: 70000000 cycles: 468002356 heartbeat IPC: 0.0503244 cumulative IPC: 0.0499825 (Simulation time: 1 hr 12 min 4 sec) 
Heartbeat CPU 0 instructions: 80000000 cycles: 665548389 heartbeat IPC: 0.0506211 cumulative IPC: 0.0501936 (Simulation time: 1 hr 26 min 49 sec) 
Heartbeat CPU 0 instructions: 90000000 cycles: 866094229 heartbeat IPC: 0.0498639 cumulative IPC: 0.0501108 (Simulation time: 1 hr 41 min 51 sec) 
Heartbeat CPU 0 instructions: 100000002 cycles: 1067615235 heartbeat IPC: 0.0496226 cumulative IPC: 0.0500124 (Simulation time: 1 hr 56 min 48 sec) 
Heartbeat CPU 0 instructions: 110000000 cycles: 1268117650 heartbeat IPC: 0.0498747 cumulative IPC: 0.0499894 (Simulation time: 2 hr 11 min 49 sec) 
Heartbeat CPU 0 instructions: 120000000 cycles: 1467703715 heartbeat IPC: 0.0501037 cumulative IPC: 0.0500057 (Simulation time: 2 hr 26 min 41 sec) 
Heartbeat CPU 0 instructions: 130000001 cycles: 1664831056 heartbeat IPC: 0.0507286 cumulative IPC: 0.0500949 (Simulation time: 2 hr 40 min 58 sec) 
Heartbeat CPU 0 instructions: 140000000 cycles: 1861933258 heartbeat IPC: 0.0507351 cumulative IPC: 0.0501652 (Simulation time: 2 hr 55 min 29 sec) 
Heartbeat CPU 0 instructions: 150000000 cycles: 2062971585 heartbeat IPC: 0.0497418 cumulative IPC: 0.0501226 (Simulation time: 3 hr 10 min 31 sec) 
Heartbeat CPU 0 instructions: 160000000 cycles: 2262708199 heartbeat IPC: 0.0500659 cumulative IPC: 0.0501174 (Simulation time: 3 hr 25 min 20 sec) 
Heartbeat CPU 0 instructions: 170000001 cycles: 2463181255 heartbeat IPC: 0.049882 cumulative IPC: 0.0500977 (Simulation time: 3 hr 40 min 17 sec) 
Heartbeat CPU 0 instructions: 180000001 cycles: 2664437094 heartbeat IPC: 0.049688 cumulative IPC: 0.050066 (Simulation time: 3 hr 55 min 8 sec) 
Heartbeat CPU 0 instructions: 190000001 cycles: 2809993804 heartbeat IPC: 0.0687017 cumulative IPC: 0.0510552 (Simulation time: 4 hr 5 min 55 sec) 
Heartbeat CPU 0 instructions: 200000003 cycles: 2853446446 heartbeat IPC: 0.230136 cumulative IPC: 0.0538487 (Simulation time: 4 hr 9 min 21 sec) 
Heartbeat CPU 0 instructions: 210000000 cycles: 3053646695 heartbeat IPC: 0.04995 cumulative IPC: 0.0535873 (Simulation time: 4 hr 24 min 10 sec) 
Heartbeat CPU 0 instructions: 220000000 cycles: 3252799014 heartbeat IPC: 0.0502128 cumulative IPC: 0.0533763 (Simulation time: 4 hr 38 min 45 sec) 
Heartbeat CPU 0 instructions: 230000001 cycles: 3453370812 heartbeat IPC: 0.0498575 cumulative IPC: 0.0531678 (Simulation time: 4 hr 53 min 26 sec) 
Heartbeat CPU 0 instructions: 240000001 cycles: 3650124893 heartbeat IPC: 0.0508249 cumulative IPC: 0.0530391 (Simulation time: 5 hr 7 min 50 sec) 
Heartbeat CPU 0 instructions: 250000001 cycles: 3850100951 heartbeat IPC: 0.050006 cumulative IPC: 0.0528787 (Simulation time: 5 hr 22 min 41 sec) 
Finished CPU 0 instructions: 200000000 cycles: 3782238498 cumulative IPC: 0.0528787 (Simulation time: 5 hr 22 min 41 sec) 
 Instruction ID: 250000130

ChampSim completed all CPUs

Region of Interest Statistics

CPU 0 cumulative IPC: 0.0528787 instructions: 200000000 cycles: 3782238498
ITLB SPEC fills:          0  NON-SPEC fills:          0
ITLB Test counter :          0
ITLB Leapfrog:          0
ITLB MSHR merge:          0
ITLB TOTAL     ACCESS:   58909104  HIT:   58909104  MISS:          0  HIT %:        100  MISS %:          0   MPKI: 0
ITLB LOAD TRANSLATION NON_SPEC    ACCESS:   58909104  HIT:   58909104  MISS:          0  HIT %:        100  MISS %:          0   MPKI: 0
ITLB PREFETCH  REQUESTED:          0  ISSUED:          0  USEFUL:          0  USELESS:          0
ITLB USEFUL LOAD PREFETCHES:          0 PREFETCH ISSUED TO LOWER LEVEL:          0  ACCURACY: -nan
ITLB TIMELY PREFETCHES:          0 LATE PREFETCHES: 0 DROPPED PREFETCHES: 0
ITLB COMMIT LATE PREFETCHES: 0 NORMAL LATE: 0 MISSED OPPORTUNITY: 0 UNCOVERED: 0
ITLB PREFETCHES SAME FILL-ORIGIN LEVEL: 0 DIFFERENT FILL-ORIGIN LEVEL: 0
ITLB AVERAGE MISS LATENCY: -nan cycles
ITLB AVERAGE MISS LATENCY LOAD: -nan cycles
ITLB AVERAGE MISS LATENCY PREFETCH: -nan cycles
ITLB AVERAGE MSHR OCCUPANCY: 0
ITLB MSHR FULL: 0
ITLB RQ	ACCESS:   60034036	FORWARD:          0	MERGED:    1124932	TO_CACHE:   58909104

DTLB SPEC fills:          0  NON-SPEC fills:          0
DTLB Test counter :          0
DTLB Leapfrog:          0
DTLB MSHR merge:          0
DTLB TOTAL     ACCESS:   71278238  HIT:   48323609  MISS:   22954629  HIT %:    67.7957  MISS %:    32.2043   MPKI: 114.773
DTLB LOAD TRANSLATION NON_SPEC    ACCESS:   71278238  HIT:   48323609  MISS:   22954629  HIT %:    67.7957  MISS %:    32.2043   MPKI: 114.773
DTLB PREFETCH  REQUESTED:          0  ISSUED:          0  USEFUL:          0  USELESS:          0
DTLB USEFUL LOAD PREFETCHES:          0 PREFETCH ISSUED TO LOWER LEVEL:          0  ACCURACY: -nan
DTLB TIMELY PREFETCHES:          0 LATE PREFETCHES: 0 DROPPED PREFETCHES: 0
DTLB COMMIT LATE PREFETCHES: 0 NORMAL LATE: 0 MISSED OPPORTUNITY: 0 UNCOVERED: 0
DTLB PREFETCHES SAME FILL-ORIGIN LEVEL: 0 DIFFERENT FILL-ORIGIN LEVEL: 0
DTLB AVERAGE MISS LATENCY: 9.32025 cycles
DTLB AVERAGE MISS LATENCY LOAD: -nan cycles
DTLB AVERAGE MISS LATENCY PREFETCH: -nan cycles
DTLB AVERAGE MSHR OCCUPANCY: 0.196211
DTLB MSHR FULL: 0
DTLB RQ	ACCESS:   72176544	FORWARD:          0	MERGED:     889226	TO_CACHE:   71287318

STLB SPEC fills:          0  NON-SPEC fills:          0
STLB Test counter :          0
STLB Leapfrog:          0
STLB MSHR merge:          0
STLB TOTAL     ACCESS:   22954629  HIT:   22913833  MISS:      40796  HIT %:    99.8223  MISS %:   0.177725   MPKI: 0.20398
STLB LOAD TRANSLATION NON_SPEC    ACCESS:   22954629  HIT:   22913833  MISS:      40796  HIT %:    99.8223  MISS %:   0.177725   MPKI: 0.20398
STLB PREFETCH  REQUESTED:          0  ISSUED:          0  USEFUL:          0  USELESS:          0
STLB USEFUL LOAD PREFETCHES:          0 PREFETCH ISSUED TO LOWER LEVEL:          0  ACCURACY: -nan
STLB TIMELY PREFETCHES:          0 LATE PREFETCHES: 0 DROPPED PREFETCHES: 0
STLB COMMIT LATE PREFETCHES: 0 NORMAL LATE: 0 MISSED OPPORTUNITY: 0 UNCOVERED: 0
STLB PREFETCHES SAME FILL-ORIGIN LEVEL: 0 DIFFERENT FILL-ORIGIN LEVEL: 0
STLB AVERAGE MISS LATENCY: 171.609 cycles
STLB AVERAGE MISS LATENCY LOAD: -nan cycles
STLB AVERAGE MISS LATENCY PREFETCH: -nan cycles
STLB AVERAGE MSHR OCCUPANCY: 0.00122886
STLB MSHR FULL: 0
STLB RQ	ACCESS:   22954629	FORWARD:          0	MERGED:          0	TO_CACHE:   22954629

STLB Hit, L1D data hit: 0
STLB Hit, L2C data hit: 0
STLB Hit, LLC data hit: 0
STLB Hit, LLC data miss: 0
STLB STLB hints to L2: 0
L0D SPEC fills:    5494786  NON-SPEC fills:          0
L0D TimeGuard Request with older TS:      69124 Restricted eviction:      11669 read:       6876
L0D Test counter :          0
L0D Leapfrog:          0
L0D MSHR merge:    3134038
L0D TOTAL     ACCESS:   65742828  HIT:   22617743  MISS:   43125085  HIT %:    34.4034  MISS %:    65.5966   MPKI: 215.625
L0D LOAD      TOTAL       ACCESS:   65742828  HIT:   22617743  MISS:   43125085  HIT %:    34.4034  MISS %:    65.5966   MPKI: 215.625
L0D LOAD      NON_SPEC    ACCESS:   37623502  HIT:       4872  MISS:   37618630  HIT %:  0.0129494  MISS %:    99.9871   MPKI: 188.093
L0D LOAD      SPEC        ACCESS:   28119326  HIT:   22612871  MISS:    5506455  HIT %:    80.4175  MISS %:    19.5825   MPKI: 27.5323
L0D PREFETCH  REQUESTED:          0  ISSUED:          0  USEFUL:          0  USELESS:          0
L0D USEFUL LOAD PREFETCHES:          0 PREFETCH ISSUED TO LOWER LEVEL:          0  ACCURACY: -nan
L0D TIMELY PREFETCHES:          0 LATE PREFETCHES: 0 DROPPED PREFETCHES: 0
L0D COMMIT LATE PREFETCHES: 0 NORMAL LATE: 0 MISSED OPPORTUNITY: 0 UNCOVERED: 0
L0D PREFETCHES SAME FILL-ORIGIN LEVEL: 0 DIFFERENT FILL-ORIGIN LEVEL: 0
L0D AVERAGE MISS LATENCY: 76.5641 cycles
L0D AVERAGE MISS LATENCY LOAD: 76.5641 cycles
L0D AVERAGE MISS LATENCY PREFETCH: -nan cycles
L0D AVERAGE MSHR OCCUPANCY: 0.268435
L0D MSHR FULL: 0
L0D RQ	ACCESS:   77353834	FORWARD:          0	MERGED:    8476970	TO_CACHE:   68876864
L0D WQ	ACCESS:    3299680	FORWARD:          0	MERGED:          0	TO_CACHE:    3299680

L1D SPEC fills:          0  NON-SPEC fills:   31947143
L1D Test counter :          0
L1D Leapfrog:          0
L1D MSHR merge:         69
L1D TOTAL     ACCESS:   84307310  HIT:   47198656  MISS:   37108654  HIT %:    55.9841  MISS %:    44.0159   MPKI: 185.543
L1D LOAD      TOTAL       ACCESS:   43125015  HIT:    8607861  MISS:   34517154  HIT %:    19.9603  MISS %:    80.0397   MPKI: 172.586
L1D LOAD      NON_SPEC    ACCESS:   37618629  HIT:    5671486  MISS:   31947143  HIT %:    15.0763  MISS %:    84.9237   MPKI: 159.736
L1D LOAD      SPEC        ACCESS:    5506386  HIT:    2936375  MISS:    2570011  HIT %:    53.3267  MISS %:    46.6733   MPKI: 12.8501
L1D RFO       NON_SPEC    ACCESS:    2534459  HIT:    2468900  MISS:      65559  HIT %:    97.4133  MISS %:    2.58671   MPKI: 0.327795
L1D COMMIT LOAD NON_SPEC    ACCESS:   33153370  HIT:   33152770  MISS:        600  HIT %:    99.9982  MISS %: 0.00180977   MPKI: 0.003
L1D COMMIT WRITE NON_SPEC    ACCESS:    5494466  HIT:    2969125  MISS:    2525341  HIT %:    54.0385  MISS %:    45.9615   MPKI: 12.6267
L1D PREFETCH  REQUESTED:          0  ISSUED:          0  USEFUL:          0  USELESS:          0
L1D USEFUL LOAD PREFETCHES:          0 PREFETCH ISSUED TO LOWER LEVEL:          0  ACCURACY: -nan
L1D TIMELY PREFETCHES:          0 LATE PREFETCHES: 0 DROPPED PREFETCHES: 0
L1D COMMIT LATE PREFETCHES: 0 NORMAL LATE: 0 MISSED OPPORTUNITY: 0 UNCOVERED: 34517156
L1D PREFETCHES SAME FILL-ORIGIN LEVEL: 0 DIFFERENT FILL-ORIGIN LEVEL: 0
L1D AVERAGE MISS LATENCY: 83.5495 cycles
L1D AVERAGE MISS LATENCY LOAD: 89.4026 cycles
L1D AVERAGE MISS LATENCY PREFETCH: -nan cycles
L1D AVERAGE MSHR OCCUPANCY: 0.0762234
L1D MSHR FULL: 0
L1D RQ	ACCESS:   77349773	FORWARD:          0	MERGED:     996322	TO_CACHE:   76278462
L1D WQ	ACCESS:    8794149	FORWARD:      74989	MERGED:       3353	TO_CACHE:    8790796

L1D UNIQUE REGIONS ACCESSED: 0
L1D REGIONS CONFLICTS: 0
L1D Cross Page Prefetch Requests: 0
L1D Same Page Prefetch Requests: 0
L1D ROI Sum of L1D PQ occupancy: 0
L1D PREFETCHES PUSHED FROM L2C: 0
L1I SPEC fills:          0  NON-SPEC fills:          0
L1I Test counter :          0
L1I Leapfrog:          0
L1I MSHR merge:          1
L1I TOTAL     ACCESS:   60034035  HIT:   60034012  MISS:         23  HIT %:        100  MISS %: 3.83116e-05   MPKI: 0.000115
L1I LOAD      TOTAL       ACCESS:   60034035  HIT:   60034012  MISS:         23  HIT %:        100  MISS %: 3.83116e-05   MPKI: 0.000115
L1I LOAD      NON_SPEC    ACCESS:   60034035  HIT:   60034012  MISS:         23  HIT %:        100  MISS %: 3.83116e-05   MPKI: 0.000115
L1I PREFETCH  REQUESTED:          0  ISSUED:          0  USEFUL:          0  USELESS:          0
L1I USEFUL LOAD PREFETCHES:          0 PREFETCH ISSUED TO LOWER LEVEL:          0  ACCURACY: -nan
L1I TIMELY PREFETCHES:          0 LATE PREFETCHES: 0 DROPPED PREFETCHES: 0
L1I COMMIT LATE PREFETCHES: 0 NORMAL LATE: 0 MISSED OPPORTUNITY: 0 UNCOVERED: 0
L1I PREFETCHES SAME FILL-ORIGIN LEVEL: 0 DIFFERENT FILL-ORIGIN LEVEL: 0
L1I AVERAGE MISS LATENCY: 166.174 cycles
L1I AVERAGE MISS LATENCY LOAD: 166.174 cycles
L1I AVERAGE MISS LATENCY PREFETCH: -nan cycles
L1I AVERAGE MSHR OCCUPANCY: 1.33258e-07
L1I MSHR FULL: 0
L1I RQ	ACCESS:   71129295	FORWARD:          0	MERGED:   11095259	TO_CACHE:   60034036

BTB SPEC fills:          0  NON-SPEC fills:          0
BTB Test counter :          0
BTB Leapfrog:          0
BTB MSHR merge:          0
BTB TOTAL     ACCESS:   37027234  HIT:   37027062  MISS:        172  HIT %:    99.9995  MISS %: 0.000464523   MPKI: 0.00086
BTB BRANCH_DIRECT_JUMP	ACCESS:         67  HIT:         33  MISS:         34
BTB BRANCH_INDIRECT	ACCESS:          4  HIT:          0  MISS:          4
BTB BRANCH_CONDITIONAL	ACCESS:   37027097  HIT:   37027009  MISS:         88
BTB BRANCH_DIRECT_CALL	ACCESS:         28  HIT:         10  MISS:         18
BTB BRANCH_INDIRECT_CALL	ACCESS:          5  HIT:          1  MISS:          4
BTB BRANCH_RETURN	ACCESS:         33  HIT:          9  MISS:         24
BTB BRANCH_OTHER ACCESS:          0  HIT:          0  MISS:          0

L2C SPEC fills:          0  NON-SPEC fills:   23867643
L2C Test counter :          0
L2C Leapfrog:          0
L2C MSHR merge:     304813
L2C TOTAL     ACCESS:   63466463  HIT:   17663251  MISS:   45803212  HIT %:    27.8308  MISS %:    72.1692   MPKI: 229.016
L2C LOAD      TOTAL       ACCESS:   34517177  HIT:   10480628  MISS:   24036549  HIT %:    30.3635  MISS %:    69.6365   MPKI: 120.183
L2C LOAD      NON_SPEC    ACCESS:   31947166  HIT:    8079500  MISS:   23867666  HIT %:    25.2902  MISS %:    74.7098   MPKI: 119.338
L2C LOAD      SPEC        ACCESS:    2570011  HIT:    2401128  MISS:     168883  HIT %:    93.4287  MISS %:    6.57129   MPKI: 0.844415
L2C RFO       NON_SPEC    ACCESS:      65559  HIT:         80  MISS:      65479  HIT %:   0.122027  MISS %:     99.878   MPKI: 0.327395
L2C PREFETCH  NON_SPEC    ACCESS:   26075959  HIT:    4577180  MISS:   21498779  HIT %:    17.5533  MISS %:    82.4467   MPKI: 107.494
L2C WRITEBACK NON_SPEC    ACCESS:      73123  HIT:      72687  MISS:        436  HIT %:    99.4037  MISS %:   0.596256   MPKI: 0.00218
L2C CLEAN_EVICTION NON_SPEC    ACCESS:    2530112  HIT:    2346687  MISS:     183425  HIT %:    92.7503  MISS %:    7.24968   MPKI: 0.917125
L2C COMMIT LOAD NON_SPEC    ACCESS:        600  HIT:        590  MISS:         10  HIT %:    98.3333  MISS %:    1.66667   MPKI: 5e-05
L2C LOAD TRANSLATION NON_SPEC    ACCESS:     203933  HIT:     185399  MISS:      18534  HIT %:    90.9117  MISS %:    9.08828   MPKI: 0.09267
L2C PREFETCH  REQUESTED:   26386727  ISSUED:   26386727  USEFUL:    3562824  USELESS:   17936234
L2C USEFUL LOAD PREFETCHES:    3562824 PREFETCH ISSUED TO LOWER LEVEL:   21803594  ACCURACY: 16.3405
L2C TIMELY PREFETCHES:    3562824 LATE PREFETCHES: 304815 DROPPED PREFETCHES: 0
L2C COMMIT LATE PREFETCHES: 48134 NORMAL LATE: 305100 MISSED OPPORTUNITY: 2718 UNCOVERED: 23680599
L2C PREFETCHES SAME FILL-ORIGIN LEVEL: 21803594 DIFFERENT FILL-ORIGIN LEVEL: 0
L2C AVERAGE MISS LATENCY: 119.77 cycles
L2C AVERAGE MISS LATENCY LOAD: 107.387 cycles
L2C AVERAGE MISS LATENCY PREFETCH: 134.378 cycles
L2C AVERAGE MSHR OCCUPANCY: 1.18804
L2C MSHR FULL: 0.000121996
L2C RQ	ACCESS:   34787269	FORWARD:          0	MERGED:          0	TO_CACHE:   34787269
L2C WQ	ACCESS:    2603235	FORWARD:          0	MERGED:          0	TO_CACHE:    2603235
L2C PQ	ACCESS:   26386727	FORWARD:          0	MERGED:          0	TO_CACHE:   26386727

L2C Instructions Evicting Data 23
L2C Translations Evicting Data 18530
L2C Data Evicting Data 45413453
L2C Instructions Evicting Instructions 0
L2C Translations Evicting Instructions 0
L2C Data Evicting Instructions 23
L2C Instructions Evicting Translations 0
L2C Translations Evicting Translations 4
L2C Data Evicting Translations 18435
L2C Dense regions hint from L2: 0
PSCL5 SPEC fills:          0  NON-SPEC fills:          0
PSCL5 Test counter :          0
PSCL5 Leapfrog:          0
PSCL5 MSHR merge:          0
PSCL5 TOTAL     ACCESS:          0  HIT:          0  MISS:          0  HIT %:       -nan  MISS %:       -nan   MPKI: 0
PSCL5 PREFETCH  REQUESTED:          0  ISSUED:          0  USEFUL:          0  USELESS:          0
PSCL5 USEFUL LOAD PREFETCHES:          0 PREFETCH ISSUED TO LOWER LEVEL:          0  ACCURACY: -nan
PSCL5 TIMELY PREFETCHES:          0 LATE PREFETCHES: 0 DROPPED PREFETCHES: 0
PSCL5 COMMIT LATE PREFETCHES: 0 NORMAL LATE: 0 MISSED OPPORTUNITY: 0 UNCOVERED: 0
PSCL5 PREFETCHES SAME FILL-ORIGIN LEVEL: 0 DIFFERENT FILL-ORIGIN LEVEL: 0

PSCL4 SPEC fills:          0  NON-SPEC fills:          0
PSCL4 Test counter :          0
PSCL4 Leapfrog:          0
PSCL4 MSHR merge:          0
PSCL4 TOTAL     ACCESS:          0  HIT:          0  MISS:          0  HIT %:       -nan  MISS %:       -nan   MPKI: 0
PSCL4 PREFETCH  REQUESTED:          0  ISSUED:          0  USEFUL:          0  USELESS:          0
PSCL4 USEFUL LOAD PREFETCHES:          0 PREFETCH ISSUED TO LOWER LEVEL:          0  ACCURACY: -nan
PSCL4 TIMELY PREFETCHES:          0 LATE PREFETCHES: 0 DROPPED PREFETCHES: 0
PSCL4 COMMIT LATE PREFETCHES: 0 NORMAL LATE: 0 MISSED OPPORTUNITY: 0 UNCOVERED: 0
PSCL4 PREFETCHES SAME FILL-ORIGIN LEVEL: 0 DIFFERENT FILL-ORIGIN LEVEL: 0

PSCL3 SPEC fills:          0  NON-SPEC fills:          0
PSCL3 Test counter :          0
PSCL3 Leapfrog:          0
PSCL3 MSHR merge:          0
PSCL3 TOTAL     ACCESS:          0  HIT:          0  MISS:          0  HIT %:       -nan  MISS %:       -nan   MPKI: 0
PSCL3 PREFETCH  REQUESTED:          0  ISSUED:          0  USEFUL:          0  USELESS:          0
PSCL3 USEFUL LOAD PREFETCHES:          0 PREFETCH ISSUED TO LOWER LEVEL:          0  ACCURACY: -nan
PSCL3 TIMELY PREFETCHES:          0 LATE PREFETCHES: 0 DROPPED PREFETCHES: 0
PSCL3 COMMIT LATE PREFETCHES: 0 NORMAL LATE: 0 MISSED OPPORTUNITY: 0 UNCOVERED: 0
PSCL3 PREFETCHES SAME FILL-ORIGIN LEVEL: 0 DIFFERENT FILL-ORIGIN LEVEL: 0

PSCL2 SPEC fills:          0  NON-SPEC fills:          0
PSCL2 Test counter :          0
PSCL2 Leapfrog:          0
PSCL2 MSHR merge:          0
PSCL2 TOTAL     ACCESS:          0  HIT:          0  MISS:          0  HIT %:       -nan  MISS %:       -nan   MPKI: 0
PSCL2 PREFETCH  REQUESTED:          0  ISSUED:          0  USEFUL:          0  USELESS:          0
PSCL2 USEFUL LOAD PREFETCHES:          0 PREFETCH ISSUED TO LOWER LEVEL:          0  ACCURACY: -nan
PSCL2 TIMELY PREFETCHES:          0 LATE PREFETCHES: 0 DROPPED PREFETCHES: 0
PSCL2 COMMIT LATE PREFETCHES: 0 NORMAL LATE: 0 MISSED OPPORTUNITY: 0 UNCOVERED: 0
PSCL2 PREFETCHES SAME FILL-ORIGIN LEVEL: 0 DIFFERENT FILL-ORIGIN LEVEL: 0

LLC SPEC fills:          0  NON-SPEC fills:   11284515
LLC Test counter :          0
LLC Leapfrog:          0
LLC MSHR merge:          0
LLC TOTAL     ACCESS:   48201843  HIT:   22576169  MISS:   25625674  HIT %:    46.8367  MISS %:    53.1633   MPKI: 128.128
LLC LOAD      TOTAL       ACCESS:   23731736  HIT:   12293361  MISS:   11438375  HIT %:    51.8014  MISS %:    48.1986   MPKI: 57.1919
LLC LOAD      NON_SPEC    ACCESS:   23573887  HIT:   12289349  MISS:   11284538  HIT %:    52.1312  MISS %:    47.8688   MPKI: 56.4227
LLC LOAD      SPEC        ACCESS:     157849  HIT:       4012  MISS:     153837  HIT %:    2.54167  MISS %:    97.4583   MPKI: 0.769185
LLC RFO       NON_SPEC    ACCESS:      65477  HIT:       1591  MISS:      63886  HIT %:    2.42986  MISS %:    97.5701   MPKI: 0.31943
LLC PREFETCH  NON_SPEC    ACCESS:   21803594  HIT:    7798810  MISS:   14004784  HIT %:    35.7685  MISS %:    64.2315   MPKI: 70.0239
LLC WRITEBACK NON_SPEC    ACCESS:      66615  HIT:      66349  MISS:        266  HIT %:    99.6007  MISS %:   0.399309   MPKI: 0.00133
LLC CLEAN_EVICTION NON_SPEC    ACCESS:    2515877  HIT:    2406641  MISS:     109236  HIT %:    95.6581  MISS %:    4.34187   MPKI: 0.54618
LLC COMMIT LOAD NON_SPEC    ACCESS:         10  HIT:          5  MISS:          5  HIT %:         50  MISS %:         50   MPKI: 2.5e-05
LLC LOAD TRANSLATION NON_SPEC    ACCESS:      18534  HIT:       9412  MISS:       9122  HIT %:    50.7823  MISS %:    49.2177   MPKI: 0.04561
LLC PREFETCH  REQUESTED:          0  ISSUED:          0  USEFUL:    1452950  USELESS:   12552309
LLC USEFUL LOAD PREFETCHES:    1452950 PREFETCH ISSUED TO LOWER LEVEL:   14004784  ACCURACY: 10.3747
LLC TIMELY PREFETCHES:    1452950 LATE PREFETCHES: 0 DROPPED PREFETCHES: 0
LLC COMMIT LATE PREFETCHES: 0 NORMAL LATE: 0 MISSED OPPORTUNITY: 0 UNCOVERED: 0
LLC PREFETCHES SAME FILL-ORIGIN LEVEL: 0 DIFFERENT FILL-ORIGIN LEVEL: 0
LLC AVERAGE MISS LATENCY: 160.942 cycles
LLC AVERAGE MISS LATENCY LOAD: 161.081 cycles
LLC AVERAGE MISS LATENCY PREFETCH: 161.986 cycles
LLC AVERAGE MSHR OCCUPANCY: 0.82389
LLC MSHR FULL: 0
LLC RQ	ACCESS:   23815757	FORWARD:          0	MERGED:          0	TO_CACHE:   23815757
LLC WQ	ACCESS:    2582492	FORWARD:          0	MERGED:          0	TO_CACHE:    2582492
LLC PQ	ACCESS:   21803594	FORWARD:          0	MERGED:          0	TO_CACHE:   21803594

LLC Dense regions hint to LLC: 0

RAW hits: 21
Loads Generated: 77353857
Loads sent to L1D: 77353834
Stores Generated: 3299680
Stores sent to L1D: 3299680
Major fault: 0 Minor fault: 34900
Allocated PAGES: 34900
Total Load insts: 95651032
Total Non-spec loads: 44922357
Percentage of speculative loads: 53.0352

LeapFrogging counter: 407
Commit hits: 5494469 miss: 34224690
Commit hit %: 13.8333 miss %: 86.1667
Commits not translated: 0
Loads retired: 34517152
Stores retired: 3299680
Cache fills: 34517154
L1D response latency: 89.4026 cycles
Load retirement latency: 243.181 cycles
OOO test counter: 0
Discarded buffer inserts: 5494469 hits: 55518 hit %: 1.01043
Filter prediction accuracy: -nan
[Bingo] PHT Access: 24827520
[Bingo] PHT Hit PC+Addr: 1257404
[Bingo] PHT Hit PC+Offs: 23547674
[Bingo] PHT Miss: 22442
[Bingo] Prefetch PC+Addr: 0
[Bingo] Prefetch PC+Offs: 0
[Bingo] Useful PC+Addr: 0
[Bingo] Useful PC+Offs: 0
[Bingo] Useless PC+Addr: 0
[Bingo] Useless PC+Offs: 0
[Bingo] L1 Prefetch per Region: 0
[Bingo] L2 Prefetch per Region: 1.95807
[Bingo] L3 Prefetch per Region: 0
[Bingo] No Prefetch per Region: 30.0419
[Bingo] Number of Voters Mean: 16
[Bingo] Number of Voters SD: 7.14875
PHT read accesses: 387685404
PHT write accesses: 4241407
AT read accesses: 13396263
AT write accesses: 13929701
FT read accesses: 15122440
FT write accesses: 24827520
PS read accesses: 49615512
PS write accesses: 24805078
PHT tag read accesses: 521282264
PHT tag write accesses: 5498811
AT tag read accesses: 2735458555
AT tag write accesses: 17637721
FT tag read accesses: 3290298189
FT tag write accesses: 35707111
PS tag read accesses: 1375612640
PS tag write accesses: 74397986
[Bingo] PHT Access: 25196244
[Bingo] PHT Hit PC+Addr: 1588306
[Bingo] PHT Hit PC+Offs: 23504727
[Bingo] PHT Miss: 103211
[Bingo] Prefetch PC+Addr: 0
[Bingo] Prefetch PC+Offs: 0
[Bingo] Useful PC+Addr: 0
[Bingo] Useful PC+Offs: 0
[Bingo] Useless PC+Addr: 0
[Bingo] Useless PC+Offs: 0
[Bingo] L1 Prefetch per Region: 0
[Bingo] L2 Prefetch per Region: 2.05558
[Bingo] L3 Prefetch per Region: 0
[Bingo] No Prefetch per Region: 29.9444
[Bingo] Number of Voters Mean: 16
[Bingo] Number of Voters SD: 7.15099
PHT read accesses: 389496644
PHT write accesses: 4293548
AT read accesses: 49353977
AT write accesses: 51578816
FT read accesses: 23810558
FT write accesses: 25196244
PS read accesses: 50389378
PS write accesses: 25093033
PHT tag read accesses: 525579959
PHT tag write accesses: 5881854
AT tag read accesses: 2157194766
AT tag write accesses: 53647550
FT tag read accesses: 2111190865
FT tag write accesses: 39840858
PS tag read accesses: 2068121084
PS tag write accesses: 75465319

DRAM Statistics
 CHANNEL 0
 RQ ROW_BUFFER_HIT:    6534174  ROW_BUFFER_MISS:   18981992
 DBUS_CONGESTED:       5748
 WQ ROW_BUFFER_HIT:    1091433  ROW_BUFFER_MISS:    1489314  FULL:          0

 AVG_CONGESTED_CYCLE: 3
 All warmup complete: 2
Channel 0 Bank busy for read cycles: 0
Channel 0 Bank busy for write cycles: 0
Channel 0
Rank 0
0banks busy for read cycles: 1197093008
0banks busy for write cycles: 1262486
1banks busy for read cycles: 1563872896
1banks busy for write cycles: 287573699
2banks busy for read cycles: 421798706
2banks busy for write cycles: 65247881
3banks busy for read cycles: 112791879
3banks busy for write cycles: 20880257
4banks busy for read cycles: 27641539
4banks busy for write cycles: 10684167
5banks busy for read cycles: 11115992
5banks busy for write cycles: 7577397
6banks busy for read cycles: 8058789
6banks busy for write cycles: 5835423
7banks busy for read cycles: 9267567
7banks busy for write cycles: 5358120
8banks busy for read cycles: 18620659
8banks busy for write cycles: 7558034

CPU 0 Branch Prediction Accuracy: 96.9594% MPKI: 5.62926 Average ROB Occupancy at Mispredict: 138.074
Branch types
NOT_BRANCH: 162972286 81.4861%
BRANCH_DIRECT_JUMP: 67 3.35e-05%
BRANCH_INDIRECT: 4 2e-06%
BRANCH_CONDITIONAL: 37027324 18.5137%
BRANCH_DIRECT_CALL: 28 1.4e-05%
BRANCH_INDIRECT_CALL: 5 2.5e-06%
BRANCH_RETURN: 33 1.65e-05%
BRANCH_OTHER: 0 0%

DRAM PAGES: 1048576
Allocated PAGES: 34900
