
*** ChampSim Multicore Out-of-Order Simulator ***

Warmup Instructions: 50000000
Simulation Instructions: 200000000
Number of CPUs: 1
LLC sets: 2048
LLC ways: 16
Secure Berti: OFF
Berti: OFF
Berti Fill: OFF
On commit prefetching: OFF
L2 LLC Bypass speculative loads: OFF
Off-chip DRAM Size: 4096 MB Channels: 1 Width: 64-bit Data Rate: 6400 MT/s
CPU 0 runs /home/sumon/secure_berti/Berti_Baseline/../../traces/gap/bc-3.trace.gz
.gz
BTB has LRU replacement policy
ITLB has LRU replacement policy
DTLB has LRU replacement policy
STLB has LRU replacement policy
L1I has LRU replacement policy
CPU 0 L1D IP-based stride prefetcher
L1D has LRU replacement policy
L2C has LRU replacement policy
LLC has LRU replacement policy
Heartbeat CPU 0 instructions: 10000002 cycles: 3491375 heartbeat IPC: 2.8642 cumulative IPC: 2.8642 (Simulation time: 0 hr 0 min 22 sec) 
Heartbeat CPU 0 instructions: 20000003 cycles: 6375813 heartbeat IPC: 3.46688 cumulative IPC: 3.13686 (Simulation time: 0 hr 0 min 41 sec) 
Heartbeat CPU 0 instructions: 30000002 cycles: 9238432 heartbeat IPC: 3.4933 cumulative IPC: 3.2473 (Simulation time: 0 hr 1 min 0 sec) 
Heartbeat CPU 0 instructions: 40000003 cycles: 12092897 heartbeat IPC: 3.50328 cumulative IPC: 3.30773 (Simulation time: 0 hr 1 min 19 sec) 
Heartbeat CPU 0 instructions: 50000003 cycles: 14944860 heartbeat IPC: 3.50636 cumulative IPC: 3.34563 (Simulation time: 0 hr 1 min 38 sec) 

Warmup complete CPU 0 instructions: 50000003 cycles: 14944860 (Simulation time: 0 hr 1 min 38 sec) 

Heartbeat CPU 0 instructions: 60000002 cycles: 69771198 heartbeat IPC: 0.182394 cumulative IPC: 0.182394 (Simulation time: 0 hr 2 min 13 sec) 
Heartbeat CPU 0 instructions: 70000000 cycles: 124805016 heartbeat IPC: 0.181706 cumulative IPC: 0.18205 (Simulation time: 0 hr 2 min 48 sec) 
Heartbeat CPU 0 instructions: 80000000 cycles: 180170262 heartbeat IPC: 0.180619 cumulative IPC: 0.18157 (Simulation time: 0 hr 3 min 23 sec) 
Heartbeat CPU 0 instructions: 90000002 cycles: 235406823 heartbeat IPC: 0.18104 cumulative IPC: 0.181437 (Simulation time: 0 hr 3 min 59 sec) 
Heartbeat CPU 0 instructions: 100000003 cycles: 290357044 heartbeat IPC: 0.181983 cumulative IPC: 0.181546 (Simulation time: 0 hr 4 min 35 sec) 
Heartbeat CPU 0 instructions: 110000000 cycles: 345621298 heartbeat IPC: 0.180949 cumulative IPC: 0.181446 (Simulation time: 0 hr 5 min 10 sec) 
Heartbeat CPU 0 instructions: 120000000 cycles: 400294295 heartbeat IPC: 0.182906 cumulative IPC: 0.181653 (Simulation time: 0 hr 5 min 47 sec) 
Heartbeat CPU 0 instructions: 130000001 cycles: 455470214 heartbeat IPC: 0.181239 cumulative IPC: 0.181601 (Simulation time: 0 hr 6 min 25 sec) 
Heartbeat CPU 0 instructions: 140000001 cycles: 510742601 heartbeat IPC: 0.180922 cumulative IPC: 0.181526 (Simulation time: 0 hr 7 min 3 sec) 
Heartbeat CPU 0 instructions: 150000000 cycles: 566213154 heartbeat IPC: 0.180276 cumulative IPC: 0.1814 (Simulation time: 0 hr 7 min 42 sec) 
Heartbeat CPU 0 instructions: 160000001 cycles: 621084075 heartbeat IPC: 0.182246 cumulative IPC: 0.181476 (Simulation time: 0 hr 8 min 19 sec) 
Heartbeat CPU 0 instructions: 170000000 cycles: 676034617 heartbeat IPC: 0.181982 cumulative IPC: 0.181518 (Simulation time: 0 hr 8 min 57 sec) 
Heartbeat CPU 0 instructions: 180000000 cycles: 730861221 heartbeat IPC: 0.182393 cumulative IPC: 0.181585 (Simulation time: 0 hr 9 min 34 sec) 
Heartbeat CPU 0 instructions: 190000001 cycles: 785531664 heartbeat IPC: 0.182914 cumulative IPC: 0.18168 (Simulation time: 0 hr 10 min 10 sec) 
Heartbeat CPU 0 instructions: 200000001 cycles: 840263367 heartbeat IPC: 0.182709 cumulative IPC: 0.181748 (Simulation time: 0 hr 10 min 46 sec) 
Heartbeat CPU 0 instructions: 210000000 cycles: 895128604 heartbeat IPC: 0.182265 cumulative IPC: 0.18178 (Simulation time: 0 hr 11 min 23 sec) 
Heartbeat CPU 0 instructions: 220000000 cycles: 949975974 heartbeat IPC: 0.182324 cumulative IPC: 0.181812 (Simulation time: 0 hr 11 min 57 sec) 
Heartbeat CPU 0 instructions: 230000000 cycles: 1004882812 heartbeat IPC: 0.182127 cumulative IPC: 0.18183 (Simulation time: 0 hr 12 min 31 sec) 
Heartbeat CPU 0 instructions: 240000000 cycles: 1059769727 heartbeat IPC: 0.182193 cumulative IPC: 0.181849 (Simulation time: 0 hr 13 min 6 sec) 
Heartbeat CPU 0 instructions: 250000003 cycles: 1114609499 heartbeat IPC: 0.182349 cumulative IPC: 0.181874 (Simulation time: 0 hr 13 min 40 sec) 
Finished CPU 0 instructions: 200000000 cycles: 1099664639 cumulative IPC: 0.181874 (Simulation time: 0 hr 13 min 40 sec) 

ChampSim completed all CPUs

Region of Interest Statistics

CPU 0 cumulative IPC: 0.181874 instructions: 200000000 cycles: 1099664639
ITLB TOTAL     ACCESS:   42180294  HIT:   42180294  MISS:          0  HIT %:        100  MISS %:          0   MPKI: 0
ITLB Test counter:          0
ITLB LOAD TRANSLATION ACCESS:   42180294  HIT:   42180294  MISS:          0  HIT %:        100  MISS %:          0   MPKI: 0
ITLB PREFETCH  REQUESTED:          0  ISSUED:          0  USEFUL:          0  USELESS:          0
ITLB USEFUL LOAD PREFETCHES:          0 PREFETCH ISSUED TO LOWER LEVEL:          0  ACCURACY: -nan
ITLB TIMELY PREFETCHES:          0 LATE PREFETCHES: 0 DROPPED PREFETCHES: 0
ITLB COMMIT LATE PREFETCHES: 0 MISSED OPPORTUNITY: 0 LATE IN PQ: 0 UNCOVERED: 0
ITLB COMMIT LATE MSHR PREFETCHES: 0
ITLB MPKI TOTAL: 0 MSHR LATE: 0 PQ LATE: 0 COMMIT LATE: 0 MISSED OPPORTUNITY: 0 UNCOVERED: 0
ITLB PREFETCHES SAME FILL-ORIGIN LEVEL: 0 DIFFERENT FILL-ORIGIN LEVEL: 0
ITLB AVERAGE MISS LATENCY: -nan cycles
ITLB AVERAGE MISS LATENCY LOAD: -nan cycles
ITLB AVERAGE MISS LATENCY PREFETCH: -nan cycles
ITLB AVERAGE MSHR OCCUPANCY: 0
ITLB MSHR FULL: 0
ITLB RQ	ACCESS:   42460373	FORWARD:          0	MERGED:     280080	TO_CACHE:   42180293

DTLB TOTAL     ACCESS:   47158501  HIT:   36801112  MISS:   10357389  HIT %:    78.0371  MISS %:    21.9629   MPKI: 51.7869
DTLB Test counter:          0
DTLB LOAD TRANSLATION ACCESS:   47158501  HIT:   36801112  MISS:   10357389  HIT %:    78.0371  MISS %:    21.9629   MPKI: 51.7869
DTLB PREFETCH  REQUESTED:          0  ISSUED:          0  USEFUL:          0  USELESS:          0
DTLB USEFUL LOAD PREFETCHES:          0 PREFETCH ISSUED TO LOWER LEVEL:          0  ACCURACY: -nan
DTLB TIMELY PREFETCHES:          0 LATE PREFETCHES: 0 DROPPED PREFETCHES: 0
DTLB COMMIT LATE PREFETCHES: 0 MISSED OPPORTUNITY: 0 LATE IN PQ: 0 UNCOVERED: 0
DTLB COMMIT LATE MSHR PREFETCHES: 0
DTLB MPKI TOTAL: 0 MSHR LATE: 0 PQ LATE: 0 COMMIT LATE: 0 MISSED OPPORTUNITY: 0 UNCOVERED: 0
DTLB PREFETCHES SAME FILL-ORIGIN LEVEL: 0 DIFFERENT FILL-ORIGIN LEVEL: 0
DTLB AVERAGE MISS LATENCY: 14.7941 cycles
DTLB AVERAGE MISS LATENCY LOAD: -nan cycles
DTLB AVERAGE MISS LATENCY PREFETCH: -nan cycles
DTLB AVERAGE MSHR OCCUPANCY: 0.322472
DTLB MSHR FULL: 0.00362907
DTLB RQ	ACCESS:   48635454	FORWARD:          0	MERGED:    1097545	TO_CACHE:   47537909

STLB TOTAL     ACCESS:   11492687  HIT:    9314680  MISS:    2178007  HIT %:    81.0488  MISS %:    18.9512   MPKI: 10.89
STLB Test counter:          0
STLB LOAD TRANSLATION ACCESS:   10357389  HIT:    8179699  MISS:    2177690  HIT %:    78.9745  MISS %:    21.0255   MPKI: 10.8885
STLB TRANSLATION FROM L1D PREFETCHER ACCESS:    1135298  HIT:    1134981  MISS:        317  HIT %:    99.9721  MISS %:  0.0279222   MPKI: 0.001585
STLB PREFETCH  REQUESTED:          0  ISSUED:          0  USEFUL:        225  USELESS:         92
STLB USEFUL LOAD PREFETCHES:        225 PREFETCH ISSUED TO LOWER LEVEL:          0  ACCURACY: inf
STLB TIMELY PREFETCHES:        225 LATE PREFETCHES: 0 DROPPED PREFETCHES: 0
STLB COMMIT LATE PREFETCHES: 0 MISSED OPPORTUNITY: 0 LATE IN PQ: 0 UNCOVERED: 0
STLB COMMIT LATE MSHR PREFETCHES: 0
STLB MPKI TOTAL: 0 MSHR LATE: 0 PQ LATE: 0 COMMIT LATE: 0 MISSED OPPORTUNITY: 0 UNCOVERED: 0
STLB PREFETCHES SAME FILL-ORIGIN LEVEL: 0 DIFFERENT FILL-ORIGIN LEVEL: 0
STLB AVERAGE MISS LATENCY: 26.7916 cycles
STLB AVERAGE MISS LATENCY LOAD: -nan cycles
STLB AVERAGE MISS LATENCY PREFETCH: -nan cycles
STLB AVERAGE MSHR OCCUPANCY: 0.122348
STLB MSHR FULL: 0
STLB RQ	ACCESS:   13634531	FORWARD:          0	MERGED:    2141844	TO_CACHE:   11492687

STLB Hit, L1D data hit: 0
STLB Hit, L2C data hit: 0
STLB Hit, LLC data hit: 0
STLB Hit, LLC data miss: 0
STLB STLB hints to L2: 0
L1D TOTAL     ACCESS:   51519708  HIT:   33142304  MISS:   18377404  HIT %:    64.3294  MISS %:    35.6706   MPKI: 91.887
L1D Test counter:          0
L1D LOAD      ACCESS:   41770865  HIT:   24853784  MISS:   17165272  HIT %:    59.5003  MISS %:    40.4997   MPKI: 84.5854
L1D RFO       ACCESS:    6574387  HIT:    6544737  MISS:      29650  HIT %:     99.549  MISS %:   0.450993   MPKI: 0.14825
L1D PREFETCH  ACCESS:    3174456  HIT:    1743783  MISS:    1430673  HIT %:    54.9317  MISS %:    45.0683   MPKI: 7.15336
L1D PREFETCH  REQUESTED:    6584676  ISSUED:    6584676  USEFUL:     888817  USELESS:     541855
L1D USEFUL LOAD PREFETCHES:     888817 PREFETCH ISSUED TO LOWER LEVEL:    1492066  ACCURACY: 59.5695
L1D TIMELY PREFETCHES:     888817 LATE PREFETCHES: 25291 DROPPED PREFETCHES: 0
L1D COMMIT LATE PREFETCHES: 0 MISSED OPPORTUNITY: 0 LATE IN PQ: 19902 UNCOVERED: 0
L1D COMMIT LATE MSHR PREFETCHES: 0
L1D MPKI TOTAL: 85.8264 MSHR LATE: 0.126455 PQ LATE: 0.09951 COMMIT LATE: 0 MISSED OPPORTUNITY: 0 UNCOVERED: 0
L1D PREFETCHES SAME FILL-ORIGIN LEVEL: 1455964 DIFFERENT FILL-ORIGIN LEVEL: 36102
L1D AVERAGE MISS LATENCY: 125.977 cycles
L1D AVERAGE MISS LATENCY LOAD: 119.018 cycles
L1D AVERAGE MISS LATENCY PREFETCH: 204.972 cycles
L1D AVERAGE MSHR OCCUPANCY: 1.75361
L1D MSHR FULL: 0.00841362
L1D RQ	ACCESS:   47918636	FORWARD:          0	MERGED:    5895488	TO_CACHE:   42019054
L1D WQ	ACCESS:    6628508	FORWARD:       4094	MERGED:      12108	TO_CACHE:    6616400
L1D PQ	ACCESS:    3307534	FORWARD:          0	MERGED:      30392	TO_CACHE:    3277142

L1D UNIQUE REGIONS ACCESSED: 0
L1D REGIONS CONFLICTS: 0
L1D Cross Page Prefetch Requests: 0
L1D Same Page Prefetch Requests: 4634453
L1D ROI Sum of L1D PQ occupancy: 44428441
L1D PREFETCHES PUSHED FROM L2C: 0
14e344ea8650: 8
55fe0cfa9ff8: 10
14e344ea86c3: 14
14e344ea8672: 14
55fe0cfa8770: 14
14e344ea863e: 14
55fe0cfa9ea5: 14
55fe0cfa9f15: 14
55fe0cfaa03f: 14
55fe0cfa9f0a: 14
55fe0cfa9f20: 121
55fe0cfa9efb: 397
55fe0cfa9e7b: 4558
55fe0cfa9e73: 5190
55fe0cfa9f25: 5249
55fe0cfa9e70: 7493
14e344ea8682: 14079
55fe0cfa9ec6: 22672
55fe0cfa9ebf: 25186
55fe0cfa9e77: 30608
55fe0cfa9ed6: 96613
55fe0cfa9eca: 3010810
55fe0cfa9ee2: 13693975
L1I TOTAL     ACCESS:   42460374  HIT:   42460374  MISS:          0  HIT %:        100  MISS %:          0   MPKI: 0
L1I Test counter:          0
L1I LOAD      ACCESS:   42460374  HIT:   42460374  MISS:          0  HIT %:        100  MISS %:          0   MPKI: 0
L1I PREFETCH  REQUESTED:          0  ISSUED:          0  USEFUL:          0  USELESS:          0
L1I USEFUL LOAD PREFETCHES:          0 PREFETCH ISSUED TO LOWER LEVEL:          0  ACCURACY: -nan
L1I TIMELY PREFETCHES:          0 LATE PREFETCHES: 0 DROPPED PREFETCHES: 0
L1I COMMIT LATE PREFETCHES: 0 MISSED OPPORTUNITY: 0 LATE IN PQ: 0 UNCOVERED: 0
L1I COMMIT LATE MSHR PREFETCHES: 0
L1I MPKI TOTAL: 0 MSHR LATE: 0 PQ LATE: 0 COMMIT LATE: 0 MISSED OPPORTUNITY: 0 UNCOVERED: 0
L1I PREFETCHES SAME FILL-ORIGIN LEVEL: 0 DIFFERENT FILL-ORIGIN LEVEL: 0
L1I AVERAGE MISS LATENCY: -nan cycles
L1I AVERAGE MISS LATENCY LOAD: -nan cycles
L1I AVERAGE MISS LATENCY PREFETCH: -nan cycles
L1I AVERAGE MSHR OCCUPANCY: 0
L1I MSHR FULL: 0
L1I RQ	ACCESS:   56789581	FORWARD:          0	MERGED:   14329208	TO_CACHE:   42460373

BTB TOTAL     ACCESS:   43358648  HIT:   43358634  MISS:         14  HIT %:        100  MISS %: 3.22888e-05   MPKI: 7e-05
BTB Test counter:          0
BTB BRANCH_DIRECT_JUMP	ACCESS:     271551  HIT:     271547  MISS:          4
BTB BRANCH_INDIRECT	ACCESS:          0  HIT:          0  MISS:          0
BTB BRANCH_CONDITIONAL	ACCESS:   43087069  HIT:   43087061  MISS:          8
BTB BRANCH_DIRECT_CALL	ACCESS:         14  HIT:         13  MISS:          1
BTB BRANCH_INDIRECT_CALL	ACCESS:          0  HIT:          0  MISS:          0
BTB BRANCH_RETURN	ACCESS:         14  HIT:         13  MISS:          1
BTB BRANCH_OTHER ACCESS:          0  HIT:          0  MISS:          0

L2C TOTAL     ACCESS:   23906369  HIT:    8676423  MISS:   15229946  HIT %:    36.2934  MISS %:    63.7066   MPKI: 76.1497
L2C Test counter:          0
L2C LOAD      ACCESS:   16891788  HIT:    3303373  MISS:   13588416  HIT %:    19.5561  MISS %:    80.4439   MPKI: 67.9421
L2C DATA LOAD MPKI: 67.9421
L2C INSTRUCTION LOAD MPKI: 0
L2C RFO       ACCESS:      29650  HIT:        913  MISS:      28737  HIT %:    3.07926  MISS %:    96.9207   MPKI: 0.143685
L2C PREFETCH  ACCESS:    1485417  HIT:      42140  MISS:    1443277  HIT %:    2.83691  MISS %:    97.1631   MPKI: 7.21638
L2C DATA PREFETCH MPKI: 7.21638
L2C INSTRUCTION PREFETCH MPKI: 0
L2C WRITEBACK ACCESS:    3320859  HIT:    3320366  MISS:        493  HIT %:    99.9852  MISS %:  0.0148456   MPKI: 0.002465
L2C LOAD TRANSLATION ACCESS:    2178338  HIT:    2009334  MISS:     169004  HIT %:    92.2416  MISS %:    7.75839   MPKI: 0.84502
L2C TRANSLATION FROM L1D PREFETCHER ACCESS:        317  HIT:        297  MISS:         20  HIT %:    93.6909  MISS %:    6.30915   MPKI: 0.0001
L2C PREFETCH  REQUESTED:          0  ISSUED:          0  USEFUL:      28268  USELESS:    1415004
L2C USEFUL LOAD PREFETCHES:      28268 PREFETCH ISSUED TO LOWER LEVEL:    1447952  ACCURACY: 1.95227
L2C TIMELY PREFETCHES:      28268 LATE PREFETCHES: 4675 DROPPED PREFETCHES: 0
L2C COMMIT LATE PREFETCHES: 0 MISSED OPPORTUNITY: 0 LATE IN PQ: 0 UNCOVERED: 0
L2C COMMIT LATE MSHR PREFETCHES: 0
L2C MPKI TOTAL: 67.9421 MSHR LATE: 0.023375 PQ LATE: 0 COMMIT LATE: 0 MISSED OPPORTUNITY: 0 UNCOVERED: 0
L2C PREFETCHES SAME FILL-ORIGIN LEVEL: 33502 DIFFERENT FILL-ORIGIN LEVEL: 0
L2C AVERAGE MISS LATENCY: 135.085 cycles
L2C AVERAGE MISS LATENCY LOAD: 129.369 cycles
L2C AVERAGE MISS LATENCY PREFETCH: 194.31 cycles
L2C AVERAGE MSHR OCCUPANCY: 1.98487
L2C MSHR FULL: 0
L2C RQ	ACCESS:   19100095	FORWARD:          0	MERGED:          0	TO_CACHE:   19100094
L2C WQ	ACCESS:    3320859	FORWARD:          1	MERGED:          0	TO_CACHE:    3320859
L2C PQ	ACCESS:    1492066	FORWARD:          0	MERGED:          1	TO_CACHE:    1492065

L2C Instructions Evicting Data 0
L2C Translations Evicting Data 163034
L2C Data Evicting Data 14897385
L2C Instructions Evicting Instructions 0
L2C Translations Evicting Instructions 0
L2C Data Evicting Instructions 0
L2C Instructions Evicting Translations 0
L2C Translations Evicting Translations 5990
L2C Data Evicting Translations 163044
L2C Dense regions hint from L2: 0
55fe0cfa9ff8: 2
55fe0cfa9efb: 2
14e344ea863e: 13
14e344ea8672: 14
55fe0cfa9ea5: 14
55fe0cfa8770: 14
55fe0cfa9f25: 261
55fe0cfa9e73: 478
55fe0cfa9e70: 1015
55fe0cfa9e7b: 4432
14e344ea8682: 11383
55fe0cfa9ebf: 19796
55fe0cfa9ec6: 20587
55fe0cfa9e77: 29314
55fe0cfa9ed6: 96112
55fe0cfa9eca: 2934480
55fe0cfa9ee2: 10470498
PSCL5 TOTAL     ACCESS:    2178007  HIT:    2178007  MISS:          0  HIT %:        100  MISS %:          0   MPKI: 0
PSCL5 Test counter:          0
PSCL5 LOAD TRANSLATION ACCESS:    2177690  HIT:    2177690  MISS:          0  HIT %:        100  MISS %:          0   MPKI: 0
PSCL5 TRANSLATION FROM L1D PREFETCHER ACCESS:        317  HIT:        317  MISS:          0  HIT %:        100  MISS %:          0   MPKI: 0
PSCL5 PREFETCH  REQUESTED:          0  ISSUED:          0  USEFUL:          0  USELESS:          0
PSCL5 USEFUL LOAD PREFETCHES:          0 PREFETCH ISSUED TO LOWER LEVEL:          0  ACCURACY: -nan
PSCL5 TIMELY PREFETCHES:          0 LATE PREFETCHES: 0 DROPPED PREFETCHES: 0
PSCL5 COMMIT LATE PREFETCHES: 0 MISSED OPPORTUNITY: 0 LATE IN PQ: 0 UNCOVERED: 0
PSCL5 COMMIT LATE MSHR PREFETCHES: 0
PSCL5 MPKI TOTAL: 0 MSHR LATE: 0 PQ LATE: 0 COMMIT LATE: 0 MISSED OPPORTUNITY: 0 UNCOVERED: 0
PSCL5 PREFETCHES SAME FILL-ORIGIN LEVEL: 0 DIFFERENT FILL-ORIGIN LEVEL: 0

PSCL4 TOTAL     ACCESS:    2178007  HIT:    2178007  MISS:          0  HIT %:        100  MISS %:          0   MPKI: 0
PSCL4 Test counter:          0
PSCL4 LOAD TRANSLATION ACCESS:    2177690  HIT:    2177690  MISS:          0  HIT %:        100  MISS %:          0   MPKI: 0
PSCL4 TRANSLATION FROM L1D PREFETCHER ACCESS:        317  HIT:        317  MISS:          0  HIT %:        100  MISS %:          0   MPKI: 0
PSCL4 PREFETCH  REQUESTED:          0  ISSUED:          0  USEFUL:          0  USELESS:          0
PSCL4 USEFUL LOAD PREFETCHES:          0 PREFETCH ISSUED TO LOWER LEVEL:          0  ACCURACY: -nan
PSCL4 TIMELY PREFETCHES:          0 LATE PREFETCHES: 0 DROPPED PREFETCHES: 0
PSCL4 COMMIT LATE PREFETCHES: 0 MISSED OPPORTUNITY: 0 LATE IN PQ: 0 UNCOVERED: 0
PSCL4 COMMIT LATE MSHR PREFETCHES: 0
PSCL4 MPKI TOTAL: 0 MSHR LATE: 0 PQ LATE: 0 COMMIT LATE: 0 MISSED OPPORTUNITY: 0 UNCOVERED: 0
PSCL4 PREFETCHES SAME FILL-ORIGIN LEVEL: 0 DIFFERENT FILL-ORIGIN LEVEL: 0

PSCL3 TOTAL     ACCESS:    2178007  HIT:    2178007  MISS:          0  HIT %:        100  MISS %:          0   MPKI: 0
PSCL3 Test counter:          0
PSCL3 LOAD TRANSLATION ACCESS:    2177690  HIT:    2177690  MISS:          0  HIT %:        100  MISS %:          0   MPKI: 0
PSCL3 TRANSLATION FROM L1D PREFETCHER ACCESS:        317  HIT:        317  MISS:          0  HIT %:        100  MISS %:          0   MPKI: 0
PSCL3 PREFETCH  REQUESTED:          0  ISSUED:          0  USEFUL:          0  USELESS:          0
PSCL3 USEFUL LOAD PREFETCHES:          0 PREFETCH ISSUED TO LOWER LEVEL:          0  ACCURACY: -nan
PSCL3 TIMELY PREFETCHES:          0 LATE PREFETCHES: 0 DROPPED PREFETCHES: 0
PSCL3 COMMIT LATE PREFETCHES: 0 MISSED OPPORTUNITY: 0 LATE IN PQ: 0 UNCOVERED: 0
PSCL3 COMMIT LATE MSHR PREFETCHES: 0
PSCL3 MPKI TOTAL: 0 MSHR LATE: 0 PQ LATE: 0 COMMIT LATE: 0 MISSED OPPORTUNITY: 0 UNCOVERED: 0
PSCL3 PREFETCHES SAME FILL-ORIGIN LEVEL: 0 DIFFERENT FILL-ORIGIN LEVEL: 0

PSCL2 TOTAL     ACCESS:    2178007  HIT:    2177359  MISS:        648  HIT %:    99.9702  MISS %:   0.029752   MPKI: 0.00324
PSCL2 Test counter:          0
PSCL2 LOAD TRANSLATION ACCESS:    2177690  HIT:    2177042  MISS:        648  HIT %:    99.9702  MISS %:  0.0297563   MPKI: 0.00324
PSCL2 TRANSLATION FROM L1D PREFETCHER ACCESS:        317  HIT:        317  MISS:          0  HIT %:        100  MISS %:          0   MPKI: 0
PSCL2 PREFETCH  REQUESTED:          0  ISSUED:          0  USEFUL:          0  USELESS:          0
PSCL2 USEFUL LOAD PREFETCHES:          0 PREFETCH ISSUED TO LOWER LEVEL:          0  ACCURACY: -nan
PSCL2 TIMELY PREFETCHES:          0 LATE PREFETCHES: 0 DROPPED PREFETCHES: 0
PSCL2 COMMIT LATE PREFETCHES: 0 MISSED OPPORTUNITY: 0 LATE IN PQ: 0 UNCOVERED: 0
PSCL2 COMMIT LATE MSHR PREFETCHES: 0
PSCL2 MPKI TOTAL: 0 MSHR LATE: 0 PQ LATE: 0 COMMIT LATE: 0 MISSED OPPORTUNITY: 0 UNCOVERED: 0
PSCL2 PREFETCHES SAME FILL-ORIGIN LEVEL: 0 DIFFERENT FILL-ORIGIN LEVEL: 0

LLC TOTAL     ACCESS:   18474312  HIT:    9212393  MISS:    9261919  HIT %:     49.866  MISS %:     50.134   MPKI: 46.3096
LLC Test counter:          0
LLC LOAD      ACCESS:   13583739  HIT:    5709589  MISS:    7874151  HIT %:    42.0325  MISS %:    57.9675   MPKI: 39.3708
LLC RFO       ACCESS:      28737  HIT:        592  MISS:      28145  HIT %:    2.06006  MISS %:    97.9399   MPKI: 0.140725
LLC PREFETCH  ACCESS:    1447952  HIT:     122382  MISS:    1325570  HIT %:    8.45208  MISS %:    91.5479   MPKI: 6.62785
LLC WRITEBACK ACCESS:    3244860  HIT:    3244332  MISS:        528  HIT %:    99.9837  MISS %:  0.0162719   MPKI: 0.00264
LLC LOAD TRANSLATION ACCESS:     169004  HIT:     135484  MISS:      33520  HIT %:    80.1661  MISS %:    19.8339   MPKI: 0.1676
LLC TRANSLATION FROM L1D PREFETCHER ACCESS:         20  HIT:         14  MISS:          6  HIT %:         70  MISS %:         30   MPKI: 3e-05
LLC PREFETCH  REQUESTED:          0  ISSUED:          0  USEFUL:      66211  USELESS:    1259511
LLC USEFUL LOAD PREFETCHES:      66211 PREFETCH ISSUED TO LOWER LEVEL:    1325570  ACCURACY: 4.99491
LLC TIMELY PREFETCHES:      66211 LATE PREFETCHES: 0 DROPPED PREFETCHES: 0
LLC COMMIT LATE PREFETCHES: 0 MISSED OPPORTUNITY: 0 LATE IN PQ: 0 UNCOVERED: 0
LLC COMMIT LATE MSHR PREFETCHES: 0
LLC MPKI TOTAL: 39.3708 MSHR LATE: 0 PQ LATE: 0 COMMIT LATE: 0 MISSED OPPORTUNITY: 0 UNCOVERED: 0
LLC PREFETCHES SAME FILL-ORIGIN LEVEL: 0 DIFFERENT FILL-ORIGIN LEVEL: 0
LLC AVERAGE MISS LATENCY: 172.783 cycles
LLC AVERAGE MISS LATENCY LOAD: 171.279 cycles
LLC AVERAGE MISS LATENCY PREFETCH: 180.005 cycles
LLC AVERAGE MSHR OCCUPANCY: 1.45958
LLC MSHR FULL: 0
LLC RQ	ACCESS:   13781502	FORWARD:          0	MERGED:          0	TO_CACHE:   13781501
LLC WQ	ACCESS:    3244860	FORWARD:          1	MERGED:          0	TO_CACHE:    3244860
LLC PQ	ACCESS:    1447952	FORWARD:          0	MERGED:          0	TO_CACHE:    1447952

LLC Dense regions hint to LLC: 0
55fe0cfa9ff8: 1
14e344ea863e: 10
55fe0cfa9ea5: 14
14e344ea8672: 14
55fe0cfa8770: 14
55fe0cfa9e70: 75
55fe0cfa9f25: 123
55fe0cfa9e73: 139
55fe0cfa9e7b: 4429
14e344ea8682: 7045
55fe0cfa9ec6: 18666
55fe0cfa9ebf: 19795
55fe0cfa9e77: 29287
55fe0cfa9ed6: 96112
55fe0cfa9eca: 2531054
55fe0cfa9ee2: 5167372

RAW hits: 84302
Loads Generated: 48002938
Loads sent to L1D: 47918636
Stores Generated: 6628504
Stores sent to L1D: 6628508
Major fault: 0 Minor fault: 32429
Allocated PAGES: 32429
Total Load insts: 59479739
Total Non-spec loads: 4517268
Percentage of speculative loads: 92.4054
L1D response latency: 119.196 cycles
Load retirement latency: 223.049 cycles

CPU 0 L1D PC-based stride prefetcher final stats
Degree: 3

DRAM Statistics
 CHANNEL 0
 RQ ROW_BUFFER_HIT:    1298038  ROW_BUFFER_MISS:    7963283
 DBUS_CONGESTED:       4854
 WQ ROW_BUFFER_HIT:    1770030  ROW_BUFFER_MISS:    1074196  FULL:          0

 AVG_CONGESTED_CYCLE: 4
 All warmup complete: 2
Channel 0 Bank busy for read cycles: 0
Channel 0 Bank busy for write cycles: 0
Channel 0
Rank 0
0banks busy for read cycles: 80725855
0banks busy for write cycles: 619787
1banks busy for read cycles: 326247694
1banks busy for write cycles: 131294080
2banks busy for read cycles: 220178737
2banks busy for write cycles: 106147563
3banks busy for read cycles: 92816442
3banks busy for write cycles: 57204934
4banks busy for read cycles: 35412987
4banks busy for write cycles: 23816320
5banks busy for read cycles: 10779249
5banks busy for write cycles: 8169393
6banks busy for read cycles: 2241793
6banks busy for write cycles: 2361963
7banks busy for read cycles: 418236
7banks busy for write cycles: 591992
8banks busy for read cycles: 337750
8banks busy for write cycles: 299865

CPU 0 Branch Prediction Accuracy: 92.9184% MPKI: 15.3683 Average ROB Occupancy at Mispredict: 45.7111
Branch types
NOT_BRANCH: 156596208 78.2981%
BRANCH_DIRECT_JUMP: 271551 0.135775%
BRANCH_INDIRECT: 0 0%
BRANCH_CONDITIONAL: 43131869 21.5659%
BRANCH_DIRECT_CALL: 14 7e-06%
BRANCH_INDIRECT_CALL: 0 0%
BRANCH_RETURN: 14 7e-06%
BRANCH_OTHER: 0 0%

DRAM PAGES: 1048576
Allocated PAGES: 32429
