
*** ChampSim Multicore Out-of-Order Simulator ***

Warmup Instructions: 50000000
Simulation Instructions: 200000000
Number of CPUs: 1
LLC sets: 2048
LLC ways: 16
Secure Berti: OFF
Berti: OFF
Berti Fill: OFF
On commit prefetching: OFF
L2 LLC Bypass speculative loads: OFF
Off-chip DRAM Size: 4096 MB Channels: 1 Width: 64-bit Data Rate: 6400 MT/s
CPU 0 runs /home/sumon/secure_berti/Berti_Baseline/../../traces/gap/bfs-3.trace.gz
.gz
BTB has LRU replacement policy
ITLB has LRU replacement policy
DTLB has LRU replacement policy
STLB has LRU replacement policy
L1I has LRU replacement policy
CPU 0 L1D IP-based stride prefetcher
L1D has LRU replacement policy
L2C has LRU replacement policy
LLC has LRU replacement policy
Heartbeat CPU 0 instructions: 10000002 cycles: 2973037 heartbeat IPC: 3.36356 cumulative IPC: 3.36356 (Simulation time: 0 hr 0 min 9 sec) 
Heartbeat CPU 0 instructions: 20000003 cycles: 5981022 heartbeat IPC: 3.32449 cumulative IPC: 3.34391 (Simulation time: 0 hr 0 min 20 sec) 
Heartbeat CPU 0 instructions: 30000001 cycles: 8978741 heartbeat IPC: 3.33587 cumulative IPC: 3.34123 (Simulation time: 0 hr 0 min 31 sec) 
Heartbeat CPU 0 instructions: 40000002 cycles: 11976062 heartbeat IPC: 3.33631 cumulative IPC: 3.34 (Simulation time: 0 hr 0 min 42 sec) 
Heartbeat CPU 0 instructions: 50000000 cycles: 15007322 heartbeat IPC: 3.29896 cumulative IPC: 3.33171 (Simulation time: 0 hr 0 min 54 sec) 

Warmup complete CPU 0 instructions: 50000004 cycles: 15007323 (Simulation time: 0 hr 0 min 54 sec) 

Heartbeat CPU 0 instructions: 60000000 cycles: 62649273 heartbeat IPC: 0.209899 cumulative IPC: 0.209899 (Simulation time: 0 hr 1 min 19 sec) 
Heartbeat CPU 0 instructions: 70000002 cycles: 89116794 heartbeat IPC: 0.377822 cumulative IPC: 0.269871 (Simulation time: 0 hr 1 min 38 sec) 
Heartbeat CPU 0 instructions: 80000001 cycles: 102904318 heartbeat IPC: 0.725293 cumulative IPC: 0.341309 (Simulation time: 0 hr 1 min 54 sec) 
Heartbeat CPU 0 instructions: 90000000 cycles: 122714212 heartbeat IPC: 0.504798 cumulative IPC: 0.371378 (Simulation time: 0 hr 2 min 12 sec) 
Heartbeat CPU 0 instructions: 100000001 cycles: 159243117 heartbeat IPC: 0.273756 cumulative IPC: 0.346655 (Simulation time: 0 hr 2 min 37 sec) 
Heartbeat CPU 0 instructions: 110000000 cycles: 198770141 heartbeat IPC: 0.252991 cumulative IPC: 0.326508 (Simulation time: 0 hr 3 min 3 sec) 
Heartbeat CPU 0 instructions: 120000001 cycles: 242814057 heartbeat IPC: 0.227046 cumulative IPC: 0.307278 (Simulation time: 0 hr 3 min 30 sec) 
Heartbeat CPU 0 instructions: 130000000 cycles: 280881151 heartbeat IPC: 0.262694 cumulative IPC: 0.300895 (Simulation time: 0 hr 3 min 53 sec) 
Heartbeat CPU 0 instructions: 140000002 cycles: 302317500 heartbeat IPC: 0.466497 cumulative IPC: 0.31325 (Simulation time: 0 hr 4 min 11 sec) 
Heartbeat CPU 0 instructions: 150000000 cycles: 319465749 heartbeat IPC: 0.58315 cumulative IPC: 0.328452 (Simulation time: 0 hr 4 min 29 sec) 
Heartbeat CPU 0 instructions: 160000001 cycles: 343304708 heartbeat IPC: 0.419481 cumulative IPC: 0.335062 (Simulation time: 0 hr 4 min 49 sec) 
Heartbeat CPU 0 instructions: 170000000 cycles: 389416059 heartbeat IPC: 0.216866 cumulative IPC: 0.320505 (Simulation time: 0 hr 5 min 19 sec) 
Heartbeat CPU 0 instructions: 180000003 cycles: 427006641 heartbeat IPC: 0.266024 cumulative IPC: 0.315535 (Simulation time: 0 hr 5 min 51 sec) 
Heartbeat CPU 0 instructions: 190000000 cycles: 453588824 heartbeat IPC: 0.376192 cumulative IPC: 0.319211 (Simulation time: 0 hr 6 min 21 sec) 
Heartbeat CPU 0 instructions: 200000000 cycles: 500544953 heartbeat IPC: 0.212965 cumulative IPC: 0.308936 (Simulation time: 0 hr 6 min 49 sec) 
Heartbeat CPU 0 instructions: 210000002 cycles: 542272205 heartbeat IPC: 0.239652 cumulative IPC: 0.303453 (Simulation time: 0 hr 7 min 16 sec) 
Heartbeat CPU 0 instructions: 220000000 cycles: 566352981 heartbeat IPC: 0.415269 cumulative IPC: 0.308336 (Simulation time: 0 hr 7 min 36 sec) 
Heartbeat CPU 0 instructions: 230000000 cycles: 581153409 heartbeat IPC: 0.675656 cumulative IPC: 0.317939 (Simulation time: 0 hr 7 min 55 sec) 
Heartbeat CPU 0 instructions: 240000000 cycles: 602945155 heartbeat IPC: 0.458889 cumulative IPC: 0.323163 (Simulation time: 0 hr 8 min 16 sec) 
Heartbeat CPU 0 instructions: 250000001 cycles: 639348953 heartbeat IPC: 0.274697 cumulative IPC: 0.320337 (Simulation time: 0 hr 8 min 43 sec) 
Finished CPU 0 instructions: 200000000 cycles: 624341655 cumulative IPC: 0.320337 (Simulation time: 0 hr 8 min 43 sec) 

ChampSim completed all CPUs

Region of Interest Statistics

CPU 0 cumulative IPC: 0.320337 instructions: 200000000 cycles: 624341655
ITLB TOTAL     ACCESS:   33870442  HIT:   33870442  MISS:          0  HIT %:        100  MISS %:          0   MPKI: 0
ITLB Test counter:          0
ITLB LOAD TRANSLATION ACCESS:   33870442  HIT:   33870442  MISS:          0  HIT %:        100  MISS %:          0   MPKI: 0
ITLB PREFETCH  REQUESTED:          0  ISSUED:          0  USEFUL:          0  USELESS:          0
ITLB USEFUL LOAD PREFETCHES:          0 PREFETCH ISSUED TO LOWER LEVEL:          0  ACCURACY: -nan
ITLB TIMELY PREFETCHES:          0 LATE PREFETCHES: 0 DROPPED PREFETCHES: 0
ITLB COMMIT LATE PREFETCHES: 0 MISSED OPPORTUNITY: 0 LATE IN PQ: 0 UNCOVERED: 0
ITLB COMMIT LATE MSHR PREFETCHES: 0
ITLB MPKI TOTAL: 0 MSHR LATE: 0 PQ LATE: 0 COMMIT LATE: 0 MISSED OPPORTUNITY: 0 UNCOVERED: 0
ITLB PREFETCHES SAME FILL-ORIGIN LEVEL: 0 DIFFERENT FILL-ORIGIN LEVEL: 0
ITLB AVERAGE MISS LATENCY: -nan cycles
ITLB AVERAGE MISS LATENCY LOAD: -nan cycles
ITLB AVERAGE MISS LATENCY PREFETCH: -nan cycles
ITLB AVERAGE MSHR OCCUPANCY: 0
ITLB MSHR FULL: 0
ITLB RQ	ACCESS:   41438258	FORWARD:          0	MERGED:    7567817	TO_CACHE:   33870441

DTLB TOTAL     ACCESS:   39950744  HIT:   39218693  MISS:     732051  HIT %:    98.1676  MISS %:    1.83238   MPKI: 3.66025
DTLB Test counter:          0
DTLB LOAD TRANSLATION ACCESS:   39950744  HIT:   39218693  MISS:     732051  HIT %:    98.1676  MISS %:    1.83238   MPKI: 3.66025
DTLB PREFETCH  REQUESTED:          0  ISSUED:          0  USEFUL:          0  USELESS:          0
DTLB USEFUL LOAD PREFETCHES:          0 PREFETCH ISSUED TO LOWER LEVEL:          0  ACCURACY: -nan
DTLB TIMELY PREFETCHES:          0 LATE PREFETCHES: 0 DROPPED PREFETCHES: 0
DTLB COMMIT LATE PREFETCHES: 0 MISSED OPPORTUNITY: 0 LATE IN PQ: 0 UNCOVERED: 0
DTLB COMMIT LATE MSHR PREFETCHES: 0
DTLB MPKI TOTAL: 0 MSHR LATE: 0 PQ LATE: 0 COMMIT LATE: 0 MISSED OPPORTUNITY: 0 UNCOVERED: 0
DTLB PREFETCHES SAME FILL-ORIGIN LEVEL: 0 DIFFERENT FILL-ORIGIN LEVEL: 0
DTLB AVERAGE MISS LATENCY: 25.4981 cycles
DTLB AVERAGE MISS LATENCY LOAD: -nan cycles
DTLB AVERAGE MISS LATENCY PREFETCH: -nan cycles
DTLB AVERAGE MSHR OCCUPANCY: 0.0216551
DTLB MSHR FULL: 0.000254031
DTLB RQ	ACCESS:   42578153	FORWARD:          0	MERGED:    2588581	TO_CACHE:   39989572

STLB TOTAL     ACCESS:    3241283  HIT:    3094751  MISS:     146532  HIT %:    95.4792  MISS %:     4.5208   MPKI: 0.73266
STLB Test counter:          0
STLB LOAD TRANSLATION ACCESS:     732051  HIT:     585540  MISS:     146511  HIT %:    79.9862  MISS %:    20.0138   MPKI: 0.732555
STLB TRANSLATION FROM L1D PREFETCHER ACCESS:    2509232  HIT:    2509211  MISS:         21  HIT %:    99.9992  MISS %: 0.000836909   MPKI: 0.000105
STLB PREFETCH  REQUESTED:          0  ISSUED:          0  USEFUL:          9  USELESS:         11
STLB USEFUL LOAD PREFETCHES:          9 PREFETCH ISSUED TO LOWER LEVEL:          0  ACCURACY: inf
STLB TIMELY PREFETCHES:          9 LATE PREFETCHES: 0 DROPPED PREFETCHES: 0
STLB COMMIT LATE PREFETCHES: 0 MISSED OPPORTUNITY: 0 LATE IN PQ: 0 UNCOVERED: 0
STLB COMMIT LATE MSHR PREFETCHES: 0
STLB MPKI TOTAL: 0 MSHR LATE: 0 PQ LATE: 0 COMMIT LATE: 0 MISSED OPPORTUNITY: 0 UNCOVERED: 0
STLB PREFETCHES SAME FILL-ORIGIN LEVEL: 0 DIFFERENT FILL-ORIGIN LEVEL: 0
STLB AVERAGE MISS LATENCY: 81.9621 cycles
STLB AVERAGE MISS LATENCY LOAD: -nan cycles
STLB AVERAGE MISS LATENCY PREFETCH: -nan cycles
STLB AVERAGE MSHR OCCUPANCY: 0.0127206
STLB MSHR FULL: 0
STLB RQ	ACCESS:    8397268	FORWARD:          0	MERGED:    5155985	TO_CACHE:    3241283

STLB Hit, L1D data hit: 0
STLB Hit, L2C data hit: 0
STLB Hit, LLC data hit: 0
STLB Hit, LLC data miss: 0
STLB STLB hints to L2: 0
L1D TOTAL     ACCESS:   47983952  HIT:   41222483  MISS:    6761469  HIT %:    85.9089  MISS %:    14.0911   MPKI: 33.8073
L1D Test counter:          0
L1D LOAD      ACCESS:   34907412  HIT:   31006267  MISS:    4128941  HIT %:    88.8243  MISS %:    11.1757   MPKI: 19.5057
L1D RFO       ACCESS:    6047256  HIT:    5758218  MISS:     289038  HIT %:    95.2203  MISS %:    4.77966   MPKI: 1.44519
L1D PREFETCH  ACCESS:    7029284  HIT:    4457998  MISS:    2571286  HIT %:    63.4204  MISS %:    36.5796   MPKI: 12.8564
L1D PREFETCH  REQUESTED:   16004112  ISSUED:   16004084  USEFUL:    2090805  USELESS:     480449
L1D USEFUL LOAD PREFETCHES:    2090805 PREFETCH ISSUED TO LOWER LEVEL:    2707036  ACCURACY: 77.236
L1D TIMELY PREFETCHES:    2090805 LATE PREFETCHES: 82126 DROPPED PREFETCHES: 0
L1D COMMIT LATE PREFETCHES: 0 MISSED OPPORTUNITY: 0 LATE IN PQ: 35957 UNCOVERED: 0
L1D COMMIT LATE MSHR PREFETCHES: 0
L1D MPKI TOTAL: 20.6447 MSHR LATE: 0.41063 PQ LATE: 0.179785 COMMIT LATE: 0 MISSED OPPORTUNITY: 0 UNCOVERED: 0
L1D PREFETCHES SAME FILL-ORIGIN LEVEL: 2653413 DIFFERENT FILL-ORIGIN LEVEL: 53623
L1D AVERAGE MISS LATENCY: 122.976 cycles
L1D AVERAGE MISS LATENCY LOAD: 95.2185 cycles
L1D AVERAGE MISS LATENCY PREFETCH: 158.745 cycles
L1D AVERAGE MSHR OCCUPANCY: 1.49973
L1D MSHR FULL: 0.0268188
L1D RQ	ACCESS:   47492815	FORWARD:          0	MERGED:   12290331	TO_CACHE:   35135208
L1D WQ	ACCESS:    7636820	FORWARD:      67276	MERGED:     193875	TO_CACHE:    7442945
L1D PQ	ACCESS:    8338867	FORWARD:          0	MERGED:     673650	TO_CACHE:    7665217

L1D UNIQUE REGIONS ACCESSED: 0
L1D REGIONS CONFLICTS: 0
L1D Cross Page Prefetch Requests: 0
L1D Same Page Prefetch Requests: 10851095
L1D ROI Sum of L1D PQ occupancy: 102580953
L1D PREFETCHES PUSHED FROM L2C: 0
1483c7051d7f: 1
1483c70755c5: 1
1483c707560c: 1
5556e3e3c30b: 1
1483c7051d3b: 2
5556e3e3c82f: 2
1483c70153c3: 3
1483c70153cc: 3
5556e3e3aaee: 3
5556e3e3c56f: 3
5556e3e3c603: 3
5556e3e3c4d5: 3
5556e3e3ae00: 3
5556e3e3c966: 3
5556e3e3c0e2: 3
5556e3e3c636: 3
5556e3e3c4ea: 3
1483c701286b: 3
5556e3e3c5c0: 3
1483c70155e5: 3
5556e3e3c914: 3
5556e3e3c930: 3
1483c706b143: 3
5556e3e3c93f: 3
1483c7051c4f: 3
5556e3e3c320: 3
5556e3e3ae6a: 3
5556e3e43ca0: 3
1483c704e5f4: 3
1483c704f123: 3
5556e3e3ab10: 3
1483c6fdb230: 3
1483c7045951: 3
1483c70153bc: 3
1483c6fdb040: 3
5556e3e3c73d: 3
1483c70ec254: 3
1483c70ec24b: 3
5556e3e3c5a7: 3
5556e3e3c4fc: 3
1483c70ec247: 3
1483c70ec240: 3
1483c701567a: 3
1483c701567e: 3
5556e3e3c5e8: 3
5556e3e3a330: 3
1483c7015530: 3
5556e3e43cb3: 4
1483c704e5a7: 4
5556e3e3c782: 6
5556e3e3c7a1: 6
5556e3e3c789: 6
5556e3e3c866: 6
5556e3e3c0ec: 7
5556e3e3ae73: 7
5556e3e3c5fe: 8
1483c704ef10: 9
1483c704e581: 10
1483c7051d43: 10
1483c704e4f8: 12
1483c70510af: 12
1483c7051076: 12
1483c707597f: 12
1483c704e58f: 12
5556e3e3a430: 12
1483c704e323: 12
1483c70510cf: 12
1483c704ef73: 12
1483c70510e3: 12
1483c704e574: 12
1483c70510c1: 12
1483c7051a27: 13
1483c7051971: 13
1483c7051c95: 13
1483c7051a09: 13
1483c70519a6: 13
1483c7051c61: 13
1483c7051c88: 13
1483c7051c6b: 13
1483c7051c45: 13
1483c705199f: 13
1483c7051d1a: 14
1483c79ead00: 16
1483c79eb3f0: 16
1483c7051961: 16
1483c7051978: 16
1483c705231c: 16
1483c7051e55: 16
5556e3e3a5d0: 16
1483c705198d: 17
1483c704e8e8: 19
5556e3e3a340: 19
1483c704e65b: 19
1483c79ea6d0: 22
1483c705107d: 22
1483c79eab30: 22
5556e3e3a690: 22
7ffcd2143d75: 28
5556e3e3c1b9: 30
5556e3e3c1a6: 30
1483c70756c3: 34
1483c707563e: 35
5556e3e3c054: 36
1483c7075672: 39
5556e3e3a6a0: 39
5556e3e3c2ba: 104
5556e3e3c09c: 494
5556e3e3c019: 513
5556e3e3c6c0: 529
5556e3e3c015: 571
5556e3e3c838: 1294
5556e3e3c024: 2643
1483c707568a: 3752
5556e3e3c7fd: 3813
5556e3e3c900: 5922
5556e3e3c7bd: 5969
5556e3e3c4a0: 6238
5556e3e3c7cb: 10597
5556e3e3c7cf: 10665
5556e3e3c020: 20224
5556e3e3c051: 25600
1483c707567f: 29545
5556e3e3c80b: 55394
5556e3e3c6d7: 149140
5556e3e3c7d9: 513288
5556e3e3c7e7: 762115
5556e3e3c063: 2291688
L1I TOTAL     ACCESS:   41438255  HIT:   41438238  MISS:         17  HIT %:        100  MISS %: 4.10249e-05   MPKI: 8.5e-05
L1I Test counter:          0
L1I LOAD      ACCESS:   41438255  HIT:   41438238  MISS:         19  HIT %:        100  MISS %: 4.10249e-05   MPKI: 8.5e-05
L1I PREFETCH  REQUESTED:          0  ISSUED:          0  USEFUL:          0  USELESS:          0
L1I USEFUL LOAD PREFETCHES:          0 PREFETCH ISSUED TO LOWER LEVEL:          0  ACCURACY: -nan
L1I TIMELY PREFETCHES:          0 LATE PREFETCHES: 0 DROPPED PREFETCHES: 0
L1I COMMIT LATE PREFETCHES: 0 MISSED OPPORTUNITY: 0 LATE IN PQ: 0 UNCOVERED: 0
L1I COMMIT LATE MSHR PREFETCHES: 0
L1I MPKI TOTAL: 9.5e-05 MSHR LATE: 0 PQ LATE: 0 COMMIT LATE: 0 MISSED OPPORTUNITY: 0 UNCOVERED: 0
L1I PREFETCHES SAME FILL-ORIGIN LEVEL: 0 DIFFERENT FILL-ORIGIN LEVEL: 0
L1I AVERAGE MISS LATENCY: 209.235 cycles
L1I AVERAGE MISS LATENCY LOAD: 209.235 cycles
L1I AVERAGE MISS LATENCY PREFETCH: -nan cycles
L1I AVERAGE MSHR OCCUPANCY: 1.93058e-07
L1I MSHR FULL: 0
L1I RQ	ACCESS:   64764505	FORWARD:          0	MERGED:   23326247	TO_CACHE:   41438258

5556e3e3acfd: 1
5556e3e3c180: 1
1483c7017103: 1
1483c7051cc1: 1
5556e3e3ab03: 1
1483c70170db: 1
5556e3e3c900: 1
1483c70755c3: 1
5556e3e3aac1: 1
1483c7075482: 1
5556e3e3c947: 1
5556e3e3c281: 1
5556e3e3c8c4: 1
5556e3e3c260: 1
5556e3e3c1c0: 1
5556e3e3c303: 1
5556e3e3c2c2: 1
BTB TOTAL     ACCESS:   40442089  HIT:   40441732  MISS:        357  HIT %:    99.9991  MISS %: 0.000882744   MPKI: 0.001785
BTB Test counter:          0
BTB BRANCH_DIRECT_JUMP	ACCESS:      22041  HIT:      21996  MISS:         45
BTB BRANCH_INDIRECT	ACCESS:          3  HIT:          2  MISS:          1
BTB BRANCH_CONDITIONAL	ACCESS:   40419305  HIT:   40419201  MISS:        104
BTB BRANCH_DIRECT_CALL	ACCESS:        361  HIT:        318  MISS:         43
BTB BRANCH_INDIRECT_CALL	ACCESS:          9  HIT:          6  MISS:          3
BTB BRANCH_RETURN	ACCESS:        370  HIT:        209  MISS:        161
BTB BRANCH_OTHER ACCESS:          0  HIT:          0  MISS:          0

L2C TOTAL     ACCESS:    8171488  HIT:    2660113  MISS:    5511375  HIT %:    32.5536  MISS %:    67.4464   MPKI: 27.5569
L2C Test counter:          0
L2C LOAD      ACCESS:    3819031  HIT:    1170862  MISS:    2648169  HIT %:    30.6586  MISS %:    69.3414   MPKI: 13.2408
L2C DATA LOAD MPKI: 13.2408
L2C INSTRUCTION LOAD MPKI: 8.5e-05
L2C RFO       ACCESS:     289038  HIT:       8437  MISS:     280601  HIT %:    2.91899  MISS %:     97.081   MPKI: 1.40301
L2C PREFETCH  ACCESS:    2692151  HIT:     143380  MISS:    2548771  HIT %:    5.32585  MISS %:    94.6741   MPKI: 12.7439
L2C DATA PREFETCH MPKI: 12.7439
L2C INSTRUCTION PREFETCH MPKI: 0
L2C WRITEBACK ACCESS:    1223681  HIT:    1223636  MISS:         45  HIT %:    99.9963  MISS %: 0.00367743   MPKI: 0.000225
L2C LOAD TRANSLATION ACCESS:     147566  HIT:     113793  MISS:      33773  HIT %:    77.1133  MISS %:    22.8867   MPKI: 0.168865
L2C TRANSLATION FROM L1D PREFETCHER ACCESS:         21  HIT:          5  MISS:         16  HIT %:    23.8095  MISS %:    76.1905   MPKI: 8e-05
L2C PREFETCH  REQUESTED:          0  ISSUED:          0  USEFUL:      17990  USELESS:    2531036
L2C USEFUL LOAD PREFETCHES:      17990 PREFETCH ISSUED TO LOWER LEVEL:    2557351  ACCURACY: 0.703462
L2C TIMELY PREFETCHES:      17990 LATE PREFETCHES: 8579 DROPPED PREFETCHES: 0
L2C COMMIT LATE PREFETCHES: 0 MISSED OPPORTUNITY: 0 LATE IN PQ: 0 UNCOVERED: 0
L2C COMMIT LATE MSHR PREFETCHES: 0
L2C MPKI TOTAL: 13.2408 MSHR LATE: 0.042895 PQ LATE: 0 COMMIT LATE: 0 MISSED OPPORTUNITY: 0 UNCOVERED: 0
L2C PREFETCHES SAME FILL-ORIGIN LEVEL: 43978 DIFFERENT FILL-ORIGIN LEVEL: 0
L2C AVERAGE MISS LATENCY: 136.567 cycles
L2C AVERAGE MISS LATENCY LOAD: 118.487 cycles
L2C AVERAGE MISS LATENCY PREFETCH: 150.908 cycles
L2C AVERAGE MSHR OCCUPANCY: 1.80987
L2C MSHR FULL: 0
L2C RQ	ACCESS:    4255661	FORWARD:          0	MERGED:          0	TO_CACHE:    4255656
L2C WQ	ACCESS:    1223681	FORWARD:          7	MERGED:          0	TO_CACHE:    1223681
L2C PQ	ACCESS:    2707036	FORWARD:          0	MERGED:         36	TO_CACHE:    2706998

L2C Instructions Evicting Data 16
L2C Translations Evicting Data 32982
L2C Data Evicting Data 5444496
L2C Instructions Evicting Instructions 0
L2C Translations Evicting Instructions 0
L2C Data Evicting Instructions 17
L2C Instructions Evicting Translations 1
L2C Translations Evicting Translations 807
L2C Data Evicting Translations 33011
L2C Dense regions hint from L2: 0
1483c7017103: 1
5556e3e3ab03: 1
5556e3e3aac1: 1
5556e3e3c947: 1
5556e3e3acfd: 1
5556e3e3c281: 1
5556e3e3c260: 1
5556e3e3c2c2: 1
5556e3e3c303: 1
5556e3e3c8c4: 1
1483c7075482: 1
1483c704e5a7: 1
5556e3e3c180: 1
1483c70755c3: 1
1483c70170db: 1
1483c7051c4f: 1
5556e3e3c1c0: 1
1483c7051d7f: 1
1483c70755c5: 1
1483c7051cc1: 1
1483c7051d3b: 2
5556e3e3c82f: 2
5556e3e3c73d: 2
5556e3e3ae6a: 3
1483c704ef10: 3
1483c7045951: 3
1483c6fdb230: 3
5556e3e3c4ea: 3
1483c701286b: 3
1483c70153c3: 3
5556e3e3c4fc: 3
1483c701567a: 3
1483c70ec240: 3
5556e3e43ca0: 3
1483c704e5f4: 3
1483c706b143: 3
5556e3e3c5c0: 3
5556e3e3c930: 3
1483c70155e5: 3
5556e3e3c914: 3
5556e3e3c93f: 3
1483c704f123: 3
1483c70153bc: 3
5556e3e3c966: 3
5556e3e3ae00: 3
5556e3e3c4d5: 3
1483c70ec254: 3
1483c70ec24b: 3
5556e3e3aaee: 3
1483c70153cc: 3
1483c6fdb040: 3
5556e3e3ab10: 3
5556e3e3a330: 3
1483c7015530: 3
1483c701567e: 3
1483c70ec247: 3
1483c704e581: 4
5556e3e43cb3: 4
5556e3e3c0ec: 5
1483c704e58f: 6
5556e3e3c866: 6
5556e3e3c7a1: 6
1483c70510af: 6
5556e3e3c782: 6
5556e3e3c5fe: 6
1483c704e574: 6
1483c7051076: 6
1483c704e323: 6
1483c70510cf: 6
1483c70510e3: 6
1483c704ef73: 6
1483c70510c1: 6
1483c704e4f8: 6
1483c7051c45: 7
1483c7051d43: 7
5556e3e3ae73: 7
1483c7051e55: 8
1483c705199f: 8
1483c7051c61: 8
1483c7051c95: 8
1483c7051c6b: 8
1483c70519a6: 8
1483c7051971: 9
1483c7051a09: 9
1483c7051c88: 9
1483c7051a27: 9
1483c704e65b: 9
5556e3e3a430: 9
5556e3e3a340: 9
1483c7051d1a: 10
1483c705107d: 11
1483c704e8e8: 11
1483c79ea6d0: 11
1483c79eab30: 12
1483c705198d: 13
5556e3e3a690: 14
5556e3e3a5d0: 14
1483c79eb3f0: 14
1483c7051978: 14
1483c705231c: 15
1483c7051961: 15
1483c79ead00: 15
7ffcd2143d75: 19
1483c707563e: 33
5556e3e3c054: 33
5556e3e3a6a0: 36
1483c7075672: 39
5556e3e3c09c: 92
5556e3e3c019: 99
5556e3e3c2ba: 100
5556e3e3c015: 187
5556e3e3c6c0: 502
5556e3e3c838: 1072
1483c707568a: 2387
5556e3e3c024: 2641
5556e3e3c6d7: 3104
5556e3e3c900: 3346
5556e3e3c7fd: 3771
5556e3e3c7bd: 5967
5556e3e3c4a0: 6159
5556e3e3c80b: 7195
5556e3e3c7cf: 9485
5556e3e3c7cb: 9510
1483c707567f: 19893
5556e3e3c020: 20174
5556e3e3c051: 25372
5556e3e3c7e7: 110515
5556e3e3c7d9: 504027
5556e3e3c063: 1911888
PSCL5 TOTAL     ACCESS:     146532  HIT:     146532  MISS:          0  HIT %:        100  MISS %:          0   MPKI: 0
PSCL5 Test counter:          0
PSCL5 LOAD TRANSLATION ACCESS:     146511  HIT:     146511  MISS:          0  HIT %:        100  MISS %:          0   MPKI: 0
PSCL5 TRANSLATION FROM L1D PREFETCHER ACCESS:         21  HIT:         21  MISS:          0  HIT %:        100  MISS %:          0   MPKI: 0
PSCL5 PREFETCH  REQUESTED:          0  ISSUED:          0  USEFUL:          0  USELESS:          0
PSCL5 USEFUL LOAD PREFETCHES:          0 PREFETCH ISSUED TO LOWER LEVEL:          0  ACCURACY: -nan
PSCL5 TIMELY PREFETCHES:          0 LATE PREFETCHES: 0 DROPPED PREFETCHES: 0
PSCL5 COMMIT LATE PREFETCHES: 0 MISSED OPPORTUNITY: 0 LATE IN PQ: 0 UNCOVERED: 0
PSCL5 COMMIT LATE MSHR PREFETCHES: 0
PSCL5 MPKI TOTAL: 0 MSHR LATE: 0 PQ LATE: 0 COMMIT LATE: 0 MISSED OPPORTUNITY: 0 UNCOVERED: 0
PSCL5 PREFETCHES SAME FILL-ORIGIN LEVEL: 0 DIFFERENT FILL-ORIGIN LEVEL: 0

PSCL4 TOTAL     ACCESS:     146532  HIT:     146532  MISS:          0  HIT %:        100  MISS %:          0   MPKI: 0
PSCL4 Test counter:          0
PSCL4 LOAD TRANSLATION ACCESS:     146511  HIT:     146511  MISS:          0  HIT %:        100  MISS %:          0   MPKI: 0
PSCL4 TRANSLATION FROM L1D PREFETCHER ACCESS:         21  HIT:         21  MISS:          0  HIT %:        100  MISS %:          0   MPKI: 0
PSCL4 PREFETCH  REQUESTED:          0  ISSUED:          0  USEFUL:          0  USELESS:          0
PSCL4 USEFUL LOAD PREFETCHES:          0 PREFETCH ISSUED TO LOWER LEVEL:          0  ACCURACY: -nan
PSCL4 TIMELY PREFETCHES:          0 LATE PREFETCHES: 0 DROPPED PREFETCHES: 0
PSCL4 COMMIT LATE PREFETCHES: 0 MISSED OPPORTUNITY: 0 LATE IN PQ: 0 UNCOVERED: 0
PSCL4 COMMIT LATE MSHR PREFETCHES: 0
PSCL4 MPKI TOTAL: 0 MSHR LATE: 0 PQ LATE: 0 COMMIT LATE: 0 MISSED OPPORTUNITY: 0 UNCOVERED: 0
PSCL4 PREFETCHES SAME FILL-ORIGIN LEVEL: 0 DIFFERENT FILL-ORIGIN LEVEL: 0

PSCL3 TOTAL     ACCESS:     146532  HIT:     146532  MISS:          0  HIT %:        100  MISS %:          0   MPKI: 0
PSCL3 Test counter:          0
PSCL3 LOAD TRANSLATION ACCESS:     146511  HIT:     146511  MISS:          0  HIT %:        100  MISS %:          0   MPKI: 0
PSCL3 TRANSLATION FROM L1D PREFETCHER ACCESS:         21  HIT:         21  MISS:          0  HIT %:        100  MISS %:          0   MPKI: 0
PSCL3 PREFETCH  REQUESTED:          0  ISSUED:          0  USEFUL:          0  USELESS:          0
PSCL3 USEFUL LOAD PREFETCHES:          0 PREFETCH ISSUED TO LOWER LEVEL:          0  ACCURACY: -nan
PSCL3 TIMELY PREFETCHES:          0 LATE PREFETCHES: 0 DROPPED PREFETCHES: 0
PSCL3 COMMIT LATE PREFETCHES: 0 MISSED OPPORTUNITY: 0 LATE IN PQ: 0 UNCOVERED: 0
PSCL3 COMMIT LATE MSHR PREFETCHES: 0
PSCL3 MPKI TOTAL: 0 MSHR LATE: 0 PQ LATE: 0 COMMIT LATE: 0 MISSED OPPORTUNITY: 0 UNCOVERED: 0
PSCL3 PREFETCHES SAME FILL-ORIGIN LEVEL: 0 DIFFERENT FILL-ORIGIN LEVEL: 0

PSCL2 TOTAL     ACCESS:     146532  HIT:     145476  MISS:       1056  HIT %:    99.2793  MISS %:   0.720662   MPKI: 0.00528
PSCL2 Test counter:          0
PSCL2 LOAD TRANSLATION ACCESS:     146511  HIT:     145455  MISS:       1056  HIT %:    99.2792  MISS %:   0.720765   MPKI: 0.00528
PSCL2 TRANSLATION FROM L1D PREFETCHER ACCESS:         21  HIT:         21  MISS:          0  HIT %:        100  MISS %:          0   MPKI: 0
PSCL2 PREFETCH  REQUESTED:          0  ISSUED:          0  USEFUL:          0  USELESS:          0
PSCL2 USEFUL LOAD PREFETCHES:          0 PREFETCH ISSUED TO LOWER LEVEL:          0  ACCURACY: -nan
PSCL2 TIMELY PREFETCHES:          0 LATE PREFETCHES: 0 DROPPED PREFETCHES: 0
PSCL2 COMMIT LATE PREFETCHES: 0 MISSED OPPORTUNITY: 0 LATE IN PQ: 0 UNCOVERED: 0
PSCL2 COMMIT LATE MSHR PREFETCHES: 0
PSCL2 MPKI TOTAL: 0 MSHR LATE: 0 PQ LATE: 0 COMMIT LATE: 0 MISSED OPPORTUNITY: 0 UNCOVERED: 0
PSCL2 PREFETCHES SAME FILL-ORIGIN LEVEL: 0 DIFFERENT FILL-ORIGIN LEVEL: 0

LLC TOTAL     ACCESS:    6507902  HIT:    2241631  MISS:    4266271  HIT %:    34.4448  MISS %:    65.5552   MPKI: 21.3314
LLC Test counter:          0
LLC LOAD      ACCESS:    2639590  HIT:    1102834  MISS:    1536756  HIT %:    41.7805  MISS %:    58.2195   MPKI: 7.68378
LLC RFO       ACCESS:     280601  HIT:      15229  MISS:     265372  HIT %:    5.42728  MISS %:    94.5727   MPKI: 1.32686
LLC PREFETCH  ACCESS:    2557350  HIT:     129914  MISS:    2427436  HIT %:    5.08002  MISS %:      94.92   MPKI: 12.1372
LLC WRITEBACK ACCESS:     996572  HIT:     992491  MISS:       4081  HIT %:    99.5905  MISS %:   0.409504   MPKI: 0.020405
LLC LOAD TRANSLATION ACCESS:      33773  HIT:       1151  MISS:      32622  HIT %:    3.40805  MISS %:     96.592   MPKI: 0.16311
LLC TRANSLATION FROM L1D PREFETCHER ACCESS:         16  HIT:         12  MISS:          4  HIT %:         75  MISS %:         25   MPKI: 2e-05
LLC PREFETCH  REQUESTED:          0  ISSUED:          0  USEFUL:      58764  USELESS:    2369071
LLC USEFUL LOAD PREFETCHES:      58764 PREFETCH ISSUED TO LOWER LEVEL:    2427436  ACCURACY: 2.42083
LLC TIMELY PREFETCHES:      58764 LATE PREFETCHES: 0 DROPPED PREFETCHES: 0
LLC COMMIT LATE PREFETCHES: 0 MISSED OPPORTUNITY: 0 LATE IN PQ: 0 UNCOVERED: 0
LLC COMMIT LATE MSHR PREFETCHES: 0
LLC MPKI TOTAL: 7.68378 MSHR LATE: 0 PQ LATE: 0 COMMIT LATE: 0 MISSED OPPORTUNITY: 0 UNCOVERED: 0
LLC PREFETCHES SAME FILL-ORIGIN LEVEL: 0 DIFFERENT FILL-ORIGIN LEVEL: 0
LLC AVERAGE MISS LATENCY: 137.715 cycles
LLC AVERAGE MISS LATENCY LOAD: 151.704 cycles
LLC AVERAGE MISS LATENCY PREFETCH: 127.539 cycles
LLC AVERAGE MSHR OCCUPANCY: 1.48109
LLC MSHR FULL: 0
LLC RQ	ACCESS:    2953980	FORWARD:          0	MERGED:          0	TO_CACHE:    2953980
LLC WQ	ACCESS:     996572	FORWARD:          0	MERGED:          0	TO_CACHE:     996572
LLC PQ	ACCESS:    2557351	FORWARD:          0	MERGED:          0	TO_CACHE:    2557351

LLC Dense regions hint to LLC: 0
5556e3e3c180: 1
5556e3e3c947: 1
5556e3e3acfd: 1
5556e3e3c281: 1
5556e3e3c260: 1
5556e3e3c82f: 1
5556e3e3c2c2: 1
5556e3e3c303: 1
5556e3e3c8c4: 1
1483c7017103: 1
1483c7075482: 1
1483c70755c3: 1
5556e3e3c1c0: 1
5556e3e3aac1: 1
1483c70170db: 1
1483c7051c4f: 1
1483c704e5a7: 1
1483c7051d7f: 1
1483c7051cc1: 1
5556e3e3ab03: 1
1483c7051d3b: 2
1483c704e5f4: 2
5556e3e43ca0: 3
1483c6fdb230: 3
5556e3e3c4d5: 3
5556e3e3ae00: 3
5556e3e3c966: 3
5556e3e3c4ea: 3
1483c701286b: 3
1483c70153c3: 3
5556e3e3c4fc: 3
1483c701567a: 3
5556e3e3c782: 3
1483c70ec24b: 3
5556e3e3ae6a: 3
1483c706b143: 3
1483c70155e5: 3
5556e3e3c914: 3
5556e3e3c93f: 3
5556e3e3c930: 3
1483c704f123: 3
5556e3e3c0ec: 3
1483c70153bc: 3
1483c70ec254: 3
1483c70ec247: 3
1483c70153cc: 3
1483c70ec240: 3
1483c7045951: 3
1483c701567e: 3
1483c7015530: 3
5556e3e3a330: 3
1483c6fdb040: 3
1483c704ef10: 3
5556e3e3ab10: 3
5556e3e3aaee: 3
5556e3e43cb3: 4
1483c704e581: 4
5556e3e3c5fe: 4
5556e3e3c7a1: 5
1483c70510af: 6
1483c7051076: 6
1483c70510e3: 6
5556e3e3c866: 6
1483c704e58f: 6
1483c7051d43: 6
1483c7051e55: 6
1483c704e574: 6
1483c70510cf: 6
1483c704ef73: 6
1483c70510c1: 6
1483c704e4f8: 6
1483c7051c6b: 6
1483c704e323: 6
5556e3e3a340: 7
1483c7051a09: 7
1483c705199f: 7
5556e3e3ae73: 7
1483c7051971: 7
1483c7051c95: 7
1483c7051d1a: 7
1483c70519a6: 7
5556e3e3c09c: 7
1483c7051c88: 7
1483c7051a27: 7
1483c7051c45: 7
1483c7051c61: 7
1483c704e65b: 8
5556e3e3a430: 9
1483c79eab30: 10
1483c704e8e8: 10
1483c79ea6d0: 10
1483c705107d: 10
5556e3e3c019: 11
1483c705198d: 12
1483c7051961: 12
5556e3e3a690: 12
1483c79ead00: 13
1483c79eb3f0: 13
1483c705231c: 13
1483c7051978: 13
5556e3e3a5d0: 13
7ffcd2143d75: 16
5556e3e3a6a0: 21
5556e3e3c054: 24
1483c7075672: 25
1483c707563e: 26
5556e3e3c015: 45
5556e3e3c2ba: 91
1483c707568a: 103
5556e3e3c6c0: 464
5556e3e3c838: 947
5556e3e3c80b: 1152
5556e3e3c024: 2576
5556e3e3c6d7: 3090
5556e3e3c900: 3277
5556e3e3c7fd: 3771
5556e3e3c7bd: 5951
5556e3e3c4a0: 6159
1483c707567f: 6387
5556e3e3c7cf: 9485
5556e3e3c7cb: 9508
5556e3e3c020: 19637
5556e3e3c051: 24880
5556e3e3c7e7: 27539
5556e3e3c7d9: 504024
5556e3e3c063: 907074

RAW hits: 210762
Loads Generated: 47703578
Loads sent to L1D: 47492815
Stores Generated: 7636820
Stores sent to L1D: 7636820
Major fault: 0 Minor fault: 29015
Allocated PAGES: 29015
Total Load insts: 60487003
Total Non-spec loads: 12764668
Percentage of speculative loads: 78.8968
L1D response latency: 97.2661 cycles
Load retirement latency: 151.629 cycles

CPU 0 L1D PC-based stride prefetcher final stats
Degree: 3

DRAM Statistics
 CHANNEL 0
 RQ ROW_BUFFER_HIT:    1804397  ROW_BUFFER_MISS:    2457746
 DBUS_CONGESTED:       6384
 WQ ROW_BUFFER_HIT:     438414  ROW_BUFFER_MISS:     478526  FULL:          0

 AVG_CONGESTED_CYCLE: 4
 All warmup complete: 2
Channel 0 Bank busy for read cycles: 0
Channel 0 Bank busy for write cycles: 0
Channel 0
Rank 0
0banks busy for read cycles: 239167881
0banks busy for write cycles: 288797
1banks busy for read cycles: 191296195
1banks busy for write cycles: 48243766
2banks busy for read cycles: 61972063
2banks busy for write cycles: 18277943
3banks busy for read cycles: 18972943
3banks busy for write cycles: 9088615
4banks busy for read cycles: 12723699
4banks busy for write cycles: 5417519
5banks busy for read cycles: 4093795
5banks busy for write cycles: 3275156
6banks busy for read cycles: 1253452
6banks busy for write cycles: 2149219
7banks busy for read cycles: 464637
7banks busy for write cycles: 1790905
8banks busy for read cycles: 612269
8banks busy for write cycles: 5252802

CPU 0 Branch Prediction Accuracy: 88.7511% MPKI: 23.6813 Average ROB Occupancy at Mispredict: 10.5353
Branch types
NOT_BRANCH: 157895700 78.9479%
BRANCH_DIRECT_JUMP: 22041 0.0110205%
BRANCH_INDIRECT: 3 1.5e-06%
BRANCH_CONDITIONAL: 42081515 21.0408%
BRANCH_DIRECT_CALL: 361 0.0001805%
BRANCH_INDIRECT_CALL: 9 4.5e-06%
BRANCH_RETURN: 370 0.000185%
BRANCH_OTHER: 0 0%

DRAM PAGES: 1048576
Allocated PAGES: 29015
