
*** ChampSim Multicore Out-of-Order Simulator ***

Warmup Instructions: 50000000
Simulation Instructions: 200000000
Number of CPUs: 1
LLC sets: 2048
LLC ways: 16
Secure Berti: OFF
Berti: OFF
Berti Fill: OFF
On commit prefetching: OFF
L2 LLC Bypass speculative loads: OFF
Off-chip DRAM Size: 4096 MB Channels: 1 Width: 64-bit Data Rate: 6400 MT/s
CPU 0 runs /home/sumon/secure_berti/Berti_Baseline/../../traces/gap/cc-13.trace.gz
.gz
BTB has LRU replacement policy
ITLB has LRU replacement policy
DTLB has LRU replacement policy
STLB has LRU replacement policy
L1I has LRU replacement policy
CPU 0 L1D IP-based stride prefetcher
L1D has LRU replacement policy
L2C has LRU replacement policy
LLC has LRU replacement policy
Heartbeat CPU 0 instructions: 10000003 cycles: 2970381 heartbeat IPC: 3.36657 cumulative IPC: 3.36657 (Simulation time: 0 hr 0 min 16 sec) 
Heartbeat CPU 0 instructions: 20000000 cycles: 5902834 heartbeat IPC: 3.41011 cumulative IPC: 3.3882 (Simulation time: 0 hr 0 min 35 sec) 
Heartbeat CPU 0 instructions: 30000003 cycles: 8839705 heartbeat IPC: 3.40499 cumulative IPC: 3.39378 (Simulation time: 0 hr 0 min 54 sec) 
Heartbeat CPU 0 instructions: 40000002 cycles: 11779159 heartbeat IPC: 3.40199 cumulative IPC: 3.39583 (Simulation time: 0 hr 1 min 13 sec) 
Heartbeat CPU 0 instructions: 50000001 cycles: 14724049 heartbeat IPC: 3.39571 cumulative IPC: 3.39581 (Simulation time: 0 hr 1 min 32 sec) 

Warmup complete CPU 0 instructions: 50000001 cycles: 14724049 (Simulation time: 0 hr 1 min 32 sec) 

Heartbeat CPU 0 instructions: 60000000 cycles: 64853769 heartbeat IPC: 0.199482 cumulative IPC: 0.199482 (Simulation time: 0 hr 2 min 1 sec) 
Heartbeat CPU 0 instructions: 70000000 cycles: 113010513 heartbeat IPC: 0.207655 cumulative IPC: 0.203487 (Simulation time: 0 hr 2 min 30 sec) 
Heartbeat CPU 0 instructions: 80000002 cycles: 161176152 heartbeat IPC: 0.207617 cumulative IPC: 0.204845 (Simulation time: 0 hr 3 min 0 sec) 
Heartbeat CPU 0 instructions: 90000000 cycles: 209761327 heartbeat IPC: 0.205824 cumulative IPC: 0.205089 (Simulation time: 0 hr 3 min 29 sec) 
Heartbeat CPU 0 instructions: 100000001 cycles: 255960547 heartbeat IPC: 0.216454 cumulative IPC: 0.207265 (Simulation time: 0 hr 4 min 0 sec) 
Heartbeat CPU 0 instructions: 110000000 cycles: 301769166 heartbeat IPC: 0.2183 cumulative IPC: 0.209026 (Simulation time: 0 hr 4 min 32 sec) 
Heartbeat CPU 0 instructions: 120000000 cycles: 347787398 heartbeat IPC: 0.217305 cumulative IPC: 0.21017 (Simulation time: 0 hr 5 min 3 sec) 
Heartbeat CPU 0 instructions: 130000000 cycles: 395751506 heartbeat IPC: 0.208489 cumulative IPC: 0.209959 (Simulation time: 0 hr 5 min 34 sec) 
Heartbeat CPU 0 instructions: 140000002 cycles: 443233122 heartbeat IPC: 0.210608 cumulative IPC: 0.210031 (Simulation time: 0 hr 6 min 7 sec) 
Heartbeat CPU 0 instructions: 150000000 cycles: 487212869 heartbeat IPC: 0.227377 cumulative IPC: 0.211645 (Simulation time: 0 hr 6 min 40 sec) 
Heartbeat CPU 0 instructions: 160000002 cycles: 533512726 heartbeat IPC: 0.215983 cumulative IPC: 0.212032 (Simulation time: 0 hr 7 min 14 sec) 
Heartbeat CPU 0 instructions: 170000000 cycles: 580283618 heartbeat IPC: 0.213808 cumulative IPC: 0.212179 (Simulation time: 0 hr 7 min 47 sec) 
Heartbeat CPU 0 instructions: 180000003 cycles: 626881819 heartbeat IPC: 0.214601 cumulative IPC: 0.212364 (Simulation time: 0 hr 8 min 20 sec) 
Heartbeat CPU 0 instructions: 190000003 cycles: 673069388 heartbeat IPC: 0.216508 cumulative IPC: 0.212654 (Simulation time: 0 hr 8 min 53 sec) 
Heartbeat CPU 0 instructions: 200000000 cycles: 719809269 heartbeat IPC: 0.21395 cumulative IPC: 0.21274 (Simulation time: 0 hr 9 min 25 sec) 
Heartbeat CPU 0 instructions: 210000000 cycles: 764864599 heartbeat IPC: 0.221949 cumulative IPC: 0.213293 (Simulation time: 0 hr 9 min 57 sec) 
Heartbeat CPU 0 instructions: 220000000 cycles: 812103995 heartbeat IPC: 0.211688 cumulative IPC: 0.213198 (Simulation time: 0 hr 10 min 27 sec) 
Heartbeat CPU 0 instructions: 230000000 cycles: 857465083 heartbeat IPC: 0.220453 cumulative IPC: 0.213589 (Simulation time: 0 hr 10 min 59 sec) 
Heartbeat CPU 0 instructions: 240000000 cycles: 904323809 heartbeat IPC: 0.213407 cumulative IPC: 0.213579 (Simulation time: 0 hr 11 min 30 sec) 
Heartbeat CPU 0 instructions: 250000000 cycles: 950014316 heartbeat IPC: 0.218864 cumulative IPC: 0.213837 (Simulation time: 0 hr 12 min 0 sec) 
Finished CPU 0 instructions: 200000003 cycles: 935290268 cumulative IPC: 0.213837 (Simulation time: 0 hr 12 min 0 sec) 

ChampSim completed all CPUs

Region of Interest Statistics

CPU 0 cumulative IPC: 0.213837 instructions: 200000003 cycles: 935290268
ITLB TOTAL     ACCESS:   31250739  HIT:   31250739  MISS:          0  HIT %:        100  MISS %:          0   MPKI: 0
ITLB Test counter:          0
ITLB LOAD TRANSLATION ACCESS:   31250739  HIT:   31250739  MISS:          0  HIT %:        100  MISS %:          0   MPKI: 0
ITLB PREFETCH  REQUESTED:          0  ISSUED:          0  USEFUL:          0  USELESS:          0
ITLB USEFUL LOAD PREFETCHES:          0 PREFETCH ISSUED TO LOWER LEVEL:          0  ACCURACY: -nan
ITLB TIMELY PREFETCHES:          0 LATE PREFETCHES: 0 DROPPED PREFETCHES: 0
ITLB COMMIT LATE PREFETCHES: 0 MISSED OPPORTUNITY: 0 LATE IN PQ: 0 UNCOVERED: 0
ITLB COMMIT LATE MSHR PREFETCHES: 0
ITLB MPKI TOTAL: 0 MSHR LATE: 0 PQ LATE: 0 COMMIT LATE: 0 MISSED OPPORTUNITY: 0 UNCOVERED: 0
ITLB PREFETCHES SAME FILL-ORIGIN LEVEL: 0 DIFFERENT FILL-ORIGIN LEVEL: 0
ITLB AVERAGE MISS LATENCY: -nan cycles
ITLB AVERAGE MISS LATENCY LOAD: -nan cycles
ITLB AVERAGE MISS LATENCY PREFETCH: -nan cycles
ITLB AVERAGE MSHR OCCUPANCY: 0
ITLB MSHR FULL: 0
ITLB RQ	ACCESS:   31716369	FORWARD:          0	MERGED:     465631	TO_CACHE:   31250738

DTLB TOTAL     ACCESS:   41419492  HIT:   31378355  MISS:   10041137  HIT %:    75.7575  MISS %:    24.2425   MPKI: 50.2057
DTLB Test counter:          0
DTLB LOAD TRANSLATION ACCESS:   41419492  HIT:   31378355  MISS:   10041137  HIT %:    75.7575  MISS %:    24.2425   MPKI: 50.2057
DTLB PREFETCH  REQUESTED:          0  ISSUED:          0  USEFUL:          0  USELESS:          0
DTLB USEFUL LOAD PREFETCHES:          0 PREFETCH ISSUED TO LOWER LEVEL:          0  ACCURACY: -nan
DTLB TIMELY PREFETCHES:          0 LATE PREFETCHES: 0 DROPPED PREFETCHES: 0
DTLB COMMIT LATE PREFETCHES: 0 MISSED OPPORTUNITY: 0 LATE IN PQ: 0 UNCOVERED: 0
DTLB COMMIT LATE MSHR PREFETCHES: 0
DTLB MPKI TOTAL: 0 MSHR LATE: 0 PQ LATE: 0 COMMIT LATE: 0 MISSED OPPORTUNITY: 0 UNCOVERED: 0
DTLB PREFETCHES SAME FILL-ORIGIN LEVEL: 0 DIFFERENT FILL-ORIGIN LEVEL: 0
DTLB AVERAGE MISS LATENCY: 9.544 cycles
DTLB AVERAGE MISS LATENCY LOAD: -nan cycles
DTLB AVERAGE MISS LATENCY PREFETCH: -nan cycles
DTLB AVERAGE MSHR OCCUPANCY: 0.323365
DTLB MSHR FULL: 0.00304205
DTLB RQ	ACCESS:   43309986	FORWARD:          0	MERGED:    1816233	TO_CACHE:   41493753

STLB TOTAL     ACCESS:   11185159  HIT:   11170139  MISS:      15020  HIT %:    99.8657  MISS %:   0.134285   MPKI: 0.0751
STLB Test counter:          0
STLB LOAD TRANSLATION ACCESS:   10041137  HIT:   10026117  MISS:      15020  HIT %:    99.8504  MISS %:   0.149585   MPKI: 0.0751
STLB TRANSLATION FROM L1D PREFETCHER ACCESS:    1144022  HIT:    1144022  MISS:          0  HIT %:        100  MISS %:          0   MPKI: 0
STLB PREFETCH  REQUESTED:          0  ISSUED:          0  USEFUL:          0  USELESS:          0
STLB USEFUL LOAD PREFETCHES:          0 PREFETCH ISSUED TO LOWER LEVEL:          0  ACCURACY: -nan
STLB TIMELY PREFETCHES:          0 LATE PREFETCHES: 0 DROPPED PREFETCHES: 0
STLB COMMIT LATE PREFETCHES: 0 MISSED OPPORTUNITY: 0 LATE IN PQ: 0 UNCOVERED: 0
STLB COMMIT LATE MSHR PREFETCHES: 0
STLB MPKI TOTAL: 0 MSHR LATE: 0 PQ LATE: 0 COMMIT LATE: 0 MISSED OPPORTUNITY: 0 UNCOVERED: 0
STLB PREFETCHES SAME FILL-ORIGIN LEVEL: 0 DIFFERENT FILL-ORIGIN LEVEL: 0
STLB AVERAGE MISS LATENCY: 138.328 cycles
STLB AVERAGE MISS LATENCY LOAD: -nan cycles
STLB AVERAGE MISS LATENCY PREFETCH: -nan cycles
STLB AVERAGE MSHR OCCUPANCY: 0.000679651
STLB MSHR FULL: 0
STLB RQ	ACCESS:   13381406	FORWARD:          0	MERGED:    2196247	TO_CACHE:   11185159

STLB Hit, L1D data hit: 0
STLB Hit, L2C data hit: 0
STLB Hit, LLC data hit: 0
STLB Hit, LLC data miss: 0
STLB STLB hints to L2: 0
L1D TOTAL     ACCESS:   46505447  HIT:   31000318  MISS:   15505129  HIT %:    66.6595  MISS %:    33.3405   MPKI: 77.5256
L1D Test counter:          0
L1D LOAD      ACCESS:   42988291  HIT:   28695570  MISS:   14367372  HIT %:    66.7521  MISS %:    33.2479   MPKI: 71.4636
L1D RFO       ACCESS:     247045  HIT:     247045  MISS:          0  HIT %:        100  MISS %:          0   MPKI: 0
L1D PREFETCH  ACCESS:    3270111  HIT:    2057703  MISS:    1212408  HIT %:    62.9246  MISS %:    37.0754   MPKI: 6.06204
L1D PREFETCH  REQUESTED:    6686509  ISSUED:    6686509  USEFUL:     986490  USELESS:     225917
L1D USEFUL LOAD PREFETCHES:     986490 PREFETCH ISSUED TO LOWER LEVEL:    1235174  ACCURACY: 79.8665
L1D TIMELY PREFETCHES:     986490 LATE PREFETCHES: 10425 DROPPED PREFETCHES: 0
L1D COMMIT LATE PREFETCHES: 0 MISSED OPPORTUNITY: 0 LATE IN PQ: 9755 UNCOVERED: 0
L1D COMMIT LATE MSHR PREFETCHES: 0
L1D MPKI TOTAL: 71.8369 MSHR LATE: 0.052125 PQ LATE: 0.048775 COMMIT LATE: 0 MISSED OPPORTUNITY: 0 UNCOVERED: 0
L1D PREFETCHES SAME FILL-ORIGIN LEVEL: 1222834 DIFFERENT FILL-ORIGIN LEVEL: 12340
L1D AVERAGE MISS LATENCY: 86.0511 cycles
L1D AVERAGE MISS LATENCY LOAD: 76.9535 cycles
L1D AVERAGE MISS LATENCY PREFETCH: 193.3 cycles
L1D AVERAGE MSHR OCCUPANCY: 1.5848
L1D MSHR FULL: 6.96655e-08
L1D RQ	ACCESS:   55702856	FORWARD:          0	MERGED:   12639344	TO_CACHE:   43062941
L1D WQ	ACCESS:     247045	FORWARD:        571	MERGED:          0	TO_CACHE:     247045
L1D PQ	ACCESS:    3346240	FORWARD:          0	MERGED:       5971	TO_CACHE:    3340269

L1D UNIQUE REGIONS ACCESSED: 0
L1D REGIONS CONFLICTS: 0
L1D Cross Page Prefetch Requests: 0
L1D Same Page Prefetch Requests: 4173847
L1D ROI Sum of L1D PQ occupancy: 44821895
L1D PREFETCHES PUSHED FROM L2C: 0
55cf028a1244: 3501
55cf028a1240: 3597
55cf028a1248: 4672
55cf028a1263: 5812
55cf028a1260: 14114
55cf028a127b: 609703
55cf028a1266: 13651322
L1I TOTAL     ACCESS:   31716370  HIT:   31716370  MISS:          0  HIT %:        100  MISS %:          0   MPKI: 0
L1I Test counter:          0
L1I LOAD      ACCESS:   31716370  HIT:   31716370  MISS:          0  HIT %:        100  MISS %:          0   MPKI: 0
L1I PREFETCH  REQUESTED:          0  ISSUED:          0  USEFUL:          0  USELESS:          0
L1I USEFUL LOAD PREFETCHES:          0 PREFETCH ISSUED TO LOWER LEVEL:          0  ACCURACY: -nan
L1I TIMELY PREFETCHES:          0 LATE PREFETCHES: 0 DROPPED PREFETCHES: 0
L1I COMMIT LATE PREFETCHES: 0 MISSED OPPORTUNITY: 0 LATE IN PQ: 0 UNCOVERED: 0
L1I COMMIT LATE MSHR PREFETCHES: 0
L1I MPKI TOTAL: 0 MSHR LATE: 0 PQ LATE: 0 COMMIT LATE: 0 MISSED OPPORTUNITY: 0 UNCOVERED: 0
L1I PREFETCHES SAME FILL-ORIGIN LEVEL: 0 DIFFERENT FILL-ORIGIN LEVEL: 0
L1I AVERAGE MISS LATENCY: -nan cycles
L1I AVERAGE MISS LATENCY LOAD: -nan cycles
L1I AVERAGE MISS LATENCY PREFETCH: -nan cycles
L1I AVERAGE MSHR OCCUPANCY: 0
L1I MSHR FULL: 0
L1I RQ	ACCESS:   56151862	FORWARD:          0	MERGED:   24435493	TO_CACHE:   31716369

BTB TOTAL     ACCESS:   40650073  HIT:   40650068  MISS:          5  HIT %:        100  MISS %: 1.23001e-05   MPKI: 2.5e-05
BTB Test counter:          0
BTB BRANCH_DIRECT_JUMP	ACCESS:          0  HIT:          0  MISS:          0
BTB BRANCH_INDIRECT	ACCESS:          0  HIT:          0  MISS:          0
BTB BRANCH_CONDITIONAL	ACCESS:   40650073  HIT:   40650068  MISS:          5
BTB BRANCH_DIRECT_CALL	ACCESS:          0  HIT:          0  MISS:          0
BTB BRANCH_INDIRECT_CALL	ACCESS:          0  HIT:          0  MISS:          0
BTB BRANCH_RETURN	ACCESS:          0  HIT:          0  MISS:          0
BTB BRANCH_OTHER ACCESS:          0  HIT:          0  MISS:          0

L2C TOTAL     ACCESS:   15727780  HIT:    4880823  MISS:   10846957  HIT %:    31.0331  MISS %:    68.9669   MPKI: 54.2348
L2C Test counter:          0
L2C LOAD      ACCESS:   14282296  HIT:    4615472  MISS:    9666824  HIT %:     32.316  MISS %:     67.684   MPKI: 48.3341
L2C DATA LOAD MPKI: 48.3341
L2C INSTRUCTION LOAD MPKI: 0
L2C PREFETCH  ACCESS:    1234584  HIT:      57220  MISS:    1177364  HIT %:    4.63476  MISS %:    95.3652   MPKI: 5.88682
L2C DATA PREFETCH MPKI: 5.88682
L2C INSTRUCTION PREFETCH MPKI: 0
L2C WRITEBACK ACCESS:     195880  HIT:     195731  MISS:        149  HIT %:    99.9239  MISS %:   0.076067   MPKI: 0.000745
L2C LOAD TRANSLATION ACCESS:      15020  HIT:      12400  MISS:       2620  HIT %:    82.5566  MISS %:    17.4434   MPKI: 0.0131
L2C PREFETCH  REQUESTED:          0  ISSUED:          0  USEFUL:      24988  USELESS:    1152360
L2C USEFUL LOAD PREFETCHES:      24988 PREFETCH ISSUED TO LOWER LEVEL:    1177716  ACCURACY: 2.12173
L2C TIMELY PREFETCHES:      24988 LATE PREFETCHES: 351 DROPPED PREFETCHES: 0
L2C COMMIT LATE PREFETCHES: 0 MISSED OPPORTUNITY: 0 LATE IN PQ: 0 UNCOVERED: 0
L2C COMMIT LATE MSHR PREFETCHES: 0
L2C MPKI TOTAL: 48.3341 MSHR LATE: 0.001755 PQ LATE: 0 COMMIT LATE: 0 MISSED OPPORTUNITY: 0 UNCOVERED: 0
L2C PREFETCHES SAME FILL-ORIGIN LEVEL: 11439 DIFFERENT FILL-ORIGIN LEVEL: 0
L2C AVERAGE MISS LATENCY: 101.626 cycles
L2C AVERAGE MISS LATENCY LOAD: 91.3802 cycles
L2C AVERAGE MISS LATENCY PREFETCH: 185.637 cycles
L2C AVERAGE MSHR OCCUPANCY: 1.59966
L2C MSHR FULL: 0
L2C RQ	ACCESS:   14297316	FORWARD:          0	MERGED:          0	TO_CACHE:   14297316
L2C WQ	ACCESS:     195880	FORWARD:          0	MERGED:          0	TO_CACHE:     195880
L2C PQ	ACCESS:    1235174	FORWARD:          0	MERGED:          0	TO_CACHE:    1235174

L2C Instructions Evicting Data 0
L2C Translations Evicting Data 2620
L2C Data Evicting Data 10841567
L2C Instructions Evicting Instructions 0
L2C Translations Evicting Instructions 0
L2C Data Evicting Instructions 0
L2C Instructions Evicting Translations 0
L2C Translations Evicting Translations 0
L2C Data Evicting Translations 2621
L2C Dense regions hint from L2: 0
55cf028a1244: 112
55cf028a1240: 211
55cf028a1263: 541
55cf028a1248: 1052
55cf028a1260: 14073
55cf028a127b: 161867
55cf028a1266: 9488968
PSCL5 TOTAL     ACCESS:      15020  HIT:      15020  MISS:          0  HIT %:        100  MISS %:          0   MPKI: 0
PSCL5 Test counter:          0
PSCL5 LOAD TRANSLATION ACCESS:      15020  HIT:      15020  MISS:          0  HIT %:        100  MISS %:          0   MPKI: 0
PSCL5 PREFETCH  REQUESTED:          0  ISSUED:          0  USEFUL:          0  USELESS:          0
PSCL5 USEFUL LOAD PREFETCHES:          0 PREFETCH ISSUED TO LOWER LEVEL:          0  ACCURACY: -nan
PSCL5 TIMELY PREFETCHES:          0 LATE PREFETCHES: 0 DROPPED PREFETCHES: 0
PSCL5 COMMIT LATE PREFETCHES: 0 MISSED OPPORTUNITY: 0 LATE IN PQ: 0 UNCOVERED: 0
PSCL5 COMMIT LATE MSHR PREFETCHES: 0
PSCL5 MPKI TOTAL: 0 MSHR LATE: 0 PQ LATE: 0 COMMIT LATE: 0 MISSED OPPORTUNITY: 0 UNCOVERED: 0
PSCL5 PREFETCHES SAME FILL-ORIGIN LEVEL: 0 DIFFERENT FILL-ORIGIN LEVEL: 0

PSCL4 TOTAL     ACCESS:      15020  HIT:      15020  MISS:          0  HIT %:        100  MISS %:          0   MPKI: 0
PSCL4 Test counter:          0
PSCL4 LOAD TRANSLATION ACCESS:      15020  HIT:      15020  MISS:          0  HIT %:        100  MISS %:          0   MPKI: 0
PSCL4 PREFETCH  REQUESTED:          0  ISSUED:          0  USEFUL:          0  USELESS:          0
PSCL4 USEFUL LOAD PREFETCHES:          0 PREFETCH ISSUED TO LOWER LEVEL:          0  ACCURACY: -nan
PSCL4 TIMELY PREFETCHES:          0 LATE PREFETCHES: 0 DROPPED PREFETCHES: 0
PSCL4 COMMIT LATE PREFETCHES: 0 MISSED OPPORTUNITY: 0 LATE IN PQ: 0 UNCOVERED: 0
PSCL4 COMMIT LATE MSHR PREFETCHES: 0
PSCL4 MPKI TOTAL: 0 MSHR LATE: 0 PQ LATE: 0 COMMIT LATE: 0 MISSED OPPORTUNITY: 0 UNCOVERED: 0
PSCL4 PREFETCHES SAME FILL-ORIGIN LEVEL: 0 DIFFERENT FILL-ORIGIN LEVEL: 0

PSCL3 TOTAL     ACCESS:      15020  HIT:      15020  MISS:          0  HIT %:        100  MISS %:          0   MPKI: 0
PSCL3 Test counter:          0
PSCL3 LOAD TRANSLATION ACCESS:      15020  HIT:      15020  MISS:          0  HIT %:        100  MISS %:          0   MPKI: 0
PSCL3 PREFETCH  REQUESTED:          0  ISSUED:          0  USEFUL:          0  USELESS:          0
PSCL3 USEFUL LOAD PREFETCHES:          0 PREFETCH ISSUED TO LOWER LEVEL:          0  ACCURACY: -nan
PSCL3 TIMELY PREFETCHES:          0 LATE PREFETCHES: 0 DROPPED PREFETCHES: 0
PSCL3 COMMIT LATE PREFETCHES: 0 MISSED OPPORTUNITY: 0 LATE IN PQ: 0 UNCOVERED: 0
PSCL3 COMMIT LATE MSHR PREFETCHES: 0
PSCL3 MPKI TOTAL: 0 MSHR LATE: 0 PQ LATE: 0 COMMIT LATE: 0 MISSED OPPORTUNITY: 0 UNCOVERED: 0
PSCL3 PREFETCHES SAME FILL-ORIGIN LEVEL: 0 DIFFERENT FILL-ORIGIN LEVEL: 0

PSCL2 TOTAL     ACCESS:      15020  HIT:      14990  MISS:         30  HIT %:    99.8003  MISS %:   0.199734   MPKI: 0.00015
PSCL2 Test counter:          0
PSCL2 LOAD TRANSLATION ACCESS:      15020  HIT:      14990  MISS:         30  HIT %:    99.8003  MISS %:   0.199734   MPKI: 0.00015
PSCL2 PREFETCH  REQUESTED:          0  ISSUED:          0  USEFUL:          0  USELESS:          0
PSCL2 USEFUL LOAD PREFETCHES:          0 PREFETCH ISSUED TO LOWER LEVEL:          0  ACCURACY: -nan
PSCL2 TIMELY PREFETCHES:          0 LATE PREFETCHES: 0 DROPPED PREFETCHES: 0
PSCL2 COMMIT LATE PREFETCHES: 0 MISSED OPPORTUNITY: 0 LATE IN PQ: 0 UNCOVERED: 0
PSCL2 COMMIT LATE MSHR PREFETCHES: 0
PSCL2 MPKI TOTAL: 0 MSHR LATE: 0 PQ LATE: 0 COMMIT LATE: 0 MISSED OPPORTUNITY: 0 UNCOVERED: 0
PSCL2 PREFETCHES SAME FILL-ORIGIN LEVEL: 0 DIFFERENT FILL-ORIGIN LEVEL: 0

LLC TOTAL     ACCESS:   11042450  HIT:    6221292  MISS:    4821158  HIT %:    56.3398  MISS %:    43.6602   MPKI: 24.1058
LLC Test counter:          0
LLC LOAD      ACCESS:    9666474  HIT:    5942801  MISS:    3723673  HIT %:    61.4785  MISS %:    38.5215   MPKI: 18.6184
LLC PREFETCH  ACCESS:    1177715  HIT:      82674  MISS:    1095041  HIT %:    7.01986  MISS %:    92.9801   MPKI: 5.4752
LLC WRITEBACK ACCESS:     195641  HIT:     195114  MISS:        527  HIT %:    99.7306  MISS %:   0.269371   MPKI: 0.002635
LLC LOAD TRANSLATION ACCESS:       2620  HIT:        703  MISS:       1917  HIT %:    26.8321  MISS %:    73.1679   MPKI: 0.009585
LLC PREFETCH  REQUESTED:          0  ISSUED:          0  USEFUL:      38539  USELESS:    1056434
LLC USEFUL LOAD PREFETCHES:      38539 PREFETCH ISSUED TO LOWER LEVEL:    1095042  ACCURACY: 3.51941
LLC TIMELY PREFETCHES:      38539 LATE PREFETCHES: 0 DROPPED PREFETCHES: 0
LLC COMMIT LATE PREFETCHES: 0 MISSED OPPORTUNITY: 0 LATE IN PQ: 0 UNCOVERED: 0
LLC COMMIT LATE MSHR PREFETCHES: 0
LLC MPKI TOTAL: 18.6184 MSHR LATE: 0 PQ LATE: 0 COMMIT LATE: 0 MISSED OPPORTUNITY: 0 UNCOVERED: 0
LLC PREFETCHES SAME FILL-ORIGIN LEVEL: 0 DIFFERENT FILL-ORIGIN LEVEL: 0
LLC AVERAGE MISS LATENCY: 161.065 cycles
LLC AVERAGE MISS LATENCY LOAD: 159.233 cycles
LLC AVERAGE MISS LATENCY PREFETCH: 167.354 cycles
LLC AVERAGE MSHR OCCUPANCY: 0.939303
LLC MSHR FULL: 0
LLC RQ	ACCESS:    9669093	FORWARD:          0	MERGED:          0	TO_CACHE:    9669093
LLC WQ	ACCESS:     195641	FORWARD:          0	MERGED:          0	TO_CACHE:     195641
LLC PQ	ACCESS:    1177716	FORWARD:          0	MERGED:          0	TO_CACHE:    1177716

LLC Dense regions hint to LLC: 0
55cf028a1244: 5
55cf028a1240: 91
55cf028a1263: 259
55cf028a1248: 948
55cf028a1260: 14073
55cf028a127b: 36580
55cf028a1266: 3671717

RAW hits: 29705
Loads Generated: 55732561
Loads sent to L1D: 55702856
Stores Generated: 247045
Stores sent to L1D: 247045
Major fault: 0 Minor fault: 19633
Allocated PAGES: 19633
Total Load insts: 68635937
Total Non-spec loads: 13732932
Percentage of speculative loads: 79.9916
L1D response latency: 77.0096 cycles
Load retirement latency: 154.291 cycles

CPU 0 L1D PC-based stride prefetcher final stats
Degree: 3

DRAM Statistics
 CHANNEL 0
 RQ ROW_BUFFER_HIT:     934889  ROW_BUFFER_MISS:    3885735
 DBUS_CONGESTED:        779
 WQ ROW_BUFFER_HIT:      73792  ROW_BUFFER_MISS:     119168  FULL:          0

 AVG_CONGESTED_CYCLE: 4
 All warmup complete: 2
Channel 0 Bank busy for read cycles: 0
Channel 0 Bank busy for write cycles: 0
Channel 0
Rank 0
0banks busy for read cycles: 483271161
0banks busy for write cycles: 170077
1banks busy for read cycles: 272147877
1banks busy for write cycles: 30955082
2banks busy for read cycles: 97638801
2banks busy for write cycles: 2447637
3banks busy for read cycles: 34139476
3banks busy for write cycles: 295829
4banks busy for read cycles: 11539335
4banks busy for write cycles: 40212
5banks busy for read cycles: 2254990
5banks busy for write cycles: 7898
6banks busy for read cycles: 329873
6banks busy for write cycles: 1739
7banks busy for read cycles: 43404
7banks busy for write cycles: 397
8banks busy for read cycles: 6333
8banks busy for write cycles: 148

CPU 0 Branch Prediction Accuracy: 90.5062% MPKI: 19.3845 Average ROB Occupancy at Mispredict: 25.5918
Branch types
NOT_BRANCH: 159163481 79.5817%
BRANCH_DIRECT_JUMP: 0 0%
BRANCH_INDIRECT: 0 0%
BRANCH_CONDITIONAL: 40836226 20.4181%
BRANCH_DIRECT_CALL: 0 0%
BRANCH_INDIRECT_CALL: 0 0%
BRANCH_RETURN: 0 0%
BRANCH_OTHER: 0 0%

DRAM PAGES: 1048576
Allocated PAGES: 19633
