
*** ChampSim Multicore Out-of-Order Simulator ***

Warmup Instructions: 50000000
Simulation Instructions: 200000000
Number of CPUs: 1
LLC sets: 2048
LLC ways: 16
Secure Berti: OFF
Berti: OFF
Berti Fill: OFF
On commit prefetching: OFF
L2 LLC Bypass speculative loads: OFF
Off-chip DRAM Size: 4096 MB Channels: 1 Width: 64-bit Data Rate: 6400 MT/s
CPU 0 runs /home/sumon/secure_berti/Berti_Baseline/../../traces/gap/pr-10.trace.gz
.gz
BTB has LRU replacement policy
ITLB has LRU replacement policy
DTLB has LRU replacement policy
STLB has LRU replacement policy
L1I has LRU replacement policy
CPU 0 L1D IP-based stride prefetcher
L1D has LRU replacement policy
L2C has LRU replacement policy
LLC has LRU replacement policy
Heartbeat CPU 0 instructions: 10000002 cycles: 3333445 heartbeat IPC: 2.9999 cumulative IPC: 2.9999 (Simulation time: 0 hr 0 min 9 sec) 
Heartbeat CPU 0 instructions: 20000000 cycles: 9692937 heartbeat IPC: 1.57245 cumulative IPC: 2.06336 (Simulation time: 0 hr 0 min 32 sec) 
Heartbeat CPU 0 instructions: 30000003 cycles: 16588156 heartbeat IPC: 1.45028 cumulative IPC: 1.80852 (Simulation time: 0 hr 0 min 58 sec) 
Heartbeat CPU 0 instructions: 40000001 cycles: 23472186 heartbeat IPC: 1.45264 cumulative IPC: 1.70414 (Simulation time: 0 hr 1 min 24 sec) 
Heartbeat CPU 0 instructions: 50000000 cycles: 30319753 heartbeat IPC: 1.46037 cumulative IPC: 1.64909 (Simulation time: 0 hr 1 min 51 sec) 

Warmup complete CPU 0 instructions: 50000002 cycles: 30319754 (Simulation time: 0 hr 1 min 51 sec) 

Heartbeat CPU 0 instructions: 60000000 cycles: 218941311 heartbeat IPC: 0.0530162 cumulative IPC: 0.0530162 (Simulation time: 0 hr 3 min 34 sec) 
Heartbeat CPU 0 instructions: 70000000 cycles: 407078282 heartbeat IPC: 0.0531528 cumulative IPC: 0.0530844 (Simulation time: 0 hr 5 min 16 sec) 
Heartbeat CPU 0 instructions: 80000000 cycles: 594753787 heartbeat IPC: 0.0532835 cumulative IPC: 0.0531506 (Simulation time: 0 hr 6 min 58 sec) 
Heartbeat CPU 0 instructions: 90000000 cycles: 782750710 heartbeat IPC: 0.0531924 cumulative IPC: 0.053161 (Simulation time: 0 hr 8 min 42 sec) 
Heartbeat CPU 0 instructions: 100000002 cycles: 972010440 heartbeat IPC: 0.0528375 cumulative IPC: 0.053096 (Simulation time: 0 hr 10 min 25 sec) 
Heartbeat CPU 0 instructions: 110000000 cycles: 1159621124 heartbeat IPC: 0.0533019 cumulative IPC: 0.0531302 (Simulation time: 0 hr 12 min 8 sec) 
Heartbeat CPU 0 instructions: 120000000 cycles: 1347585941 heartbeat IPC: 0.0532014 cumulative IPC: 0.0531404 (Simulation time: 0 hr 13 min 49 sec) 
Heartbeat CPU 0 instructions: 130000001 cycles: 1535908302 heartbeat IPC: 0.0531004 cumulative IPC: 0.0531354 (Simulation time: 0 hr 15 min 31 sec) 
Heartbeat CPU 0 instructions: 140000000 cycles: 1722205558 heartbeat IPC: 0.0536777 cumulative IPC: 0.0531951 (Simulation time: 0 hr 17 min 12 sec) 
Heartbeat CPU 0 instructions: 150000000 cycles: 1910783302 heartbeat IPC: 0.0530285 cumulative IPC: 0.0531784 (Simulation time: 0 hr 18 min 54 sec) 
Heartbeat CPU 0 instructions: 160000000 cycles: 2098974238 heartbeat IPC: 0.0531375 cumulative IPC: 0.0531747 (Simulation time: 0 hr 20 min 35 sec) 
Heartbeat CPU 0 instructions: 170000001 cycles: 2286518703 heartbeat IPC: 0.0533207 cumulative IPC: 0.0531868 (Simulation time: 0 hr 22 min 16 sec) 
Heartbeat CPU 0 instructions: 180000001 cycles: 2475482273 heartbeat IPC: 0.0529203 cumulative IPC: 0.0531662 (Simulation time: 0 hr 23 min 57 sec) 
Heartbeat CPU 0 instructions: 190000001 cycles: 2612910604 heartbeat IPC: 0.0727652 cumulative IPC: 0.0542091 (Simulation time: 0 hr 25 min 15 sec) 
Heartbeat CPU 0 instructions: 200000003 cycles: 2654764311 heartbeat IPC: 0.238928 cumulative IPC: 0.0571549 (Simulation time: 0 hr 25 min 49 sec) 
Heartbeat CPU 0 instructions: 210000000 cycles: 2843540487 heartbeat IPC: 0.0529728 cumulative IPC: 0.0568743 (Simulation time: 0 hr 27 min 30 sec) 
Heartbeat CPU 0 instructions: 220000000 cycles: 3031636526 heartbeat IPC: 0.0531643 cumulative IPC: 0.0566418 (Simulation time: 0 hr 29 min 12 sec) 
Heartbeat CPU 0 instructions: 230000001 cycles: 3220311061 heartbeat IPC: 0.0530013 cumulative IPC: 0.0564265 (Simulation time: 0 hr 30 min 54 sec) 
Heartbeat CPU 0 instructions: 240000001 cycles: 3408597072 heartbeat IPC: 0.0531107 cumulative IPC: 0.0562417 (Simulation time: 0 hr 32 min 36 sec) 
Heartbeat CPU 0 instructions: 250000001 cycles: 3596812718 heartbeat IPC: 0.0531305 cumulative IPC: 0.0560775 (Simulation time: 0 hr 34 min 18 sec) 
Finished CPU 0 instructions: 200000000 cycles: 3566492965 cumulative IPC: 0.0560775 (Simulation time: 0 hr 34 min 18 sec) 

ChampSim completed all CPUs

Region of Interest Statistics

CPU 0 cumulative IPC: 0.0560775 instructions: 200000000 cycles: 3566492965
ITLB TOTAL     ACCESS:   58872950  HIT:   58872950  MISS:          0  HIT %:        100  MISS %:          0   MPKI: 0
ITLB Test counter:          0
ITLB LOAD TRANSLATION ACCESS:   58872950  HIT:   58872950  MISS:          0  HIT %:        100  MISS %:          0   MPKI: 0
ITLB PREFETCH  REQUESTED:          0  ISSUED:          0  USEFUL:          0  USELESS:          0
ITLB USEFUL LOAD PREFETCHES:          0 PREFETCH ISSUED TO LOWER LEVEL:          0  ACCURACY: -nan
ITLB TIMELY PREFETCHES:          0 LATE PREFETCHES: 0 DROPPED PREFETCHES: 0
ITLB COMMIT LATE PREFETCHES: 0 MISSED OPPORTUNITY: 0 LATE IN PQ: 0 UNCOVERED: 0
ITLB COMMIT LATE MSHR PREFETCHES: 0
ITLB MPKI TOTAL: 0 MSHR LATE: 0 PQ LATE: 0 COMMIT LATE: 0 MISSED OPPORTUNITY: 0 UNCOVERED: 0
ITLB PREFETCHES SAME FILL-ORIGIN LEVEL: 0 DIFFERENT FILL-ORIGIN LEVEL: 0
ITLB AVERAGE MISS LATENCY: -nan cycles
ITLB AVERAGE MISS LATENCY LOAD: -nan cycles
ITLB AVERAGE MISS LATENCY PREFETCH: -nan cycles
ITLB AVERAGE MSHR OCCUPANCY: 0
ITLB MSHR FULL: 0
ITLB RQ	ACCESS:   59997882	FORWARD:          0	MERGED:    1124932	TO_CACHE:   58872950

DTLB TOTAL     ACCESS:   67157921  HIT:   44203263  MISS:   22954658  HIT %:    65.8199  MISS %:    34.1801   MPKI: 114.773
DTLB Test counter:          0
DTLB LOAD TRANSLATION ACCESS:   67157921  HIT:   44203263  MISS:   22954658  HIT %:    65.8199  MISS %:    34.1801   MPKI: 114.773
DTLB PREFETCH  REQUESTED:          0  ISSUED:          0  USEFUL:          0  USELESS:          0
DTLB USEFUL LOAD PREFETCHES:          0 PREFETCH ISSUED TO LOWER LEVEL:          0  ACCURACY: -nan
DTLB TIMELY PREFETCHES:          0 LATE PREFETCHES: 0 DROPPED PREFETCHES: 0
DTLB COMMIT LATE PREFETCHES: 0 MISSED OPPORTUNITY: 0 LATE IN PQ: 0 UNCOVERED: 0
DTLB COMMIT LATE MSHR PREFETCHES: 0
DTLB MPKI TOTAL: 0 MSHR LATE: 0 PQ LATE: 0 COMMIT LATE: 0 MISSED OPPORTUNITY: 0 UNCOVERED: 0
DTLB PREFETCHES SAME FILL-ORIGIN LEVEL: 0 DIFFERENT FILL-ORIGIN LEVEL: 0
DTLB AVERAGE MISS LATENCY: 9.18746 cycles
DTLB AVERAGE MISS LATENCY LOAD: -nan cycles
DTLB AVERAGE MISS LATENCY PREFETCH: -nan cycles
DTLB AVERAGE MSHR OCCUPANCY: 0.201046
DTLB MSHR FULL: 0
DTLB RQ	ACCESS:   67808053	FORWARD:          0	MERGED:     642436	TO_CACHE:   67165617

STLB TOTAL     ACCESS:   26127536  HIT:   26086737  MISS:      40799  HIT %:    99.8438  MISS %:   0.156153   MPKI: 0.203995
STLB Test counter:          0
STLB LOAD TRANSLATION ACCESS:   22954658  HIT:   22913859  MISS:      40799  HIT %:    99.8223  MISS %:   0.177737   MPKI: 0.203995
STLB TRANSLATION FROM L1D PREFETCHER ACCESS:    3172878  HIT:    3172878  MISS:          0  HIT %:        100  MISS %:          0   MPKI: 0
STLB PREFETCH  REQUESTED:          0  ISSUED:          0  USEFUL:          0  USELESS:          0
STLB USEFUL LOAD PREFETCHES:          0 PREFETCH ISSUED TO LOWER LEVEL:          0  ACCURACY: -nan
STLB TIMELY PREFETCHES:          0 LATE PREFETCHES: 0 DROPPED PREFETCHES: 0
STLB COMMIT LATE PREFETCHES: 0 MISSED OPPORTUNITY: 0 LATE IN PQ: 0 UNCOVERED: 0
STLB COMMIT LATE MSHR PREFETCHES: 0
STLB MPKI TOTAL: 0 MSHR LATE: 0 PQ LATE: 0 COMMIT LATE: 0 MISSED OPPORTUNITY: 0 UNCOVERED: 0
STLB PREFETCHES SAME FILL-ORIGIN LEVEL: 0 DIFFERENT FILL-ORIGIN LEVEL: 0
STLB AVERAGE MISS LATENCY: 101.267 cycles
STLB AVERAGE MISS LATENCY LOAD: -nan cycles
STLB AVERAGE MISS LATENCY PREFETCH: -nan cycles
STLB AVERAGE MSHR OCCUPANCY: 0.000463649
STLB MSHR FULL: 0
STLB RQ	ACCESS:   32204546	FORWARD:          0	MERGED:    6077011	TO_CACHE:   26127535

STLB Hit, L1D data hit: 0
STLB Hit, L2C data hit: 0
STLB Hit, LLC data hit: 0
STLB Hit, LLC data miss: 0
STLB STLB hints to L2: 0
L1D TOTAL     ACCESS:   75387110  HIT:   39902166  MISS:   35484944  HIT %:    52.9297  MISS %:    47.0703   MPKI: 177.425
L1D Test counter:          0
L1D LOAD      ACCESS:   64398475  HIT:   32484696  MISS:   32023682  HIT %:    50.4433  MISS %:    49.5567   MPKI: 159.569
L1D RFO       ACCESS:    2549902  HIT:    2484345  MISS:      65557  HIT %:     97.429  MISS %:    2.57096   MPKI: 0.327785
L1D PREFETCH  ACCESS:    8438733  HIT:    4933125  MISS:    3505608  HIT %:    58.4581  MISS %:    41.5419   MPKI: 17.528
L1D PREFETCH  REQUESTED:   18508914  ISSUED:   18508914  USEFUL:    2579873  USELESS:     925734
L1D USEFUL LOAD PREFETCHES:    2579873 PREFETCH ISSUED TO LOWER LEVEL:    3553581  ACCURACY: 72.5992
L1D TIMELY PREFETCHES:    2579873 LATE PREFETCHES: 47624 DROPPED PREFETCHES: 0
L1D COMMIT LATE PREFETCHES: 0 MISSED OPPORTUNITY: 0 LATE IN PQ: 1691 UNCOVERED: 0
L1D COMMIT LATE MSHR PREFETCHES: 0
L1D MPKI TOTAL: 160.118 MSHR LATE: 0.23812 PQ LATE: 0.008455 COMMIT LATE: 0 MISSED OPPORTUNITY: 0 UNCOVERED: 0
L1D PREFETCHES SAME FILL-ORIGIN LEVEL: 3553232 DIFFERENT FILL-ORIGIN LEVEL: 349
L1D AVERAGE MISS LATENCY: 97.8359 cycles
L1D AVERAGE MISS LATENCY LOAD: 87.8603 cycles
L1D AVERAGE MISS LATENCY PREFETCH: 186.593 cycles
L1D AVERAGE MSHR OCCUPANCY: 0.606524
L1D MSHR FULL: 0
L1D RQ	ACCESS:   77353833	FORWARD:          0	MERGED:   12845446	TO_CACHE:   64508378
L1D WQ	ACCESS:    3299680	FORWARD:          9	MERGED:          5	TO_CACHE:    3299675
L1D PQ	ACCESS:    9259026	FORWARD:          0	MERGED:       9138	TO_CACHE:    9249888

L1D UNIQUE REGIONS ACCESSED: 0
L1D REGIONS CONFLICTS: 0
L1D Cross Page Prefetch Requests: 0
L1D Same Page Prefetch Requests: 11965096
L1D ROI Sum of L1D PQ occupancy: 123389218
L1D PREFETCHES PUSHED FROM L2C: 0
14b38703b67e: 1
14b38703886b: 1
14b38703b3cc: 1
14b387001040: 1
14b387091143: 1
55fa52a1ffe0: 1
14b38703b530: 1
14b38706b951: 1
14b387001230: 1
14b38703f1d1: 1
14b38703def2: 1
55fa52a2002d: 1
14b38703c461: 1
55fa52a1ffee: 1
14b38703b67a: 1
14b38703dee7: 1
14b387041760: 1
14b38703ecd6: 1
14b38709b578: 1
14b38703f1c6: 1
14b38711226f: 1
14b38703ecdd: 1
14b387112247: 1
55fa52a2003f: 1
14b387001100: 1
14b3871100b0: 1
14b38703f6d6: 1
14b387091646: 1
14b387112264: 1
14b387112254: 1
14b38703f6e4: 1
14b387112230: 1
14b387112240: 1
55fa52a1e510: 1
14b38703b3bc: 1
14b38703b5e5: 1
14b38703b3c3: 1
14b38711224b: 1
14b3870404f2: 5
55fa52a2000d: 1086
55fa52a20000: 6739
55fa52a20075: 7414
55fa52a20050: 7514
55fa52a20093: 7870
55fa52a20054: 10073
55fa52a2007b: 19468
55fa52a20060: 41570
55fa52a2006a: 31812002
L1I TOTAL     ACCESS:   59997881  HIT:   59997858  MISS:         23  HIT %:        100  MISS %: 3.83347e-05   MPKI: 0.000115
L1I Test counter:          0
L1I LOAD      ACCESS:   59997881  HIT:   59997858  MISS:         24  HIT %:        100  MISS %: 3.83347e-05   MPKI: 0.000115
L1I PREFETCH  REQUESTED:          0  ISSUED:          0  USEFUL:          0  USELESS:          0
L1I USEFUL LOAD PREFETCHES:          0 PREFETCH ISSUED TO LOWER LEVEL:          0  ACCURACY: -nan
L1I TIMELY PREFETCHES:          0 LATE PREFETCHES: 0 DROPPED PREFETCHES: 0
L1I COMMIT LATE PREFETCHES: 0 MISSED OPPORTUNITY: 0 LATE IN PQ: 0 UNCOVERED: 0
L1I COMMIT LATE MSHR PREFETCHES: 0
L1I MPKI TOTAL: 0.00012 MSHR LATE: 0 PQ LATE: 0 COMMIT LATE: 0 MISSED OPPORTUNITY: 0 UNCOVERED: 0
L1I PREFETCHES SAME FILL-ORIGIN LEVEL: 0 DIFFERENT FILL-ORIGIN LEVEL: 0
L1I AVERAGE MISS LATENCY: 170.522 cycles
L1I AVERAGE MISS LATENCY LOAD: 170.522 cycles
L1I AVERAGE MISS LATENCY PREFETCH: -nan cycles
L1I AVERAGE MSHR OCCUPANCY: 1.33338e-07
L1I MSHR FULL: 0
L1I RQ	ACCESS:   71085284	FORWARD:          0	MERGED:   11087402	TO_CACHE:   59997882

14b3870403df: 1
14b3870413c4: 1
14b387033396: 1
14b387040400: 1
14b3870413b8: 1
14b38704066c: 1
14b387040682: 1
14b3870411c8: 1
14b387033340: 1
14b38703393a: 1
14b38703d103: 1
14b387033944: 1
14b387040c43: 1
14b38703d0db: 1
14b3870333c0: 1
14b3870339b9: 1
14b387040443: 1
14b3870404ee: 1
14b3870406f2: 1
14b387040f41: 1
14b387040f1c: 1
14b38703fd70: 1
14b387040c24: 1
BTB TOTAL     ACCESS:   37027234  HIT:   37027062  MISS:        172  HIT %:    99.9995  MISS %: 0.000464523   MPKI: 0.00086
BTB Test counter:          0
BTB BRANCH_DIRECT_JUMP	ACCESS:         67  HIT:         33  MISS:         34
BTB BRANCH_INDIRECT	ACCESS:          4  HIT:          0  MISS:          4
BTB BRANCH_CONDITIONAL	ACCESS:   37027097  HIT:   37027009  MISS:         88
BTB BRANCH_DIRECT_CALL	ACCESS:         28  HIT:         10  MISS:         18
BTB BRANCH_INDIRECT_CALL	ACCESS:          5  HIT:          1  MISS:          4
BTB BRANCH_RETURN	ACCESS:         33  HIT:          9  MISS:         24
BTB BRANCH_OTHER ACCESS:          0  HIT:          0  MISS:          0

L2C TOTAL     ACCESS:   35676187  HIT:    9240688  MISS:   26435499  HIT %:    25.9016  MISS %:    74.0984   MPKI: 132.177
L2C Test counter:          0
L2C LOAD      ACCESS:   31866177  HIT:    8957538  MISS:   22908639  HIT %:    28.1099  MISS %:    71.8901   MPKI: 114.543
L2C DATA LOAD MPKI: 114.543
L2C INSTRUCTION LOAD MPKI: 0.000115
L2C RFO       ACCESS:      65557  HIT:         61  MISS:      65496  HIT %:  0.0930488  MISS %:     99.907   MPKI: 0.32748
L2C PREFETCH  ACCESS:    3553372  HIT:      99255  MISS:    3454117  HIT %:    2.79326  MISS %:    97.2067   MPKI: 17.2706
L2C DATA PREFETCH MPKI: 17.2706
L2C INSTRUCTION PREFETCH MPKI: 0
L2C WRITEBACK ACCESS:     150243  HIT:     150070  MISS:        173  HIT %:    99.8849  MISS %:   0.115147   MPKI: 0.000865
L2C LOAD TRANSLATION ACCESS:      40838  HIT:      33764  MISS:       7074  HIT %:    82.6779  MISS %:    17.3221   MPKI: 0.03537
L2C PREFETCH  REQUESTED:          0  ISSUED:          0  USEFUL:      74489  USELESS:    3379648
L2C USEFUL LOAD PREFETCHES:      74489 PREFETCH ISSUED TO LOWER LEVEL:    3454117  ACCURACY: 2.15653
L2C TIMELY PREFETCHES:      74489 LATE PREFETCHES: 0 DROPPED PREFETCHES: 0
L2C COMMIT LATE PREFETCHES: 0 MISSED OPPORTUNITY: 0 LATE IN PQ: 0 UNCOVERED: 0
L2C COMMIT LATE MSHR PREFETCHES: 0
L2C MPKI TOTAL: 114.543 MSHR LATE: 0 PQ LATE: 0 COMMIT LATE: 0 MISSED OPPORTUNITY: 0 UNCOVERED: 0
L2C PREFETCHES SAME FILL-ORIGIN LEVEL: 320 DIFFERENT FILL-ORIGIN LEVEL: 0
L2C AVERAGE MISS LATENCY: 111.473 cycles
L2C AVERAGE MISS LATENCY LOAD: 101.51 cycles
L2C AVERAGE MISS LATENCY PREFETCH: 175.914 cycles
L2C AVERAGE MSHR OCCUPANCY: 0.158012
L2C MSHR FULL: 0
L2C RQ	ACCESS:   31972573	FORWARD:          0	MERGED:          0	TO_CACHE:   31972572
L2C WQ	ACCESS:     150243	FORWARD:          1	MERGED:          0	TO_CACHE:     150243
L2C PQ	ACCESS:    3553581	FORWARD:          0	MERGED:          0	TO_CACHE:    3553581

L2C Instructions Evicting Data 23
L2C Translations Evicting Data 7072
L2C Data Evicting Data 26421135
L2C Instructions Evicting Instructions 0
L2C Translations Evicting Instructions 0
L2C Data Evicting Instructions 23
L2C Instructions Evicting Translations 0
L2C Translations Evicting Translations 2
L2C Data Evicting Translations 7071
L2C Dense regions hint from L2: 0
14b38703b530: 1
55fa52a1e510: 1
14b38703b3bc: 1
55fa52a2003f: 1
14b38703ecdd: 1
14b38711226f: 1
14b38703d0db: 1
14b387112230: 1
14b38703886b: 1
14b38703f1d1: 1
14b38703b3c3: 1
14b38711224b: 1
14b38703b3cc: 1
14b387001040: 1
14b387091143: 1
55fa52a1ffe0: 1
14b38703b5e5: 1
14b38706b951: 1
14b387001230: 1
14b38703def2: 1
14b387040c43: 1
14b38703d103: 1
14b38703b67e: 1
14b38703c461: 1
55fa52a1ffee: 1
14b38703b67a: 1
14b38703dee7: 1
14b387041760: 1
14b3870413b8: 1
14b38703ecd6: 1
14b38709b578: 1
14b38703f1c6: 1
14b387033396: 1
14b387040f1c: 1
14b3870404ee: 1
14b387091646: 1
14b387040682: 1
14b387033944: 1
14b38703393a: 1
14b387033340: 1
14b3870406f2: 1
14b387112247: 1
14b3870333c0: 1
14b3870413c4: 1
14b38703f6d6: 1
14b3870411c8: 1
14b3871100b0: 1
14b387040f41: 1
14b38703fd70: 1
14b387040c24: 1
14b387040400: 1
14b387001100: 1
14b387112240: 1
14b3870339b9: 1
14b38703f6e4: 1
14b38704066c: 1
14b387040443: 1
14b387112254: 1
55fa52a2002d: 1
14b3870403df: 1
14b387112264: 1
14b3870404f2: 3
55fa52a20075: 125
55fa52a20050: 287
55fa52a2000d: 1027
55fa52a2007b: 1819
55fa52a20000: 2335
55fa52a20054: 2435
55fa52a20093: 3938
55fa52a20060: 40135
55fa52a2006a: 22856474
PSCL5 TOTAL     ACCESS:      40799  HIT:      40799  MISS:          0  HIT %:        100  MISS %:          0   MPKI: 0
PSCL5 Test counter:          0
PSCL5 LOAD TRANSLATION ACCESS:      40799  HIT:      40799  MISS:          0  HIT %:        100  MISS %:          0   MPKI: 0
PSCL5 PREFETCH  REQUESTED:          0  ISSUED:          0  USEFUL:          0  USELESS:          0
PSCL5 USEFUL LOAD PREFETCHES:          0 PREFETCH ISSUED TO LOWER LEVEL:          0  ACCURACY: -nan
PSCL5 TIMELY PREFETCHES:          0 LATE PREFETCHES: 0 DROPPED PREFETCHES: 0
PSCL5 COMMIT LATE PREFETCHES: 0 MISSED OPPORTUNITY: 0 LATE IN PQ: 0 UNCOVERED: 0
PSCL5 COMMIT LATE MSHR PREFETCHES: 0
PSCL5 MPKI TOTAL: 0 MSHR LATE: 0 PQ LATE: 0 COMMIT LATE: 0 MISSED OPPORTUNITY: 0 UNCOVERED: 0
PSCL5 PREFETCHES SAME FILL-ORIGIN LEVEL: 0 DIFFERENT FILL-ORIGIN LEVEL: 0

PSCL4 TOTAL     ACCESS:      40799  HIT:      40799  MISS:          0  HIT %:        100  MISS %:          0   MPKI: 0
PSCL4 Test counter:          0
PSCL4 LOAD TRANSLATION ACCESS:      40799  HIT:      40799  MISS:          0  HIT %:        100  MISS %:          0   MPKI: 0
PSCL4 PREFETCH  REQUESTED:          0  ISSUED:          0  USEFUL:          0  USELESS:          0
PSCL4 USEFUL LOAD PREFETCHES:          0 PREFETCH ISSUED TO LOWER LEVEL:          0  ACCURACY: -nan
PSCL4 TIMELY PREFETCHES:          0 LATE PREFETCHES: 0 DROPPED PREFETCHES: 0
PSCL4 COMMIT LATE PREFETCHES: 0 MISSED OPPORTUNITY: 0 LATE IN PQ: 0 UNCOVERED: 0
PSCL4 COMMIT LATE MSHR PREFETCHES: 0
PSCL4 MPKI TOTAL: 0 MSHR LATE: 0 PQ LATE: 0 COMMIT LATE: 0 MISSED OPPORTUNITY: 0 UNCOVERED: 0
PSCL4 PREFETCHES SAME FILL-ORIGIN LEVEL: 0 DIFFERENT FILL-ORIGIN LEVEL: 0

PSCL3 TOTAL     ACCESS:      40799  HIT:      40799  MISS:          0  HIT %:        100  MISS %:          0   MPKI: 0
PSCL3 Test counter:          0
PSCL3 LOAD TRANSLATION ACCESS:      40799  HIT:      40799  MISS:          0  HIT %:        100  MISS %:          0   MPKI: 0
PSCL3 PREFETCH  REQUESTED:          0  ISSUED:          0  USEFUL:          0  USELESS:          0
PSCL3 USEFUL LOAD PREFETCHES:          0 PREFETCH ISSUED TO LOWER LEVEL:          0  ACCURACY: -nan
PSCL3 TIMELY PREFETCHES:          0 LATE PREFETCHES: 0 DROPPED PREFETCHES: 0
PSCL3 COMMIT LATE PREFETCHES: 0 MISSED OPPORTUNITY: 0 LATE IN PQ: 0 UNCOVERED: 0
PSCL3 COMMIT LATE MSHR PREFETCHES: 0
PSCL3 MPKI TOTAL: 0 MSHR LATE: 0 PQ LATE: 0 COMMIT LATE: 0 MISSED OPPORTUNITY: 0 UNCOVERED: 0
PSCL3 PREFETCHES SAME FILL-ORIGIN LEVEL: 0 DIFFERENT FILL-ORIGIN LEVEL: 0

PSCL2 TOTAL     ACCESS:      40799  HIT:      40713  MISS:         86  HIT %:    99.7892  MISS %:   0.210789   MPKI: 0.00043
PSCL2 Test counter:          0
PSCL2 LOAD TRANSLATION ACCESS:      40799  HIT:      40713  MISS:         86  HIT %:    99.7892  MISS %:   0.210789   MPKI: 0.00043
PSCL2 PREFETCH  REQUESTED:          0  ISSUED:          0  USEFUL:          0  USELESS:          0
PSCL2 USEFUL LOAD PREFETCHES:          0 PREFETCH ISSUED TO LOWER LEVEL:          0  ACCURACY: -nan
PSCL2 TIMELY PREFETCHES:          0 LATE PREFETCHES: 0 DROPPED PREFETCHES: 0
PSCL2 COMMIT LATE PREFETCHES: 0 MISSED OPPORTUNITY: 0 LATE IN PQ: 0 UNCOVERED: 0
PSCL2 COMMIT LATE MSHR PREFETCHES: 0
PSCL2 MPKI TOTAL: 0 MSHR LATE: 0 PQ LATE: 0 COMMIT LATE: 0 MISSED OPPORTUNITY: 0 UNCOVERED: 0
PSCL2 PREFETCHES SAME FILL-ORIGIN LEVEL: 0 DIFFERENT FILL-ORIGIN LEVEL: 0

LLC TOTAL     ACCESS:   26571740  HIT:   12911232  MISS:   13660508  HIT %:    48.5901  MISS %:    51.4099   MPKI: 68.3025
LLC Test counter:          0
LLC LOAD      ACCESS:   22908639  HIT:   12461266  MISS:   10447373  HIT %:    54.3955  MISS %:    45.6045   MPKI: 52.2369
LLC RFO       ACCESS:      65496  HIT:       1612  MISS:      63884  HIT %:    2.46122  MISS %:    97.5388   MPKI: 0.31942
LLC PREFETCH  ACCESS:    3454117  HIT:     310235  MISS:    3143882  HIT %:     8.9816  MISS %:    91.0184   MPKI: 15.7194
LLC WRITEBACK ACCESS:     136414  HIT:     136310  MISS:        104  HIT %:    99.9238  MISS %:  0.0762385   MPKI: 0.00052
LLC LOAD TRANSLATION ACCESS:       7074  HIT:       1809  MISS:       5265  HIT %:    25.5725  MISS %:    74.4275   MPKI: 0.026325
LLC PREFETCH  REQUESTED:          0  ISSUED:          0  USEFUL:     137246  USELESS:    3006686
LLC USEFUL LOAD PREFETCHES:     137246 PREFETCH ISSUED TO LOWER LEVEL:    3143882  ACCURACY: 4.36549
LLC TIMELY PREFETCHES:     137246 LATE PREFETCHES: 0 DROPPED PREFETCHES: 0
LLC COMMIT LATE PREFETCHES: 0 MISSED OPPORTUNITY: 0 LATE IN PQ: 0 UNCOVERED: 0
LLC COMMIT LATE MSHR PREFETCHES: 0
LLC MPKI TOTAL: 52.2369 MSHR LATE: 0 PQ LATE: 0 COMMIT LATE: 0 MISSED OPPORTUNITY: 0 UNCOVERED: 0
LLC PREFETCHES SAME FILL-ORIGIN LEVEL: 0 DIFFERENT FILL-ORIGIN LEVEL: 0
LLC AVERAGE MISS LATENCY: 157.621 cycles
LLC AVERAGE MISS LATENCY LOAD: 156.751 cycles
LLC AVERAGE MISS LATENCY PREFETCH: 160.298 cycles
LLC AVERAGE MSHR OCCUPANCY: 0.134381
LLC MSHR FULL: 0
LLC RQ	ACCESS:   22981209	FORWARD:          0	MERGED:          0	TO_CACHE:   22981209
LLC WQ	ACCESS:     136414	FORWARD:          0	MERGED:          0	TO_CACHE:     136414
LLC PQ	ACCESS:    3454117	FORWARD:          0	MERGED:          0	TO_CACHE:    3454117

LLC Dense regions hint to LLC: 0
14b38703b3c3: 1
55fa52a1ffe0: 1
14b387091143: 1
14b387001040: 1
14b38703b3cc: 1
14b38703886b: 1
14b387112230: 1
14b38703f1d1: 1
14b38711224b: 1
14b38703b530: 1
14b38703d0db: 1
14b38711226f: 1
14b38703ecdd: 1
55fa52a20075: 1
55fa52a2003f: 1
14b38703b3bc: 1
55fa52a1e510: 1
14b38703b5e5: 1
14b38706b951: 1
14b387001230: 1
14b38703def2: 1
14b387040c43: 1
14b38703d103: 1
14b38703b67e: 1
14b38703c461: 1
55fa52a1ffee: 1
14b38703b67a: 1
14b38703dee7: 1
14b387041760: 1
14b3870413b8: 1
14b38703ecd6: 1
14b38709b578: 1
14b38703f1c6: 1
14b387033396: 1
14b387040f1c: 1
14b3870404ee: 1
14b387091646: 1
14b387040682: 1
14b387033944: 1
14b38703393a: 1
14b387033340: 1
14b3870406f2: 1
14b387112247: 1
14b3870333c0: 1
14b3870413c4: 1
14b38703f6d6: 1
14b3870411c8: 1
14b3871100b0: 1
14b387040f41: 1
14b38703fd70: 1
14b387040c24: 1
14b387040400: 1
14b387112240: 1
14b3870339b9: 1
14b387001100: 1
14b38703f6e4: 1
14b38704066c: 1
14b387112254: 1
14b387040443: 1
55fa52a2002d: 1
14b387112264: 1
14b3870403df: 1
14b3870404f2: 3
55fa52a20050: 8
55fa52a20093: 163
55fa52a2000d: 1027
55fa52a2007b: 1132
55fa52a20054: 2206
55fa52a20000: 2335
55fa52a20060: 40135
55fa52a2006a: 10400302

RAW hits: 21
Loads Generated: 77353856
Loads sent to L1D: 77353833
Stores Generated: 3299680
Stores sent to L1D: 3299680
Major fault: 0 Minor fault: 34900
Allocated PAGES: 34900
Total Load insts: 95651109
Total Non-spec loads: 44711137
Percentage of speculative loads: 53.256
L1D response latency: 87.9916 cycles
Load retirement latency: 106.853 cycles

CPU 0 L1D PC-based stride prefetcher final stats
Degree: 3

DRAM Statistics
 CHANNEL 0
 RQ ROW_BUFFER_HIT:    2020974  ROW_BUFFER_MISS:   11639430
 DBUS_CONGESTED:        172
 WQ ROW_BUFFER_HIT:      42299  ROW_BUFFER_MISS:      93803  FULL:          0

 AVG_CONGESTED_CYCLE: 5
 All warmup complete: 2
Channel 0 Bank busy for read cycles: 0
Channel 0 Bank busy for write cycles: 0
Channel 0
Rank 0
0banks busy for read cycles: 1924066866
0banks busy for write cycles: 70211
1banks busy for read cycles: 1449074968
1banks busy for write cycles: 14712059
2banks busy for read cycles: 139774708
2banks busy for write cycles: 843078
3banks busy for read cycles: 25289298
3banks busy for write cycles: 245025
4banks busy for read cycles: 8486067
4banks busy for write cycles: 117200
5banks busy for read cycles: 1576985
5banks busy for write cycles: 73308
6banks busy for read cycles: 119249
6banks busy for write cycles: 58396
7banks busy for read cycles: 5276
7banks busy for write cycles: 224056
8banks busy for read cycles: 430
8banks busy for write cycles: 1755786

CPU 0 Branch Prediction Accuracy: 96.9594% MPKI: 5.62926 Average ROB Occupancy at Mispredict: 138.15
Branch types
NOT_BRANCH: 162972290 81.4861%
BRANCH_DIRECT_JUMP: 67 3.35e-05%
BRANCH_INDIRECT: 4 2e-06%
BRANCH_CONDITIONAL: 37027324 18.5137%
BRANCH_DIRECT_CALL: 28 1.4e-05%
BRANCH_INDIRECT_CALL: 5 2.5e-06%
BRANCH_RETURN: 33 1.65e-05%
BRANCH_OTHER: 0 0%

DRAM PAGES: 1048576
Allocated PAGES: 34900
