
*** ChampSim Multicore Out-of-Order Simulator ***

Warmup Instructions: 50000000
Simulation Instructions: 200000000
Number of CPUs: 1
LLC sets: 2048
LLC ways: 16
Secure Berti: OFF
Berti: OFF
Berti Fill: OFF
On commit prefetching: OFF
L2 LLC Bypass speculative loads: OFF
Off-chip DRAM Size: 4096 MB Channels: 1 Width: 64-bit Data Rate: 6400 MT/s
CPU 0 runs /home/sumon/secure_berti/Berti_Baseline/../../traces/gap/pr-3.trace.gz
.gz
BTB has LRU replacement policy
ITLB has LRU replacement policy
DTLB has LRU replacement policy
STLB has LRU replacement policy
L1I has LRU replacement policy
CPU 0 L1D IP-based stride prefetcher
L1D has LRU replacement policy
L2C has LRU replacement policy
LLC has LRU replacement policy
Heartbeat CPU 0 instructions: 10000002 cycles: 3333444 heartbeat IPC: 2.9999 cumulative IPC: 2.9999 (Simulation time: 0 hr 0 min 9 sec) 
Heartbeat CPU 0 instructions: 20000002 cycles: 9703205 heartbeat IPC: 1.56992 cumulative IPC: 2.06117 (Simulation time: 0 hr 0 min 32 sec) 
Heartbeat CPU 0 instructions: 30000001 cycles: 16579244 heartbeat IPC: 1.45433 cumulative IPC: 1.80949 (Simulation time: 0 hr 0 min 58 sec) 
Heartbeat CPU 0 instructions: 40000000 cycles: 23482104 heartbeat IPC: 1.44867 cumulative IPC: 1.70342 (Simulation time: 0 hr 1 min 24 sec) 
Heartbeat CPU 0 instructions: 50000000 cycles: 30392772 heartbeat IPC: 1.44704 cumulative IPC: 1.64513 (Simulation time: 0 hr 1 min 50 sec) 

Warmup complete CPU 0 instructions: 50000001 cycles: 30392773 (Simulation time: 0 hr 1 min 50 sec) 

Heartbeat CPU 0 instructions: 60000003 cycles: 217457829 heartbeat IPC: 0.0534574 cumulative IPC: 0.0534573 (Simulation time: 0 hr 3 min 32 sec) 
Heartbeat CPU 0 instructions: 70000001 cycles: 405856361 heartbeat IPC: 0.053079 cumulative IPC: 0.0532675 (Simulation time: 0 hr 5 min 16 sec) 
Heartbeat CPU 0 instructions: 80000003 cycles: 594569569 heartbeat IPC: 0.0529905 cumulative IPC: 0.0531748 (Simulation time: 0 hr 7 min 0 sec) 
Heartbeat CPU 0 instructions: 90000000 cycles: 782685022 heartbeat IPC: 0.0531588 cumulative IPC: 0.0531708 (Simulation time: 0 hr 8 min 43 sec) 
Heartbeat CPU 0 instructions: 100000002 cycles: 971904481 heartbeat IPC: 0.0528487 cumulative IPC: 0.0531061 (Simulation time: 0 hr 10 min 25 sec) 
Heartbeat CPU 0 instructions: 110000000 cycles: 1160589118 heartbeat IPC: 0.0529985 cumulative IPC: 0.0530881 (Simulation time: 0 hr 12 min 9 sec) 
Heartbeat CPU 0 instructions: 120000001 cycles: 1350171858 heartbeat IPC: 0.0527474 cumulative IPC: 0.0530392 (Simulation time: 0 hr 13 min 51 sec) 
Heartbeat CPU 0 instructions: 130000001 cycles: 1538242998 heartbeat IPC: 0.0531714 cumulative IPC: 0.0530557 (Simulation time: 0 hr 15 min 32 sec) 
Heartbeat CPU 0 instructions: 140000002 cycles: 1727093942 heartbeat IPC: 0.0529518 cumulative IPC: 0.0530441 (Simulation time: 0 hr 17 min 13 sec) 
Heartbeat CPU 0 instructions: 150000000 cycles: 1915633561 heartbeat IPC: 0.0530392 cumulative IPC: 0.0530436 (Simulation time: 0 hr 18 min 55 sec) 
Heartbeat CPU 0 instructions: 160000002 cycles: 2103925766 heartbeat IPC: 0.053109 cumulative IPC: 0.0530496 (Simulation time: 0 hr 20 min 35 sec) 
Heartbeat CPU 0 instructions: 170000003 cycles: 2292122377 heartbeat IPC: 0.0531359 cumulative IPC: 0.0530567 (Simulation time: 0 hr 22 min 16 sec) 
Heartbeat CPU 0 instructions: 180000002 cycles: 2480462877 heartbeat IPC: 0.0530953 cumulative IPC: 0.0530597 (Simulation time: 0 hr 23 min 57 sec) 
Heartbeat CPU 0 instructions: 190000001 cycles: 2617846782 heartbeat IPC: 0.0727887 cumulative IPC: 0.0541072 (Simulation time: 0 hr 25 min 14 sec) 
Heartbeat CPU 0 instructions: 200000001 cycles: 2659348392 heartbeat IPC: 0.240955 cumulative IPC: 0.0570569 (Simulation time: 0 hr 25 min 48 sec) 
Heartbeat CPU 0 instructions: 210000003 cycles: 2847157184 heartbeat IPC: 0.0532457 cumulative IPC: 0.0568028 (Simulation time: 0 hr 27 min 28 sec) 
Heartbeat CPU 0 instructions: 220000000 cycles: 3035095675 heartbeat IPC: 0.0532089 cumulative IPC: 0.056578 (Simulation time: 0 hr 29 min 9 sec) 
Heartbeat CPU 0 instructions: 230000000 cycles: 3223135625 heartbeat IPC: 0.0531802 cumulative IPC: 0.0563779 (Simulation time: 0 hr 30 min 50 sec) 
Heartbeat CPU 0 instructions: 240000003 cycles: 3412358153 heartbeat IPC: 0.0528478 cumulative IPC: 0.0561804 (Simulation time: 0 hr 32 min 32 sec) 
Heartbeat CPU 0 instructions: 250000001 cycles: 3599109481 heartbeat IPC: 0.0535471 cumulative IPC: 0.0560426 (Simulation time: 0 hr 34 min 13 sec) 
Finished CPU 0 instructions: 200000000 cycles: 3568716708 cumulative IPC: 0.0560426 (Simulation time: 0 hr 34 min 13 sec) 

ChampSim completed all CPUs

Region of Interest Statistics

CPU 0 cumulative IPC: 0.0560426 instructions: 200000000 cycles: 3568716708
ITLB TOTAL     ACCESS:   58823640  HIT:   58823640  MISS:          0  HIT %:        100  MISS %:          0   MPKI: 0
ITLB Test counter:          0
ITLB LOAD TRANSLATION ACCESS:   58823640  HIT:   58823640  MISS:          0  HIT %:        100  MISS %:          0   MPKI: 0
ITLB PREFETCH  REQUESTED:          0  ISSUED:          0  USEFUL:          0  USELESS:          0
ITLB USEFUL LOAD PREFETCHES:          0 PREFETCH ISSUED TO LOWER LEVEL:          0  ACCURACY: -nan
ITLB TIMELY PREFETCHES:          0 LATE PREFETCHES: 0 DROPPED PREFETCHES: 0
ITLB COMMIT LATE PREFETCHES: 0 MISSED OPPORTUNITY: 0 LATE IN PQ: 0 UNCOVERED: 0
ITLB COMMIT LATE MSHR PREFETCHES: 0
ITLB MPKI TOTAL: 0 MSHR LATE: 0 PQ LATE: 0 COMMIT LATE: 0 MISSED OPPORTUNITY: 0 UNCOVERED: 0
ITLB PREFETCHES SAME FILL-ORIGIN LEVEL: 0 DIFFERENT FILL-ORIGIN LEVEL: 0
ITLB AVERAGE MISS LATENCY: -nan cycles
ITLB AVERAGE MISS LATENCY LOAD: -nan cycles
ITLB AVERAGE MISS LATENCY PREFETCH: -nan cycles
ITLB AVERAGE MSHR OCCUPANCY: 0
ITLB MSHR FULL: 0
ITLB RQ	ACCESS:   59948961	FORWARD:          0	MERGED:    1125322	TO_CACHE:   58823639

DTLB TOTAL     ACCESS:   67145469  HIT:   44259883  MISS:   22885586  HIT %:    65.9164  MISS %:    34.0836   MPKI: 114.428
DTLB Test counter:          0
DTLB LOAD TRANSLATION ACCESS:   67145469  HIT:   44259883  MISS:   22885586  HIT %:    65.9164  MISS %:    34.0836   MPKI: 114.428
DTLB PREFETCH  REQUESTED:          0  ISSUED:          0  USEFUL:          0  USELESS:          0
DTLB USEFUL LOAD PREFETCHES:          0 PREFETCH ISSUED TO LOWER LEVEL:          0  ACCURACY: -nan
DTLB TIMELY PREFETCHES:          0 LATE PREFETCHES: 0 DROPPED PREFETCHES: 0
DTLB COMMIT LATE PREFETCHES: 0 MISSED OPPORTUNITY: 0 LATE IN PQ: 0 UNCOVERED: 0
DTLB COMMIT LATE MSHR PREFETCHES: 0
DTLB MPKI TOTAL: 0 MSHR LATE: 0 PQ LATE: 0 COMMIT LATE: 0 MISSED OPPORTUNITY: 0 UNCOVERED: 0
DTLB PREFETCHES SAME FILL-ORIGIN LEVEL: 0 DIFFERENT FILL-ORIGIN LEVEL: 0
DTLB AVERAGE MISS LATENCY: 9.18888 cycles
DTLB AVERAGE MISS LATENCY LOAD: -nan cycles
DTLB AVERAGE MISS LATENCY PREFETCH: -nan cycles
DTLB AVERAGE MSHR OCCUPANCY: 0.200432
DTLB MSHR FULL: 0
DTLB RQ	ACCESS:   67815287	FORWARD:          0	MERGED:     662806	TO_CACHE:   67152481

STLB TOTAL     ACCESS:   26071928  HIT:   26031109  MISS:      40819  HIT %:    99.8434  MISS %:   0.156563   MPKI: 0.204095
STLB Test counter:          0
STLB LOAD TRANSLATION ACCESS:   22885586  HIT:   22844767  MISS:      40819  HIT %:    99.8216  MISS %:   0.178361   MPKI: 0.204095
STLB TRANSLATION FROM L1D PREFETCHER ACCESS:    3186342  HIT:    3186342  MISS:          0  HIT %:        100  MISS %:          0   MPKI: 0
STLB PREFETCH  REQUESTED:          0  ISSUED:          0  USEFUL:          0  USELESS:          0
STLB USEFUL LOAD PREFETCHES:          0 PREFETCH ISSUED TO LOWER LEVEL:          0  ACCURACY: -nan
STLB TIMELY PREFETCHES:          0 LATE PREFETCHES: 0 DROPPED PREFETCHES: 0
STLB COMMIT LATE PREFETCHES: 0 MISSED OPPORTUNITY: 0 LATE IN PQ: 0 UNCOVERED: 0
STLB COMMIT LATE MSHR PREFETCHES: 0
STLB MPKI TOTAL: 0 MSHR LATE: 0 PQ LATE: 0 COMMIT LATE: 0 MISSED OPPORTUNITY: 0 UNCOVERED: 0
STLB PREFETCHES SAME FILL-ORIGIN LEVEL: 0 DIFFERENT FILL-ORIGIN LEVEL: 0
STLB AVERAGE MISS LATENCY: 101.749 cycles
STLB AVERAGE MISS LATENCY LOAD: -nan cycles
STLB AVERAGE MISS LATENCY PREFETCH: -nan cycles
STLB AVERAGE MSHR OCCUPANCY: 0.000458194
STLB MSHR FULL: 0
STLB RQ	ACCESS:   32179129	FORWARD:          0	MERGED:    6107201	TO_CACHE:   26071928

STLB Hit, L1D data hit: 0
STLB Hit, L2C data hit: 0
STLB Hit, LLC data hit: 0
STLB Hit, LLC data miss: 0
STLB STLB hints to L2: 0
L1D TOTAL     ACCESS:   75456353  HIT:   39973895  MISS:   35482458  HIT %:    52.9762  MISS %:    47.0238   MPKI: 177.412
L1D Test counter:          0
L1D LOAD      ACCESS:   64416521  HIT:   32546319  MISS:   31968370  HIT %:    50.5248  MISS %:    49.4752   MPKI: 159.351
L1D RFO       ACCESS:    2558422  HIT:    2492864  MISS:      65558  HIT %:    97.4376  MISS %:    2.56244   MPKI: 0.32779
L1D PREFETCH  ACCESS:    8481410  HIT:    4934712  MISS:    3546698  HIT %:    58.1827  MISS %:    41.8173   MPKI: 17.7335
L1D PREFETCH  REQUESTED:   18625786  ISSUED:   18625786  USEFUL:    2596413  USELESS:     950283
L1D USEFUL LOAD PREFETCHES:    2596413 PREFETCH ISSUED TO LOWER LEVEL:    3601735  ACCURACY: 72.0878
L1D TIMELY PREFETCHES:    2596413 LATE PREFETCHES: 54977 DROPPED PREFETCHES: 0
L1D COMMIT LATE PREFETCHES: 0 MISSED OPPORTUNITY: 0 LATE IN PQ: 1905 UNCOVERED: 0
L1D COMMIT LATE MSHR PREFETCHES: 0
L1D MPKI TOTAL: 159.842 MSHR LATE: 0.274885 PQ LATE: 0.009525 COMMIT LATE: 0 MISSED OPPORTUNITY: 0 UNCOVERED: 0
L1D PREFETCHES SAME FILL-ORIGIN LEVEL: 3601675 DIFFERENT FILL-ORIGIN LEVEL: 60
L1D AVERAGE MISS LATENCY: 98.0916 cycles
L1D AVERAGE MISS LATENCY LOAD: 88.036 cycles
L1D AVERAGE MISS LATENCY PREFETCH: 186.506 cycles
L1D AVERAGE MSHR OCCUPANCY: 0.60284
L1D MSHR FULL: 0
L1D RQ	ACCESS:   77353315	FORWARD:          0	MERGED:   12838616	TO_CACHE:   64514688
L1D WQ	ACCESS:    3300603	FORWARD:         11	MERGED:          4	TO_CACHE:    3300599
L1D PQ	ACCESS:    9332243	FORWARD:          0	MERGED:      38700	TO_CACHE:    9293543

L1D UNIQUE REGIONS ACCESSED: 0
L1D REGIONS CONFLICTS: 0
L1D Cross Page Prefetch Requests: 0
L1D Same Page Prefetch Requests: 11969331
L1D ROI Sum of L1D PQ occupancy: 124060260
L1D PREFETCHES PUSHED FROM L2C: 0
14cb10b67ef2: 1
55fe46b7b02d: 1
14cb10c3a0b0: 1
14cb10b653bc: 1
14cb10b655e5: 1
14cb10b653cc: 1
14cb10b653c3: 1
14cb10bbb143: 1
55fe46b7b03f: 1
14cb10b65530: 1
14cb10b95951: 1
14cb10b2b230: 1
14cb10c3c264: 1
14cb10b691c6: 1
14cb10b68cd6: 1
14cb10bc5578: 1
14cb10b6567e: 1
14cb10b66461: 1
14cb10b6567a: 1
14cb10b67ee7: 1
14cb10b6b760: 1
14cb10c3c26f: 1
14cb10b68cdd: 1
14cb10b6286b: 1
55fe46b7afe0: 1
55fe46b7afee: 1
14cb10b2b100: 1
14cb10b696d6: 1
14cb10bbb646: 1
14cb10b691d1: 1
14cb10c3c24b: 1
14cb10c3c240: 1
14cb10c3c230: 1
14cb10b696e4: 1
55fe46b79510: 1
14cb10c3c247: 1
14cb10b2b040: 1
14cb10c3c254: 1
14cb10b6a4f2: 5
55fe46b7b00d: 1036
55fe46b7b000: 5461
55fe46b7b09e: 7191
55fe46b7b093: 7228
55fe46b7b050: 7521
55fe46b7b075: 7838
55fe46b7b054: 10098
55fe46b7b07b: 19327
55fe46b7b060: 41416
55fe46b7b06a: 31763043
L1I TOTAL     ACCESS:   59948961  HIT:   59948938  MISS:         23  HIT %:        100  MISS %: 3.8366e-05   MPKI: 0.000115
L1I Test counter:          0
L1I LOAD      ACCESS:   59948961  HIT:   59948938  MISS:         24  HIT %:        100  MISS %: 3.8366e-05   MPKI: 0.000115
L1I PREFETCH  REQUESTED:          0  ISSUED:          0  USEFUL:          0  USELESS:          0
L1I USEFUL LOAD PREFETCHES:          0 PREFETCH ISSUED TO LOWER LEVEL:          0  ACCURACY: -nan
L1I TIMELY PREFETCHES:          0 LATE PREFETCHES: 0 DROPPED PREFETCHES: 0
L1I COMMIT LATE PREFETCHES: 0 MISSED OPPORTUNITY: 0 LATE IN PQ: 0 UNCOVERED: 0
L1I COMMIT LATE MSHR PREFETCHES: 0
L1I MPKI TOTAL: 0.00012 MSHR LATE: 0 PQ LATE: 0 COMMIT LATE: 0 MISSED OPPORTUNITY: 0 UNCOVERED: 0
L1I PREFETCHES SAME FILL-ORIGIN LEVEL: 0 DIFFERENT FILL-ORIGIN LEVEL: 0
L1I AVERAGE MISS LATENCY: 174.87 cycles
L1I AVERAGE MISS LATENCY LOAD: 174.87 cycles
L1I AVERAGE MISS LATENCY PREFETCH: -nan cycles
L1I AVERAGE MSHR OCCUPANCY: 1.50128e-07
L1I MSHR FULL: 0
L1I RQ	ACCESS:   71035979	FORWARD:          0	MERGED:   11087018	TO_CACHE:   59948961

14cb10b6a3df: 1
14cb10b6b3c4: 1
14cb10b5d396: 1
14cb10b6a400: 1
14cb10b6b3b8: 1
14cb10b6a66c: 1
14cb10b6a682: 1
14cb10b6b1c8: 1
14cb10b5d340: 1
14cb10b5d93a: 1
14cb10b67103: 1
14cb10b5d944: 1
14cb10b6a350: 1
14cb10b670db: 1
14cb10b5d3c0: 1
14cb10b5d9b9: 1
14cb10b6a443: 1
14cb10b6a4ee: 1
14cb10b6a6f2: 1
14cb10b6af41: 1
14cb10b6af1c: 1
14cb10b69d70: 1
14cb10b6a31f: 1
BTB TOTAL     ACCESS:   37026577  HIT:   37026405  MISS:        172  HIT %:    99.9995  MISS %: 0.000464531   MPKI: 0.00086
BTB Test counter:          0
BTB BRANCH_DIRECT_JUMP	ACCESS:         66  HIT:         33  MISS:         33
BTB BRANCH_INDIRECT	ACCESS:          4  HIT:          0  MISS:          4
BTB BRANCH_CONDITIONAL	ACCESS:   37026441  HIT:   37026352  MISS:         89
BTB BRANCH_DIRECT_CALL	ACCESS:         28  HIT:         10  MISS:         18
BTB BRANCH_INDIRECT_CALL	ACCESS:          5  HIT:          1  MISS:          4
BTB BRANCH_RETURN	ACCESS:         33  HIT:          9  MISS:         24
BTB BRANCH_OTHER ACCESS:          0  HIT:          0  MISS:          0

L2C TOTAL     ACCESS:   35673340  HIT:    9114812  MISS:   26558528  HIT %:    25.5508  MISS %:    74.4492   MPKI: 132.793
L2C Test counter:          0
L2C LOAD      ACCESS:   31815247  HIT:    8834162  MISS:   22981085  HIT %:    27.7671  MISS %:    72.2329   MPKI: 114.905
L2C DATA LOAD MPKI: 114.905
L2C INSTRUCTION LOAD MPKI: 0.000115
L2C RFO       ACCESS:      65558  HIT:        124  MISS:      65434  HIT %:   0.189145  MISS %:    99.8109   MPKI: 0.32717
L2C PREFETCH  ACCESS:    3601721  HIT:      96935  MISS:    3504786  HIT %:    2.69135  MISS %:    97.3086   MPKI: 17.5239
L2C DATA PREFETCH MPKI: 17.5239
L2C INSTRUCTION PREFETCH MPKI: 0
L2C WRITEBACK ACCESS:     149958  HIT:     149911  MISS:         47  HIT %:    99.9687  MISS %:  0.0313421   MPKI: 0.000235
L2C LOAD TRANSLATION ACCESS:      40856  HIT:      33680  MISS:       7176  HIT %:    82.4359  MISS %:    17.5641   MPKI: 0.03588
L2C PREFETCH  REQUESTED:          0  ISSUED:          0  USEFUL:      73182  USELESS:    3431620
L2C USEFUL LOAD PREFETCHES:      73182 PREFETCH ISSUED TO LOWER LEVEL:    3504786  ACCURACY: 2.08806
L2C TIMELY PREFETCHES:      73182 LATE PREFETCHES: 0 DROPPED PREFETCHES: 0
L2C COMMIT LATE PREFETCHES: 0 MISSED OPPORTUNITY: 0 LATE IN PQ: 0 UNCOVERED: 0
L2C COMMIT LATE MSHR PREFETCHES: 0
L2C MPKI TOTAL: 114.905 MSHR LATE: 0 PQ LATE: 0 COMMIT LATE: 0 MISSED OPPORTUNITY: 0 UNCOVERED: 0
L2C PREFETCHES SAME FILL-ORIGIN LEVEL: 36 DIFFERENT FILL-ORIGIN LEVEL: 0
L2C AVERAGE MISS LATENCY: 111.324 cycles
L2C AVERAGE MISS LATENCY LOAD: 101.3 cycles
L2C AVERAGE MISS LATENCY PREFETCH: 175.511 cycles
L2C AVERAGE MSHR OCCUPANCY: 0.155389
L2C MSHR FULL: 0
L2C RQ	ACCESS:   31921662	FORWARD:          0	MERGED:          0	TO_CACHE:   31921661
L2C WQ	ACCESS:     149958	FORWARD:          1	MERGED:          0	TO_CACHE:     149958
L2C PQ	ACCESS:    3601735	FORWARD:          0	MERGED:          0	TO_CACHE:    3601735

L2C Instructions Evicting Data 23
L2C Translations Evicting Data 7173
L2C Data Evicting Data 26544093
L2C Instructions Evicting Instructions 0
L2C Translations Evicting Instructions 1
L2C Data Evicting Instructions 22
L2C Instructions Evicting Translations 0
L2C Translations Evicting Translations 2
L2C Data Evicting Translations 7167
L2C Dense regions hint from L2: 0
14cb10b696e4: 1
14cb10b653c3: 1
14cb10b653cc: 1
14cb10c3c254: 1
14cb10b653bc: 1
14cb10b655e5: 1
14cb10c3c247: 1
55fe46b79510: 1
14cb10b5d9b9: 1
14cb10bbb143: 1
14cb10b6286b: 1
14cb10b6a31f: 1
14cb10b2b040: 1
14cb10b67103: 1
14cb10b6a350: 1
55fe46b7b02d: 1
14cb10b68cdd: 1
14cb10c3c26f: 1
55fe46b7b03f: 1
14cb10b65530: 1
14cb10b95951: 1
14cb10b2b230: 1
14cb10b67ef2: 1
14cb10b670db: 1
14cb10b6b3b8: 1
14cb10b691c6: 1
14cb10b68cd6: 1
14cb10bc5578: 1
14cb10b6567e: 1
14cb10b66461: 1
14cb10b6567a: 1
14cb10b67ee7: 1
14cb10b6b760: 1
55fe46b7afee: 1
14cb10b5d396: 1
14cb10b6a6f2: 1
14cb10b5d340: 1
14cb10b5d93a: 1
14cb10b5d944: 1
14cb10b6a682: 1
14cb10bbb646: 1
14cb10b5d3c0: 1
14cb10b6a4ee: 1
14cb10b2b100: 1
14cb10b6a66c: 1
14cb10b6a443: 1
14cb10b6af1c: 1
14cb10b6a400: 1
14cb10b6a3df: 1
14cb10b691d1: 1
14cb10c3c24b: 1
14cb10b6b3c4: 1
14cb10b696d6: 1
14cb10c3c240: 1
14cb10c3c230: 1
14cb10b6b1c8: 1
14cb10b6af41: 1
14cb10b69d70: 1
55fe46b7afe0: 1
14cb10c3c264: 1
14cb10c3a0b0: 1
14cb10b6a4f2: 3
55fe46b7b09e: 8
55fe46b7b093: 22
55fe46b7b075: 22
55fe46b7b050: 330
55fe46b7b00d: 1027
55fe46b7b07b: 1822
55fe46b7b000: 2051
55fe46b7b054: 2483
55fe46b7b060: 39943
55fe46b7b06a: 22933313
PSCL5 TOTAL     ACCESS:      40819  HIT:      40819  MISS:          0  HIT %:        100  MISS %:          0   MPKI: 0
PSCL5 Test counter:          0
PSCL5 LOAD TRANSLATION ACCESS:      40819  HIT:      40819  MISS:          0  HIT %:        100  MISS %:          0   MPKI: 0
PSCL5 PREFETCH  REQUESTED:          0  ISSUED:          0  USEFUL:          0  USELESS:          0
PSCL5 USEFUL LOAD PREFETCHES:          0 PREFETCH ISSUED TO LOWER LEVEL:          0  ACCURACY: -nan
PSCL5 TIMELY PREFETCHES:          0 LATE PREFETCHES: 0 DROPPED PREFETCHES: 0
PSCL5 COMMIT LATE PREFETCHES: 0 MISSED OPPORTUNITY: 0 LATE IN PQ: 0 UNCOVERED: 0
PSCL5 COMMIT LATE MSHR PREFETCHES: 0
PSCL5 MPKI TOTAL: 0 MSHR LATE: 0 PQ LATE: 0 COMMIT LATE: 0 MISSED OPPORTUNITY: 0 UNCOVERED: 0
PSCL5 PREFETCHES SAME FILL-ORIGIN LEVEL: 0 DIFFERENT FILL-ORIGIN LEVEL: 0

PSCL4 TOTAL     ACCESS:      40819  HIT:      40819  MISS:          0  HIT %:        100  MISS %:          0   MPKI: 0
PSCL4 Test counter:          0
PSCL4 LOAD TRANSLATION ACCESS:      40819  HIT:      40819  MISS:          0  HIT %:        100  MISS %:          0   MPKI: 0
PSCL4 PREFETCH  REQUESTED:          0  ISSUED:          0  USEFUL:          0  USELESS:          0
PSCL4 USEFUL LOAD PREFETCHES:          0 PREFETCH ISSUED TO LOWER LEVEL:          0  ACCURACY: -nan
PSCL4 TIMELY PREFETCHES:          0 LATE PREFETCHES: 0 DROPPED PREFETCHES: 0
PSCL4 COMMIT LATE PREFETCHES: 0 MISSED OPPORTUNITY: 0 LATE IN PQ: 0 UNCOVERED: 0
PSCL4 COMMIT LATE MSHR PREFETCHES: 0
PSCL4 MPKI TOTAL: 0 MSHR LATE: 0 PQ LATE: 0 COMMIT LATE: 0 MISSED OPPORTUNITY: 0 UNCOVERED: 0
PSCL4 PREFETCHES SAME FILL-ORIGIN LEVEL: 0 DIFFERENT FILL-ORIGIN LEVEL: 0

PSCL3 TOTAL     ACCESS:      40819  HIT:      40819  MISS:          0  HIT %:        100  MISS %:          0   MPKI: 0
PSCL3 Test counter:          0
PSCL3 LOAD TRANSLATION ACCESS:      40819  HIT:      40819  MISS:          0  HIT %:        100  MISS %:          0   MPKI: 0
PSCL3 PREFETCH  REQUESTED:          0  ISSUED:          0  USEFUL:          0  USELESS:          0
PSCL3 USEFUL LOAD PREFETCHES:          0 PREFETCH ISSUED TO LOWER LEVEL:          0  ACCURACY: -nan
PSCL3 TIMELY PREFETCHES:          0 LATE PREFETCHES: 0 DROPPED PREFETCHES: 0
PSCL3 COMMIT LATE PREFETCHES: 0 MISSED OPPORTUNITY: 0 LATE IN PQ: 0 UNCOVERED: 0
PSCL3 COMMIT LATE MSHR PREFETCHES: 0
PSCL3 MPKI TOTAL: 0 MSHR LATE: 0 PQ LATE: 0 COMMIT LATE: 0 MISSED OPPORTUNITY: 0 UNCOVERED: 0
PSCL3 PREFETCHES SAME FILL-ORIGIN LEVEL: 0 DIFFERENT FILL-ORIGIN LEVEL: 0

PSCL2 TOTAL     ACCESS:      40819  HIT:      40735  MISS:         84  HIT %:    99.7942  MISS %:   0.205787   MPKI: 0.00042
PSCL2 Test counter:          0
PSCL2 LOAD TRANSLATION ACCESS:      40819  HIT:      40735  MISS:         84  HIT %:    99.7942  MISS %:   0.205787   MPKI: 0.00042
PSCL2 PREFETCH  REQUESTED:          0  ISSUED:          0  USEFUL:          0  USELESS:          0
PSCL2 USEFUL LOAD PREFETCHES:          0 PREFETCH ISSUED TO LOWER LEVEL:          0  ACCURACY: -nan
PSCL2 TIMELY PREFETCHES:          0 LATE PREFETCHES: 0 DROPPED PREFETCHES: 0
PSCL2 COMMIT LATE PREFETCHES: 0 MISSED OPPORTUNITY: 0 LATE IN PQ: 0 UNCOVERED: 0
PSCL2 COMMIT LATE MSHR PREFETCHES: 0
PSCL2 MPKI TOTAL: 0 MSHR LATE: 0 PQ LATE: 0 COMMIT LATE: 0 MISSED OPPORTUNITY: 0 UNCOVERED: 0
PSCL2 PREFETCHES SAME FILL-ORIGIN LEVEL: 0 DIFFERENT FILL-ORIGIN LEVEL: 0

LLC TOTAL     ACCESS:   26694840  HIT:   13005510  MISS:   13689330  HIT %:    48.7192  MISS %:    51.2808   MPKI: 68.4467
LLC Test counter:          0
LLC LOAD      ACCESS:   22981085  HIT:   12563538  MISS:   10417547  HIT %:     54.669  MISS %:     45.331   MPKI: 52.0877
LLC RFO       ACCESS:      65434  HIT:       1456  MISS:      63978  HIT %:    2.22514  MISS %:    97.7749   MPKI: 0.31989
LLC PREFETCH  ACCESS:    3504786  HIT:     302381  MISS:    3202405  HIT %:    8.62766  MISS %:    91.3723   MPKI: 16.012
LLC WRITEBACK ACCESS:     136359  HIT:     136329  MISS:         30  HIT %:     99.978  MISS %:  0.0220007   MPKI: 0.00015
LLC LOAD TRANSLATION ACCESS:       7176  HIT:       1806  MISS:       5370  HIT %:    25.1672  MISS %:    74.8328   MPKI: 0.02685
LLC PREFETCH  REQUESTED:          0  ISSUED:          0  USEFUL:     150636  USELESS:    3052282
LLC USEFUL LOAD PREFETCHES:     150636 PREFETCH ISSUED TO LOWER LEVEL:    3202405  ACCURACY: 4.70384
LLC TIMELY PREFETCHES:     150636 LATE PREFETCHES: 0 DROPPED PREFETCHES: 0
LLC COMMIT LATE PREFETCHES: 0 MISSED OPPORTUNITY: 0 LATE IN PQ: 0 UNCOVERED: 0
LLC COMMIT LATE MSHR PREFETCHES: 0
LLC MPKI TOTAL: 52.0877 MSHR LATE: 0 PQ LATE: 0 COMMIT LATE: 0 MISSED OPPORTUNITY: 0 UNCOVERED: 0
LLC PREFETCHES SAME FILL-ORIGIN LEVEL: 0 DIFFERENT FILL-ORIGIN LEVEL: 0
LLC AVERAGE MISS LATENCY: 157.733 cycles
LLC AVERAGE MISS LATENCY LOAD: 157.235 cycles
LLC AVERAGE MISS LATENCY PREFETCH: 159.236 cycles
LLC AVERAGE MSHR OCCUPANCY: 0.134542
LLC MSHR FULL: 0
LLC RQ	ACCESS:   23053695	FORWARD:          0	MERGED:          0	TO_CACHE:   23053695
LLC WQ	ACCESS:     136359	FORWARD:          0	MERGED:          0	TO_CACHE:     136359
LLC PQ	ACCESS:    3504786	FORWARD:          0	MERGED:          0	TO_CACHE:    3504786

LLC Dense regions hint to LLC: 0
14cb10b653bc: 1
14cb10b2b040: 1
14cb10b6b760: 1
14cb10b6286b: 1
14cb10b696e4: 1
14cb10b5d9b9: 1
55fe46b79510: 1
14cb10c3c247: 1
14cb10b67ee7: 1
14cb10c3c264: 1
14cb10b68cdd: 1
14cb10c3c26f: 1
14cb10b6567a: 1
14cb10b6a350: 1
14cb10b67103: 1
14cb10c3a0b0: 1
14cb10b6a31f: 1
14cb10b655e5: 1
14cb10b653c3: 1
14cb10bbb143: 1
55fe46b7b03f: 1
14cb10b65530: 1
14cb10b95951: 1
14cb10b2b230: 1
14cb10b67ef2: 1
14cb10b670db: 1
14cb10b6b3b8: 1
14cb10b68cd6: 1
14cb10b691c6: 1
14cb10bc5578: 1
14cb10b6567e: 1
14cb10b66461: 1
14cb10c3c254: 1
55fe46b7b02d: 1
55fe46b7afe0: 1
14cb10b69d70: 1
14cb10b6af41: 1
14cb10b6b1c8: 1
14cb10b696d6: 1
14cb10b6b3c4: 1
14cb10b5d3c0: 1
14cb10b5d396: 1
14cb10b6a6f2: 1
14cb10b5d340: 1
14cb10b5d93a: 1
14cb10b5d944: 1
14cb10b6a682: 1
14cb10bbb646: 1
14cb10b6a4ee: 1
14cb10c3c230: 1
14cb10b2b100: 1
14cb10b6a66c: 1
14cb10b6a443: 1
14cb10c3c240: 1
14cb10b6af1c: 1
14cb10b6a400: 1
55fe46b7afee: 1
14cb10b6a3df: 1
14cb10b691d1: 1
14cb10b653cc: 1
14cb10c3c24b: 1
14cb10b6a4f2: 3
55fe46b7b050: 13
55fe46b7b075: 18
55fe46b7b093: 20
55fe46b7b00d: 1027
55fe46b7b07b: 1131
55fe46b7b000: 2051
55fe46b7b054: 2214
55fe46b7b060: 39943
55fe46b7b06a: 10371066

RAW hits: 20
Loads Generated: 77353336
Loads sent to L1D: 77353315
Stores Generated: 3300603
Stores sent to L1D: 3300603
Major fault: 0 Minor fault: 34900
Allocated PAGES: 34900
Total Load insts: 95642886
Total Non-spec loads: 44658514
Percentage of speculative loads: 53.307
L1D response latency: 88.1881 cycles
Load retirement latency: 106.741 cycles

CPU 0 L1D PC-based stride prefetcher final stats
Degree: 3

DRAM Statistics
 CHANNEL 0
 RQ ROW_BUFFER_HIT:    2012813  ROW_BUFFER_MISS:   11676487
 DBUS_CONGESTED:        261
 WQ ROW_BUFFER_HIT:      45098  ROW_BUFFER_MISS:      90986  FULL:          0

 AVG_CONGESTED_CYCLE: 5
 All warmup complete: 2
Channel 0 Bank busy for read cycles: 0
Channel 0 Bank busy for write cycles: 0
Channel 0
Rank 0
0banks busy for read cycles: 1925898677
0banks busy for write cycles: 71537
1banks busy for read cycles: 1445220907
1banks busy for write cycles: 15159446
2banks busy for read cycles: 142011304
2banks busy for write cycles: 901882
3banks busy for read cycles: 26663658
3banks busy for write cycles: 220328
4banks busy for read cycles: 8544093
4banks busy for write cycles: 96515
5banks busy for read cycles: 1614263
5banks busy for write cycles: 60345
6banks busy for read cycles: 104832
6banks busy for write cycles: 98374
7banks busy for read cycles: 5550
7banks busy for write cycles: 349062
8banks busy for read cycles: 317
8banks busy for write cycles: 1695619

CPU 0 Branch Prediction Accuracy: 96.9582% MPKI: 5.63138 Average ROB Occupancy at Mispredict: 137.731
Branch types
NOT_BRANCH: 162973200 81.4866%
BRANCH_DIRECT_JUMP: 66 3.3e-05%
BRANCH_INDIRECT: 4 2e-06%
BRANCH_CONDITIONAL: 37026665 18.5133%
BRANCH_DIRECT_CALL: 28 1.4e-05%
BRANCH_INDIRECT_CALL: 5 2.5e-06%
BRANCH_RETURN: 33 1.65e-05%
BRANCH_OTHER: 0 0%

DRAM PAGES: 1048576
Allocated PAGES: 34900
