
*** ChampSim Multicore Out-of-Order Simulator ***

Warmup Instructions: 50000000
Simulation Instructions: 200000000
Number of CPUs: 1
LLC sets: 2048
LLC ways: 16
Secure Berti: OFF
Berti: OFF
Berti Fill: OFF
On commit prefetching: OFF
L2 LLC Bypass speculative loads: OFF
Off-chip DRAM Size: 4096 MB Channels: 1 Width: 64-bit Data Rate: 6400 MT/s
CPU 0 runs /home/sumon/secure_berti/Berti_Baseline/../../traces/gap/sssp-10.trace.gz
.gz
BTB has LRU replacement policy
ITLB has LRU replacement policy
DTLB has LRU replacement policy
STLB has LRU replacement policy
L1I has LRU replacement policy
CPU 0 L1D IP-based stride prefetcher
L1D has LRU replacement policy
L2C has LRU replacement policy
LLC has LRU replacement policy
Heartbeat CPU 0 instructions: 10000000 cycles: 3080842 heartbeat IPC: 3.24587 cumulative IPC: 3.24587 (Simulation time: 0 hr 0 min 18 sec) 
Heartbeat CPU 0 instructions: 20000003 cycles: 6134513 heartbeat IPC: 3.27475 cumulative IPC: 3.26024 (Simulation time: 0 hr 0 min 37 sec) 
Heartbeat CPU 0 instructions: 30000001 cycles: 9209346 heartbeat IPC: 3.25221 cumulative IPC: 3.25756 (Simulation time: 0 hr 0 min 56 sec) 
Heartbeat CPU 0 instructions: 40000002 cycles: 12297136 heartbeat IPC: 3.23856 cumulative IPC: 3.25279 (Simulation time: 0 hr 1 min 15 sec) 
Heartbeat CPU 0 instructions: 50000001 cycles: 15390860 heartbeat IPC: 3.23235 cumulative IPC: 3.24868 (Simulation time: 0 hr 1 min 34 sec) 

Warmup complete CPU 0 instructions: 50000001 cycles: 15390860 (Simulation time: 0 hr 1 min 34 sec) 

Heartbeat CPU 0 instructions: 60000000 cycles: 45666361 heartbeat IPC: 0.3303 cumulative IPC: 0.3303 (Simulation time: 0 hr 2 min 3 sec) 
Heartbeat CPU 0 instructions: 70000000 cycles: 74781276 heartbeat IPC: 0.343467 cumulative IPC: 0.336755 (Simulation time: 0 hr 2 min 33 sec) 
Heartbeat CPU 0 instructions: 80000001 cycles: 103386135 heartbeat IPC: 0.349591 cumulative IPC: 0.340927 (Simulation time: 0 hr 3 min 2 sec) 
Heartbeat CPU 0 instructions: 90000000 cycles: 131751352 heartbeat IPC: 0.352544 cumulative IPC: 0.343759 (Simulation time: 0 hr 3 min 32 sec) 
Heartbeat CPU 0 instructions: 100000000 cycles: 159235002 heartbeat IPC: 0.363853 cumulative IPC: 0.347598 (Simulation time: 0 hr 4 min 3 sec) 
Heartbeat CPU 0 instructions: 110000000 cycles: 186194582 heartbeat IPC: 0.370926 cumulative IPC: 0.35128 (Simulation time: 0 hr 4 min 33 sec) 
Heartbeat CPU 0 instructions: 120000003 cycles: 212913456 heartbeat IPC: 0.374267 cumulative IPC: 0.35439 (Simulation time: 0 hr 5 min 4 sec) 
Heartbeat CPU 0 instructions: 130000002 cycles: 239268777 heartbeat IPC: 0.37943 cumulative IPC: 0.357338 (Simulation time: 0 hr 5 min 36 sec) 
Heartbeat CPU 0 instructions: 140000002 cycles: 265386337 heartbeat IPC: 0.382884 cumulative IPC: 0.360007 (Simulation time: 0 hr 6 min 9 sec) 
Heartbeat CPU 0 instructions: 150000000 cycles: 291364930 heartbeat IPC: 0.384932 cumulative IPC: 0.362353 (Simulation time: 0 hr 6 min 43 sec) 
Heartbeat CPU 0 instructions: 160000001 cycles: 317158624 heartbeat IPC: 0.387692 cumulative IPC: 0.364519 (Simulation time: 0 hr 7 min 16 sec) 
Heartbeat CPU 0 instructions: 170000002 cycles: 342816110 heartbeat IPC: 0.38975 cumulative IPC: 0.366496 (Simulation time: 0 hr 7 min 50 sec) 
Heartbeat CPU 0 instructions: 180000001 cycles: 368563571 heartbeat IPC: 0.388388 cumulative IPC: 0.368092 (Simulation time: 0 hr 8 min 24 sec) 
Heartbeat CPU 0 instructions: 190000002 cycles: 393719056 heartbeat IPC: 0.397528 cumulative IPC: 0.370049 (Simulation time: 0 hr 8 min 57 sec) 
Heartbeat CPU 0 instructions: 200000003 cycles: 418751983 heartbeat IPC: 0.399474 cumulative IPC: 0.371875 (Simulation time: 0 hr 9 min 30 sec) 
Heartbeat CPU 0 instructions: 210000003 cycles: 443975875 heartbeat IPC: 0.39645 cumulative IPC: 0.373322 (Simulation time: 0 hr 10 min 4 sec) 
Heartbeat CPU 0 instructions: 220000000 cycles: 468978934 heartbeat IPC: 0.399951 cumulative IPC: 0.374789 (Simulation time: 0 hr 10 min 38 sec) 
Heartbeat CPU 0 instructions: 230000001 cycles: 493722013 heartbeat IPC: 0.404153 cumulative IPC: 0.376308 (Simulation time: 0 hr 11 min 11 sec) 
Heartbeat CPU 0 instructions: 240000001 cycles: 518450693 heartbeat IPC: 0.404389 cumulative IPC: 0.377689 (Simulation time: 0 hr 11 min 43 sec) 
Heartbeat CPU 0 instructions: 250000000 cycles: 543240761 heartbeat IPC: 0.403387 cumulative IPC: 0.378896 (Simulation time: 0 hr 12 min 15 sec) 
Finished CPU 0 instructions: 200000003 cycles: 527849902 cumulative IPC: 0.378896 (Simulation time: 0 hr 12 min 15 sec) 

ChampSim completed all CPUs

Region of Interest Statistics

CPU 0 cumulative IPC: 0.378896 instructions: 200000003 cycles: 527849902
ITLB TOTAL     ACCESS:   24390995  HIT:   24390995  MISS:          0  HIT %:        100  MISS %:          0   MPKI: 0
ITLB Test counter:          0
ITLB LOAD TRANSLATION ACCESS:   24390995  HIT:   24390995  MISS:          0  HIT %:        100  MISS %:          0   MPKI: 0
ITLB PREFETCH  REQUESTED:          0  ISSUED:          0  USEFUL:          0  USELESS:          0
ITLB USEFUL LOAD PREFETCHES:          0 PREFETCH ISSUED TO LOWER LEVEL:          0  ACCURACY: -nan
ITLB TIMELY PREFETCHES:          0 LATE PREFETCHES: 0 DROPPED PREFETCHES: 0
ITLB COMMIT LATE PREFETCHES: 0 MISSED OPPORTUNITY: 0 LATE IN PQ: 0 UNCOVERED: 0
ITLB COMMIT LATE MSHR PREFETCHES: 0
ITLB MPKI TOTAL: 0 MSHR LATE: 0 PQ LATE: 0 COMMIT LATE: 0 MISSED OPPORTUNITY: 0 UNCOVERED: 0
ITLB PREFETCHES SAME FILL-ORIGIN LEVEL: 0 DIFFERENT FILL-ORIGIN LEVEL: 0
ITLB AVERAGE MISS LATENCY: -nan cycles
ITLB AVERAGE MISS LATENCY LOAD: -nan cycles
ITLB AVERAGE MISS LATENCY PREFETCH: -nan cycles
ITLB AVERAGE MSHR OCCUPANCY: 0
ITLB MSHR FULL: 0
ITLB RQ	ACCESS:   25055125	FORWARD:          0	MERGED:     664130	TO_CACHE:   24390995

DTLB TOTAL     ACCESS:   43314138  HIT:   38639161  MISS:    4674977  HIT %:    89.2068  MISS %:    10.7932   MPKI: 23.3749
DTLB Test counter:          0
DTLB LOAD TRANSLATION ACCESS:   43314138  HIT:   38639161  MISS:    4674977  HIT %:    89.2068  MISS %:    10.7932   MPKI: 23.3749
DTLB PREFETCH  REQUESTED:          0  ISSUED:          0  USEFUL:          0  USELESS:          0
DTLB USEFUL LOAD PREFETCHES:          0 PREFETCH ISSUED TO LOWER LEVEL:          0  ACCURACY: -nan
DTLB TIMELY PREFETCHES:          0 LATE PREFETCHES: 0 DROPPED PREFETCHES: 0
DTLB COMMIT LATE PREFETCHES: 0 MISSED OPPORTUNITY: 0 LATE IN PQ: 0 UNCOVERED: 0
DTLB COMMIT LATE MSHR PREFETCHES: 0
DTLB MPKI TOTAL: 0 MSHR LATE: 0 PQ LATE: 0 COMMIT LATE: 0 MISSED OPPORTUNITY: 0 UNCOVERED: 0
DTLB PREFETCHES SAME FILL-ORIGIN LEVEL: 0 DIFFERENT FILL-ORIGIN LEVEL: 0
DTLB AVERAGE MISS LATENCY: 11.6508 cycles
DTLB AVERAGE MISS LATENCY LOAD: -nan cycles
DTLB AVERAGE MISS LATENCY PREFETCH: -nan cycles
DTLB AVERAGE MSHR OCCUPANCY: 0.175988
DTLB MSHR FULL: 2.76074e-07
DTLB RQ	ACCESS:   45613501	FORWARD:          0	MERGED:    2146816	TO_CACHE:   43466685

STLB TOTAL     ACCESS:    7121491  HIT:    7060728  MISS:      60763  HIT %:    99.1468  MISS %:   0.853234   MPKI: 0.303815
STLB Test counter:          0
STLB LOAD TRANSLATION ACCESS:    4674977  HIT:    4614216  MISS:      60761  HIT %:    98.7003  MISS %:    1.29971   MPKI: 0.303805
STLB TRANSLATION FROM L1D PREFETCHER ACCESS:    2446514  HIT:    2446512  MISS:          2  HIT %:    99.9999  MISS %: 8.1749e-05   MPKI: 1e-05
STLB PREFETCH  REQUESTED:          0  ISSUED:          0  USEFUL:          2  USELESS:          0
STLB USEFUL LOAD PREFETCHES:          2 PREFETCH ISSUED TO LOWER LEVEL:          0  ACCURACY: inf
STLB TIMELY PREFETCHES:          2 LATE PREFETCHES: 0 DROPPED PREFETCHES: 0
STLB COMMIT LATE PREFETCHES: 0 MISSED OPPORTUNITY: 0 LATE IN PQ: 0 UNCOVERED: 0
STLB COMMIT LATE MSHR PREFETCHES: 0
STLB MPKI TOTAL: 0 MSHR LATE: 0 PQ LATE: 0 COMMIT LATE: 0 MISSED OPPORTUNITY: 0 UNCOVERED: 0
STLB PREFETCHES SAME FILL-ORIGIN LEVEL: 0 DIFFERENT FILL-ORIGIN LEVEL: 0
STLB AVERAGE MISS LATENCY: 186.177 cycles
STLB AVERAGE MISS LATENCY LOAD: -nan cycles
STLB AVERAGE MISS LATENCY PREFETCH: -nan cycles
STLB AVERAGE MSHR OCCUPANCY: 0.00528106
STLB MSHR FULL: 0
STLB RQ	ACCESS:   11831318	FORWARD:          0	MERGED:    4709827	TO_CACHE:    7121491

STLB Hit, L1D data hit: 0
STLB Hit, L2C data hit: 0
STLB Hit, LLC data hit: 0
STLB Hit, LLC data miss: 0
STLB STLB hints to L2: 0
L1D TOTAL     ACCESS:   50833850  HIT:   39601087  MISS:   11232763  HIT %:     77.903  MISS %:     22.097   MPKI: 56.1638
L1D Test counter:          0
L1D LOAD      ACCESS:   43132467  HIT:   33894189  MISS:    9503233  HIT %:    78.5816  MISS %:    21.4184   MPKI: 46.1914
L1D RFO       ACCESS:    2032979  HIT:    1557046  MISS:     475933  HIT %:    76.5894  MISS %:    23.4106   MPKI: 2.37966
L1D PREFETCH  ACCESS:    5668404  HIT:    4149852  MISS:    1518552  HIT %:    73.2102  MISS %:    26.7898   MPKI: 7.59276
L1D PREFETCH  REQUESTED:   14425481  ISSUED:   14425481  USEFUL:    1144871  USELESS:     373758
L1D USEFUL LOAD PREFETCHES:    1144871 PREFETCH ISSUED TO LOWER LEVEL:    1600728  ACCURACY: 71.5219
L1D TIMELY PREFETCHES:    1144871 LATE PREFETCHES: 31184 DROPPED PREFETCHES: 0
L1D COMMIT LATE PREFETCHES: 0 MISSED OPPORTUNITY: 0 LATE IN PQ: 50967 UNCOVERED: 0
L1D COMMIT LATE MSHR PREFETCHES: 0
L1D MPKI TOTAL: 47.5162 MSHR LATE: 0.15592 PQ LATE: 0.254835 COMMIT LATE: 0 MISSED OPPORTUNITY: 0 UNCOVERED: 0
L1D PREFETCHES SAME FILL-ORIGIN LEVEL: 1549737 DIFFERENT FILL-ORIGIN LEVEL: 50991
L1D AVERAGE MISS LATENCY: 103.774 cycles
L1D AVERAGE MISS LATENCY LOAD: 90.6767 cycles
L1D AVERAGE MISS LATENCY PREFETCH: 194.074 cycles
L1D AVERAGE MSHR OCCUPANCY: 2.25545
L1D MSHR FULL: 0.0237097
L1D RQ	ACCESS:   76736484	FORWARD:          0	MERGED:   33334554	TO_CACHE:   43397421
L1D WQ	ACCESS:    2216772	FORWARD:       4509	MERGED:        692	TO_CACHE:    2216080
L1D PQ	ACCESS:    7269140	FORWARD:          0	MERGED:     112799	TO_CACHE:    7156341

L1D UNIQUE REGIONS ACCESSED: 0
L1D REGIONS CONFLICTS: 0
L1D Cross Page Prefetch Requests: 0
L1D Same Page Prefetch Requests: 9012427
L1D ROI Sum of L1D PQ occupancy: 97925700
L1D PREFETCHES PUSHED FROM L2C: 0
56546d1c24af: 1
56546d1c2485: 1
56546d1c2442: 1
7ffd9c71bd75: 1
56546d1c25c5: 1
14aace2a75d0: 1
56546d1c0710: 1
14aace2a758f: 1
14aace2a7646: 1
56546d1c248c: 1
56546d1c21c5: 1
56546d1c24aa: 1
14aace2a75c5: 2
14aace2a7477: 2
14aace2a75d4: 2
14aace2a76c3: 2
14aace284457: 3
14aace28120e: 3
14aace280913: 4
14aace283d67: 5
56546d1c2568: 5
14aace281252: 5
14aace28124c: 6
14aace28444d: 7
56546d1c2322: 7
14aace2843a4: 7
14aace28445d: 7
14aace280f2b: 7
14aace28113f: 8
14aace2a764b: 8
14aace28121e: 9
14aace2a7650: 9
14aace28439a: 9
14aace283d3b: 11
56546d1c2585: 11
14aace283ccc: 12
14aace280795: 12
14aace283cf9: 13
14aace28438c: 14
14aace28115a: 14
14aace283e41: 15
14aace28320e: 15
14aace283207: 16
14aace2831f4: 16
14aace280f19: 17
14aace280e6c: 18
14aace28431c: 19
14aace283a12: 20
14aace280f46: 20
56546d1c24d3: 22
14aace28112d: 23
14aace281106: 23
14aace28062d: 23
14aace283d4d: 24
14aace2a7641: 24
14aace281135: 26
14aace2a763e: 27
14aace283d43: 27
14aace2a7672: 29
56546d1c2317: 29
14aace2a7686: 30
14aace280e97: 30
14aace280ebb: 30
14aace280867: 33
14aace2810ec: 33
14aace280896: 33
14aace280eb2: 46
14aace283d7f: 46
14aace2a774a: 46
14aace2839a6: 47
14aace283971: 47
14aace283a09: 47
56546d1c2539: 47
56546d1c2327: 47
14aace28399f: 47
14aace283cde: 48
56546d1c232f: 48
14aace281174: 50
14aace28110a: 51
14aace283c4f: 53
14aace283c95: 53
14aace283a27: 53
14aace283c61: 53
14aace283cb6: 55
14aace283c45: 56
14aace2810e6: 57
14aace2a76cb: 57
14aace283cd4: 57
14aace280c11: 58
14aace2a76cf: 60
14aace283c88: 60
14aace2a76c7: 63
14aace2805a7: 66
14aace280c15: 75
14aace281123: 77
14aace280ef2: 77
14aace280f10: 88
14aace28398d: 95
14aace283c6b: 98
14aace280bf5: 101
14aace2810f0: 110
14aace2808f4: 139
14aace28060d: 163
14aace2a76d3: 176
14aace2808e8: 194
14aace28065b: 205
14aace280f73: 211
14aace2a76f6: 226
14aace2a76c4: 232
14aace28058f: 235
14aace283d1a: 239
14aace2804f8: 243
14aace280323: 244
14aace2830e3: 244
14aace283e55: 244
14aace280574: 244
14aace2805f4: 246
14aace2830c1: 257
14aace283076: 257
14aace2830cf: 257
14aace2830af: 257
14aacec1d3f0: 257
14aace283978: 258
14aacec1cb30: 258
56546d1c0720: 258
56546d1c0580: 258
14aace283961: 258
14aace28307d: 259
56546d1c05b0: 259
14aace280581: 273
14aace2a7682: 530
14aace2a767f: 1251
56546d1c21eb: 1607
14aace2a768a: 3112
56546d1c21e3: 3202
56546d1c21b8: 4056
14aace2a770e: 12027
56546d1c21e7: 12716
56546d1c21d5: 12974
14aace2a7703: 13821
14aace2a7706: 14449
14aace2a770a: 14665
56546d1c22dc: 28995
56546d1c2200: 54567
56546d1c22d8: 225285
56546d1c2226: 8825193
L1I TOTAL     ACCESS:   25055125  HIT:   25055125  MISS:          0  HIT %:        100  MISS %:          0   MPKI: 0
L1I Test counter:          0
L1I LOAD      ACCESS:   25055125  HIT:   25055125  MISS:          0  HIT %:        100  MISS %:          0   MPKI: 0
L1I PREFETCH  REQUESTED:          0  ISSUED:          0  USEFUL:          0  USELESS:          0
L1I USEFUL LOAD PREFETCHES:          0 PREFETCH ISSUED TO LOWER LEVEL:          0  ACCURACY: -nan
L1I TIMELY PREFETCHES:          0 LATE PREFETCHES: 0 DROPPED PREFETCHES: 0
L1I COMMIT LATE PREFETCHES: 0 MISSED OPPORTUNITY: 0 LATE IN PQ: 0 UNCOVERED: 0
L1I COMMIT LATE MSHR PREFETCHES: 0
L1I MPKI TOTAL: 0 MSHR LATE: 0 PQ LATE: 0 COMMIT LATE: 0 MISSED OPPORTUNITY: 0 UNCOVERED: 0
L1I PREFETCHES SAME FILL-ORIGIN LEVEL: 0 DIFFERENT FILL-ORIGIN LEVEL: 0
L1I AVERAGE MISS LATENCY: -nan cycles
L1I AVERAGE MISS LATENCY LOAD: -nan cycles
L1I AVERAGE MISS LATENCY PREFETCH: -nan cycles
L1I AVERAGE MSHR OCCUPANCY: 0
L1I MSHR FULL: 0
L1I RQ	ACCESS:   38902788	FORWARD:          0	MERGED:   13847663	TO_CACHE:   25055125

BTB TOTAL     ACCESS:   29056031  HIT:   29055886  MISS:        145  HIT %:    99.9995  MISS %: 0.000499036   MPKI: 0.000725
BTB Test counter:          0
BTB BRANCH_DIRECT_JUMP	ACCESS:    9225403  HIT:    9225362  MISS:         41
BTB BRANCH_INDIRECT	ACCESS:          0  HIT:          0  MISS:          0
BTB BRANCH_CONDITIONAL	ACCESS:   19828000  HIT:   19827919  MISS:         81
BTB BRANCH_DIRECT_CALL	ACCESS:       1314  HIT:       1305  MISS:          9
BTB BRANCH_INDIRECT_CALL	ACCESS:          0  HIT:          0  MISS:          0
BTB BRANCH_RETURN	ACCESS:       1314  HIT:       1300  MISS:         14
BTB BRANCH_OTHER ACCESS:          0  HIT:          0  MISS:          0

L2C TOTAL     ACCESS:   12680855  HIT:    4030409  MISS:    8650446  HIT %:    31.7834  MISS %:    68.2166   MPKI: 43.2522
L2C Test counter:          0
L2C LOAD      ACCESS:    9207091  HIT:    2316984  MISS:    6890109  HIT %:    25.1652  MISS %:    74.8348   MPKI: 34.4505
L2C DATA LOAD MPKI: 34.4505
L2C INSTRUCTION LOAD MPKI: 0
L2C RFO       ACCESS:     475931  HIT:     303984  MISS:     171947  HIT %:    63.8714  MISS %:    36.1286   MPKI: 0.859735
L2C PREFETCH  ACCESS:    1569728  HIT:      28712  MISS:    1541016  HIT %:    1.82911  MISS %:    98.1709   MPKI: 7.70508
L2C DATA PREFETCH MPKI: 7.70508
L2C INSTRUCTION PREFETCH MPKI: 0
L2C WRITEBACK ACCESS:    1354957  HIT:    1353469  MISS:       1488  HIT %:    99.8902  MISS %:   0.109819   MPKI: 0.00744
L2C LOAD TRANSLATION ACCESS:      73146  HIT:      27259  MISS:      45887  HIT %:    37.2666  MISS %:    62.7334   MPKI: 0.229435
L2C TRANSLATION FROM L1D PREFETCHER ACCESS:          2  HIT:          1  MISS:          1  HIT %:         50  MISS %:         50   MPKI: 5e-06
L2C PREFETCH  REQUESTED:          0  ISSUED:          0  USEFUL:      21529  USELESS:    1519946
L2C USEFUL LOAD PREFETCHES:      21529 PREFETCH ISSUED TO LOWER LEVEL:    1559714  ACCURACY: 1.38032
L2C TIMELY PREFETCHES:      21529 LATE PREFETCHES: 18697 DROPPED PREFETCHES: 0
L2C COMMIT LATE PREFETCHES: 0 MISSED OPPORTUNITY: 0 LATE IN PQ: 0 UNCOVERED: 0
L2C COMMIT LATE MSHR PREFETCHES: 0
L2C MPKI TOTAL: 34.4505 MSHR LATE: 0.093485 PQ LATE: 0 COMMIT LATE: 0 MISSED OPPORTUNITY: 0 UNCOVERED: 0
L2C PREFETCHES SAME FILL-ORIGIN LEVEL: 40107 DIFFERENT FILL-ORIGIN LEVEL: 0
L2C AVERAGE MISS LATENCY: 116.769 cycles
L2C AVERAGE MISS LATENCY LOAD: 101.235 cycles
L2C AVERAGE MISS LATENCY PREFETCH: 181.232 cycles
L2C AVERAGE MSHR OCCUPANCY: 2.36905
L2C MSHR FULL: 0
L2C RQ	ACCESS:    9756177	FORWARD:          0	MERGED:          0	TO_CACHE:    9756172
L2C WQ	ACCESS:    1354957	FORWARD:          5	MERGED:          0	TO_CACHE:    1354957
L2C PQ	ACCESS:    1600728	FORWARD:          0	MERGED:          9	TO_CACHE:    1600719

L2C Instructions Evicting Data 0
L2C Translations Evicting Data 45605
L2C Data Evicting Data 8557496
L2C Instructions Evicting Instructions 0
L2C Translations Evicting Instructions 0
L2C Data Evicting Instructions 0
L2C Instructions Evicting Translations 0
L2C Translations Evicting Translations 283
L2C Data Evicting Translations 45574
L2C Dense regions hint from L2: 0
56546d1c2442: 1
7ffd9c71bd75: 1
56546d1c25c5: 1
14aace2a75d0: 1
56546d1c2539: 1
56546d1c21c5: 1
14aace2a758f: 1
14aace2a7646: 1
56546d1c0710: 1
14aace280913: 2
14aace2a75c5: 2
14aace2a7477: 2
14aace2a75d4: 2
14aace284457: 3
14aace28120e: 3
14aace283a27: 4
14aace283c95: 4
14aace283c45: 4
14aace283c4f: 4
14aace283c61: 4
14aace283d67: 4
14aace283d7f: 4
14aace281252: 5
14aace28445d: 5
14aace28124c: 6
14aace2843a4: 6
14aace280f2b: 7
14aace28444d: 7
14aace2a764b: 8
14aace28439a: 8
14aace28113f: 8
14aace2a7641: 9
14aace2a7650: 9
56546d1c232f: 9
56546d1c24d3: 9
14aace28121e: 9
14aace283c88: 10
14aace283d3b: 10
14aace280795: 12
14aace283ccc: 12
14aace283cf9: 12
14aace28438c: 13
14aace28115a: 14
14aace28320e: 15
14aace283e41: 15
14aace280f19: 16
14aace280e6c: 16
14aace2831f4: 16
14aace283207: 16
14aace2a7686: 18
14aace280f46: 19
14aace28431c: 19
14aace283a12: 20
14aace2a7672: 20
14aace281106: 21
14aace28112d: 22
14aace28062d: 23
14aace280867: 23
14aace283d4d: 24
14aace281135: 24
14aace280896: 25
14aace283d43: 26
14aace2a763e: 27
14aace280e97: 29
14aace280ebb: 29
14aace2810ec: 31
14aace283cde: 44
14aace28398d: 45
14aace280eb2: 46
56546d1c2327: 47
14aace28110a: 47
14aace281174: 48
14aace283cd4: 51
14aace283cb6: 51
14aace2805a7: 52
14aace283c6b: 53
14aace280c11: 54
14aace2810e6: 55
14aace2a76cb: 57
14aace2a76cf: 60
14aace2a76c7: 63
14aace280ef2: 73
14aace2a76d3: 73
14aace280c15: 73
14aace281123: 74
14aace280f10: 84
14aace280bf5: 94
14aace2810f0: 101
14aace2808f4: 130
14aace28060d: 153
14aace28065b: 172
14aace280f73: 175
14aace2808e8: 178
14aace283e55: 179
14aace2830e3: 182
14aace28058f: 183
14aace2a76f6: 186
14aace2830cf: 189
14aace2830c1: 191
14aace280323: 191
14aace283076: 194
14aace283978: 197
14aacec1d3f0: 198
14aace2804f8: 199
14aace28307d: 200
14aace280574: 201
14aace2830af: 202
56546d1c0580: 203
56546d1c0720: 204
56546d1c05b0: 204
14aace283961: 205
14aacec1cb30: 207
14aace280581: 215
14aace2805f4: 225
14aace2a76c4: 231
14aace283d1a: 237
56546d1c21e3: 246
14aace2a7682: 425
56546d1c21b8: 691
14aace2a767f: 1037
56546d1c21eb: 1607
56546d1c22dc: 2446
14aace2a768a: 2582
14aace2a770e: 9725
56546d1c21d5: 10351
14aace2a7703: 11517
14aace2a770a: 11845
14aace2a7706: 11876
56546d1c21e7: 12715
56546d1c22d8: 20471
56546d1c2200: 54261
56546d1c2226: 6730803
PSCL5 TOTAL     ACCESS:      60763  HIT:      60763  MISS:          0  HIT %:        100  MISS %:          0   MPKI: 0
PSCL5 Test counter:          0
PSCL5 LOAD TRANSLATION ACCESS:      60761  HIT:      60761  MISS:          0  HIT %:        100  MISS %:          0   MPKI: 0
PSCL5 TRANSLATION FROM L1D PREFETCHER ACCESS:          2  HIT:          2  MISS:          0  HIT %:        100  MISS %:          0   MPKI: 0
PSCL5 PREFETCH  REQUESTED:          0  ISSUED:          0  USEFUL:          0  USELESS:          0
PSCL5 USEFUL LOAD PREFETCHES:          0 PREFETCH ISSUED TO LOWER LEVEL:          0  ACCURACY: -nan
PSCL5 TIMELY PREFETCHES:          0 LATE PREFETCHES: 0 DROPPED PREFETCHES: 0
PSCL5 COMMIT LATE PREFETCHES: 0 MISSED OPPORTUNITY: 0 LATE IN PQ: 0 UNCOVERED: 0
PSCL5 COMMIT LATE MSHR PREFETCHES: 0
PSCL5 MPKI TOTAL: 0 MSHR LATE: 0 PQ LATE: 0 COMMIT LATE: 0 MISSED OPPORTUNITY: 0 UNCOVERED: 0
PSCL5 PREFETCHES SAME FILL-ORIGIN LEVEL: 0 DIFFERENT FILL-ORIGIN LEVEL: 0

PSCL4 TOTAL     ACCESS:      60763  HIT:      60763  MISS:          0  HIT %:        100  MISS %:          0   MPKI: 0
PSCL4 Test counter:          0
PSCL4 LOAD TRANSLATION ACCESS:      60761  HIT:      60761  MISS:          0  HIT %:        100  MISS %:          0   MPKI: 0
PSCL4 TRANSLATION FROM L1D PREFETCHER ACCESS:          2  HIT:          2  MISS:          0  HIT %:        100  MISS %:          0   MPKI: 0
PSCL4 PREFETCH  REQUESTED:          0  ISSUED:          0  USEFUL:          0  USELESS:          0
PSCL4 USEFUL LOAD PREFETCHES:          0 PREFETCH ISSUED TO LOWER LEVEL:          0  ACCURACY: -nan
PSCL4 TIMELY PREFETCHES:          0 LATE PREFETCHES: 0 DROPPED PREFETCHES: 0
PSCL4 COMMIT LATE PREFETCHES: 0 MISSED OPPORTUNITY: 0 LATE IN PQ: 0 UNCOVERED: 0
PSCL4 COMMIT LATE MSHR PREFETCHES: 0
PSCL4 MPKI TOTAL: 0 MSHR LATE: 0 PQ LATE: 0 COMMIT LATE: 0 MISSED OPPORTUNITY: 0 UNCOVERED: 0
PSCL4 PREFETCHES SAME FILL-ORIGIN LEVEL: 0 DIFFERENT FILL-ORIGIN LEVEL: 0

PSCL3 TOTAL     ACCESS:      60763  HIT:      60763  MISS:          0  HIT %:        100  MISS %:          0   MPKI: 0
PSCL3 Test counter:          0
PSCL3 LOAD TRANSLATION ACCESS:      60761  HIT:      60761  MISS:          0  HIT %:        100  MISS %:          0   MPKI: 0
PSCL3 TRANSLATION FROM L1D PREFETCHER ACCESS:          2  HIT:          2  MISS:          0  HIT %:        100  MISS %:          0   MPKI: 0
PSCL3 PREFETCH  REQUESTED:          0  ISSUED:          0  USEFUL:          0  USELESS:          0
PSCL3 USEFUL LOAD PREFETCHES:          0 PREFETCH ISSUED TO LOWER LEVEL:          0  ACCURACY: -nan
PSCL3 TIMELY PREFETCHES:          0 LATE PREFETCHES: 0 DROPPED PREFETCHES: 0
PSCL3 COMMIT LATE PREFETCHES: 0 MISSED OPPORTUNITY: 0 LATE IN PQ: 0 UNCOVERED: 0
PSCL3 COMMIT LATE MSHR PREFETCHES: 0
PSCL3 MPKI TOTAL: 0 MSHR LATE: 0 PQ LATE: 0 COMMIT LATE: 0 MISSED OPPORTUNITY: 0 UNCOVERED: 0
PSCL3 PREFETCHES SAME FILL-ORIGIN LEVEL: 0 DIFFERENT FILL-ORIGIN LEVEL: 0

PSCL2 TOTAL     ACCESS:      60763  HIT:      48374  MISS:      12389  HIT %:    79.6109  MISS %:    20.3891   MPKI: 0.061945
PSCL2 Test counter:          0
PSCL2 LOAD TRANSLATION ACCESS:      60761  HIT:      48372  MISS:      12389  HIT %:    79.6103  MISS %:    20.3897   MPKI: 0.061945
PSCL2 TRANSLATION FROM L1D PREFETCHER ACCESS:          2  HIT:          2  MISS:          0  HIT %:        100  MISS %:          0   MPKI: 0
PSCL2 PREFETCH  REQUESTED:          0  ISSUED:          0  USEFUL:          0  USELESS:          0
PSCL2 USEFUL LOAD PREFETCHES:          0 PREFETCH ISSUED TO LOWER LEVEL:          0  ACCURACY: -nan
PSCL2 TIMELY PREFETCHES:          0 LATE PREFETCHES: 0 DROPPED PREFETCHES: 0
PSCL2 COMMIT LATE PREFETCHES: 0 MISSED OPPORTUNITY: 0 LATE IN PQ: 0 UNCOVERED: 0
PSCL2 COMMIT LATE MSHR PREFETCHES: 0
PSCL2 MPKI TOTAL: 0 MSHR LATE: 0 PQ LATE: 0 COMMIT LATE: 0 MISSED OPPORTUNITY: 0 UNCOVERED: 0
PSCL2 PREFETCHES SAME FILL-ORIGIN LEVEL: 0 DIFFERENT FILL-ORIGIN LEVEL: 0

LLC TOTAL     ACCESS:    9483981  HIT:    4783673  MISS:    4700308  HIT %:    50.4395  MISS %:    49.5605   MPKI: 23.5015
LLC Test counter:          0
LLC LOAD      ACCESS:    6871410  HIT:    3755528  MISS:    3115883  HIT %:    54.6544  MISS %:    45.3456   MPKI: 15.5794
LLC RFO       ACCESS:     171946  HIT:      68272  MISS:     103674  HIT %:    39.7055  MISS %:    60.2945   MPKI: 0.51837
LLC PREFETCH  ACCESS:    1559712  HIT:     118484  MISS:    1441228  HIT %:    7.59653  MISS %:    92.4035   MPKI: 7.20614
LLC WRITEBACK ACCESS:     835025  HIT:     829082  MISS:       5943  HIT %:    99.2883  MISS %:   0.711715   MPKI: 0.029715
LLC LOAD TRANSLATION ACCESS:      45887  HIT:      12306  MISS:      33581  HIT %:    26.8181  MISS %:    73.1819   MPKI: 0.167905
LLC TRANSLATION FROM L1D PREFETCHER ACCESS:          1  HIT:          1  MISS:          0  HIT %:        100  MISS %:          0   MPKI: 0
LLC PREFETCH  REQUESTED:          0  ISSUED:          0  USEFUL:      60242  USELESS:    1381661
LLC USEFUL LOAD PREFETCHES:      60242 PREFETCH ISSUED TO LOWER LEVEL:    1441229  ACCURACY: 4.1799
LLC TIMELY PREFETCHES:      60242 LATE PREFETCHES: 0 DROPPED PREFETCHES: 0
LLC COMMIT LATE PREFETCHES: 0 MISSED OPPORTUNITY: 0 LATE IN PQ: 0 UNCOVERED: 0
LLC COMMIT LATE MSHR PREFETCHES: 0
LLC MPKI TOTAL: 15.5794 MSHR LATE: 0 PQ LATE: 0 COMMIT LATE: 0 MISSED OPPORTUNITY: 0 UNCOVERED: 0
LLC PREFETCHES SAME FILL-ORIGIN LEVEL: 0 DIFFERENT FILL-ORIGIN LEVEL: 0
LLC AVERAGE MISS LATENCY: 159.899 cycles
LLC AVERAGE MISS LATENCY LOAD: 156.289 cycles
LLC AVERAGE MISS LATENCY PREFETCH: 165.061 cycles
LLC AVERAGE MSHR OCCUPANCY: 1.73072
LLC MSHR FULL: 0
LLC RQ	ACCESS:    7089247	FORWARD:          0	MERGED:          0	TO_CACHE:    7089246
LLC WQ	ACCESS:     835025	FORWARD:          2	MERGED:          0	TO_CACHE:     835025
LLC PQ	ACCESS:    1559714	FORWARD:          0	MERGED:          0	TO_CACHE:    1559713

LLC Dense regions hint to LLC: 0
14aace2a7641: 1
56546d1c2442: 1
14aace283a27: 1
14aace2a758f: 1
14aace280913: 1
14aace283c61: 1
14aace283c4f: 1
14aace283c45: 1
14aace283c95: 1
14aace2a75d0: 1
14aace2a75d4: 1
56546d1c25c5: 1
7ffd9c71bd75: 1
56546d1c24d3: 2
14aace2a7477: 2
14aace2a75c5: 2
14aace283d67: 3
56546d1c232f: 3
14aace28120e: 3
14aace284457: 3
14aace283c88: 3
14aace28445d: 3
14aace281252: 3
14aace2843a4: 4
14aace2a7650: 5
14aace2a764b: 6
14aace28444d: 6
14aace280f2b: 6
14aace28124c: 6
14aace28113f: 7
14aace2a7686: 8
14aace28121e: 8
14aace28439a: 8
14aace2a7672: 9
14aace283ccc: 9
14aace280867: 9
14aace280896: 9
14aace28115a: 10
14aace283d3b: 10
14aace28438c: 10
14aace283cf9: 11
14aace280795: 12
14aace280e6c: 12
14aace28320e: 13
14aace2a76d3: 14
14aace2831f4: 14
14aace283e41: 14
14aace280f19: 15
14aace280f46: 15
14aace281106: 15
14aace28398d: 15
14aace283207: 16
14aace283a12: 18
14aace2805a7: 18
14aace28431c: 19
14aace28112d: 20
14aace283d43: 20
14aace283d4d: 20
14aace281135: 21
14aace28062d: 21
14aace280ebb: 23
14aace2810ec: 25
14aace280e97: 25
14aace2a763e: 27
14aace280eb2: 32
14aace28110a: 33
14aace283cde: 37
14aace280c11: 39
56546d1c21b8: 41
14aace2810e6: 42
14aace283cd4: 44
56546d1c2327: 44
14aace281174: 44
14aace283cb6: 45
14aace283c6b: 53
14aace2a76cb: 57
14aace2830c1: 57
14aace280c15: 57
14aace2a76cf: 60
56546d1c0720: 62
14aace2a76c7: 63
56546d1c0580: 64
14aace280ef2: 64
14aace283978: 64
14aace2830cf: 65
14aace2830af: 67
14aace281123: 67
14aace280bf5: 69
14aace280f10: 69
14aace283076: 69
14aace28307d: 69
14aace280f73: 70
14aace28058f: 70
14aace280574: 72
14aace2830e3: 73
14aace283e55: 74
14aace280581: 76
14aacec1d3f0: 76
14aace28065b: 76
14aace2810f0: 77
14aace280323: 77
56546d1c05b0: 78
14aacec1cb30: 79
14aace283961: 83
14aace2a76f6: 88
14aace2808f4: 88
56546d1c21e3: 89
14aace2804f8: 91
14aace2808e8: 116
14aace28060d: 125
14aace2805f4: 132
56546d1c22dc: 156
14aace283d1a: 223
14aace2a76c4: 224
14aace2a7682: 274
14aace2a767f: 641
56546d1c22d8: 1184
14aace2a768a: 1547
56546d1c21eb: 1607
56546d1c21d5: 5124
14aace2a770e: 5703
14aace2a7703: 7329
14aace2a770a: 7508
14aace2a7706: 7572
56546d1c21e7: 12711
56546d1c2200: 54257
56546d1c2226: 3006042

RAW hits: 69228
Loads Generated: 76805712
Loads sent to L1D: 76736484
Stores Generated: 2216772
Stores sent to L1D: 2216772
Major fault: 0 Minor fault: 37080
Allocated PAGES: 37080
Total Load insts: 93561497
Total Non-spec loads: 6445353
Percentage of speculative loads: 93.1111
L1D response latency: 90.9838 cycles
Load retirement latency: 169.863 cycles

CPU 0 L1D PC-based stride prefetcher final stats
Degree: 3

DRAM Statistics
 CHANNEL 0
 RQ ROW_BUFFER_HIT:    1221360  ROW_BUFFER_MISS:    3472969
 DBUS_CONGESTED:       3763
 WQ ROW_BUFFER_HIT:     230635  ROW_BUFFER_MISS:     480858  FULL:          0

 AVG_CONGESTED_CYCLE: 4
 All warmup complete: 2
Channel 0 Bank busy for read cycles: 0
Channel 0 Bank busy for write cycles: 0
Channel 0
Rank 0
0banks busy for read cycles: 107787085
0banks busy for write cycles: 354985
1banks busy for read cycles: 166641913
1banks busy for write cycles: 59334120
2banks busy for read cycles: 90936529
2banks busy for write cycles: 24213185
3banks busy for read cycles: 42824491
3banks busy for write cycles: 8298749
4banks busy for read cycles: 17003444
4banks busy for write cycles: 2552634
5banks busy for read cycles: 4063871
5banks busy for write cycles: 723390
6banks busy for read cycles: 905428
6banks busy for write cycles: 207667
7banks busy for read cycles: 437316
7banks busy for write cycles: 125580
8banks busy for read cycles: 1072981
8banks busy for write cycles: 366535

CPU 0 Branch Prediction Accuracy: 97.7909% MPKI: 3.2859 Average ROB Occupancy at Mispredict: 167.233
Branch types
NOT_BRANCH: 170250761 85.1254%
BRANCH_DIRECT_JUMP: 9225403 4.6127%
BRANCH_INDIRECT: 0 0%
BRANCH_CONDITIONAL: 20520883 10.2604%
BRANCH_DIRECT_CALL: 1314 0.000657%
BRANCH_INDIRECT_CALL: 0 0%
BRANCH_RETURN: 1314 0.000657%
BRANCH_OTHER: 0 0%

DRAM PAGES: 1048576
Allocated PAGES: 37080
