
*** ChampSim Multicore Out-of-Order Simulator ***

Warmup Instructions: 50000000
Simulation Instructions: 200000000
Number of CPUs: 1
LLC sets: 2048
LLC ways: 16
L0D sets: 16
L0D ways: 2
ROB size: 352
LQ size: 128
SQ size: 72
Secure Berti: OFF
Berti: OFF
Berti Fill: OFF
On commit prefetching: ON
Hit-based filter: OFF
Time-guarding: ON
Free-slotting: ON
Leap-frogging: ON
Train prefetcher on L0D bypass: OFF
No translation penalty for prefetchers: OFF
Prefetch to L0D only: OFF
Prefetch to L1D only: OFF
Clean evictions: ON
Commit loads: ON
Commit write: ON
Fill commit loads to L2C, LLC: ON
DRAM IO FREQUENCY: 6400
ROB SIZE: 352
Off-chip DRAM Size: 4096 MB Channels: 1 Width: 64-bit Data Rate: 6400 MT/s
CPU 0 runs /home/sumon/secure_berti/GhostMinion/../../traces/spec/602.gcc_s-734B.champsimtrace.xz
.xz
BTB has LRU replacement policy
ITLB has LRU replacement policy
DTLB has LRU replacement policy
STLB has LRU replacement policy
L1I has LRU replacement policy
L0D has LRU replacement policy
IP Table Entries: 1024
CSPT Entries: 128
RR_ENTRIES: 32
RST_ENTRIES: 8
IP Table Entries: 1024
CSPT Entries: 128
RR_ENTRIES: 32
RST_ENTRIES: 8
L1D has LRU replacement policy
L2C has LRU replacement policy
LLC has LRU replacement policy
Heartbeat CPU 0 instructions: 10000002 cycles: 6636032 heartbeat IPC: 1.50692 cumulative IPC: 1.50692 (Simulation time: 0 hr 0 min 54 sec) 
Heartbeat CPU 0 instructions: 20000000 cycles: 13253807 heartbeat IPC: 1.51108 cumulative IPC: 1.509 (Simulation time: 0 hr 1 min 47 sec) 
Heartbeat CPU 0 instructions: 30000000 cycles: 19887331 heartbeat IPC: 1.50749 cumulative IPC: 1.5085 (Simulation time: 0 hr 2 min 39 sec) 
Heartbeat CPU 0 instructions: 40000002 cycles: 26547744 heartbeat IPC: 1.50141 cumulative IPC: 1.50672 (Simulation time: 0 hr 3 min 31 sec) 
Heartbeat CPU 0 instructions: 50000000 cycles: 33183064 heartbeat IPC: 1.50709 cumulative IPC: 1.50679 (Simulation time: 0 hr 4 min 24 sec) 

Warmup complete CPU 0 instructions: 50000001 cycles: 33183065 (Simulation time: 0 hr 4 min 24 sec) 

Heartbeat CPU 0 instructions: 60000000 cycles: 54162995 heartbeat IPC: 0.476646 cumulative IPC: 0.476646 (Simulation time: 0 hr 5 min 18 sec) 
Heartbeat CPU 0 instructions: 70000002 cycles: 76145219 heartbeat IPC: 0.454913 cumulative IPC: 0.465526 (Simulation time: 0 hr 6 min 17 sec) 
Heartbeat CPU 0 instructions: 80000000 cycles: 97076819 heartbeat IPC: 0.477746 cumulative IPC: 0.469529 (Simulation time: 0 hr 7 min 17 sec) 
Heartbeat CPU 0 instructions: 90000000 cycles: 118203478 heartbeat IPC: 0.473336 cumulative IPC: 0.470475 (Simulation time: 0 hr 8 min 18 sec) 
Heartbeat CPU 0 instructions: 100000000 cycles: 146674823 heartbeat IPC: 0.35123 cumulative IPC: 0.440561 (Simulation time: 0 hr 9 min 18 sec) 
Heartbeat CPU 0 instructions: 110000000 cycles: 167552803 heartbeat IPC: 0.478974 cumulative IPC: 0.446529 (Simulation time: 0 hr 10 min 18 sec) 
Heartbeat CPU 0 instructions: 120000000 cycles: 188689709 heartbeat IPC: 0.473106 cumulative IPC: 0.450142 (Simulation time: 0 hr 11 min 18 sec) 
Heartbeat CPU 0 instructions: 130000001 cycles: 213630766 heartbeat IPC: 0.400945 cumulative IPC: 0.443342 (Simulation time: 0 hr 12 min 21 sec) 
Heartbeat CPU 0 instructions: 140000001 cycles: 234612046 heartbeat IPC: 0.476615 cumulative IPC: 0.446808 (Simulation time: 0 hr 13 min 22 sec) 
Heartbeat CPU 0 instructions: 150000000 cycles: 255765916 heartbeat IPC: 0.472727 cumulative IPC: 0.449271 (Simulation time: 0 hr 14 min 24 sec) 
Heartbeat CPU 0 instructions: 160000003 cycles: 277193888 heartbeat IPC: 0.46668 cumulative IPC: 0.4508 (Simulation time: 0 hr 15 min 25 sec) 
Heartbeat CPU 0 instructions: 170000000 cycles: 298084276 heartbeat IPC: 0.478689 cumulative IPC: 0.452999 (Simulation time: 0 hr 16 min 26 sec) 
Heartbeat CPU 0 instructions: 180000000 cycles: 319365584 heartbeat IPC: 0.469896 cumulative IPC: 0.454256 (Simulation time: 0 hr 17 min 28 sec) 
Heartbeat CPU 0 instructions: 190000002 cycles: 340960290 heartbeat IPC: 0.463077 cumulative IPC: 0.454874 (Simulation time: 0 hr 18 min 51 sec) 
Heartbeat CPU 0 instructions: 200000001 cycles: 362001045 heartbeat IPC: 0.475268 cumulative IPC: 0.456179 (Simulation time: 0 hr 20 min 32 sec) 
Heartbeat CPU 0 instructions: 210000000 cycles: 382923602 heartbeat IPC: 0.477953 cumulative IPC: 0.457482 (Simulation time: 0 hr 22 min 9 sec) 
Heartbeat CPU 0 instructions: 220000000 cycles: 404306345 heartbeat IPC: 0.467667 cumulative IPC: 0.458069 (Simulation time: 0 hr 23 min 10 sec) 
Heartbeat CPU 0 instructions: 230000002 cycles: 425231431 heartbeat IPC: 0.477895 cumulative IPC: 0.459127 (Simulation time: 0 hr 24 min 10 sec) 
Heartbeat CPU 0 instructions: 240000001 cycles: 446294349 heartbeat IPC: 0.474768 cumulative IPC: 0.459924 (Simulation time: 0 hr 25 min 7 sec) 
Heartbeat CPU 0 instructions: 250000002 cycles: 468180250 heartbeat IPC: 0.456915 cumulative IPC: 0.459773 (Simulation time: 0 hr 26 min 3 sec) 
Finished CPU 0 instructions: 200000001 cycles: 434997185 cumulative IPC: 0.459773 (Simulation time: 0 hr 26 min 3 sec) 
 Instruction ID: 250000360

ChampSim completed all CPUs

Region of Interest Statistics

CPU 0 cumulative IPC: 0.459773 instructions: 200000001 cycles: 434997185
ITLB SPEC fills:          0  NON-SPEC fills:          0
ITLB Test counter :          0
ITLB Leapfrog:          0
ITLB MSHR merge:          0
ITLB TOTAL     ACCESS:   44863361  HIT:   44863351  MISS:         10  HIT %:        100  MISS %: 2.22899e-05   MPKI: 5e-05
ITLB LOAD TRANSLATION NON_SPEC    ACCESS:   44863361  HIT:   44863351  MISS:         10  HIT %:        100  MISS %: 2.22899e-05   MPKI: 5e-05
ITLB PREFETCH  REQUESTED:          0  ISSUED:          0  USEFUL:          0  USELESS:          0
ITLB USEFUL LOAD PREFETCHES:          0 PREFETCH ISSUED TO LOWER LEVEL:          0  ACCURACY: -nan
ITLB TIMELY PREFETCHES:          0 LATE PREFETCHES: 0 DROPPED PREFETCHES: 0
ITLB COMMIT LATE PREFETCHES: 0 NORMAL LATE: 0 MISSED OPPORTUNITY: 0 UNCOVERED: 0
ITLB PREFETCHES SAME FILL-ORIGIN LEVEL: 0 DIFFERENT FILL-ORIGIN LEVEL: 0
ITLB AVERAGE MISS LATENCY: 362.9 cycles
ITLB AVERAGE MISS LATENCY LOAD: -nan cycles
ITLB AVERAGE MISS LATENCY PREFETCH: -nan cycles
ITLB AVERAGE MSHR OCCUPANCY: 8.91596e-08
ITLB MSHR FULL: 0
ITLB RQ	ACCESS:   49666314	FORWARD:          0	MERGED:    4802948	TO_CACHE:   44863366

DTLB SPEC fills:          0  NON-SPEC fills:          0
DTLB Test counter :          0
DTLB Leapfrog:          0
DTLB MSHR merge:          0
DTLB TOTAL     ACCESS:   60362675  HIT:   60154335  MISS:     208340  HIT %:    99.6549  MISS %:   0.345147   MPKI: 1.0417
DTLB LOAD TRANSLATION NON_SPEC    ACCESS:   60362675  HIT:   60154335  MISS:     208340  HIT %:    99.6549  MISS %:   0.345147   MPKI: 1.0417
DTLB PREFETCH  REQUESTED:          0  ISSUED:          0  USEFUL:          0  USELESS:          0
DTLB USEFUL LOAD PREFETCHES:          0 PREFETCH ISSUED TO LOWER LEVEL:          0  ACCURACY: -nan
DTLB TIMELY PREFETCHES:          0 LATE PREFETCHES: 0 DROPPED PREFETCHES: 0
DTLB COMMIT LATE PREFETCHES: 0 NORMAL LATE: 0 MISSED OPPORTUNITY: 0 UNCOVERED: 0
DTLB PREFETCHES SAME FILL-ORIGIN LEVEL: 0 DIFFERENT FILL-ORIGIN LEVEL: 0
DTLB AVERAGE MISS LATENCY: 49.9282 cycles
DTLB AVERAGE MISS LATENCY LOAD: -nan cycles
DTLB AVERAGE MISS LATENCY PREFETCH: -nan cycles
DTLB AVERAGE MSHR OCCUPANCY: 0.00416682
DTLB MSHR FULL: 0
DTLB RQ	ACCESS:   63387138	FORWARD:          0	MERGED:    3021465	TO_CACHE:   60365673

STLB SPEC fills:          0  NON-SPEC fills:          0
STLB Test counter :          0
STLB Leapfrog:          0
STLB MSHR merge:          0
STLB TOTAL     ACCESS:    3874418  HIT:    3821858  MISS:      52560  HIT %:    98.6434  MISS %:    1.35659   MPKI: 0.2628
STLB LOAD TRANSLATION NON_SPEC    ACCESS:     208350  HIT:     155796  MISS:      52554  HIT %:    74.7761  MISS %:    25.2239   MPKI: 0.26277
STLB TRANSLATION FROM L1D PREFETCHER NON_SPEC    ACCESS:    3666068  HIT:    3666062  MISS:          6  HIT %:    99.9998  MISS %: 0.000163663   MPKI: 3e-05
STLB PREFETCH  REQUESTED:          0  ISSUED:          0  USEFUL:          6  USELESS:          0
STLB USEFUL LOAD PREFETCHES:          6 PREFETCH ISSUED TO LOWER LEVEL:          0  ACCURACY: inf
STLB TIMELY PREFETCHES:          6 LATE PREFETCHES: 0 DROPPED PREFETCHES: 0
STLB COMMIT LATE PREFETCHES: 0 NORMAL LATE: 0 MISSED OPPORTUNITY: 0 UNCOVERED: 0
STLB PREFETCHES SAME FILL-ORIGIN LEVEL: 0 DIFFERENT FILL-ORIGIN LEVEL: 0
STLB AVERAGE MISS LATENCY: 162.332 cycles
STLB AVERAGE MISS LATENCY LOAD: -nan cycles
STLB AVERAGE MISS LATENCY PREFETCH: -nan cycles
STLB AVERAGE MSHR OCCUPANCY: 0.00368804
STLB MSHR FULL: 0
STLB RQ	ACCESS:    6596842	FORWARD:          0	MERGED:    2722421	TO_CACHE:    3874421

STLB Hit, L1D data hit: 0
STLB Hit, L2C data hit: 0
STLB Hit, LLC data hit: 0
STLB Hit, LLC data miss: 0
STLB STLB hints to L2: 0
L0D SPEC fills:   17686256  NON-SPEC fills:          0
L0D TimeGuard Request with older TS:     468555 Restricted eviction:      20325 read:    1860704
L0D Test counter :          0
L0D Leapfrog:          0
L0D MSHR merge:    1613919
L0D TOTAL     ACCESS:   39833422  HIT:    6755547  MISS:   33077875  HIT %:    16.9595  MISS %:    83.0405   MPKI: 165.389
L0D LOAD      TOTAL       ACCESS:   39833422  HIT:    6755547  MISS:   33077875  HIT %:    16.9595  MISS %:    83.0405   MPKI: 165.389
L0D LOAD      NON_SPEC    ACCESS:   15530996  HIT:     159702  MISS:   15371294  HIT %:    1.02828  MISS %:    98.9717   MPKI: 76.8565
L0D LOAD      SPEC        ACCESS:   24302426  HIT:    6595845  MISS:   17706581  HIT %:    27.1407  MISS %:    72.8593   MPKI: 88.5329
L0D PREFETCH  REQUESTED:          0  ISSUED:          0  USEFUL:          0  USELESS:          0
L0D USEFUL LOAD PREFETCHES:          0 PREFETCH ISSUED TO LOWER LEVEL:          0  ACCURACY: -nan
L0D TIMELY PREFETCHES:          0 LATE PREFETCHES: 0 DROPPED PREFETCHES: 0
L0D COMMIT LATE PREFETCHES: 0 NORMAL LATE: 0 MISSED OPPORTUNITY: 0 UNCOVERED: 0
L0D PREFETCHES SAME FILL-ORIGIN LEVEL: 0 DIFFERENT FILL-ORIGIN LEVEL: 0
L0D AVERAGE MISS LATENCY: 5.80802 cycles
L0D AVERAGE MISS LATENCY LOAD: 5.80802 cycles
L0D AVERAGE MISS LATENCY PREFETCH: -nan cycles
L0D AVERAGE MSHR OCCUPANCY: 0.650996
L0D MSHR FULL: 0
L0D RQ	ACCESS:   52874063	FORWARD:          0	MERGED:   11426722	TO_CACHE:   41447341
L0D WQ	ACCESS:   21939797	FORWARD:          0	MERGED:          0	TO_CACHE:   21939797

L1D SPEC fills:          0  NON-SPEC fills:     223381
L1D Test counter :          0
L1D Leapfrog:          0
L1D MSHR merge:      76185
L1D TOTAL     ACCESS:   88612330  HIT:   82987653  MISS:    5624677  HIT %:    93.6525  MISS %:    6.34751   MPKI: 28.1234
L1D LOAD      TOTAL       ACCESS:   33077546  HIT:   32561559  MISS:     515987  HIT %:    98.4401  MISS %:    1.55993   MPKI: 2.57993
L1D LOAD      NON_SPEC    ACCESS:   15371275  HIT:   15147894  MISS:     223381  HIT %:    98.5468  MISS %:    1.45324   MPKI: 1.1169
L1D LOAD      SPEC        ACCESS:   17706271  HIT:   17413665  MISS:     292606  HIT %:    98.3474  MISS %:    1.65256   MPKI: 1.46303
L1D RFO       NON_SPEC    ACCESS:   21905116  HIT:   21903450  MISS:       1666  HIT %:    99.9924  MISS %: 0.00760553   MPKI: 0.00833
L1D PREFETCH  NON_SPEC    ACCESS:    6301000  HIT:    1470545  MISS:    4830455  HIT %:    23.3383  MISS %:    76.6617   MPKI: 24.1523
L1D COMMIT LOAD NON_SPEC    ACCESS:    9964154  HIT:    9961489  MISS:       2665  HIT %:    99.9733  MISS %:  0.0267459   MPKI: 0.013325
L1D COMMIT WRITE NON_SPEC    ACCESS:   17364514  HIT:   17090610  MISS:     273904  HIT %:    98.4226  MISS %:    1.57738   MPKI: 1.36952
L1D PREFETCH  REQUESTED:    6403502  ISSUED:    6388492  USEFUL:    3211610  USELESS:    1618735
L1D USEFUL LOAD PREFETCHES:    3211610 PREFETCH ISSUED TO LOWER LEVEL:    4906459  ACCURACY: 65.4568
L1D TIMELY PREFETCHES:    3211610 LATE PREFETCHES: 75863 DROPPED PREFETCHES: 0
L1D COMMIT LATE PREFETCHES: 28081 NORMAL LATE: 84609 MISSED OPPORTUNITY: 2444 UNCOVERED: 401515
L1D PREFETCHES SAME FILL-ORIGIN LEVEL: 4906459 DIFFERENT FILL-ORIGIN LEVEL: 0
L1D AVERAGE MISS LATENCY: 85.0856 cycles
L1D AVERAGE MISS LATENCY LOAD: 51.6933 cycles
L1D AVERAGE MISS LATENCY PREFETCH: 93.5214 cycles
L1D AVERAGE MSHR OCCUPANCY: 0.921189
L1D MSHR FULL: 0.00104088
L1D RQ	ACCESS:   53040942	FORWARD:          0	MERGED:    9019963	TO_CACHE:   43042698
L1D WQ	ACCESS:   39314597	FORWARD:     978281	MERGED:      44248	TO_CACHE:   39270349
L1D PQ	ACCESS:    6388492	FORWARD:          0	MERGED:          0	TO_CACHE:    6388492

L1D UNIQUE REGIONS ACCESSED: 0
L1D REGIONS CONFLICTS: 0
L1D Cross Page Prefetch Requests: 0
L1D Same Page Prefetch Requests: 7535925
L1D ROI Sum of L1D PQ occupancy: 94691452
L1D PREFETCHES PUSHED FROM L2C: 0
L1I SPEC fills:          0  NON-SPEC fills:          0
L1I Test counter :          0
L1I Leapfrog:          0
L1I MSHR merge:          8
L1I TOTAL     ACCESS:   49666304  HIT:   49666215  MISS:         89  HIT %:    99.9998  MISS %: 0.000179196   MPKI: 0.000445
L1I LOAD      TOTAL       ACCESS:   49666304  HIT:   49666215  MISS:         89  HIT %:    99.9998  MISS %: 0.000179196   MPKI: 0.000445
L1I LOAD      NON_SPEC    ACCESS:   49666304  HIT:   49666215  MISS:         89  HIT %:    99.9998  MISS %: 0.000179196   MPKI: 0.000445
L1I PREFETCH  REQUESTED:          0  ISSUED:          0  USEFUL:          0  USELESS:          0
L1I USEFUL LOAD PREFETCHES:          0 PREFETCH ISSUED TO LOWER LEVEL:          0  ACCURACY: -nan
L1I TIMELY PREFETCHES:          0 LATE PREFETCHES: 0 DROPPED PREFETCHES: 0
L1I COMMIT LATE PREFETCHES: 0 NORMAL LATE: 0 MISSED OPPORTUNITY: 0 UNCOVERED: 0
L1I PREFETCHES SAME FILL-ORIGIN LEVEL: 0 DIFFERENT FILL-ORIGIN LEVEL: 0
L1I AVERAGE MISS LATENCY: 213.247 cycles
L1I AVERAGE MISS LATENCY LOAD: 213.247 cycles
L1I AVERAGE MISS LATENCY PREFETCH: -nan cycles
L1I AVERAGE MSHR OCCUPANCY: 7.04703e-07
L1I MSHR FULL: 0
L1I RQ	ACCESS:   79918775	FORWARD:          0	MERGED:   30252461	TO_CACHE:   49666314

BTB SPEC fills:          0  NON-SPEC fills:          0
BTB Test counter :          0
BTB Leapfrog:          0
BTB MSHR merge:          0
BTB TOTAL     ACCESS:   37936625  HIT:   37889779  MISS:      46846  HIT %:    99.8765  MISS %:   0.123485   MPKI: 0.23423
BTB BRANCH_DIRECT_JUMP	ACCESS:    4848253  HIT:    4848175  MISS:         78
BTB BRANCH_INDIRECT	ACCESS:          0  HIT:          0  MISS:          0
BTB BRANCH_CONDITIONAL	ACCESS:   28192639  HIT:   28192467  MISS:        172
BTB BRANCH_DIRECT_CALL	ACCESS:    2447841  HIT:    2447798  MISS:         43
BTB BRANCH_INDIRECT_CALL	ACCESS:         26  HIT:         25  MISS:          1
BTB BRANCH_RETURN	ACCESS:    2447866  HIT:    2401314  MISS:      46552
BTB BRANCH_OTHER ACCESS:          0  HIT:          0  MISS:          0

L2C SPEC fills:          0  NON-SPEC fills:      34915
L2C Test counter :          0
L2C Leapfrog:          0
L2C MSHR merge:          0
L2C TOTAL     ACCESS:    9053885  HIT:    6817386  MISS:    2236499  HIT %:    75.2979  MISS %:    24.7021   MPKI: 11.1825
L2C LOAD      TOTAL       ACCESS:     440217  HIT:     355111  MISS:      85106  HIT %:    80.6673  MISS %:    19.3327   MPKI: 0.42553
L2C LOAD      NON_SPEC    ACCESS:     175611  HIT:     140607  MISS:      35004  HIT %:    80.0673  MISS %:    19.9327   MPKI: 0.17502
L2C LOAD      SPEC        ACCESS:     264606  HIT:     214504  MISS:      50102  HIT %:    81.0654  MISS %:    18.9346   MPKI: 0.25051
L2C RFO       NON_SPEC    ACCESS:       1524  HIT:       1075  MISS:        449  HIT %:    70.5381  MISS %:    29.4619   MPKI: 0.002245
L2C PREFETCH  NON_SPEC    ACCESS:    4906456  HIT:    2825419  MISS:    2081037  HIT %:    57.5857  MISS %:    42.4143   MPKI: 10.4052
L2C WRITEBACK NON_SPEC    ACCESS:      17265  HIT:      17178  MISS:         87  HIT %:    99.4961  MISS %:    0.50391   MPKI: 0.000435
L2C CLEAN_EVICTION NON_SPEC    ACCESS:    3423004  HIT:    3374219  MISS:      48785  HIT %:    98.5748  MISS %:    1.42521   MPKI: 0.243925
L2C COMMIT LOAD NON_SPEC    ACCESS:       2658  HIT:       2632  MISS:         26  HIT %:    99.0218  MISS %:   0.978179   MPKI: 0.00013
L2C LOAD TRANSLATION NON_SPEC    ACCESS:     262731  HIT:     241730  MISS:      21001  HIT %:    92.0067  MISS %:    7.99335   MPKI: 0.105005
L2C TRANSLATION FROM L1D PREFETCHER NON_SPEC    ACCESS:         30  HIT:         22  MISS:          8  HIT %:    73.3333  MISS %:    26.6667   MPKI: 4e-05
L2C PREFETCH  REQUESTED:          0  ISSUED:          0  USEFUL:      15965  USELESS:    2065116
L2C USEFUL LOAD PREFETCHES:      15965 PREFETCH ISSUED TO LOWER LEVEL:    2081037  ACCURACY: 0.767166
L2C TIMELY PREFETCHES:      15965 LATE PREFETCHES: 0 DROPPED PREFETCHES: 0
L2C COMMIT LATE PREFETCHES: 0 NORMAL LATE: 0 MISSED OPPORTUNITY: 0 UNCOVERED: 85106
L2C PREFETCHES SAME FILL-ORIGIN LEVEL: 0 DIFFERENT FILL-ORIGIN LEVEL: 0
L2C AVERAGE MISS LATENCY: 184.009 cycles
L2C AVERAGE MISS LATENCY LOAD: 170.315 cycles
L2C AVERAGE MISS LATENCY PREFETCH: 188.55 cycles
L2C AVERAGE MSHR OCCUPANCY: 1.14197
L2C MSHR FULL: 0
L2C RQ	ACCESS:     707163	FORWARD:          0	MERGED:          0	TO_CACHE:     707160
L2C WQ	ACCESS:    3440269	FORWARD:          6	MERGED:          0	TO_CACHE:    3440269
L2C PQ	ACCESS:    4906459	FORWARD:          0	MERGED:          0	TO_CACHE:    4906456

L2C Instructions Evicting Data 89
L2C Translations Evicting Data 20768
L2C Data Evicting Data 2096048
L2C Instructions Evicting Instructions 0
L2C Translations Evicting Instructions 1
L2C Data Evicting Instructions 81
L2C Instructions Evicting Translations 0
L2C Translations Evicting Translations 240
L2C Data Evicting Translations 20298
L2C Dense regions hint from L2: 0
PSCL5 SPEC fills:          0  NON-SPEC fills:          0
PSCL5 Test counter :          0
PSCL5 Leapfrog:          0
PSCL5 MSHR merge:          0
PSCL5 TOTAL     ACCESS:          0  HIT:          0  MISS:          0  HIT %:       -nan  MISS %:       -nan   MPKI: 0
PSCL5 PREFETCH  REQUESTED:          0  ISSUED:          0  USEFUL:          0  USELESS:          0
PSCL5 USEFUL LOAD PREFETCHES:          0 PREFETCH ISSUED TO LOWER LEVEL:          0  ACCURACY: -nan
PSCL5 TIMELY PREFETCHES:          0 LATE PREFETCHES: 0 DROPPED PREFETCHES: 0
PSCL5 COMMIT LATE PREFETCHES: 0 NORMAL LATE: 0 MISSED OPPORTUNITY: 0 UNCOVERED: 0
PSCL5 PREFETCHES SAME FILL-ORIGIN LEVEL: 0 DIFFERENT FILL-ORIGIN LEVEL: 0

PSCL4 SPEC fills:          0  NON-SPEC fills:          0
PSCL4 Test counter :          0
PSCL4 Leapfrog:          0
PSCL4 MSHR merge:          0
PSCL4 TOTAL     ACCESS:          0  HIT:          0  MISS:          0  HIT %:       -nan  MISS %:       -nan   MPKI: 0
PSCL4 PREFETCH  REQUESTED:          0  ISSUED:          0  USEFUL:          0  USELESS:          0
PSCL4 USEFUL LOAD PREFETCHES:          0 PREFETCH ISSUED TO LOWER LEVEL:          0  ACCURACY: -nan
PSCL4 TIMELY PREFETCHES:          0 LATE PREFETCHES: 0 DROPPED PREFETCHES: 0
PSCL4 COMMIT LATE PREFETCHES: 0 NORMAL LATE: 0 MISSED OPPORTUNITY: 0 UNCOVERED: 0
PSCL4 PREFETCHES SAME FILL-ORIGIN LEVEL: 0 DIFFERENT FILL-ORIGIN LEVEL: 0

PSCL3 SPEC fills:          0  NON-SPEC fills:          0
PSCL3 Test counter :          0
PSCL3 Leapfrog:          0
PSCL3 MSHR merge:          0
PSCL3 TOTAL     ACCESS:          0  HIT:          0  MISS:          0  HIT %:       -nan  MISS %:       -nan   MPKI: 0
PSCL3 PREFETCH  REQUESTED:          0  ISSUED:          0  USEFUL:          0  USELESS:          0
PSCL3 USEFUL LOAD PREFETCHES:          0 PREFETCH ISSUED TO LOWER LEVEL:          0  ACCURACY: -nan
PSCL3 TIMELY PREFETCHES:          0 LATE PREFETCHES: 0 DROPPED PREFETCHES: 0
PSCL3 COMMIT LATE PREFETCHES: 0 NORMAL LATE: 0 MISSED OPPORTUNITY: 0 UNCOVERED: 0
PSCL3 PREFETCHES SAME FILL-ORIGIN LEVEL: 0 DIFFERENT FILL-ORIGIN LEVEL: 0

PSCL2 SPEC fills:          0  NON-SPEC fills:          0
PSCL2 Test counter :          0
PSCL2 Leapfrog:          0
PSCL2 MSHR merge:          0
PSCL2 TOTAL     ACCESS:          0  HIT:          0  MISS:          0  HIT %:       -nan  MISS %:       -nan   MPKI: 0
PSCL2 PREFETCH  REQUESTED:          0  ISSUED:          0  USEFUL:          0  USELESS:          0
PSCL2 USEFUL LOAD PREFETCHES:          0 PREFETCH ISSUED TO LOWER LEVEL:          0  ACCURACY: -nan
PSCL2 TIMELY PREFETCHES:          0 LATE PREFETCHES: 0 DROPPED PREFETCHES: 0
PSCL2 COMMIT LATE PREFETCHES: 0 NORMAL LATE: 0 MISSED OPPORTUNITY: 0 UNCOVERED: 0
PSCL2 PREFETCHES SAME FILL-ORIGIN LEVEL: 0 DIFFERENT FILL-ORIGIN LEVEL: 0

LLC SPEC fills:          0  NON-SPEC fills:      31527
LLC Test counter :          0
LLC Leapfrog:          0
LLC MSHR merge:          0
LLC TOTAL     ACCESS:    3943328  HIT:    1748420  MISS:    2194908  HIT %:    44.3387  MISS %:    55.6613   MPKI: 10.9745
LLC LOAD      TOTAL       ACCESS:      85106  HIT:       5038  MISS:      80068  HIT %:    5.91968  MISS %:    94.0803   MPKI: 0.40034
LLC LOAD      NON_SPEC    ACCESS:      35004  HIT:       3388  MISS:      31616  HIT %:    9.67889  MISS %:    90.3211   MPKI: 0.15808
LLC LOAD      SPEC        ACCESS:      50102  HIT:       1650  MISS:      48452  HIT %:    3.29328  MISS %:    96.7067   MPKI: 0.24226
LLC RFO       NON_SPEC    ACCESS:        449  HIT:         44  MISS:        405  HIT %:    9.79955  MISS %:    90.2004   MPKI: 0.002025
LLC PREFETCH  NON_SPEC    ACCESS:    2081037  HIT:      38146  MISS:    2042891  HIT %:    1.83303  MISS %:     98.167   MPKI: 10.2145
LLC WRITEBACK NON_SPEC    ACCESS:       7994  HIT:       6502  MISS:       1492  HIT %:     81.336  MISS %:     18.664   MPKI: 0.00746
LLC CLEAN_EVICTION NON_SPEC    ACCESS:    1747707  HIT:    1697111  MISS:      50596  HIT %:     97.105  MISS %:    2.89499   MPKI: 0.25298
LLC COMMIT LOAD NON_SPEC    ACCESS:         26  HIT:          3  MISS:         23  HIT %:    11.5385  MISS %:    88.4615   MPKI: 0.000115
LLC LOAD TRANSLATION NON_SPEC    ACCESS:      21001  HIT:       1576  MISS:      19425  HIT %:     7.5044  MISS %:    92.4956   MPKI: 0.097125
LLC TRANSLATION FROM L1D PREFETCHER NON_SPEC    ACCESS:          8  HIT:          0  MISS:          8  HIT %:          0  MISS %:        100   MPKI: 4e-05
LLC PREFETCH  REQUESTED:          0  ISSUED:          0  USEFUL:       1315  USELESS:    2041644
LLC USEFUL LOAD PREFETCHES:       1315 PREFETCH ISSUED TO LOWER LEVEL:    2042891  ACCURACY: 0.0643696
LLC TIMELY PREFETCHES:       1315 LATE PREFETCHES: 0 DROPPED PREFETCHES: 0
LLC COMMIT LATE PREFETCHES: 0 NORMAL LATE: 0 MISSED OPPORTUNITY: 0 UNCOVERED: 0
LLC PREFETCHES SAME FILL-ORIGIN LEVEL: 0 DIFFERENT FILL-ORIGIN LEVEL: 0
LLC AVERAGE MISS LATENCY: 157.75 cycles
LLC AVERAGE MISS LATENCY LOAD: 154.751 cycles
LLC AVERAGE MISS LATENCY PREFETCH: 161.457 cycles
LLC AVERAGE MSHR OCCUPANCY: 1.34594
LLC MSHR FULL: 0
LLC RQ	ACCESS:     106590	FORWARD:          0	MERGED:          0	TO_CACHE:     106590
LLC WQ	ACCESS:    1755700	FORWARD:          0	MERGED:          0	TO_CACHE:    1755700
LLC PQ	ACCESS:    2081037	FORWARD:          0	MERGED:          0	TO_CACHE:    2081037

LLC Dense regions hint to LLC: 0

RAW hits: 57759
Loads Generated: 52931823
Loads sent to L1D: 52874063
Stores Generated: 21939796
Stores sent to L1D: 21939797
Major fault: 0 Minor fault: 9448
Allocated PAGES: 9448
Total Load insts: 65990798
Total Non-spec loads: 18898090
Percentage of speculative loads: 71.3625

LeapFrogging counter: 12944
Commit hits: 17374798 miss: 19963067
Commit hit %: 46.534 miss %: 53.466
Commits not translated: 0
Loads retired: 515987
Stores retired: 21939797
Cache fills: 515987
L1D response latency: 51.6933 cycles
Load retirement latency: 101.292 cycles
OOO test counter: 0
Discarded buffer inserts: 17374798 hits: 14894 hit %: 0.0857219
Filter prediction accuracy: -nan

stream: 
stream:times selected: 25611389
stream:pref_filled: 5524248
stream:pref_useful: 3885705
stream:pref_late: 40809
stream:misses: 22283
stream:misses_by_poll: 0

CS: 
CS:times selected: 22296673
CS:pref_filled: 70904
CS:pref_useful: 57846
CS:pref_late: 2014
CS:misses: 172205
CS:misses_by_poll: 484

CPLX: 
CPLX:times selected: 3304886
CPLX:pref_filled: 114374
CPLX:pref_useful: 34635
CPLX:pref_late: 212
CPLX:misses: 160172
CPLX:misses_by_poll: 1509

NL_L1: 
NL:times selected: 6948
NL:pref_filled: 1533
NL:pref_useful: 457
NL:pref_late: 22
NL:misses: 489
NL:misses_by_poll: 7

total selections: 51219896
total_filled: 4830455
total_useful: 3211610
total_late: 47866
total_polluted: 2000
total_misses_after_warmup: 337151
conflicts: 3777
Degree Incremented Times: 502998
Degree Decremented Times: 609390

L1 IP Table Write Accesses: 74815194
L1 IP Table Read Accesses: 74811417
L1 RST Write Accesses: 20708445
L1 RST Read Accesses: 41416890
L1 CSPT Write Accesses: 20708445
L1 CSPT Read Accesses: 23667130
L1 RR Filter Tag Write Accesses: 6403502
L1 RR Filter Tag Read Accesses: 4112544440
L1 IP Table Tag Write Accesses: 74871414
L1 IP Table Tag Read Accesses: 74871414
L1 RST Tag Write Accesses: 0
L1 RST Tag Read Accesses: 187201377
L1 RR Filter Write Accesses: 0
L1 RR Filter Read Accesses: 169909789
test: 2152447

stream: 
stream:times selected: 15702421
stream:pref_filled: 5524248
stream:pref_useful: 3885705
stream:pref_late: 40809
stream:misses: 67765
stream:misses_by_poll: 0

CS: 
CS:times selected: 10808133
CS:pref_filled: 70904
CS:pref_useful: 57846
CS:pref_late: 2014
CS:misses: 164918
CS:misses_by_poll: 484

CPLX: 
CPLX:times selected: 4885102
CPLX:pref_filled: 114374
CPLX:pref_useful: 34635
CPLX:pref_late: 212
CPLX:misses: 301081
CPLX:misses_by_poll: 354

NL_L1: 
NL:times selected: 9711
NL:pref_filled: 1533
NL:pref_useful: 457
NL:pref_late: 22
NL:misses: 1239
NL:misses_by_poll: 0

total selections: 31405367
total_filled: 4830455
total_useful: 3211610
total_late: 47866
total_polluted: 838
total_misses_after_warmup: 516316
conflicts: 3004
Degree Incremented Times: 220037
Degree Decremented Times: 266969

L1 IP Table Write Accesses: 33053294
L1 IP Table Read Accesses: 33050290
L1 RST Write Accesses: 12662746
L1 RST Read Accesses: 25325492
L1 CSPT Write Accesses: 12662746
L1 CSPT Read Accesses: 16729205
L1 RR Filter Tag Write Accesses: 5996388
L1 RR Filter Tag Read Accesses: 2377619503
L1 IP Table Tag Write Accesses: 33077875
L1 IP Table Tag Read Accesses: 33077875
L1 RST Tag Write Accesses: 0
L1 RST Tag Read Accesses: 113904190
L1 RR Filter Write Accesses: 0
L1 RR Filter Read Accesses: 98005171
test_pseudo: 1495829

DRAM Statistics
 CHANNEL 0
 RQ ROW_BUFFER_HIT:     292852  ROW_BUFFER_MISS:    1849967
 DBUS_CONGESTED:       2176
 WQ ROW_BUFFER_HIT:     551835  ROW_BUFFER_MISS:    1196086  FULL:          0

 AVG_CONGESTED_CYCLE: 2
 All warmup complete: 2
Channel 0 Bank busy for read cycles: 0
Channel 0 Bank busy for write cycles: 0
Channel 0
Rank 0
0banks busy for read cycles: 74950101
0banks busy for write cycles: 262484
1banks busy for read cycles: 186958741
1banks busy for write cycles: 43187250
2banks busy for read cycles: 8847323
2banks busy for write cycles: 34916999
3banks busy for read cycles: 5011545
3banks busy for write cycles: 22463609
4banks busy for read cycles: 2961380
4banks busy for write cycles: 15424690
5banks busy for read cycles: 2068612
5banks busy for write cycles: 9180295
6banks busy for read cycles: 6996451
6banks busy for write cycles: 4196084
7banks busy for read cycles: 962989
7banks busy for write cycles: 4479438
8banks busy for read cycles: 220502
8banks busy for write cycles: 11908693

CPU 0 Branch Prediction Accuracy: 99.9023% MPKI: 0.234695 Average ROB Occupancy at Mispredict: 78.0794
Branch types
NOT_BRANCH: 151969688 75.9848%
BRANCH_DIRECT_JUMP: 4848253 2.42413%
BRANCH_INDIRECT: 0 0%
BRANCH_CONDITIONAL: 38286306 19.1432%
BRANCH_DIRECT_CALL: 2447841 1.22392%
BRANCH_INDIRECT_CALL: 26 1.3e-05%
BRANCH_RETURN: 2447866 1.22393%
BRANCH_OTHER: 0 0%

DRAM PAGES: 1048576
Allocated PAGES: 9448
