
*** ChampSim Multicore Out-of-Order Simulator ***

Warmup Instructions: 50000000
Simulation Instructions: 200000000
Number of CPUs: 1
LLC sets: 2048
LLC ways: 16
L0D sets: 16
L0D ways: 2
ROB size: 352
LQ size: 128
SQ size: 72
Secure Berti: OFF
Berti: OFF
Berti Fill: OFF
On commit prefetching: ON
Hit-based filter: OFF
Time-guarding: ON
Free-slotting: ON
Leap-frogging: ON
Train prefetcher on L0D bypass: OFF
No translation penalty for prefetchers: OFF
Prefetch to L0D only: OFF
Prefetch to L1D only: OFF
Clean evictions: ON
Commit loads: ON
Commit write: ON
Fill commit loads to L2C, LLC: ON
DRAM IO FREQUENCY: 6400
ROB SIZE: 352
Off-chip DRAM Size: 4096 MB Channels: 1 Width: 64-bit Data Rate: 6400 MT/s
CPU 0 runs /home/sumon/secure_berti/GhostMinion/../../traces/spec/602.gcc_s-1850B.champsimtrace.xz
.xz
BTB has LRU replacement policy
ITLB has LRU replacement policy
DTLB has LRU replacement policy
STLB has LRU replacement policy
L1I has LRU replacement policy
L0D has LRU replacement policy
IP Table Entries: 1024
CSPT Entries: 128
RR_ENTRIES: 32
RST_ENTRIES: 8
IP Table Entries: 1024
CSPT Entries: 128
RR_ENTRIES: 32
RST_ENTRIES: 8
L1D has LRU replacement policy
L2C has LRU replacement policy
LLC has LRU replacement policy
Heartbeat CPU 0 instructions: 10000002 cycles: 5248971 heartbeat IPC: 1.90514 cumulative IPC: 1.90514 (Simulation time: 0 hr 0 min 52 sec) 
Heartbeat CPU 0 instructions: 20000000 cycles: 10498423 heartbeat IPC: 1.90496 cumulative IPC: 1.90505 (Simulation time: 0 hr 1 min 44 sec) 
Heartbeat CPU 0 instructions: 30000000 cycles: 15744749 heartbeat IPC: 1.9061 cumulative IPC: 1.9054 (Simulation time: 0 hr 2 min 36 sec) 
Heartbeat CPU 0 instructions: 40000000 cycles: 20990865 heartbeat IPC: 1.90617 cumulative IPC: 1.90559 (Simulation time: 0 hr 3 min 34 sec) 
Heartbeat CPU 0 instructions: 50000000 cycles: 26239573 heartbeat IPC: 1.90523 cumulative IPC: 1.90552 (Simulation time: 0 hr 4 min 33 sec) 

Warmup complete CPU 0 instructions: 50000004 cycles: 26239574 (Simulation time: 0 hr 4 min 33 sec) 

Heartbeat CPU 0 instructions: 60000003 cycles: 47731361 heartbeat IPC: 0.465294 cumulative IPC: 0.465294 (Simulation time: 0 hr 5 min 39 sec) 
Heartbeat CPU 0 instructions: 70000002 cycles: 69245125 heartbeat IPC: 0.464819 cumulative IPC: 0.465056 (Simulation time: 0 hr 6 min 45 sec) 
Heartbeat CPU 0 instructions: 80000003 cycles: 90742903 heartbeat IPC: 0.465164 cumulative IPC: 0.465092 (Simulation time: 0 hr 7 min 51 sec) 
Heartbeat CPU 0 instructions: 90000001 cycles: 112242253 heartbeat IPC: 0.46513 cumulative IPC: 0.465102 (Simulation time: 0 hr 8 min 57 sec) 
Heartbeat CPU 0 instructions: 100000000 cycles: 133727654 heartbeat IPC: 0.465432 cumulative IPC: 0.465168 (Simulation time: 0 hr 10 min 4 sec) 
Heartbeat CPU 0 instructions: 110000000 cycles: 155308786 heartbeat IPC: 0.463368 cumulative IPC: 0.464867 (Simulation time: 0 hr 11 min 12 sec) 
Heartbeat CPU 0 instructions: 120000003 cycles: 176891772 heartbeat IPC: 0.463328 cumulative IPC: 0.464646 (Simulation time: 0 hr 12 min 20 sec) 
Heartbeat CPU 0 instructions: 130000003 cycles: 198442808 heartbeat IPC: 0.464015 cumulative IPC: 0.464567 (Simulation time: 0 hr 13 min 27 sec) 
Heartbeat CPU 0 instructions: 140000000 cycles: 219912673 heartbeat IPC: 0.465769 cumulative IPC: 0.464701 (Simulation time: 0 hr 14 min 35 sec) 
Heartbeat CPU 0 instructions: 150000000 cycles: 241392708 heartbeat IPC: 0.465549 cumulative IPC: 0.464785 (Simulation time: 0 hr 15 min 43 sec) 
Heartbeat CPU 0 instructions: 160000000 cycles: 262962488 heartbeat IPC: 0.463612 cumulative IPC: 0.464678 (Simulation time: 0 hr 16 min 51 sec) 
Heartbeat CPU 0 instructions: 170000003 cycles: 284510109 heartbeat IPC: 0.464088 cumulative IPC: 0.464629 (Simulation time: 0 hr 17 min 59 sec) 
Heartbeat CPU 0 instructions: 180000000 cycles: 306026721 heartbeat IPC: 0.464757 cumulative IPC: 0.464639 (Simulation time: 0 hr 19 min 5 sec) 
Heartbeat CPU 0 instructions: 190000003 cycles: 327617337 heartbeat IPC: 0.463164 cumulative IPC: 0.464533 (Simulation time: 0 hr 20 min 10 sec) 
Heartbeat CPU 0 instructions: 200000000 cycles: 349092108 heartbeat IPC: 0.465663 cumulative IPC: 0.464608 (Simulation time: 0 hr 21 min 15 sec) 
Heartbeat CPU 0 instructions: 210000002 cycles: 370636017 heartbeat IPC: 0.464168 cumulative IPC: 0.464581 (Simulation time: 0 hr 22 min 20 sec) 
Heartbeat CPU 0 instructions: 220000000 cycles: 392230034 heartbeat IPC: 0.463091 cumulative IPC: 0.464493 (Simulation time: 0 hr 23 min 24 sec) 
Heartbeat CPU 0 instructions: 230000003 cycles: 413764801 heartbeat IPC: 0.464366 cumulative IPC: 0.464486 (Simulation time: 0 hr 24 min 28 sec) 
Heartbeat CPU 0 instructions: 240000000 cycles: 435301665 heartbeat IPC: 0.46432 cumulative IPC: 0.464477 (Simulation time: 0 hr 25 min 30 sec) 
Heartbeat CPU 0 instructions: 250000000 cycles: 456890530 heartbeat IPC: 0.463202 cumulative IPC: 0.464413 (Simulation time: 0 hr 26 min 32 sec) 
Finished CPU 0 instructions: 200000000 cycles: 430650957 cumulative IPC: 0.464413 (Simulation time: 0 hr 26 min 32 sec) 
 Instruction ID: 250000378

ChampSim completed all CPUs

Region of Interest Statistics

CPU 0 cumulative IPC: 0.464413 instructions: 200000000 cycles: 430650957
ITLB SPEC fills:          0  NON-SPEC fills:          0
ITLB Test counter :          0
ITLB Leapfrog:          0
ITLB MSHR merge:          0
ITLB TOTAL     ACCESS:   43411626  HIT:   43411626  MISS:          0  HIT %:        100  MISS %:          0   MPKI: 0
ITLB LOAD TRANSLATION NON_SPEC    ACCESS:   43411626  HIT:   43411626  MISS:          0  HIT %:        100  MISS %:          0   MPKI: 0
ITLB PREFETCH  REQUESTED:          0  ISSUED:          0  USEFUL:          0  USELESS:          0
ITLB USEFUL LOAD PREFETCHES:          0 PREFETCH ISSUED TO LOWER LEVEL:          0  ACCURACY: -nan
ITLB TIMELY PREFETCHES:          0 LATE PREFETCHES: 0 DROPPED PREFETCHES: 0
ITLB COMMIT LATE PREFETCHES: 0 NORMAL LATE: 0 MISSED OPPORTUNITY: 0 UNCOVERED: 0
ITLB PREFETCHES SAME FILL-ORIGIN LEVEL: 0 DIFFERENT FILL-ORIGIN LEVEL: 0
ITLB AVERAGE MISS LATENCY: -nan cycles
ITLB AVERAGE MISS LATENCY LOAD: -nan cycles
ITLB AVERAGE MISS LATENCY PREFETCH: -nan cycles
ITLB AVERAGE MSHR OCCUPANCY: 0
ITLB MSHR FULL: 0
ITLB RQ	ACCESS:   47145888	FORWARD:          0	MERGED:    3734262	TO_CACHE:   43411626

DTLB SPEC fills:          0  NON-SPEC fills:          0
DTLB Test counter :          0
DTLB Leapfrog:          0
DTLB MSHR merge:          0
DTLB TOTAL     ACCESS:   56581307  HIT:   56515160  MISS:      66147  HIT %:    99.8831  MISS %:   0.116906   MPKI: 0.330735
DTLB LOAD TRANSLATION NON_SPEC    ACCESS:   56581307  HIT:   56515160  MISS:      66147  HIT %:    99.8831  MISS %:   0.116906   MPKI: 0.330735
DTLB PREFETCH  REQUESTED:          0  ISSUED:          0  USEFUL:          0  USELESS:          0
DTLB USEFUL LOAD PREFETCHES:          0 PREFETCH ISSUED TO LOWER LEVEL:          0  ACCURACY: -nan
DTLB TIMELY PREFETCHES:          0 LATE PREFETCHES: 0 DROPPED PREFETCHES: 0
DTLB COMMIT LATE PREFETCHES: 0 NORMAL LATE: 0 MISSED OPPORTUNITY: 0 UNCOVERED: 0
DTLB PREFETCHES SAME FILL-ORIGIN LEVEL: 0 DIFFERENT FILL-ORIGIN LEVEL: 0
DTLB AVERAGE MISS LATENCY: 185.339 cycles
DTLB AVERAGE MISS LATENCY LOAD: -nan cycles
DTLB AVERAGE MISS LATENCY PREFETCH: -nan cycles
DTLB AVERAGE MSHR OCCUPANCY: 0.00253785
DTLB MSHR FULL: 0
DTLB RQ	ACCESS:   59877126	FORWARD:          0	MERGED:    3292957	TO_CACHE:   56584169

STLB SPEC fills:          0  NON-SPEC fills:          0
STLB Test counter :          0
STLB Leapfrog:          0
STLB MSHR merge:          0
STLB TOTAL     ACCESS:    6240456  HIT:    6179564  MISS:      60892  HIT %:    99.0242  MISS %:   0.975762   MPKI: 0.30446
STLB LOAD TRANSLATION NON_SPEC    ACCESS:      66147  HIT:       5255  MISS:      60892  HIT %:    7.94443  MISS %:    92.0556   MPKI: 0.30446
STLB TRANSLATION FROM L1D PREFETCHER NON_SPEC    ACCESS:    6174309  HIT:    6174309  MISS:          0  HIT %:        100  MISS %:          0   MPKI: 0
STLB PREFETCH  REQUESTED:          0  ISSUED:          0  USEFUL:          0  USELESS:          0
STLB USEFUL LOAD PREFETCHES:          0 PREFETCH ISSUED TO LOWER LEVEL:          0  ACCURACY: -nan
STLB TIMELY PREFETCHES:          0 LATE PREFETCHES: 0 DROPPED PREFETCHES: 0
STLB COMMIT LATE PREFETCHES: 0 NORMAL LATE: 0 MISSED OPPORTUNITY: 0 UNCOVERED: 0
STLB PREFETCHES SAME FILL-ORIGIN LEVEL: 0 DIFFERENT FILL-ORIGIN LEVEL: 0
STLB AVERAGE MISS LATENCY: 191.546 cycles
STLB AVERAGE MISS LATENCY LOAD: -nan cycles
STLB AVERAGE MISS LATENCY PREFETCH: -nan cycles
STLB AVERAGE MSHR OCCUPANCY: 0.00572554
STLB MSHR FULL: 0
STLB RQ	ACCESS:   14774500	FORWARD:          0	MERGED:    8534044	TO_CACHE:    6240456

STLB Hit, L1D data hit: 0
STLB Hit, L2C data hit: 0
STLB Hit, LLC data hit: 0
STLB Hit, LLC data miss: 0
STLB STLB hints to L2: 0
L0D SPEC fills:   17621007  NON-SPEC fills:          0
L0D TimeGuard Request with older TS:     332908 Restricted eviction:      20132 read:    1409256
L0D Test counter :          0
L0D Leapfrog:          0
L0D MSHR merge:    1541434
L0D TOTAL     ACCESS:   38924681  HIT:    6683815  MISS:   32240866  HIT %:    17.1711  MISS %:    82.8289   MPKI: 161.204
L0D LOAD      TOTAL       ACCESS:   38924681  HIT:    6683815  MISS:   32240866  HIT %:    17.1711  MISS %:    82.8289   MPKI: 161.204
L0D LOAD      NON_SPEC    ACCESS:   14706274  HIT:     106547  MISS:   14599727  HIT %:     0.7245  MISS %:    99.2755   MPKI: 72.9986
L0D LOAD      SPEC        ACCESS:   24218407  HIT:    6577268  MISS:   17641139  HIT %:    27.1581  MISS %:    72.8419   MPKI: 88.2057
L0D PREFETCH  REQUESTED:          0  ISSUED:          0  USEFUL:          0  USELESS:          0
L0D USEFUL LOAD PREFETCHES:          0 PREFETCH ISSUED TO LOWER LEVEL:          0  ACCURACY: -nan
L0D TIMELY PREFETCHES:          0 LATE PREFETCHES: 0 DROPPED PREFETCHES: 0
L0D COMMIT LATE PREFETCHES: 0 NORMAL LATE: 0 MISSED OPPORTUNITY: 0 UNCOVERED: 0
L0D PREFETCHES SAME FILL-ORIGIN LEVEL: 0 DIFFERENT FILL-ORIGIN LEVEL: 0
L0D AVERAGE MISS LATENCY: 6.38406 cycles
L0D AVERAGE MISS LATENCY LOAD: 6.38406 cycles
L0D AVERAGE MISS LATENCY PREFETCH: -nan cycles
L0D AVERAGE MSHR OCCUPANCY: 0.614516
L0D MSHR FULL: 0
L0D RQ	ACCESS:   55591409	FORWARD:          0	MERGED:   15125296	TO_CACHE:   40466113
L0D WQ	ACCESS:   19411013	FORWARD:          0	MERGED:          0	TO_CACHE:   19411013

L1D SPEC fills:          0  NON-SPEC fills:     252927
L1D Test counter :          0
L1D Leapfrog:          0
L1D MSHR merge:     273648
L1D TOTAL     ACCESS:   95326647  HIT:   89196595  MISS:    6130052  HIT %:    93.5694  MISS %:    6.43058   MPKI: 30.6503
L1D LOAD      TOTAL       ACCESS:   32240751  HIT:   31507064  MISS:     733687  HIT %:    97.7243  MISS %:    2.27565   MPKI: 3.66844
L1D LOAD      NON_SPEC    ACCESS:   14599716  HIT:   14346789  MISS:     252927  HIT %:    98.2676  MISS %:    1.73241   MPKI: 1.26463
L1D LOAD      SPEC        ACCESS:   17641035  HIT:   17160275  MISS:     480760  HIT %:    97.2748  MISS %:    2.72524   MPKI: 2.4038
L1D RFO       NON_SPEC    ACCESS:   19408953  HIT:   19407400  MISS:       1553  HIT %:     99.992  MISS %: 0.00800146   MPKI: 0.007765
L1D PREFETCH  NON_SPEC    ACCESS:   14407385  HIT:    9455889  MISS:    4951496  HIT %:    65.6322  MISS %:    34.3678   MPKI: 24.7575
L1D COMMIT LOAD NON_SPEC    ACCESS:   11886654  HIT:   11886003  MISS:        651  HIT %:    99.9945  MISS %: 0.00547673   MPKI: 0.003255
L1D COMMIT WRITE NON_SPEC    ACCESS:   17382904  HIT:   16940239  MISS:     442665  HIT %:    97.4534  MISS %:    2.54655   MPKI: 2.21333
L1D PREFETCH  REQUESTED:   14794076  ISSUED:   14708353  USEFUL:    4021864  USELESS:     929631
L1D USEFUL LOAD PREFETCHES:    4021864 PREFETCH ISSUED TO LOWER LEVEL:    5225818  ACCURACY: 76.9614
L1D TIMELY PREFETCHES:    4021864 LATE PREFETCHES: 273595 DROPPED PREFETCHES: 0
L1D COMMIT LATE PREFETCHES: 25720 NORMAL LATE: 296507 MISSED OPPORTUNITY: 3363 UNCOVERED: 408420
L1D PREFETCHES SAME FILL-ORIGIN LEVEL: 5225818 DIFFERENT FILL-ORIGIN LEVEL: 0
L1D AVERAGE MISS LATENCY: 120.877 cycles
L1D AVERAGE MISS LATENCY LOAD: 61.4773 cycles
L1D AVERAGE MISS LATENCY PREFETCH: 140.533 cycles
L1D AVERAGE MSHR OCCUPANCY: 1.61434
L1D MSHR FULL: 3.29718e-05
L1D RQ	ACCESS:   55693700	FORWARD:          0	MERGED:    9792232	TO_CACHE:   44127789
L1D WQ	ACCESS:   36832881	FORWARD:    1773679	MERGED:      41018	TO_CACHE:   36791863
L1D PQ	ACCESS:   14708353	FORWARD:          0	MERGED:          0	TO_CACHE:   14708353

L1D UNIQUE REGIONS ACCESSED: 0
L1D REGIONS CONFLICTS: 0
L1D Cross Page Prefetch Requests: 0
L1D Same Page Prefetch Requests: 18351295
L1D ROI Sum of L1D PQ occupancy: 218108030
L1D PREFETCHES PUSHED FROM L2C: 0
L1I SPEC fills:          0  NON-SPEC fills:          0
L1I Test counter :          0
L1I Leapfrog:          0
L1I MSHR merge:          0
L1I TOTAL     ACCESS:   47145887  HIT:   47145887  MISS:          0  HIT %:        100  MISS %:          0   MPKI: 0
L1I LOAD      TOTAL       ACCESS:   47145887  HIT:   47145887  MISS:          0  HIT %:        100  MISS %:          0   MPKI: 0
L1I LOAD      NON_SPEC    ACCESS:   47145887  HIT:   47145887  MISS:          0  HIT %:        100  MISS %:          0   MPKI: 0
L1I PREFETCH  REQUESTED:          0  ISSUED:          0  USEFUL:          0  USELESS:          0
L1I USEFUL LOAD PREFETCHES:          0 PREFETCH ISSUED TO LOWER LEVEL:          0  ACCURACY: -nan
L1I TIMELY PREFETCHES:          0 LATE PREFETCHES: 0 DROPPED PREFETCHES: 0
L1I COMMIT LATE PREFETCHES: 0 NORMAL LATE: 0 MISSED OPPORTUNITY: 0 UNCOVERED: 0
L1I PREFETCHES SAME FILL-ORIGIN LEVEL: 0 DIFFERENT FILL-ORIGIN LEVEL: 0
L1I AVERAGE MISS LATENCY: -nan cycles
L1I AVERAGE MISS LATENCY LOAD: -nan cycles
L1I AVERAGE MISS LATENCY PREFETCH: -nan cycles
L1I AVERAGE MSHR OCCUPANCY: 0
L1I MSHR FULL: 0
L1I RQ	ACCESS:   74431985	FORWARD:          0	MERGED:   27286097	TO_CACHE:   47145888

BTB SPEC fills:          0  NON-SPEC fills:          0
BTB Test counter :          0
BTB Leapfrog:          0
BTB MSHR merge:          0
BTB TOTAL     ACCESS:   32765954  HIT:   32765925  MISS:         29  HIT %:    99.9999  MISS %: 8.85065e-05   MPKI: 0.000145
BTB BRANCH_DIRECT_JUMP	ACCESS:    4318196  HIT:    4318187  MISS:          9
BTB BRANCH_INDIRECT	ACCESS:          0  HIT:          0  MISS:          0
BTB BRANCH_CONDITIONAL	ACCESS:   24127035  HIT:   24127021  MISS:         14
BTB BRANCH_DIRECT_CALL	ACCESS:    2160361  HIT:    2160358  MISS:          3
BTB BRANCH_INDIRECT_CALL	ACCESS:          0  HIT:          0  MISS:          0
BTB BRANCH_RETURN	ACCESS:    2160362  HIT:    2160359  MISS:          3
BTB BRANCH_OTHER ACCESS:          0  HIT:          0  MISS:          0

L2C SPEC fills:          0  NON-SPEC fills:      37555
L2C Test counter :          0
L2C Leapfrog:          0
L2C MSHR merge:          0
L2C TOTAL     ACCESS:   10308082  HIT:    6528068  MISS:    3780014  HIT %:    63.3296  MISS %:    36.6704   MPKI: 18.9001
L2C LOAD      TOTAL       ACCESS:     460111  HIT:     350236  MISS:     109875  HIT %:    76.1199  MISS %:    23.8801   MPKI: 0.549375
L2C LOAD      NON_SPEC    ACCESS:      63821  HIT:      26266  MISS:      37555  HIT %:    41.1557  MISS %:    58.8443   MPKI: 0.187775
L2C LOAD      SPEC        ACCESS:     396290  HIT:     323970  MISS:      72320  HIT %:    81.7507  MISS %:    18.2493   MPKI: 0.3616
L2C RFO       NON_SPEC    ACCESS:        826  HIT:        801  MISS:         25  HIT %:    96.9734  MISS %:    3.02663   MPKI: 0.000125
L2C PREFETCH  NON_SPEC    ACCESS:    5225689  HIT:    1645878  MISS:    3579811  HIT %:    31.4959  MISS %:    68.5041   MPKI: 17.8991
L2C WRITEBACK NON_SPEC    ACCESS:       1733  HIT:       1733  MISS:          0  HIT %:        100  MISS %:          0   MPKI: 0
L2C CLEAN_EVICTION NON_SPEC    ACCESS:    4315080  HIT:    4236049  MISS:      79031  HIT %:    98.1685  MISS %:    1.83151   MPKI: 0.395155
L2C COMMIT LOAD NON_SPEC    ACCESS:        589  HIT:        574  MISS:         15  HIT %:    97.4533  MISS %:    2.54669   MPKI: 7.5e-05
L2C LOAD TRANSLATION NON_SPEC    ACCESS:     304054  HIT:     292797  MISS:      11257  HIT %:    96.2977  MISS %:     3.7023   MPKI: 0.056285
L2C PREFETCH  REQUESTED:          0  ISSUED:          0  USEFUL:      20802  USELESS:    3559064
L2C USEFUL LOAD PREFETCHES:      20802 PREFETCH ISSUED TO LOWER LEVEL:    3579811  ACCURACY: 0.581092
L2C TIMELY PREFETCHES:      20802 LATE PREFETCHES: 0 DROPPED PREFETCHES: 0
L2C COMMIT LATE PREFETCHES: 0 NORMAL LATE: 0 MISSED OPPORTUNITY: 0 UNCOVERED: 109875
L2C PREFETCHES SAME FILL-ORIGIN LEVEL: 0 DIFFERENT FILL-ORIGIN LEVEL: 0
L2C AVERAGE MISS LATENCY: 184.041 cycles
L2C AVERAGE MISS LATENCY LOAD: 176.592 cycles
L2C AVERAGE MISS LATENCY PREFETCH: 188.284 cycles
L2C AVERAGE MSHR OCCUPANCY: 0.891555
L2C MSHR FULL: 0
L2C RQ	ACCESS:     765623	FORWARD:          0	MERGED:          0	TO_CACHE:     765580
L2C WQ	ACCESS:    4316813	FORWARD:        172	MERGED:          0	TO_CACHE:    4316813
L2C PQ	ACCESS:    5225818	FORWARD:          0	MERGED:          0	TO_CACHE:    5225689

L2C Instructions Evicting Data 0
L2C Translations Evicting Data 11239
L2C Data Evicting Data 3606398
L2C Instructions Evicting Instructions 0
L2C Translations Evicting Instructions 0
L2C Data Evicting Instructions 0
L2C Instructions Evicting Translations 0
L2C Translations Evicting Translations 18
L2C Data Evicting Translations 11008
L2C Dense regions hint from L2: 0
PSCL5 SPEC fills:          0  NON-SPEC fills:          0
PSCL5 Test counter :          0
PSCL5 Leapfrog:          0
PSCL5 MSHR merge:          0
PSCL5 TOTAL     ACCESS:          0  HIT:          0  MISS:          0  HIT %:       -nan  MISS %:       -nan   MPKI: 0
PSCL5 PREFETCH  REQUESTED:          0  ISSUED:          0  USEFUL:          0  USELESS:          0
PSCL5 USEFUL LOAD PREFETCHES:          0 PREFETCH ISSUED TO LOWER LEVEL:          0  ACCURACY: -nan
PSCL5 TIMELY PREFETCHES:          0 LATE PREFETCHES: 0 DROPPED PREFETCHES: 0
PSCL5 COMMIT LATE PREFETCHES: 0 NORMAL LATE: 0 MISSED OPPORTUNITY: 0 UNCOVERED: 0
PSCL5 PREFETCHES SAME FILL-ORIGIN LEVEL: 0 DIFFERENT FILL-ORIGIN LEVEL: 0

PSCL4 SPEC fills:          0  NON-SPEC fills:          0
PSCL4 Test counter :          0
PSCL4 Leapfrog:          0
PSCL4 MSHR merge:          0
PSCL4 TOTAL     ACCESS:          0  HIT:          0  MISS:          0  HIT %:       -nan  MISS %:       -nan   MPKI: 0
PSCL4 PREFETCH  REQUESTED:          0  ISSUED:          0  USEFUL:          0  USELESS:          0
PSCL4 USEFUL LOAD PREFETCHES:          0 PREFETCH ISSUED TO LOWER LEVEL:          0  ACCURACY: -nan
PSCL4 TIMELY PREFETCHES:          0 LATE PREFETCHES: 0 DROPPED PREFETCHES: 0
PSCL4 COMMIT LATE PREFETCHES: 0 NORMAL LATE: 0 MISSED OPPORTUNITY: 0 UNCOVERED: 0
PSCL4 PREFETCHES SAME FILL-ORIGIN LEVEL: 0 DIFFERENT FILL-ORIGIN LEVEL: 0

PSCL3 SPEC fills:          0  NON-SPEC fills:          0
PSCL3 Test counter :          0
PSCL3 Leapfrog:          0
PSCL3 MSHR merge:          0
PSCL3 TOTAL     ACCESS:          0  HIT:          0  MISS:          0  HIT %:       -nan  MISS %:       -nan   MPKI: 0
PSCL3 PREFETCH  REQUESTED:          0  ISSUED:          0  USEFUL:          0  USELESS:          0
PSCL3 USEFUL LOAD PREFETCHES:          0 PREFETCH ISSUED TO LOWER LEVEL:          0  ACCURACY: -nan
PSCL3 TIMELY PREFETCHES:          0 LATE PREFETCHES: 0 DROPPED PREFETCHES: 0
PSCL3 COMMIT LATE PREFETCHES: 0 NORMAL LATE: 0 MISSED OPPORTUNITY: 0 UNCOVERED: 0
PSCL3 PREFETCHES SAME FILL-ORIGIN LEVEL: 0 DIFFERENT FILL-ORIGIN LEVEL: 0

PSCL2 SPEC fills:          0  NON-SPEC fills:          0
PSCL2 Test counter :          0
PSCL2 Leapfrog:          0
PSCL2 MSHR merge:          0
PSCL2 TOTAL     ACCESS:          0  HIT:          0  MISS:          0  HIT %:       -nan  MISS %:       -nan   MPKI: 0
PSCL2 PREFETCH  REQUESTED:          0  ISSUED:          0  USEFUL:          0  USELESS:          0
PSCL2 USEFUL LOAD PREFETCHES:          0 PREFETCH ISSUED TO LOWER LEVEL:          0  ACCURACY: -nan
PSCL2 TIMELY PREFETCHES:          0 LATE PREFETCHES: 0 DROPPED PREFETCHES: 0
PSCL2 COMMIT LATE PREFETCHES: 0 NORMAL LATE: 0 MISSED OPPORTUNITY: 0 UNCOVERED: 0
PSCL2 PREFETCHES SAME FILL-ORIGIN LEVEL: 0 DIFFERENT FILL-ORIGIN LEVEL: 0

LLC SPEC fills:          0  NON-SPEC fills:      37291
LLC Test counter :          0
LLC Leapfrog:          0
LLC MSHR merge:          0
LLC TOTAL     ACCESS:    6880606  HIT:    3131451  MISS:    3749155  HIT %:    45.5113  MISS %:    54.4887   MPKI: 18.7458
LLC LOAD      TOTAL       ACCESS:     109875  HIT:        526  MISS:     109349  HIT %:   0.478726  MISS %:    99.5213   MPKI: 0.546745
LLC LOAD      NON_SPEC    ACCESS:      37555  HIT:        264  MISS:      37291  HIT %:   0.702969  MISS %:     99.297   MPKI: 0.186455
LLC LOAD      SPEC        ACCESS:      72320  HIT:        262  MISS:      72058  HIT %:   0.362279  MISS %:    99.6377   MPKI: 0.36029
LLC RFO       NON_SPEC    ACCESS:         25  HIT:          0  MISS:         25  HIT %:          0  MISS %:        100   MPKI: 0.000125
LLC PREFETCH  NON_SPEC    ACCESS:    3579811  HIT:      24767  MISS:    3555044  HIT %:   0.691852  MISS %:    99.3081   MPKI: 17.7752
LLC WRITEBACK NON_SPEC    ACCESS:       1603  HIT:       1594  MISS:          9  HIT %:    99.4386  MISS %:   0.561447   MPKI: 4.5e-05
LLC CLEAN_EVICTION NON_SPEC    ACCESS:    3178020  HIT:    3103687  MISS:      74333  HIT %:     97.661  MISS %:    2.33897   MPKI: 0.371665
LLC COMMIT LOAD NON_SPEC    ACCESS:         15  HIT:          0  MISS:         15  HIT %:          0  MISS %:        100   MPKI: 7.5e-05
LLC LOAD TRANSLATION NON_SPEC    ACCESS:      11257  HIT:        877  MISS:      10380  HIT %:    7.79071  MISS %:    92.2093   MPKI: 0.0519
LLC PREFETCH  REQUESTED:          0  ISSUED:          0  USEFUL:        308  USELESS:    3554965
LLC USEFUL LOAD PREFETCHES:        308 PREFETCH ISSUED TO LOWER LEVEL:    3555044  ACCURACY: 0.00866375
LLC TIMELY PREFETCHES:        308 LATE PREFETCHES: 0 DROPPED PREFETCHES: 0
LLC COMMIT LATE PREFETCHES: 0 NORMAL LATE: 0 MISSED OPPORTUNITY: 0 UNCOVERED: 0
LLC PREFETCHES SAME FILL-ORIGIN LEVEL: 0 DIFFERENT FILL-ORIGIN LEVEL: 0
LLC AVERAGE MISS LATENCY: 156.046 cycles
LLC AVERAGE MISS LATENCY LOAD: 153.241 cycles
LLC AVERAGE MISS LATENCY PREFETCH: 159.314 cycles
LLC AVERAGE MSHR OCCUPANCY: 0.395487
LLC MSHR FULL: 0
LLC RQ	ACCESS:     121172	FORWARD:          0	MERGED:          0	TO_CACHE:     121172
LLC WQ	ACCESS:    3179623	FORWARD:          0	MERGED:          0	TO_CACHE:    3179623
LLC PQ	ACCESS:    3579811	FORWARD:          0	MERGED:          0	TO_CACHE:    3579811

LLC Dense regions hint to LLC: 0

RAW hits: 4698
Loads Generated: 55596107
Loads sent to L1D: 55591409
Stores Generated: 19411013
Stores sent to L1D: 19411013
Major fault: 0 Minor fault: 76297
Allocated PAGES: 76297
Total Load insts: 69476373
Total Non-spec loads: 17388306
Percentage of speculative loads: 74.9723

LeapFrogging counter: 40
Commit hits: 17421868 miss: 23452834
Commit hit %: 42.6226 miss %: 57.3774
Commits not translated: 0
Loads retired: 733687
Stores retired: 19411013
Cache fills: 733687
L1D response latency: 61.4773 cycles
Load retirement latency: 107.725 cycles
OOO test counter: 0
Discarded buffer inserts: 17421868 hits: 8382 hit %: 0.0481119
Filter prediction accuracy: -nan

stream: 
stream:times selected: 33701927
stream:pref_filled: 4653985
stream:pref_useful: 3830317
stream:pref_late: 123399
stream:misses: 36059
stream:misses_by_poll: 0

CS: 
CS:times selected: 17862324
CS:pref_filled: 314142
CS:pref_useful: 304208
CS:pref_late: 43707
CS:misses: 269073
CS:misses_by_poll: 2267

CPLX: 
CPLX:times selected: 15822195
CPLX:pref_filled: 1295747
CPLX:pref_useful: 969067
CPLX:pref_late: 5052
CPLX:misses: 309988
CPLX:misses_by_poll: 8874

NL_L1: 
NL:times selected: 78911
NL:pref_filled: 1565
NL:pref_useful: 1196
NL:pref_late: 211
NL:misses: 4826
NL:misses_by_poll: 7

total selections: 67465357
total_filled: 4951496
total_useful: 4021864
total_late: 189168
total_polluted: 11148
total_misses_after_warmup: 569367
conflicts: 0
Degree Incremented Times: 1228553
Degree Decremented Times: 0

L1 IP Table Write Accesses: 75007096
L1 IP Table Read Accesses: 75007096
L1 RST Write Accesses: 26968951
L1 RST Read Accesses: 53937902
L1 CSPT Write Accesses: 26968951
L1 CSPT Read Accesses: 61810125
L1 RR Filter Tag Write Accesses: 14794076
L1 RR Filter Tag Read Accesses: 4563952919
L1 IP Table Tag Write Accesses: 75007096
L1 IP Table Tag Read Accesses: 75007096
L1 RST Tag Write Accesses: 0
L1 RST Tag Read Accesses: 240998264
L1 RR Filter Write Accesses: 0
L1 RR Filter Read Accesses: 207978124
test: 4950772

stream: 
stream:times selected: 18854910
stream:pref_filled: 4653985
stream:pref_useful: 3830317
stream:pref_late: 123399
stream:misses: 53306
stream:misses_by_poll: 0

CS: 
CS:times selected: 7168959
CS:pref_filled: 314142
CS:pref_useful: 304208
CS:pref_late: 43707
CS:misses: 390164
CS:misses_by_poll: 3027

CPLX: 
CPLX:times selected: 11668411
CPLX:pref_filled: 1295747
CPLX:pref_useful: 969067
CPLX:pref_late: 5052
CPLX:misses: 331077
CPLX:misses_by_poll: 7303

NL_L1: 
NL:times selected: 107670
NL:pref_filled: 1565
NL:pref_useful: 1196
NL:pref_late: 211
NL:misses: 8240
NL:misses_by_poll: 0

total selections: 37799950
total_filled: 4951496
total_useful: 4021864
total_late: 189168
total_polluted: 10330
total_misses_after_warmup: 733802
conflicts: 0
Degree Incremented Times: 508596
Degree Decremented Times: 0

L1 IP Table Write Accesses: 32240866
L1 IP Table Read Accesses: 32240866
L1 RST Write Accesses: 15212181
L1 RST Read Accesses: 30424362
L1 CSPT Write Accesses: 15212181
L1 CSPT Read Accesses: 40028770
L1 RR Filter Tag Write Accesses: 11926092
L1 RR Filter Tag Read Accesses: 2380524885
L1 IP Table Tag Write Accesses: 32240866
L1 IP Table Tag Read Accesses: 32240866
L1 RST Tag Write Accesses: 0
L1 RST Tag Read Accesses: 136010969
L1 RR Filter Write Accesses: 0
L1 RR Filter Read Accesses: 104333376
test_pseudo: 3730588

DRAM Statistics
 CHANNEL 0
 RQ ROW_BUFFER_HIT:     546884  ROW_BUFFER_MISS:    3127929
 DBUS_CONGESTED:      10749
 WQ ROW_BUFFER_HIT:    1229657  ROW_BUFFER_MISS:    1947013  FULL:          0

 AVG_CONGESTED_CYCLE: 3
 All warmup complete: 2
Channel 0 Bank busy for read cycles: 0
Channel 0 Bank busy for write cycles: 0
Channel 0
Rank 0
0banks busy for read cycles: 40371857
0banks busy for write cycles: 151938
1banks busy for read cycles: 144962814
1banks busy for write cycles: 19464712
2banks busy for read cycles: 53439752
2banks busy for write cycles: 14639768
3banks busy for read cycles: 34646259
3banks busy for write cycles: 11616937
4banks busy for read cycles: 15849197
4banks busy for write cycles: 9883169
5banks busy for read cycles: 7228361
5banks busy for write cycles: 9000817
6banks busy for read cycles: 6149027
6banks busy for write cycles: 9659134
7banks busy for read cycles: 557225
7banks busy for write cycles: 13499305
8banks busy for read cycles: 67140
8banks busy for write cycles: 39463546

CPU 0 Branch Prediction Accuracy: 99.9621% MPKI: 0.097185 Average ROB Occupancy at Mispredict: 311.312
Branch types
NOT_BRANCH: 148719231 74.3596%
BRANCH_DIRECT_JUMP: 4318196 2.1591%
BRANCH_INDIRECT: 0 0%
BRANCH_CONDITIONAL: 42641844 21.3209%
BRANCH_DIRECT_CALL: 2160361 1.08018%
BRANCH_INDIRECT_CALL: 0 0%
BRANCH_RETURN: 2160362 1.08018%
BRANCH_OTHER: 0 0%

DRAM PAGES: 1048576
Allocated PAGES: 76297
