
*** ChampSim Multicore Out-of-Order Simulator ***

Warmup Instructions: 50000000
Simulation Instructions: 200000000
Number of CPUs: 1
LLC sets: 2048
LLC ways: 16
L0D sets: 16
L0D ways: 2
ROB size: 352
LQ size: 128
SQ size: 72
Secure Berti: OFF
Berti: OFF
Berti Fill: OFF
On commit prefetching: ON
Hit-based filter: OFF
Time-guarding: ON
Free-slotting: ON
Leap-frogging: ON
Train prefetcher on L0D bypass: OFF
No translation penalty for prefetchers: OFF
Prefetch to L0D only: OFF
Prefetch to L1D only: OFF
Clean evictions: ON
Commit loads: ON
Commit write: ON
Fill commit loads to L2C, LLC: ON
DRAM IO FREQUENCY: 6400
ROB SIZE: 352
Off-chip DRAM Size: 4096 MB Channels: 1 Width: 64-bit Data Rate: 6400 MT/s
CPU 0 runs /home/sumon/secure_berti/GhostMinion/../../traces/spec/603.bwaves_s-2609B.champsimtrace.xz
.xz
BTB has LRU replacement policy
ITLB has LRU replacement policy
DTLB has LRU replacement policy
STLB has LRU replacement policy
L1I has LRU replacement policy
L0D has LRU replacement policy
IP Table Entries: 1024
CSPT Entries: 128
RR_ENTRIES: 32
RST_ENTRIES: 8
IP Table Entries: 1024
CSPT Entries: 128
RR_ENTRIES: 32
RST_ENTRIES: 8
L1D has LRU replacement policy
L2C has LRU replacement policy
LLC has LRU replacement policy
Heartbeat CPU 0 instructions: 10000002 cycles: 3688388 heartbeat IPC: 2.71121 cumulative IPC: 2.71121 (Simulation time: 0 hr 1 min 8 sec) 
Heartbeat CPU 0 instructions: 20000003 cycles: 7375538 heartbeat IPC: 2.71212 cumulative IPC: 2.71167 (Simulation time: 0 hr 2 min 16 sec) 
Heartbeat CPU 0 instructions: 30000001 cycles: 11065524 heartbeat IPC: 2.71004 cumulative IPC: 2.71112 (Simulation time: 0 hr 3 min 29 sec) 
Heartbeat CPU 0 instructions: 40000002 cycles: 14754987 heartbeat IPC: 2.71042 cumulative IPC: 2.71095 (Simulation time: 0 hr 4 min 46 sec) 
Heartbeat CPU 0 instructions: 50000003 cycles: 18443361 heartbeat IPC: 2.71122 cumulative IPC: 2.711 (Simulation time: 0 hr 6 min 39 sec) 

Warmup complete CPU 0 instructions: 50000003 cycles: 18443361 (Simulation time: 0 hr 6 min 39 sec) 

Heartbeat CPU 0 instructions: 60000000 cycles: 28229575 heartbeat IPC: 1.02185 cumulative IPC: 1.02185 (Simulation time: 0 hr 7 min 42 sec) 
Heartbeat CPU 0 instructions: 70000000 cycles: 38022087 heartbeat IPC: 1.02119 cumulative IPC: 1.02152 (Simulation time: 0 hr 8 min 46 sec) 
Heartbeat CPU 0 instructions: 80000003 cycles: 47814837 heartbeat IPC: 1.02116 cumulative IPC: 1.0214 (Simulation time: 0 hr 9 min 50 sec) 
Heartbeat CPU 0 instructions: 90000003 cycles: 57607248 heartbeat IPC: 1.0212 cumulative IPC: 1.02135 (Simulation time: 0 hr 10 min 54 sec) 
Heartbeat CPU 0 instructions: 100000001 cycles: 67403752 heartbeat IPC: 1.02077 cumulative IPC: 1.02123 (Simulation time: 0 hr 11 min 58 sec) 
Heartbeat CPU 0 instructions: 110000000 cycles: 77190557 heartbeat IPC: 1.02178 cumulative IPC: 1.02133 (Simulation time: 0 hr 13 min 2 sec) 
Heartbeat CPU 0 instructions: 120000000 cycles: 86975487 heartbeat IPC: 1.02198 cumulative IPC: 1.02142 (Simulation time: 0 hr 14 min 7 sec) 
Heartbeat CPU 0 instructions: 130000003 cycles: 96754501 heartbeat IPC: 1.0226 cumulative IPC: 1.02157 (Simulation time: 0 hr 15 min 12 sec) 
Heartbeat CPU 0 instructions: 140000000 cycles: 106535284 heartbeat IPC: 1.02241 cumulative IPC: 1.02166 (Simulation time: 0 hr 16 min 16 sec) 
Heartbeat CPU 0 instructions: 150000003 cycles: 116314238 heartbeat IPC: 1.0226 cumulative IPC: 1.02175 (Simulation time: 0 hr 17 min 19 sec) 
Heartbeat CPU 0 instructions: 160000000 cycles: 126110284 heartbeat IPC: 1.02082 cumulative IPC: 1.02167 (Simulation time: 0 hr 18 min 21 sec) 
Heartbeat CPU 0 instructions: 170000002 cycles: 135897200 heartbeat IPC: 1.02177 cumulative IPC: 1.02168 (Simulation time: 0 hr 19 min 23 sec) 
Heartbeat CPU 0 instructions: 180000001 cycles: 145692468 heartbeat IPC: 1.0209 cumulative IPC: 1.02162 (Simulation time: 0 hr 20 min 24 sec) 
Heartbeat CPU 0 instructions: 190000000 cycles: 155483430 heartbeat IPC: 1.02135 cumulative IPC: 1.0216 (Simulation time: 0 hr 21 min 25 sec) 
Heartbeat CPU 0 instructions: 200000001 cycles: 165278607 heartbeat IPC: 1.02091 cumulative IPC: 1.02155 (Simulation time: 0 hr 22 min 26 sec) 
Heartbeat CPU 0 instructions: 210000003 cycles: 175067987 heartbeat IPC: 1.02152 cumulative IPC: 1.02155 (Simulation time: 0 hr 23 min 25 sec) 
Heartbeat CPU 0 instructions: 220000000 cycles: 184846956 heartbeat IPC: 1.0226 cumulative IPC: 1.02161 (Simulation time: 0 hr 24 min 24 sec) 
Heartbeat CPU 0 instructions: 230000002 cycles: 194636361 heartbeat IPC: 1.02151 cumulative IPC: 1.02161 (Simulation time: 0 hr 25 min 23 sec) 
Heartbeat CPU 0 instructions: 240000000 cycles: 204430886 heartbeat IPC: 1.02098 cumulative IPC: 1.02157 (Simulation time: 0 hr 26 min 22 sec) 
Heartbeat CPU 0 instructions: 250000000 cycles: 214224753 heartbeat IPC: 1.02105 cumulative IPC: 1.02155 (Simulation time: 0 hr 27 min 19 sec) 
Finished CPU 0 instructions: 200000003 cycles: 195781394 cumulative IPC: 1.02155 (Simulation time: 0 hr 27 min 19 sec) 
 Instruction ID: 250000117

ChampSim completed all CPUs

Region of Interest Statistics

CPU 0 cumulative IPC: 1.02155 instructions: 200000003 cycles: 195781394
ITLB SPEC fills:          0  NON-SPEC fills:          0
ITLB Test counter :          0
ITLB Leapfrog:          0
ITLB MSHR merge:          0
ITLB TOTAL     ACCESS:   25359336  HIT:   25359336  MISS:          0  HIT %:        100  MISS %:          0   MPKI: 0
ITLB LOAD TRANSLATION NON_SPEC    ACCESS:   25359336  HIT:   25359336  MISS:          0  HIT %:        100  MISS %:          0   MPKI: 0
ITLB PREFETCH  REQUESTED:          0  ISSUED:          0  USEFUL:          0  USELESS:          0
ITLB USEFUL LOAD PREFETCHES:          0 PREFETCH ISSUED TO LOWER LEVEL:          0  ACCURACY: -nan
ITLB TIMELY PREFETCHES:          0 LATE PREFETCHES: 0 DROPPED PREFETCHES: 0
ITLB COMMIT LATE PREFETCHES: 0 NORMAL LATE: 0 MISSED OPPORTUNITY: 0 UNCOVERED: 0
ITLB PREFETCHES SAME FILL-ORIGIN LEVEL: 0 DIFFERENT FILL-ORIGIN LEVEL: 0
ITLB AVERAGE MISS LATENCY: -nan cycles
ITLB AVERAGE MISS LATENCY LOAD: -nan cycles
ITLB AVERAGE MISS LATENCY PREFETCH: -nan cycles
ITLB AVERAGE MSHR OCCUPANCY: 0
ITLB MSHR FULL: 0
ITLB RQ	ACCESS:   34401160	FORWARD:          0	MERGED:    9041824	TO_CACHE:   25359336

DTLB SPEC fills:          0  NON-SPEC fills:          0
DTLB Test counter :          0
DTLB Leapfrog:          0
DTLB MSHR merge:          0
DTLB TOTAL     ACCESS:   73438639  HIT:   73298104  MISS:     140535  HIT %:    99.8086  MISS %:   0.191364   MPKI: 0.702675
DTLB LOAD TRANSLATION NON_SPEC    ACCESS:   73438639  HIT:   73298104  MISS:     140535  HIT %:    99.8086  MISS %:   0.191364   MPKI: 0.702675
DTLB PREFETCH  REQUESTED:          0  ISSUED:          0  USEFUL:          0  USELESS:          0
DTLB USEFUL LOAD PREFETCHES:          0 PREFETCH ISSUED TO LOWER LEVEL:          0  ACCURACY: -nan
DTLB TIMELY PREFETCHES:          0 LATE PREFETCHES: 0 DROPPED PREFETCHES: 0
DTLB COMMIT LATE PREFETCHES: 0 NORMAL LATE: 0 MISSED OPPORTUNITY: 0 UNCOVERED: 0
DTLB PREFETCHES SAME FILL-ORIGIN LEVEL: 0 DIFFERENT FILL-ORIGIN LEVEL: 0
DTLB AVERAGE MISS LATENCY: 285.278 cycles
DTLB AVERAGE MISS LATENCY LOAD: -nan cycles
DTLB AVERAGE MISS LATENCY PREFETCH: -nan cycles
DTLB AVERAGE MSHR OCCUPANCY: 0.0217233
DTLB MSHR FULL: 6.79194e-06
DTLB RQ	ACCESS:   85998191	FORWARD:          0	MERGED:   12528750	TO_CACHE:   73469441

STLB SPEC fills:          0  NON-SPEC fills:          0
STLB Test counter :          0
STLB Leapfrog:          0
STLB MSHR merge:          0
STLB TOTAL     ACCESS:   14158939  HIT:   14099557  MISS:      59382  HIT %:    99.5806  MISS %:   0.419396   MPKI: 0.29691
STLB LOAD TRANSLATION NON_SPEC    ACCESS:     140535  HIT:      81153  MISS:      59382  HIT %:    57.7458  MISS %:    42.2542   MPKI: 0.29691
STLB TRANSLATION FROM L1D PREFETCHER NON_SPEC    ACCESS:   14018404  HIT:   14018404  MISS:          0  HIT %:        100  MISS %:          0   MPKI: 0
STLB PREFETCH  REQUESTED:          0  ISSUED:          0  USEFUL:          0  USELESS:          0
STLB USEFUL LOAD PREFETCHES:          0 PREFETCH ISSUED TO LOWER LEVEL:          0  ACCURACY: -nan
STLB TIMELY PREFETCHES:          0 LATE PREFETCHES: 0 DROPPED PREFETCHES: 0
STLB COMMIT LATE PREFETCHES: 0 NORMAL LATE: 0 MISSED OPPORTUNITY: 0 UNCOVERED: 0
STLB PREFETCHES SAME FILL-ORIGIN LEVEL: 0 DIFFERENT FILL-ORIGIN LEVEL: 0
STLB AVERAGE MISS LATENCY: 653.464 cycles
STLB AVERAGE MISS LATENCY LOAD: -nan cycles
STLB AVERAGE MISS LATENCY PREFETCH: -nan cycles
STLB AVERAGE MSHR OCCUPANCY: 0.0221439
STLB MSHR FULL: 0
STLB RQ	ACCESS:   63161787	FORWARD:          0	MERGED:   49002848	TO_CACHE:   14158939

STLB Hit, L1D data hit: 0
STLB Hit, L2C data hit: 0
STLB Hit, LLC data hit: 0
STLB Hit, LLC data miss: 0
STLB STLB hints to L2: 0
L0D SPEC fills:   47875244  NON-SPEC fills:          0
L0D TimeGuard Request with older TS:    1701782 Restricted eviction:   12270412 read:     166373
L0D Test counter :          0
L0D Leapfrog:          0
L0D MSHR merge:    2281235
L0D TOTAL     ACCESS:   72450155  HIT:    6830348  MISS:   65619807  HIT %:    9.42765  MISS %:    90.5723   MPKI: 328.099
L0D LOAD      TOTAL       ACCESS:   72450155  HIT:    6830348  MISS:   65619807  HIT %:    9.42765  MISS %:    90.5723   MPKI: 328.099
L0D LOAD      NON_SPEC    ACCESS:    5829066  HIT:     351757  MISS:    5477309  HIT %:    6.03453  MISS %:    93.9655   MPKI: 27.3865
L0D LOAD      SPEC        ACCESS:   66621089  HIT:    6478591  MISS:   60142498  HIT %:    9.72453  MISS %:    90.2755   MPKI: 300.712
L0D PREFETCH  REQUESTED:          0  ISSUED:          0  USEFUL:          0  USELESS:          0
L0D USEFUL LOAD PREFETCHES:          0 PREFETCH ISSUED TO LOWER LEVEL:          0  ACCURACY: -nan
L0D TIMELY PREFETCHES:          0 LATE PREFETCHES: 0 DROPPED PREFETCHES: 0
L0D COMMIT LATE PREFETCHES: 0 NORMAL LATE: 0 MISSED OPPORTUNITY: 0 UNCOVERED: 0
L0D PREFETCHES SAME FILL-ORIGIN LEVEL: 0 DIFFERENT FILL-ORIGIN LEVEL: 0
L0D AVERAGE MISS LATENCY: 5.78842 cycles
L0D AVERAGE MISS LATENCY LOAD: 5.78842 cycles
L0D AVERAGE MISS LATENCY PREFETCH: -nan cycles
L0D AVERAGE MSHR OCCUPANCY: 1.73527
L0D MSHR FULL: 0.00168199
L0D RQ	ACCESS:   85388397	FORWARD:          0	MERGED:   10657021	TO_CACHE:   74731376
L0D WQ	ACCESS:   11266815	FORWARD:          0	MERGED:          0	TO_CACHE:   11266815

L1D SPEC fills:          0  NON-SPEC fills:       1299
L1D Test counter :          0
L1D Leapfrog:          0
L1D MSHR merge:      57280
L1D TOTAL     ACCESS:  207647909  HIT:  203412074  MISS:    4235835  HIT %:    97.9601  MISS %:    2.03991   MPKI: 21.1792
L1D LOAD      TOTAL       ACCESS:   65610840  HIT:   65383790  MISS:     227050  HIT %:    99.6539  MISS %:   0.346056   MPKI: 1.13525
L1D LOAD      NON_SPEC    ACCESS:    5477244  HIT:    5475945  MISS:       1299  HIT %:    99.9763  MISS %:  0.0237163   MPKI: 0.006495
L1D LOAD      SPEC        ACCESS:   60133596  HIT:   59907845  MISS:     225751  HIT %:    99.6246  MISS %:   0.375416   MPKI: 1.12875
L1D RFO       NON_SPEC    ACCESS:   10834332  HIT:   10832717  MISS:       1615  HIT %:    99.9851  MISS %:  0.0149063   MPKI: 0.008075
L1D PREFETCH  NON_SPEC    ACCESS:   60027656  HIT:   56223585  MISS:    3804071  HIT %:    93.6628  MISS %:     6.3372   MPKI: 19.0204
L1D COMMIT LOAD NON_SPEC    ACCESS:   24739118  HIT:   24721011  MISS:      18107  HIT %:    99.9268  MISS %:  0.0731918   MPKI: 0.090535
L1D COMMIT WRITE NON_SPEC    ACCESS:   46435963  HIT:   46250971  MISS:     184992  HIT %:    99.6016  MISS %:   0.398381   MPKI: 0.92496
L1D PREFETCH  REQUESTED:  131977420  ISSUED:   63647581  USEFUL:    3697962  USELESS:     106132
L1D USEFUL LOAD PREFETCHES:    3697962 PREFETCH ISSUED TO LOWER LEVEL:    3858869  ACCURACY: 95.8302
L1D TIMELY PREFETCHES:    3697962 LATE PREFETCHES: 54797 DROPPED PREFETCHES: 0
L1D COMMIT LATE PREFETCHES: 65307 NORMAL LATE: 42178 MISSED OPPORTUNITY: 458 UNCOVERED: 125633
L1D PREFETCHES SAME FILL-ORIGIN LEVEL: 3858869 DIFFERENT FILL-ORIGIN LEVEL: 0
L1D AVERAGE MISS LATENCY: 257.729 cycles
L1D AVERAGE MISS LATENCY LOAD: 179.279 cycles
L1D AVERAGE MISS LATENCY PREFETCH: 275.695 cycles
L1D AVERAGE MSHR OCCUPANCY: 5.55791
L1D MSHR FULL: 0.0448082
L1D RQ	ACCESS:   98654390	FORWARD:          0	MERGED:    8291904	TO_CACHE:   90362443
L1D WQ	ACCESS:   57702835	FORWARD:         43	MERGED:     429493	TO_CACHE:   57273342
L1D PQ	ACCESS:   63647581	FORWARD:          0	MERGED:     626329	TO_CACHE:   63021252

L1D UNIQUE REGIONS ACCESSED: 0
L1D REGIONS CONFLICTS: 0
L1D Cross Page Prefetch Requests: 0
L1D Same Page Prefetch Requests: 72398182
L1D ROI Sum of L1D PQ occupancy: 1133177825
L1D PREFETCHES PUSHED FROM L2C: 0
L1I SPEC fills:          0  NON-SPEC fills:          0
L1I Test counter :          0
L1I Leapfrog:          0
L1I MSHR merge:          0
L1I TOTAL     ACCESS:   34401159  HIT:   34401159  MISS:          0  HIT %:        100  MISS %:          0   MPKI: 0
L1I LOAD      TOTAL       ACCESS:   34401159  HIT:   34401159  MISS:          0  HIT %:        100  MISS %:          0   MPKI: 0
L1I LOAD      NON_SPEC    ACCESS:   34401159  HIT:   34401159  MISS:          0  HIT %:        100  MISS %:          0   MPKI: 0
L1I PREFETCH  REQUESTED:          0  ISSUED:          0  USEFUL:          0  USELESS:          0
L1I USEFUL LOAD PREFETCHES:          0 PREFETCH ISSUED TO LOWER LEVEL:          0  ACCURACY: -nan
L1I TIMELY PREFETCHES:          0 LATE PREFETCHES: 0 DROPPED PREFETCHES: 0
L1I COMMIT LATE PREFETCHES: 0 NORMAL LATE: 0 MISSED OPPORTUNITY: 0 UNCOVERED: 0
L1I PREFETCHES SAME FILL-ORIGIN LEVEL: 0 DIFFERENT FILL-ORIGIN LEVEL: 0
L1I AVERAGE MISS LATENCY: -nan cycles
L1I AVERAGE MISS LATENCY LOAD: -nan cycles
L1I AVERAGE MISS LATENCY PREFETCH: -nan cycles
L1I AVERAGE MSHR OCCUPANCY: 0
L1I MSHR FULL: 0
L1I RQ	ACCESS:   45823321	FORWARD:          0	MERGED:   11422161	TO_CACHE:   34401160

BTB SPEC fills:          0  NON-SPEC fills:          0
BTB Test counter :          0
BTB Leapfrog:          0
BTB MSHR merge:          0
BTB TOTAL     ACCESS:    4834902  HIT:    4834897  MISS:          5  HIT %:    99.9999  MISS %: 0.000103415   MPKI: 2.5e-05
BTB BRANCH_DIRECT_JUMP	ACCESS:          0  HIT:          0  MISS:          0
BTB BRANCH_INDIRECT	ACCESS:          0  HIT:          0  MISS:          0
BTB BRANCH_CONDITIONAL	ACCESS:    4834902  HIT:    4834897  MISS:          5
BTB BRANCH_DIRECT_CALL	ACCESS:          0  HIT:          0  MISS:          0
BTB BRANCH_INDIRECT_CALL	ACCESS:          0  HIT:          0  MISS:          0
BTB BRANCH_RETURN	ACCESS:          0  HIT:          0  MISS:          0
BTB BRANCH_OTHER ACCESS:          0  HIT:          0  MISS:          0

L2C SPEC fills:          0  NON-SPEC fills:        874
L2C Test counter :          0
L2C Leapfrog:          0
L2C MSHR merge:          0
L2C TOTAL     ACCESS:    7479885  HIT:    3500379  MISS:    3979506  HIT %:    46.7972  MISS %:    53.2028   MPKI: 19.8975
L2C LOAD      TOTAL       ACCESS:     178737  HIT:       6307  MISS:     172430  HIT %:    3.52865  MISS %:    96.4714   MPKI: 0.86215
L2C LOAD      NON_SPEC    ACCESS:       1122  HIT:        248  MISS:        874  HIT %:    22.1034  MISS %:    77.8966   MPKI: 0.00437
L2C LOAD      SPEC        ACCESS:     177615  HIT:       6059  MISS:     171556  HIT %:    3.41131  MISS %:    96.5887   MPKI: 0.85778
L2C RFO       NON_SPEC    ACCESS:       1614  HIT:          0  MISS:       1614  HIT %:          0  MISS %:        100   MPKI: 0.00807
L2C PREFETCH  NON_SPEC    ACCESS:    3858869  HIT:     208365  MISS:    3650504  HIT %:    5.39964  MISS %:    94.6004   MPKI: 18.2525
L2C WRITEBACK NON_SPEC    ACCESS:      97465  HIT:      97465  MISS:          0  HIT %:        100  MISS %:          0   MPKI: 0
L2C CLEAN_EVICTION NON_SPEC    ACCESS:    3034778  HIT:    2895508  MISS:     139270  HIT %:    95.4109  MISS %:    4.58913   MPKI: 0.69635
L2C COMMIT LOAD NON_SPEC    ACCESS:      11623  HIT:       3372  MISS:       8251  HIT %:    29.0114  MISS %:    70.9886   MPKI: 0.041255
L2C LOAD TRANSLATION NON_SPEC    ACCESS:     296799  HIT:     289362  MISS:       7437  HIT %:    97.4943  MISS %:    2.50574   MPKI: 0.037185
L2C PREFETCH  REQUESTED:          0  ISSUED:          0  USEFUL:       3660  USELESS:    3646171
L2C USEFUL LOAD PREFETCHES:       3660 PREFETCH ISSUED TO LOWER LEVEL:    3650504  ACCURACY: 0.10026
L2C TIMELY PREFETCHES:       3660 LATE PREFETCHES: 0 DROPPED PREFETCHES: 0
L2C COMMIT LATE PREFETCHES: 0 NORMAL LATE: 0 MISSED OPPORTUNITY: 0 UNCOVERED: 172430
L2C PREFETCHES SAME FILL-ORIGIN LEVEL: 0 DIFFERENT FILL-ORIGIN LEVEL: 0
L2C AVERAGE MISS LATENCY: 259.396 cycles
L2C AVERAGE MISS LATENCY LOAD: 182.682 cycles
L2C AVERAGE MISS LATENCY PREFETCH: 273.139 cycles
L2C AVERAGE MSHR OCCUPANCY: 5.63398
L2C MSHR FULL: 0
L2C RQ	ACCESS:     488773	FORWARD:          0	MERGED:          0	TO_CACHE:     488773
L2C WQ	ACCESS:    3132246	FORWARD:          0	MERGED:          3	TO_CACHE:    3132243
L2C PQ	ACCESS:    3858869	FORWARD:          0	MERGED:          0	TO_CACHE:    3858869

L2C Instructions Evicting Data 0
L2C Translations Evicting Data 7434
L2C Data Evicting Data 3654080
L2C Instructions Evicting Instructions 0
L2C Translations Evicting Instructions 0
L2C Data Evicting Instructions 0
L2C Instructions Evicting Translations 0
L2C Translations Evicting Translations 3
L2C Data Evicting Translations 7163
L2C Dense regions hint from L2: 0
PSCL5 SPEC fills:          0  NON-SPEC fills:          0
PSCL5 Test counter :          0
PSCL5 Leapfrog:          0
PSCL5 MSHR merge:          0
PSCL5 TOTAL     ACCESS:          0  HIT:          0  MISS:          0  HIT %:       -nan  MISS %:       -nan   MPKI: 0
PSCL5 PREFETCH  REQUESTED:          0  ISSUED:          0  USEFUL:          0  USELESS:          0
PSCL5 USEFUL LOAD PREFETCHES:          0 PREFETCH ISSUED TO LOWER LEVEL:          0  ACCURACY: -nan
PSCL5 TIMELY PREFETCHES:          0 LATE PREFETCHES: 0 DROPPED PREFETCHES: 0
PSCL5 COMMIT LATE PREFETCHES: 0 NORMAL LATE: 0 MISSED OPPORTUNITY: 0 UNCOVERED: 0
PSCL5 PREFETCHES SAME FILL-ORIGIN LEVEL: 0 DIFFERENT FILL-ORIGIN LEVEL: 0

PSCL4 SPEC fills:          0  NON-SPEC fills:          0
PSCL4 Test counter :          0
PSCL4 Leapfrog:          0
PSCL4 MSHR merge:          0
PSCL4 TOTAL     ACCESS:          0  HIT:          0  MISS:          0  HIT %:       -nan  MISS %:       -nan   MPKI: 0
PSCL4 PREFETCH  REQUESTED:          0  ISSUED:          0  USEFUL:          0  USELESS:          0
PSCL4 USEFUL LOAD PREFETCHES:          0 PREFETCH ISSUED TO LOWER LEVEL:          0  ACCURACY: -nan
PSCL4 TIMELY PREFETCHES:          0 LATE PREFETCHES: 0 DROPPED PREFETCHES: 0
PSCL4 COMMIT LATE PREFETCHES: 0 NORMAL LATE: 0 MISSED OPPORTUNITY: 0 UNCOVERED: 0
PSCL4 PREFETCHES SAME FILL-ORIGIN LEVEL: 0 DIFFERENT FILL-ORIGIN LEVEL: 0

PSCL3 SPEC fills:          0  NON-SPEC fills:          0
PSCL3 Test counter :          0
PSCL3 Leapfrog:          0
PSCL3 MSHR merge:          0
PSCL3 TOTAL     ACCESS:          0  HIT:          0  MISS:          0  HIT %:       -nan  MISS %:       -nan   MPKI: 0
PSCL3 PREFETCH  REQUESTED:          0  ISSUED:          0  USEFUL:          0  USELESS:          0
PSCL3 USEFUL LOAD PREFETCHES:          0 PREFETCH ISSUED TO LOWER LEVEL:          0  ACCURACY: -nan
PSCL3 TIMELY PREFETCHES:          0 LATE PREFETCHES: 0 DROPPED PREFETCHES: 0
PSCL3 COMMIT LATE PREFETCHES: 0 NORMAL LATE: 0 MISSED OPPORTUNITY: 0 UNCOVERED: 0
PSCL3 PREFETCHES SAME FILL-ORIGIN LEVEL: 0 DIFFERENT FILL-ORIGIN LEVEL: 0

PSCL2 SPEC fills:          0  NON-SPEC fills:          0
PSCL2 Test counter :          0
PSCL2 Leapfrog:          0
PSCL2 MSHR merge:          0
PSCL2 TOTAL     ACCESS:          0  HIT:          0  MISS:          0  HIT %:       -nan  MISS %:       -nan   MPKI: 0
PSCL2 PREFETCH  REQUESTED:          0  ISSUED:          0  USEFUL:          0  USELESS:          0
PSCL2 USEFUL LOAD PREFETCHES:          0 PREFETCH ISSUED TO LOWER LEVEL:          0  ACCURACY: -nan
PSCL2 TIMELY PREFETCHES:          0 LATE PREFETCHES: 0 DROPPED PREFETCHES: 0
PSCL2 COMMIT LATE PREFETCHES: 0 NORMAL LATE: 0 MISSED OPPORTUNITY: 0 UNCOVERED: 0
PSCL2 PREFETCHES SAME FILL-ORIGIN LEVEL: 0 DIFFERENT FILL-ORIGIN LEVEL: 0

LLC SPEC fills:          0  NON-SPEC fills:        874
LLC Test counter :          0
LLC Leapfrog:          0
LLC MSHR merge:          0
LLC TOTAL     ACCESS:    6773000  HIT:    2793570  MISS:    3979430  HIT %:    41.2457  MISS %:    58.7543   MPKI: 19.8971
LLC LOAD      TOTAL       ACCESS:     172430  HIT:          0  MISS:     172430  HIT %:          0  MISS %:        100   MPKI: 0.86215
LLC LOAD      NON_SPEC    ACCESS:        874  HIT:          0  MISS:        874  HIT %:          0  MISS %:        100   MPKI: 0.00437
LLC LOAD      SPEC        ACCESS:     171556  HIT:          0  MISS:     171556  HIT %:          0  MISS %:        100   MPKI: 0.85778
LLC RFO       NON_SPEC    ACCESS:       1614  HIT:          0  MISS:       1614  HIT %:          0  MISS %:        100   MPKI: 0.00807
LLC PREFETCH  NON_SPEC    ACCESS:    3650504  HIT:          0  MISS:    3650504  HIT %:          0  MISS %:        100   MPKI: 18.2525
LLC WRITEBACK NON_SPEC    ACCESS:      97483  HIT:      97483  MISS:          0  HIT %:        100  MISS %:          0   MPKI: 0
LLC CLEAN_EVICTION NON_SPEC    ACCESS:    2835281  HIT:    2696087  MISS:     139194  HIT %:    95.0906  MISS %:    4.90935   MPKI: 0.69597
LLC COMMIT LOAD NON_SPEC    ACCESS:       8251  HIT:          0  MISS:       8251  HIT %:          0  MISS %:        100   MPKI: 0.041255
LLC LOAD TRANSLATION NON_SPEC    ACCESS:       7437  HIT:          0  MISS:       7437  HIT %:          0  MISS %:        100   MPKI: 0.037185
LLC PREFETCH  REQUESTED:          0  ISSUED:          0  USEFUL:          0  USELESS:    3648044
LLC USEFUL LOAD PREFETCHES:          0 PREFETCH ISSUED TO LOWER LEVEL:    3650504  ACCURACY: 0
LLC TIMELY PREFETCHES:          0 LATE PREFETCHES: 0 DROPPED PREFETCHES: 0
LLC COMMIT LATE PREFETCHES: 0 NORMAL LATE: 0 MISSED OPPORTUNITY: 0 UNCOVERED: 0
LLC PREFETCHES SAME FILL-ORIGIN LEVEL: 0 DIFFERENT FILL-ORIGIN LEVEL: 0
LLC AVERAGE MISS LATENCY: 228.976 cycles
LLC AVERAGE MISS LATENCY LOAD: 149.606 cycles
LLC AVERAGE MISS LATENCY PREFETCH: 241.677 cycles
LLC AVERAGE MSHR OCCUPANCY: 4.71306
LLC MSHR FULL: 0
LLC RQ	ACCESS:     189732	FORWARD:          0	MERGED:          0	TO_CACHE:     189732
LLC WQ	ACCESS:    2932764	FORWARD:          0	MERGED:          0	TO_CACHE:    2932764
LLC PQ	ACCESS:    3650504	FORWARD:          0	MERGED:          0	TO_CACHE:    3650504

LLC Dense regions hint to LLC: 0

RAW hits: 571817
Loads Generated: 85960219
Loads sent to L1D: 85388397
Stores Generated: 11266825
Stores sent to L1D: 11266815
Major fault: 0 Minor fault: 70872
Allocated PAGES: 70872
Total Load insts: 106099188
Total Non-spec loads: 6335734
Percentage of speculative loads: 94.0285

LeapFrogging counter: 107350
Commit hits: 46436035 miss: 33034586
Commit hit %: 58.4317 miss %: 41.5683
Commits not translated: 0
Loads retired: 227050
Stores retired: 11266815
Cache fills: 227050
L1D response latency: 179.279 cycles
Load retirement latency: 517.13 cycles
OOO test counter: 0
Discarded buffer inserts: 46436035 hits: 16 hit %: 3.4456e-05
Filter prediction accuracy: -nan

stream: 
stream:times selected: 29241874
stream:pref_filled: 4602618
stream:pref_useful: 4481646
stream:pref_late: 6524
stream:misses: 473
stream:misses_by_poll: 0

CS: 
CS:times selected: 28394349
CS:pref_filled: 45908
CS:pref_useful: 45373
CS:pref_late: 888
CS:misses: 323086
CS:misses_by_poll: 32

CPLX: 
CPLX:times selected: 847391
CPLX:pref_filled: 38519
CPLX:pref_useful: 28268
CPLX:pref_late: 3
CPLX:misses: 3861
CPLX:misses_by_poll: 114

NL_L1: 
NL:times selected: 8020
NL:pref_filled: 30
NL:pref_useful: 30
NL:pref_late: 0
NL:misses: 2
NL:misses_by_poll: 0

total selections: 58491634
total_filled: 3804071
total_useful: 3697962
total_late: 7667
total_polluted: 146
total_misses_after_warmup: 213082
conflicts: 22
Degree Incremented Times: 824849
Degree Decremented Times: 0

L1 IP Table Write Accesses: 97216401
L1 IP Table Read Accesses: 97216379
L1 RST Write Accesses: 23393478
L1 RST Read Accesses: 46786956
L1 CSPT Write Accesses: 23393478
L1 CSPT Read Accesses: 25255953
L1 RR Filter Tag Write Accesses: 131977420
L1 RR Filter Tag Read Accesses: 6051314389
L1 IP Table Tag Write Accesses: 97225175
L1 IP Table Tag Read Accesses: 97225175
L1 RST Tag Write Accesses: 0
L1 RST Tag Read Accesses: 210535514
L1 RR Filter Write Accesses: 0
L1 RR Filter Read Accesses: 200027251
test: 577030

stream: 
stream:times selected: 28670854
stream:pref_filled: 4602618
stream:pref_useful: 4481646
stream:pref_late: 6524
stream:misses: 2681
stream:misses_by_poll: 0

CS: 
CS:times selected: 27540064
CS:pref_filled: 45908
CS:pref_useful: 45373
CS:pref_late: 888
CS:misses: 357730
CS:misses_by_poll: 305

CPLX: 
CPLX:times selected: 1130611
CPLX:pref_filled: 38519
CPLX:pref_useful: 28268
CPLX:pref_late: 3
CPLX:misses: 10544
CPLX:misses_by_poll: 123

NL_L1: 
NL:times selected: 9929
NL:pref_filled: 30
NL:pref_useful: 30
NL:pref_late: 0
NL:misses: 340
NL:misses_by_poll: 0

total selections: 57351458
total_filled: 3804071
total_useful: 3697962
total_late: 7667
total_polluted: 428
total_misses_after_warmup: 236017
conflicts: 5
Degree Incremented Times: 521671
Degree Decremented Times: 0

L1 IP Table Write Accesses: 65618660
L1 IP Table Read Accesses: 65618655
L1 RST Write Accesses: 23050931
L1 RST Read Accesses: 46101862
L1 CSPT Write Accesses: 23050931
L1 CSPT Read Accesses: 25594803
L1 RR Filter Tag Write Accesses: 126185098
L1 RR Filter Tag Read Accesses: 5879846972
L1 IP Table Tag Write Accesses: 65619807
L1 IP Table Tag Read Accesses: 65619807
L1 RST Tag Write Accesses: 0
L1 RST Tag Read Accesses: 207468694
L1 RR Filter Write Accesses: 0
L1 RR Filter Read Accesses: 196936145
test_pseudo: 568152

DRAM Statistics
 CHANNEL 0
 RQ ROW_BUFFER_HIT:    1881412  ROW_BUFFER_MISS:    1958824
 DBUS_CONGESTED:       7165
 WQ ROW_BUFFER_HIT:    1007496  ROW_BUFFER_MISS:    1922945  FULL:          0

 AVG_CONGESTED_CYCLE: 5
 All warmup complete: 2
Channel 0 Bank busy for read cycles: 0
Channel 0 Bank busy for write cycles: 0
Channel 0
Rank 0
0banks busy for read cycles: 2119580
0banks busy for write cycles: 10895
1banks busy for read cycles: 29888784
1banks busy for write cycles: 1716870
2banks busy for read cycles: 24945346
2banks busy for write cycles: 1560476
3banks busy for read cycles: 23107801
3banks busy for write cycles: 1724503
4banks busy for read cycles: 18560290
4banks busy for write cycles: 2075945
5banks busy for read cycles: 13201538
5banks busy for write cycles: 2800256
6banks busy for read cycles: 11859107
6banks busy for write cycles: 4478152
7banks busy for read cycles: 4746238
7banks busy for write cycles: 9852249
8banks busy for read cycles: 865187
8banks busy for write cycles: 42268178

CPU 0 Branch Prediction Accuracy: 99.9706% MPKI: 0.00733 Average ROB Occupancy at Mispredict: 44.3158
Branch types
NOT_BRANCH: 195007460 97.5037%
BRANCH_DIRECT_JUMP: 0 0%
BRANCH_INDIRECT: 0 0%
BRANCH_CONDITIONAL: 4992276 2.49614%
BRANCH_DIRECT_CALL: 0 0%
BRANCH_INDIRECT_CALL: 0 0%
BRANCH_RETURN: 0 0%
BRANCH_OTHER: 0 0%

DRAM PAGES: 1048576
Allocated PAGES: 70872
