
*** ChampSim Multicore Out-of-Order Simulator ***

Warmup Instructions: 50000000
Simulation Instructions: 200000000
Number of CPUs: 1
LLC sets: 2048
LLC ways: 16
L0D sets: 16
L0D ways: 2
ROB size: 352
LQ size: 128
SQ size: 72
Secure Berti: OFF
Berti: OFF
Berti Fill: OFF
On commit prefetching: ON
Hit-based filter: OFF
Time-guarding: ON
Free-slotting: ON
Leap-frogging: ON
Train prefetcher on L0D bypass: OFF
No translation penalty for prefetchers: OFF
Prefetch to L0D only: OFF
Prefetch to L1D only: OFF
Clean evictions: ON
Commit loads: ON
Commit write: ON
Fill commit loads to L2C, LLC: ON
DRAM IO FREQUENCY: 6400
ROB SIZE: 352
Off-chip DRAM Size: 4096 MB Channels: 1 Width: 64-bit Data Rate: 6400 MT/s
CPU 0 runs /home/sumon/secure_berti/GhostMinion/../../traces/spec/603.bwaves_s-891B.champsimtrace.xz
.xz
BTB has LRU replacement policy
ITLB has LRU replacement policy
DTLB has LRU replacement policy
STLB has LRU replacement policy
L1I has LRU replacement policy
L0D has LRU replacement policy
IP Table Entries: 1024
CSPT Entries: 128
RR_ENTRIES: 32
RST_ENTRIES: 8
IP Table Entries: 1024
CSPT Entries: 128
RR_ENTRIES: 32
RST_ENTRIES: 8
L1D has LRU replacement policy
L2C has LRU replacement policy
LLC has LRU replacement policy
Heartbeat CPU 0 instructions: 10000003 cycles: 2770575 heartbeat IPC: 3.60936 cumulative IPC: 3.60936 (Simulation time: 0 hr 0 min 35 sec) 
Heartbeat CPU 0 instructions: 20000003 cycles: 5541231 heartbeat IPC: 3.60925 cumulative IPC: 3.60931 (Simulation time: 0 hr 1 min 10 sec) 
Heartbeat CPU 0 instructions: 30000003 cycles: 8312034 heartbeat IPC: 3.60906 cumulative IPC: 3.60923 (Simulation time: 0 hr 1 min 46 sec) 
Heartbeat CPU 0 instructions: 40000000 cycles: 11082507 heartbeat IPC: 3.60949 cumulative IPC: 3.60929 (Simulation time: 0 hr 2 min 21 sec) 
Heartbeat CPU 0 instructions: 50000002 cycles: 14015417 heartbeat IPC: 3.40958 cumulative IPC: 3.5675 (Simulation time: 0 hr 2 min 50 sec) 

Warmup complete CPU 0 instructions: 50000002 cycles: 14015417 (Simulation time: 0 hr 2 min 50 sec) 

Heartbeat CPU 0 instructions: 60000002 cycles: 27802548 heartbeat IPC: 0.725314 cumulative IPC: 0.725314 (Simulation time: 0 hr 3 min 18 sec) 
Heartbeat CPU 0 instructions: 70000001 cycles: 41589640 heartbeat IPC: 0.725316 cumulative IPC: 0.725315 (Simulation time: 0 hr 3 min 47 sec) 
Heartbeat CPU 0 instructions: 80000000 cycles: 55376396 heartbeat IPC: 0.725334 cumulative IPC: 0.725321 (Simulation time: 0 hr 4 min 16 sec) 
Heartbeat CPU 0 instructions: 90000001 cycles: 69162327 heartbeat IPC: 0.725377 cumulative IPC: 0.725335 (Simulation time: 0 hr 4 min 46 sec) 
Heartbeat CPU 0 instructions: 100000000 cycles: 82948095 heartbeat IPC: 0.725386 cumulative IPC: 0.725345 (Simulation time: 0 hr 5 min 17 sec) 
Heartbeat CPU 0 instructions: 110000000 cycles: 96735415 heartbeat IPC: 0.725304 cumulative IPC: 0.725338 (Simulation time: 0 hr 6 min 12 sec) 
Heartbeat CPU 0 instructions: 120000001 cycles: 110522954 heartbeat IPC: 0.725293 cumulative IPC: 0.725332 (Simulation time: 0 hr 7 min 10 sec) 
Heartbeat CPU 0 instructions: 130000000 cycles: 124309660 heartbeat IPC: 0.725336 cumulative IPC: 0.725332 (Simulation time: 0 hr 8 min 8 sec) 
Heartbeat CPU 0 instructions: 140000001 cycles: 138098165 heartbeat IPC: 0.725242 cumulative IPC: 0.725322 (Simulation time: 0 hr 9 min 6 sec) 
Heartbeat CPU 0 instructions: 150000000 cycles: 151886649 heartbeat IPC: 0.725243 cumulative IPC: 0.725314 (Simulation time: 0 hr 10 min 4 sec) 
Heartbeat CPU 0 instructions: 160000000 cycles: 165674635 heartbeat IPC: 0.725269 cumulative IPC: 0.72531 (Simulation time: 0 hr 11 min 3 sec) 
Heartbeat CPU 0 instructions: 170000000 cycles: 179386547 heartbeat IPC: 0.729293 cumulative IPC: 0.725641 (Simulation time: 0 hr 12 min 3 sec) 
Heartbeat CPU 0 instructions: 180000001 cycles: 192944240 heartbeat IPC: 0.737589 cumulative IPC: 0.726546 (Simulation time: 0 hr 13 min 3 sec) 
Heartbeat CPU 0 instructions: 190000003 cycles: 206369145 heartbeat IPC: 0.744884 cumulative IPC: 0.727826 (Simulation time: 0 hr 14 min 14 sec) 
Heartbeat CPU 0 instructions: 200000002 cycles: 219660200 heartbeat IPC: 0.752386 cumulative IPC: 0.729413 (Simulation time: 0 hr 15 min 35 sec) 
Heartbeat CPU 0 instructions: 210000002 cycles: 232950600 heartbeat IPC: 0.752423 cumulative IPC: 0.73081 (Simulation time: 0 hr 16 min 55 sec) 
Heartbeat CPU 0 instructions: 220000000 cycles: 246241326 heartbeat IPC: 0.752404 cumulative IPC: 0.732046 (Simulation time: 0 hr 17 min 45 sec) 
Heartbeat CPU 0 instructions: 230000000 cycles: 259537800 heartbeat IPC: 0.752079 cumulative IPC: 0.733131 (Simulation time: 0 hr 18 min 33 sec) 
Heartbeat CPU 0 instructions: 240000000 cycles: 272852383 heartbeat IPC: 0.751056 cumulative IPC: 0.734053 (Simulation time: 0 hr 19 min 20 sec) 
Heartbeat CPU 0 instructions: 250000002 cycles: 286138242 heartbeat IPC: 0.75268 cumulative IPC: 0.734962 (Simulation time: 0 hr 20 min 6 sec) 
Finished CPU 0 instructions: 200000000 cycles: 272122825 cumulative IPC: 0.734962 (Simulation time: 0 hr 20 min 6 sec) 
 Instruction ID: 250000099

ChampSim completed all CPUs

Region of Interest Statistics

CPU 0 cumulative IPC: 0.734962 instructions: 200000000 cycles: 272122825
ITLB SPEC fills:          0  NON-SPEC fills:          0
ITLB Test counter :          0
ITLB Leapfrog:          0
ITLB MSHR merge:          0
ITLB TOTAL     ACCESS:   33534844  HIT:   33534843  MISS:          1  HIT %:        100  MISS %: 2.98197e-06   MPKI: 5e-06
ITLB LOAD TRANSLATION NON_SPEC    ACCESS:   33534844  HIT:   33534843  MISS:          1  HIT %:        100  MISS %: 2.98197e-06   MPKI: 5e-06
ITLB PREFETCH  REQUESTED:          0  ISSUED:          0  USEFUL:          0  USELESS:          0
ITLB USEFUL LOAD PREFETCHES:          0 PREFETCH ISSUED TO LOWER LEVEL:          0  ACCURACY: -nan
ITLB TIMELY PREFETCHES:          0 LATE PREFETCHES: 0 DROPPED PREFETCHES: 0
ITLB COMMIT LATE PREFETCHES: 0 NORMAL LATE: 0 MISSED OPPORTUNITY: 0 UNCOVERED: 0
ITLB PREFETCHES SAME FILL-ORIGIN LEVEL: 0 DIFFERENT FILL-ORIGIN LEVEL: 0
ITLB AVERAGE MISS LATENCY: 964 cycles
ITLB AVERAGE MISS LATENCY LOAD: -nan cycles
ITLB AVERAGE MISS LATENCY PREFETCH: -nan cycles
ITLB AVERAGE MSHR OCCUPANCY: 2.98197e-08
ITLB MSHR FULL: 0
ITLB RQ	ACCESS:   34918338	FORWARD:          0	MERGED:    1383493	TO_CACHE:   33534845

DTLB SPEC fills:          0  NON-SPEC fills:          0
DTLB Test counter :          0
DTLB Leapfrog:          0
DTLB MSHR merge:          0
DTLB TOTAL     ACCESS:   28412219  HIT:   28351565  MISS:      60654  HIT %:    99.7865  MISS %:   0.213479   MPKI: 0.30327
DTLB LOAD TRANSLATION NON_SPEC    ACCESS:   28412219  HIT:   28351565  MISS:      60654  HIT %:    99.7865  MISS %:   0.213479   MPKI: 0.30327
DTLB PREFETCH  REQUESTED:          0  ISSUED:          0  USEFUL:          0  USELESS:          0
DTLB USEFUL LOAD PREFETCHES:          0 PREFETCH ISSUED TO LOWER LEVEL:          0  ACCURACY: -nan
DTLB TIMELY PREFETCHES:          0 LATE PREFETCHES: 0 DROPPED PREFETCHES: 0
DTLB COMMIT LATE PREFETCHES: 0 NORMAL LATE: 0 MISSED OPPORTUNITY: 0 UNCOVERED: 0
DTLB PREFETCHES SAME FILL-ORIGIN LEVEL: 0 DIFFERENT FILL-ORIGIN LEVEL: 0
DTLB AVERAGE MISS LATENCY: 162.659 cycles
DTLB AVERAGE MISS LATENCY LOAD: -nan cycles
DTLB AVERAGE MISS LATENCY PREFETCH: -nan cycles
DTLB AVERAGE MSHR OCCUPANCY: 0.00360644
DTLB MSHR FULL: 0
DTLB RQ	ACCESS:   29548978	FORWARD:          0	MERGED:    1113750	TO_CACHE:   28435228

STLB SPEC fills:          0  NON-SPEC fills:          0
STLB Test counter :          0
STLB Leapfrog:          0
STLB MSHR merge:          0
STLB TOTAL     ACCESS:    3558972  HIT:    3498654  MISS:      60318  HIT %:    98.3052  MISS %:    1.69482   MPKI: 0.30159
STLB LOAD TRANSLATION NON_SPEC    ACCESS:      60655  HIT:        337  MISS:      60318  HIT %:   0.555601  MISS %:    99.4444   MPKI: 0.30159
STLB TRANSLATION FROM L1D PREFETCHER NON_SPEC    ACCESS:    3498317  HIT:    3498317  MISS:          0  HIT %:        100  MISS %:          0   MPKI: 0
STLB PREFETCH  REQUESTED:          0  ISSUED:          0  USEFUL:          0  USELESS:          0
STLB USEFUL LOAD PREFETCHES:          0 PREFETCH ISSUED TO LOWER LEVEL:          0  ACCURACY: -nan
STLB TIMELY PREFETCHES:          0 LATE PREFETCHES: 0 DROPPED PREFETCHES: 0
STLB COMMIT LATE PREFETCHES: 0 NORMAL LATE: 0 MISSED OPPORTUNITY: 0 UNCOVERED: 0
STLB PREFETCHES SAME FILL-ORIGIN LEVEL: 0 DIFFERENT FILL-ORIGIN LEVEL: 0
STLB AVERAGE MISS LATENCY: 154.531 cycles
STLB AVERAGE MISS LATENCY LOAD: -nan cycles
STLB AVERAGE MISS LATENCY PREFETCH: -nan cycles
STLB AVERAGE MSHR OCCUPANCY: 0.000249229
STLB MSHR FULL: 0
STLB RQ	ACCESS:    3862015	FORWARD:          0	MERGED:     303043	TO_CACHE:    3558972

STLB Hit, L1D data hit: 0
STLB Hit, L2C data hit: 0
STLB Hit, LLC data hit: 0
STLB Hit, LLC data miss: 0
STLB STLB hints to L2: 0
L0D SPEC fills:    7686407  NON-SPEC fills:          0
L0D TimeGuard Request with older TS:      35429 Restricted eviction:       4260 read:       8265
L0D Test counter :          0
L0D Leapfrog:          0
L0D MSHR merge:    2835396
L0D TOTAL     ACCESS:   23337761  HIT:    2922100  MISS:   20415661  HIT %:    12.5209  MISS %:    87.4791   MPKI: 102.078
L0D LOAD      TOTAL       ACCESS:   23337761  HIT:    2922100  MISS:   20415661  HIT %:    12.5209  MISS %:    87.4791   MPKI: 102.078
L0D LOAD      NON_SPEC    ACCESS:   12869295  HIT:     144173  MISS:   12725122  HIT %:    1.12029  MISS %:    98.8797   MPKI: 63.6256
L0D LOAD      SPEC        ACCESS:   10468466  HIT:    2777927  MISS:    7690539  HIT %:    26.5361  MISS %:    73.4639   MPKI: 38.4527
L0D PREFETCH  REQUESTED:          0  ISSUED:          0  USEFUL:          0  USELESS:          0
L0D USEFUL LOAD PREFETCHES:          0 PREFETCH ISSUED TO LOWER LEVEL:          0  ACCURACY: -nan
L0D TIMELY PREFETCHES:          0 LATE PREFETCHES: 0 DROPPED PREFETCHES: 0
L0D COMMIT LATE PREFETCHES: 0 NORMAL LATE: 0 MISSED OPPORTUNITY: 0 UNCOVERED: 0
L0D PREFETCHES SAME FILL-ORIGIN LEVEL: 0 DIFFERENT FILL-ORIGIN LEVEL: 0
L0D AVERAGE MISS LATENCY: 10.3365 cycles
L0D AVERAGE MISS LATENCY LOAD: 10.3365 cycles
L0D AVERAGE MISS LATENCY PREFETCH: -nan cycles
L0D AVERAGE MSHR OCCUPANCY: 0.413308
L0D MSHR FULL: 0
L0D RQ	ACCESS:   35804815	FORWARD:          0	MERGED:    9631659	TO_CACHE:   26173156
L0D WQ	ACCESS:    3375822	FORWARD:          0	MERGED:          0	TO_CACHE:    3375822

L1D SPEC fills:          0  NON-SPEC fills:     192804
L1D Test counter :          0
L1D Leapfrog:          0
L1D MSHR merge:     578483
L1D TOTAL     ACCESS:   43422331  HIT:   38974570  MISS:    4447761  HIT %:     89.757  MISS %:     10.243   MPKI: 22.2388
L1D LOAD      TOTAL       ACCESS:   20415515  HIT:   19668961  MISS:     746554  HIT %:    96.3432  MISS %:     3.6568   MPKI: 3.73277
L1D LOAD      NON_SPEC    ACCESS:   12724977  HIT:   12532173  MISS:     192804  HIT %:    98.4848  MISS %:    1.51516   MPKI: 0.96402
L1D LOAD      SPEC        ACCESS:    7690538  HIT:    7136788  MISS:     553750  HIT %:    92.7996  MISS %:    7.20041   MPKI: 2.76875
L1D RFO       NON_SPEC    ACCESS:    3375823  HIT:    3375821  MISS:          2  HIT %:    99.9999  MISS %: 5.92448e-05   MPKI: 1e-05
L1D PREFETCH  NON_SPEC    ACCESS:    3197371  HIT:       1458  MISS:    3195913  HIT %:     0.0456  MISS %:    99.9544   MPKI: 15.9796
L1D COMMIT LOAD NON_SPEC    ACCESS:    8769706  HIT:    8769368  MISS:        338  HIT %:    99.9961  MISS %: 0.00385418   MPKI: 0.00169
L1D COMMIT WRITE NON_SPEC    ACCESS:    7663916  HIT:    7158962  MISS:     504954  HIT %:    93.4113  MISS %:    6.58872   MPKI: 2.52477
L1D PREFETCH  REQUESTED:    3801360  ISSUED:    3801360  USEFUL:    3164798  USELESS:      31117
L1D USEFUL LOAD PREFETCHES:    3164798 PREFETCH ISSUED TO LOWER LEVEL:    3774259  ACCURACY: 83.8522
L1D TIMELY PREFETCHES:    3164798 LATE PREFETCHES: 578337 DROPPED PREFETCHES: 0
L1D COMMIT LATE PREFETCHES: 58751 NORMAL LATE: 575834 MISSED OPPORTUNITY: 613 UNCOVERED: 111433
L1D PREFETCHES SAME FILL-ORIGIN LEVEL: 3774259 DIFFERENT FILL-ORIGIN LEVEL: 0
L1D AVERAGE MISS LATENCY: 205.421 cycles
L1D AVERAGE MISS LATENCY LOAD: 147.978 cycles
L1D AVERAGE MISS LATENCY PREFETCH: 251.316 cycles
L1D AVERAGE MSHR OCCUPANCY: 3.74697
L1D MSHR FULL: 0
L1D RQ	ACCESS:   35686918	FORWARD:          0	MERGED:    6501324	TO_CACHE:   29185594
L1D WQ	ACCESS:   11039739	FORWARD:          0	MERGED:          0	TO_CACHE:   11039739
L1D PQ	ACCESS:    3801360	FORWARD:          0	MERGED:          0	TO_CACHE:    3801360

L1D UNIQUE REGIONS ACCESSED: 0
L1D REGIONS CONFLICTS: 0
L1D Cross Page Prefetch Requests: 0
L1D Same Page Prefetch Requests: 5131919
L1D ROI Sum of L1D PQ occupancy: 54056791
L1D PREFETCHES PUSHED FROM L2C: 0
L1I SPEC fills:          0  NON-SPEC fills:          0
L1I Test counter :          0
L1I Leapfrog:          0
L1I MSHR merge:          1
L1I TOTAL     ACCESS:   34918335  HIT:   34918328  MISS:          7  HIT %:        100  MISS %: 2.00468e-05   MPKI: 3.5e-05
L1I LOAD      TOTAL       ACCESS:   34918335  HIT:   34918328  MISS:          7  HIT %:        100  MISS %: 2.00468e-05   MPKI: 3.5e-05
L1I LOAD      NON_SPEC    ACCESS:   34918335  HIT:   34918328  MISS:          7  HIT %:        100  MISS %: 2.00468e-05   MPKI: 3.5e-05
L1I PREFETCH  REQUESTED:          0  ISSUED:          0  USEFUL:          0  USELESS:          0
L1I USEFUL LOAD PREFETCHES:          0 PREFETCH ISSUED TO LOWER LEVEL:          0  ACCURACY: -nan
L1I TIMELY PREFETCHES:          0 LATE PREFETCHES: 0 DROPPED PREFETCHES: 0
L1I COMMIT LATE PREFETCHES: 0 NORMAL LATE: 0 MISSED OPPORTUNITY: 0 UNCOVERED: 0
L1I PREFETCHES SAME FILL-ORIGIN LEVEL: 0 DIFFERENT FILL-ORIGIN LEVEL: 0
L1I AVERAGE MISS LATENCY: 214.429 cycles
L1I AVERAGE MISS LATENCY LOAD: 214.429 cycles
L1I AVERAGE MISS LATENCY PREFETCH: -nan cycles
L1I AVERAGE MSHR OCCUPANCY: 1.43191e-07
L1I MSHR FULL: 0
L1I RQ	ACCESS:   43926287	FORWARD:          0	MERGED:    9007949	TO_CACHE:   34918338

BTB SPEC fills:          0  NON-SPEC fills:          0
BTB Test counter :          0
BTB Leapfrog:          0
BTB MSHR merge:          0
BTB TOTAL     ACCESS:   30088195  HIT:   30088184  MISS:         11  HIT %:        100  MISS %: 3.65592e-05   MPKI: 5.5e-05
BTB BRANCH_DIRECT_JUMP	ACCESS:    1387294  HIT:    1387292  MISS:          2
BTB BRANCH_INDIRECT	ACCESS:          0  HIT:          0  MISS:          0
BTB BRANCH_CONDITIONAL	ACCESS:   28700901  HIT:   28700892  MISS:          9
BTB BRANCH_DIRECT_CALL	ACCESS:          0  HIT:          0  MISS:          0
BTB BRANCH_INDIRECT_CALL	ACCESS:          0  HIT:          0  MISS:          0
BTB BRANCH_RETURN	ACCESS:          0  HIT:          0  MISS:          0
BTB BRANCH_OTHER ACCESS:          0  HIT:          0  MISS:          0

L2C SPEC fills:          0  NON-SPEC fills:      39661
L2C Test counter :          0
L2C Leapfrog:          0
L2C MSHR merge:          0
L2C TOTAL     ACCESS:    6620008  HIT:    2663084  MISS:    3956924  HIT %:    40.2278  MISS %:    59.7722   MPKI: 19.7846
L2C LOAD      TOTAL       ACCESS:     168224  HIT:      40248  MISS:     127976  HIT %:    23.9252  MISS %:    76.0748   MPKI: 0.63988
L2C LOAD      NON_SPEC    ACCESS:      40543  HIT:        875  MISS:      39668  HIT %:     2.1582  MISS %:    97.8418   MPKI: 0.19834
L2C LOAD      SPEC        ACCESS:     127681  HIT:      39373  MISS:      88308  HIT %:     30.837  MISS %:     69.163   MPKI: 0.44154
L2C RFO       NON_SPEC    ACCESS:          2  HIT:          0  MISS:          2  HIT %:          0  MISS %:        100   MPKI: 1e-05
L2C PREFETCH  NON_SPEC    ACCESS:    3774250  HIT:          0  MISS:    3774250  HIT %:          0  MISS %:        100   MPKI: 18.8712
L2C WRITEBACK NON_SPEC    ACCESS:          3  HIT:          1  MISS:          2  HIT %:    33.3333  MISS %:    66.6667   MPKI: 1e-05
L2C CLEAN_EVICTION NON_SPEC    ACCESS:    2375682  HIT:    2328551  MISS:      47131  HIT %:    98.0161  MISS %:    1.98389   MPKI: 0.235655
L2C COMMIT LOAD NON_SPEC    ACCESS:        338  HIT:        338  MISS:          0  HIT %:        100  MISS %:          0   MPKI: 0
L2C LOAD TRANSLATION NON_SPEC    ACCESS:     301509  HIT:     293946  MISS:       7563  HIT %:    97.4916  MISS %:    2.50838   MPKI: 0.037815
L2C PREFETCH  REQUESTED:          0  ISSUED:          0  USEFUL:      40468  USELESS:    3734002
L2C USEFUL LOAD PREFETCHES:      40468 PREFETCH ISSUED TO LOWER LEVEL:    3774257  ACCURACY: 1.07221
L2C TIMELY PREFETCHES:      40468 LATE PREFETCHES: 0 DROPPED PREFETCHES: 0
L2C COMMIT LATE PREFETCHES: 0 NORMAL LATE: 0 MISSED OPPORTUNITY: 0 UNCOVERED: 127976
L2C PREFETCHES SAME FILL-ORIGIN LEVEL: 0 DIFFERENT FILL-ORIGIN LEVEL: 0
L2C AVERAGE MISS LATENCY: 257.965 cycles
L2C AVERAGE MISS LATENCY LOAD: 185.762 cycles
L2C AVERAGE MISS LATENCY PREFETCH: 263.715 cycles
L2C AVERAGE MSHR OCCUPANCY: 1.61683
L2C MSHR FULL: 0
L2C RQ	ACCESS:     470073	FORWARD:          0	MERGED:          0	TO_CACHE:     470073
L2C WQ	ACCESS:    2375685	FORWARD:          0	MERGED:          0	TO_CACHE:    2375685
L2C PQ	ACCESS:    3774259	FORWARD:          0	MERGED:          0	TO_CACHE:    3774259

L2C Instructions Evicting Data 7
L2C Translations Evicting Data 7563
L2C Data Evicting Data 3806454
L2C Instructions Evicting Instructions 0
L2C Translations Evicting Instructions 0
L2C Data Evicting Instructions 7
L2C Instructions Evicting Translations 0
L2C Translations Evicting Translations 0
L2C Data Evicting Translations 7452
L2C Dense regions hint from L2: 0
PSCL5 SPEC fills:          0  NON-SPEC fills:          0
PSCL5 Test counter :          0
PSCL5 Leapfrog:          0
PSCL5 MSHR merge:          0
PSCL5 TOTAL     ACCESS:          0  HIT:          0  MISS:          0  HIT %:       -nan  MISS %:       -nan   MPKI: 0
PSCL5 PREFETCH  REQUESTED:          0  ISSUED:          0  USEFUL:          0  USELESS:          0
PSCL5 USEFUL LOAD PREFETCHES:          0 PREFETCH ISSUED TO LOWER LEVEL:          0  ACCURACY: -nan
PSCL5 TIMELY PREFETCHES:          0 LATE PREFETCHES: 0 DROPPED PREFETCHES: 0
PSCL5 COMMIT LATE PREFETCHES: 0 NORMAL LATE: 0 MISSED OPPORTUNITY: 0 UNCOVERED: 0
PSCL5 PREFETCHES SAME FILL-ORIGIN LEVEL: 0 DIFFERENT FILL-ORIGIN LEVEL: 0

PSCL4 SPEC fills:          0  NON-SPEC fills:          0
PSCL4 Test counter :          0
PSCL4 Leapfrog:          0
PSCL4 MSHR merge:          0
PSCL4 TOTAL     ACCESS:          0  HIT:          0  MISS:          0  HIT %:       -nan  MISS %:       -nan   MPKI: 0
PSCL4 PREFETCH  REQUESTED:          0  ISSUED:          0  USEFUL:          0  USELESS:          0
PSCL4 USEFUL LOAD PREFETCHES:          0 PREFETCH ISSUED TO LOWER LEVEL:          0  ACCURACY: -nan
PSCL4 TIMELY PREFETCHES:          0 LATE PREFETCHES: 0 DROPPED PREFETCHES: 0
PSCL4 COMMIT LATE PREFETCHES: 0 NORMAL LATE: 0 MISSED OPPORTUNITY: 0 UNCOVERED: 0
PSCL4 PREFETCHES SAME FILL-ORIGIN LEVEL: 0 DIFFERENT FILL-ORIGIN LEVEL: 0

PSCL3 SPEC fills:          0  NON-SPEC fills:          0
PSCL3 Test counter :          0
PSCL3 Leapfrog:          0
PSCL3 MSHR merge:          0
PSCL3 TOTAL     ACCESS:          0  HIT:          0  MISS:          0  HIT %:       -nan  MISS %:       -nan   MPKI: 0
PSCL3 PREFETCH  REQUESTED:          0  ISSUED:          0  USEFUL:          0  USELESS:          0
PSCL3 USEFUL LOAD PREFETCHES:          0 PREFETCH ISSUED TO LOWER LEVEL:          0  ACCURACY: -nan
PSCL3 TIMELY PREFETCHES:          0 LATE PREFETCHES: 0 DROPPED PREFETCHES: 0
PSCL3 COMMIT LATE PREFETCHES: 0 NORMAL LATE: 0 MISSED OPPORTUNITY: 0 UNCOVERED: 0
PSCL3 PREFETCHES SAME FILL-ORIGIN LEVEL: 0 DIFFERENT FILL-ORIGIN LEVEL: 0

PSCL2 SPEC fills:          0  NON-SPEC fills:          0
PSCL2 Test counter :          0
PSCL2 Leapfrog:          0
PSCL2 MSHR merge:          0
PSCL2 TOTAL     ACCESS:          0  HIT:          0  MISS:          0  HIT %:       -nan  MISS %:       -nan   MPKI: 0
PSCL2 PREFETCH  REQUESTED:          0  ISSUED:          0  USEFUL:          0  USELESS:          0
PSCL2 USEFUL LOAD PREFETCHES:          0 PREFETCH ISSUED TO LOWER LEVEL:          0  ACCURACY: -nan
PSCL2 TIMELY PREFETCHES:          0 LATE PREFETCHES: 0 DROPPED PREFETCHES: 0
PSCL2 COMMIT LATE PREFETCHES: 0 NORMAL LATE: 0 MISSED OPPORTUNITY: 0 UNCOVERED: 0
PSCL2 PREFETCHES SAME FILL-ORIGIN LEVEL: 0 DIFFERENT FILL-ORIGIN LEVEL: 0

LLC SPEC fills:          0  NON-SPEC fills:      39506
LLC Test counter :          0
LLC Leapfrog:          0
LLC MSHR merge:          0
LLC TOTAL     ACCESS:    6286039  HIT:    2330539  MISS:    3955500  HIT %:    37.0748  MISS %:    62.9252   MPKI: 19.7775
LLC LOAD      TOTAL       ACCESS:     127976  HIT:        809  MISS:     127167  HIT %:    0.63215  MISS %:    99.3679   MPKI: 0.635835
LLC LOAD      NON_SPEC    ACCESS:      39668  HIT:        155  MISS:      39513  HIT %:   0.390743  MISS %:    99.6093   MPKI: 0.197565
LLC LOAD      SPEC        ACCESS:      88308  HIT:        654  MISS:      87654  HIT %:    0.74059  MISS %:    99.2594   MPKI: 0.43827
LLC RFO       NON_SPEC    ACCESS:          2  HIT:          0  MISS:          2  HIT %:          0  MISS %:        100   MPKI: 1e-05
LLC PREFETCH  NON_SPEC    ACCESS:    3774250  HIT:          0  MISS:    3774250  HIT %:          0  MISS %:        100   MPKI: 18.8712
LLC WRITEBACK NON_SPEC    ACCESS:          3  HIT:          1  MISS:          2  HIT %:    33.3333  MISS %:    66.6667   MPKI: 1e-05
LLC CLEAN_EVICTION NON_SPEC    ACCESS:    2376245  HIT:    2329729  MISS:      46516  HIT %:    98.0425  MISS %:    1.95754   MPKI: 0.23258
LLC LOAD TRANSLATION NON_SPEC    ACCESS:       7563  HIT:          0  MISS:       7563  HIT %:          0  MISS %:        100   MPKI: 0.037815
LLC PREFETCH  REQUESTED:          0  ISSUED:          0  USEFUL:          0  USELESS:    3774401
LLC USEFUL LOAD PREFETCHES:          0 PREFETCH ISSUED TO LOWER LEVEL:    3774257  ACCURACY: 0
LLC TIMELY PREFETCHES:          0 LATE PREFETCHES: 0 DROPPED PREFETCHES: 0
LLC COMMIT LATE PREFETCHES: 0 NORMAL LATE: 0 MISSED OPPORTUNITY: 0 UNCOVERED: 0
LLC PREFETCHES SAME FILL-ORIGIN LEVEL: 0 DIFFERENT FILL-ORIGIN LEVEL: 0
LLC AVERAGE MISS LATENCY: 228.578 cycles
LLC AVERAGE MISS LATENCY LOAD: 163.002 cycles
LLC AVERAGE MISS LATENCY PREFETCH: 233.686 cycles
LLC AVERAGE MSHR OCCUPANCY: 1.65019
LLC MSHR FULL: 0
LLC RQ	ACCESS:     135541	FORWARD:          0	MERGED:          0	TO_CACHE:     135541
LLC WQ	ACCESS:    2376248	FORWARD:          0	MERGED:          0	TO_CACHE:    2376248
LLC PQ	ACCESS:    3774257	FORWARD:          0	MERGED:          0	TO_CACHE:    3774257

LLC Dense regions hint to LLC: 0

RAW hits: 1
Loads Generated: 35804820
Loads sent to L1D: 35804815
Stores Generated: 3375822
Stores sent to L1D: 3375822
Major fault: 0 Minor fault: 62153
Allocated PAGES: 62153
Total Load insts: 43892566
Total Non-spec loads: 13229873
Percentage of speculative loads: 69.8585

LeapFrogging counter: 0
Commit hits: 7663916 miss: 15271258
Commit hit %: 33.4156 miss %: 66.5844
Commits not translated: 0
Loads retired: 746554
Stores retired: 3375822
Cache fills: 746554
L1D response latency: 147.978 cycles
Load retirement latency: 193.295 cycles
OOO test counter: 0
Discarded buffer inserts: 7663916 hits: 42026 hit %: 0.548362
Filter prediction accuracy: -nan

stream: 
stream:times selected: 7464864
stream:pref_filled: 4433229
stream:pref_useful: 4403899
stream:pref_late: 150984
stream:misses: 1
stream:misses_by_poll: 0

CS: 
CS:times selected: 7464836
CS:pref_filled: 9562
CS:pref_useful: 7748
CS:pref_late: 270
CS:misses: 1217940
CS:misses_by_poll: 802

CPLX: 
CPLX:times selected: 6
CPLX:pref_filled: 0
CPLX:pref_useful: 0
CPLX:pref_late: 0
CPLX:misses: 13
CPLX:misses_by_poll: 0

NL_L1: 
NL:times selected: 1
NL:pref_filled: 0
NL:pref_useful: 0
NL:pref_late: 0
NL:misses: 0
NL:misses_by_poll: 0

total selections: 14929707
total_filled: 3195913
total_useful: 3164798
total_late: 152268
total_polluted: 802
total_misses_after_warmup: 1187933
conflicts: 19
Degree Incremented Times: 279238
Degree Decremented Times: 0

L1 IP Table Write Accesses: 39180629
L1 IP Table Read Accesses: 39180610
L1 RST Write Accesses: 3860207
L1 RST Read Accesses: 7720414
L1 CSPT Write Accesses: 3860207
L1 CSPT Read Accesses: 3860219
L1 RR Filter Tag Write Accesses: 3801360
L1 RR Filter Tag Read Accesses: 935805509
L1 IP Table Tag Write Accesses: 39180631
L1 IP Table Tag Read Accesses: 39180631
L1 RST Tag Write Accesses: 0
L1 RST Tag Read Accesses: 34741648
L1 RR Filter Write Accesses: 0
L1 RR Filter Read Accesses: 33083070
test: 115752

stream: 
stream:times selected: 5959052
stream:pref_filled: 4433229
stream:pref_useful: 4403899
stream:pref_late: 150984
stream:misses: 589
stream:misses_by_poll: 0

CS: 
CS:times selected: 5650650
CS:pref_filled: 9562
CS:pref_useful: 7748
CS:pref_late: 270
CS:misses: 766157
CS:misses_by_poll: 107

CPLX: 
CPLX:times selected: 308310
CPLX:pref_filled: 0
CPLX:pref_useful: 0
CPLX:pref_late: 0
CPLX:misses: 13110
CPLX:misses_by_poll: 0

NL_L1: 
NL:times selected: 18
NL:pref_filled: 0
NL:pref_useful: 0
NL:pref_late: 0
NL:misses: 4
NL:misses_by_poll: 0

total selections: 11918030
total_filled: 3195913
total_useful: 3164798
total_late: 152268
total_polluted: 107
total_misses_after_warmup: 746700
conflicts: 15
Degree Incremented Times: 134893
Degree Decremented Times: 0

L1 IP Table Write Accesses: 20415660
L1 IP Table Read Accesses: 20415645
L1 RST Write Accesses: 3918465
L1 RST Read Accesses: 7836930
L1 CSPT Write Accesses: 3918465
L1 CSPT Read Accesses: 4036146
L1 RR Filter Tag Write Accesses: 3802337
L1 RR Filter Tag Read Accesses: 947847771
L1 IP Table Tag Write Accesses: 20415661
L1 IP Table Tag Read Accesses: 20415661
L1 RST Tag Write Accesses: 0
L1 RST Tag Read Accesses: 35273766
L1 RR Filter Write Accesses: 0
L1 RR Filter Read Accesses: 33581401
test_pseudo: 97688

DRAM Statistics
 CHANNEL 0
 RQ ROW_BUFFER_HIT:     290505  ROW_BUFFER_MISS:    3618477
 DBUS_CONGESTED:       1372
 WQ ROW_BUFFER_HIT:     682159  ROW_BUFFER_MISS:    1695242  FULL:          0

 AVG_CONGESTED_CYCLE: 5
 All warmup complete: 2
Channel 0 Bank busy for read cycles: 0
Channel 0 Bank busy for write cycles: 0
Channel 0
Rank 0
0banks busy for read cycles: 1153712
0banks busy for write cycles: 11082
1banks busy for read cycles: 58955632
1banks busy for write cycles: 1650906
2banks busy for read cycles: 96824902
2banks busy for write cycles: 1809142
3banks busy for read cycles: 7669408
3banks busy for write cycles: 1864619
4banks busy for read cycles: 6522727
4banks busy for write cycles: 1951092
5banks busy for read cycles: 10226122
5banks busy for write cycles: 2203756
6banks busy for read cycles: 16966209
6banks busy for write cycles: 3076515
7banks busy for read cycles: 17182469
7banks busy for write cycles: 6529645
8banks busy for read cycles: 303637
8banks busy for write cycles: 37221251

CPU 0 Branch Prediction Accuracy: 99.8669% MPKI: 0.223155 Average ROB Occupancy at Mispredict: 76.4753
Branch types
NOT_BRANCH: 166478388 83.2392%
BRANCH_DIRECT_JUMP: 1387294 0.693647%
BRANCH_INDIRECT: 0 0%
BRANCH_CONDITIONAL: 32134351 16.0672%
BRANCH_DIRECT_CALL: 0 0%
BRANCH_INDIRECT_CALL: 0 0%
BRANCH_RETURN: 0 0%
BRANCH_OTHER: 0 0%

DRAM PAGES: 1048576
Allocated PAGES: 62153
