
*** ChampSim Multicore Out-of-Order Simulator ***

Warmup Instructions: 50000000
Simulation Instructions: 200000000
Number of CPUs: 1
LLC sets: 2048
LLC ways: 16
L0D sets: 16
L0D ways: 2
ROB size: 352
LQ size: 128
SQ size: 72
Secure Berti: OFF
Berti: OFF
Berti Fill: OFF
On commit prefetching: ON
Hit-based filter: OFF
Time-guarding: ON
Free-slotting: ON
Leap-frogging: ON
Train prefetcher on L0D bypass: OFF
No translation penalty for prefetchers: OFF
Prefetch to L0D only: OFF
Prefetch to L1D only: OFF
Clean evictions: ON
Commit loads: ON
Commit write: ON
Fill commit loads to L2C, LLC: ON
DRAM IO FREQUENCY: 6400
ROB SIZE: 352
Off-chip DRAM Size: 4096 MB Channels: 1 Width: 64-bit Data Rate: 6400 MT/s
CPU 0 runs /home/sumon/secure_berti/GhostMinion/../../traces/spec/605.mcf_s-1554B.champsimtrace.xz
.xz
BTB has LRU replacement policy
ITLB has LRU replacement policy
DTLB has LRU replacement policy
STLB has LRU replacement policy
L1I has LRU replacement policy
L0D has LRU replacement policy
IP Table Entries: 1024
CSPT Entries: 128
RR_ENTRIES: 32
RST_ENTRIES: 8
IP Table Entries: 1024
CSPT Entries: 128
RR_ENTRIES: 32
RST_ENTRIES: 8
L1D has LRU replacement policy
L2C has LRU replacement policy
LLC has LRU replacement policy
Heartbeat CPU 0 instructions: 10000001 cycles: 4264817 heartbeat IPC: 2.34477 cumulative IPC: 2.34477 (Simulation time: 0 hr 1 min 22 sec) 
Heartbeat CPU 0 instructions: 20000001 cycles: 8545615 heartbeat IPC: 2.33601 cumulative IPC: 2.34038 (Simulation time: 0 hr 2 min 45 sec) 
Heartbeat CPU 0 instructions: 30000003 cycles: 12843468 heartbeat IPC: 2.32674 cumulative IPC: 2.33582 (Simulation time: 0 hr 4 min 15 sec) 
Heartbeat CPU 0 instructions: 40000000 cycles: 17125766 heartbeat IPC: 2.33519 cumulative IPC: 2.33566 (Simulation time: 0 hr 6 min 13 sec) 
Heartbeat CPU 0 instructions: 50000001 cycles: 21407576 heartbeat IPC: 2.33546 cumulative IPC: 2.33562 (Simulation time: 0 hr 9 min 16 sec) 

Warmup complete CPU 0 instructions: 50000001 cycles: 21407576 (Simulation time: 0 hr 9 min 16 sec) 

Heartbeat CPU 0 instructions: 60000000 cycles: 104127669 heartbeat IPC: 0.12089 cumulative IPC: 0.12089 (Simulation time: 0 hr 13 min 36 sec) 
Heartbeat CPU 0 instructions: 70000002 cycles: 185602504 heartbeat IPC: 0.122737 cumulative IPC: 0.121806 (Simulation time: 0 hr 17 min 50 sec) 
Heartbeat CPU 0 instructions: 80000000 cycles: 267283435 heartbeat IPC: 0.122428 cumulative IPC: 0.122013 (Simulation time: 0 hr 21 min 0 sec) 
Heartbeat CPU 0 instructions: 90000003 cycles: 349472365 heartbeat IPC: 0.121671 cumulative IPC: 0.121927 (Simulation time: 0 hr 23 min 24 sec) 
Heartbeat CPU 0 instructions: 100000001 cycles: 431554405 heartbeat IPC: 0.121829 cumulative IPC: 0.121908 (Simulation time: 0 hr 25 min 45 sec) 
Heartbeat CPU 0 instructions: 110000000 cycles: 514132319 heartbeat IPC: 0.121098 cumulative IPC: 0.121772 (Simulation time: 0 hr 28 min 0 sec) 
Heartbeat CPU 0 instructions: 120000001 cycles: 598566947 heartbeat IPC: 0.118435 cumulative IPC: 0.121284 (Simulation time: 0 hr 30 min 4 sec) 
Heartbeat CPU 0 instructions: 130000000 cycles: 681285289 heartbeat IPC: 0.120892 cumulative IPC: 0.121235 (Simulation time: 0 hr 31 min 56 sec) 
Heartbeat CPU 0 instructions: 140000000 cycles: 765277098 heartbeat IPC: 0.119059 cumulative IPC: 0.120989 (Simulation time: 0 hr 33 min 46 sec) 
Heartbeat CPU 0 instructions: 150000000 cycles: 849210579 heartbeat IPC: 0.119142 cumulative IPC: 0.120802 (Simulation time: 0 hr 35 min 36 sec) 
Heartbeat CPU 0 instructions: 160000000 cycles: 934606413 heartbeat IPC: 0.117102 cumulative IPC: 0.120456 (Simulation time: 0 hr 37 min 30 sec) 
Heartbeat CPU 0 instructions: 170000003 cycles: 1020560847 heartbeat IPC: 0.116341 cumulative IPC: 0.120102 (Simulation time: 0 hr 39 min 22 sec) 
Heartbeat CPU 0 instructions: 180000001 cycles: 1106332251 heartbeat IPC: 0.116589 cumulative IPC: 0.119824 (Simulation time: 0 hr 41 min 13 sec) 
Heartbeat CPU 0 instructions: 190000000 cycles: 1191623886 heartbeat IPC: 0.117245 cumulative IPC: 0.119636 (Simulation time: 0 hr 43 min 4 sec) 
Heartbeat CPU 0 instructions: 200000003 cycles: 1278283525 heartbeat IPC: 0.115394 cumulative IPC: 0.119344 (Simulation time: 0 hr 44 min 55 sec) 
Heartbeat CPU 0 instructions: 210000001 cycles: 1361881541 heartbeat IPC: 0.11962 cumulative IPC: 0.119361 (Simulation time: 0 hr 46 min 41 sec) 
Heartbeat CPU 0 instructions: 220000000 cycles: 1444980401 heartbeat IPC: 0.120339 cumulative IPC: 0.119418 (Simulation time: 0 hr 48 min 27 sec) 
Heartbeat CPU 0 instructions: 230000003 cycles: 1531167433 heartbeat IPC: 0.116027 cumulative IPC: 0.119224 (Simulation time: 0 hr 50 min 18 sec) 
Heartbeat CPU 0 instructions: 240000001 cycles: 1613993547 heartbeat IPC: 0.120735 cumulative IPC: 0.119303 (Simulation time: 0 hr 52 min 3 sec) 
Heartbeat CPU 0 instructions: 250000001 cycles: 1697923842 heartbeat IPC: 0.119146 cumulative IPC: 0.119295 (Simulation time: 0 hr 53 min 50 sec) 
Finished CPU 0 instructions: 200000000 cycles: 1676516266 cumulative IPC: 0.119295 (Simulation time: 0 hr 53 min 50 sec) 
 Instruction ID: 250000363

ChampSim completed all CPUs

Region of Interest Statistics

CPU 0 cumulative IPC: 0.119295 instructions: 200000000 cycles: 1676516266
ITLB SPEC fills:          0  NON-SPEC fills:          0
ITLB Test counter :          0
ITLB Leapfrog:          0
ITLB MSHR merge:          0
ITLB TOTAL     ACCESS:   45158202  HIT:   45158202  MISS:          0  HIT %:        100  MISS %:          0   MPKI: 0
ITLB LOAD TRANSLATION NON_SPEC    ACCESS:   45158202  HIT:   45158202  MISS:          0  HIT %:        100  MISS %:          0   MPKI: 0
ITLB PREFETCH  REQUESTED:          0  ISSUED:          0  USEFUL:          0  USELESS:          0
ITLB USEFUL LOAD PREFETCHES:          0 PREFETCH ISSUED TO LOWER LEVEL:          0  ACCURACY: -nan
ITLB TIMELY PREFETCHES:          0 LATE PREFETCHES: 0 DROPPED PREFETCHES: 0
ITLB COMMIT LATE PREFETCHES: 0 NORMAL LATE: 0 MISSED OPPORTUNITY: 0 UNCOVERED: 0
ITLB PREFETCHES SAME FILL-ORIGIN LEVEL: 0 DIFFERENT FILL-ORIGIN LEVEL: 0
ITLB AVERAGE MISS LATENCY: -nan cycles
ITLB AVERAGE MISS LATENCY LOAD: -nan cycles
ITLB AVERAGE MISS LATENCY PREFETCH: -nan cycles
ITLB AVERAGE MSHR OCCUPANCY: 0
ITLB MSHR FULL: 0
ITLB RQ	ACCESS:   54172764	FORWARD:          0	MERGED:    9014561	TO_CACHE:   45158203

DTLB SPEC fills:          0  NON-SPEC fills:          0
DTLB Test counter :          0
DTLB Leapfrog:          0
DTLB MSHR merge:          0
DTLB TOTAL     ACCESS:   68409747  HIT:   67609136  MISS:     800611  HIT %:    98.8297  MISS %:    1.17032   MPKI: 4.00305
DTLB LOAD TRANSLATION NON_SPEC    ACCESS:   68409747  HIT:   67609136  MISS:     800611  HIT %:    98.8297  MISS %:    1.17032   MPKI: 4.00305
DTLB PREFETCH  REQUESTED:          0  ISSUED:          0  USEFUL:          0  USELESS:          0
DTLB USEFUL LOAD PREFETCHES:          0 PREFETCH ISSUED TO LOWER LEVEL:          0  ACCURACY: -nan
DTLB TIMELY PREFETCHES:          0 LATE PREFETCHES: 0 DROPPED PREFETCHES: 0
DTLB COMMIT LATE PREFETCHES: 0 NORMAL LATE: 0 MISSED OPPORTUNITY: 0 UNCOVERED: 0
DTLB PREFETCHES SAME FILL-ORIGIN LEVEL: 0 DIFFERENT FILL-ORIGIN LEVEL: 0
DTLB AVERAGE MISS LATENCY: 14.254 cycles
DTLB AVERAGE MISS LATENCY LOAD: -nan cycles
DTLB AVERAGE MISS LATENCY PREFETCH: -nan cycles
DTLB AVERAGE MSHR OCCUPANCY: 0.0157801
DTLB MSHR FULL: 0
DTLB RQ	ACCESS:   84452105	FORWARD:          0	MERGED:   16010416	TO_CACHE:   68441689

STLB SPEC fills:          0  NON-SPEC fills:          0
STLB Test counter :          0
STLB Leapfrog:          0
STLB MSHR merge:          0
STLB TOTAL     ACCESS:   23097290  HIT:   23084995  MISS:      12295  HIT %:    99.9468  MISS %:  0.0532314   MPKI: 0.061475
STLB LOAD TRANSLATION NON_SPEC    ACCESS:     800611  HIT:     788319  MISS:      12292  HIT %:    98.4647  MISS %:    1.53533   MPKI: 0.06146
STLB TRANSLATION FROM L1D PREFETCHER NON_SPEC    ACCESS:   22296679  HIT:   22296676  MISS:          3  HIT %:        100  MISS %: 1.34549e-05   MPKI: 1.5e-05
STLB PREFETCH  REQUESTED:          0  ISSUED:          0  USEFUL:          3  USELESS:          0
STLB USEFUL LOAD PREFETCHES:          3 PREFETCH ISSUED TO LOWER LEVEL:          0  ACCURACY: inf
STLB TIMELY PREFETCHES:          3 LATE PREFETCHES: 0 DROPPED PREFETCHES: 0
STLB COMMIT LATE PREFETCHES: 0 NORMAL LATE: 0 MISSED OPPORTUNITY: 0 UNCOVERED: 0
STLB PREFETCHES SAME FILL-ORIGIN LEVEL: 0 DIFFERENT FILL-ORIGIN LEVEL: 0
STLB AVERAGE MISS LATENCY: 340.641 cycles
STLB AVERAGE MISS LATENCY LOAD: -nan cycles
STLB AVERAGE MISS LATENCY PREFETCH: -nan cycles
STLB AVERAGE MSHR OCCUPANCY: 0.00138614
STLB MSHR FULL: 0
STLB RQ	ACCESS:   49066299	FORWARD:          0	MERGED:   25969008	TO_CACHE:   23097291

STLB Hit, L1D data hit: 0
STLB Hit, L2C data hit: 0
STLB Hit, LLC data hit: 0
STLB Hit, LLC data miss: 0
STLB STLB hints to L2: 0
L0D SPEC fills:   42205645  NON-SPEC fills:          0
L0D TimeGuard Request with older TS:    1540953 Restricted eviction:     428981 read:    1960757
L0D Test counter :          0
L0D Leapfrog:          0
L0D MSHR merge:    4517592
L0D TOTAL     ACCESS:   66415809  HIT:   14953065  MISS:   51462744  HIT %:    22.5143  MISS %:    77.4857   MPKI: 257.314
L0D LOAD      TOTAL       ACCESS:   66415809  HIT:   14953065  MISS:   51462744  HIT %:    22.5143  MISS %:    77.4857   MPKI: 257.314
L0D LOAD      NON_SPEC    ACCESS:    9614758  HIT:     786640  MISS:    8828118  HIT %:    8.18159  MISS %:    91.8184   MPKI: 44.1406
L0D LOAD      SPEC        ACCESS:   56801051  HIT:   14166425  MISS:   42634626  HIT %:    24.9404  MISS %:    75.0596   MPKI: 213.173
L0D PREFETCH  REQUESTED:          0  ISSUED:          0  USEFUL:          0  USELESS:          0
L0D USEFUL LOAD PREFETCHES:          0 PREFETCH ISSUED TO LOWER LEVEL:          0  ACCURACY: -nan
L0D TIMELY PREFETCHES:          0 LATE PREFETCHES: 0 DROPPED PREFETCHES: 0
L0D COMMIT LATE PREFETCHES: 0 NORMAL LATE: 0 MISSED OPPORTUNITY: 0 UNCOVERED: 0
L0D PREFETCHES SAME FILL-ORIGIN LEVEL: 0 DIFFERENT FILL-ORIGIN LEVEL: 0
L0D AVERAGE MISS LATENCY: 119.419 cycles
L0D AVERAGE MISS LATENCY LOAD: 119.419 cycles
L0D AVERAGE MISS LATENCY PREFETCH: -nan cycles
L0D AVERAGE MSHR OCCUPANCY: 4.06453
L0D MSHR FULL: 0.139161
L0D RQ	ACCESS:   83205947	FORWARD:          0	MERGED:   12272544	TO_CACHE:   70933403
L0D WQ	ACCESS:   13518702	FORWARD:          0	MERGED:          0	TO_CACHE:   13518702

L1D SPEC fills:          0  NON-SPEC fills:    1914786
L1D Test counter :          0
L1D Leapfrog:          0
L1D MSHR merge:   10515980
L1D TOTAL     ACCESS:  158970214  HIT:   88920000  MISS:   70050214  HIT %:     55.935  MISS %:     44.065   MPKI: 350.251
L1D LOAD      TOTAL       ACCESS:   51451313  HIT:   28408337  MISS:   23042976  HIT %:     55.214  MISS %:     44.786   MPKI: 115.215
L1D LOAD      NON_SPEC    ACCESS:    8823270  HIT:    6908484  MISS:    1914786  HIT %:    78.2985  MISS %:    21.7015   MPKI: 9.57393
L1D LOAD      SPEC        ACCESS:   42628043  HIT:   21499853  MISS:   21128190  HIT %:    50.4359  MISS %:    49.5641   MPKI: 105.641
L1D RFO       NON_SPEC    ACCESS:   11351160  HIT:   11313466  MISS:      37694  HIT %:    99.6679  MISS %:   0.332072   MPKI: 0.18847
L1D PREFETCH  NON_SPEC    ACCESS:   32074596  HIT:    4781886  MISS:   27292710  HIT %:    14.9086  MISS %:    85.0914   MPKI: 136.464
L1D COMMIT LOAD NON_SPEC    ACCESS:   23423962  HIT:   22640628  MISS:     783334  HIT %:    96.6558  MISS %:    3.34416   MPKI: 3.91667
L1D COMMIT WRITE NON_SPEC    ACCESS:   40669183  HIT:   21775683  MISS:   18893500  HIT %:    53.5434  MISS %:    46.4566   MPKI: 94.4675
L1D PREFETCH  REQUESTED:   48586809  ISSUED:   48265704  USEFUL:    8913524  USELESS:   18379247
L1D USEFUL LOAD PREFETCHES:    8913524 PREFETCH ISSUED TO LOWER LEVEL:   38000294  ACCURACY: 23.4565
L1D TIMELY PREFETCHES:    8913524 LATE PREFETCHES: 10692529 DROPPED PREFETCHES: 0
L1D COMMIT LATE PREFETCHES: 6676502 NORMAL LATE: 9826167 MISSED OPPORTUNITY: 420893 UNCOVERED: 6324286
L1D PREFETCHES SAME FILL-ORIGIN LEVEL: 38000294 DIFFERENT FILL-ORIGIN LEVEL: 0
L1D AVERAGE MISS LATENCY: 212.304 cycles
L1D AVERAGE MISS LATENCY LOAD: 252.599 cycles
L1D AVERAGE MISS LATENCY PREFETCH: 328.34 cycles
L1D AVERAGE MSHR OCCUPANCY: 12.0071
L1D MSHR FULL: 0.466925
L1D RQ	ACCESS:   84085555	FORWARD:          0	MERGED:    6325645	TO_CACHE:   74943184
L1D WQ	ACCESS:   54417052	FORWARD:    2816726	MERGED:    2306475	TO_CACHE:   52110577
L1D PQ	ACCESS:   48265704	FORWARD:          0	MERGED:         16	TO_CACHE:   48265688

L1D UNIQUE REGIONS ACCESSED: 0
L1D REGIONS CONFLICTS: 0
L1D Cross Page Prefetch Requests: 0
L1D Same Page Prefetch Requests: 60221656
L1D ROI Sum of L1D PQ occupancy: 1098507427
L1D PREFETCHES PUSHED FROM L2C: 0
L1I SPEC fills:          0  NON-SPEC fills:          0
L1I Test counter :          0
L1I Leapfrog:          0
L1I MSHR merge:          0
L1I TOTAL     ACCESS:   54172761  HIT:   54172761  MISS:          0  HIT %:        100  MISS %:          0   MPKI: 0
L1I LOAD      TOTAL       ACCESS:   54172761  HIT:   54172761  MISS:          0  HIT %:        100  MISS %:          0   MPKI: 0
L1I LOAD      NON_SPEC    ACCESS:   54172761  HIT:   54172761  MISS:          0  HIT %:        100  MISS %:          0   MPKI: 0
L1I PREFETCH  REQUESTED:          0  ISSUED:          0  USEFUL:          0  USELESS:          0
L1I USEFUL LOAD PREFETCHES:          0 PREFETCH ISSUED TO LOWER LEVEL:          0  ACCURACY: -nan
L1I TIMELY PREFETCHES:          0 LATE PREFETCHES: 0 DROPPED PREFETCHES: 0
L1I COMMIT LATE PREFETCHES: 0 NORMAL LATE: 0 MISSED OPPORTUNITY: 0 UNCOVERED: 0
L1I PREFETCHES SAME FILL-ORIGIN LEVEL: 0 DIFFERENT FILL-ORIGIN LEVEL: 0
L1I AVERAGE MISS LATENCY: -nan cycles
L1I AVERAGE MISS LATENCY LOAD: -nan cycles
L1I AVERAGE MISS LATENCY PREFETCH: -nan cycles
L1I AVERAGE MSHR OCCUPANCY: 0
L1I MSHR FULL: 0
L1I RQ	ACCESS:   76056845	FORWARD:          0	MERGED:   21884081	TO_CACHE:   54172764

BTB SPEC fills:          0  NON-SPEC fills:          0
BTB Test counter :          0
BTB Leapfrog:          0
BTB MSHR merge:          0
BTB TOTAL     ACCESS:   35943474  HIT:   35943442  MISS:         32  HIT %:    99.9999  MISS %: 8.90287e-05   MPKI: 0.00016
BTB BRANCH_DIRECT_JUMP	ACCESS:    8413978  HIT:    8413972  MISS:          6
BTB BRANCH_INDIRECT	ACCESS:          0  HIT:          0  MISS:          0
BTB BRANCH_CONDITIONAL	ACCESS:   27526340  HIT:   27526318  MISS:         22
BTB BRANCH_DIRECT_CALL	ACCESS:       1578  HIT:       1576  MISS:          2
BTB BRANCH_INDIRECT_CALL	ACCESS:          0  HIT:          0  MISS:          0
BTB BRANCH_RETURN	ACCESS:       1578  HIT:       1576  MISS:          2
BTB BRANCH_OTHER ACCESS:          0  HIT:          0  MISS:          0

L2C SPEC fills:          0  NON-SPEC fills:     496576
L2C Test counter :          0
L2C Leapfrog:          0
L2C MSHR merge:          0
L2C TOTAL     ACCESS:   77843875  HIT:   19735113  MISS:   58108762  HIT %:    25.3522  MISS %:    74.6478   MPKI: 290.544
L2C LOAD      TOTAL       ACCESS:   12538419  HIT:     396028  MISS:   12142391  HIT %:    3.15852  MISS %:    96.8415   MPKI: 60.712
L2C LOAD      NON_SPEC    ACCESS:     509174  HIT:      12598  MISS:     496576  HIT %:     2.4742  MISS %:    97.5258   MPKI: 2.48288
L2C LOAD      SPEC        ACCESS:   12029245  HIT:     383430  MISS:   11645815  HIT %:    3.18748  MISS %:    96.8125   MPKI: 58.2291
L2C RFO       NON_SPEC    ACCESS:      22647  HIT:       1741  MISS:      20906  HIT %:    7.68755  MISS %:    92.3124   MPKI: 0.10453
L2C PREFETCH  NON_SPEC    ACCESS:   38000249  HIT:     138097  MISS:   37862152  HIT %:   0.363411  MISS %:    99.6366   MPKI: 189.311
L2C WRITEBACK NON_SPEC    ACCESS:     463651  HIT:     462534  MISS:       1117  HIT %:    99.7591  MISS %:   0.240914   MPKI: 0.005585
L2C CLEAN_EVICTION NON_SPEC    ACCESS:   26162104  HIT:   18363769  MISS:    7798335  HIT %:    70.1922  MISS %:    29.8078   MPKI: 38.9917
L2C COMMIT LOAD NON_SPEC    ACCESS:     595355  HIT:     316970  MISS:     278385  HIT %:    53.2405  MISS %:    46.7595   MPKI: 1.39193
L2C LOAD TRANSLATION NON_SPEC    ACCESS:      61435  HIT:      55962  MISS:       5473  HIT %:    91.0914  MISS %:     8.9086   MPKI: 0.027365
L2C TRANSLATION FROM L1D PREFETCHER NON_SPEC    ACCESS:         15  HIT:         12  MISS:          3  HIT %:         80  MISS %:         20   MPKI: 1.5e-05
L2C PREFETCH  REQUESTED:          0  ISSUED:          0  USEFUL:     674875  USELESS:   37188055
L2C USEFUL LOAD PREFETCHES:     674875 PREFETCH ISSUED TO LOWER LEVEL:   37862158  ACCURACY: 1.78245
L2C TIMELY PREFETCHES:     674875 LATE PREFETCHES: 0 DROPPED PREFETCHES: 0
L2C COMMIT LATE PREFETCHES: 0 NORMAL LATE: 0 MISSED OPPORTUNITY: 0 UNCOVERED: 12142394
L2C PREFETCHES SAME FILL-ORIGIN LEVEL: 0 DIFFERENT FILL-ORIGIN LEVEL: 0
L2C AVERAGE MISS LATENCY: 268.654 cycles
L2C AVERAGE MISS LATENCY LOAD: 259.863 cycles
L2C AVERAGE MISS LATENCY PREFETCH: 326.8 cycles
L2C AVERAGE MSHR OCCUPANCY: 8.0027
L2C MSHR FULL: 0
L2C RQ	ACCESS:   13217883	FORWARD:          0	MERGED:          0	TO_CACHE:   13217874
L2C WQ	ACCESS:   26625765	FORWARD:         44	MERGED:          9	TO_CACHE:   26625756
L2C PQ	ACCESS:   38000294	FORWARD:          0	MERGED:          0	TO_CACHE:   38000259

L2C Instructions Evicting Data 0
L2C Translations Evicting Data 5476
L2C Data Evicting Data 38653294
L2C Instructions Evicting Instructions 0
L2C Translations Evicting Instructions 0
L2C Data Evicting Instructions 0
L2C Instructions Evicting Translations 0
L2C Translations Evicting Translations 0
L2C Data Evicting Translations 4725
L2C Dense regions hint from L2: 0
PSCL5 SPEC fills:          0  NON-SPEC fills:          0
PSCL5 Test counter :          0
PSCL5 Leapfrog:          0
PSCL5 MSHR merge:          0
PSCL5 TOTAL     ACCESS:          0  HIT:          0  MISS:          0  HIT %:       -nan  MISS %:       -nan   MPKI: 0
PSCL5 PREFETCH  REQUESTED:          0  ISSUED:          0  USEFUL:          0  USELESS:          0
PSCL5 USEFUL LOAD PREFETCHES:          0 PREFETCH ISSUED TO LOWER LEVEL:          0  ACCURACY: -nan
PSCL5 TIMELY PREFETCHES:          0 LATE PREFETCHES: 0 DROPPED PREFETCHES: 0
PSCL5 COMMIT LATE PREFETCHES: 0 NORMAL LATE: 0 MISSED OPPORTUNITY: 0 UNCOVERED: 0
PSCL5 PREFETCHES SAME FILL-ORIGIN LEVEL: 0 DIFFERENT FILL-ORIGIN LEVEL: 0

PSCL4 SPEC fills:          0  NON-SPEC fills:          0
PSCL4 Test counter :          0
PSCL4 Leapfrog:          0
PSCL4 MSHR merge:          0
PSCL4 TOTAL     ACCESS:          0  HIT:          0  MISS:          0  HIT %:       -nan  MISS %:       -nan   MPKI: 0
PSCL4 PREFETCH  REQUESTED:          0  ISSUED:          0  USEFUL:          0  USELESS:          0
PSCL4 USEFUL LOAD PREFETCHES:          0 PREFETCH ISSUED TO LOWER LEVEL:          0  ACCURACY: -nan
PSCL4 TIMELY PREFETCHES:          0 LATE PREFETCHES: 0 DROPPED PREFETCHES: 0
PSCL4 COMMIT LATE PREFETCHES: 0 NORMAL LATE: 0 MISSED OPPORTUNITY: 0 UNCOVERED: 0
PSCL4 PREFETCHES SAME FILL-ORIGIN LEVEL: 0 DIFFERENT FILL-ORIGIN LEVEL: 0

PSCL3 SPEC fills:          0  NON-SPEC fills:          0
PSCL3 Test counter :          0
PSCL3 Leapfrog:          0
PSCL3 MSHR merge:          0
PSCL3 TOTAL     ACCESS:          0  HIT:          0  MISS:          0  HIT %:       -nan  MISS %:       -nan   MPKI: 0
PSCL3 PREFETCH  REQUESTED:          0  ISSUED:          0  USEFUL:          0  USELESS:          0
PSCL3 USEFUL LOAD PREFETCHES:          0 PREFETCH ISSUED TO LOWER LEVEL:          0  ACCURACY: -nan
PSCL3 TIMELY PREFETCHES:          0 LATE PREFETCHES: 0 DROPPED PREFETCHES: 0
PSCL3 COMMIT LATE PREFETCHES: 0 NORMAL LATE: 0 MISSED OPPORTUNITY: 0 UNCOVERED: 0
PSCL3 PREFETCHES SAME FILL-ORIGIN LEVEL: 0 DIFFERENT FILL-ORIGIN LEVEL: 0

PSCL2 SPEC fills:          0  NON-SPEC fills:          0
PSCL2 Test counter :          0
PSCL2 Leapfrog:          0
PSCL2 MSHR merge:          0
PSCL2 TOTAL     ACCESS:          0  HIT:          0  MISS:          0  HIT %:       -nan  MISS %:       -nan   MPKI: 0
PSCL2 PREFETCH  REQUESTED:          0  ISSUED:          0  USEFUL:          0  USELESS:          0
PSCL2 USEFUL LOAD PREFETCHES:          0 PREFETCH ISSUED TO LOWER LEVEL:          0  ACCURACY: -nan
PSCL2 TIMELY PREFETCHES:          0 LATE PREFETCHES: 0 DROPPED PREFETCHES: 0
PSCL2 COMMIT LATE PREFETCHES: 0 NORMAL LATE: 0 MISSED OPPORTUNITY: 0 UNCOVERED: 0
PSCL2 PREFETCHES SAME FILL-ORIGIN LEVEL: 0 DIFFERENT FILL-ORIGIN LEVEL: 0

LLC SPEC fills:          0  NON-SPEC fills:     474111
LLC Test counter :          0
LLC Leapfrog:          0
LLC MSHR merge:          0
LLC TOTAL     ACCESS:   76929256  HIT:   19071522  MISS:   57857734  HIT %:     24.791  MISS %:     75.209   MPKI: 289.289
LLC LOAD      TOTAL       ACCESS:   12142391  HIT:     206533  MISS:   11935858  HIT %:    1.70093  MISS %:    98.2991   MPKI: 59.6793
LLC LOAD      NON_SPEC    ACCESS:     496576  HIT:      22465  MISS:     474111  HIT %:    4.52398  MISS %:     95.476   MPKI: 2.37055
LLC LOAD      SPEC        ACCESS:   11645815  HIT:     184068  MISS:   11461747  HIT %:    1.58055  MISS %:    98.4194   MPKI: 57.3087
LLC RFO       NON_SPEC    ACCESS:      20906  HIT:        114  MISS:      20792  HIT %:   0.545298  MISS %:    99.4547   MPKI: 0.10396
LLC PREFETCH  NON_SPEC    ACCESS:   37862152  HIT:       6366  MISS:   37855786  HIT %:  0.0168136  MISS %:    99.9832   MPKI: 189.279
LLC WRITEBACK NON_SPEC    ACCESS:     462899  HIT:     461689  MISS:       1210  HIT %:    99.7386  MISS %:   0.261396   MPKI: 0.00605
LLC CLEAN_EVICTION NON_SPEC    ACCESS:   26157047  HIT:   18389174  MISS:    7767873  HIT %:    70.3029  MISS %:    29.6971   MPKI: 38.8394
LLC COMMIT LOAD NON_SPEC    ACCESS:     278385  HIT:       7027  MISS:     271358  HIT %:     2.5242  MISS %:    97.4758   MPKI: 1.35679
LLC LOAD TRANSLATION NON_SPEC    ACCESS:       5473  HIT:        619  MISS:       4854  HIT %:    11.3101  MISS %:    88.6899   MPKI: 0.02427
LLC TRANSLATION FROM L1D PREFETCHER NON_SPEC    ACCESS:          3  HIT:          0  MISS:          3  HIT %:          0  MISS %:        100   MPKI: 1.5e-05
LLC PREFETCH  REQUESTED:          0  ISSUED:          0  USEFUL:        557  USELESS:   37857747
LLC USEFUL LOAD PREFETCHES:        557 PREFETCH ISSUED TO LOWER LEVEL:   37855788  ACCURACY: 0.00147137
LLC TIMELY PREFETCHES:        557 LATE PREFETCHES: 0 DROPPED PREFETCHES: 0
LLC COMMIT LATE PREFETCHES: 0 NORMAL LATE: 0 MISSED OPPORTUNITY: 0 UNCOVERED: 0
LLC PREFETCHES SAME FILL-ORIGIN LEVEL: 0 DIFFERENT FILL-ORIGIN LEVEL: 0
LLC AVERAGE MISS LATENCY: 245.523 cycles
LLC AVERAGE MISS LATENCY LOAD: 242.614 cycles
LLC AVERAGE MISS LATENCY PREFETCH: 296.818 cycles
LLC AVERAGE MSHR OCCUPANCY: 6.73446
LLC MSHR FULL: 0
LLC RQ	ACCESS:   12447161	FORWARD:          0	MERGED:          0	TO_CACHE:   12447161
LLC WQ	ACCESS:   26619946	FORWARD:          0	MERGED:          0	TO_CACHE:   26619946
LLC PQ	ACCESS:   37862158	FORWARD:          0	MERGED:          0	TO_CACHE:   37862158

LLC Dense regions hint to LLC: 0

RAW hits: 8327000
Loads Generated: 91532952
Loads sent to L1D: 83205947
Stores Generated: 13518698
Stores sent to L1D: 13518702
Major fault: 0 Minor fault: 17320
Allocated PAGES: 17320
Total Load insts: 103503917
Total Non-spec loads: 10435121
Percentage of speculative loads: 89.9181

LeapFrogging counter: 34181788
Commit hits: 40898350 miss: 32622809
Commit hit %: 55.628 miss %: 44.372
Commits not translated: 0
Loads retired: 23042973
Stores retired: 13518702
Cache fills: 23042976
L1D response latency: 252.599 cycles
Load retirement latency: 441.895 cycles
OOO test counter: 0
Discarded buffer inserts: 40898350 hits: 369890 hit %: 0.904413
Filter prediction accuracy: -nan

stream: 
stream:times selected: 61583153
stream:pref_filled: 14017305
stream:pref_useful: 109214
stream:pref_late: 42282
stream:misses: 768187
stream:misses_by_poll: 0

CS: 
CS:times selected: 14347091
CS:pref_filled: 3562041
CS:pref_useful: 3085241
CS:pref_late: 3867
CS:misses: 3539985
CS:misses_by_poll: 211559

CPLX: 
CPLX:times selected: 47220110
CPLX:pref_filled: 19107974
CPLX:pref_useful: 10086476
CPLX:pref_late: 1524446
CPLX:misses: 22426541
CPLX:misses_by_poll: 1099929

NL_L1: 
NL:times selected: 87731
NL:pref_filled: 9093
NL:pref_useful: 365
NL:pref_late: 10
NL:misses: 57942
NL:misses_by_poll: 0

total selections: 123238085
total_filled: 27292710
total_useful: 8913524
total_late: 1610008
total_polluted: 1311488
total_misses_after_warmup: 24368512
conflicts: 0
Degree Incremented Times: 510034
Degree Decremented Times: 594676

L1 IP Table Write Accesses: 105022078
L1 IP Table Read Accesses: 105022078
L1 RST Write Accesses: 49388168
L1 RST Read Accesses: 98776336
L1 CSPT Write Accesses: 49388168
L1 CSPT Read Accesses: 158613592
L1 RR Filter Tag Write Accesses: 48586809
L1 RR Filter Tag Read Accesses: 4509151008
L1 IP Table Tag Write Accesses: 105023656
L1 IP Table Tag Read Accesses: 105023656
L1 RST Tag Write Accesses: 0
L1 RST Tag Read Accesses: 444366414
L1 RR Filter Write Accesses: 0
L1 RR Filter Read Accesses: 181074941
test: 3410331

stream: 
stream:times selected: 43226378
stream:pref_filled: 14017305
stream:pref_useful: 109214
stream:pref_late: 42282
stream:misses: 1574599
stream:misses_by_poll: 0

CS: 
CS:times selected: 6017245
CS:pref_filled: 3562041
CS:pref_useful: 3085241
CS:pref_late: 3867
CS:misses: 2637916
CS:misses_by_poll: 6353

CPLX: 
CPLX:times selected: 37205741
CPLX:pref_filled: 19107974
CPLX:pref_useful: 10086476
CPLX:pref_late: 1524446
CPLX:misses: 22541930
CPLX:misses_by_poll: 119212

NL_L1: 
NL:times selected: 63058
NL:pref_filled: 9093
NL:pref_useful: 365
NL:pref_late: 10
NL:misses: 57912
NL:misses_by_poll: 0

total selections: 86512422
total_filled: 27292710
total_useful: 8913524
total_late: 1610008
total_polluted: 125565
total_misses_after_warmup: 23054410
conflicts: 0
Degree Incremented Times: 243793
Degree Decremented Times: 282018

L1 IP Table Write Accesses: 51462222
L1 IP Table Read Accesses: 51462222
L1 RST Write Accesses: 35274629
L1 RST Read Accesses: 70549258
L1 CSPT Write Accesses: 35274629
L1 CSPT Read Accesses: 120268155
L1 RR Filter Tag Write Accesses: 41494431
L1 RR Filter Tag Read Accesses: 2285881830
L1 IP Table Tag Write Accesses: 51462747
L1 IP Table Tag Read Accesses: 51462747
L1 RST Tag Write Accesses: 0
L1 RST Tag Read Accesses: 317371503
L1 RR Filter Write Accesses: 0
L1 RR Filter Read Accesses: 88545276
test_pseudo: 2496301

DRAM Statistics
 CHANNEL 0
 RQ ROW_BUFFER_HIT:   27734165  ROW_BUFFER_MISS:   22354159
 DBUS_CONGESTED:       8008
 WQ ROW_BUFFER_HIT:    5630190  ROW_BUFFER_MISS:   20956396  FULL:       3646

 AVG_CONGESTED_CYCLE: 4
 All warmup complete: 2
Channel 0 Bank busy for read cycles: 0
Channel 0 Bank busy for write cycles: 0
Channel 0
Rank 0
0banks busy for read cycles: 49143305
0banks busy for write cycles: 111299
1banks busy for read cycles: 54099892
1banks busy for write cycles: 13576460
2banks busy for read cycles: 86849859
2banks busy for write cycles: 10186888
3banks busy for read cycles: 121251503
3banks busy for write cycles: 9230211
4banks busy for read cycles: 148324528
4banks busy for write cycles: 9100967
5banks busy for read cycles: 167658617
5banks busy for write cycles: 9595793
6banks busy for read cycles: 177236901
6banks busy for write cycles: 12129891
7banks busy for read cycles: 173998291
7banks busy for write cycles: 54087832
8banks busy for read cycles: 101192011
8banks busy for write cycles: 478742019

CPU 0 Branch Prediction Accuracy: 98.8241% MPKI: 2.1554 Average ROB Occupancy at Mispredict: 70.9798
Branch types
NOT_BRANCH: 163339829 81.6699%
BRANCH_DIRECT_JUMP: 8413978 4.20699%
BRANCH_INDIRECT: 0 0%
BRANCH_CONDITIONAL: 28243017 14.1215%
BRANCH_DIRECT_CALL: 1578 0.000789%
BRANCH_INDIRECT_CALL: 0 0%
BRANCH_RETURN: 1578 0.000789%
BRANCH_OTHER: 0 0%

DRAM PAGES: 1048576
Allocated PAGES: 17320
