
*** ChampSim Multicore Out-of-Order Simulator ***

Warmup Instructions: 50000000
Simulation Instructions: 200000000
Number of CPUs: 1
LLC sets: 2048
LLC ways: 16
L0D sets: 16
L0D ways: 2
ROB size: 352
LQ size: 128
SQ size: 72
Secure Berti: OFF
Berti: OFF
Berti Fill: OFF
On commit prefetching: ON
Hit-based filter: OFF
Time-guarding: ON
Free-slotting: ON
Leap-frogging: ON
Train prefetcher on L0D bypass: OFF
No translation penalty for prefetchers: OFF
Prefetch to L0D only: OFF
Prefetch to L1D only: OFF
Clean evictions: ON
Commit loads: ON
Commit write: ON
Fill commit loads to L2C, LLC: ON
DRAM IO FREQUENCY: 6400
ROB SIZE: 352
Off-chip DRAM Size: 4096 MB Channels: 1 Width: 64-bit Data Rate: 6400 MT/s
CPU 0 runs /home/sumon/secure_berti/GhostMinion/../../traces/spec/605.mcf_s-782B.champsimtrace.xz
.xz
BTB has LRU replacement policy
ITLB has LRU replacement policy
DTLB has LRU replacement policy
STLB has LRU replacement policy
L1I has LRU replacement policy
L0D has LRU replacement policy
IP Table Entries: 1024
CSPT Entries: 128
RR_ENTRIES: 32
RST_ENTRIES: 8
IP Table Entries: 1024
CSPT Entries: 128
RR_ENTRIES: 32
RST_ENTRIES: 8
L1D has LRU replacement policy
L2C has LRU replacement policy
LLC has LRU replacement policy
Heartbeat CPU 0 instructions: 10000001 cycles: 4982412 heartbeat IPC: 2.00706 cumulative IPC: 2.00706 (Simulation time: 0 hr 1 min 9 sec) 
Heartbeat CPU 0 instructions: 20000000 cycles: 9765416 heartbeat IPC: 2.09074 cumulative IPC: 2.04804 (Simulation time: 0 hr 2 min 19 sec) 
Heartbeat CPU 0 instructions: 30000000 cycles: 14549727 heartbeat IPC: 2.09017 cumulative IPC: 2.06189 (Simulation time: 0 hr 3 min 35 sec) 
Heartbeat CPU 0 instructions: 40000002 cycles: 19276600 heartbeat IPC: 2.11556 cumulative IPC: 2.07505 (Simulation time: 0 hr 4 min 54 sec) 
Heartbeat CPU 0 instructions: 50000000 cycles: 24106266 heartbeat IPC: 2.07054 cumulative IPC: 2.07415 (Simulation time: 0 hr 6 min 24 sec) 

Warmup complete CPU 0 instructions: 50000001 cycles: 24106267 (Simulation time: 0 hr 6 min 24 sec) 

Heartbeat CPU 0 instructions: 60000000 cycles: 110408586 heartbeat IPC: 0.115872 cumulative IPC: 0.115872 (Simulation time: 0 hr 8 min 23 sec) 
Heartbeat CPU 0 instructions: 70000002 cycles: 195076878 heartbeat IPC: 0.118108 cumulative IPC: 0.116979 (Simulation time: 0 hr 10 min 22 sec) 
Heartbeat CPU 0 instructions: 80000002 cycles: 279358253 heartbeat IPC: 0.11865 cumulative IPC: 0.117531 (Simulation time: 0 hr 12 min 21 sec) 
Heartbeat CPU 0 instructions: 90000000 cycles: 368078403 heartbeat IPC: 0.112714 cumulative IPC: 0.116288 (Simulation time: 0 hr 14 min 23 sec) 
Heartbeat CPU 0 instructions: 100000001 cycles: 456442942 heartbeat IPC: 0.113168 cumulative IPC: 0.115651 (Simulation time: 0 hr 16 min 26 sec) 
Heartbeat CPU 0 instructions: 110000000 cycles: 546763203 heartbeat IPC: 0.110717 cumulative IPC: 0.114798 (Simulation time: 0 hr 18 min 28 sec) 
Heartbeat CPU 0 instructions: 120000000 cycles: 633300795 heartbeat IPC: 0.115557 cumulative IPC: 0.114906 (Simulation time: 0 hr 20 min 25 sec) 
Heartbeat CPU 0 instructions: 130000000 cycles: 722753594 heartbeat IPC: 0.111791 cumulative IPC: 0.114507 (Simulation time: 0 hr 22 min 24 sec) 
Heartbeat CPU 0 instructions: 140000001 cycles: 808737412 heartbeat IPC: 0.116301 cumulative IPC: 0.114704 (Simulation time: 0 hr 24 min 19 sec) 
Heartbeat CPU 0 instructions: 150000000 cycles: 895505107 heartbeat IPC: 0.11525 cumulative IPC: 0.114758 (Simulation time: 0 hr 26 min 15 sec) 
Heartbeat CPU 0 instructions: 160000002 cycles: 984857637 heartbeat IPC: 0.111916 cumulative IPC: 0.114494 (Simulation time: 0 hr 28 min 2 sec) 
Heartbeat CPU 0 instructions: 170000001 cycles: 1076414631 heartbeat IPC: 0.109222 cumulative IPC: 0.114035 (Simulation time: 0 hr 29 min 36 sec) 
Heartbeat CPU 0 instructions: 180000002 cycles: 1167049215 heartbeat IPC: 0.110333 cumulative IPC: 0.113741 (Simulation time: 0 hr 31 min 3 sec) 
Heartbeat CPU 0 instructions: 190000003 cycles: 1263022984 heartbeat IPC: 0.104195 cumulative IPC: 0.113002 (Simulation time: 0 hr 32 min 27 sec) 
Heartbeat CPU 0 instructions: 200000002 cycles: 1359232935 heartbeat IPC: 0.103939 cumulative IPC: 0.112349 (Simulation time: 0 hr 33 min 52 sec) 
Heartbeat CPU 0 instructions: 210000003 cycles: 1454287214 heartbeat IPC: 0.105203 cumulative IPC: 0.111874 (Simulation time: 0 hr 35 min 15 sec) 
Heartbeat CPU 0 instructions: 220000000 cycles: 1547816478 heartbeat IPC: 0.106918 cumulative IPC: 0.11157 (Simulation time: 0 hr 36 min 37 sec) 
Heartbeat CPU 0 instructions: 230000001 cycles: 1641610626 heartbeat IPC: 0.106616 cumulative IPC: 0.111283 (Simulation time: 0 hr 37 min 59 sec) 
Heartbeat CPU 0 instructions: 240000003 cycles: 1733342624 heartbeat IPC: 0.109013 cumulative IPC: 0.111161 (Simulation time: 0 hr 39 min 18 sec) 
Heartbeat CPU 0 instructions: 250000002 cycles: 1822985421 heartbeat IPC: 0.111554 cumulative IPC: 0.11118 (Simulation time: 0 hr 40 min 38 sec) 
Finished CPU 0 instructions: 200000001 cycles: 1798879154 cumulative IPC: 0.11118 (Simulation time: 0 hr 40 min 38 sec) 
 Instruction ID: 250000129

ChampSim completed all CPUs

Region of Interest Statistics

CPU 0 cumulative IPC: 0.11118 instructions: 200000001 cycles: 1798879154
ITLB SPEC fills:          0  NON-SPEC fills:          0
ITLB Test counter :          0
ITLB Leapfrog:          0
ITLB MSHR merge:          0
ITLB TOTAL     ACCESS:   33054810  HIT:   33054810  MISS:          0  HIT %:        100  MISS %:          0   MPKI: 0
ITLB LOAD TRANSLATION NON_SPEC    ACCESS:   33054810  HIT:   33054810  MISS:          0  HIT %:        100  MISS %:          0   MPKI: 0
ITLB PREFETCH  REQUESTED:          0  ISSUED:          0  USEFUL:          0  USELESS:          0
ITLB USEFUL LOAD PREFETCHES:          0 PREFETCH ISSUED TO LOWER LEVEL:          0  ACCURACY: -nan
ITLB TIMELY PREFETCHES:          0 LATE PREFETCHES: 0 DROPPED PREFETCHES: 0
ITLB COMMIT LATE PREFETCHES: 0 NORMAL LATE: 0 MISSED OPPORTUNITY: 0 UNCOVERED: 0
ITLB PREFETCHES SAME FILL-ORIGIN LEVEL: 0 DIFFERENT FILL-ORIGIN LEVEL: 0
ITLB AVERAGE MISS LATENCY: -nan cycles
ITLB AVERAGE MISS LATENCY LOAD: -nan cycles
ITLB AVERAGE MISS LATENCY PREFETCH: -nan cycles
ITLB AVERAGE MSHR OCCUPANCY: 0
ITLB MSHR FULL: 0
ITLB RQ	ACCESS:   33413364	FORWARD:          0	MERGED:     358554	TO_CACHE:   33054810

DTLB SPEC fills:          0  NON-SPEC fills:          0
DTLB Test counter :          0
DTLB Leapfrog:          0
DTLB MSHR merge:          0
DTLB TOTAL     ACCESS:   46207784  HIT:   28580910  MISS:   17626874  HIT %:     61.853  MISS %:     38.147   MPKI: 88.1344
DTLB LOAD TRANSLATION NON_SPEC    ACCESS:   46207784  HIT:   28580910  MISS:   17626874  HIT %:     61.853  MISS %:     38.147   MPKI: 88.1344
DTLB PREFETCH  REQUESTED:          0  ISSUED:          0  USEFUL:          0  USELESS:          0
DTLB USEFUL LOAD PREFETCHES:          0 PREFETCH ISSUED TO LOWER LEVEL:          0  ACCURACY: -nan
DTLB TIMELY PREFETCHES:          0 LATE PREFETCHES: 0 DROPPED PREFETCHES: 0
DTLB COMMIT LATE PREFETCHES: 0 NORMAL LATE: 0 MISSED OPPORTUNITY: 0 UNCOVERED: 0
DTLB PREFETCHES SAME FILL-ORIGIN LEVEL: 0 DIFFERENT FILL-ORIGIN LEVEL: 0
DTLB AVERAGE MISS LATENCY: 11.9238 cycles
DTLB AVERAGE MISS LATENCY LOAD: -nan cycles
DTLB AVERAGE MISS LATENCY PREFETCH: -nan cycles
DTLB AVERAGE MSHR OCCUPANCY: 0.203439
DTLB MSHR FULL: 2.57518e-07
DTLB RQ	ACCESS:   51830577	FORWARD:          0	MERGED:    5231847	TO_CACHE:   46598730

STLB SPEC fills:          0  NON-SPEC fills:          0
STLB Test counter :          0
STLB Leapfrog:          0
STLB MSHR merge:          0
STLB TOTAL     ACCESS:   45743477  HIT:   45506152  MISS:     237325  HIT %:    99.4812  MISS %:   0.518817   MPKI: 1.18662
STLB LOAD TRANSLATION NON_SPEC    ACCESS:   17626873  HIT:   17389548  MISS:     237325  HIT %:    98.6536  MISS %:    1.34638   MPKI: 1.18662
STLB TRANSLATION FROM L1D PREFETCHER NON_SPEC    ACCESS:   28116604  HIT:   28116604  MISS:          0  HIT %:        100  MISS %:          0   MPKI: 0
STLB PREFETCH  REQUESTED:          0  ISSUED:          0  USEFUL:          0  USELESS:          0
STLB USEFUL LOAD PREFETCHES:          0 PREFETCH ISSUED TO LOWER LEVEL:          0  ACCURACY: -nan
STLB TIMELY PREFETCHES:          0 LATE PREFETCHES: 0 DROPPED PREFETCHES: 0
STLB COMMIT LATE PREFETCHES: 0 NORMAL LATE: 0 MISSED OPPORTUNITY: 0 UNCOVERED: 0
STLB PREFETCHES SAME FILL-ORIGIN LEVEL: 0 DIFFERENT FILL-ORIGIN LEVEL: 0
STLB AVERAGE MISS LATENCY: 210.849 cycles
STLB AVERAGE MISS LATENCY LOAD: -nan cycles
STLB AVERAGE MISS LATENCY PREFETCH: -nan cycles
STLB AVERAGE MSHR OCCUPANCY: 0.0153606
STLB MSHR FULL: 0
STLB RQ	ACCESS:   52423212	FORWARD:          0	MERGED:    6679730	TO_CACHE:   45743482

STLB Hit, L1D data hit: 0
STLB Hit, L2C data hit: 0
STLB Hit, LLC data hit: 0
STLB Hit, LLC data miss: 0
STLB STLB hints to L2: 0
L0D SPEC fills:   29367037  NON-SPEC fills:          0
L0D TimeGuard Request with older TS:    1116473 Restricted eviction:     629295 read:     130213
L0D Test counter :          0
L0D Leapfrog:          0
L0D MSHR merge:    6406988
L0D TOTAL     ACCESS:   41845145  HIT:    1108579  MISS:   40736566  HIT %:    2.64924  MISS %:    97.3508   MPKI: 203.683
L0D LOAD      TOTAL       ACCESS:   41845145  HIT:    1108579  MISS:   40736566  HIT %:    2.64924  MISS %:    97.3508   MPKI: 203.683
L0D LOAD      NON_SPEC    ACCESS:   11002384  HIT:     262140  MISS:   10740244  HIT %:    2.38257  MISS %:    97.6174   MPKI: 53.7012
L0D LOAD      SPEC        ACCESS:   30842761  HIT:     846439  MISS:   29996322  HIT %:    2.74437  MISS %:    97.2556   MPKI: 149.982
L0D PREFETCH  REQUESTED:          0  ISSUED:          0  USEFUL:          0  USELESS:          0
L0D USEFUL LOAD PREFETCHES:          0 PREFETCH ISSUED TO LOWER LEVEL:          0  ACCURACY: -nan
L0D TIMELY PREFETCHES:          0 LATE PREFETCHES: 0 DROPPED PREFETCHES: 0
L0D COMMIT LATE PREFETCHES: 0 NORMAL LATE: 0 MISSED OPPORTUNITY: 0 UNCOVERED: 0
L0D PREFETCHES SAME FILL-ORIGIN LEVEL: 0 DIFFERENT FILL-ORIGIN LEVEL: 0
L0D AVERAGE MISS LATENCY: 115.017 cycles
L0D AVERAGE MISS LATENCY LOAD: 115.017 cycles
L0D AVERAGE MISS LATENCY PREFETCH: -nan cycles
L0D AVERAGE MSHR OCCUPANCY: 6.16143
L0D MSHR FULL: 0.653443
L0D RQ	ACCESS:   71282904	FORWARD:          0	MERGED:   23030776	TO_CACHE:   48252128
L0D WQ	ACCESS:    3578449	FORWARD:          0	MERGED:          0	TO_CACHE:    3578449

L1D SPEC fills:          0  NON-SPEC fills:    7811607
L1D Test counter :          0
L1D Leapfrog:          0
L1D MSHR merge:    2073870
L1D TOTAL     ACCESS:  121824914  HIT:   44631980  MISS:   77192934  HIT %:    36.6362  MISS %:    63.3638   MPKI: 385.965
L1D LOAD      TOTAL       ACCESS:   40720812  HIT:   10171645  MISS:   30549167  HIT %:     24.979  MISS %:     75.021   MPKI: 152.746
L1D LOAD      NON_SPEC    ACCESS:   10737811  HIT:    2926204  MISS:    7811607  HIT %:    27.2514  MISS %:    72.7486   MPKI: 39.058
L1D LOAD      SPEC        ACCESS:   29983001  HIT:    7245441  MISS:   22737560  HIT %:    24.1652  MISS %:    75.8348   MPKI: 113.688
L1D RFO       NON_SPEC    ACCESS:    3084732  HIT:    3035491  MISS:      49241  HIT %:    98.4037  MISS %:    1.59628   MPKI: 0.246205
L1D PREFETCH  NON_SPEC    ACCESS:   31229955  HIT:    6320268  MISS:   24909687  HIT %:    20.2378  MISS %:    79.7622   MPKI: 124.548
L1D COMMIT LOAD NON_SPEC    ACCESS:   18118914  HIT:   16983723  MISS:    1135191  HIT %:    93.7348  MISS %:    6.26523   MPKI: 5.67595
L1D COMMIT WRITE NON_SPEC    ACCESS:   28670501  HIT:    8120853  MISS:   20549648  HIT %:    28.3248  MISS %:    71.6752   MPKI: 102.748
L1D PREFETCH  REQUESTED:   34881621  ISSUED:   34796339  USEFUL:    1953906  USELESS:   22955717
L1D USEFUL LOAD PREFETCHES:    1953906 PREFETCH ISSUED TO LOWER LEVEL:   27066494  ACCURACY: 7.21891
L1D TIMELY PREFETCHES:    1953906 LATE PREFETCHES: 2146872 DROPPED PREFETCHES: 0
L1D COMMIT LATE PREFETCHES: 7944212 NORMAL LATE: 2190171 MISSED OPPORTUNITY: 104492 UNCOVERED: 20408293
L1D PREFETCHES SAME FILL-ORIGIN LEVEL: 27066494 DIFFERENT FILL-ORIGIN LEVEL: 0
L1D AVERAGE MISS LATENCY: 102.711 cycles
L1D AVERAGE MISS LATENCY LOAD: 134.755 cycles
L1D AVERAGE MISS LATENCY PREFETCH: 147.987 cycles
L1D AVERAGE MSHR OCCUPANCY: 7.00836
L1D MSHR FULL: 0.201718
L1D RQ	ACCESS:   72303884	FORWARD:          0	MERGED:   13238250	TO_CACHE:   58915549
L1D WQ	ACCESS:   32263046	FORWARD:     150085	MERGED:     393934	TO_CACHE:   31869112
L1D PQ	ACCESS:   34796339	FORWARD:          0	MERGED:          0	TO_CACHE:   34796339

L1D UNIQUE REGIONS ACCESSED: 0
L1D REGIONS CONFLICTS: 0
L1D Cross Page Prefetch Requests: 0
L1D Same Page Prefetch Requests: 43484177
L1D ROI Sum of L1D PQ occupancy: 584612399
L1D PREFETCHES PUSHED FROM L2C: 0
L1I SPEC fills:          0  NON-SPEC fills:          0
L1I Test counter :          0
L1I Leapfrog:          0
L1I MSHR merge:          0
L1I TOTAL     ACCESS:   33413363  HIT:   33413363  MISS:          0  HIT %:        100  MISS %:          0   MPKI: 0
L1I LOAD      TOTAL       ACCESS:   33413363  HIT:   33413363  MISS:          0  HIT %:        100  MISS %:          0   MPKI: 0
L1I LOAD      NON_SPEC    ACCESS:   33413363  HIT:   33413363  MISS:          0  HIT %:        100  MISS %:          0   MPKI: 0
L1I PREFETCH  REQUESTED:          0  ISSUED:          0  USEFUL:          0  USELESS:          0
L1I USEFUL LOAD PREFETCHES:          0 PREFETCH ISSUED TO LOWER LEVEL:          0  ACCURACY: -nan
L1I TIMELY PREFETCHES:          0 LATE PREFETCHES: 0 DROPPED PREFETCHES: 0
L1I COMMIT LATE PREFETCHES: 0 NORMAL LATE: 0 MISSED OPPORTUNITY: 0 UNCOVERED: 0
L1I PREFETCHES SAME FILL-ORIGIN LEVEL: 0 DIFFERENT FILL-ORIGIN LEVEL: 0
L1I AVERAGE MISS LATENCY: -nan cycles
L1I AVERAGE MISS LATENCY LOAD: -nan cycles
L1I AVERAGE MISS LATENCY PREFETCH: -nan cycles
L1I AVERAGE MSHR OCCUPANCY: 0
L1I MSHR FULL: 0
L1I RQ	ACCESS:   44071484	FORWARD:          0	MERGED:   10658120	TO_CACHE:   33413364

BTB SPEC fills:          0  NON-SPEC fills:          0
BTB Test counter :          0
BTB Leapfrog:          0
BTB MSHR merge:          0
BTB TOTAL     ACCESS:   60210745  HIT:   60015900  MISS:     194845  HIT %:    99.6764  MISS %:   0.323605   MPKI: 0.974225
BTB BRANCH_DIRECT_JUMP	ACCESS:    7722186  HIT:    7722149  MISS:         37
BTB BRANCH_INDIRECT	ACCESS:          0  HIT:          0  MISS:          0
BTB BRANCH_CONDITIONAL	ACCESS:   51083203  HIT:   51083121  MISS:         82
BTB BRANCH_DIRECT_CALL	ACCESS:     648845  HIT:     648827  MISS:         18
BTB BRANCH_INDIRECT_CALL	ACCESS:      53834  HIT:      53826  MISS:          8
BTB BRANCH_RETURN	ACCESS:     702677  HIT:     507977  MISS:     194700
BTB BRANCH_OTHER ACCESS:          0  HIT:          0  MISS:          0

L2C SPEC fills:          0  NON-SPEC fills:    5949699
L2C Test counter :          0
L2C Leapfrog:          0
L2C MSHR merge:          0
L2C TOTAL     ACCESS:   80380249  HIT:   13786978  MISS:   66593271  HIT %:    17.1522  MISS %:    82.8478   MPKI: 332.966
L2C LOAD      TOTAL       ACCESS:   28490331  HIT:    2761997  MISS:   25728334  HIT %:    9.69451  MISS %:    90.3055   MPKI: 128.642
L2C LOAD      NON_SPEC    ACCESS:    6860963  HIT:     911264  MISS:    5949699  HIT %:    13.2819  MISS %:    86.7181   MPKI: 29.7485
L2C LOAD      SPEC        ACCESS:   21629368  HIT:    1850733  MISS:   19778635  HIT %:    8.55657  MISS %:    91.4434   MPKI: 98.8932
L2C RFO       NON_SPEC    ACCESS:      39299  HIT:       2323  MISS:      36976  HIT %:    5.91109  MISS %:    94.0889   MPKI: 0.18488
L2C PREFETCH  NON_SPEC    ACCESS:   27066264  HIT:    2381196  MISS:   24685068  HIT %:    8.79765  MISS %:    91.2023   MPKI: 123.425
L2C WRITEBACK NON_SPEC    ACCESS:     202814  HIT:     202813  MISS:          1  HIT %:    99.9995  MISS %: 0.000493063   MPKI: 5e-06
L2C CLEAN_EVICTION NON_SPEC    ACCESS:   22349401  HIT:    7162472  MISS:   15186929  HIT %:    32.0477  MISS %:    67.9523   MPKI: 75.9346
L2C COMMIT LOAD NON_SPEC    ACCESS:    1045958  HIT:     179262  MISS:     866696  HIT %:    17.1385  MISS %:    82.8615   MPKI: 4.33348
L2C LOAD TRANSLATION NON_SPEC    ACCESS:    1186182  HIT:    1096915  MISS:      89267  HIT %:    92.4744  MISS %:    7.52557   MPKI: 0.446335
L2C PREFETCH  REQUESTED:          0  ISSUED:          0  USEFUL:     499374  USELESS:   24186461
L2C USEFUL LOAD PREFETCHES:     499374 PREFETCH ISSUED TO LOWER LEVEL:   24685069  ACCURACY: 2.02298
L2C TIMELY PREFETCHES:     499374 LATE PREFETCHES: 0 DROPPED PREFETCHES: 0
L2C COMMIT LATE PREFETCHES: 0 NORMAL LATE: 0 MISSED OPPORTUNITY: 0 UNCOVERED: 25728332
L2C PREFETCHES SAME FILL-ORIGIN LEVEL: 0 DIFFERENT FILL-ORIGIN LEVEL: 0
L2C AVERAGE MISS LATENCY: 109.77 cycles
L2C AVERAGE MISS LATENCY LOAD: 130.286 cycles
L2C AVERAGE MISS LATENCY PREFETCH: 155.263 cycles
L2C AVERAGE MSHR OCCUPANCY: 5.20121
L2C MSHR FULL: 0
L2C RQ	ACCESS:   30762967	FORWARD:          0	MERGED:          0	TO_CACHE:   30761768
L2C WQ	ACCESS:   22552812	FORWARD:       1433	MERGED:        597	TO_CACHE:   22552215
L2C PQ	ACCESS:   27066494	FORWARD:          0	MERGED:          0	TO_CACHE:   27066260

L2C Instructions Evicting Data 0
L2C Translations Evicting Data 89139
L2C Data Evicting Data 31479399
L2C Instructions Evicting Instructions 0
L2C Translations Evicting Instructions 0
L2C Data Evicting Instructions 0
L2C Instructions Evicting Translations 0
L2C Translations Evicting Translations 128
L2C Data Evicting Translations 59040
L2C Dense regions hint from L2: 0
PSCL5 SPEC fills:          0  NON-SPEC fills:          0
PSCL5 Test counter :          0
PSCL5 Leapfrog:          0
PSCL5 MSHR merge:          0
PSCL5 TOTAL     ACCESS:          0  HIT:          0  MISS:          0  HIT %:       -nan  MISS %:       -nan   MPKI: 0
PSCL5 PREFETCH  REQUESTED:          0  ISSUED:          0  USEFUL:          0  USELESS:          0
PSCL5 USEFUL LOAD PREFETCHES:          0 PREFETCH ISSUED TO LOWER LEVEL:          0  ACCURACY: -nan
PSCL5 TIMELY PREFETCHES:          0 LATE PREFETCHES: 0 DROPPED PREFETCHES: 0
PSCL5 COMMIT LATE PREFETCHES: 0 NORMAL LATE: 0 MISSED OPPORTUNITY: 0 UNCOVERED: 0
PSCL5 PREFETCHES SAME FILL-ORIGIN LEVEL: 0 DIFFERENT FILL-ORIGIN LEVEL: 0

PSCL4 SPEC fills:          0  NON-SPEC fills:          0
PSCL4 Test counter :          0
PSCL4 Leapfrog:          0
PSCL4 MSHR merge:          0
PSCL4 TOTAL     ACCESS:          0  HIT:          0  MISS:          0  HIT %:       -nan  MISS %:       -nan   MPKI: 0
PSCL4 PREFETCH  REQUESTED:          0  ISSUED:          0  USEFUL:          0  USELESS:          0
PSCL4 USEFUL LOAD PREFETCHES:          0 PREFETCH ISSUED TO LOWER LEVEL:          0  ACCURACY: -nan
PSCL4 TIMELY PREFETCHES:          0 LATE PREFETCHES: 0 DROPPED PREFETCHES: 0
PSCL4 COMMIT LATE PREFETCHES: 0 NORMAL LATE: 0 MISSED OPPORTUNITY: 0 UNCOVERED: 0
PSCL4 PREFETCHES SAME FILL-ORIGIN LEVEL: 0 DIFFERENT FILL-ORIGIN LEVEL: 0

PSCL3 SPEC fills:          0  NON-SPEC fills:          0
PSCL3 Test counter :          0
PSCL3 Leapfrog:          0
PSCL3 MSHR merge:          0
PSCL3 TOTAL     ACCESS:          0  HIT:          0  MISS:          0  HIT %:       -nan  MISS %:       -nan   MPKI: 0
PSCL3 PREFETCH  REQUESTED:          0  ISSUED:          0  USEFUL:          0  USELESS:          0
PSCL3 USEFUL LOAD PREFETCHES:          0 PREFETCH ISSUED TO LOWER LEVEL:          0  ACCURACY: -nan
PSCL3 TIMELY PREFETCHES:          0 LATE PREFETCHES: 0 DROPPED PREFETCHES: 0
PSCL3 COMMIT LATE PREFETCHES: 0 NORMAL LATE: 0 MISSED OPPORTUNITY: 0 UNCOVERED: 0
PSCL3 PREFETCHES SAME FILL-ORIGIN LEVEL: 0 DIFFERENT FILL-ORIGIN LEVEL: 0

PSCL2 SPEC fills:          0  NON-SPEC fills:          0
PSCL2 Test counter :          0
PSCL2 Leapfrog:          0
PSCL2 MSHR merge:          0
PSCL2 TOTAL     ACCESS:          0  HIT:          0  MISS:          0  HIT %:       -nan  MISS %:       -nan   MPKI: 0
PSCL2 PREFETCH  REQUESTED:          0  ISSUED:          0  USEFUL:          0  USELESS:          0
PSCL2 USEFUL LOAD PREFETCHES:          0 PREFETCH ISSUED TO LOWER LEVEL:          0  ACCURACY: -nan
PSCL2 TIMELY PREFETCHES:          0 LATE PREFETCHES: 0 DROPPED PREFETCHES: 0
PSCL2 COMMIT LATE PREFETCHES: 0 NORMAL LATE: 0 MISSED OPPORTUNITY: 0 UNCOVERED: 0
PSCL2 PREFETCHES SAME FILL-ORIGIN LEVEL: 0 DIFFERENT FILL-ORIGIN LEVEL: 0

LLC SPEC fills:          0  NON-SPEC fills:    1529023
LLC Test counter :          0
LLC Leapfrog:          0
LLC MSHR merge:          0
LLC TOTAL     ACCESS:   72885966  HIT:   37575918  MISS:   35310048  HIT %:    51.5544  MISS %:    48.4456   MPKI: 176.55
LLC LOAD      TOTAL       ACCESS:   25728215  HIT:   12197057  MISS:   13531158  HIT %:    47.4073  MISS %:    52.5927   MPKI: 67.6558
LLC LOAD      NON_SPEC    ACCESS:    5949675  HIT:    4420652  MISS:    1529023  HIT %:    74.3007  MISS %:    25.6993   MPKI: 7.64511
LLC LOAD      SPEC        ACCESS:   19778540  HIT:    7776405  MISS:   12002135  HIT %:    39.3174  MISS %:    60.6826   MPKI: 60.0107
LLC RFO       NON_SPEC    ACCESS:      36976  HIT:      29995  MISS:       6981  HIT %:    81.1202  MISS %:    18.8798   MPKI: 0.034905
LLC PREFETCH  NON_SPEC    ACCESS:   24684999  HIT:   11680749  MISS:   13004250  HIT %:    47.3192  MISS %:    52.6808   MPKI: 65.0212
LLC WRITEBACK NON_SPEC    ACCESS:     182859  HIT:     182843  MISS:         16  HIT %:    99.9913  MISS %: 0.00874991   MPKI: 8e-05
LLC CLEAN_EVICTION NON_SPEC    ACCESS:   21297003  HIT:   12867705  MISS:    8429298  HIT %:    60.4203  MISS %:    39.5797   MPKI: 42.1465
LLC COMMIT LOAD NON_SPEC    ACCESS:     866647  HIT:     583408  MISS:     283239  HIT %:    67.3178  MISS %:    32.6822   MPKI: 1.41619
LLC LOAD TRANSLATION NON_SPEC    ACCESS:      89267  HIT:      34161  MISS:      55106  HIT %:    38.2683  MISS %:    61.7317   MPKI: 0.27553
LLC PREFETCH  REQUESTED:          0  ISSUED:          0  USEFUL:     484629  USELESS:   12523001
LLC USEFUL LOAD PREFETCHES:     484629 PREFETCH ISSUED TO LOWER LEVEL:   13004250  ACCURACY: 3.7267
LLC TIMELY PREFETCHES:     484629 LATE PREFETCHES: 0 DROPPED PREFETCHES: 0
LLC COMMIT LATE PREFETCHES: 0 NORMAL LATE: 0 MISSED OPPORTUNITY: 0 UNCOVERED: 0
LLC PREFETCHES SAME FILL-ORIGIN LEVEL: 0 DIFFERENT FILL-ORIGIN LEVEL: 0
LLC AVERAGE MISS LATENCY: 167.79 cycles
LLC AVERAGE MISS LATENCY LOAD: 203.225 cycles
LLC AVERAGE MISS LATENCY PREFETCH: 236.841 cycles
LLC AVERAGE MSHR OCCUPANCY: 4.02232
LLC MSHR FULL: 0
LLC RQ	ACCESS:   26721271	FORWARD:          0	MERGED:          0	TO_CACHE:   26721104
LLC WQ	ACCESS:   21479862	FORWARD:        237	MERGED:          0	TO_CACHE:   21479862
LLC PQ	ACCESS:   24685069	FORWARD:          0	MERGED:          0	TO_CACHE:   24684999

LLC Dense regions hint to LLC: 0

RAW hits: 469600
Loads Generated: 71752506
Loads sent to L1D: 71282904
Stores Generated: 3578449
Stores sent to L1D: 3578449
Major fault: 0 Minor fault: 219750
Allocated PAGES: 219750
Total Load insts: 89108670
Total Non-spec loads: 11601860
Percentage of speculative loads: 86.9801

LeapFrogging counter: 49380235
Commit hits: 28684597 miss: 31567322
Commit hit %: 47.6078 miss %: 52.3922
Commits not translated: 0
Loads retired: 30549167
Stores retired: 3578449
Cache fills: 30549167
L1D response latency: 134.755 cycles
Load retirement latency: 385.607 cycles
OOO test counter: 0
Discarded buffer inserts: 28684597 hits: 186109 hit %: 0.648812
Filter prediction accuracy: -nan

stream: 
stream:times selected: 83011975
stream:pref_filled: 28936778
stream:pref_useful: 2505646
stream:pref_late: 977096
stream:misses: 4032296
stream:misses_by_poll: 0

CS: 
CS:times selected: 49427991
CS:pref_filled: 530714
CS:pref_useful: 193095
CS:pref_late: 77684
CS:misses: 562144
CS:misses_by_poll: 16082

CPLX: 
CPLX:times selected: 82687268
CPLX:pref_filled: 2711822
CPLX:pref_useful: 369816
CPLX:pref_late: 132730
CPLX:misses: 41496350
CPLX:misses_by_poll: 180436

NL_L1: 
NL:times selected: 53069
NL:pref_filled: 25647
NL:pref_useful: 1493
NL:pref_late: 114
NL:misses: 25546
NL:misses_by_poll: 1

total selections: 215180303
total_filled: 24909687
total_useful: 1953906
total_late: 1195678
total_polluted: 196519
total_misses_after_warmup: 38857465
conflicts: 88674
Degree Incremented Times: 0
Degree Decremented Times: 1113911

L1 IP Table Write Accesses: 75005500
L1 IP Table Read Accesses: 74916826
L1 RST Write Accesses: 66519760
L1 RST Read Accesses: 133039520
L1 CSPT Write Accesses: 66519760
L1 CSPT Read Accesses: 132782526
L1 RR Filter Tag Write Accesses: 34881621
L1 RR Filter Tag Read Accesses: 4491172149
L1 IP Table Tag Write Accesses: 75329961
L1 IP Table Tag Read Accesses: 75329961
L1 RST Tag Write Accesses: 0
L1 RST Tag Read Accesses: 613602988
L1 RR Filter Write Accesses: 0
L1 RR Filter Read Accesses: 145913034
test: 23254664

stream: 
stream:times selected: 43991049
stream:pref_filled: 28936778
stream:pref_useful: 2505646
stream:pref_late: 977096
stream:misses: 6051228
stream:misses_by_poll: 0

CS: 
CS:times selected: 12705676
CS:pref_filled: 530714
CS:pref_useful: 193095
CS:pref_late: 77684
CS:misses: 409367
CS:misses_by_poll: 691

CPLX: 
CPLX:times selected: 43681658
CPLX:pref_filled: 2711822
CPLX:pref_useful: 369816
CPLX:pref_late: 132730
CPLX:misses: 31523185
CPLX:misses_by_poll: 5733

NL_L1: 
NL:times selected: 56650
NL:pref_filled: 25647
NL:pref_useful: 1493
NL:pref_late: 114
NL:misses: 40738
NL:misses_by_poll: 0

total selections: 100435033
total_filled: 24909687
total_useful: 1953906
total_late: 1195678
total_polluted: 6424
total_misses_after_warmup: 30564918
conflicts: 21619
Degree Incremented Times: 0
Degree Decremented Times: 596975

L1 IP Table Write Accesses: 40649805
L1 IP Table Read Accesses: 40628186
L1 RST Write Accesses: 35428443
L1 RST Read Accesses: 70856886
L1 CSPT Write Accesses: 35428443
L1 CSPT Read Accesses: 70609904
L1 RR Filter Tag Write Accesses: 33501532
L1 RR Filter Tag Read Accesses: 1728360175
L1 IP Table Tag Write Accesses: 40736563
L1 IP Table Tag Read Accesses: 40736563
L1 RST Tag Write Accesses: 0
L1 RST Tag Read Accesses: 320461159
L1 RR Filter Write Accesses: 0
L1 RR Filter Read Accesses: 55527640
test_pseudo: 21366378

DRAM Statistics
 CHANNEL 0
 RQ ROW_BUFFER_HIT:    3816879  ROW_BUFFER_MISS:   23053879
 DBUS_CONGESTED:       4979
 WQ ROW_BUFFER_HIT:    3620264  ROW_BUFFER_MISS:   10882437  FULL:        311

 AVG_CONGESTED_CYCLE: 4
 All warmup complete: 2
Channel 0 Bank busy for read cycles: 0
Channel 0 Bank busy for write cycles: 0
Channel 0
Rank 0
0banks busy for read cycles: 68870215
0banks busy for write cycles: 153207
1banks busy for read cycles: 319334460
1banks busy for write cycles: 22279129
2banks busy for read cycles: 321339213
2banks busy for write cycles: 16923315
3banks busy for read cycles: 223377335
3banks busy for write cycles: 14761961
4banks busy for read cycles: 150296664
4banks busy for write cycles: 14578256
5banks busy for read cycles: 102704083
5banks busy for write cycles: 15930883
6banks busy for read cycles: 70017568
6banks busy for write cycles: 22326001
7banks busy for read cycles: 45049442
7banks busy for write cycles: 68689191
8banks busy for read cycles: 32708459
8banks busy for write cycles: 289539773

CPU 0 Branch Prediction Accuracy: 96.9705% MPKI: 9.2675 Average ROB Occupancy at Mispredict: 59.8623
Branch types
NOT_BRANCH: 138818916 69.4095%
BRANCH_DIRECT_JUMP: 7722186 3.86109%
BRANCH_INDIRECT: 0 0%
BRANCH_CONDITIONAL: 52053293 26.0266%
BRANCH_DIRECT_CALL: 648845 0.324422%
BRANCH_INDIRECT_CALL: 53834 0.026917%
BRANCH_RETURN: 702677 0.351338%
BRANCH_OTHER: 0 0%

DRAM PAGES: 1048576
Allocated PAGES: 219750
