
*** ChampSim Multicore Out-of-Order Simulator ***

Warmup Instructions: 50000000
Simulation Instructions: 200000000
Number of CPUs: 1
LLC sets: 2048
LLC ways: 16
L0D sets: 16
L0D ways: 2
ROB size: 352
LQ size: 128
SQ size: 72
Secure Berti: OFF
Berti: OFF
Berti Fill: OFF
On commit prefetching: ON
Hit-based filter: OFF
Time-guarding: ON
Free-slotting: ON
Leap-frogging: ON
Train prefetcher on L0D bypass: OFF
No translation penalty for prefetchers: OFF
Prefetch to L0D only: OFF
Prefetch to L1D only: OFF
Clean evictions: ON
Commit loads: ON
Commit write: ON
Fill commit loads to L2C, LLC: ON
DRAM IO FREQUENCY: 6400
ROB SIZE: 352
Off-chip DRAM Size: 4096 MB Channels: 1 Width: 64-bit Data Rate: 6400 MT/s
CPU 0 runs /home/sumon/secure_berti/GhostMinion/../../traces/spec/619.lbm_s-2676B.champsimtrace.xz
.xz
BTB has LRU replacement policy
ITLB has LRU replacement policy
DTLB has LRU replacement policy
STLB has LRU replacement policy
L1I has LRU replacement policy
L0D has LRU replacement policy
IP Table Entries: 1024
CSPT Entries: 128
RR_ENTRIES: 32
RST_ENTRIES: 8
IP Table Entries: 1024
CSPT Entries: 128
RR_ENTRIES: 32
RST_ENTRIES: 8
L1D has LRU replacement policy
L2C has LRU replacement policy
LLC has LRU replacement policy
Heartbeat CPU 0 instructions: 10000003 cycles: 3074801 heartbeat IPC: 3.25224 cumulative IPC: 3.25224 (Simulation time: 0 hr 0 min 52 sec) 
Heartbeat CPU 0 instructions: 20000003 cycles: 6142624 heartbeat IPC: 3.25964 cumulative IPC: 3.25594 (Simulation time: 0 hr 1 min 43 sec) 
Heartbeat CPU 0 instructions: 30000003 cycles: 9202874 heartbeat IPC: 3.26771 cumulative IPC: 3.25985 (Simulation time: 0 hr 2 min 35 sec) 
Heartbeat CPU 0 instructions: 40000002 cycles: 12241829 heartbeat IPC: 3.2906 cumulative IPC: 3.26749 (Simulation time: 0 hr 3 min 25 sec) 
Heartbeat CPU 0 instructions: 50000001 cycles: 15264234 heartbeat IPC: 3.30862 cumulative IPC: 3.27563 (Simulation time: 0 hr 4 min 16 sec) 

Warmup complete CPU 0 instructions: 50000001 cycles: 15264234 (Simulation time: 0 hr 4 min 16 sec) 

Heartbeat CPU 0 instructions: 60000002 cycles: 35623755 heartbeat IPC: 0.491171 cumulative IPC: 0.491171 (Simulation time: 0 hr 5 min 10 sec) 
Heartbeat CPU 0 instructions: 70000002 cycles: 55077733 heartbeat IPC: 0.514034 cumulative IPC: 0.502342 (Simulation time: 0 hr 6 min 38 sec) 
Heartbeat CPU 0 instructions: 80000002 cycles: 72846943 heartbeat IPC: 0.562771 cumulative IPC: 0.52099 (Simulation time: 0 hr 8 min 9 sec) 
Heartbeat CPU 0 instructions: 90000000 cycles: 90541974 heartbeat IPC: 0.56513 cumulative IPC: 0.531366 (Simulation time: 0 hr 9 min 41 sec) 
Heartbeat CPU 0 instructions: 100000001 cycles: 107064181 heartbeat IPC: 0.605246 cumulative IPC: 0.544663 (Simulation time: 0 hr 11 min 9 sec) 
Heartbeat CPU 0 instructions: 110000000 cycles: 123215128 heartbeat IPC: 0.619159 cumulative IPC: 0.555808 (Simulation time: 0 hr 12 min 37 sec) 
Heartbeat CPU 0 instructions: 120000003 cycles: 138617555 heartbeat IPC: 0.649249 cumulative IPC: 0.567476 (Simulation time: 0 hr 14 min 3 sec) 
Heartbeat CPU 0 instructions: 130000003 cycles: 153414993 heartbeat IPC: 0.675793 cumulative IPC: 0.579078 (Simulation time: 0 hr 15 min 26 sec) 
Heartbeat CPU 0 instructions: 140000003 cycles: 167971117 heartbeat IPC: 0.686996 cumulative IPC: 0.589364 (Simulation time: 0 hr 16 min 49 sec) 
Heartbeat CPU 0 instructions: 150000003 cycles: 182059947 heartbeat IPC: 0.709782 cumulative IPC: 0.599536 (Simulation time: 0 hr 18 min 9 sec) 
Heartbeat CPU 0 instructions: 160000001 cycles: 195513172 heartbeat IPC: 0.743316 cumulative IPC: 0.610267 (Simulation time: 0 hr 19 min 27 sec) 
Heartbeat CPU 0 instructions: 170000003 cycles: 208816648 heartbeat IPC: 0.751683 cumulative IPC: 0.619987 (Simulation time: 0 hr 20 min 45 sec) 
Heartbeat CPU 0 instructions: 180000000 cycles: 222057402 heartbeat IPC: 0.755244 cumulative IPC: 0.628647 (Simulation time: 0 hr 22 min 2 sec) 
Heartbeat CPU 0 instructions: 190000003 cycles: 234935240 heartbeat IPC: 0.776528 cumulative IPC: 0.637317 (Simulation time: 0 hr 22 min 51 sec) 
Heartbeat CPU 0 instructions: 200000002 cycles: 247684837 heartbeat IPC: 0.784338 cumulative IPC: 0.645382 (Simulation time: 0 hr 23 min 36 sec) 
Heartbeat CPU 0 instructions: 210000000 cycles: 260085674 heartbeat IPC: 0.806397 cumulative IPC: 0.653538 (Simulation time: 0 hr 24 min 20 sec) 
Heartbeat CPU 0 instructions: 220000000 cycles: 272623898 heartbeat IPC: 0.797561 cumulative IPC: 0.660554 (Simulation time: 0 hr 25 min 4 sec) 
Heartbeat CPU 0 instructions: 230000002 cycles: 284866159 heartbeat IPC: 0.816843 cumulative IPC: 0.667651 (Simulation time: 0 hr 25 min 47 sec) 
Heartbeat CPU 0 instructions: 240000001 cycles: 297259334 heartbeat IPC: 0.806896 cumulative IPC: 0.673771 (Simulation time: 0 hr 26 min 30 sec) 
Heartbeat CPU 0 instructions: 250000002 cycles: 309532252 heartbeat IPC: 0.814802 cumulative IPC: 0.679653 (Simulation time: 0 hr 27 min 12 sec) 
Finished CPU 0 instructions: 200000001 cycles: 294268018 cumulative IPC: 0.679653 (Simulation time: 0 hr 27 min 12 sec) 
 Instruction ID: 250000259

ChampSim completed all CPUs

Region of Interest Statistics

CPU 0 cumulative IPC: 0.679653 instructions: 200000001 cycles: 294268018
ITLB SPEC fills:          0  NON-SPEC fills:          0
ITLB Test counter :          0
ITLB Leapfrog:          0
ITLB MSHR merge:          0
ITLB TOTAL     ACCESS:   26342682  HIT:   26342682  MISS:          0  HIT %:        100  MISS %:          0   MPKI: 0
ITLB LOAD TRANSLATION NON_SPEC    ACCESS:   26342682  HIT:   26342682  MISS:          0  HIT %:        100  MISS %:          0   MPKI: 0
ITLB PREFETCH  REQUESTED:          0  ISSUED:          0  USEFUL:          0  USELESS:          0
ITLB USEFUL LOAD PREFETCHES:          0 PREFETCH ISSUED TO LOWER LEVEL:          0  ACCURACY: -nan
ITLB TIMELY PREFETCHES:          0 LATE PREFETCHES: 0 DROPPED PREFETCHES: 0
ITLB COMMIT LATE PREFETCHES: 0 NORMAL LATE: 0 MISSED OPPORTUNITY: 0 UNCOVERED: 0
ITLB PREFETCHES SAME FILL-ORIGIN LEVEL: 0 DIFFERENT FILL-ORIGIN LEVEL: 0
ITLB AVERAGE MISS LATENCY: -nan cycles
ITLB AVERAGE MISS LATENCY LOAD: -nan cycles
ITLB AVERAGE MISS LATENCY PREFETCH: -nan cycles
ITLB AVERAGE MSHR OCCUPANCY: 0
ITLB MSHR FULL: 0
ITLB RQ	ACCESS:   34373474	FORWARD:          0	MERGED:    8030793	TO_CACHE:   26342681

DTLB SPEC fills:          0  NON-SPEC fills:          0
DTLB Test counter :          0
DTLB Leapfrog:          0
DTLB MSHR merge:          0
DTLB TOTAL     ACCESS:   36675127  HIT:   36521598  MISS:     153529  HIT %:    99.5814  MISS %:   0.418619   MPKI: 0.767645
DTLB LOAD TRANSLATION NON_SPEC    ACCESS:   36675127  HIT:   36521598  MISS:     153529  HIT %:    99.5814  MISS %:   0.418619   MPKI: 0.767645
DTLB PREFETCH  REQUESTED:          0  ISSUED:          0  USEFUL:          0  USELESS:          0
DTLB USEFUL LOAD PREFETCHES:          0 PREFETCH ISSUED TO LOWER LEVEL:          0  ACCURACY: -nan
DTLB TIMELY PREFETCHES:          0 LATE PREFETCHES: 0 DROPPED PREFETCHES: 0
DTLB COMMIT LATE PREFETCHES: 0 NORMAL LATE: 0 MISSED OPPORTUNITY: 0 UNCOVERED: 0
DTLB PREFETCHES SAME FILL-ORIGIN LEVEL: 0 DIFFERENT FILL-ORIGIN LEVEL: 0
DTLB AVERAGE MISS LATENCY: 122.216 cycles
DTLB AVERAGE MISS LATENCY LOAD: -nan cycles
DTLB AVERAGE MISS LATENCY PREFETCH: -nan cycles
DTLB AVERAGE MSHR OCCUPANCY: 0.0574324
DTLB MSHR FULL: 0
DTLB RQ	ACCESS:   57504434	FORWARD:          0	MERGED:   20793547	TO_CACHE:   36710887

STLB SPEC fills:          0  NON-SPEC fills:          0
STLB Test counter :          0
STLB Leapfrog:          0
STLB MSHR merge:          0
STLB TOTAL     ACCESS:    7064111  HIT:    6980805  MISS:      83306  HIT %:    98.8207  MISS %:    1.17928   MPKI: 0.41653
STLB LOAD TRANSLATION NON_SPEC    ACCESS:     153529  HIT:      70223  MISS:      83306  HIT %:    45.7392  MISS %:    54.2608   MPKI: 0.41653
STLB TRANSLATION FROM L1D PREFETCHER NON_SPEC    ACCESS:    6910582  HIT:    6910582  MISS:          0  HIT %:        100  MISS %:          0   MPKI: 0
STLB PREFETCH  REQUESTED:          0  ISSUED:          0  USEFUL:          0  USELESS:          0
STLB USEFUL LOAD PREFETCHES:          0 PREFETCH ISSUED TO LOWER LEVEL:          0  ACCURACY: -nan
STLB TIMELY PREFETCHES:          0 LATE PREFETCHES: 0 DROPPED PREFETCHES: 0
STLB COMMIT LATE PREFETCHES: 0 NORMAL LATE: 0 MISSED OPPORTUNITY: 0 UNCOVERED: 0
STLB PREFETCHES SAME FILL-ORIGIN LEVEL: 0 DIFFERENT FILL-ORIGIN LEVEL: 0
STLB AVERAGE MISS LATENCY: 209.325 cycles
STLB AVERAGE MISS LATENCY LOAD: -nan cycles
STLB AVERAGE MISS LATENCY PREFETCH: -nan cycles
STLB AVERAGE MSHR OCCUPANCY: 0.0481513
STLB MSHR FULL: 0
STLB RQ	ACCESS:   14253111	FORWARD:          0	MERGED:    7188258	TO_CACHE:    7064853

STLB Hit, L1D data hit: 0
STLB Hit, L2C data hit: 0
STLB Hit, LLC data hit: 0
STLB Hit, LLC data miss: 0
STLB STLB hints to L2: 0
L0D SPEC fills:   14012689  NON-SPEC fills:          0
L0D TimeGuard Request with older TS:     113188 Restricted eviction:      12882 read:    1237642
L0D Test counter :          0
L0D Leapfrog:          0
L0D MSHR merge:    3080851
L0D TOTAL     ACCESS:   23273816  HIT:    8065879  MISS:   15207937  HIT %:    34.6565  MISS %:    65.3435   MPKI: 76.0397
L0D LOAD      TOTAL       ACCESS:   23273816  HIT:    8065879  MISS:   15207937  HIT %:    34.6565  MISS %:    65.3435   MPKI: 76.0397
L0D LOAD      NON_SPEC    ACCESS:    2151714  HIT:     969348  MISS:    1182366  HIT %:      45.05  MISS %:      54.95   MPKI: 5.91183
L0D LOAD      SPEC        ACCESS:   21122102  HIT:    7096531  MISS:   14025571  HIT %:    33.5977  MISS %:    66.4023   MPKI: 70.1279
L0D PREFETCH  REQUESTED:          0  ISSUED:          0  USEFUL:          0  USELESS:          0
L0D USEFUL LOAD PREFETCHES:          0 PREFETCH ISSUED TO LOWER LEVEL:          0  ACCURACY: -nan
L0D TIMELY PREFETCHES:          0 LATE PREFETCHES: 0 DROPPED PREFETCHES: 0
L0D COMMIT LATE PREFETCHES: 0 NORMAL LATE: 0 MISSED OPPORTUNITY: 0 UNCOVERED: 0
L0D PREFETCHES SAME FILL-ORIGIN LEVEL: 0 DIFFERENT FILL-ORIGIN LEVEL: 0
L0D AVERAGE MISS LATENCY: 35.142 cycles
L0D AVERAGE MISS LATENCY LOAD: 35.142 cycles
L0D AVERAGE MISS LATENCY PREFETCH: -nan cycles
L0D AVERAGE MSHR OCCUPANCY: 1.07265
L0D MSHR FULL: 0.0143923
L0D RQ	ACCESS:   43067903	FORWARD:          0	MERGED:   16713235	TO_CACHE:   26354668
L0D WQ	ACCESS:   31149766	FORWARD:          0	MERGED:          0	TO_CACHE:   31149766

L1D SPEC fills:          0  NON-SPEC fills:      94840
L1D Test counter :          0
L1D Leapfrog:          0
L1D MSHR merge:     657086
L1D TOTAL     ACCESS:   84576820  HIT:   72302077  MISS:   12274743  HIT %:    85.4869  MISS %:    14.5131   MPKI: 61.3737
L1D LOAD      TOTAL       ACCESS:   15206350  HIT:   14205409  MISS:    1000941  HIT %:    93.4176  MISS %:    6.58239   MPKI: 5.0047
L1D LOAD      NON_SPEC    ACCESS:    1181708  HIT:    1086868  MISS:      94840  HIT %:    91.9743  MISS %:    8.02567   MPKI: 0.4742
L1D LOAD      SPEC        ACCESS:   14024642  HIT:   13118541  MISS:     906101  HIT %:    93.5392  MISS %:    6.46078   MPKI: 4.5305
L1D RFO       NON_SPEC    ACCESS:   30731088  HIT:   27871528  MISS:    2859560  HIT %:    90.6949  MISS %:     9.3051   MPKI: 14.2978
L1D PREFETCH  NON_SPEC    ACCESS:   12577242  HIT:    5115445  MISS:    7461797  HIT %:    40.6722  MISS %:    59.3278   MPKI: 37.309
L1D COMMIT LOAD NON_SPEC    ACCESS:   12173229  HIT:   12118462  MISS:      54767  HIT %:    99.5501  MISS %:   0.449897   MPKI: 0.273835
L1D COMMIT WRITE NON_SPEC    ACCESS:   13888911  HIT:   12991233  MISS:     897678  HIT %:    93.5367  MISS %:    6.46327   MPKI: 4.48839
L1D PREFETCH  REQUESTED:   16949116  ISSUED:   14111447  USEFUL:     345633  USELESS:    7116023
L1D USEFUL LOAD PREFETCHES:     345633 PREFETCH ISSUED TO LOWER LEVEL:    8652178  ACCURACY: 3.99475
L1D TIMELY PREFETCHES:     345633 LATE PREFETCHES: 665520 DROPPED PREFETCHES: 0
L1D COMMIT LATE PREFETCHES: 82214 NORMAL LATE: 683553 MISSED OPPORTUNITY: 73914 UNCOVERED: 171420
L1D PREFETCHES SAME FILL-ORIGIN LEVEL: 8652178 DIFFERENT FILL-ORIGIN LEVEL: 0
L1D AVERAGE MISS LATENCY: 190.827 cycles
L1D AVERAGE MISS LATENCY LOAD: 394.604 cycles
L1D AVERAGE MISS LATENCY PREFETCH: 187.989 cycles
L1D AVERAGE MSHR OCCUPANCY: 12.4856
L1D MSHR FULL: 0.584492
L1D RQ	ACCESS:   42029057	FORWARD:          0	MERGED:   14627830	TO_CACHE:   27381368
L1D WQ	ACCESS:   45048188	FORWARD:      19859	MERGED:     402329	TO_CACHE:   44645859
L1D PQ	ACCESS:   14111447	FORWARD:          0	MERGED:      11865	TO_CACHE:   14099582

L1D UNIQUE REGIONS ACCESSED: 0
L1D REGIONS CONFLICTS: 0
L1D Cross Page Prefetch Requests: 0
L1D Same Page Prefetch Requests: 18716444
L1D ROI Sum of L1D PQ occupancy: 737899410
L1D PREFETCHES PUSHED FROM L2C: 0
L1I SPEC fills:          0  NON-SPEC fills:          0
L1I Test counter :          0
L1I Leapfrog:          0
L1I MSHR merge:          0
L1I TOTAL     ACCESS:   34373474  HIT:   34373474  MISS:          0  HIT %:        100  MISS %:          0   MPKI: 0
L1I LOAD      TOTAL       ACCESS:   34373474  HIT:   34373474  MISS:          0  HIT %:        100  MISS %:          0   MPKI: 0
L1I LOAD      NON_SPEC    ACCESS:   34373474  HIT:   34373474  MISS:          0  HIT %:        100  MISS %:          0   MPKI: 0
L1I PREFETCH  REQUESTED:          0  ISSUED:          0  USEFUL:          0  USELESS:          0
L1I USEFUL LOAD PREFETCHES:          0 PREFETCH ISSUED TO LOWER LEVEL:          0  ACCURACY: -nan
L1I TIMELY PREFETCHES:          0 LATE PREFETCHES: 0 DROPPED PREFETCHES: 0
L1I COMMIT LATE PREFETCHES: 0 NORMAL LATE: 0 MISSED OPPORTUNITY: 0 UNCOVERED: 0
L1I PREFETCHES SAME FILL-ORIGIN LEVEL: 0 DIFFERENT FILL-ORIGIN LEVEL: 0
L1I AVERAGE MISS LATENCY: -nan cycles
L1I AVERAGE MISS LATENCY LOAD: -nan cycles
L1I AVERAGE MISS LATENCY PREFETCH: -nan cycles
L1I AVERAGE MSHR OCCUPANCY: 0
L1I MSHR FULL: 0
L1I RQ	ACCESS:   48922951	FORWARD:          0	MERGED:   14549477	TO_CACHE:   34373474

BTB SPEC fills:          0  NON-SPEC fills:          0
BTB Test counter :          0
BTB Leapfrog:          0
BTB MSHR merge:          0
BTB TOTAL     ACCESS:    2423395  HIT:    2423389  MISS:          6  HIT %:    99.9998  MISS %: 0.000247587   MPKI: 3e-05
BTB BRANCH_DIRECT_JUMP	ACCESS:     120779  HIT:     120778  MISS:          1
BTB BRANCH_INDIRECT	ACCESS:          0  HIT:          0  MISS:          0
BTB BRANCH_CONDITIONAL	ACCESS:    2302616  HIT:    2302611  MISS:          5
BTB BRANCH_DIRECT_CALL	ACCESS:          0  HIT:          0  MISS:          0
BTB BRANCH_INDIRECT_CALL	ACCESS:          0  HIT:          0  MISS:          0
BTB BRANCH_RETURN	ACCESS:          0  HIT:          0  MISS:          0
BTB BRANCH_OTHER ACCESS:          0  HIT:          0  MISS:          0

L2C SPEC fills:          0  NON-SPEC fills:      15521
L2C Test counter :          0
L2C Leapfrog:          0
L2C MSHR merge:          0
L2C TOTAL     ACCESS:   20589762  HIT:   14867068  MISS:    5722694  HIT %:    72.2061  MISS %:    27.7939   MPKI: 28.6135
L2C LOAD      TOTAL       ACCESS:     345442  HIT:        293  MISS:     345149  HIT %:  0.0848189  MISS %:    99.9152   MPKI: 1.72574
L2C LOAD      NON_SPEC    ACCESS:      15527  HIT:          6  MISS:      15521  HIT %:  0.0386424  MISS %:    99.9614   MPKI: 0.077605
L2C LOAD      SPEC        ACCESS:     329915  HIT:        287  MISS:     329628  HIT %:  0.0869921  MISS %:     99.913   MPKI: 1.64814
L2C RFO       NON_SPEC    ACCESS:    2334706  HIT:    1414276  MISS:     920430  HIT %:    60.5762  MISS %:    39.4238   MPKI: 4.60215
L2C PREFETCH  NON_SPEC    ACCESS:    8652172  HIT:    4505788  MISS:    4146384  HIT %:     52.077  MISS %:     47.923   MPKI: 20.7319
L2C WRITEBACK NON_SPEC    ACCESS:    7461716  HIT:    7458634  MISS:       3082  HIT %:    99.9587  MISS %:  0.0413042   MPKI: 0.01541
L2C CLEAN_EVICTION NON_SPEC    ACCESS:    1334531  HIT:    1080880  MISS:     253651  HIT %:    80.9932  MISS %:    19.0068   MPKI: 1.26825
L2C COMMIT LOAD NON_SPEC    ACCESS:      44746  HIT:       1269  MISS:      43477  HIT %:    2.83601  MISS %:     97.164   MPKI: 0.217385
L2C LOAD TRANSLATION NON_SPEC    ACCESS:     416449  HIT:     405928  MISS:      10521  HIT %:    97.4736  MISS %:    2.52636   MPKI: 0.052605
L2C PREFETCH  REQUESTED:          0  ISSUED:          0  USEFUL:     702069  USELESS:    3443060
L2C USEFUL LOAD PREFETCHES:     702069 PREFETCH ISSUED TO LOWER LEVEL:    4146390  ACCURACY: 16.9321
L2C TIMELY PREFETCHES:     702069 LATE PREFETCHES: 0 DROPPED PREFETCHES: 0
L2C COMMIT LATE PREFETCHES: 0 NORMAL LATE: 0 MISSED OPPORTUNITY: 0 UNCOVERED: 345149
L2C PREFETCHES SAME FILL-ORIGIN LEVEL: 0 DIFFERENT FILL-ORIGIN LEVEL: 0
L2C AVERAGE MISS LATENCY: 468.345 cycles
L2C AVERAGE MISS LATENCY LOAD: 448.61 cycles
L2C AVERAGE MISS LATENCY PREFETCH: 485.39 cycles
L2C AVERAGE MSHR OCCUPANCY: 9.84754
L2C MSHR FULL: 0
L2C RQ	ACCESS:    3141344	FORWARD:          0	MERGED:          0	TO_CACHE:    3141343
L2C WQ	ACCESS:    8797149	FORWARD:          1	MERGED:        900	TO_CACHE:    8796249
L2C PQ	ACCESS:    8652178	FORWARD:          0	MERGED:          0	TO_CACHE:    8652178

L2C Instructions Evicting Data 0
L2C Translations Evicting Data 10409
L2C Data Evicting Data 5115923
L2C Instructions Evicting Instructions 0
L2C Translations Evicting Instructions 0
L2C Data Evicting Instructions 0
L2C Instructions Evicting Translations 0
L2C Translations Evicting Translations 112
L2C Data Evicting Translations 9889
L2C Dense regions hint from L2: 0
PSCL5 SPEC fills:          0  NON-SPEC fills:          0
PSCL5 Test counter :          0
PSCL5 Leapfrog:          0
PSCL5 MSHR merge:          0
PSCL5 TOTAL     ACCESS:          0  HIT:          0  MISS:          0  HIT %:       -nan  MISS %:       -nan   MPKI: 0
PSCL5 PREFETCH  REQUESTED:          0  ISSUED:          0  USEFUL:          0  USELESS:          0
PSCL5 USEFUL LOAD PREFETCHES:          0 PREFETCH ISSUED TO LOWER LEVEL:          0  ACCURACY: -nan
PSCL5 TIMELY PREFETCHES:          0 LATE PREFETCHES: 0 DROPPED PREFETCHES: 0
PSCL5 COMMIT LATE PREFETCHES: 0 NORMAL LATE: 0 MISSED OPPORTUNITY: 0 UNCOVERED: 0
PSCL5 PREFETCHES SAME FILL-ORIGIN LEVEL: 0 DIFFERENT FILL-ORIGIN LEVEL: 0

PSCL4 SPEC fills:          0  NON-SPEC fills:          0
PSCL4 Test counter :          0
PSCL4 Leapfrog:          0
PSCL4 MSHR merge:          0
PSCL4 TOTAL     ACCESS:          0  HIT:          0  MISS:          0  HIT %:       -nan  MISS %:       -nan   MPKI: 0
PSCL4 PREFETCH  REQUESTED:          0  ISSUED:          0  USEFUL:          0  USELESS:          0
PSCL4 USEFUL LOAD PREFETCHES:          0 PREFETCH ISSUED TO LOWER LEVEL:          0  ACCURACY: -nan
PSCL4 TIMELY PREFETCHES:          0 LATE PREFETCHES: 0 DROPPED PREFETCHES: 0
PSCL4 COMMIT LATE PREFETCHES: 0 NORMAL LATE: 0 MISSED OPPORTUNITY: 0 UNCOVERED: 0
PSCL4 PREFETCHES SAME FILL-ORIGIN LEVEL: 0 DIFFERENT FILL-ORIGIN LEVEL: 0

PSCL3 SPEC fills:          0  NON-SPEC fills:          0
PSCL3 Test counter :          0
PSCL3 Leapfrog:          0
PSCL3 MSHR merge:          0
PSCL3 TOTAL     ACCESS:          0  HIT:          0  MISS:          0  HIT %:       -nan  MISS %:       -nan   MPKI: 0
PSCL3 PREFETCH  REQUESTED:          0  ISSUED:          0  USEFUL:          0  USELESS:          0
PSCL3 USEFUL LOAD PREFETCHES:          0 PREFETCH ISSUED TO LOWER LEVEL:          0  ACCURACY: -nan
PSCL3 TIMELY PREFETCHES:          0 LATE PREFETCHES: 0 DROPPED PREFETCHES: 0
PSCL3 COMMIT LATE PREFETCHES: 0 NORMAL LATE: 0 MISSED OPPORTUNITY: 0 UNCOVERED: 0
PSCL3 PREFETCHES SAME FILL-ORIGIN LEVEL: 0 DIFFERENT FILL-ORIGIN LEVEL: 0

PSCL2 SPEC fills:          0  NON-SPEC fills:          0
PSCL2 Test counter :          0
PSCL2 Leapfrog:          0
PSCL2 MSHR merge:          0
PSCL2 TOTAL     ACCESS:          0  HIT:          0  MISS:          0  HIT %:       -nan  MISS %:       -nan   MPKI: 0
PSCL2 PREFETCH  REQUESTED:          0  ISSUED:          0  USEFUL:          0  USELESS:          0
PSCL2 USEFUL LOAD PREFETCHES:          0 PREFETCH ISSUED TO LOWER LEVEL:          0  ACCURACY: -nan
PSCL2 TIMELY PREFETCHES:          0 LATE PREFETCHES: 0 DROPPED PREFETCHES: 0
PSCL2 COMMIT LATE PREFETCHES: 0 NORMAL LATE: 0 MISSED OPPORTUNITY: 0 UNCOVERED: 0
PSCL2 PREFETCHES SAME FILL-ORIGIN LEVEL: 0 DIFFERENT FILL-ORIGIN LEVEL: 0

LLC SPEC fills:          0  NON-SPEC fills:      15521
LLC Test counter :          0
LLC Leapfrog:          0
LLC MSHR merge:          0
LLC TOTAL     ACCESS:   10827101  HIT:    5157121  MISS:    5669980  HIT %:    47.6316  MISS %:    52.3684   MPKI: 28.3499
LLC LOAD      TOTAL       ACCESS:     345149  HIT:         11  MISS:     345138  HIT %: 0.00318703  MISS %:    99.9968   MPKI: 1.72569
LLC LOAD      NON_SPEC    ACCESS:      15521  HIT:          0  MISS:      15521  HIT %:          0  MISS %:        100   MPKI: 0.077605
LLC LOAD      SPEC        ACCESS:     329628  HIT:         11  MISS:     329617  HIT %:  0.0033371  MISS %:    99.9967   MPKI: 1.64808
LLC RFO       NON_SPEC    ACCESS:     920420  HIT:      17553  MISS:     902867  HIT %:    1.90706  MISS %:    98.0929   MPKI: 4.51433
LLC PREFETCH  NON_SPEC    ACCESS:    4146358  HIT:      31799  MISS:    4114559  HIT %:   0.766914  MISS %:    99.2331   MPKI: 20.5728
LLC WRITEBACK NON_SPEC    ACCESS:    4033446  HIT:    4033353  MISS:         93  HIT %:    99.9977  MISS %: 0.00230572   MPKI: 0.000465
LLC CLEAN_EVICTION NON_SPEC    ACCESS:    1327730  HIT:    1074398  MISS:     253332  HIT %:    80.9199  MISS %:    19.0801   MPKI: 1.26666
LLC COMMIT LOAD NON_SPEC    ACCESS:      43477  HIT:          0  MISS:      43477  HIT %:          0  MISS %:        100   MPKI: 0.217385
LLC LOAD TRANSLATION NON_SPEC    ACCESS:      10521  HIT:          7  MISS:      10514  HIT %:  0.0665336  MISS %:    99.9335   MPKI: 0.05257
LLC PREFETCH  REQUESTED:          0  ISSUED:          0  USEFUL:       8377  USELESS:    4100415
LLC USEFUL LOAD PREFETCHES:       8377 PREFETCH ISSUED TO LOWER LEVEL:    4114565  ACCURACY: 0.203594
LLC TIMELY PREFETCHES:       8377 LATE PREFETCHES: 0 DROPPED PREFETCHES: 0
LLC COMMIT LATE PREFETCHES: 0 NORMAL LATE: 0 MISSED OPPORTUNITY: 0 UNCOVERED: 0
LLC PREFETCHES SAME FILL-ORIGIN LEVEL: 0 DIFFERENT FILL-ORIGIN LEVEL: 0
LLC AVERAGE MISS LATENCY: 443.874 cycles
LLC AVERAGE MISS LATENCY LOAD: 426.693 cycles
LLC AVERAGE MISS LATENCY PREFETCH: 458.501 cycles
LLC AVERAGE MSHR OCCUPANCY: 9.69812
LLC MSHR FULL: 0
LLC RQ	ACCESS:    1319577	FORWARD:          0	MERGED:          0	TO_CACHE:    1319567
LLC WQ	ACCESS:    5361181	FORWARD:         36	MERGED:          0	TO_CACHE:    5361181
LLC PQ	ACCESS:    4146390	FORWARD:          0	MERGED:          0	TO_CACHE:    4146364

LLC Dense regions hint to LLC: 0

RAW hits: 4691202
Loads Generated: 47759106
Loads sent to L1D: 43067903
Stores Generated: 31149761
Stores sent to L1D: 31149766
Major fault: 0 Minor fault: 61402
Allocated PAGES: 61402
Total Load insts: 54296850
Total Non-spec loads: 2762118
Percentage of speculative loads: 94.9129

LeapFrogging counter: 3445529
Commit hits: 13899506 miss: 26821121
Commit hit %: 34.1338 miss %: 65.8662
Commits not translated: 0
Loads retired: 1000941
Stores retired: 31149766
Cache fills: 1000941
L1D response latency: 394.604 cycles
Load retirement latency: 567.451 cycles
OOO test counter: 0
Discarded buffer inserts: 13899506 hits: 59321 hit %: 0.426785
Filter prediction accuracy: -nan

stream: 
stream:times selected: 36093661
stream:pref_filled: 5199637
stream:pref_useful: 210301
stream:pref_late: 31300
stream:misses: 520323
stream:misses_by_poll: 0

CS: 
CS:times selected: 6453
CS:pref_filled: 792
CS:pref_useful: 89
CS:pref_late: 3
CS:misses: 350
CS:misses_by_poll: 17

CPLX: 
CPLX:times selected: 36089223
CPLX:pref_filled: 4929579
CPLX:pref_useful: 407831
CPLX:pref_late: 87655
CPLX:misses: 8540714
CPLX:misses_by_poll: 274396

NL_L1: 
NL:times selected: 2563
NL:pref_filled: 139
NL:pref_useful: 19
NL:pref_late: 1
NL:misses: 544
NL:misses_by_poll: 3

total selections: 72191900
total_filled: 7461797
total_useful: 345633
total_late: 120949
total_polluted: 274416
total_misses_after_warmup: 6688397
conflicts: 201114
Degree Incremented Times: 0
Degree Decremented Times: 1938531

L1 IP Table Write Accesses: 74557002
L1 IP Table Read Accesses: 74355888
L1 RST Write Accesses: 26672696
L1 RST Read Accesses: 53345392
L1 CSPT Write Accesses: 26672696
L1 CSPT Read Accesses: 53343433
L1 RR Filter Tag Write Accesses: 16949116
L1 RR Filter Tag Read Accesses: 1228568094
L1 IP Table Tag Write Accesses: 78883562
L1 IP Table Tag Read Accesses: 78883562
L1 RST Tag Write Accesses: 0
L1 RST Tag Read Accesses: 240112779
L1 RR Filter Write Accesses: 0
L1 RR Filter Read Accesses: 51358094
test: 2117658

stream: 
stream:times selected: 5431035
stream:pref_filled: 5199637
stream:pref_useful: 210301
stream:pref_late: 31300
stream:misses: 84196
stream:misses_by_poll: 0

CS: 
CS:times selected: 1959409
CS:pref_filled: 792
CS:pref_useful: 89
CS:pref_late: 3
CS:misses: 80989
CS:misses_by_poll: 1

CPLX: 
CPLX:times selected: 5251914
CPLX:pref_filled: 4929579
CPLX:pref_useful: 407831
CPLX:pref_late: 87655
CPLX:misses: 1114654
CPLX:misses_by_poll: 14303

NL_L1: 
NL:times selected: 2516
NL:pref_filled: 139
NL:pref_useful: 19
NL:pref_late: 1
NL:misses: 345
NL:misses_by_poll: 0

total selections: 12644874
total_filled: 7461797
total_useful: 345633
total_late: 120949
total_polluted: 14304
total_misses_after_warmup: 1002528
conflicts: 60274
Degree Incremented Times: 0
Degree Decremented Times: 278479

L1 IP Table Write Accesses: 14871405
L1 IP Table Read Accesses: 14811131
L1 RST Write Accesses: 4458849
L1 RST Read Accesses: 8917698
L1 CSPT Write Accesses: 4458849
L1 CSPT Read Accesses: 8914340
L1 RR Filter Tag Write Accesses: 1341715
L1 RR Filter Tag Read Accesses: 256291530
L1 IP Table Tag Write Accesses: 15207937
L1 IP Table Tag Read Accesses: 15207937
L1 RST Tag Write Accesses: 0
L1 RST Tag Read Accesses: 40434668
L1 RR Filter Write Accesses: 0
L1 RR Filter Read Accesses: 8699956
test_pseudo: 742765

DRAM Statistics
 CHANNEL 0
 RQ ROW_BUFFER_HIT:     375602  ROW_BUFFER_MISS:    5040954
 DBUS_CONGESTED:         16
 WQ ROW_BUFFER_HIT:    1282874  ROW_BUFFER_MISS:    4043310  FULL:       1441

 AVG_CONGESTED_CYCLE: 6
 All warmup complete: 2
Channel 0 Bank busy for read cycles: 0
Channel 0 Bank busy for write cycles: 0
Channel 0
Rank 0
0banks busy for read cycles: 6231225
0banks busy for write cycles: 6290
1banks busy for read cycles: 7374093
1banks busy for write cycles: 1087616
2banks busy for read cycles: 11370103
2banks busy for write cycles: 948961
3banks busy for read cycles: 28785659
3banks busy for write cycles: 908444
4banks busy for read cycles: 24154327
4banks busy for write cycles: 920858
5banks busy for read cycles: 33216322
5banks busy for write cycles: 952712
6banks busy for read cycles: 36362495
6banks busy for write cycles: 1061040
7banks busy for read cycles: 27469877
7banks busy for write cycles: 6824305
8banks busy for read cycles: 9267978
8banks busy for write cycles: 97325714

CPU 0 Branch Prediction Accuracy: 99.0972% MPKI: 0.10939 Average ROB Occupancy at Mispredict: 195.507
Branch types
NOT_BRANCH: 197576473 98.7882%
BRANCH_DIRECT_JUMP: 120779 0.0603895%
BRANCH_INDIRECT: 0 0%
BRANCH_CONDITIONAL: 2302626 1.15131%
BRANCH_DIRECT_CALL: 0 0%
BRANCH_INDIRECT_CALL: 0 0%
BRANCH_RETURN: 0 0%
BRANCH_OTHER: 0 0%

DRAM PAGES: 1048576
Allocated PAGES: 61402
