
*** ChampSim Multicore Out-of-Order Simulator ***

Warmup Instructions: 50000000
Simulation Instructions: 200000000
Number of CPUs: 1
LLC sets: 2048
LLC ways: 16
L0D sets: 16
L0D ways: 2
ROB size: 352
LQ size: 128
SQ size: 72
Secure Berti: OFF
Berti: OFF
Berti Fill: OFF
On commit prefetching: ON
Hit-based filter: OFF
Time-guarding: ON
Free-slotting: ON
Leap-frogging: ON
Train prefetcher on L0D bypass: OFF
No translation penalty for prefetchers: OFF
Prefetch to L0D only: OFF
Prefetch to L1D only: OFF
Clean evictions: ON
Commit loads: ON
Commit write: ON
Fill commit loads to L2C, LLC: ON
DRAM IO FREQUENCY: 6400
ROB SIZE: 352
Off-chip DRAM Size: 4096 MB Channels: 1 Width: 64-bit Data Rate: 6400 MT/s
CPU 0 runs /home/sumon/secure_berti/GhostMinion/../../traces/spec/619.lbm_s-3766B.champsimtrace.xz
.xz
BTB has LRU replacement policy
ITLB has LRU replacement policy
DTLB has LRU replacement policy
STLB has LRU replacement policy
L1I has LRU replacement policy
L0D has LRU replacement policy
IP Table Entries: 1024
CSPT Entries: 128
RR_ENTRIES: 32
RST_ENTRIES: 8
IP Table Entries: 1024
CSPT Entries: 128
RR_ENTRIES: 32
RST_ENTRIES: 8
L1D has LRU replacement policy
L2C has LRU replacement policy
LLC has LRU replacement policy
Heartbeat CPU 0 instructions: 10000000 cycles: 2863227 heartbeat IPC: 3.49256 cumulative IPC: 3.49256 (Simulation time: 0 hr 0 min 45 sec) 
Heartbeat CPU 0 instructions: 20000002 cycles: 5730755 heartbeat IPC: 3.48732 cumulative IPC: 3.48994 (Simulation time: 0 hr 1 min 31 sec) 
Heartbeat CPU 0 instructions: 30000000 cycles: 8593961 heartbeat IPC: 3.49259 cumulative IPC: 3.49082 (Simulation time: 0 hr 2 min 17 sec) 
Heartbeat CPU 0 instructions: 40000003 cycles: 11461167 heartbeat IPC: 3.48772 cumulative IPC: 3.49005 (Simulation time: 0 hr 3 min 3 sec) 
Heartbeat CPU 0 instructions: 50000000 cycles: 14328467 heartbeat IPC: 3.4876 cumulative IPC: 3.48956 (Simulation time: 0 hr 3 min 49 sec) 

Warmup complete CPU 0 instructions: 50000004 cycles: 14328468 (Simulation time: 0 hr 3 min 49 sec) 

Heartbeat CPU 0 instructions: 60000000 cycles: 26168213 heartbeat IPC: 0.844613 cumulative IPC: 0.844612 (Simulation time: 0 hr 4 min 29 sec) 
Heartbeat CPU 0 instructions: 70000000 cycles: 38131491 heartbeat IPC: 0.835891 cumulative IPC: 0.840229 (Simulation time: 0 hr 5 min 11 sec) 
Heartbeat CPU 0 instructions: 80000003 cycles: 49941399 heartbeat IPC: 0.846747 cumulative IPC: 0.842391 (Simulation time: 0 hr 5 min 57 sec) 
Heartbeat CPU 0 instructions: 90000001 cycles: 61913991 heartbeat IPC: 0.835241 cumulative IPC: 0.840592 (Simulation time: 0 hr 6 min 44 sec) 
Heartbeat CPU 0 instructions: 100000003 cycles: 73708363 heartbeat IPC: 0.847862 cumulative IPC: 0.842036 (Simulation time: 0 hr 7 min 31 sec) 
Heartbeat CPU 0 instructions: 110000000 cycles: 86265224 heartbeat IPC: 0.796377 cumulative IPC: 0.834066 (Simulation time: 0 hr 8 min 20 sec) 
Heartbeat CPU 0 instructions: 120000003 cycles: 99307615 heartbeat IPC: 0.766731 cumulative IPC: 0.823731 (Simulation time: 0 hr 9 min 9 sec) 
Heartbeat CPU 0 instructions: 130000000 cycles: 114900701 heartbeat IPC: 0.64131 cumulative IPC: 0.795448 (Simulation time: 0 hr 10 min 2 sec) 
Heartbeat CPU 0 instructions: 140000002 cycles: 132519779 heartbeat IPC: 0.567567 cumulative IPC: 0.761477 (Simulation time: 0 hr 11 min 0 sec) 
Heartbeat CPU 0 instructions: 150000002 cycles: 153049838 heartbeat IPC: 0.487091 cumulative IPC: 0.720869 (Simulation time: 0 hr 12 min 2 sec) 
Heartbeat CPU 0 instructions: 160000003 cycles: 178800614 heartbeat IPC: 0.388338 cumulative IPC: 0.668806 (Simulation time: 0 hr 13 min 12 sec) 
Heartbeat CPU 0 instructions: 170000003 cycles: 210136164 heartbeat IPC: 0.319126 cumulative IPC: 0.612846 (Simulation time: 0 hr 14 min 31 sec) 
Heartbeat CPU 0 instructions: 180000003 cycles: 244121342 heartbeat IPC: 0.294246 cumulative IPC: 0.565727 (Simulation time: 0 hr 15 min 56 sec) 
Heartbeat CPU 0 instructions: 190000001 cycles: 279865083 heartbeat IPC: 0.279769 cumulative IPC: 0.527234 (Simulation time: 0 hr 17 min 24 sec) 
Heartbeat CPU 0 instructions: 200000003 cycles: 312517786 heartbeat IPC: 0.306253 cumulative IPC: 0.503036 (Simulation time: 0 hr 18 min 45 sec) 
Heartbeat CPU 0 instructions: 210000003 cycles: 343069580 heartbeat IPC: 0.327313 cumulative IPC: 0.486705 (Simulation time: 0 hr 20 min 1 sec) 
Heartbeat CPU 0 instructions: 220000000 cycles: 370686329 heartbeat IPC: 0.362099 cumulative IPC: 0.477049 (Simulation time: 0 hr 21 min 13 sec) 
Heartbeat CPU 0 instructions: 230000000 cycles: 397886081 heartbeat IPC: 0.36765 cumulative IPC: 0.469291 (Simulation time: 0 hr 22 min 21 sec) 
Heartbeat CPU 0 instructions: 240000002 cycles: 423891849 heartbeat IPC: 0.38453 cumulative IPC: 0.463909 (Simulation time: 0 hr 23 min 26 sec) 
Heartbeat CPU 0 instructions: 250000002 cycles: 449742791 heartbeat IPC: 0.386833 cumulative IPC: 0.459333 (Simulation time: 0 hr 25 min 23 sec) 
Finished CPU 0 instructions: 200000001 cycles: 435414324 cumulative IPC: 0.459333 (Simulation time: 0 hr 25 min 23 sec) 
 Instruction ID: 250000037

ChampSim completed all CPUs

Region of Interest Statistics

CPU 0 cumulative IPC: 0.459333 instructions: 200000001 cycles: 435414324
ITLB SPEC fills:          0  NON-SPEC fills:          0
ITLB Test counter :          0
ITLB Leapfrog:          0
ITLB MSHR merge:          0
ITLB TOTAL     ACCESS:   26777959  HIT:   26777959  MISS:          0  HIT %:        100  MISS %:          0   MPKI: 0
ITLB LOAD TRANSLATION NON_SPEC    ACCESS:   26777959  HIT:   26777959  MISS:          0  HIT %:        100  MISS %:          0   MPKI: 0
ITLB PREFETCH  REQUESTED:          0  ISSUED:          0  USEFUL:          0  USELESS:          0
ITLB USEFUL LOAD PREFETCHES:          0 PREFETCH ISSUED TO LOWER LEVEL:          0  ACCURACY: -nan
ITLB TIMELY PREFETCHES:          0 LATE PREFETCHES: 0 DROPPED PREFETCHES: 0
ITLB COMMIT LATE PREFETCHES: 0 NORMAL LATE: 0 MISSED OPPORTUNITY: 0 UNCOVERED: 0
ITLB PREFETCHES SAME FILL-ORIGIN LEVEL: 0 DIFFERENT FILL-ORIGIN LEVEL: 0
ITLB AVERAGE MISS LATENCY: -nan cycles
ITLB AVERAGE MISS LATENCY LOAD: -nan cycles
ITLB AVERAGE MISS LATENCY PREFETCH: -nan cycles
ITLB AVERAGE MSHR OCCUPANCY: 0
ITLB MSHR FULL: 0
ITLB RQ	ACCESS:   34697402	FORWARD:          0	MERGED:    7919443	TO_CACHE:   26777959

DTLB SPEC fills:          0  NON-SPEC fills:          0
DTLB Test counter :          0
DTLB Leapfrog:          0
DTLB MSHR merge:          0
DTLB TOTAL     ACCESS:   39451228  HIT:   39225515  MISS:     225713  HIT %:    99.4279  MISS %:   0.572132   MPKI: 1.12856
DTLB LOAD TRANSLATION NON_SPEC    ACCESS:   39451228  HIT:   39225515  MISS:     225713  HIT %:    99.4279  MISS %:   0.572132   MPKI: 1.12856
DTLB PREFETCH  REQUESTED:          0  ISSUED:          0  USEFUL:          0  USELESS:          0
DTLB USEFUL LOAD PREFETCHES:          0 PREFETCH ISSUED TO LOWER LEVEL:          0  ACCURACY: -nan
DTLB TIMELY PREFETCHES:          0 LATE PREFETCHES: 0 DROPPED PREFETCHES: 0
DTLB COMMIT LATE PREFETCHES: 0 NORMAL LATE: 0 MISSED OPPORTUNITY: 0 UNCOVERED: 0
DTLB PREFETCHES SAME FILL-ORIGIN LEVEL: 0 DIFFERENT FILL-ORIGIN LEVEL: 0
DTLB AVERAGE MISS LATENCY: 128.231 cycles
DTLB AVERAGE MISS LATENCY LOAD: -nan cycles
DTLB AVERAGE MISS LATENCY PREFETCH: -nan cycles
DTLB AVERAGE MSHR OCCUPANCY: 0.0792777
DTLB MSHR FULL: 0
DTLB RQ	ACCESS:   61316068	FORWARD:          0	MERGED:   21775657	TO_CACHE:   39540411

STLB SPEC fills:          0  NON-SPEC fills:          0
STLB Test counter :          0
STLB Leapfrog:          0
STLB MSHR merge:          0
STLB TOTAL     ACCESS:    8073572  HIT:    7951102  MISS:     122470  HIT %:    98.4831  MISS %:    1.51692   MPKI: 0.61235
STLB LOAD TRANSLATION NON_SPEC    ACCESS:     225713  HIT:     103243  MISS:     122470  HIT %:    45.7408  MISS %:    54.2592   MPKI: 0.61235
STLB TRANSLATION FROM L1D PREFETCHER NON_SPEC    ACCESS:    7847859  HIT:    7847859  MISS:          0  HIT %:        100  MISS %:          0   MPKI: 0
STLB PREFETCH  REQUESTED:          0  ISSUED:          0  USEFUL:          0  USELESS:          0
STLB USEFUL LOAD PREFETCHES:          0 PREFETCH ISSUED TO LOWER LEVEL:          0  ACCURACY: -nan
STLB TIMELY PREFETCHES:          0 LATE PREFETCHES: 0 DROPPED PREFETCHES: 0
STLB COMMIT LATE PREFETCHES: 0 NORMAL LATE: 0 MISSED OPPORTUNITY: 0 UNCOVERED: 0
STLB PREFETCHES SAME FILL-ORIGIN LEVEL: 0 DIFFERENT FILL-ORIGIN LEVEL: 0
STLB AVERAGE MISS LATENCY: 219.93 cycles
STLB AVERAGE MISS LATENCY LOAD: -nan cycles
STLB AVERAGE MISS LATENCY PREFETCH: -nan cycles
STLB AVERAGE MSHR OCCUPANCY: 0.0557859
STLB MSHR FULL: 0
STLB RQ	ACCESS:   16094475	FORWARD:          0	MERGED:    8018158	TO_CACHE:    8076317

STLB Hit, L1D data hit: 0
STLB Hit, L2C data hit: 0
STLB Hit, LLC data hit: 0
STLB Hit, LLC data miss: 0
STLB STLB hints to L2: 0
L0D SPEC fills:   14583338  NON-SPEC fills:          0
L0D TimeGuard Request with older TS:     104268 Restricted eviction:      10815 read:    1007805
L0D Test counter :          0
L0D Leapfrog:          0
L0D MSHR merge:    3825587
L0D TOTAL     ACCESS:   22926622  HIT:    6960897  MISS:   15965725  HIT %:    30.3616  MISS %:    69.6384   MPKI: 79.8286
L0D LOAD      TOTAL       ACCESS:   22926622  HIT:    6960897  MISS:   15965725  HIT %:    30.3616  MISS %:    69.6384   MPKI: 79.8286
L0D LOAD      NON_SPEC    ACCESS:    2038167  HIT:     666595  MISS:    1371572  HIT %:    32.7056  MISS %:    67.2944   MPKI: 6.85786
L0D LOAD      SPEC        ACCESS:   20888455  HIT:    6294302  MISS:   14594153  HIT %:    30.1329  MISS %:    69.8671   MPKI: 72.9708
L0D PREFETCH  REQUESTED:          0  ISSUED:          0  USEFUL:          0  USELESS:          0
L0D USEFUL LOAD PREFETCHES:          0 PREFETCH ISSUED TO LOWER LEVEL:          0  ACCURACY: -nan
L0D TIMELY PREFETCHES:          0 LATE PREFETCHES: 0 DROPPED PREFETCHES: 0
L0D COMMIT LATE PREFETCHES: 0 NORMAL LATE: 0 MISSED OPPORTUNITY: 0 UNCOVERED: 0
L0D PREFETCHES SAME FILL-ORIGIN LEVEL: 0 DIFFERENT FILL-ORIGIN LEVEL: 0
L0D AVERAGE MISS LATENCY: 66.9291 cycles
L0D AVERAGE MISS LATENCY LOAD: 66.9291 cycles
L0D AVERAGE MISS LATENCY PREFETCH: -nan cycles
L0D AVERAGE MSHR OCCUPANCY: 1.56935
L0D MSHR FULL: 0.0453712
L0D RQ	ACCESS:   45914628	FORWARD:          0	MERGED:   19162420	TO_CACHE:   26752208
L0D WQ	ACCESS:   34563860	FORWARD:          0	MERGED:          0	TO_CACHE:   34563860

L1D SPEC fills:          0  NON-SPEC fills:      84091
L1D Test counter :          0
L1D Leapfrog:          0
L1D MSHR merge:     628855
L1D TOTAL     ACCESS:   90306187  HIT:   72562805  MISS:   17743382  HIT %:     80.352  MISS %:     19.648   MPKI: 88.7169
L1D LOAD      TOTAL       ACCESS:   15959817  HIT:   14332834  MISS:    1626983  HIT %:    89.8058  MISS %:    10.1942   MPKI: 8.13491
L1D LOAD      NON_SPEC    ACCESS:    1369111  HIT:    1285020  MISS:      84091  HIT %:     93.858  MISS %:    6.14201   MPKI: 0.420455
L1D LOAD      SPEC        ACCESS:   14590706  HIT:   13047814  MISS:    1542892  HIT %:    89.4255  MISS %:    10.5745   MPKI: 7.71446
L1D RFO       NON_SPEC    ACCESS:   33597194  HIT:   27142867  MISS:    6454327  HIT %:    80.7891  MISS %:    19.2109   MPKI: 32.2716
L1D PREFETCH  NON_SPEC    ACCESS:   13776156  HIT:    5809150  MISS:    7967006  HIT %:    42.1681  MISS %:    57.8319   MPKI: 39.835
L1D COMMIT LOAD NON_SPEC    ACCESS:   12542933  HIT:   12361071  MISS:     181862  HIT %:    98.5501  MISS %:    1.44992   MPKI: 0.90931
L1D COMMIT WRITE NON_SPEC    ACCESS:   14430087  HIT:   12916883  MISS:    1513204  HIT %:    89.5135  MISS %:    10.4865   MPKI: 7.56602
L1D PREFETCH  REQUESTED:   25080784  ISSUED:   15907842  USEFUL:     371389  USELESS:    7595802
L1D USEFUL LOAD PREFETCHES:     371389 PREFETCH ISSUED TO LOWER LEVEL:    9362419  ACCURACY: 3.96681
L1D TIMELY PREFETCHES:     371389 LATE PREFETCHES: 655586 DROPPED PREFETCHES: 0
L1D COMMIT LATE PREFETCHES: 230607 NORMAL LATE: 722575 MISSED OPPORTUNITY: 202652 UNCOVERED: 504281
L1D PREFETCHES SAME FILL-ORIGIN LEVEL: 9362419 DIFFERENT FILL-ORIGIN LEVEL: 0
L1D AVERAGE MISS LATENCY: 222.196 cycles
L1D AVERAGE MISS LATENCY LOAD: 477.379 cycles
L1D AVERAGE MISS LATENCY PREFETCH: 197.691 cycles
L1D AVERAGE MSHR OCCUPANCY: 14.5723
L1D MSHR FULL: 0.823561
L1D RQ	ACCESS:   45217245	FORWARD:          0	MERGED:   16635500	TO_CACHE:   28509353
L1D WQ	ACCESS:   49037560	FORWARD:      72392	MERGED:     922526	TO_CACHE:   48115034
L1D PQ	ACCESS:   15907842	FORWARD:          0	MERGED:      39080	TO_CACHE:   15868762

L1D UNIQUE REGIONS ACCESSED: 0
L1D REGIONS CONFLICTS: 0
L1D Cross Page Prefetch Requests: 0
L1D Same Page Prefetch Requests: 19284374
L1D ROI Sum of L1D PQ occupancy: 1823226216
L1D PREFETCHES PUSHED FROM L2C: 0
L1I SPEC fills:          0  NON-SPEC fills:          0
L1I Test counter :          0
L1I Leapfrog:          0
L1I MSHR merge:          0
L1I TOTAL     ACCESS:   34697400  HIT:   34697400  MISS:          0  HIT %:        100  MISS %:          0   MPKI: 0
L1I LOAD      TOTAL       ACCESS:   34697400  HIT:   34697400  MISS:          0  HIT %:        100  MISS %:          0   MPKI: 0
L1I LOAD      NON_SPEC    ACCESS:   34697400  HIT:   34697400  MISS:          0  HIT %:        100  MISS %:          0   MPKI: 0
L1I PREFETCH  REQUESTED:          0  ISSUED:          0  USEFUL:          0  USELESS:          0
L1I USEFUL LOAD PREFETCHES:          0 PREFETCH ISSUED TO LOWER LEVEL:          0  ACCURACY: -nan
L1I TIMELY PREFETCHES:          0 LATE PREFETCHES: 0 DROPPED PREFETCHES: 0
L1I COMMIT LATE PREFETCHES: 0 NORMAL LATE: 0 MISSED OPPORTUNITY: 0 UNCOVERED: 0
L1I PREFETCHES SAME FILL-ORIGIN LEVEL: 0 DIFFERENT FILL-ORIGIN LEVEL: 0
L1I AVERAGE MISS LATENCY: -nan cycles
L1I AVERAGE MISS LATENCY LOAD: -nan cycles
L1I AVERAGE MISS LATENCY PREFETCH: -nan cycles
L1I AVERAGE MSHR OCCUPANCY: 0
L1I MSHR FULL: 0
L1I RQ	ACCESS:   49925467	FORWARD:          0	MERGED:   15228065	TO_CACHE:   34697402

BTB SPEC fills:          0  NON-SPEC fills:          0
BTB Test counter :          0
BTB Leapfrog:          0
BTB MSHR merge:          0
BTB TOTAL     ACCESS:    3122104  HIT:    3122098  MISS:          6  HIT %:    99.9998  MISS %: 0.000192178   MPKI: 3e-05
BTB BRANCH_DIRECT_JUMP	ACCESS:     397756  HIT:     397755  MISS:          1
BTB BRANCH_INDIRECT	ACCESS:          0  HIT:          0  MISS:          0
BTB BRANCH_CONDITIONAL	ACCESS:    2724348  HIT:    2724343  MISS:          5
BTB BRANCH_DIRECT_CALL	ACCESS:          0  HIT:          0  MISS:          0
BTB BRANCH_INDIRECT_CALL	ACCESS:          0  HIT:          0  MISS:          0
BTB BRANCH_RETURN	ACCESS:          0  HIT:          0  MISS:          0
BTB BRANCH_OTHER ACCESS:          0  HIT:          0  MISS:          0

L2C SPEC fills:          0  NON-SPEC fills:      17743
L2C Test counter :          0
L2C Leapfrog:          0
L2C MSHR merge:          0
L2C TOTAL     ACCESS:   29773495  HIT:   20864015  MISS:    8909480  HIT %:    70.0758  MISS %:    29.9242   MPKI: 44.5474
L2C LOAD      TOTAL       ACCESS:    1004033  HIT:       1572  MISS:    1002461  HIT %:   0.156569  MISS %:    99.8434   MPKI: 5.0123
L2C LOAD      NON_SPEC    ACCESS:      17772  HIT:         29  MISS:      17743  HIT %:   0.163178  MISS %:    99.8368   MPKI: 0.088715
L2C LOAD      SPEC        ACCESS:     986261  HIT:       1543  MISS:     984718  HIT %:   0.156449  MISS %:    99.8436   MPKI: 4.92359
L2C RFO       NON_SPEC    ACCESS:    5714497  HIT:    3186897  MISS:    2527600  HIT %:    55.7686  MISS %:    44.2314   MPKI: 12.638
L2C PREFETCH  NON_SPEC    ACCESS:    9362410  HIT:    4882258  MISS:    4480152  HIT %:    52.1474  MISS %:    47.8526   MPKI: 22.4008
L2C WRITEBACK NON_SPEC    ACCESS:   10969986  HIT:   10968849  MISS:       1137  HIT %:    99.9896  MISS %:  0.0103646   MPKI: 0.005685
L2C CLEAN_EVICTION NON_SPEC    ACCESS:    1961117  HIT:    1223887  MISS:     737230  HIT %:    62.4076  MISS %:    37.5924   MPKI: 3.68615
L2C COMMIT LOAD NON_SPEC    ACCESS:     149223  HIT:       3780  MISS:     145443  HIT %:    2.53312  MISS %:    97.4669   MPKI: 0.727215
L2C LOAD TRANSLATION NON_SPEC    ACCESS:     612229  HIT:     596772  MISS:      15457  HIT %:    97.4753  MISS %:    2.52471   MPKI: 0.077285
L2C PREFETCH  REQUESTED:          0  ISSUED:          0  USEFUL:    1131188  USELESS:    3351109
L2C USEFUL LOAD PREFETCHES:    1131188 PREFETCH ISSUED TO LOWER LEVEL:    4480161  ACCURACY: 25.2488
L2C TIMELY PREFETCHES:    1131188 LATE PREFETCHES: 0 DROPPED PREFETCHES: 0
L2C COMMIT LATE PREFETCHES: 0 NORMAL LATE: 0 MISSED OPPORTUNITY: 0 UNCOVERED: 1002461
L2C PREFETCHES SAME FILL-ORIGIN LEVEL: 0 DIFFERENT FILL-ORIGIN LEVEL: 0
L2C AVERAGE MISS LATENCY: 479.091 cycles
L2C AVERAGE MISS LATENCY LOAD: 473.484 cycles
L2C AVERAGE MISS LATENCY PREFETCH: 510.027 cycles
L2C AVERAGE MSHR OCCUPANCY: 10.8814
L2C MSHR FULL: 0
L2C RQ	ACCESS:    7480000	FORWARD:          0	MERGED:          0	TO_CACHE:    7479985
L2C WQ	ACCESS:   12932316	FORWARD:         15	MERGED:       1211	TO_CACHE:   12931105
L2C PQ	ACCESS:    9362419	FORWARD:          0	MERGED:          0	TO_CACHE:    9362419

L2C Instructions Evicting Data 0
L2C Translations Evicting Data 15402
L2C Data Evicting Data 7156970
L2C Instructions Evicting Instructions 0
L2C Translations Evicting Instructions 0
L2C Data Evicting Instructions 0
L2C Instructions Evicting Translations 0
L2C Translations Evicting Translations 55
L2C Data Evicting Translations 13968
L2C Dense regions hint from L2: 0
PSCL5 SPEC fills:          0  NON-SPEC fills:          0
PSCL5 Test counter :          0
PSCL5 Leapfrog:          0
PSCL5 MSHR merge:          0
PSCL5 TOTAL     ACCESS:          0  HIT:          0  MISS:          0  HIT %:       -nan  MISS %:       -nan   MPKI: 0
PSCL5 PREFETCH  REQUESTED:          0  ISSUED:          0  USEFUL:          0  USELESS:          0
PSCL5 USEFUL LOAD PREFETCHES:          0 PREFETCH ISSUED TO LOWER LEVEL:          0  ACCURACY: -nan
PSCL5 TIMELY PREFETCHES:          0 LATE PREFETCHES: 0 DROPPED PREFETCHES: 0
PSCL5 COMMIT LATE PREFETCHES: 0 NORMAL LATE: 0 MISSED OPPORTUNITY: 0 UNCOVERED: 0
PSCL5 PREFETCHES SAME FILL-ORIGIN LEVEL: 0 DIFFERENT FILL-ORIGIN LEVEL: 0

PSCL4 SPEC fills:          0  NON-SPEC fills:          0
PSCL4 Test counter :          0
PSCL4 Leapfrog:          0
PSCL4 MSHR merge:          0
PSCL4 TOTAL     ACCESS:          0  HIT:          0  MISS:          0  HIT %:       -nan  MISS %:       -nan   MPKI: 0
PSCL4 PREFETCH  REQUESTED:          0  ISSUED:          0  USEFUL:          0  USELESS:          0
PSCL4 USEFUL LOAD PREFETCHES:          0 PREFETCH ISSUED TO LOWER LEVEL:          0  ACCURACY: -nan
PSCL4 TIMELY PREFETCHES:          0 LATE PREFETCHES: 0 DROPPED PREFETCHES: 0
PSCL4 COMMIT LATE PREFETCHES: 0 NORMAL LATE: 0 MISSED OPPORTUNITY: 0 UNCOVERED: 0
PSCL4 PREFETCHES SAME FILL-ORIGIN LEVEL: 0 DIFFERENT FILL-ORIGIN LEVEL: 0

PSCL3 SPEC fills:          0  NON-SPEC fills:          0
PSCL3 Test counter :          0
PSCL3 Leapfrog:          0
PSCL3 MSHR merge:          0
PSCL3 TOTAL     ACCESS:          0  HIT:          0  MISS:          0  HIT %:       -nan  MISS %:       -nan   MPKI: 0
PSCL3 PREFETCH  REQUESTED:          0  ISSUED:          0  USEFUL:          0  USELESS:          0
PSCL3 USEFUL LOAD PREFETCHES:          0 PREFETCH ISSUED TO LOWER LEVEL:          0  ACCURACY: -nan
PSCL3 TIMELY PREFETCHES:          0 LATE PREFETCHES: 0 DROPPED PREFETCHES: 0
PSCL3 COMMIT LATE PREFETCHES: 0 NORMAL LATE: 0 MISSED OPPORTUNITY: 0 UNCOVERED: 0
PSCL3 PREFETCHES SAME FILL-ORIGIN LEVEL: 0 DIFFERENT FILL-ORIGIN LEVEL: 0

PSCL2 SPEC fills:          0  NON-SPEC fills:          0
PSCL2 Test counter :          0
PSCL2 Leapfrog:          0
PSCL2 MSHR merge:          0
PSCL2 TOTAL     ACCESS:          0  HIT:          0  MISS:          0  HIT %:       -nan  MISS %:       -nan   MPKI: 0
PSCL2 PREFETCH  REQUESTED:          0  ISSUED:          0  USEFUL:          0  USELESS:          0
PSCL2 USEFUL LOAD PREFETCHES:          0 PREFETCH ISSUED TO LOWER LEVEL:          0  ACCURACY: -nan
PSCL2 TIMELY PREFETCHES:          0 LATE PREFETCHES: 0 DROPPED PREFETCHES: 0
PSCL2 COMMIT LATE PREFETCHES: 0 NORMAL LATE: 0 MISSED OPPORTUNITY: 0 UNCOVERED: 0
PSCL2 PREFETCHES SAME FILL-ORIGIN LEVEL: 0 DIFFERENT FILL-ORIGIN LEVEL: 0

LLC SPEC fills:          0  NON-SPEC fills:      17742
LLC Test counter :          0
LLC Leapfrog:          0
LLC MSHR merge:          0
LLC TOTAL     ACCESS:   16045837  HIT:    7210153  MISS:    8835684  HIT %:    44.9347  MISS %:    55.0653   MPKI: 44.1784
LLC LOAD      TOTAL       ACCESS:    1002461  HIT:         13  MISS:    1002448  HIT %: 0.00129681  MISS %:    99.9987   MPKI: 5.01224
LLC LOAD      NON_SPEC    ACCESS:      17743  HIT:          1  MISS:      17742  HIT %: 0.00563603  MISS %:    99.9944   MPKI: 0.08871
LLC LOAD      SPEC        ACCESS:     984718  HIT:         12  MISS:     984706  HIT %: 0.00121862  MISS %:    99.9988   MPKI: 4.92353
LLC RFO       NON_SPEC    ACCESS:    2527562  HIT:      35042  MISS:    2492520  HIT %:     1.3864  MISS %:    98.6136   MPKI: 12.4626
LLC PREFETCH  NON_SPEC    ACCESS:    4480103  HIT:      37238  MISS:    4442865  HIT %:   0.831186  MISS %:    99.1688   MPKI: 22.2143
LLC WRITEBACK NON_SPEC    ACCESS:    5925125  HIT:    5924634  MISS:        491  HIT %:    99.9917  MISS %: 0.00828675   MPKI: 0.002455
LLC CLEAN_EVICTION NON_SPEC    ACCESS:    1949686  HIT:    1213223  MISS:     736463  HIT %:    62.2266  MISS %:    37.7734   MPKI: 3.68231
LLC COMMIT LOAD NON_SPEC    ACCESS:     145443  HIT:          0  MISS:     145443  HIT %:          0  MISS %:        100   MPKI: 0.727215
LLC LOAD TRANSLATION NON_SPEC    ACCESS:      15457  HIT:          3  MISS:      15454  HIT %:  0.0194087  MISS %:    99.9806   MPKI: 0.07727
LLC PREFETCH  REQUESTED:          0  ISSUED:          0  USEFUL:      14067  USELESS:    4439979
LLC USEFUL LOAD PREFETCHES:      14067 PREFETCH ISSUED TO LOWER LEVEL:    4442873  ACCURACY: 0.316619
LLC TIMELY PREFETCHES:      14067 LATE PREFETCHES: 0 DROPPED PREFETCHES: 0
LLC COMMIT LATE PREFETCHES: 0 NORMAL LATE: 0 MISSED OPPORTUNITY: 0 UNCOVERED: 0
LLC PREFETCHES SAME FILL-ORIGIN LEVEL: 0 DIFFERENT FILL-ORIGIN LEVEL: 0
LLC AVERAGE MISS LATENCY: 455.821 cycles
LLC AVERAGE MISS LATENCY LOAD: 451.804 cycles
LLC AVERAGE MISS LATENCY PREFETCH: 483.528 cycles
LLC AVERAGE MSHR OCCUPANCY: 10.347
LLC MSHR FULL: 0
LLC RQ	ACCESS:    3690963	FORWARD:          0	MERGED:          0	TO_CACHE:    3690925
LLC WQ	ACCESS:    7874813	FORWARD:         87	MERGED:          0	TO_CACHE:    7874813
LLC PQ	ACCESS:    4480161	FORWARD:          0	MERGED:          0	TO_CACHE:    4480112

LLC Dense regions hint to LLC: 0

RAW hits: 4479252
Loads Generated: 50393882
Loads sent to L1D: 45914628
Stores Generated: 34563853
Stores sent to L1D: 34563860
Major fault: 0 Minor fault: 72955
Allocated PAGES: 72955
Total Load insts: 55887656
Total Non-spec loads: 2599176
Percentage of speculative loads: 95.3493

LeapFrogging counter: 12154069
Commit hits: 14479088 miss: 29251521
Commit hit %: 33.1097 miss %: 66.8903
Commits not translated: 0
Loads retired: 1626983
Stores retired: 34563860
Cache fills: 1626983
L1D response latency: 477.379 cycles
Load retirement latency: 798.898 cycles
OOO test counter: 0
Discarded buffer inserts: 14479088 hits: 197653 hit %: 1.36509
Filter prediction accuracy: -nan

stream: 
stream:times selected: 41778625
stream:pref_filled: 5156543
stream:pref_useful: 209107
stream:pref_late: 24962
stream:misses: 693880
stream:misses_by_poll: 0

CS: 
CS:times selected: 5250
CS:pref_filled: 717
CS:pref_useful: 100
CS:pref_late: 14
CS:misses: 291
CS:misses_by_poll: 47

CPLX: 
CPLX:times selected: 41773733
CPLX:pref_filled: 4917075
CPLX:pref_useful: 420763
CPLX:pref_late: 72969
CPLX:misses: 11902001
CPLX:misses_by_poll: 313710

NL_L1: 
NL:times selected: 2714
NL:pref_filled: 112
NL:pref_useful: 6
NL:pref_late: 3
NL:misses: 586
NL:misses_by_poll: 13

total selections: 83560322
total_filled: 7967006
total_useful: 371389
total_late: 99336
total_polluted: 313770
total_misses_after_warmup: 13370284
conflicts: 578414
Degree Incremented Times: 0
Degree Decremented Times: 1634892

L1 IP Table Write Accesses: 80427237
L1 IP Table Read Accesses: 79848823
L1 RST Write Accesses: 35896106
L1 RST Read Accesses: 71792212
L1 CSPT Write Accesses: 35896106
L1 CSPT Read Accesses: 71788027
L1 RR Filter Tag Write Accesses: 25080784
L1 RR Filter Tag Read Accesses: 1615650156
L1 IP Table Tag Write Accesses: 84913446
L1 IP Table Tag Read Accesses: 84913446
L1 RST Tag Write Accesses: 0
L1 RST Tag Read Accesses: 323185899
L1 RR Filter Write Accesses: 0
L1 RR Filter Read Accesses: 68406337
test: 2628144

stream: 
stream:times selected: 5599441
stream:pref_filled: 5156543
stream:pref_useful: 209107
stream:pref_late: 24962
stream:misses: 111130
stream:misses_by_poll: 0

CS: 
CS:times selected: 1933259
CS:pref_filled: 717
CS:pref_useful: 100
CS:pref_late: 14
CS:misses: 344845
CS:misses_by_poll: 5

CPLX: 
CPLX:times selected: 4338334
CPLX:pref_filled: 4917075
CPLX:pref_useful: 420763
CPLX:pref_late: 72969
CPLX:misses: 1186857
CPLX:misses_by_poll: 8945

NL_L1: 
NL:times selected: 2960
NL:pref_filled: 112
NL:pref_useful: 6
NL:pref_late: 3
NL:misses: 566
NL:misses_by_poll: 0

total selections: 11873994
total_filled: 7967006
total_useful: 371389
total_late: 99336
total_polluted: 8950
total_misses_after_warmup: 1632891
conflicts: 122314
Degree Incremented Times: 0
Degree Decremented Times: 289105

L1 IP Table Write Accesses: 15544823
L1 IP Table Read Accesses: 15422509
L1 RST Write Accesses: 4856427
L1 RST Read Accesses: 9712854
L1 CSPT Write Accesses: 4856427
L1 CSPT Read Accesses: 8896958
L1 RR Filter Tag Write Accesses: 1953337
L1 RR Filter Tag Read Accesses: 264473527
L1 IP Table Tag Write Accesses: 15965725
L1 IP Table Tag Read Accesses: 15965725
L1 RST Tag Write Accesses: 0
L1 RST Tag Read Accesses: 43808263
L1 RR Filter Write Accesses: 0
L1 RR Filter Read Accesses: 9861296
test_pseudo: 892553

DRAM Statistics
 CHANNEL 0
 RQ ROW_BUFFER_HIT:     682333  ROW_BUFFER_MISS:    7416397
 DBUS_CONGESTED:         39
 WQ ROW_BUFFER_HIT:    1848067  ROW_BUFFER_MISS:    5976844  FULL:      12490

 AVG_CONGESTED_CYCLE: 4
 All warmup complete: 2
Channel 0 Bank busy for read cycles: 0
Channel 0 Bank busy for write cycles: 0
Channel 0
Rank 0
0banks busy for read cycles: 22415363
0banks busy for write cycles: 23066
1banks busy for read cycles: 10538081
1banks busy for write cycles: 2875186
2banks busy for read cycles: 13887202
2banks busy for write cycles: 2333839
3banks busy for read cycles: 27635534
3banks busy for write cycles: 2182658
4banks busy for read cycles: 28738115
4banks busy for write cycles: 2175965
5banks busy for read cycles: 41586621
5banks busy for write cycles: 2315512
6banks busy for read cycles: 49322486
6banks busy for write cycles: 2795894
7banks busy for read cycles: 49605831
7banks busy for write cycles: 12355953
8banks busy for read cycles: 26018621
8banks busy for write cycles: 138608398

CPU 0 Branch Prediction Accuracy: 97.6561% MPKI: 0.365925 Average ROB Occupancy at Mispredict: 220.243
Branch types
NOT_BRANCH: 196877353 98.4387%
BRANCH_DIRECT_JUMP: 397756 0.198878%
BRANCH_INDIRECT: 0 0%
BRANCH_CONDITIONAL: 2724542 1.36227%
BRANCH_DIRECT_CALL: 0 0%
BRANCH_INDIRECT_CALL: 0 0%
BRANCH_RETURN: 0 0%
BRANCH_OTHER: 0 0%

DRAM PAGES: 1048576
Allocated PAGES: 72955
