
*** ChampSim Multicore Out-of-Order Simulator ***

Warmup Instructions: 50000000
Simulation Instructions: 200000000
Number of CPUs: 1
LLC sets: 2048
LLC ways: 16
L0D sets: 16
L0D ways: 2
ROB size: 352
LQ size: 128
SQ size: 72
Secure Berti: OFF
Berti: OFF
Berti Fill: OFF
On commit prefetching: ON
Hit-based filter: OFF
Time-guarding: ON
Free-slotting: ON
Leap-frogging: ON
Train prefetcher on L0D bypass: OFF
No translation penalty for prefetchers: OFF
Prefetch to L0D only: OFF
Prefetch to L1D only: OFF
Clean evictions: ON
Commit loads: ON
Commit write: ON
Fill commit loads to L2C, LLC: ON
DRAM IO FREQUENCY: 6400
ROB SIZE: 352
Off-chip DRAM Size: 4096 MB Channels: 1 Width: 64-bit Data Rate: 6400 MT/s
CPU 0 runs /home/sumon/secure_berti/GhostMinion/../../traces/spec/620.omnetpp_s-874B.champsimtrace.xz
.xz
BTB has LRU replacement policy
ITLB has LRU replacement policy
DTLB has LRU replacement policy
STLB has LRU replacement policy
L1I has LRU replacement policy
L0D has LRU replacement policy
IP Table Entries: 1024
CSPT Entries: 128
RR_ENTRIES: 32
RST_ENTRIES: 8
IP Table Entries: 1024
CSPT Entries: 128
RR_ENTRIES: 32
RST_ENTRIES: 8
L1D has LRU replacement policy
L2C has LRU replacement policy
LLC has LRU replacement policy
Heartbeat CPU 0 instructions: 10000001 cycles: 8128517 heartbeat IPC: 1.23024 cumulative IPC: 1.23024 (Simulation time: 0 hr 1 min 14 sec) 
Heartbeat CPU 0 instructions: 20000000 cycles: 16261008 heartbeat IPC: 1.22964 cumulative IPC: 1.22994 (Simulation time: 0 hr 2 min 30 sec) 
Heartbeat CPU 0 instructions: 30000003 cycles: 24371711 heartbeat IPC: 1.23294 cumulative IPC: 1.23094 (Simulation time: 0 hr 3 min 50 sec) 
Heartbeat CPU 0 instructions: 40000000 cycles: 32508622 heartbeat IPC: 1.22897 cumulative IPC: 1.23044 (Simulation time: 0 hr 5 min 14 sec) 
Heartbeat CPU 0 instructions: 50000000 cycles: 40651058 heartbeat IPC: 1.22813 cumulative IPC: 1.22998 (Simulation time: 0 hr 6 min 39 sec) 

Warmup complete CPU 0 instructions: 50000004 cycles: 40651059 (Simulation time: 0 hr 6 min 39 sec) 

Heartbeat CPU 0 instructions: 60000001 cycles: 83140381 heartbeat IPC: 0.235353 cumulative IPC: 0.235353 (Simulation time: 0 hr 7 min 49 sec) 
Heartbeat CPU 0 instructions: 70000001 cycles: 124779820 heartbeat IPC: 0.240157 cumulative IPC: 0.237731 (Simulation time: 0 hr 8 min 59 sec) 
Heartbeat CPU 0 instructions: 80000002 cycles: 166799951 heartbeat IPC: 0.237981 cumulative IPC: 0.237814 (Simulation time: 0 hr 10 min 10 sec) 
Heartbeat CPU 0 instructions: 90000002 cycles: 208483635 heartbeat IPC: 0.239902 cumulative IPC: 0.238333 (Simulation time: 0 hr 11 min 20 sec) 
Heartbeat CPU 0 instructions: 100000000 cycles: 251064442 heartbeat IPC: 0.234848 cumulative IPC: 0.237627 (Simulation time: 0 hr 12 min 31 sec) 
Heartbeat CPU 0 instructions: 110000000 cycles: 293110962 heartbeat IPC: 0.237832 cumulative IPC: 0.237661 (Simulation time: 0 hr 13 min 42 sec) 
Heartbeat CPU 0 instructions: 120000003 cycles: 335061179 heartbeat IPC: 0.238378 cumulative IPC: 0.237764 (Simulation time: 0 hr 14 min 53 sec) 
Heartbeat CPU 0 instructions: 130000000 cycles: 377115954 heartbeat IPC: 0.237785 cumulative IPC: 0.237766 (Simulation time: 0 hr 16 min 4 sec) 
Heartbeat CPU 0 instructions: 140000001 cycles: 419055269 heartbeat IPC: 0.23844 cumulative IPC: 0.237841 (Simulation time: 0 hr 17 min 14 sec) 
Heartbeat CPU 0 instructions: 150000002 cycles: 461270232 heartbeat IPC: 0.236883 cumulative IPC: 0.237745 (Simulation time: 0 hr 18 min 24 sec) 
Heartbeat CPU 0 instructions: 160000000 cycles: 503752783 heartbeat IPC: 0.235391 cumulative IPC: 0.237529 (Simulation time: 0 hr 19 min 35 sec) 
Heartbeat CPU 0 instructions: 170000000 cycles: 545525120 heartbeat IPC: 0.239393 cumulative IPC: 0.237683 (Simulation time: 0 hr 20 min 44 sec) 
Heartbeat CPU 0 instructions: 180000000 cycles: 587582545 heartbeat IPC: 0.23777 cumulative IPC: 0.23769 (Simulation time: 0 hr 21 min 53 sec) 
Heartbeat CPU 0 instructions: 190000003 cycles: 629617007 heartbeat IPC: 0.2379 cumulative IPC: 0.237705 (Simulation time: 0 hr 22 min 58 sec) 
Heartbeat CPU 0 instructions: 200000000 cycles: 671525786 heartbeat IPC: 0.238613 cumulative IPC: 0.237765 (Simulation time: 0 hr 24 min 3 sec) 
Heartbeat CPU 0 instructions: 210000000 cycles: 713630174 heartbeat IPC: 0.237505 cumulative IPC: 0.237749 (Simulation time: 0 hr 25 min 7 sec) 
Heartbeat CPU 0 instructions: 220000000 cycles: 755735956 heartbeat IPC: 0.237497 cumulative IPC: 0.237734 (Simulation time: 0 hr 26 min 11 sec) 
Heartbeat CPU 0 instructions: 230000002 cycles: 797374672 heartbeat IPC: 0.240161 cumulative IPC: 0.237868 (Simulation time: 0 hr 27 min 11 sec) 
Heartbeat CPU 0 instructions: 240000001 cycles: 839564876 heartbeat IPC: 0.237022 cumulative IPC: 0.237823 (Simulation time: 0 hr 28 min 9 sec) 
Heartbeat CPU 0 instructions: 250000000 cycles: 881519417 heartbeat IPC: 0.238353 cumulative IPC: 0.237849 (Simulation time: 0 hr 29 min 6 sec) 
Finished CPU 0 instructions: 200000000 cycles: 840868359 cumulative IPC: 0.237849 (Simulation time: 0 hr 29 min 6 sec) 
 Instruction ID: 250000019

ChampSim completed all CPUs

Region of Interest Statistics

CPU 0 cumulative IPC: 0.237849 instructions: 200000000 cycles: 840868359
ITLB SPEC fills:          0  NON-SPEC fills:          0
ITLB Test counter :          0
ITLB Leapfrog:          0
ITLB MSHR merge:          0
ITLB TOTAL     ACCESS:   32903749  HIT:   32586388  MISS:     317361  HIT %:    99.0355  MISS %:   0.964513   MPKI: 1.58681
ITLB LOAD TRANSLATION NON_SPEC    ACCESS:   32903749  HIT:   32586388  MISS:     317361  HIT %:    99.0355  MISS %:   0.964513   MPKI: 1.58681
ITLB PREFETCH  REQUESTED:          0  ISSUED:          0  USEFUL:          0  USELESS:          0
ITLB USEFUL LOAD PREFETCHES:          0 PREFETCH ISSUED TO LOWER LEVEL:          0  ACCURACY: -nan
ITLB TIMELY PREFETCHES:          0 LATE PREFETCHES: 0 DROPPED PREFETCHES: 0
ITLB COMMIT LATE PREFETCHES: 0 NORMAL LATE: 0 MISSED OPPORTUNITY: 0 UNCOVERED: 0
ITLB PREFETCHES SAME FILL-ORIGIN LEVEL: 0 DIFFERENT FILL-ORIGIN LEVEL: 0
ITLB AVERAGE MISS LATENCY: 11.0258 cycles
ITLB AVERAGE MISS LATENCY LOAD: -nan cycles
ITLB AVERAGE MISS LATENCY PREFETCH: -nan cycles
ITLB AVERAGE MSHR OCCUPANCY: 0.00937843
ITLB MSHR FULL: 0
ITLB RQ	ACCESS:   37063008	FORWARD:          0	MERGED:    4062694	TO_CACHE:   33000314

DTLB SPEC fills:          0  NON-SPEC fills:          0
DTLB Test counter :          0
DTLB Leapfrog:          0
DTLB MSHR merge:          0
DTLB TOTAL     ACCESS:   81788418  HIT:   77976751  MISS:    3811667  HIT %:    95.3396  MISS %:     4.6604   MPKI: 19.0583
DTLB LOAD TRANSLATION NON_SPEC    ACCESS:   81788418  HIT:   77976751  MISS:    3811667  HIT %:    95.3396  MISS %:     4.6604   MPKI: 19.0583
DTLB PREFETCH  REQUESTED:          0  ISSUED:          0  USEFUL:          0  USELESS:          0
DTLB USEFUL LOAD PREFETCHES:          0 PREFETCH ISSUED TO LOWER LEVEL:          0  ACCURACY: -nan
DTLB TIMELY PREFETCHES:          0 LATE PREFETCHES: 0 DROPPED PREFETCHES: 0
DTLB COMMIT LATE PREFETCHES: 0 NORMAL LATE: 0 MISSED OPPORTUNITY: 0 UNCOVERED: 0
DTLB PREFETCHES SAME FILL-ORIGIN LEVEL: 0 DIFFERENT FILL-ORIGIN LEVEL: 0
DTLB AVERAGE MISS LATENCY: 48.7916 cycles
DTLB AVERAGE MISS LATENCY LOAD: -nan cycles
DTLB AVERAGE MISS LATENCY PREFETCH: -nan cycles
DTLB AVERAGE MSHR OCCUPANCY: 0.123964
DTLB MSHR FULL: 5.29843e-05
DTLB RQ	ACCESS:   92341514	FORWARD:          0	MERGED:   10472365	TO_CACHE:   81869149

STLB SPEC fills:          0  NON-SPEC fills:          0
STLB Test counter :          0
STLB Leapfrog:          0
STLB MSHR merge:          0
STLB TOTAL     ACCESS:   16707394  HIT:   15853189  MISS:     854205  HIT %:    94.8873  MISS %:    5.11274   MPKI: 4.27102
STLB LOAD TRANSLATION NON_SPEC    ACCESS:    4129028  HIT:    3274833  MISS:     854195  HIT %:    79.3124  MISS %:    20.6876   MPKI: 4.27097
STLB TRANSLATION FROM L1D PREFETCHER NON_SPEC    ACCESS:   12578366  HIT:   12578356  MISS:         10  HIT %:    99.9999  MISS %: 7.95016e-05   MPKI: 5e-05
STLB PREFETCH  REQUESTED:          0  ISSUED:          0  USEFUL:         10  USELESS:          0
STLB USEFUL LOAD PREFETCHES:         10 PREFETCH ISSUED TO LOWER LEVEL:          0  ACCURACY: inf
STLB TIMELY PREFETCHES:         10 LATE PREFETCHES: 0 DROPPED PREFETCHES: 0
STLB COMMIT LATE PREFETCHES: 0 NORMAL LATE: 0 MISSED OPPORTUNITY: 0 UNCOVERED: 0
STLB PREFETCHES SAME FILL-ORIGIN LEVEL: 0 DIFFERENT FILL-ORIGIN LEVEL: 0
STLB AVERAGE MISS LATENCY: 178.157 cycles
STLB AVERAGE MISS LATENCY LOAD: -nan cycles
STLB AVERAGE MISS LATENCY PREFETCH: -nan cycles
STLB AVERAGE MSHR OCCUPANCY: 0.0777395
STLB MSHR FULL: 0
STLB RQ	ACCESS:   22299295	FORWARD:          0	MERGED:    5591556	TO_CACHE:   16707739

STLB Hit, L1D data hit: 0
STLB Hit, L2C data hit: 0
STLB Hit, LLC data hit: 0
STLB Hit, LLC data miss: 0
STLB STLB hints to L2: 0
L0D SPEC fills:   22999211  NON-SPEC fills:          0
L0D TimeGuard Request with older TS:     302130 Restricted eviction:     161549 read:     286052
L0D Test counter :          0
L0D Leapfrog:          0
L0D MSHR merge:     989485
L0D TOTAL     ACCESS:   54233700  HIT:    6660437  MISS:   47573263  HIT %:     12.281  MISS %:     87.719   MPKI: 237.866
L0D LOAD      TOTAL       ACCESS:   54233700  HIT:    6660437  MISS:   47573263  HIT %:     12.281  MISS %:     87.719   MPKI: 237.866
L0D LOAD      NON_SPEC    ACCESS:   24617815  HIT:     205297  MISS:   24412518  HIT %:   0.833937  MISS %:    99.1661   MPKI: 122.063
L0D LOAD      SPEC        ACCESS:   29615885  HIT:    6455140  MISS:   23160745  HIT %:    21.7962  MISS %:    78.2038   MPKI: 115.804
L0D PREFETCH  REQUESTED:          0  ISSUED:          0  USEFUL:          0  USELESS:          0
L0D USEFUL LOAD PREFETCHES:          0 PREFETCH ISSUED TO LOWER LEVEL:          0  ACCURACY: -nan
L0D TIMELY PREFETCHES:          0 LATE PREFETCHES: 0 DROPPED PREFETCHES: 0
L0D COMMIT LATE PREFETCHES: 0 NORMAL LATE: 0 MISSED OPPORTUNITY: 0 UNCOVERED: 0
L0D PREFETCHES SAME FILL-ORIGIN LEVEL: 0 DIFFERENT FILL-ORIGIN LEVEL: 0
L0D AVERAGE MISS LATENCY: 11.6739 cycles
L0D AVERAGE MISS LATENCY LOAD: 11.6739 cycles
L0D AVERAGE MISS LATENCY PREFETCH: -nan cycles
L0D AVERAGE MSHR OCCUPANCY: 0.526863
L0D MSHR FULL: 8.08838e-05
L0D RQ	ACCESS:   64356257	FORWARD:          0	MERGED:    9133073	TO_CACHE:   55223184
L0D WQ	ACCESS:   37118330	FORWARD:          0	MERGED:          0	TO_CACHE:   37118330

L1D SPEC fills:          0  NON-SPEC fills:     693388
L1D Test counter :          0
L1D Leapfrog:          0
L1D MSHR merge:      83067
L1D TOTAL     ACCESS:  133847605  HIT:  121264015  MISS:   12583590  HIT %:    90.5986  MISS %:    9.40143   MPKI: 62.9179
L1D LOAD      TOTAL       ACCESS:   47561818  HIT:   44385155  MISS:    3176663  HIT %:     93.321  MISS %:    6.67902   MPKI: 15.8833
L1D LOAD      NON_SPEC    ACCESS:   24409711  HIT:   23716323  MISS:     693388  HIT %:    97.1594  MISS %:    2.84062   MPKI: 3.46694
L1D LOAD      SPEC        ACCESS:   23152107  HIT:   20668832  MISS:    2483275  HIT %:    89.2741  MISS %:    10.7259   MPKI: 12.4164
L1D RFO       NON_SPEC    ACCESS:   35022212  HIT:   34662028  MISS:     360184  HIT %:    98.9716  MISS %:    1.02844   MPKI: 1.80092
L1D PREFETCH  NON_SPEC    ACCESS:   17944282  HIT:   11333705  MISS:    6610577  HIT %:    63.1605  MISS %:    36.8395   MPKI: 33.0529
L1D COMMIT LOAD NON_SPEC    ACCESS:   10605502  HIT:   10589865  MISS:      15637  HIT %:    99.8526  MISS %:   0.147442   MPKI: 0.078185
L1D COMMIT WRITE NON_SPEC    ACCESS:   22713791  HIT:   20293262  MISS:    2420529  HIT %:    89.3434  MISS %:    10.6566   MPKI: 12.1026
L1D PREFETCH  REQUESTED:   18195021  ISSUED:   18170267  USEFUL:     625708  USELESS:    5984897
L1D USEFUL LOAD PREFETCHES:     625708 PREFETCH ISSUED TO LOWER LEVEL:    6727538  ACCURACY: 9.3007
L1D TIMELY PREFETCHES:     625708 LATE PREFETCHES: 72033 DROPPED PREFETCHES: 0
L1D COMMIT LATE PREFETCHES: 161871 NORMAL LATE: 88939 MISSED OPPORTUNITY: 56518 UNCOVERED: 2870011
L1D PREFETCHES SAME FILL-ORIGIN LEVEL: 6727538 DIFFERENT FILL-ORIGIN LEVEL: 0
L1D AVERAGE MISS LATENCY: 97.113 cycles
L1D AVERAGE MISS LATENCY LOAD: 98.9751 cycles
L1D AVERAGE MISS LATENCY PREFETCH: 131.872 cycles
L1D AVERAGE MSHR OCCUPANCY: 1.32294
L1D MSHR FULL: 0.000127423
L1D RQ	ACCESS:   64449087	FORWARD:          0	MERGED:    4779734	TO_CACHE:   58179910
L1D WQ	ACCESS:   59925661	FORWARD:    1489443	MERGED:    1745568	TO_CACHE:   58180093
L1D PQ	ACCESS:   18170267	FORWARD:          0	MERGED:          0	TO_CACHE:   18170267

L1D UNIQUE REGIONS ACCESSED: 0
L1D REGIONS CONFLICTS: 0
L1D Cross Page Prefetch Requests: 0
L1D Same Page Prefetch Requests: 22723421
L1D ROI Sum of L1D PQ occupancy: 268361588
L1D PREFETCHES PUSHED FROM L2C: 0
L1I SPEC fills:          0  NON-SPEC fills:          0
L1I Test counter :          0
L1I Leapfrog:          0
L1I MSHR merge:      30112
L1I TOTAL     ACCESS:   37032897  HIT:   36953889  MISS:      79008  HIT %:    99.7867  MISS %:   0.213345   MPKI: 0.39504
L1I LOAD      TOTAL       ACCESS:   37032897  HIT:   36953889  MISS:      79008  HIT %:    99.7867  MISS %:   0.213345   MPKI: 0.39504
L1I LOAD      NON_SPEC    ACCESS:   37032897  HIT:   36953889  MISS:      79008  HIT %:    99.7867  MISS %:   0.213345   MPKI: 0.39504
L1I PREFETCH  REQUESTED:          0  ISSUED:          0  USEFUL:          0  USELESS:          0
L1I USEFUL LOAD PREFETCHES:          0 PREFETCH ISSUED TO LOWER LEVEL:          0  ACCURACY: -nan
L1I TIMELY PREFETCHES:          0 LATE PREFETCHES: 0 DROPPED PREFETCHES: 0
L1I COMMIT LATE PREFETCHES: 0 NORMAL LATE: 0 MISSED OPPORTUNITY: 0 UNCOVERED: 0
L1I PREFETCHES SAME FILL-ORIGIN LEVEL: 0 DIFFERENT FILL-ORIGIN LEVEL: 0
L1I AVERAGE MISS LATENCY: 38.5207 cycles
L1I AVERAGE MISS LATENCY LOAD: 38.5207 cycles
L1I AVERAGE MISS LATENCY PREFETCH: -nan cycles
L1I AVERAGE MSHR OCCUPANCY: 0.00331484
L1I MSHR FULL: 0
L1I RQ	ACCESS:   56949047	FORWARD:          0	MERGED:   19886039	TO_CACHE:   37063008

BTB SPEC fills:          0  NON-SPEC fills:          0
BTB Test counter :          0
BTB Leapfrog:          0
BTB MSHR merge:          0
BTB TOTAL     ACCESS:   32188164  HIT:   30296058  MISS:    1892106  HIT %:    94.1217  MISS %:    5.87827   MPKI: 9.46053
BTB BRANCH_DIRECT_JUMP	ACCESS:    2276304  HIT:    2276179  MISS:        125
BTB BRANCH_INDIRECT	ACCESS:     671328  HIT:     585871  MISS:      85457
BTB BRANCH_CONDITIONAL	ACCESS:   17350102  HIT:   17349618  MISS:        484
BTB BRANCH_DIRECT_CALL	ACCESS:    3559126  HIT:    3558870  MISS:        256
BTB BRANCH_INDIRECT_CALL	ACCESS:    2386088  HIT:    2378106  MISS:       7982
BTB BRANCH_RETURN	ACCESS:    5945216  HIT:    4147414  MISS:    1797802
BTB BRANCH_OTHER ACCESS:          0  HIT:          0  MISS:          0

L2C SPEC fills:          0  NON-SPEC fills:     394524
L2C Test counter :          0
L2C Leapfrog:          0
L2C MSHR merge:          0
L2C TOTAL     ACCESS:   18347115  HIT:    9089443  MISS:    9257672  HIT %:    49.5415  MISS %:    50.4585   MPKI: 46.2884
L2C LOAD      TOTAL       ACCESS:    3183731  HIT:    1128699  MISS:    2055032  HIT %:    35.4521  MISS %:    64.5479   MPKI: 10.2752
L2C LOAD      NON_SPEC    ACCESS:     766544  HIT:     338459  MISS:     428085  HIT %:    44.1539  MISS %:    55.8461   MPKI: 2.14043
L2C LOAD      SPEC        ACCESS:    2417187  HIT:     790240  MISS:    1626947  HIT %:    32.6925  MISS %:    67.3075   MPKI: 8.13473
L2C RFO       NON_SPEC    ACCESS:     315231  HIT:      75183  MISS:     240048  HIT %:    23.8501  MISS %:    76.1499   MPKI: 1.20024
L2C PREFETCH  NON_SPEC    ACCESS:    6727327  HIT:    1940245  MISS:    4787082  HIT %:    28.8412  MISS %:    71.1588   MPKI: 23.9354
L2C WRITEBACK NON_SPEC    ACCESS:     659388  HIT:     656134  MISS:       3254  HIT %:    99.5065  MISS %:   0.493488   MPKI: 0.01627
L2C CLEAN_EVICTION NON_SPEC    ACCESS:    3175219  HIT:    1606627  MISS:    1568592  HIT %:    50.5989  MISS %:    49.4011   MPKI: 7.84296
L2C COMMIT LOAD NON_SPEC    ACCESS:      15194  HIT:       8122  MISS:       7072  HIT %:    53.4553  MISS %:    46.5447   MPKI: 0.03536
L2C LOAD TRANSLATION NON_SPEC    ACCESS:    4270975  HIT:    3674393  MISS:     596582  HIT %:    86.0317  MISS %:    13.9683   MPKI: 2.98291
L2C TRANSLATION FROM L1D PREFETCHER NON_SPEC    ACCESS:         50  HIT:         40  MISS:         10  HIT %:         80  MISS %:         20   MPKI: 5e-05
L2C PREFETCH  REQUESTED:          0  ISSUED:          0  USEFUL:     184942  USELESS:    4602476
L2C USEFUL LOAD PREFETCHES:     184942 PREFETCH ISSUED TO LOWER LEVEL:    4787084  ACCURACY: 3.86335
L2C TIMELY PREFETCHES:     184942 LATE PREFETCHES: 0 DROPPED PREFETCHES: 0
L2C COMMIT LATE PREFETCHES: 0 NORMAL LATE: 0 MISSED OPPORTUNITY: 0 UNCOVERED: 2055032
L2C PREFETCHES SAME FILL-ORIGIN LEVEL: 0 DIFFERENT FILL-ORIGIN LEVEL: 0
L2C AVERAGE MISS LATENCY: 125.711 cycles
L2C AVERAGE MISS LATENCY LOAD: 132.119 cycles
L2C AVERAGE MISS LATENCY PREFETCH: 164.676 cycles
L2C AVERAGE MSHR OCCUPANCY: 1.60642
L2C MSHR FULL: 0
L2C RQ	ACCESS:    7785560	FORWARD:          0	MERGED:          0	TO_CACHE:    7785181
L2C WQ	ACCESS:    3834665	FORWARD:        587	MERGED:         56	TO_CACHE:    3834609
L2C PQ	ACCESS:    6727538	FORWARD:          0	MERGED:          0	TO_CACHE:    6727330

L2C Instructions Evicting Data 29456
L2C Translations Evicting Data 547976
L2C Data Evicting Data 4980499
L2C Instructions Evicting Instructions 1936
L2C Translations Evicting Instructions 2307
L2C Data Evicting Instructions 22492
L2C Instructions Evicting Translations 2169
L2C Translations Evicting Translations 46309
L2C Data Evicting Translations 425735
L2C Dense regions hint from L2: 0
PSCL5 SPEC fills:          0  NON-SPEC fills:          0
PSCL5 Test counter :          0
PSCL5 Leapfrog:          0
PSCL5 MSHR merge:          0
PSCL5 TOTAL     ACCESS:          0  HIT:          0  MISS:          0  HIT %:       -nan  MISS %:       -nan   MPKI: 0
PSCL5 PREFETCH  REQUESTED:          0  ISSUED:          0  USEFUL:          0  USELESS:          0
PSCL5 USEFUL LOAD PREFETCHES:          0 PREFETCH ISSUED TO LOWER LEVEL:          0  ACCURACY: -nan
PSCL5 TIMELY PREFETCHES:          0 LATE PREFETCHES: 0 DROPPED PREFETCHES: 0
PSCL5 COMMIT LATE PREFETCHES: 0 NORMAL LATE: 0 MISSED OPPORTUNITY: 0 UNCOVERED: 0
PSCL5 PREFETCHES SAME FILL-ORIGIN LEVEL: 0 DIFFERENT FILL-ORIGIN LEVEL: 0

PSCL4 SPEC fills:          0  NON-SPEC fills:          0
PSCL4 Test counter :          0
PSCL4 Leapfrog:          0
PSCL4 MSHR merge:          0
PSCL4 TOTAL     ACCESS:          0  HIT:          0  MISS:          0  HIT %:       -nan  MISS %:       -nan   MPKI: 0
PSCL4 PREFETCH  REQUESTED:          0  ISSUED:          0  USEFUL:          0  USELESS:          0
PSCL4 USEFUL LOAD PREFETCHES:          0 PREFETCH ISSUED TO LOWER LEVEL:          0  ACCURACY: -nan
PSCL4 TIMELY PREFETCHES:          0 LATE PREFETCHES: 0 DROPPED PREFETCHES: 0
PSCL4 COMMIT LATE PREFETCHES: 0 NORMAL LATE: 0 MISSED OPPORTUNITY: 0 UNCOVERED: 0
PSCL4 PREFETCHES SAME FILL-ORIGIN LEVEL: 0 DIFFERENT FILL-ORIGIN LEVEL: 0

PSCL3 SPEC fills:          0  NON-SPEC fills:          0
PSCL3 Test counter :          0
PSCL3 Leapfrog:          0
PSCL3 MSHR merge:          0
PSCL3 TOTAL     ACCESS:          0  HIT:          0  MISS:          0  HIT %:       -nan  MISS %:       -nan   MPKI: 0
PSCL3 PREFETCH  REQUESTED:          0  ISSUED:          0  USEFUL:          0  USELESS:          0
PSCL3 USEFUL LOAD PREFETCHES:          0 PREFETCH ISSUED TO LOWER LEVEL:          0  ACCURACY: -nan
PSCL3 TIMELY PREFETCHES:          0 LATE PREFETCHES: 0 DROPPED PREFETCHES: 0
PSCL3 COMMIT LATE PREFETCHES: 0 NORMAL LATE: 0 MISSED OPPORTUNITY: 0 UNCOVERED: 0
PSCL3 PREFETCHES SAME FILL-ORIGIN LEVEL: 0 DIFFERENT FILL-ORIGIN LEVEL: 0

PSCL2 SPEC fills:          0  NON-SPEC fills:          0
PSCL2 Test counter :          0
PSCL2 Leapfrog:          0
PSCL2 MSHR merge:          0
PSCL2 TOTAL     ACCESS:          0  HIT:          0  MISS:          0  HIT %:       -nan  MISS %:       -nan   MPKI: 0
PSCL2 PREFETCH  REQUESTED:          0  ISSUED:          0  USEFUL:          0  USELESS:          0
PSCL2 USEFUL LOAD PREFETCHES:          0 PREFETCH ISSUED TO LOWER LEVEL:          0  ACCURACY: -nan
PSCL2 TIMELY PREFETCHES:          0 LATE PREFETCHES: 0 DROPPED PREFETCHES: 0
PSCL2 COMMIT LATE PREFETCHES: 0 NORMAL LATE: 0 MISSED OPPORTUNITY: 0 UNCOVERED: 0
PSCL2 PREFETCHES SAME FILL-ORIGIN LEVEL: 0 DIFFERENT FILL-ORIGIN LEVEL: 0

LLC SPEC fills:          0  NON-SPEC fills:     263896
LLC Test counter :          0
LLC Leapfrog:          0
LLC MSHR merge:          0
LLC TOTAL     ACCESS:   10431800  HIT:    3666384  MISS:    6765416  HIT %:    35.1462  MISS %:    64.8538   MPKI: 33.8271
LLC LOAD      TOTAL       ACCESS:    2055012  HIT:     607539  MISS:    1447473  HIT %:    29.5638  MISS %:    70.4362   MPKI: 7.23736
LLC LOAD      NON_SPEC    ACCESS:     428077  HIT:     158845  MISS:     269232  HIT %:    37.1066  MISS %:    62.8934   MPKI: 1.34616
LLC LOAD      SPEC        ACCESS:    1626935  HIT:     448694  MISS:    1178241  HIT %:    27.5791  MISS %:    72.4209   MPKI: 5.89121
LLC RFO       NON_SPEC    ACCESS:     240047  HIT:     107969  MISS:     132078  HIT %:    44.9783  MISS %:    55.0217   MPKI: 0.66039
LLC PREFETCH  NON_SPEC    ACCESS:    4787066  HIT:    1079503  MISS:    3707563  HIT %:    22.5504  MISS %:    77.4496   MPKI: 18.5378
LLC WRITEBACK NON_SPEC    ACCESS:     501750  HIT:     498389  MISS:       3361  HIT %:    99.3301  MISS %:   0.669856   MPKI: 0.016805
LLC CLEAN_EVICTION NON_SPEC    ACCESS:    2244261  HIT:    1072897  MISS:    1171364  HIT %:    47.8062  MISS %:    52.1938   MPKI: 5.85682
LLC COMMIT LOAD NON_SPEC    ACCESS:       7072  HIT:       2811  MISS:       4261  HIT %:    39.7483  MISS %:    60.2517   MPKI: 0.021305
LLC LOAD TRANSLATION NON_SPEC    ACCESS:     596582  HIT:     297272  MISS:     299310  HIT %:    49.8292  MISS %:    50.1708   MPKI: 1.49655
LLC TRANSLATION FROM L1D PREFETCHER NON_SPEC    ACCESS:         10  HIT:          4  MISS:          6  HIT %:         40  MISS %:         60   MPKI: 3e-05
LLC PREFETCH  REQUESTED:          0  ISSUED:          0  USEFUL:     152021  USELESS:    3555608
LLC USEFUL LOAD PREFETCHES:     152021 PREFETCH ISSUED TO LOWER LEVEL:    3707564  ACCURACY: 4.10029
LLC TIMELY PREFETCHES:     152021 LATE PREFETCHES: 0 DROPPED PREFETCHES: 0
LLC COMMIT LATE PREFETCHES: 0 NORMAL LATE: 0 MISSED OPPORTUNITY: 0 UNCOVERED: 0
LLC PREFETCHES SAME FILL-ORIGIN LEVEL: 0 DIFFERENT FILL-ORIGIN LEVEL: 0
LLC AVERAGE MISS LATENCY: 140.094 cycles
LLC AVERAGE MISS LATENCY LOAD: 155.095 cycles
LLC AVERAGE MISS LATENCY PREFETCH: 173.874 cycles
LLC AVERAGE MSHR OCCUPANCY: 1.15858
LLC MSHR FULL: 0
LLC RQ	ACCESS:    2898744	FORWARD:          0	MERGED:          0	TO_CACHE:    2898723
LLC WQ	ACCESS:    2746011	FORWARD:         37	MERGED:          0	TO_CACHE:    2746011
LLC PQ	ACCESS:    4787084	FORWARD:          0	MERGED:          0	TO_CACHE:    4787068

LLC Dense regions hint to LLC: 0

RAW hits: 3092491
Loads Generated: 67448748
Loads sent to L1D: 64356257
Stores Generated: 37118330
Stores sent to L1D: 37118330
Major fault: 0 Minor fault: 47401
Allocated PAGES: 47401
Total Load insts: 79676939
Total Non-spec loads: 28142315
Percentage of speculative loads: 64.6795

LeapFrogging counter: 2099
Commit hits: 22807334 miss: 16875824
Commit hit %: 57.4736 miss %: 42.5264
Commits not translated: 0
Loads retired: 3176663
Stores retired: 37118330
Cache fills: 3176663
L1D response latency: 98.9751 cycles
Load retirement latency: 198.192 cycles
OOO test counter: 0
Discarded buffer inserts: 22807334 hits: 7471 hit %: 0.032757
Filter prediction accuracy: -nan

stream: 
stream:times selected: 46201751
stream:pref_filled: 3565167
stream:pref_useful: 617185
stream:pref_late: 5797
stream:misses: 1008048
stream:misses_by_poll: 0

CS: 
CS:times selected: 1014408
CS:pref_filled: 102774
CS:pref_useful: 12402
CS:pref_late: 0
CS:misses: 10734
CS:misses_by_poll: 5649

CPLX: 
CPLX:times selected: 45629472
CPLX:pref_filled: 4632388
CPLX:pref_useful: 188903
CPLX:pref_late: 572
CPLX:misses: 3168422
CPLX:misses_by_poll: 239732

NL_L1: 
NL:times selected: 122260
NL:pref_filled: 31432
NL:pref_useful: 5949
NL:pref_late: 72
NL:misses: 25947
NL:misses_by_poll: 1593

total selections: 92967891
total_filled: 6610577
total_useful: 625708
total_late: 6960
total_polluted: 246974
total_misses_after_warmup: 4221192
conflicts: 6408547
Degree Incremented Times: 0
Degree Decremented Times: 2010985

L1 IP Table Write Accesses: 88088956
L1 IP Table Read Accesses: 81680409
L1 RST Write Accesses: 36954038
L1 RST Read Accesses: 73908076
L1 CSPT Write Accesses: 36954038
L1 CSPT Read Accesses: 73452388
L1 RR Filter Tag Write Accesses: 18195021
L1 RR Filter Tag Read Accesses: 1474987833
L1 IP Table Tag Write Accesses: 104566654
L1 IP Table Tag Read Accesses: 104566654
L1 RST Tag Write Accesses: 0
L1 RST Tag Read Accesses: 430252994
L1 RR Filter Write Accesses: 0
L1 RR Filter Read Accesses: 55625876
test: 20809818

stream: 
stream:times selected: 18848218
stream:pref_filled: 3565167
stream:pref_useful: 617185
stream:pref_late: 5797
stream:misses: 820827
stream:misses_by_poll: 0

CS: 
CS:times selected: 221808
CS:pref_filled: 102774
CS:pref_useful: 12402
CS:pref_late: 0
CS:misses: 5450
CS:misses_by_poll: 22

CPLX: 
CPLX:times selected: 18713608
CPLX:pref_filled: 4632388
CPLX:pref_useful: 188903
CPLX:pref_late: 572
CPLX:misses: 2630167
CPLX:misses_by_poll: 13915

NL_L1: 
NL:times selected: 92720
NL:pref_filled: 31432
NL:pref_useful: 5949
NL:pref_late: 72
NL:misses: 30650
NL:misses_by_poll: 4

total selections: 37876354
total_filled: 6610577
total_useful: 625708
total_late: 6960
total_polluted: 13941
total_misses_after_warmup: 3188108
conflicts: 1360507
Degree Incremented Times: 0
Degree Decremented Times: 887352

L1 IP Table Write Accesses: 43271064
L1 IP Table Read Accesses: 41910557
L1 RST Write Accesses: 15624897
L1 RST Read Accesses: 31249794
L1 CSPT Write Accesses: 15624897
L1 CSPT Read Accesses: 31139002
L1 RR Filter Tag Write Accesses: 10338510
L1 RR Filter Tag Read Accesses: 577870136
L1 IP Table Tag Write Accesses: 47573263
L1 IP Table Tag Read Accesses: 47573263
L1 RST Tag Write Accesses: 0
L1 RST Tag Read Accesses: 135227671
L1 RR Filter Write Accesses: 0
L1 RR Filter Read Accesses: 20607354
test_pseudo: 9457974

DRAM Statistics
 CHANNEL 0
 RQ ROW_BUFFER_HIT:     528954  ROW_BUFFER_MISS:    5061581
 DBUS_CONGESTED:       5652
 WQ ROW_BUFFER_HIT:     328831  ROW_BUFFER_MISS:    1675270  FULL:          0

 AVG_CONGESTED_CYCLE: 4
 All warmup complete: 2
Channel 0 Bank busy for read cycles: 0
Channel 0 Bank busy for write cycles: 0
Channel 0
Rank 0
0banks busy for read cycles: 201626696
0banks busy for write cycles: 359424
1banks busy for read cycles: 246606000
1banks busy for write cycles: 52199707
2banks busy for read cycles: 130309602
2banks busy for write cycles: 32051574
3banks busy for read cycles: 53882265
3banks busy for write cycles: 24031495
4banks busy for read cycles: 19477317
4banks busy for write cycles: 19164815
5banks busy for read cycles: 5750151
5banks busy for write cycles: 15666566
6banks busy for read cycles: 1339595
6banks busy for write cycles: 13298038
7banks busy for read cycles: 267429
7banks busy for write cycles: 12271069
8banks busy for read cycles: 34364
8banks busy for write cycles: 12532253

CPU 0 Branch Prediction Accuracy: 98.2082% MPKI: 3.72743 Average ROB Occupancy at Mispredict: 33.848
Branch types
NOT_BRANCH: 158393545 79.1968%
BRANCH_DIRECT_JUMP: 2276304 1.13815%
BRANCH_INDIRECT: 671328 0.335664%
BRANCH_CONDITIONAL: 26768026 13.384%
BRANCH_DIRECT_CALL: 3559126 1.77956%
BRANCH_INDIRECT_CALL: 2386088 1.19304%
BRANCH_RETURN: 5945216 2.97261%
BRANCH_OTHER: 0 0%

DRAM PAGES: 1048576
Allocated PAGES: 47401
