
*** ChampSim Multicore Out-of-Order Simulator ***

Warmup Instructions: 50000000
Simulation Instructions: 200000000
Number of CPUs: 1
LLC sets: 2048
LLC ways: 16
L0D sets: 16
L0D ways: 2
ROB size: 352
LQ size: 128
SQ size: 72
Secure Berti: OFF
Berti: OFF
Berti Fill: OFF
On commit prefetching: ON
Hit-based filter: OFF
Time-guarding: ON
Free-slotting: ON
Leap-frogging: ON
Train prefetcher on L0D bypass: OFF
No translation penalty for prefetchers: OFF
Prefetch to L0D only: OFF
Prefetch to L1D only: OFF
Clean evictions: ON
Commit loads: ON
Commit write: ON
Fill commit loads to L2C, LLC: ON
DRAM IO FREQUENCY: 6400
ROB SIZE: 352
Off-chip DRAM Size: 4096 MB Channels: 1 Width: 64-bit Data Rate: 6400 MT/s
CPU 0 runs /home/sumon/secure_berti/GhostMinion/../../traces/spec/628.pop2_s-17B.champsimtrace.xz
.xz
BTB has LRU replacement policy
ITLB has LRU replacement policy
DTLB has LRU replacement policy
STLB has LRU replacement policy
L1I has LRU replacement policy
L0D has LRU replacement policy
IP Table Entries: 1024
CSPT Entries: 128
RR_ENTRIES: 32
RST_ENTRIES: 8
IP Table Entries: 1024
CSPT Entries: 128
RR_ENTRIES: 32
RST_ENTRIES: 8
L1D has LRU replacement policy
L2C has LRU replacement policy
LLC has LRU replacement policy
Heartbeat CPU 0 instructions: 10000003 cycles: 3179310 heartbeat IPC: 3.14534 cumulative IPC: 3.14534 (Simulation time: 0 hr 0 min 41 sec) 
Heartbeat CPU 0 instructions: 20000001 cycles: 6357086 heartbeat IPC: 3.14685 cumulative IPC: 3.1461 (Simulation time: 0 hr 1 min 23 sec) 
Heartbeat CPU 0 instructions: 30000003 cycles: 9534177 heartbeat IPC: 3.14753 cumulative IPC: 3.14657 (Simulation time: 0 hr 2 min 5 sec) 
Heartbeat CPU 0 instructions: 40000003 cycles: 12709397 heartbeat IPC: 3.14939 cumulative IPC: 3.14728 (Simulation time: 0 hr 2 min 46 sec) 
Heartbeat CPU 0 instructions: 50000000 cycles: 15884296 heartbeat IPC: 3.14971 cumulative IPC: 3.14776 (Simulation time: 0 hr 3 min 27 sec) 

Warmup complete CPU 0 instructions: 50000004 cycles: 15884297 (Simulation time: 0 hr 3 min 27 sec) 

Heartbeat CPU 0 instructions: 60000000 cycles: 27881486 heartbeat IPC: 0.833529 cumulative IPC: 0.833528 (Simulation time: 0 hr 4 min 2 sec) 
Heartbeat CPU 0 instructions: 70000000 cycles: 39789285 heartbeat IPC: 0.839786 cumulative IPC: 0.836645 (Simulation time: 0 hr 4 min 37 sec) 
Heartbeat CPU 0 instructions: 80000000 cycles: 51435151 heartbeat IPC: 0.858674 cumulative IPC: 0.843861 (Simulation time: 0 hr 5 min 8 sec) 
Heartbeat CPU 0 instructions: 90000003 cycles: 64817631 heartbeat IPC: 0.747246 cumulative IPC: 0.817439 (Simulation time: 0 hr 5 min 42 sec) 
Heartbeat CPU 0 instructions: 100000001 cycles: 76258956 heartbeat IPC: 0.874024 cumulative IPC: 0.828162 (Simulation time: 0 hr 6 min 20 sec) 
Heartbeat CPU 0 instructions: 110000000 cycles: 88619687 heartbeat IPC: 0.809014 cumulative IPC: 0.824908 (Simulation time: 0 hr 6 min 58 sec) 
Heartbeat CPU 0 instructions: 120000000 cycles: 101655557 heartbeat IPC: 0.767114 cumulative IPC: 0.816124 (Simulation time: 0 hr 7 min 32 sec) 
Heartbeat CPU 0 instructions: 130000000 cycles: 114869316 heartbeat IPC: 0.756787 cumulative IPC: 0.808203 (Simulation time: 0 hr 8 min 8 sec) 
Heartbeat CPU 0 instructions: 140000003 cycles: 128854470 heartbeat IPC: 0.715044 cumulative IPC: 0.79667 (Simulation time: 0 hr 8 min 39 sec) 
Heartbeat CPU 0 instructions: 150000000 cycles: 142088284 heartbeat IPC: 0.75564 cumulative IPC: 0.792368 (Simulation time: 0 hr 9 min 8 sec) 
Heartbeat CPU 0 instructions: 160000000 cycles: 156385794 heartbeat IPC: 0.699422 cumulative IPC: 0.78291 (Simulation time: 0 hr 9 min 39 sec) 
Heartbeat CPU 0 instructions: 170000003 cycles: 167395950 heartbeat IPC: 0.908253 cumulative IPC: 0.792018 (Simulation time: 0 hr 10 min 17 sec) 
Heartbeat CPU 0 instructions: 180000003 cycles: 179098744 heartbeat IPC: 0.854497 cumulative IPC: 0.796498 (Simulation time: 0 hr 10 min 57 sec) 
Heartbeat CPU 0 instructions: 190000000 cycles: 191019221 heartbeat IPC: 0.838892 cumulative IPC: 0.799384 (Simulation time: 0 hr 11 min 37 sec) 
Heartbeat CPU 0 instructions: 200000000 cycles: 202867301 heartbeat IPC: 0.844019 cumulative IPC: 0.802212 (Simulation time: 0 hr 12 min 17 sec) 
Heartbeat CPU 0 instructions: 210000000 cycles: 214713050 heartbeat IPC: 0.844185 cumulative IPC: 0.804713 (Simulation time: 0 hr 12 min 57 sec) 
Heartbeat CPU 0 instructions: 220000000 cycles: 226607538 heartbeat IPC: 0.840726 cumulative IPC: 0.806745 (Simulation time: 0 hr 13 min 37 sec) 
Heartbeat CPU 0 instructions: 230000000 cycles: 238608734 heartbeat IPC: 0.83325 cumulative IPC: 0.808174 (Simulation time: 0 hr 14 min 17 sec) 
Heartbeat CPU 0 instructions: 240000002 cycles: 250615150 heartbeat IPC: 0.832888 cumulative IPC: 0.809438 (Simulation time: 0 hr 14 min 57 sec) 
Heartbeat CPU 0 instructions: 250000002 cycles: 262605331 heartbeat IPC: 0.834016 cumulative IPC: 0.810632 (Simulation time: 0 hr 15 min 37 sec) 
Finished CPU 0 instructions: 200000002 cycles: 246721035 cumulative IPC: 0.810632 (Simulation time: 0 hr 15 min 37 sec) 
 Instruction ID: 250000115

ChampSim completed all CPUs

Region of Interest Statistics

CPU 0 cumulative IPC: 0.810632 instructions: 200000002 cycles: 246721035
ITLB SPEC fills:          0  NON-SPEC fills:          0
ITLB Test counter :          0
ITLB Leapfrog:          0
ITLB MSHR merge:          0
ITLB TOTAL     ACCESS:   34337985  HIT:   34333169  MISS:       4816  HIT %:     99.986  MISS %:  0.0140253   MPKI: 0.02408
ITLB LOAD TRANSLATION NON_SPEC    ACCESS:   34337985  HIT:   34333169  MISS:       4816  HIT %:     99.986  MISS %:  0.0140253   MPKI: 0.02408
ITLB PREFETCH  REQUESTED:          0  ISSUED:          0  USEFUL:          0  USELESS:          0
ITLB USEFUL LOAD PREFETCHES:          0 PREFETCH ISSUED TO LOWER LEVEL:          0  ACCURACY: -nan
ITLB TIMELY PREFETCHES:          0 LATE PREFETCHES: 0 DROPPED PREFETCHES: 0
ITLB COMMIT LATE PREFETCHES: 0 NORMAL LATE: 0 MISSED OPPORTUNITY: 0 UNCOVERED: 0
ITLB PREFETCHES SAME FILL-ORIGIN LEVEL: 0 DIFFERENT FILL-ORIGIN LEVEL: 0
ITLB AVERAGE MISS LATENCY: 15.6815 cycles
ITLB AVERAGE MISS LATENCY LOAD: -nan cycles
ITLB AVERAGE MISS LATENCY PREFETCH: -nan cycles
ITLB AVERAGE MSHR OCCUPANCY: 7.25115e-05
ITLB MSHR FULL: 0
ITLB RQ	ACCESS:   39066586	FORWARD:          0	MERGED:    4727209	TO_CACHE:   34339377

DTLB SPEC fills:          0  NON-SPEC fills:          0
DTLB Test counter :          0
DTLB Leapfrog:          0
DTLB MSHR merge:          0
DTLB TOTAL     ACCESS:   45354521  HIT:   45254491  MISS:     100030  HIT %:    99.7794  MISS %:   0.220551   MPKI: 0.50015
DTLB LOAD TRANSLATION NON_SPEC    ACCESS:   45354521  HIT:   45254491  MISS:     100030  HIT %:    99.7794  MISS %:   0.220551   MPKI: 0.50015
DTLB PREFETCH  REQUESTED:          0  ISSUED:          0  USEFUL:          0  USELESS:          0
DTLB USEFUL LOAD PREFETCHES:          0 PREFETCH ISSUED TO LOWER LEVEL:          0  ACCURACY: -nan
DTLB TIMELY PREFETCHES:          0 LATE PREFETCHES: 0 DROPPED PREFETCHES: 0
DTLB COMMIT LATE PREFETCHES: 0 NORMAL LATE: 0 MISSED OPPORTUNITY: 0 UNCOVERED: 0
DTLB PREFETCHES SAME FILL-ORIGIN LEVEL: 0 DIFFERENT FILL-ORIGIN LEVEL: 0
DTLB AVERAGE MISS LATENCY: 29.1155 cycles
DTLB AVERAGE MISS LATENCY LOAD: -nan cycles
DTLB AVERAGE MISS LATENCY PREFETCH: -nan cycles
DTLB AVERAGE MSHR OCCUPANCY: 0.00695094
DTLB MSHR FULL: 4.37946e-05
DTLB RQ	ACCESS:   49563915	FORWARD:          0	MERGED:    4172161	TO_CACHE:   45391754

STLB SPEC fills:          0  NON-SPEC fills:          0
STLB Test counter :          0
STLB Leapfrog:          0
STLB MSHR merge:          0
STLB TOTAL     ACCESS:    6394182  HIT:    6384549  MISS:       9633  HIT %:    99.8493  MISS %:   0.150653   MPKI: 0.048165
STLB LOAD TRANSLATION NON_SPEC    ACCESS:     104846  HIT:      95213  MISS:       9633  HIT %:    90.8122  MISS %:    9.18776   MPKI: 0.048165
STLB TRANSLATION FROM L1D PREFETCHER NON_SPEC    ACCESS:    6289336  HIT:    6289336  MISS:          0  HIT %:        100  MISS %:          0   MPKI: 0
STLB PREFETCH  REQUESTED:          0  ISSUED:          0  USEFUL:          0  USELESS:          0
STLB USEFUL LOAD PREFETCHES:          0 PREFETCH ISSUED TO LOWER LEVEL:          0  ACCURACY: -nan
STLB TIMELY PREFETCHES:          0 LATE PREFETCHES: 0 DROPPED PREFETCHES: 0
STLB COMMIT LATE PREFETCHES: 0 NORMAL LATE: 0 MISSED OPPORTUNITY: 0 UNCOVERED: 0
STLB PREFETCHES SAME FILL-ORIGIN LEVEL: 0 DIFFERENT FILL-ORIGIN LEVEL: 0
STLB AVERAGE MISS LATENCY: 212.038 cycles
STLB AVERAGE MISS LATENCY LOAD: -nan cycles
STLB AVERAGE MISS LATENCY PREFETCH: -nan cycles
STLB AVERAGE MSHR OCCUPANCY: 0.00245674
STLB MSHR FULL: 0
STLB RQ	ACCESS:   18043850	FORWARD:          0	MERGED:   11649604	TO_CACHE:    6394246

STLB Hit, L1D data hit: 0
STLB Hit, L2C data hit: 0
STLB Hit, LLC data hit: 0
STLB Hit, LLC data miss: 0
STLB STLB hints to L2: 0
L0D SPEC fills:   25812149  NON-SPEC fills:          0
L0D TimeGuard Request with older TS:     110850 Restricted eviction:      91987 read:     130725
L0D Test counter :          0
L0D Leapfrog:          0
L0D MSHR merge:     790609
L0D TOTAL     ACCESS:   35172989  HIT:    3827871  MISS:   31345118  HIT %:     10.883  MISS %:     89.117   MPKI: 156.726
L0D LOAD      TOTAL       ACCESS:   35172989  HIT:    3827871  MISS:   31345118  HIT %:     10.883  MISS %:     89.117   MPKI: 156.726
L0D LOAD      NON_SPEC    ACCESS:    5581543  HIT:     140451  MISS:    5441092  HIT %:    2.51635  MISS %:    97.4837   MPKI: 27.2055
L0D LOAD      SPEC        ACCESS:   29591446  HIT:    3687420  MISS:   25904026  HIT %:    12.4611  MISS %:    87.5389   MPKI: 129.52
L0D PREFETCH  REQUESTED:          0  ISSUED:          0  USEFUL:          0  USELESS:          0
L0D USEFUL LOAD PREFETCHES:          0 PREFETCH ISSUED TO LOWER LEVEL:          0  ACCURACY: -nan
L0D TIMELY PREFETCHES:          0 LATE PREFETCHES: 0 DROPPED PREFETCHES: 0
L0D COMMIT LATE PREFETCHES: 0 NORMAL LATE: 0 MISSED OPPORTUNITY: 0 UNCOVERED: 0
L0D PREFETCHES SAME FILL-ORIGIN LEVEL: 0 DIFFERENT FILL-ORIGIN LEVEL: 0
L0D AVERAGE MISS LATENCY: 5.6649 cycles
L0D AVERAGE MISS LATENCY LOAD: 5.6649 cycles
L0D AVERAGE MISS LATENCY PREFETCH: -nan cycles
L0D AVERAGE MSHR OCCUPANCY: 0.758077
L0D MSHR FULL: 0.00213052
L0D RQ	ACCESS:   40082163	FORWARD:          0	MERGED:    4118565	TO_CACHE:   35963598
L0D WQ	ACCESS:   13600317	FORWARD:          0	MERGED:          0	TO_CACHE:   13600317

L1D SPEC fills:          0  NON-SPEC fills:      55155
L1D Test counter :          0
L1D Leapfrog:          0
L1D MSHR merge:      63454
L1D TOTAL     ACCESS:   93538706  HIT:   89496326  MISS:    4042380  HIT %:    95.6784  MISS %:    4.32161   MPKI: 20.2119
L1D LOAD      TOTAL       ACCESS:   31343429  HIT:   30989662  MISS:     353767  HIT %:    98.8713  MISS %:    1.12868   MPKI: 1.76883
L1D LOAD      NON_SPEC    ACCESS:    5440760  HIT:    5385605  MISS:      55155  HIT %:    98.9863  MISS %:    1.01374   MPKI: 0.275775
L1D LOAD      SPEC        ACCESS:   25902669  HIT:   25604057  MISS:     298612  HIT %:    98.8472  MISS %:    1.15282   MPKI: 1.49306
L1D RFO       NON_SPEC    ACCESS:   12687784  HIT:   12537056  MISS:     150728  HIT %:     98.812  MISS %:    1.18798   MPKI: 0.75364
L1D PREFETCH  NON_SPEC    ACCESS:   17732957  HIT:   14488545  MISS:    3244412  HIT %:    81.7041  MISS %:    18.2959   MPKI: 16.2221
L1D COMMIT LOAD NON_SPEC    ACCESS:    6074065  HIT:    6066734  MISS:       7331  HIT %:    99.8793  MISS %:   0.120693   MPKI: 0.036655
L1D COMMIT WRITE NON_SPEC    ACCESS:   25700471  HIT:   25414329  MISS:     286142  HIT %:    98.8866  MISS %:    1.11337   MPKI: 1.43071
L1D PREFETCH  REQUESTED:   20110649  ISSUED:   17941032  USEFUL:    2181554  USELESS:    1063063
L1D USEFUL LOAD PREFETCHES:    2181554 PREFETCH ISSUED TO LOWER LEVEL:    3359906  ACCURACY: 64.929
L1D TIMELY PREFETCHES:    2181554 LATE PREFETCHES: 61909 DROPPED PREFETCHES: 0
L1D COMMIT LATE PREFETCHES: 11373 NORMAL LATE: 67951 MISSED OPPORTUNITY: 1728 UNCOVERED: 273118
L1D PREFETCHES SAME FILL-ORIGIN LEVEL: 3359906 DIFFERENT FILL-ORIGIN LEVEL: 0
L1D AVERAGE MISS LATENCY: 59.6407 cycles
L1D AVERAGE MISS LATENCY LOAD: 51.5531 cycles
L1D AVERAGE MISS LATENCY PREFETCH: 65.3682 cycles
L1D AVERAGE MSHR OCCUPANCY: 1.29276
L1D MSHR FULL: 0.0114156
L1D RQ	ACCESS:   39930988	FORWARD:          0	MERGED:    2230562	TO_CACHE:   37419863
L1D WQ	ACCESS:   39104683	FORWARD:     280563	MERGED:     393807	TO_CACHE:   38710876
L1D PQ	ACCESS:   17941032	FORWARD:          0	MERGED:       2028	TO_CACHE:   17939004

L1D UNIQUE REGIONS ACCESSED: 0
L1D REGIONS CONFLICTS: 0
L1D Cross Page Prefetch Requests: 0
L1D Same Page Prefetch Requests: 24003149
L1D ROI Sum of L1D PQ occupancy: 298267544
L1D PREFETCHES PUSHED FROM L2C: 0
L1I SPEC fills:          0  NON-SPEC fills:          0
L1I Test counter :          0
L1I Leapfrog:          0
L1I MSHR merge:      47778
L1I TOTAL     ACCESS:   39018808  HIT:   38904004  MISS:     114804  HIT %:    99.7058  MISS %:   0.294227   MPKI: 0.57402
L1I LOAD      TOTAL       ACCESS:   39018808  HIT:   38904004  MISS:     114804  HIT %:    99.7058  MISS %:   0.294227   MPKI: 0.57402
L1I LOAD      NON_SPEC    ACCESS:   39018808  HIT:   38904004  MISS:     114804  HIT %:    99.7058  MISS %:   0.294227   MPKI: 0.57402
L1I PREFETCH  REQUESTED:          0  ISSUED:          0  USEFUL:          0  USELESS:          0
L1I USEFUL LOAD PREFETCHES:          0 PREFETCH ISSUED TO LOWER LEVEL:          0  ACCURACY: -nan
L1I TIMELY PREFETCHES:          0 LATE PREFETCHES: 0 DROPPED PREFETCHES: 0
L1I COMMIT LATE PREFETCHES: 0 NORMAL LATE: 0 MISSED OPPORTUNITY: 0 UNCOVERED: 0
L1I PREFETCHES SAME FILL-ORIGIN LEVEL: 0 DIFFERENT FILL-ORIGIN LEVEL: 0
L1I AVERAGE MISS LATENCY: 50.9851 cycles
L1I AVERAGE MISS LATENCY LOAD: 50.9851 cycles
L1I AVERAGE MISS LATENCY PREFETCH: -nan cycles
L1I AVERAGE MSHR OCCUPANCY: 0.00444561
L1I MSHR FULL: 0
L1I RQ	ACCESS:   60734597	FORWARD:          0	MERGED:   21668011	TO_CACHE:   39066586

BTB SPEC fills:          0  NON-SPEC fills:          0
BTB Test counter :          0
BTB Leapfrog:          0
BTB MSHR merge:          0
BTB TOTAL     ACCESS:   29674711  HIT:   29620836  MISS:      53875  HIT %:    99.8184  MISS %:   0.181552   MPKI: 0.269375
BTB BRANCH_DIRECT_JUMP	ACCESS:     633395  HIT:     632983  MISS:        412
BTB BRANCH_INDIRECT	ACCESS:       8917  HIT:       8176  MISS:        741
BTB BRANCH_CONDITIONAL	ACCESS:   27681837  HIT:   27678187  MISS:       3650
BTB BRANCH_DIRECT_CALL	ACCESS:     675281  HIT:     673574  MISS:       1707
BTB BRANCH_INDIRECT_CALL	ACCESS:          0  HIT:          0  MISS:          0
BTB BRANCH_RETURN	ACCESS:     675281  HIT:     627916  MISS:      47365
BTB BRANCH_OTHER ACCESS:          0  HIT:          0  MISS:          0

L2C SPEC fills:          0  NON-SPEC fills:      12671
L2C Test counter :          0
L2C Leapfrog:          0
L2C MSHR merge:          0
L2C TOTAL     ACCESS:    6881445  HIT:    5193882  MISS:    1687563  HIT %:    75.4766  MISS %:    24.5234   MPKI: 8.43781
L2C LOAD      TOTAL       ACCESS:     406606  HIT:     200651  MISS:     205955  HIT %:    49.3478  MISS %:    50.6522   MPKI: 1.02977
L2C LOAD      NON_SPEC    ACCESS:     166339  HIT:      41161  MISS:     125178  HIT %:    24.7452  MISS %:    75.2548   MPKI: 0.62589
L2C LOAD      SPEC        ACCESS:     240267  HIT:     159490  MISS:      80777  HIT %:    66.3803  MISS %:    33.6197   MPKI: 0.403885
L2C RFO       NON_SPEC    ACCESS:      97102  HIT:      51972  MISS:      45130  HIT %:    53.5231  MISS %:    46.4769   MPKI: 0.22565
L2C PREFETCH  NON_SPEC    ACCESS:    3359124  HIT:    2007941  MISS:    1351183  HIT %:    59.7757  MISS %:    40.2243   MPKI: 6.75591
L2C WRITEBACK NON_SPEC    ACCESS:    1002042  HIT:    1000967  MISS:       1075  HIT %:    99.8927  MISS %:   0.107281   MPKI: 0.005375
L2C CLEAN_EVICTION NON_SPEC    ACCESS:    1961318  HIT:    1884839  MISS:      76479  HIT %:    96.1006  MISS %:    3.89937   MPKI: 0.382395
L2C COMMIT LOAD NON_SPEC    ACCESS:       7134  HIT:       6243  MISS:        891  HIT %:    87.5105  MISS %:    12.4895   MPKI: 0.004455
L2C LOAD TRANSLATION NON_SPEC    ACCESS:      48119  HIT:      41269  MISS:       6850  HIT %:    85.7645  MISS %:    14.2355   MPKI: 0.03425
L2C PREFETCH  REQUESTED:          0  ISSUED:          0  USEFUL:      47510  USELESS:    1303318
L2C USEFUL LOAD PREFETCHES:      47510 PREFETCH ISSUED TO LOWER LEVEL:    1351182  ACCURACY: 3.51618
L2C TIMELY PREFETCHES:      47510 LATE PREFETCHES: 0 DROPPED PREFETCHES: 0
L2C COMMIT LATE PREFETCHES: 0 NORMAL LATE: 0 MISSED OPPORTUNITY: 0 UNCOVERED: 205955
L2C PREFETCHES SAME FILL-ORIGIN LEVEL: 0 DIFFERENT FILL-ORIGIN LEVEL: 0
L2C AVERAGE MISS LATENCY: 122.842 cycles
L2C AVERAGE MISS LATENCY LOAD: 53.7901 cycles
L2C AVERAGE MISS LATENCY PREFETCH: 137.95 cycles
L2C AVERAGE MSHR OCCUPANCY: 1.77992
L2C MSHR FULL: 0
L2C RQ	ACCESS:     559253	FORWARD:          0	MERGED:          0	TO_CACHE:     558961
L2C WQ	ACCESS:    2963384	FORWARD:       1075	MERGED:         24	TO_CACHE:    2963360
L2C PQ	ACCESS:    3359906	FORWARD:          0	MERGED:          0	TO_CACHE:    3359123

L2C Instructions Evicting Data 103295
L2C Translations Evicting Data 6442
L2C Data Evicting Data 1306695
L2C Instructions Evicting Instructions 8677
L2C Translations Evicting Instructions 375
L2C Data Evicting Instructions 97289
L2C Instructions Evicting Translations 535
L2C Translations Evicting Translations 33
L2C Data Evicting Translations 5891
L2C Dense regions hint from L2: 0
PSCL5 SPEC fills:          0  NON-SPEC fills:          0
PSCL5 Test counter :          0
PSCL5 Leapfrog:          0
PSCL5 MSHR merge:          0
PSCL5 TOTAL     ACCESS:          0  HIT:          0  MISS:          0  HIT %:       -nan  MISS %:       -nan   MPKI: 0
PSCL5 PREFETCH  REQUESTED:          0  ISSUED:          0  USEFUL:          0  USELESS:          0
PSCL5 USEFUL LOAD PREFETCHES:          0 PREFETCH ISSUED TO LOWER LEVEL:          0  ACCURACY: -nan
PSCL5 TIMELY PREFETCHES:          0 LATE PREFETCHES: 0 DROPPED PREFETCHES: 0
PSCL5 COMMIT LATE PREFETCHES: 0 NORMAL LATE: 0 MISSED OPPORTUNITY: 0 UNCOVERED: 0
PSCL5 PREFETCHES SAME FILL-ORIGIN LEVEL: 0 DIFFERENT FILL-ORIGIN LEVEL: 0

PSCL4 SPEC fills:          0  NON-SPEC fills:          0
PSCL4 Test counter :          0
PSCL4 Leapfrog:          0
PSCL4 MSHR merge:          0
PSCL4 TOTAL     ACCESS:          0  HIT:          0  MISS:          0  HIT %:       -nan  MISS %:       -nan   MPKI: 0
PSCL4 PREFETCH  REQUESTED:          0  ISSUED:          0  USEFUL:          0  USELESS:          0
PSCL4 USEFUL LOAD PREFETCHES:          0 PREFETCH ISSUED TO LOWER LEVEL:          0  ACCURACY: -nan
PSCL4 TIMELY PREFETCHES:          0 LATE PREFETCHES: 0 DROPPED PREFETCHES: 0
PSCL4 COMMIT LATE PREFETCHES: 0 NORMAL LATE: 0 MISSED OPPORTUNITY: 0 UNCOVERED: 0
PSCL4 PREFETCHES SAME FILL-ORIGIN LEVEL: 0 DIFFERENT FILL-ORIGIN LEVEL: 0

PSCL3 SPEC fills:          0  NON-SPEC fills:          0
PSCL3 Test counter :          0
PSCL3 Leapfrog:          0
PSCL3 MSHR merge:          0
PSCL3 TOTAL     ACCESS:          0  HIT:          0  MISS:          0  HIT %:       -nan  MISS %:       -nan   MPKI: 0
PSCL3 PREFETCH  REQUESTED:          0  ISSUED:          0  USEFUL:          0  USELESS:          0
PSCL3 USEFUL LOAD PREFETCHES:          0 PREFETCH ISSUED TO LOWER LEVEL:          0  ACCURACY: -nan
PSCL3 TIMELY PREFETCHES:          0 LATE PREFETCHES: 0 DROPPED PREFETCHES: 0
PSCL3 COMMIT LATE PREFETCHES: 0 NORMAL LATE: 0 MISSED OPPORTUNITY: 0 UNCOVERED: 0
PSCL3 PREFETCHES SAME FILL-ORIGIN LEVEL: 0 DIFFERENT FILL-ORIGIN LEVEL: 0

PSCL2 SPEC fills:          0  NON-SPEC fills:          0
PSCL2 Test counter :          0
PSCL2 Leapfrog:          0
PSCL2 MSHR merge:          0
PSCL2 TOTAL     ACCESS:          0  HIT:          0  MISS:          0  HIT %:       -nan  MISS %:       -nan   MPKI: 0
PSCL2 PREFETCH  REQUESTED:          0  ISSUED:          0  USEFUL:          0  USELESS:          0
PSCL2 USEFUL LOAD PREFETCHES:          0 PREFETCH ISSUED TO LOWER LEVEL:          0  ACCURACY: -nan
PSCL2 TIMELY PREFETCHES:          0 LATE PREFETCHES: 0 DROPPED PREFETCHES: 0
PSCL2 COMMIT LATE PREFETCHES: 0 NORMAL LATE: 0 MISSED OPPORTUNITY: 0 UNCOVERED: 0
PSCL2 PREFETCHES SAME FILL-ORIGIN LEVEL: 0 DIFFERENT FILL-ORIGIN LEVEL: 0

LLC SPEC fills:          0  NON-SPEC fills:       2778
LLC Test counter :          0
LLC Leapfrog:          0
LLC MSHR merge:          0
LLC TOTAL     ACCESS:    2794692  HIT:    2049285  MISS:     745407  HIT %:    73.3278  MISS %:    26.6722   MPKI: 3.72703
LLC LOAD      TOTAL       ACCESS:     205954  HIT:     175225  MISS:      30729  HIT %:    85.0797  MISS %:    14.9203   MPKI: 0.153645
LLC LOAD      NON_SPEC    ACCESS:     125178  HIT:     117898  MISS:       7280  HIT %:    94.1843  MISS %:    5.81572   MPKI: 0.0364
LLC LOAD      SPEC        ACCESS:      80776  HIT:      57327  MISS:      23449  HIT %:    70.9703  MISS %:    29.0297   MPKI: 0.117245
LLC RFO       NON_SPEC    ACCESS:      45129  HIT:      22018  MISS:      23111  HIT %:     48.789  MISS %:     51.211   MPKI: 0.115555
LLC PREFETCH  NON_SPEC    ACCESS:    1351164  HIT:     690950  MISS:     660214  HIT %:    51.1374  MISS %:    48.8626   MPKI: 3.30107
LLC WRITEBACK NON_SPEC    ACCESS:     385963  HIT:     380294  MISS:       5669  HIT %:    98.5312  MISS %:    1.46879   MPKI: 0.028345
LLC CLEAN_EVICTION NON_SPEC    ACCESS:     798741  HIT:     775063  MISS:      23678  HIT %:    97.0356  MISS %:    2.96442   MPKI: 0.11839
LLC COMMIT LOAD NON_SPEC    ACCESS:        891  HIT:        794  MISS:         97  HIT %:    89.1134  MISS %:    10.8866   MPKI: 0.000485
LLC LOAD TRANSLATION NON_SPEC    ACCESS:       6850  HIT:       4941  MISS:       1909  HIT %:    72.1314  MISS %:    27.8686   MPKI: 0.009545
LLC PREFETCH  REQUESTED:          0  ISSUED:          0  USEFUL:      13553  USELESS:     647370
LLC USEFUL LOAD PREFETCHES:      13553 PREFETCH ISSUED TO LOWER LEVEL:     660214  ACCURACY: 2.05282
LLC TIMELY PREFETCHES:      13553 LATE PREFETCHES: 0 DROPPED PREFETCHES: 0
LLC COMMIT LATE PREFETCHES: 0 NORMAL LATE: 0 MISSED OPPORTUNITY: 0 UNCOVERED: 0
LLC PREFETCHES SAME FILL-ORIGIN LEVEL: 0 DIFFERENT FILL-ORIGIN LEVEL: 0
LLC AVERAGE MISS LATENCY: 213.78 cycles
LLC AVERAGE MISS LATENCY LOAD: 182.502 cycles
LLC AVERAGE MISS LATENCY PREFETCH: 220.544 cycles
LLC AVERAGE MSHR OCCUPANCY: 1.38
LLC MSHR FULL: 0
LLC RQ	ACCESS:     258826	FORWARD:          0	MERGED:          0	TO_CACHE:     258824
LLC WQ	ACCESS:    1184703	FORWARD:         21	MERGED:          0	TO_CACHE:    1184703
LLC PQ	ACCESS:    1351182	FORWARD:          0	MERGED:          0	TO_CACHE:    1351163

LLC Dense regions hint to LLC: 0

RAW hits: 412383
Loads Generated: 40494547
Loads sent to L1D: 40082163
Stores Generated: 13600307
Stores sent to L1D: 13600317
Major fault: 0 Minor fault: 9397
Allocated PAGES: 9397
Total Load insts: 51095376
Total Non-spec loads: 6218277
Percentage of speculative loads: 87.8301

LeapFrogging counter: 61740
Commit hits: 25729856 miss: 8585871
Commit hit %: 74.9798 miss %: 25.0202
Commits not translated: 0
Loads retired: 353767
Stores retired: 13600317
Cache fills: 353767
L1D response latency: 51.5531 cycles
Load retirement latency: 89.6009 cycles
OOO test counter: 0
Discarded buffer inserts: 25729856 hits: 14043 hit %: 0.0545786
Filter prediction accuracy: -nan

stream: 
stream:times selected: 13057135
stream:pref_filled: 4259781
stream:pref_useful: 2915760
stream:pref_late: 3611
stream:misses: 24179
stream:misses_by_poll: 0

CS: 
CS:times selected: 11477934
CS:pref_filled: 85027
CS:pref_useful: 50623
CS:pref_late: 185
CS:misses: 849050
CS:misses_by_poll: 636

CPLX: 
CPLX:times selected: 1578093
CPLX:pref_filled: 55589
CPLX:pref_useful: 21427
CPLX:pref_late: 25
CPLX:misses: 176261
CPLX:misses_by_poll: 432

NL_L1: 
NL:times selected: 2144
NL:pref_filled: 409
NL:pref_useful: 178
NL:pref_late: 0
NL:misses: 333
NL:misses_by_poll: 4

total selections: 26115306
total_filled: 3244412
total_useful: 2181554
total_late: 4044
total_polluted: 1072
total_misses_after_warmup: 1158823
conflicts: 431221
Degree Incremented Times: 4
Degree Decremented Times: 384201

L1 IP Table Write Accesses: 53509649
L1 IP Table Read Accesses: 53078428
L1 RST Write Accesses: 9929585
L1 RST Read Accesses: 19859170
L1 CSPT Write Accesses: 9929585
L1 CSPT Read Accesses: 11209178
L1 RR Filter Tag Write Accesses: 20110649
L1 RR Filter Tag Read Accesses: 2109150587
L1 IP Table Tag Write Accesses: 54055028
L1 IP Table Tag Read Accesses: 54055028
L1 RST Tag Write Accesses: 0
L1 RST Tag Read Accesses: 91864992
L1 RR Filter Write Accesses: 0
L1 RR Filter Read Accesses: 82029540
test: 985738

stream: 
stream:times selected: 7336460
stream:pref_filled: 4259781
stream:pref_useful: 2915760
stream:pref_late: 3611
stream:misses: 11718
stream:misses_by_poll: 0

CS: 
CS:times selected: 6503625
CS:pref_filled: 85027
CS:pref_useful: 50623
CS:pref_late: 185
CS:misses: 206600
CS:misses_by_poll: 544

CPLX: 
CPLX:times selected: 832139
CPLX:pref_filled: 55589
CPLX:pref_useful: 21427
CPLX:pref_late: 25
CPLX:misses: 85299
CPLX:misses_by_poll: 88

NL_L1: 
NL:times selected: 1361
NL:pref_filled: 409
NL:pref_useful: 178
NL:pref_late: 0
NL:misses: 225
NL:misses_by_poll: 0

total selections: 14673585
total_filled: 3244412
total_useful: 2181554
total_late: 4044
total_polluted: 632
total_misses_after_warmup: 355455
conflicts: 191490
Degree Incremented Times: 1
Degree Decremented Times: 202595

L1 IP Table Write Accesses: 31117240
L1 IP Table Read Accesses: 30925750
L1 RST Write Accesses: 5569096
L1 RST Read Accesses: 11138192
L1 CSPT Write Accesses: 5569096
L1 CSPT Read Accesses: 6221944
L1 RR Filter Tag Write Accesses: 14212982
L1 RR Filter Tag Read Accesses: 1229376472
L1 IP Table Tag Write Accesses: 31345117
L1 IP Table Tag Read Accesses: 31345117
L1 RST Tag Write Accesses: 0
L1 RST Tag Read Accesses: 51682194
L1 RR Filter Write Accesses: 0
L1 RR Filter Read Accesses: 46220902
test_pseudo: 382718

DRAM Statistics
 CHANNEL 0
 RQ ROW_BUFFER_HIT:     151185  ROW_BUFFER_MISS:     564864
 DBUS_CONGESTED:       1474
 WQ ROW_BUFFER_HIT:     166409  ROW_BUFFER_MISS:     469141  FULL:       1214

 AVG_CONGESTED_CYCLE: 5
 All warmup complete: 2
Channel 0 Bank busy for read cycles: 0
Channel 0 Bank busy for write cycles: 0
Channel 0
Rank 0
0banks busy for read cycles: 189349034
0banks busy for write cycles: 32465
1banks busy for read cycles: 16528682
1banks busy for write cycles: 3150945
2banks busy for read cycles: 9516699
2banks busy for write cycles: 1364063
3banks busy for read cycles: 3209973
3banks busy for write cycles: 972152
4banks busy for read cycles: 1973147
4banks busy for write cycles: 870829
5banks busy for read cycles: 1582225
5banks busy for write cycles: 864756
6banks busy for read cycles: 2516482
6banks busy for write cycles: 1077281
7banks busy for read cycles: 1214624
7banks busy for write cycles: 1737300
8banks busy for read cycles: 1251090
8banks busy for write cycles: 9509289

CPU 0 Branch Prediction Accuracy: 99.215% MPKI: 1.19675 Average ROB Occupancy at Mispredict: 23.2733
Branch types
NOT_BRANCH: 169508277 84.7541%
BRANCH_DIRECT_JUMP: 633395 0.316697%
BRANCH_INDIRECT: 8917 0.0044585%
BRANCH_CONDITIONAL: 28498600 14.2493%
BRANCH_DIRECT_CALL: 675281 0.33764%
BRANCH_INDIRECT_CALL: 0 0%
BRANCH_RETURN: 675281 0.33764%
BRANCH_OTHER: 0 0%

DRAM PAGES: 1048576
Allocated PAGES: 9397
