
*** ChampSim Multicore Out-of-Order Simulator ***

Warmup Instructions: 50000000
Simulation Instructions: 200000000
Number of CPUs: 1
LLC sets: 2048
LLC ways: 16
L0D sets: 16
L0D ways: 2
ROB size: 352
LQ size: 128
SQ size: 72
Secure Berti: OFF
Berti: OFF
Berti Fill: OFF
On commit prefetching: ON
Hit-based filter: OFF
Time-guarding: ON
Free-slotting: ON
Leap-frogging: ON
Train prefetcher on L0D bypass: OFF
No translation penalty for prefetchers: OFF
Prefetch to L0D only: OFF
Prefetch to L1D only: OFF
Clean evictions: ON
Commit loads: ON
Commit write: ON
Fill commit loads to L2C, LLC: ON
DRAM IO FREQUENCY: 6400
ROB SIZE: 352
Off-chip DRAM Size: 4096 MB Channels: 1 Width: 64-bit Data Rate: 6400 MT/s
CPU 0 runs /home/sumon/secure_berti/GhostMinion/../../traces/spec/649.fotonik3d_s-1176B.champsimtrace.xz
.xz
BTB has LRU replacement policy
ITLB has LRU replacement policy
DTLB has LRU replacement policy
STLB has LRU replacement policy
L1I has LRU replacement policy
L0D has LRU replacement policy
IP Table Entries: 1024
CSPT Entries: 128
RR_ENTRIES: 32
RST_ENTRIES: 8
IP Table Entries: 1024
CSPT Entries: 128
RR_ENTRIES: 32
RST_ENTRIES: 8
L1D has LRU replacement policy
L2C has LRU replacement policy
LLC has LRU replacement policy
Heartbeat CPU 0 instructions: 10000003 cycles: 3138373 heartbeat IPC: 3.18637 cumulative IPC: 3.18637 (Simulation time: 0 hr 0 min 45 sec) 
Heartbeat CPU 0 instructions: 20000002 cycles: 6276502 heartbeat IPC: 3.18661 cumulative IPC: 3.18649 (Simulation time: 0 hr 1 min 31 sec) 
Heartbeat CPU 0 instructions: 30000000 cycles: 9414712 heartbeat IPC: 3.18653 cumulative IPC: 3.1865 (Simulation time: 0 hr 2 min 16 sec) 
Heartbeat CPU 0 instructions: 40000003 cycles: 12552965 heartbeat IPC: 3.18649 cumulative IPC: 3.1865 (Simulation time: 0 hr 3 min 3 sec) 
Heartbeat CPU 0 instructions: 50000001 cycles: 15691141 heartbeat IPC: 3.18656 cumulative IPC: 3.18651 (Simulation time: 0 hr 3 min 51 sec) 

Warmup complete CPU 0 instructions: 50000001 cycles: 15691141 (Simulation time: 0 hr 3 min 51 sec) 

Heartbeat CPU 0 instructions: 60000003 cycles: 25719030 heartbeat IPC: 0.997219 cumulative IPC: 0.997219 (Simulation time: 0 hr 4 min 24 sec) 
Heartbeat CPU 0 instructions: 70000000 cycles: 35743214 heartbeat IPC: 0.997587 cumulative IPC: 0.997403 (Simulation time: 0 hr 4 min 57 sec) 
Heartbeat CPU 0 instructions: 80000001 cycles: 45773742 heartbeat IPC: 0.996957 cumulative IPC: 0.997254 (Simulation time: 0 hr 5 min 33 sec) 
Heartbeat CPU 0 instructions: 90000001 cycles: 55796400 heartbeat IPC: 0.997739 cumulative IPC: 0.997375 (Simulation time: 0 hr 6 min 12 sec) 
Heartbeat CPU 0 instructions: 100000000 cycles: 65826960 heartbeat IPC: 0.996953 cumulative IPC: 0.997291 (Simulation time: 0 hr 6 min 52 sec) 
Heartbeat CPU 0 instructions: 110000000 cycles: 75849939 heartbeat IPC: 0.997707 cumulative IPC: 0.99736 (Simulation time: 0 hr 7 min 32 sec) 
Heartbeat CPU 0 instructions: 120000001 cycles: 85880725 heartbeat IPC: 0.996931 cumulative IPC: 0.997299 (Simulation time: 0 hr 8 min 12 sec) 
Heartbeat CPU 0 instructions: 130000002 cycles: 95903051 heartbeat IPC: 0.997772 cumulative IPC: 0.997358 (Simulation time: 0 hr 8 min 53 sec) 
Heartbeat CPU 0 instructions: 140000003 cycles: 105934833 heartbeat IPC: 0.996832 cumulative IPC: 0.9973 (Simulation time: 0 hr 9 min 34 sec) 
Heartbeat CPU 0 instructions: 150000000 cycles: 115956737 heartbeat IPC: 0.997814 cumulative IPC: 0.997351 (Simulation time: 0 hr 10 min 14 sec) 
Heartbeat CPU 0 instructions: 160000000 cycles: 125989362 heartbeat IPC: 0.996748 cumulative IPC: 0.997296 (Simulation time: 0 hr 10 min 55 sec) 
Heartbeat CPU 0 instructions: 170000000 cycles: 136012239 heartbeat IPC: 0.997717 cumulative IPC: 0.997331 (Simulation time: 0 hr 11 min 36 sec) 
Heartbeat CPU 0 instructions: 180000001 cycles: 146040059 heartbeat IPC: 0.997226 cumulative IPC: 0.997323 (Simulation time: 0 hr 12 min 16 sec) 
Heartbeat CPU 0 instructions: 190000002 cycles: 156064187 heartbeat IPC: 0.997593 cumulative IPC: 0.997342 (Simulation time: 0 hr 12 min 57 sec) 
Heartbeat CPU 0 instructions: 200000003 cycles: 166092270 heartbeat IPC: 0.9972 cumulative IPC: 0.997333 (Simulation time: 0 hr 13 min 37 sec) 
Heartbeat CPU 0 instructions: 210000000 cycles: 176116446 heartbeat IPC: 0.997588 cumulative IPC: 0.997349 (Simulation time: 0 hr 14 min 18 sec) 
Heartbeat CPU 0 instructions: 220000000 cycles: 186146780 heartbeat IPC: 0.996976 cumulative IPC: 0.997327 (Simulation time: 0 hr 14 min 58 sec) 
Heartbeat CPU 0 instructions: 230000001 cycles: 196171701 heartbeat IPC: 0.997514 cumulative IPC: 0.997337 (Simulation time: 0 hr 15 min 39 sec) 
Heartbeat CPU 0 instructions: 240000000 cycles: 206202227 heartbeat IPC: 0.996957 cumulative IPC: 0.997317 (Simulation time: 0 hr 16 min 20 sec) 
Heartbeat CPU 0 instructions: 250000002 cycles: 216228484 heartbeat IPC: 0.997381 cumulative IPC: 0.99732 (Simulation time: 0 hr 17 min 0 sec) 
Finished CPU 0 instructions: 200000001 cycles: 200537343 cumulative IPC: 0.99732 (Simulation time: 0 hr 17 min 0 sec) 
 Instruction ID: 250000267

ChampSim completed all CPUs

Region of Interest Statistics

CPU 0 cumulative IPC: 0.99732 instructions: 200000001 cycles: 200537343
ITLB SPEC fills:          0  NON-SPEC fills:          0
ITLB Test counter :          0
ITLB Leapfrog:          0
ITLB MSHR merge:          0
ITLB TOTAL     ACCESS:   28072736  HIT:   28072736  MISS:          0  HIT %:        100  MISS %:          0   MPKI: 0
ITLB LOAD TRANSLATION NON_SPEC    ACCESS:   28072736  HIT:   28072736  MISS:          0  HIT %:        100  MISS %:          0   MPKI: 0
ITLB PREFETCH  REQUESTED:          0  ISSUED:          0  USEFUL:          0  USELESS:          0
ITLB USEFUL LOAD PREFETCHES:          0 PREFETCH ISSUED TO LOWER LEVEL:          0  ACCURACY: -nan
ITLB TIMELY PREFETCHES:          0 LATE PREFETCHES: 0 DROPPED PREFETCHES: 0
ITLB COMMIT LATE PREFETCHES: 0 NORMAL LATE: 0 MISSED OPPORTUNITY: 0 UNCOVERED: 0
ITLB PREFETCHES SAME FILL-ORIGIN LEVEL: 0 DIFFERENT FILL-ORIGIN LEVEL: 0
ITLB AVERAGE MISS LATENCY: -nan cycles
ITLB AVERAGE MISS LATENCY LOAD: -nan cycles
ITLB AVERAGE MISS LATENCY PREFETCH: -nan cycles
ITLB AVERAGE MSHR OCCUPANCY: 0
ITLB MSHR FULL: 0
ITLB RQ	ACCESS:   35092940	FORWARD:          0	MERGED:    7020204	TO_CACHE:   28072736

DTLB SPEC fills:          0  NON-SPEC fills:          0
DTLB Test counter :          0
DTLB Leapfrog:          0
DTLB MSHR merge:          0
DTLB TOTAL     ACCESS:   36980127  HIT:   36933173  MISS:      46954  HIT %:     99.873  MISS %:   0.126971   MPKI: 0.23477
DTLB LOAD TRANSLATION NON_SPEC    ACCESS:   36980127  HIT:   36933173  MISS:      46954  HIT %:     99.873  MISS %:   0.126971   MPKI: 0.23477
DTLB PREFETCH  REQUESTED:          0  ISSUED:          0  USEFUL:          0  USELESS:          0
DTLB USEFUL LOAD PREFETCHES:          0 PREFETCH ISSUED TO LOWER LEVEL:          0  ACCURACY: -nan
DTLB TIMELY PREFETCHES:          0 LATE PREFETCHES: 0 DROPPED PREFETCHES: 0
DTLB COMMIT LATE PREFETCHES: 0 NORMAL LATE: 0 MISSED OPPORTUNITY: 0 UNCOVERED: 0
DTLB PREFETCHES SAME FILL-ORIGIN LEVEL: 0 DIFFERENT FILL-ORIGIN LEVEL: 0
DTLB AVERAGE MISS LATENCY: 114.758 cycles
DTLB AVERAGE MISS LATENCY LOAD: -nan cycles
DTLB AVERAGE MISS LATENCY PREFETCH: -nan cycles
DTLB AVERAGE MSHR OCCUPANCY: 0.00691165
DTLB MSHR FULL: 0
DTLB RQ	ACCESS:   57765682	FORWARD:          0	MERGED:   20782311	TO_CACHE:   36983371

STLB SPEC fills:          0  NON-SPEC fills:          0
STLB Test counter :          0
STLB Leapfrog:          0
STLB MSHR merge:          0
STLB TOTAL     ACCESS:    2427446  HIT:    2399992  MISS:      27454  HIT %:     98.869  MISS %:    1.13098   MPKI: 0.13727
STLB LOAD TRANSLATION NON_SPEC    ACCESS:      46954  HIT:      19500  MISS:      27454  HIT %:      41.53  MISS %:      58.47   MPKI: 0.13727
STLB TRANSLATION FROM L1D PREFETCHER NON_SPEC    ACCESS:    2380492  HIT:    2380492  MISS:          0  HIT %:        100  MISS %:          0   MPKI: 0
STLB PREFETCH  REQUESTED:          0  ISSUED:          0  USEFUL:          0  USELESS:          0
STLB USEFUL LOAD PREFETCHES:          0 PREFETCH ISSUED TO LOWER LEVEL:          0  ACCURACY: -nan
STLB TIMELY PREFETCHES:          0 LATE PREFETCHES: 0 DROPPED PREFETCHES: 0
STLB COMMIT LATE PREFETCHES: 0 NORMAL LATE: 0 MISSED OPPORTUNITY: 0 UNCOVERED: 0
STLB PREFETCHES SAME FILL-ORIGIN LEVEL: 0 DIFFERENT FILL-ORIGIN LEVEL: 0
STLB AVERAGE MISS LATENCY: 180.839 cycles
STLB AVERAGE MISS LATENCY LOAD: -nan cycles
STLB AVERAGE MISS LATENCY PREFETCH: -nan cycles
STLB AVERAGE MSHR OCCUPANCY: 0.000105873
STLB MSHR FULL: 0
STLB RQ	ACCESS:    2648322	FORWARD:          0	MERGED:     220876	TO_CACHE:    2427446

STLB Hit, L1D data hit: 0
STLB Hit, L2C data hit: 0
STLB Hit, LLC data hit: 0
STLB Hit, LLC data miss: 0
STLB STLB hints to L2: 0
L0D SPEC fills:   28410032  NON-SPEC fills:          0
L0D TimeGuard Request with older TS:       9162 Restricted eviction:        355 read:     206638
L0D Test counter :          0
L0D Leapfrog:          0
L0D MSHR merge:    5788154
L0D TOTAL     ACCESS:   37936432  HIT:    3554264  MISS:   34382168  HIT %:      9.369  MISS %:     90.631   MPKI: 171.911
L0D LOAD      TOTAL       ACCESS:   37936432  HIT:    3554264  MISS:   34382168  HIT %:      9.369  MISS %:     90.631   MPKI: 171.911
L0D LOAD      NON_SPEC    ACCESS:    5983247  HIT:      11466  MISS:    5971781  HIT %:   0.191635  MISS %:    99.8084   MPKI: 29.8589
L0D LOAD      SPEC        ACCESS:   31953185  HIT:    3542798  MISS:   28410387  HIT %:    11.0875  MISS %:    88.9125   MPKI: 142.052
L0D PREFETCH  REQUESTED:          0  ISSUED:          0  USEFUL:          0  USELESS:          0
L0D USEFUL LOAD PREFETCHES:          0 PREFETCH ISSUED TO LOWER LEVEL:          0  ACCURACY: -nan
L0D TIMELY PREFETCHES:          0 LATE PREFETCHES: 0 DROPPED PREFETCHES: 0
L0D COMMIT LATE PREFETCHES: 0 NORMAL LATE: 0 MISSED OPPORTUNITY: 0 UNCOVERED: 0
L0D PREFETCHES SAME FILL-ORIGIN LEVEL: 0 DIFFERENT FILL-ORIGIN LEVEL: 0
L0D AVERAGE MISS LATENCY: 5.65596 cycles
L0D AVERAGE MISS LATENCY LOAD: 5.65596 cycles
L0D AVERAGE MISS LATENCY PREFETCH: -nan cycles
L0D AVERAGE MSHR OCCUPANCY: 1.24564
L0D MSHR FULL: 7.31854e-07
L0D RQ	ACCESS:   70166231	FORWARD:          0	MERGED:   26441647	TO_CACHE:   43724584
L0D WQ	ACCESS:   14041098	FORWARD:          0	MERGED:          0	TO_CACHE:   14041098

L1D SPEC fills:          0  NON-SPEC fills:      42782
L1D Test counter :          0
L1D Leapfrog:          0
L1D MSHR merge:      47027
L1D TOTAL     ACCESS:  107796801  HIT:  105033153  MISS:    2763648  HIT %:    97.4362  MISS %:    2.56376   MPKI: 13.8182
L1D LOAD      TOTAL       ACCESS:   34381687  HIT:   34251078  MISS:     130609  HIT %:    99.6201  MISS %:    0.37988   MPKI: 0.653045
L1D LOAD      NON_SPEC    ACCESS:    5971774  HIT:    5928992  MISS:      42782  HIT %:    99.2836  MISS %:   0.716404   MPKI: 0.21391
L1D LOAD      SPEC        ACCESS:   28409913  HIT:   28322086  MISS:      87827  HIT %:    99.6909  MISS %:   0.309142   MPKI: 0.439135
L1D RFO       NON_SPEC    ACCESS:   13754650  HIT:   13751926  MISS:       2724  HIT %:    99.9802  MISS %:  0.0198042   MPKI: 0.01362
L1D PREFETCH  NON_SPEC    ACCESS:    2550642  HIT:       8944  MISS:    2541698  HIT %:   0.350657  MISS %:    99.6493   MPKI: 12.7085
L1D COMMIT LOAD NON_SPEC    ACCESS:   28707711  HIT:   28706333  MISS:       1378  HIT %:    99.9952  MISS %:  0.0048001   MPKI: 0.00689
L1D COMMIT WRITE NON_SPEC    ACCESS:   28402111  HIT:   28314872  MISS:      87239  HIT %:    99.6928  MISS %:   0.307157   MPKI: 0.436195
L1D PREFETCH  REQUESTED:    2601413  ISSUED:    2601368  USEFUL:    2514069  USELESS:      27644
L1D USEFUL LOAD PREFETCHES:    2514069 PREFETCH ISSUED TO LOWER LEVEL:    2588250  ACCURACY: 97.1339
L1D TIMELY PREFETCHES:    2514069 LATE PREFETCHES: 46551 DROPPED PREFETCHES: 0
L1D COMMIT LATE PREFETCHES: 18187 NORMAL LATE: 46625 MISSED OPPORTUNITY: 165 UNCOVERED: 65651
L1D PREFETCHES SAME FILL-ORIGIN LEVEL: 2588250 DIFFERENT FILL-ORIGIN LEVEL: 0
L1D AVERAGE MISS LATENCY: 136.966 cycles
L1D AVERAGE MISS LATENCY LOAD: 121.995 cycles
L1D AVERAGE MISS LATENCY PREFETCH: 142.633 cycles
L1D AVERAGE MSHR OCCUPANCY: 1.94542
L1D MSHR FULL: 2.75634e-05
L1D RQ	ACCESS:   66805402	FORWARD:          0	MERGED:    3585588	TO_CACHE:   63089940
L1D WQ	ACCESS:   42443315	FORWARD:     129874	MERGED:     280118	TO_CACHE:   42163197
L1D PQ	ACCESS:    2601368	FORWARD:          0	MERGED:          0	TO_CACHE:    2601368

L1D UNIQUE REGIONS ACCESSED: 0
L1D REGIONS CONFLICTS: 0
L1D Cross Page Prefetch Requests: 0
L1D Same Page Prefetch Requests: 3251628
L1D ROI Sum of L1D PQ occupancy: 36856481
L1D PREFETCHES PUSHED FROM L2C: 0
L1I SPEC fills:          0  NON-SPEC fills:          0
L1I Test counter :          0
L1I Leapfrog:          0
L1I MSHR merge:          0
L1I TOTAL     ACCESS:   35092939  HIT:   35092939  MISS:          0  HIT %:        100  MISS %:          0   MPKI: 0
L1I LOAD      TOTAL       ACCESS:   35092939  HIT:   35092939  MISS:          0  HIT %:        100  MISS %:          0   MPKI: 0
L1I LOAD      NON_SPEC    ACCESS:   35092939  HIT:   35092939  MISS:          0  HIT %:        100  MISS %:          0   MPKI: 0
L1I PREFETCH  REQUESTED:          0  ISSUED:          0  USEFUL:          0  USELESS:          0
L1I USEFUL LOAD PREFETCHES:          0 PREFETCH ISSUED TO LOWER LEVEL:          0  ACCURACY: -nan
L1I TIMELY PREFETCHES:          0 LATE PREFETCHES: 0 DROPPED PREFETCHES: 0
L1I COMMIT LATE PREFETCHES: 0 NORMAL LATE: 0 MISSED OPPORTUNITY: 0 UNCOVERED: 0
L1I PREFETCHES SAME FILL-ORIGIN LEVEL: 0 DIFFERENT FILL-ORIGIN LEVEL: 0
L1I AVERAGE MISS LATENCY: -nan cycles
L1I AVERAGE MISS LATENCY LOAD: -nan cycles
L1I AVERAGE MISS LATENCY PREFETCH: -nan cycles
L1I AVERAGE MSHR OCCUPANCY: 0
L1I MSHR FULL: 0
L1I RQ	ACCESS:   45652704	FORWARD:          0	MERGED:   10559764	TO_CACHE:   35092940

BTB SPEC fills:          0  NON-SPEC fills:          0
BTB Test counter :          0
BTB Leapfrog:          0
BTB MSHR merge:          0
BTB TOTAL     ACCESS:    3509178  HIT:    3509169  MISS:          9  HIT %:    99.9997  MISS %: 0.00025647   MPKI: 4.5e-05
BTB BRANCH_DIRECT_JUMP	ACCESS:        876  HIT:        874  MISS:          2
BTB BRANCH_INDIRECT	ACCESS:          0  HIT:          0  MISS:          0
BTB BRANCH_CONDITIONAL	ACCESS:    3506550  HIT:    3506547  MISS:          3
BTB BRANCH_DIRECT_CALL	ACCESS:        876  HIT:        874  MISS:          2
BTB BRANCH_INDIRECT_CALL	ACCESS:          0  HIT:          0  MISS:          0
BTB BRANCH_RETURN	ACCESS:        876  HIT:        874  MISS:          2
BTB BRANCH_OTHER ACCESS:          0  HIT:          0  MISS:          0

L2C SPEC fills:          0  NON-SPEC fills:      22149
L2C Test counter :          0
L2C Leapfrog:          0
L2C MSHR merge:          0
L2C TOTAL     ACCESS:    5460020  HIT:    3669252  MISS:    1790768  HIT %:    67.2022  MISS %:    32.7978   MPKI: 8.95384
L2C LOAD      TOTAL       ACCESS:      84063  HIT:      33087  MISS:      50976  HIT %:    39.3598  MISS %:    60.6402   MPKI: 0.25488
L2C LOAD      NON_SPEC    ACCESS:      40288  HIT:      18139  MISS:      22149  HIT %:    45.0233  MISS %:    54.9767   MPKI: 0.110745
L2C LOAD      SPEC        ACCESS:      43775  HIT:      14948  MISS:      28827  HIT %:    34.1473  MISS %:    65.8527   MPKI: 0.144135
L2C RFO       NON_SPEC    ACCESS:       2724  HIT:       2703  MISS:         21  HIT %:    99.2291  MISS %:   0.770925   MPKI: 0.000105
L2C PREFETCH  NON_SPEC    ACCESS:    2588249  HIT:     866537  MISS:    1721712  HIT %:    33.4797  MISS %:    66.5203   MPKI: 8.60856
L2C WRITEBACK NON_SPEC    ACCESS:    1270787  HIT:    1270787  MISS:          0  HIT %:        100  MISS %:          0   MPKI: 0
L2C CLEAN_EVICTION NON_SPEC    ACCESS:    1375644  HIT:    1361121  MISS:      14523  HIT %:    98.9443  MISS %:    1.05572   MPKI: 0.072615
L2C COMMIT LOAD NON_SPEC    ACCESS:       1373  HIT:       1371  MISS:          2  HIT %:    99.8543  MISS %:   0.145666   MPKI: 1e-05
L2C LOAD TRANSLATION NON_SPEC    ACCESS:     137180  HIT:     133646  MISS:       3534  HIT %:    97.4238  MISS %:    2.57618   MPKI: 0.01767
L2C PREFETCH  REQUESTED:          0  ISSUED:          0  USEFUL:       2771  USELESS:    1719970
L2C USEFUL LOAD PREFETCHES:       2771 PREFETCH ISSUED TO LOWER LEVEL:    1721713  ACCURACY: 0.160944
L2C TIMELY PREFETCHES:       2771 LATE PREFETCHES: 0 DROPPED PREFETCHES: 0
L2C COMMIT LATE PREFETCHES: 0 NORMAL LATE: 0 MISSED OPPORTUNITY: 0 UNCOVERED: 50976
L2C PREFETCHES SAME FILL-ORIGIN LEVEL: 0 DIFFERENT FILL-ORIGIN LEVEL: 0
L2C AVERAGE MISS LATENCY: 191.728 cycles
L2C AVERAGE MISS LATENCY LOAD: 179.538 cycles
L2C AVERAGE MISS LATENCY PREFETCH: 193.692 cycles
L2C AVERAGE MSHR OCCUPANCY: 0.409528
L2C MSHR FULL: 0
L2C RQ	ACCESS:     225340	FORWARD:          0	MERGED:          0	TO_CACHE:     225340
L2C WQ	ACCESS:    2646432	FORWARD:          0	MERGED:          1	TO_CACHE:    2646431
L2C PQ	ACCESS:    2588250	FORWARD:          0	MERGED:          0	TO_CACHE:    2588250

L2C Instructions Evicting Data 0
L2C Translations Evicting Data 3526
L2C Data Evicting Data 1740388
L2C Instructions Evicting Instructions 0
L2C Translations Evicting Instructions 0
L2C Data Evicting Instructions 0
L2C Instructions Evicting Translations 0
L2C Translations Evicting Translations 8
L2C Data Evicting Translations 3496
L2C Dense regions hint from L2: 0
PSCL5 SPEC fills:          0  NON-SPEC fills:          0
PSCL5 Test counter :          0
PSCL5 Leapfrog:          0
PSCL5 MSHR merge:          0
PSCL5 TOTAL     ACCESS:          0  HIT:          0  MISS:          0  HIT %:       -nan  MISS %:       -nan   MPKI: 0
PSCL5 PREFETCH  REQUESTED:          0  ISSUED:          0  USEFUL:          0  USELESS:          0
PSCL5 USEFUL LOAD PREFETCHES:          0 PREFETCH ISSUED TO LOWER LEVEL:          0  ACCURACY: -nan
PSCL5 TIMELY PREFETCHES:          0 LATE PREFETCHES: 0 DROPPED PREFETCHES: 0
PSCL5 COMMIT LATE PREFETCHES: 0 NORMAL LATE: 0 MISSED OPPORTUNITY: 0 UNCOVERED: 0
PSCL5 PREFETCHES SAME FILL-ORIGIN LEVEL: 0 DIFFERENT FILL-ORIGIN LEVEL: 0

PSCL4 SPEC fills:          0  NON-SPEC fills:          0
PSCL4 Test counter :          0
PSCL4 Leapfrog:          0
PSCL4 MSHR merge:          0
PSCL4 TOTAL     ACCESS:          0  HIT:          0  MISS:          0  HIT %:       -nan  MISS %:       -nan   MPKI: 0
PSCL4 PREFETCH  REQUESTED:          0  ISSUED:          0  USEFUL:          0  USELESS:          0
PSCL4 USEFUL LOAD PREFETCHES:          0 PREFETCH ISSUED TO LOWER LEVEL:          0  ACCURACY: -nan
PSCL4 TIMELY PREFETCHES:          0 LATE PREFETCHES: 0 DROPPED PREFETCHES: 0
PSCL4 COMMIT LATE PREFETCHES: 0 NORMAL LATE: 0 MISSED OPPORTUNITY: 0 UNCOVERED: 0
PSCL4 PREFETCHES SAME FILL-ORIGIN LEVEL: 0 DIFFERENT FILL-ORIGIN LEVEL: 0

PSCL3 SPEC fills:          0  NON-SPEC fills:          0
PSCL3 Test counter :          0
PSCL3 Leapfrog:          0
PSCL3 MSHR merge:          0
PSCL3 TOTAL     ACCESS:          0  HIT:          0  MISS:          0  HIT %:       -nan  MISS %:       -nan   MPKI: 0
PSCL3 PREFETCH  REQUESTED:          0  ISSUED:          0  USEFUL:          0  USELESS:          0
PSCL3 USEFUL LOAD PREFETCHES:          0 PREFETCH ISSUED TO LOWER LEVEL:          0  ACCURACY: -nan
PSCL3 TIMELY PREFETCHES:          0 LATE PREFETCHES: 0 DROPPED PREFETCHES: 0
PSCL3 COMMIT LATE PREFETCHES: 0 NORMAL LATE: 0 MISSED OPPORTUNITY: 0 UNCOVERED: 0
PSCL3 PREFETCHES SAME FILL-ORIGIN LEVEL: 0 DIFFERENT FILL-ORIGIN LEVEL: 0

PSCL2 SPEC fills:          0  NON-SPEC fills:          0
PSCL2 Test counter :          0
PSCL2 Leapfrog:          0
PSCL2 MSHR merge:          0
PSCL2 TOTAL     ACCESS:          0  HIT:          0  MISS:          0  HIT %:       -nan  MISS %:       -nan   MPKI: 0
PSCL2 PREFETCH  REQUESTED:          0  ISSUED:          0  USEFUL:          0  USELESS:          0
PSCL2 USEFUL LOAD PREFETCHES:          0 PREFETCH ISSUED TO LOWER LEVEL:          0  ACCURACY: -nan
PSCL2 TIMELY PREFETCHES:          0 LATE PREFETCHES: 0 DROPPED PREFETCHES: 0
PSCL2 COMMIT LATE PREFETCHES: 0 NORMAL LATE: 0 MISSED OPPORTUNITY: 0 UNCOVERED: 0
PSCL2 PREFETCHES SAME FILL-ORIGIN LEVEL: 0 DIFFERENT FILL-ORIGIN LEVEL: 0

LLC SPEC fills:          0  NON-SPEC fills:      22026
LLC Test counter :          0
LLC Leapfrog:          0
LLC MSHR merge:          0
LLC TOTAL     ACCESS:    3530588  HIT:    1741767  MISS:    1788821  HIT %:    49.3336  MISS %:    50.6664   MPKI: 8.9441
LLC LOAD      TOTAL       ACCESS:      50976  HIT:        364  MISS:      50612  HIT %:   0.714062  MISS %:    99.2859   MPKI: 0.25306
LLC LOAD      NON_SPEC    ACCESS:      22149  HIT:        123  MISS:      22026  HIT %:    0.55533  MISS %:    99.4447   MPKI: 0.11013
LLC LOAD      SPEC        ACCESS:      28827  HIT:        241  MISS:      28586  HIT %:   0.836022  MISS %:     99.164   MPKI: 0.14293
LLC RFO       NON_SPEC    ACCESS:         21  HIT:         21  MISS:          0  HIT %:        100  MISS %:          0   MPKI: 0
LLC PREFETCH  NON_SPEC    ACCESS:    1721712  HIT:       1774  MISS:    1719938  HIT %:   0.103037  MISS %:     99.897   MPKI: 8.59969
LLC WRITEBACK NON_SPEC    ACCESS:    1263109  HIT:    1263089  MISS:         20  HIT %:    99.9984  MISS %: 0.00158339   MPKI: 0.0001
LLC CLEAN_EVICTION NON_SPEC    ACCESS:     491234  HIT:     476515  MISS:      14719  HIT %:    97.0037  MISS %:    2.99633   MPKI: 0.073595
LLC COMMIT LOAD NON_SPEC    ACCESS:          2  HIT:          0  MISS:          2  HIT %:          0  MISS %:        100   MPKI: 1e-05
LLC LOAD TRANSLATION NON_SPEC    ACCESS:       3534  HIT:          4  MISS:       3530  HIT %:   0.113186  MISS %:    99.8868   MPKI: 0.01765
LLC PREFETCH  REQUESTED:          0  ISSUED:          0  USEFUL:        288  USELESS:    1719700
LLC USEFUL LOAD PREFETCHES:        288 PREFETCH ISSUED TO LOWER LEVEL:    1719939  ACCURACY: 0.0167448
LLC TIMELY PREFETCHES:        288 LATE PREFETCHES: 0 DROPPED PREFETCHES: 0
LLC COMMIT LATE PREFETCHES: 0 NORMAL LATE: 0 MISSED OPPORTUNITY: 0 UNCOVERED: 0
LLC PREFETCHES SAME FILL-ORIGIN LEVEL: 0 DIFFERENT FILL-ORIGIN LEVEL: 0
LLC AVERAGE MISS LATENCY: 162.29 cycles
LLC AVERAGE MISS LATENCY LOAD: 155.716 cycles
LLC AVERAGE MISS LATENCY PREFETCH: 163.859 cycles
LLC AVERAGE MSHR OCCUPANCY: 0.40691
LLC MSHR FULL: 0
LLC RQ	ACCESS:      54533	FORWARD:          0	MERGED:          0	TO_CACHE:      54533
LLC WQ	ACCESS:    1754343	FORWARD:          0	MERGED:          0	TO_CACHE:    1754343
LLC PQ	ACCESS:    1721713	FORWARD:          0	MERGED:          0	TO_CACHE:    1721713

LLC Dense regions hint to LLC: 0

RAW hits: 2888
Loads Generated: 70169119
Loads sent to L1D: 70166231
Stores Generated: 14041096
Stores sent to L1D: 14041098
Major fault: 0 Minor fault: 34498
Allocated PAGES: 34498
Total Load insts: 87707383
Total Non-spec loads: 10673632
Percentage of speculative loads: 87.8304

LeapFrogging counter: 256
Commit hits: 28402219 miss: 32423235
Commit hit %: 46.6946 miss %: 53.3054
Commits not translated: 0
Loads retired: 130609
Stores retired: 14041098
Cache fills: 130609
L1D response latency: 121.995 cycles
Load retirement latency: 188.328 cycles
OOO test counter: 0
Discarded buffer inserts: 28402219 hits: 1749 hit %: 0.00615797
Filter prediction accuracy: -nan

stream: 
stream:times selected: 21919252
stream:pref_filled: 3181930
stream:pref_useful: 3151814
stream:pref_late: 2193
stream:misses: 84
stream:misses_by_poll: 0

CS: 
CS:times selected: 21919109
CS:pref_filled: 7653
CS:pref_useful: 6813
CS:pref_late: 199
CS:misses: 254820
CS:misses_by_poll: 158

CPLX: 
CPLX:times selected: 84
CPLX:pref_filled: 9
CPLX:pref_useful: 0
CPLX:pref_late: 0
CPLX:misses: 131
CPLX:misses_by_poll: 0

NL_L1: 
NL:times selected: 9
NL:pref_filled: 2
NL:pref_useful: 2
NL:pref_late: 0
NL:misses: 0
NL:misses_by_poll: 0

total selections: 43838454
total_filled: 2541698
total_useful: 2514069
total_late: 2499
total_polluted: 158
total_misses_after_warmup: 255187
conflicts: 0
Degree Incremented Times: 930154
Degree Decremented Times: 0

L1 IP Table Write Accesses: 84207162
L1 IP Table Read Accesses: 84207162
L1 RST Write Accesses: 17535424
L1 RST Read Accesses: 35070848
L1 CSPT Write Accesses: 17535424
L1 CSPT Read Accesses: 17535430
L1 RR Filter Tag Write Accesses: 2601413
L1 RR Filter Tag Read Accesses: 4009307040
L1 IP Table Tag Write Accesses: 84210228
L1 IP Table Tag Read Accesses: 84210228
L1 RST Tag Write Accesses: 0
L1 RST Tag Read Accesses: 158048436
L1 RR Filter Write Accesses: 0
L1 RR Filter Read Accesses: 150025151
test: 344271

stream: 
stream:times selected: 6908551
stream:pref_filled: 3181930
stream:pref_useful: 3151814
stream:pref_late: 2193
stream:misses: 6768
stream:misses_by_poll: 0

CS: 
CS:times selected: 5601008
CS:pref_filled: 7653
CS:pref_useful: 6813
CS:pref_late: 199
CS:misses: 102999
CS:misses_by_poll: 72

CPLX: 
CPLX:times selected: 1307439
CPLX:pref_filled: 9
CPLX:pref_useful: 0
CPLX:pref_late: 0
CPLX:misses: 26862
CPLX:misses_by_poll: 0

NL_L1: 
NL:times selected: 228
NL:pref_filled: 2
NL:pref_useful: 2
NL:pref_late: 0
NL:misses: 61
NL:misses_by_poll: 0

total selections: 13817226
total_filled: 2541698
total_useful: 2514069
total_late: 2499
total_polluted: 72
total_misses_after_warmup: 131090
conflicts: 3
Degree Incremented Times: 308826
Degree Decremented Times: 0

L1 IP Table Write Accesses: 34381710
L1 IP Table Read Accesses: 34381707
L1 RST Write Accesses: 5691989
L1 RST Read Accesses: 11383978
L1 CSPT Write Accesses: 5691989
L1 CSPT Read Accesses: 7426895
L1 RR Filter Tag Write Accesses: 2670906
L1 RR Filter Tag Read Accesses: 1233124436
L1 IP Table Tag Write Accesses: 34382168
L1 IP Table Tag Read Accesses: 34382168
L1 RST Tag Write Accesses: 0
L1 RST Tag Read Accesses: 51477124
L1 RR Filter Write Accesses: 0
L1 RR Filter Read Accesses: 48060368
test_pseudo: 198577

DRAM Statistics
 CHANNEL 0
 RQ ROW_BUFFER_HIT:     189759  ROW_BUFFER_MISS:    1584324
 DBUS_CONGESTED:        269
 WQ ROW_BUFFER_HIT:     697322  ROW_BUFFER_MISS:    1056892  FULL:          0

 AVG_CONGESTED_CYCLE: 5
 All warmup complete: 2
Channel 0 Bank busy for read cycles: 0
Channel 0 Bank busy for write cycles: 0
Channel 0
Rank 0
0banks busy for read cycles: 706366
0banks busy for write cycles: 8927
1banks busy for read cycles: 93499134
1banks busy for write cycles: 1423324
2banks busy for read cycles: 56140759
2banks busy for write cycles: 1700842
3banks busy for read cycles: 5504490
3banks busy for write cycles: 1535513
4banks busy for read cycles: 187847
4banks busy for write cycles: 1319395
5banks busy for read cycles: 264640
5banks busy for write cycles: 1297475
6banks busy for read cycles: 3418342
6banks busy for write cycles: 1485637
7banks busy for read cycles: 323981
7banks busy for write cycles: 3454902
8banks busy for read cycles: 2996
8banks busy for write cycles: 28262774

CPU 0 Branch Prediction Accuracy: 99.9751% MPKI: 0.00438 Average ROB Occupancy at Mispredict: 56.5091
Branch types
NOT_BRANCH: 196487644 98.2438%
BRANCH_DIRECT_JUMP: 876 0.000438%
BRANCH_INDIRECT: 0 0%
BRANCH_CONDITIONAL: 3509616 1.75481%
BRANCH_DIRECT_CALL: 876 0.000438%
BRANCH_INDIRECT_CALL: 0 0%
BRANCH_RETURN: 876 0.000438%
BRANCH_OTHER: 0 0%

DRAM PAGES: 1048576
Allocated PAGES: 34498
