
*** ChampSim Multicore Out-of-Order Simulator ***

Warmup Instructions: 50000000
Simulation Instructions: 200000000
Number of CPUs: 1
LLC sets: 2048
LLC ways: 16
L0D sets: 16
L0D ways: 2
ROB size: 352
LQ size: 128
SQ size: 72
Secure Berti: OFF
Berti: OFF
Berti Fill: OFF
On commit prefetching: ON
Hit-based filter: OFF
Time-guarding: ON
Free-slotting: ON
Leap-frogging: ON
Train prefetcher on L0D bypass: OFF
No translation penalty for prefetchers: OFF
Prefetch to L0D only: OFF
Prefetch to L1D only: OFF
Clean evictions: ON
Commit loads: ON
Commit write: ON
Fill commit loads to L2C, LLC: ON
DRAM IO FREQUENCY: 6400
ROB SIZE: 352
Off-chip DRAM Size: 4096 MB Channels: 1 Width: 64-bit Data Rate: 6400 MT/s
CPU 0 runs /home/sumon/secure_berti/GhostMinion/../../traces/spec/649.fotonik3d_s-8225B.champsimtrace.xz
.xz
BTB has LRU replacement policy
ITLB has LRU replacement policy
DTLB has LRU replacement policy
STLB has LRU replacement policy
L1I has LRU replacement policy
L0D has LRU replacement policy
IP Table Entries: 1024
CSPT Entries: 128
RR_ENTRIES: 32
RST_ENTRIES: 8
IP Table Entries: 1024
CSPT Entries: 128
RR_ENTRIES: 32
RST_ENTRIES: 8
L1D has LRU replacement policy
L2C has LRU replacement policy
LLC has LRU replacement policy
Heartbeat CPU 0 instructions: 10000000 cycles: 3138338 heartbeat IPC: 3.1864 cumulative IPC: 3.1864 (Simulation time: 0 hr 1 min 2 sec) 
Heartbeat CPU 0 instructions: 20000001 cycles: 6276698 heartbeat IPC: 3.18638 cumulative IPC: 3.18639 (Simulation time: 0 hr 1 min 48 sec) 
Heartbeat CPU 0 instructions: 30000000 cycles: 9414895 heartbeat IPC: 3.18654 cumulative IPC: 3.18644 (Simulation time: 0 hr 2 min 34 sec) 
Heartbeat CPU 0 instructions: 40000002 cycles: 12553124 heartbeat IPC: 3.18651 cumulative IPC: 3.18646 (Simulation time: 0 hr 3 min 21 sec) 
Heartbeat CPU 0 instructions: 50000001 cycles: 15691288 heartbeat IPC: 3.18658 cumulative IPC: 3.18648 (Simulation time: 0 hr 4 min 8 sec) 

Warmup complete CPU 0 instructions: 50000001 cycles: 15691288 (Simulation time: 0 hr 4 min 8 sec) 

Heartbeat CPU 0 instructions: 60000000 cycles: 25719474 heartbeat IPC: 0.997189 cumulative IPC: 0.997189 (Simulation time: 0 hr 4 min 41 sec) 
Heartbeat CPU 0 instructions: 70000001 cycles: 35745756 heartbeat IPC: 0.997379 cumulative IPC: 0.997284 (Simulation time: 0 hr 5 min 13 sec) 
Heartbeat CPU 0 instructions: 80000002 cycles: 45774412 heartbeat IPC: 0.997143 cumulative IPC: 0.997237 (Simulation time: 0 hr 6 min 4 sec) 
Heartbeat CPU 0 instructions: 90000003 cycles: 55800834 heartbeat IPC: 0.997365 cumulative IPC: 0.997269 (Simulation time: 0 hr 7 min 0 sec) 
Heartbeat CPU 0 instructions: 100000000 cycles: 65826804 heartbeat IPC: 0.997409 cumulative IPC: 0.997297 (Simulation time: 0 hr 7 min 56 sec) 
Heartbeat CPU 0 instructions: 110000000 cycles: 75855218 heartbeat IPC: 0.997167 cumulative IPC: 0.997275 (Simulation time: 0 hr 8 min 52 sec) 
Heartbeat CPU 0 instructions: 120000002 cycles: 85879281 heartbeat IPC: 0.9976 cumulative IPC: 0.997322 (Simulation time: 0 hr 9 min 48 sec) 
Heartbeat CPU 0 instructions: 130000003 cycles: 95907046 heartbeat IPC: 0.997231 cumulative IPC: 0.99731 (Simulation time: 0 hr 10 min 45 sec) 
Heartbeat CPU 0 instructions: 140000002 cycles: 105933273 heartbeat IPC: 0.997384 cumulative IPC: 0.997319 (Simulation time: 0 hr 11 min 41 sec) 
Heartbeat CPU 0 instructions: 150000003 cycles: 115959495 heartbeat IPC: 0.997385 cumulative IPC: 0.997325 (Simulation time: 0 hr 12 min 37 sec) 
Heartbeat CPU 0 instructions: 160000000 cycles: 125985390 heartbeat IPC: 0.997417 cumulative IPC: 0.997333 (Simulation time: 0 hr 13 min 34 sec) 
Heartbeat CPU 0 instructions: 170000003 cycles: 136015504 heartbeat IPC: 0.996998 cumulative IPC: 0.997306 (Simulation time: 0 hr 14 min 31 sec) 
Heartbeat CPU 0 instructions: 180000000 cycles: 146039058 heartbeat IPC: 0.99765 cumulative IPC: 0.997332 (Simulation time: 0 hr 15 min 29 sec) 
Heartbeat CPU 0 instructions: 190000001 cycles: 156066220 heartbeat IPC: 0.997291 cumulative IPC: 0.997329 (Simulation time: 0 hr 16 min 26 sec) 
Heartbeat CPU 0 instructions: 200000003 cycles: 166093328 heartbeat IPC: 0.997297 cumulative IPC: 0.997327 (Simulation time: 0 hr 17 min 24 sec) 
Heartbeat CPU 0 instructions: 210000000 cycles: 176119902 heartbeat IPC: 0.997349 cumulative IPC: 0.997328 (Simulation time: 0 hr 18 min 21 sec) 
Heartbeat CPU 0 instructions: 220000000 cycles: 186144247 heartbeat IPC: 0.997571 cumulative IPC: 0.997343 (Simulation time: 0 hr 19 min 18 sec) 
Heartbeat CPU 0 instructions: 230000000 cycles: 196171207 heartbeat IPC: 0.997311 cumulative IPC: 0.997341 (Simulation time: 0 hr 20 min 14 sec) 
Heartbeat CPU 0 instructions: 240000003 cycles: 206198010 heartbeat IPC: 0.997327 cumulative IPC: 0.99734 (Simulation time: 0 hr 21 min 10 sec) 
Heartbeat CPU 0 instructions: 250000000 cycles: 216225173 heartbeat IPC: 0.997291 cumulative IPC: 0.997338 (Simulation time: 0 hr 22 min 5 sec) 
Finished CPU 0 instructions: 200000003 cycles: 200533886 cumulative IPC: 0.997338 (Simulation time: 0 hr 22 min 5 sec) 
 Instruction ID: 250000051

ChampSim completed all CPUs

Region of Interest Statistics

CPU 0 cumulative IPC: 0.997338 instructions: 200000003 cycles: 200533886
ITLB SPEC fills:          0  NON-SPEC fills:          0
ITLB Test counter :          0
ITLB Leapfrog:          0
ITLB MSHR merge:          0
ITLB TOTAL     ACCESS:   28072680  HIT:   28072680  MISS:          0  HIT %:        100  MISS %:          0   MPKI: 0
ITLB LOAD TRANSLATION NON_SPEC    ACCESS:   28072680  HIT:   28072680  MISS:          0  HIT %:        100  MISS %:          0   MPKI: 0
ITLB PREFETCH  REQUESTED:          0  ISSUED:          0  USEFUL:          0  USELESS:          0
ITLB USEFUL LOAD PREFETCHES:          0 PREFETCH ISSUED TO LOWER LEVEL:          0  ACCURACY: -nan
ITLB TIMELY PREFETCHES:          0 LATE PREFETCHES: 0 DROPPED PREFETCHES: 0
ITLB COMMIT LATE PREFETCHES: 0 NORMAL LATE: 0 MISSED OPPORTUNITY: 0 UNCOVERED: 0
ITLB PREFETCHES SAME FILL-ORIGIN LEVEL: 0 DIFFERENT FILL-ORIGIN LEVEL: 0
ITLB AVERAGE MISS LATENCY: -nan cycles
ITLB AVERAGE MISS LATENCY LOAD: -nan cycles
ITLB AVERAGE MISS LATENCY PREFETCH: -nan cycles
ITLB AVERAGE MSHR OCCUPANCY: 0
ITLB MSHR FULL: 0
ITLB RQ	ACCESS:   35092882	FORWARD:          0	MERGED:    7020202	TO_CACHE:   28072680

DTLB SPEC fills:          0  NON-SPEC fills:          0
DTLB Test counter :          0
DTLB Leapfrog:          0
DTLB MSHR merge:          0
DTLB TOTAL     ACCESS:   36971393  HIT:   36924548  MISS:      46845  HIT %:    99.8733  MISS %:   0.126706   MPKI: 0.234225
DTLB LOAD TRANSLATION NON_SPEC    ACCESS:   36971393  HIT:   36924548  MISS:      46845  HIT %:    99.8733  MISS %:   0.126706   MPKI: 0.234225
DTLB PREFETCH  REQUESTED:          0  ISSUED:          0  USEFUL:          0  USELESS:          0
DTLB USEFUL LOAD PREFETCHES:          0 PREFETCH ISSUED TO LOWER LEVEL:          0  ACCURACY: -nan
DTLB TIMELY PREFETCHES:          0 LATE PREFETCHES: 0 DROPPED PREFETCHES: 0
DTLB COMMIT LATE PREFETCHES: 0 NORMAL LATE: 0 MISSED OPPORTUNITY: 0 UNCOVERED: 0
DTLB PREFETCHES SAME FILL-ORIGIN LEVEL: 0 DIFFERENT FILL-ORIGIN LEVEL: 0
DTLB AVERAGE MISS LATENCY: 115.09 cycles
DTLB AVERAGE MISS LATENCY LOAD: -nan cycles
DTLB AVERAGE MISS LATENCY PREFETCH: -nan cycles
DTLB AVERAGE MSHR OCCUPANCY: 0.00689253
DTLB MSHR FULL: 0
DTLB RQ	ACCESS:   57757301	FORWARD:          0	MERGED:   20783082	TO_CACHE:   36974219

STLB SPEC fills:          0  NON-SPEC fills:          0
STLB Test counter :          0
STLB Leapfrog:          0
STLB MSHR merge:          0
STLB TOTAL     ACCESS:    2427101  HIT:    2399646  MISS:      27455  HIT %:    98.8688  MISS %:    1.13118   MPKI: 0.137275
STLB LOAD TRANSLATION NON_SPEC    ACCESS:      46845  HIT:      19390  MISS:      27455  HIT %:    41.3918  MISS %:    58.6082   MPKI: 0.137275
STLB TRANSLATION FROM L1D PREFETCHER NON_SPEC    ACCESS:    2380256  HIT:    2380256  MISS:          0  HIT %:        100  MISS %:          0   MPKI: 0
STLB PREFETCH  REQUESTED:          0  ISSUED:          0  USEFUL:          0  USELESS:          0
STLB USEFUL LOAD PREFETCHES:          0 PREFETCH ISSUED TO LOWER LEVEL:          0  ACCURACY: -nan
STLB TIMELY PREFETCHES:          0 LATE PREFETCHES: 0 DROPPED PREFETCHES: 0
STLB COMMIT LATE PREFETCHES: 0 NORMAL LATE: 0 MISSED OPPORTUNITY: 0 UNCOVERED: 0
STLB PREFETCHES SAME FILL-ORIGIN LEVEL: 0 DIFFERENT FILL-ORIGIN LEVEL: 0
STLB AVERAGE MISS LATENCY: 180.958 cycles
STLB AVERAGE MISS LATENCY LOAD: -nan cycles
STLB AVERAGE MISS LATENCY PREFETCH: -nan cycles
STLB AVERAGE MSHR OCCUPANCY: 9.55873e-05
STLB MSHR FULL: 0
STLB RQ	ACCESS:    2647832	FORWARD:          0	MERGED:     220731	TO_CACHE:    2427101

STLB Hit, L1D data hit: 0
STLB Hit, L2C data hit: 0
STLB Hit, LLC data hit: 0
STLB Hit, LLC data miss: 0
STLB STLB hints to L2: 0
L0D SPEC fills:   28403436  NON-SPEC fills:          0
L0D TimeGuard Request with older TS:       8976 Restricted eviction:        367 read:     208003
L0D Test counter :          0
L0D Leapfrog:          0
L0D MSHR merge:    5785150
L0D TOTAL     ACCESS:   37931059  HIT:    3555311  MISS:   34375748  HIT %:    9.37309  MISS %:    90.6269   MPKI: 171.879
L0D LOAD      TOTAL       ACCESS:   37931059  HIT:    3555311  MISS:   34375748  HIT %:    9.37309  MISS %:    90.6269   MPKI: 171.879
L0D LOAD      NON_SPEC    ACCESS:    5984267  HIT:      12322  MISS:    5971945  HIT %:   0.205907  MISS %:    99.7941   MPKI: 29.8597
L0D LOAD      SPEC        ACCESS:   31946792  HIT:    3542989  MISS:   28403803  HIT %:    11.0903  MISS %:    88.9097   MPKI: 142.019
L0D PREFETCH  REQUESTED:          0  ISSUED:          0  USEFUL:          0  USELESS:          0
L0D USEFUL LOAD PREFETCHES:          0 PREFETCH ISSUED TO LOWER LEVEL:          0  ACCURACY: -nan
L0D TIMELY PREFETCHES:          0 LATE PREFETCHES: 0 DROPPED PREFETCHES: 0
L0D COMMIT LATE PREFETCHES: 0 NORMAL LATE: 0 MISSED OPPORTUNITY: 0 UNCOVERED: 0
L0D PREFETCHES SAME FILL-ORIGIN LEVEL: 0 DIFFERENT FILL-ORIGIN LEVEL: 0
L0D AVERAGE MISS LATENCY: 5.65754 cycles
L0D AVERAGE MISS LATENCY LOAD: 5.65754 cycles
L0D AVERAGE MISS LATENCY PREFETCH: -nan cycles
L0D AVERAGE MSHR OCCUPANCY: 1.24535
L0D MSHR FULL: 3.20247e-07
L0D RQ	ACCESS:   70166191	FORWARD:          0	MERGED:   26449986	TO_CACHE:   43716205
L0D WQ	ACCESS:   14041096	FORWARD:          0	MERGED:          0	TO_CACHE:   14041096

L1D SPEC fills:          0  NON-SPEC fills:      43014
L1D Test counter :          0
L1D Leapfrog:          0
L1D MSHR merge:      47321
L1D TOTAL     ACCESS:  107780971  HIT:  105016509  MISS:    2764462  HIT %:    97.4351  MISS %:    2.56489   MPKI: 13.8223
L1D LOAD      TOTAL       ACCESS:   34375148  HIT:   34243789  MISS:     131359  HIT %:    99.6179  MISS %:   0.382134   MPKI: 0.656795
L1D LOAD      NON_SPEC    ACCESS:    5971943  HIT:    5928929  MISS:      43014  HIT %:    99.2797  MISS %:   0.720268   MPKI: 0.21507
L1D LOAD      SPEC        ACCESS:   28403205  HIT:   28314860  MISS:      88345  HIT %:     99.689  MISS %:   0.311039   MPKI: 0.441725
L1D RFO       NON_SPEC    ACCESS:   13753915  HIT:   13751053  MISS:       2862  HIT %:    99.9792  MISS %:  0.0208086   MPKI: 0.01431
L1D PREFETCH  NON_SPEC    ACCESS:    2550117  HIT:       8944  MISS:    2541173  HIT %:   0.350729  MISS %:    99.6493   MPKI: 12.7059
L1D COMMIT LOAD NON_SPEC    ACCESS:   28706251  HIT:   28704902  MISS:       1349  HIT %:    99.9953  MISS %: 0.00469932   MPKI: 0.006745
L1D COMMIT WRITE NON_SPEC    ACCESS:   28395540  HIT:   28307821  MISS:      87719  HIT %:    99.6911  MISS %:   0.308918   MPKI: 0.438595
L1D PREFETCH  REQUESTED:    2601046  ISSUED:    2600987  USEFUL:    2513600  USELESS:      27567
L1D USEFUL LOAD PREFETCHES:    2513600 PREFETCH ISSUED TO LOWER LEVEL:    2587899  ACCURACY: 97.129
L1D TIMELY PREFETCHES:    2513600 LATE PREFETCHES: 46724 DROPPED PREFETCHES: 0
L1D COMMIT LATE PREFETCHES: 18187 NORMAL LATE: 46777 MISSED OPPORTUNITY: 151 UNCOVERED: 66266
L1D PREFETCHES SAME FILL-ORIGIN LEVEL: 2587899 DIFFERENT FILL-ORIGIN LEVEL: 0
L1D AVERAGE MISS LATENCY: 137.158 cycles
L1D AVERAGE MISS LATENCY LOAD: 121.669 cycles
L1D AVERAGE MISS LATENCY PREFETCH: 142.883 cycles
L1D AVERAGE MSHR OCCUPANCY: 1.94867
L1D MSHR FULL: 3.14029e-05
L1D RQ	ACCESS:   66805139	FORWARD:          0	MERGED:    3593421	TO_CACHE:   63082061
L1D WQ	ACCESS:   42436820	FORWARD:     129657	MERGED:     280407	TO_CACHE:   42156413
L1D PQ	ACCESS:    2600987	FORWARD:          0	MERGED:          0	TO_CACHE:    2600987

L1D UNIQUE REGIONS ACCESSED: 0
L1D REGIONS CONFLICTS: 0
L1D Cross Page Prefetch Requests: 0
L1D Same Page Prefetch Requests: 3251335
L1D ROI Sum of L1D PQ occupancy: 36855398
L1D PREFETCHES PUSHED FROM L2C: 0
L1I SPEC fills:          0  NON-SPEC fills:          0
L1I Test counter :          0
L1I Leapfrog:          0
L1I MSHR merge:          0
L1I TOTAL     ACCESS:   35092881  HIT:   35092881  MISS:          0  HIT %:        100  MISS %:          0   MPKI: 0
L1I LOAD      TOTAL       ACCESS:   35092881  HIT:   35092881  MISS:          0  HIT %:        100  MISS %:          0   MPKI: 0
L1I LOAD      NON_SPEC    ACCESS:   35092881  HIT:   35092881  MISS:          0  HIT %:        100  MISS %:          0   MPKI: 0
L1I PREFETCH  REQUESTED:          0  ISSUED:          0  USEFUL:          0  USELESS:          0
L1I USEFUL LOAD PREFETCHES:          0 PREFETCH ISSUED TO LOWER LEVEL:          0  ACCURACY: -nan
L1I TIMELY PREFETCHES:          0 LATE PREFETCHES: 0 DROPPED PREFETCHES: 0
L1I COMMIT LATE PREFETCHES: 0 NORMAL LATE: 0 MISSED OPPORTUNITY: 0 UNCOVERED: 0
L1I PREFETCHES SAME FILL-ORIGIN LEVEL: 0 DIFFERENT FILL-ORIGIN LEVEL: 0
L1I AVERAGE MISS LATENCY: -nan cycles
L1I AVERAGE MISS LATENCY LOAD: -nan cycles
L1I AVERAGE MISS LATENCY PREFETCH: -nan cycles
L1I AVERAGE MSHR OCCUPANCY: 0
L1I MSHR FULL: 0
L1I RQ	ACCESS:   45652878	FORWARD:          0	MERGED:   10559996	TO_CACHE:   35092882

BTB SPEC fills:          0  NON-SPEC fills:          0
BTB Test counter :          0
BTB Leapfrog:          0
BTB MSHR merge:          0
BTB TOTAL     ACCESS:    3509173  HIT:    3509164  MISS:          9  HIT %:    99.9997  MISS %: 0.000256471   MPKI: 4.5e-05
BTB BRANCH_DIRECT_JUMP	ACCESS:        876  HIT:        874  MISS:          2
BTB BRANCH_INDIRECT	ACCESS:          0  HIT:          0  MISS:          0
BTB BRANCH_CONDITIONAL	ACCESS:    3506545  HIT:    3506542  MISS:          3
BTB BRANCH_DIRECT_CALL	ACCESS:        876  HIT:        874  MISS:          2
BTB BRANCH_INDIRECT_CALL	ACCESS:          0  HIT:          0  MISS:          0
BTB BRANCH_RETURN	ACCESS:        876  HIT:        874  MISS:          2
BTB BRANCH_OTHER ACCESS:          0  HIT:          0  MISS:          0

L2C SPEC fills:          0  NON-SPEC fills:      22581
L2C Test counter :          0
L2C Leapfrog:          0
L2C MSHR merge:          0
L2C TOTAL     ACCESS:    5460672  HIT:    3653712  MISS:    1806960  HIT %:    66.9096  MISS %:    33.0904   MPKI: 9.0348
L2C LOAD      TOTAL       ACCESS:      84637  HIT:      32457  MISS:      52180  HIT %:    38.3485  MISS %:    61.6515   MPKI: 0.2609
L2C LOAD      NON_SPEC    ACCESS:      40503  HIT:      17922  MISS:      22581  HIT %:    44.2486  MISS %:    55.7514   MPKI: 0.112905
L2C LOAD      SPEC        ACCESS:      44134  HIT:      14535  MISS:      29599  HIT %:    32.9338  MISS %:    67.0662   MPKI: 0.147995
L2C RFO       NON_SPEC    ACCESS:       2862  HIT:       1826  MISS:       1036  HIT %:    63.8015  MISS %:    36.1985   MPKI: 0.00518
L2C PREFETCH  NON_SPEC    ACCESS:    2587897  HIT:     853393  MISS:    1734504  HIT %:    32.9763  MISS %:    67.0237   MPKI: 8.67252
L2C WRITEBACK NON_SPEC    ACCESS:    1271157  HIT:    1271157  MISS:          0  HIT %:        100  MISS %:          0   MPKI: 0
L2C CLEAN_EVICTION NON_SPEC    ACCESS:    1375586  HIT:    1359908  MISS:      15678  HIT %:    98.8603  MISS %:    1.13973   MPKI: 0.07839
L2C COMMIT LOAD NON_SPEC    ACCESS:       1347  HIT:       1327  MISS:         20  HIT %:    98.5152  MISS %:    1.48478   MPKI: 0.0001
L2C LOAD TRANSLATION NON_SPEC    ACCESS:     137186  HIT:     133644  MISS:       3542  HIT %:    97.4181  MISS %:     2.5819   MPKI: 0.01771
L2C PREFETCH  REQUESTED:          0  ISSUED:          0  USEFUL:       3266  USELESS:    1732085
L2C USEFUL LOAD PREFETCHES:       3266 PREFETCH ISSUED TO LOWER LEVEL:    1734506  ACCURACY: 0.188296
L2C TIMELY PREFETCHES:       3266 LATE PREFETCHES: 0 DROPPED PREFETCHES: 0
L2C COMMIT LATE PREFETCHES: 0 NORMAL LATE: 0 MISSED OPPORTUNITY: 0 UNCOVERED: 52180
L2C PREFETCHES SAME FILL-ORIGIN LEVEL: 0 DIFFERENT FILL-ORIGIN LEVEL: 0
L2C AVERAGE MISS LATENCY: 190.379 cycles
L2C AVERAGE MISS LATENCY LOAD: 176.078 cycles
L2C AVERAGE MISS LATENCY PREFETCH: 192.609 cycles
L2C AVERAGE MSHR OCCUPANCY: 0.431616
L2C MSHR FULL: 0
L2C RQ	ACCESS:     226032	FORWARD:          0	MERGED:          0	TO_CACHE:     226032
L2C WQ	ACCESS:    2646747	FORWARD:          0	MERGED:          4	TO_CACHE:    2646743
L2C PQ	ACCESS:    2587899	FORWARD:          0	MERGED:          0	TO_CACHE:    2587899

L2C Instructions Evicting Data 0
L2C Translations Evicting Data 3542
L2C Data Evicting Data 1754627
L2C Instructions Evicting Instructions 0
L2C Translations Evicting Instructions 0
L2C Data Evicting Instructions 0
L2C Instructions Evicting Translations 0
L2C Translations Evicting Translations 0
L2C Data Evicting Translations 3514
L2C Dense regions hint from L2: 0
PSCL5 SPEC fills:          0  NON-SPEC fills:          0
PSCL5 Test counter :          0
PSCL5 Leapfrog:          0
PSCL5 MSHR merge:          0
PSCL5 TOTAL     ACCESS:          0  HIT:          0  MISS:          0  HIT %:       -nan  MISS %:       -nan   MPKI: 0
PSCL5 PREFETCH  REQUESTED:          0  ISSUED:          0  USEFUL:          0  USELESS:          0
PSCL5 USEFUL LOAD PREFETCHES:          0 PREFETCH ISSUED TO LOWER LEVEL:          0  ACCURACY: -nan
PSCL5 TIMELY PREFETCHES:          0 LATE PREFETCHES: 0 DROPPED PREFETCHES: 0
PSCL5 COMMIT LATE PREFETCHES: 0 NORMAL LATE: 0 MISSED OPPORTUNITY: 0 UNCOVERED: 0
PSCL5 PREFETCHES SAME FILL-ORIGIN LEVEL: 0 DIFFERENT FILL-ORIGIN LEVEL: 0

PSCL4 SPEC fills:          0  NON-SPEC fills:          0
PSCL4 Test counter :          0
PSCL4 Leapfrog:          0
PSCL4 MSHR merge:          0
PSCL4 TOTAL     ACCESS:          0  HIT:          0  MISS:          0  HIT %:       -nan  MISS %:       -nan   MPKI: 0
PSCL4 PREFETCH  REQUESTED:          0  ISSUED:          0  USEFUL:          0  USELESS:          0
PSCL4 USEFUL LOAD PREFETCHES:          0 PREFETCH ISSUED TO LOWER LEVEL:          0  ACCURACY: -nan
PSCL4 TIMELY PREFETCHES:          0 LATE PREFETCHES: 0 DROPPED PREFETCHES: 0
PSCL4 COMMIT LATE PREFETCHES: 0 NORMAL LATE: 0 MISSED OPPORTUNITY: 0 UNCOVERED: 0
PSCL4 PREFETCHES SAME FILL-ORIGIN LEVEL: 0 DIFFERENT FILL-ORIGIN LEVEL: 0

PSCL3 SPEC fills:          0  NON-SPEC fills:          0
PSCL3 Test counter :          0
PSCL3 Leapfrog:          0
PSCL3 MSHR merge:          0
PSCL3 TOTAL     ACCESS:          0  HIT:          0  MISS:          0  HIT %:       -nan  MISS %:       -nan   MPKI: 0
PSCL3 PREFETCH  REQUESTED:          0  ISSUED:          0  USEFUL:          0  USELESS:          0
PSCL3 USEFUL LOAD PREFETCHES:          0 PREFETCH ISSUED TO LOWER LEVEL:          0  ACCURACY: -nan
PSCL3 TIMELY PREFETCHES:          0 LATE PREFETCHES: 0 DROPPED PREFETCHES: 0
PSCL3 COMMIT LATE PREFETCHES: 0 NORMAL LATE: 0 MISSED OPPORTUNITY: 0 UNCOVERED: 0
PSCL3 PREFETCHES SAME FILL-ORIGIN LEVEL: 0 DIFFERENT FILL-ORIGIN LEVEL: 0

PSCL2 SPEC fills:          0  NON-SPEC fills:          0
PSCL2 Test counter :          0
PSCL2 Leapfrog:          0
PSCL2 MSHR merge:          0
PSCL2 TOTAL     ACCESS:          0  HIT:          0  MISS:          0  HIT %:       -nan  MISS %:       -nan   MPKI: 0
PSCL2 PREFETCH  REQUESTED:          0  ISSUED:          0  USEFUL:          0  USELESS:          0
PSCL2 USEFUL LOAD PREFETCHES:          0 PREFETCH ISSUED TO LOWER LEVEL:          0  ACCURACY: -nan
PSCL2 TIMELY PREFETCHES:          0 LATE PREFETCHES: 0 DROPPED PREFETCHES: 0
PSCL2 COMMIT LATE PREFETCHES: 0 NORMAL LATE: 0 MISSED OPPORTUNITY: 0 UNCOVERED: 0
PSCL2 PREFETCHES SAME FILL-ORIGIN LEVEL: 0 DIFFERENT FILL-ORIGIN LEVEL: 0

LLC SPEC fills:          0  NON-SPEC fills:      22074
LLC Test counter :          0
LLC Leapfrog:          0
LLC MSHR merge:          0
LLC TOTAL     ACCESS:    3560770  HIT:    1767382  MISS:    1793388  HIT %:    49.6348  MISS %:    50.3652   MPKI: 8.96694
LLC LOAD      TOTAL       ACCESS:      52180  HIT:       1447  MISS:      50733  HIT %:    2.77309  MISS %:    97.2269   MPKI: 0.253665
LLC LOAD      NON_SPEC    ACCESS:      22581  HIT:        507  MISS:      22074  HIT %:    2.24525  MISS %:    97.7547   MPKI: 0.11037
LLC LOAD      SPEC        ACCESS:      29599  HIT:        940  MISS:      28659  HIT %:    3.17578  MISS %:    96.8242   MPKI: 0.143295
LLC RFO       NON_SPEC    ACCESS:       1036  HIT:       1036  MISS:          0  HIT %:        100  MISS %:          0   MPKI: 0
LLC PREFETCH  NON_SPEC    ACCESS:    1734504  HIT:      14606  MISS:    1719898  HIT %:   0.842085  MISS %:    99.1579   MPKI: 8.59949
LLC WRITEBACK NON_SPEC    ACCESS:    1264303  HIT:    1264299  MISS:          4  HIT %:    99.9997  MISS %: 0.00031638   MPKI: 2e-05
LLC CLEAN_EVICTION NON_SPEC    ACCESS:     505185  HIT:     485978  MISS:      19207  HIT %:     96.198  MISS %:    3.80197   MPKI: 0.096035
LLC COMMIT LOAD NON_SPEC    ACCESS:         20  HIT:         15  MISS:          5  HIT %:         75  MISS %:         25   MPKI: 2.5e-05
LLC LOAD TRANSLATION NON_SPEC    ACCESS:       3542  HIT:          1  MISS:       3541  HIT %:  0.0282326  MISS %:    99.9718   MPKI: 0.017705
LLC PREFETCH  REQUESTED:          0  ISSUED:          0  USEFUL:        294  USELESS:    1719774
LLC USEFUL LOAD PREFETCHES:        294 PREFETCH ISSUED TO LOWER LEVEL:    1719899  ACCURACY: 0.017094
LLC TIMELY PREFETCHES:        294 LATE PREFETCHES: 0 DROPPED PREFETCHES: 0
LLC COMMIT LATE PREFETCHES: 0 NORMAL LATE: 0 MISSED OPPORTUNITY: 0 UNCOVERED: 0
LLC PREFETCHES SAME FILL-ORIGIN LEVEL: 0 DIFFERENT FILL-ORIGIN LEVEL: 0
LLC AVERAGE MISS LATENCY: 162.002 cycles
LLC AVERAGE MISS LATENCY LOAD: 155.472 cycles
LLC AVERAGE MISS LATENCY PREFETCH: 163.989 cycles
LLC AVERAGE MSHR OCCUPANCY: 0.435767
LLC MSHR FULL: 0
LLC RQ	ACCESS:      56778	FORWARD:          0	MERGED:          0	TO_CACHE:      56778
LLC WQ	ACCESS:    1769488	FORWARD:          1	MERGED:          0	TO_CACHE:    1769488
LLC PQ	ACCESS:    1734506	FORWARD:          0	MERGED:          0	TO_CACHE:    1734505

LLC Dense regions hint to LLC: 0

RAW hits: 2902
Loads Generated: 70169100
Loads sent to L1D: 70166191
Stores Generated: 14041094
Stores sent to L1D: 14041096
Major fault: 0 Minor fault: 34487
Allocated PAGES: 34487
Total Load insts: 87707333
Total Non-spec loads: 10676727
Percentage of speculative loads: 87.8269

LeapFrogging counter: 95
Commit hits: 28395722 miss: 32429394
Commit hit %: 46.6842 miss %: 53.3158
Commits not translated: 0
Loads retired: 131359
Stores retired: 14041096
Cache fills: 131359
L1D response latency: 121.669 cycles
Load retirement latency: 187.873 cycles
OOO test counter: 0
Discarded buffer inserts: 28395722 hits: 1674 hit %: 0.00589525
Filter prediction accuracy: -nan

stream: 
stream:times selected: 21919229
stream:pref_filled: 3179170
stream:pref_useful: 3149333
stream:pref_late: 2197
stream:misses: 7
stream:misses_by_poll: 0

CS: 
CS:times selected: 21919138
CS:pref_filled: 9852
CS:pref_useful: 8854
CS:pref_late: 226
CS:misses: 255172
CS:misses_by_poll: 164

CPLX: 
CPLX:times selected: 70
CPLX:pref_filled: 3
CPLX:pref_useful: 0
CPLX:pref_late: 0
CPLX:misses: 126
CPLX:misses_by_poll: 0

NL_L1: 
NL:times selected: 1
NL:pref_filled: 1
NL:pref_useful: 1
NL:pref_late: 0
NL:misses: 0
NL:misses_by_poll: 0

total selections: 43838438
total_filled: 2541173
total_useful: 2513600
total_late: 2513
total_polluted: 164
total_misses_after_warmup: 256389
conflicts: 0
Degree Incremented Times: 730475
Degree Decremented Times: 0

L1 IP Table Write Accesses: 84207163
L1 IP Table Read Accesses: 84207163
L1 RST Write Accesses: 17535413
L1 RST Read Accesses: 35070826
L1 CSPT Write Accesses: 17535413
L1 CSPT Read Accesses: 17535422
L1 RR Filter Tag Write Accesses: 2601046
L1 RR Filter Tag Read Accesses: 4008985859
L1 IP Table Tag Write Accesses: 84210229
L1 IP Table Tag Read Accesses: 84210229
L1 RST Tag Write Accesses: 0
L1 RST Tag Read Accesses: 158081550
L1 RR Filter Write Accesses: 0
L1 RR Filter Read Accesses: 150009548
test: 342073

stream: 
stream:times selected: 6906234
stream:pref_filled: 3179170
stream:pref_useful: 3149333
stream:pref_late: 2197
stream:misses: 7033
stream:misses_by_poll: 0

CS: 
CS:times selected: 5576161
CS:pref_filled: 9852
CS:pref_useful: 8854
CS:pref_late: 226
CS:misses: 104022
CS:misses_by_poll: 62

CPLX: 
CPLX:times selected: 1329978
CPLX:pref_filled: 3
CPLX:pref_useful: 0
CPLX:pref_late: 0
CPLX:misses: 26035
CPLX:misses_by_poll: 0

NL_L1: 
NL:times selected: 196
NL:pref_filled: 1
NL:pref_useful: 1
NL:pref_late: 0
NL:misses: 26
NL:misses_by_poll: 0

total selections: 13812569
total_filled: 2541173
total_useful: 2513600
total_late: 2513
total_polluted: 62
total_misses_after_warmup: 131958
conflicts: 22
Degree Incremented Times: 283857
Degree Decremented Times: 0

L1 IP Table Write Accesses: 34375266
L1 IP Table Read Accesses: 34375244
L1 RST Write Accesses: 5691594
L1 RST Read Accesses: 11383188
L1 CSPT Write Accesses: 5691594
L1 CSPT Read Accesses: 7420975
L1 RR Filter Tag Write Accesses: 2671496
L1 RR Filter Tag Read Accesses: 1233379652
L1 IP Table Tag Write Accesses: 34375747
L1 IP Table Tag Read Accesses: 34375747
L1 RST Tag Write Accesses: 0
L1 RST Tag Read Accesses: 51376572
L1 RR Filter Write Accesses: 0
L1 RR Filter Read Accesses: 48047531
test_pseudo: 197940

DRAM Statistics
 CHANNEL 0
 RQ ROW_BUFFER_HIT:     189648  ROW_BUFFER_MISS:    1584529
 DBUS_CONGESTED:        299
 WQ ROW_BUFFER_HIT:     698898  ROW_BUFFER_MISS:    1059778  FULL:          0

 AVG_CONGESTED_CYCLE: 4
 All warmup complete: 2
Channel 0 Bank busy for read cycles: 0
Channel 0 Bank busy for write cycles: 0
Channel 0
Rank 0
0banks busy for read cycles: 733759
0banks busy for write cycles: 9231
1banks busy for read cycles: 93359256
1banks busy for write cycles: 1431435
2banks busy for read cycles: 56080836
2banks busy for write cycles: 1683715
3banks busy for read cycles: 5581855
3banks busy for write cycles: 1514524
4banks busy for read cycles: 219643
4banks busy for write cycles: 1317281
5banks busy for read cycles: 271242
5banks busy for write cycles: 1304687
6banks busy for read cycles: 3397543
6banks busy for write cycles: 1489254
7banks busy for read cycles: 329934
7banks busy for write cycles: 3477538
8banks busy for read cycles: 2364
8banks busy for write cycles: 28329790

CPU 0 Branch Prediction Accuracy: 99.9751% MPKI: 0.00438 Average ROB Occupancy at Mispredict: 54.0571
Branch types
NOT_BRANCH: 196487432 98.2437%
BRANCH_DIRECT_JUMP: 876 0.000438%
BRANCH_INDIRECT: 0 0%
BRANCH_CONDITIONAL: 3509611 1.75481%
BRANCH_DIRECT_CALL: 876 0.000438%
BRANCH_INDIRECT_CALL: 0 0%
BRANCH_RETURN: 876 0.000438%
BRANCH_OTHER: 0 0%

DRAM PAGES: 1048576
Allocated PAGES: 34487
