
*** ChampSim Multicore Out-of-Order Simulator ***

Warmup Instructions: 50000000
Simulation Instructions: 200000000
Number of CPUs: 1
LLC sets: 2048
LLC ways: 16
L0D sets: 16
L0D ways: 2
ROB size: 352
LQ size: 128
SQ size: 72
Secure Berti: OFF
Berti: OFF
Berti Fill: OFF
On commit prefetching: ON
Hit-based filter: ON
Time-guarding: ON
Free-slotting: ON
Leap-frogging: ON
Train prefetcher on L0D bypass: OFF
No translation penalty for prefetchers: OFF
Prefetch to L0D only: OFF
Prefetch to L1D only: OFF
Clean evictions: ON
Commit loads: ON
Commit write: ON
Fill commit loads to L2C, LLC: ON
DRAM IO FREQUENCY: 6400
ROB SIZE: 352
Off-chip DRAM Size: 4096 MB Channels: 1 Width: 64-bit Data Rate: 6400 MT/s
CPU 0 runs /home/sumon/secure_berti/GhostMinion/../../traces/gap/bc-5.trace.gz
.gz
BTB has LRU replacement policy
ITLB has LRU replacement policy
DTLB has LRU replacement policy
STLB has LRU replacement policy
L1I has LRU replacement policy
L0D has LRU replacement policy
CPU 0 L1D IP-based stride prefetcher
L1D has LRU replacement policy
L2C has LRU replacement policy
LLC has LRU replacement policy
Heartbeat CPU 0 instructions: 10000002 cycles: 3904184 heartbeat IPC: 2.56136 cumulative IPC: 2.56136 (Simulation time: 0 hr 1 min 25 sec) 
Heartbeat CPU 0 instructions: 20000001 cycles: 7401040 heartbeat IPC: 2.85971 cumulative IPC: 2.70232 (Simulation time: 0 hr 2 min 45 sec) 
Heartbeat CPU 0 instructions: 30000001 cycles: 10918658 heartbeat IPC: 2.84283 cumulative IPC: 2.74759 (Simulation time: 0 hr 4 min 6 sec) 
Heartbeat CPU 0 instructions: 40000003 cycles: 14387303 heartbeat IPC: 2.88297 cumulative IPC: 2.78023 (Simulation time: 0 hr 4 min 57 sec) 
Heartbeat CPU 0 instructions: 50000000 cycles: 17951273 heartbeat IPC: 2.80586 cumulative IPC: 2.78532 (Simulation time: 0 hr 5 min 45 sec) 

Warmup complete CPU 0 instructions: 50000004 cycles: 17951274 (Simulation time: 0 hr 5 min 45 sec) 

Heartbeat CPU 0 instructions: 60000000 cycles: 64617933 heartbeat IPC: 0.214286 cumulative IPC: 0.214286 (Simulation time: 0 hr 7 min 1 sec) 
Heartbeat CPU 0 instructions: 70000000 cycles: 110528688 heartbeat IPC: 0.217814 cumulative IPC: 0.216035 (Simulation time: 0 hr 8 min 12 sec) 
Heartbeat CPU 0 instructions: 80000003 cycles: 156413392 heartbeat IPC: 0.217938 cumulative IPC: 0.216666 (Simulation time: 0 hr 9 min 21 sec) 
Heartbeat CPU 0 instructions: 90000000 cycles: 202113671 heartbeat IPC: 0.218817 cumulative IPC: 0.2172 (Simulation time: 0 hr 10 min 30 sec) 
Heartbeat CPU 0 instructions: 100000000 cycles: 249862874 heartbeat IPC: 0.209428 cumulative IPC: 0.215599 (Simulation time: 0 hr 11 min 39 sec) 
Heartbeat CPU 0 instructions: 110000000 cycles: 295808484 heartbeat IPC: 0.217649 cumulative IPC: 0.215938 (Simulation time: 0 hr 12 min 42 sec) 
Heartbeat CPU 0 instructions: 120000001 cycles: 340977478 heartbeat IPC: 0.221391 cumulative IPC: 0.216701 (Simulation time: 0 hr 13 min 43 sec) 
Heartbeat CPU 0 instructions: 130000001 cycles: 386687956 heartbeat IPC: 0.218768 cumulative IPC: 0.216957 (Simulation time: 0 hr 14 min 39 sec) 
Heartbeat CPU 0 instructions: 140000002 cycles: 422480935 heartbeat IPC: 0.279384 cumulative IPC: 0.222481 (Simulation time: 0 hr 15 min 32 sec) 
Heartbeat CPU 0 instructions: 150000002 cycles: 450781978 heartbeat IPC: 0.353344 cumulative IPC: 0.231037 (Simulation time: 0 hr 16 min 23 sec) 
Heartbeat CPU 0 instructions: 160000001 cycles: 479340865 heartbeat IPC: 0.350154 cumulative IPC: 0.23841 (Simulation time: 0 hr 17 min 13 sec) 
Heartbeat CPU 0 instructions: 170000001 cycles: 507576179 heartbeat IPC: 0.354166 cumulative IPC: 0.245086 (Simulation time: 0 hr 18 min 3 sec) 
Heartbeat CPU 0 instructions: 180000003 cycles: 535979493 heartbeat IPC: 0.352072 cumulative IPC: 0.250952 (Simulation time: 0 hr 18 min 52 sec) 
Heartbeat CPU 0 instructions: 190000002 cycles: 564225004 heartbeat IPC: 0.354039 cumulative IPC: 0.256282 (Simulation time: 0 hr 19 min 42 sec) 
Heartbeat CPU 0 instructions: 200000002 cycles: 592550667 heartbeat IPC: 0.353037 cumulative IPC: 0.261051 (Simulation time: 0 hr 20 min 30 sec) 
Heartbeat CPU 0 instructions: 210000003 cycles: 620773228 heartbeat IPC: 0.354326 cumulative IPC: 0.265418 (Simulation time: 0 hr 21 min 19 sec) 
Heartbeat CPU 0 instructions: 220000000 cycles: 649633172 heartbeat IPC: 0.346501 cumulative IPC: 0.269123 (Simulation time: 0 hr 22 min 8 sec) 
Heartbeat CPU 0 instructions: 230000002 cycles: 679068544 heartbeat IPC: 0.339727 cumulative IPC: 0.272266 (Simulation time: 0 hr 22 min 58 sec) 
Heartbeat CPU 0 instructions: 240000002 cycles: 708564299 heartbeat IPC: 0.339032 cumulative IPC: 0.275118 (Simulation time: 0 hr 23 min 48 sec) 
Heartbeat CPU 0 instructions: 250000002 cycles: 738374889 heartbeat IPC: 0.335451 cumulative IPC: 0.277614 (Simulation time: 0 hr 24 min 38 sec) 
Finished CPU 0 instructions: 200000002 cycles: 720423616 cumulative IPC: 0.277614 (Simulation time: 0 hr 24 min 38 sec) 
 Instruction ID: 250000258

ChampSim completed all CPUs

Region of Interest Statistics

CPU 0 cumulative IPC: 0.277614 instructions: 200000002 cycles: 720423616
ITLB SPEC fills:          0  NON-SPEC fills:          0
ITLB Test counter :          0
ITLB Leapfrog:          0
ITLB MSHR merge:          0
ITLB TOTAL     ACCESS:   33830759  HIT:   33830759  MISS:          0  HIT %:        100  MISS %:          0   MPKI: 0
ITLB LOAD TRANSLATION NON_SPEC    ACCESS:   33830759  HIT:   33830759  MISS:          0  HIT %:        100  MISS %:          0   MPKI: 0
ITLB PREFETCH  REQUESTED:          0  ISSUED:          0  USEFUL:          0  USELESS:          0
ITLB USEFUL LOAD PREFETCHES:          0 PREFETCH ISSUED TO LOWER LEVEL:          0  ACCURACY: -nan
ITLB TIMELY PREFETCHES:          0 LATE PREFETCHES: 0 DROPPED PREFETCHES: 0
ITLB COMMIT LATE PREFETCHES: 0 MISSED OPPORTUNITY: 0 LATE IN PQ: 0 UNCOVERED: 0
ITLB COMMIT LATE MSHR PREFETCHES: 0
ITLB MPKI TOTAL: 0 MSHR LATE: 0 PQ LATE: 0 COMMIT LATE: 0 MISSED OPPORTUNITY: 0 UNCOVERED: 0
ITLB PREFETCHES SAME FILL-ORIGIN LEVEL: 0 DIFFERENT FILL-ORIGIN LEVEL: 0
ITLB AVERAGE MISS LATENCY: -nan cycles
ITLB AVERAGE MISS LATENCY LOAD: -nan cycles
ITLB AVERAGE MISS LATENCY PREFETCH: -nan cycles
ITLB AVERAGE MSHR OCCUPANCY: 0
ITLB MSHR FULL: 0
ITLB RQ	ACCESS:   34138929	FORWARD:          0	MERGED:     308170	TO_CACHE:   33830759

DTLB SPEC fills:          0  NON-SPEC fills:          0
DTLB Test counter :          0
DTLB Leapfrog:          0
DTLB MSHR merge:          0
DTLB TOTAL     ACCESS:   41957420  HIT:   33769576  MISS:    8187844  HIT %:    80.4853  MISS %:    19.5147   MPKI: 40.9392
DTLB LOAD TRANSLATION NON_SPEC    ACCESS:   41957420  HIT:   33769576  MISS:    8187844  HIT %:    80.4853  MISS %:    19.5147   MPKI: 40.9392
DTLB PREFETCH  REQUESTED:          0  ISSUED:          0  USEFUL:          0  USELESS:          0
DTLB USEFUL LOAD PREFETCHES:          0 PREFETCH ISSUED TO LOWER LEVEL:          0  ACCURACY: -nan
DTLB TIMELY PREFETCHES:          0 LATE PREFETCHES: 0 DROPPED PREFETCHES: 0
DTLB COMMIT LATE PREFETCHES: 0 MISSED OPPORTUNITY: 0 LATE IN PQ: 0 UNCOVERED: 0
DTLB COMMIT LATE MSHR PREFETCHES: 0
DTLB MPKI TOTAL: 0 MSHR LATE: 0 PQ LATE: 0 COMMIT LATE: 0 MISSED OPPORTUNITY: 0 UNCOVERED: 0
DTLB PREFETCHES SAME FILL-ORIGIN LEVEL: 0 DIFFERENT FILL-ORIGIN LEVEL: 0
DTLB AVERAGE MISS LATENCY: 28.98 cycles
DTLB AVERAGE MISS LATENCY LOAD: -nan cycles
DTLB AVERAGE MISS LATENCY PREFETCH: -nan cycles
DTLB AVERAGE MSHR OCCUPANCY: 0.793992
DTLB MSHR FULL: 0.0232029
DTLB RQ	ACCESS:   47771966	FORWARD:          0	MERGED:    4316603	TO_CACHE:   43455363

STLB SPEC fills:          0  NON-SPEC fills:          0
STLB Test counter :          0
STLB Leapfrog:          0
STLB MSHR merge:          0
STLB TOTAL     ACCESS:    9528159  HIT:    8128458  MISS:    1399701  HIT %:    85.3098  MISS %:    14.6902   MPKI: 6.9985
STLB LOAD TRANSLATION NON_SPEC    ACCESS:    8187844  HIT:    6788260  MISS:    1399584  HIT %:    82.9066  MISS %:    17.0934   MPKI: 6.99792
STLB TRANSLATION FROM L1D PREFETCHER NON_SPEC    ACCESS:    1340315  HIT:    1340198  MISS:        117  HIT %:    99.9913  MISS %: 0.00872929   MPKI: 0.000585
STLB PREFETCH  REQUESTED:          0  ISSUED:          0  USEFUL:         53  USELESS:         64
STLB USEFUL LOAD PREFETCHES:         53 PREFETCH ISSUED TO LOWER LEVEL:          0  ACCURACY: inf
STLB TIMELY PREFETCHES:         53 LATE PREFETCHES: 0 DROPPED PREFETCHES: 0
STLB COMMIT LATE PREFETCHES: 0 MISSED OPPORTUNITY: 0 LATE IN PQ: 0 UNCOVERED: 0
STLB COMMIT LATE MSHR PREFETCHES: 0
STLB MPKI TOTAL: 0 MSHR LATE: 0 PQ LATE: 0 COMMIT LATE: 0 MISSED OPPORTUNITY: 0 UNCOVERED: 0
STLB PREFETCHES SAME FILL-ORIGIN LEVEL: 0 DIFFERENT FILL-ORIGIN LEVEL: 0
STLB AVERAGE MISS LATENCY: 115.194 cycles
STLB AVERAGE MISS LATENCY LOAD: -nan cycles
STLB AVERAGE MISS LATENCY PREFETCH: -nan cycles
STLB AVERAGE MSHR OCCUPANCY: 0.22771
STLB MSHR FULL: 0
STLB RQ	ACCESS:   12058981	FORWARD:          0	MERGED:    2530785	TO_CACHE:    9528196

STLB Hit, L1D data hit: 0
STLB Hit, L2C data hit: 0
STLB Hit, LLC data hit: 0
STLB Hit, LLC data miss: 0
STLB STLB hints to L2: 0
L0D SPEC fills:   25210966  NON-SPEC fills:          0
L0D TimeGuard Request with older TS:     492547 Restricted eviction:     368046 read:       1069
L0D Test counter :          0
L0D Leapfrog:          0
L0D MSHR merge:    1192058
L0D TOTAL     ACCESS:   39074732  HIT:   11370336  MISS:   27704396  HIT %:    29.0989  MISS %:    70.9011   MPKI: 138.522
L0D LOAD      TOTAL       ACCESS:   39074732  HIT:   11370336  MISS:   27704396  HIT %:    29.0989  MISS %:    70.9011   MPKI: 138.522
L0D LOAD      NON_SPEC    ACCESS:    2127700  HIT:       2235  MISS:    2125465  HIT %:   0.105043  MISS %:     99.895   MPKI: 10.6273
L0D LOAD      SPEC        ACCESS:   36947032  HIT:   11368101  MISS:   25578931  HIT %:    30.7686  MISS %:    69.2314   MPKI: 127.895
L0D PREFETCH  REQUESTED:          0  ISSUED:          0  USEFUL:          0  USELESS:          0
L0D USEFUL LOAD PREFETCHES:          0 PREFETCH ISSUED TO LOWER LEVEL:          0  ACCURACY: -nan
L0D TIMELY PREFETCHES:          0 LATE PREFETCHES: 0 DROPPED PREFETCHES: 0
L0D COMMIT LATE PREFETCHES: 0 MISSED OPPORTUNITY: 0 LATE IN PQ: 0 UNCOVERED: 0
L0D COMMIT LATE MSHR PREFETCHES: 0
L0D MPKI TOTAL: 144.482 MSHR LATE: 0 PQ LATE: 0 COMMIT LATE: 0 MISSED OPPORTUNITY: 0 UNCOVERED: 0
L0D PREFETCHES SAME FILL-ORIGIN LEVEL: 0 DIFFERENT FILL-ORIGIN LEVEL: 0
L0D AVERAGE MISS LATENCY: 71.1472 cycles
L0D AVERAGE MISS LATENCY LOAD: 71.1472 cycles
L0D AVERAGE MISS LATENCY PREFETCH: -nan cycles
L0D AVERAGE MSHR OCCUPANCY: 5.22014
L0D MSHR FULL: 0.47713
L0D RQ	ACCESS:   47038211	FORWARD:          0	MERGED:    6771427	TO_CACHE:   40266784
L0D WQ	ACCESS:    7505182	FORWARD:          0	MERGED:          0	TO_CACHE:    7505182

L1D SPEC fills:          0  NON-SPEC fills:     992306
L1D Test counter :          0
L1D Leapfrog:          0
L1D MSHR merge:      54027
L1D TOTAL     ACCESS:   51762824  HIT:   17363759  MISS:   34399065  HIT %:    33.5448  MISS %:    66.4552   MPKI: 171.995
L1D LOAD      TOTAL       ACCESS:   27698721  HIT:   10953871  MISS:   16744850  HIT %:    39.5465  MISS %:    60.4535   MPKI: 83.7242
L1D LOAD      NON_SPEC    ACCESS:    2121929  HIT:    1129623  MISS:     992306  HIT %:    53.2357  MISS %:    46.7643   MPKI: 4.96153
L1D LOAD      SPEC        ACCESS:   25576792  HIT:    9824248  MISS:   15752544  HIT %:    38.4108  MISS %:    61.5892   MPKI: 78.7627
L1D RFO       NON_SPEC    ACCESS:    3936493  HIT:    3907820  MISS:      28673  HIT %:    99.2716  MISS %:   0.728389   MPKI: 0.143365
L1D PREFETCH  NON_SPEC    ACCESS:    3601517  HIT:    1713497  MISS:    1888020  HIT %:    47.5771  MISS %:    52.4229   MPKI: 9.4401
L1D COMMIT LOAD NON_SPEC    ACCESS:    1101093  HIT:     708869  MISS:     392224  HIT %:    64.3787  MISS %:    35.6213   MPKI: 1.96112
L1D COMMIT WRITE NON_SPEC    ACCESS:   15425000  HIT:      79702  MISS:   15345298  HIT %:   0.516707  MISS %:    99.4833   MPKI: 76.7265
L1D PREFETCH  REQUESTED:    4375974  ISSUED:    4372968  USEFUL:     822443  USELESS:    1065587
L1D USEFUL LOAD PREFETCHES:     822443 PREFETCH ISSUED TO LOWER LEVEL:    2008600  ACCURACY: 40.9461
L1D TIMELY PREFETCHES:     822443 LATE PREFETCHES: 51001 DROPPED PREFETCHES: 0
L1D COMMIT LATE PREFETCHES: 0 MISSED OPPORTUNITY: 0 LATE IN PQ: 0 UNCOVERED: 0
L1D COMMIT LATE MSHR PREFETCHES: 0
L1D MPKI TOTAL: 83.7526 MSHR LATE: 0.255005 PQ LATE: 0 COMMIT LATE: 0 MISSED OPPORTUNITY: 0 UNCOVERED: 0
L1D PREFETCHES SAME FILL-ORIGIN LEVEL: 1944415 DIFFERENT FILL-ORIGIN LEVEL: 64185
L1D AVERAGE MISS LATENCY: 64.2042 cycles
L1D AVERAGE MISS LATENCY LOAD: 103.912 cycles
L1D AVERAGE MISS LATENCY PREFETCH: 232.289 cycles
L1D AVERAGE MSHR OCCUPANCY: 3.45687
L1D MSHR FULL: 0.0237043
L1D RQ	ACCESS:   29002281	FORWARD:          0	MERGED:     190001	TO_CACHE:   28812248
L1D WQ	ACCESS:   22930191	FORWARD:         32	MERGED:    3488714	TO_CACHE:   19441477
L1D PQ	ACCESS:    4372968	FORWARD:          0	MERGED:     501830	TO_CACHE:    3871138

L1D UNIQUE REGIONS ACCESSED: 0
L1D REGIONS CONFLICTS: 0
L1D Cross Page Prefetch Requests: 0
L1D Same Page Prefetch Requests: 9034152
L1D ROI Sum of L1D PQ occupancy: 58988188
L1D PREFETCHES PUSHED FROM L2C: 0
L1I SPEC fills:          0  NON-SPEC fills:          0
L1I Test counter :          0
L1I Leapfrog:          0
L1I MSHR merge:          0
L1I TOTAL     ACCESS:   34138927  HIT:   34138927  MISS:          0  HIT %:        100  MISS %:          0   MPKI: 0
L1I LOAD      TOTAL       ACCESS:   34138927  HIT:   34138927  MISS:          0  HIT %:        100  MISS %:          0   MPKI: 0
L1I LOAD      NON_SPEC    ACCESS:   34138927  HIT:   34138927  MISS:          0  HIT %:        100  MISS %:          0   MPKI: 0
L1I PREFETCH  REQUESTED:          0  ISSUED:          0  USEFUL:          0  USELESS:          0
L1I USEFUL LOAD PREFETCHES:          0 PREFETCH ISSUED TO LOWER LEVEL:          0  ACCURACY: -nan
L1I TIMELY PREFETCHES:          0 LATE PREFETCHES: 0 DROPPED PREFETCHES: 0
L1I COMMIT LATE PREFETCHES: 0 MISSED OPPORTUNITY: 0 LATE IN PQ: 0 UNCOVERED: 0
L1I COMMIT LATE MSHR PREFETCHES: 0
L1I MPKI TOTAL: 0 MSHR LATE: 0 PQ LATE: 0 COMMIT LATE: 0 MISSED OPPORTUNITY: 0 UNCOVERED: 0
L1I PREFETCHES SAME FILL-ORIGIN LEVEL: 0 DIFFERENT FILL-ORIGIN LEVEL: 0
L1I AVERAGE MISS LATENCY: -nan cycles
L1I AVERAGE MISS LATENCY LOAD: -nan cycles
L1I AVERAGE MISS LATENCY PREFETCH: -nan cycles
L1I AVERAGE MSHR OCCUPANCY: 0
L1I MSHR FULL: 0
L1I RQ	ACCESS:   54137527	FORWARD:          0	MERGED:   19998598	TO_CACHE:   34138929

BTB SPEC fills:          0  NON-SPEC fills:          0
BTB Test counter :          0
BTB Leapfrog:          0
BTB MSHR merge:          0
BTB TOTAL     ACCESS:   41913137  HIT:   41913095  MISS:         42  HIT %:    99.9999  MISS %: 0.000100207   MPKI: 0.00021
BTB BRANCH_DIRECT_JUMP	ACCESS:     294369  HIT:     294357  MISS:         12
BTB BRANCH_INDIRECT	ACCESS:          0  HIT:          0  MISS:          0
BTB BRANCH_CONDITIONAL	ACCESS:   41618724  HIT:   41618709  MISS:         15
BTB BRANCH_DIRECT_CALL	ACCESS:         22  HIT:         15  MISS:          7
BTB BRANCH_INDIRECT_CALL	ACCESS:          0  HIT:          0  MISS:          0
BTB BRANCH_RETURN	ACCESS:         22  HIT:         14  MISS:          8
BTB BRANCH_OTHER ACCESS:          0  HIT:          0  MISS:          0

L2C SPEC fills:          0  NON-SPEC fills:     827471
L2C Test counter :          0
L2C Leapfrog:          0
L2C MSHR merge:       1320
L2C TOTAL     ACCESS:   38800608  HIT:   10696243  MISS:   28104365  HIT %:    27.5672  MISS %:    72.4328   MPKI: 140.522
L2C LOAD      TOTAL       ACCESS:   16696133  HIT:    3241135  MISS:   13454998  HIT %:    19.4125  MISS %:    80.5875   MPKI: 67.275
L2C LOAD      NON_SPEC    ACCESS:     984176  HIT:     156705  MISS:     827471  HIT %:    15.9225  MISS %:    84.0775   MPKI: 4.13735
L2C LOAD      SPEC        ACCESS:   15711957  HIT:    3084430  MISS:   12627527  HIT %:    19.6311  MISS %:    80.3689   MPKI: 63.1376
L2C RFO       NON_SPEC    ACCESS:      23274  HIT:      13030  MISS:      10244  HIT %:    55.9852  MISS %:    44.0148   MPKI: 0.05122
L2C PREFETCH  NON_SPEC    ACCESS:    1992265  HIT:      85280  MISS:    1906985  HIT %:    4.28056  MISS %:    95.7194   MPKI: 9.53492
L2C WRITEBACK NON_SPEC    ACCESS:     273851  HIT:     273722  MISS:        129  HIT %:    99.9529  MISS %:  0.0471059   MPKI: 0.000645
L2C CLEAN_EVICTION NON_SPEC    ACCESS:   12427047  HIT:     120312  MISS:   12306735  HIT %:   0.968146  MISS %:    99.0319   MPKI: 61.5337
L2C COMMIT LOAD NON_SPEC    ACCESS:     389576  HIT:     123709  MISS:     265867  HIT %:    31.7548  MISS %:    68.2452   MPKI: 1.32933
L2C LOAD TRANSLATION NON_SPEC    ACCESS:    6997877  HIT:    6838483  MISS:     159394  HIT %:    97.7223  MISS %:    2.27775   MPKI: 0.79697
L2C TRANSLATION FROM L1D PREFETCHER NON_SPEC    ACCESS:        585  HIT:        572  MISS:         13  HIT %:    97.7778  MISS %:    2.22222   MPKI: 6.5e-05
L2C PREFETCH  REQUESTED:          0  ISSUED:          0  USEFUL:      44407  USELESS:    1862655
L2C USEFUL LOAD PREFETCHES:      44407 PREFETCH ISSUED TO LOWER LEVEL:    1915387  ACCURACY: 2.31843
L2C TIMELY PREFETCHES:      44407 LATE PREFETCHES: 8402 DROPPED PREFETCHES: 0
L2C COMMIT LATE PREFETCHES: 0 MISSED OPPORTUNITY: 0 LATE IN PQ: 0 UNCOVERED: 0
L2C COMMIT LATE MSHR PREFETCHES: 0
L2C MPKI TOTAL: 67.275 MSHR LATE: 0.04201 PQ LATE: 0 COMMIT LATE: 0 MISSED OPPORTUNITY: 0 UNCOVERED: 0
L2C PREFETCHES SAME FILL-ORIGIN LEVEL: 58009 DIFFERENT FILL-ORIGIN LEVEL: 0
L2C AVERAGE MISS LATENCY: 71.6438 cycles
L2C AVERAGE MISS LATENCY LOAD: 114.283 cycles
L2C AVERAGE MISS LATENCY PREFETCH: 230.133 cycles
L2C AVERAGE MSHR OCCUPANCY: 3.24494
L2C MSHR FULL: 0
L2C RQ	ACCESS:   24107814	FORWARD:          0	MERGED:          0	TO_CACHE:   24107445
L2C WQ	ACCESS:   12700898	FORWARD:        370	MERGED:          0	TO_CACHE:   12700898
L2C PQ	ACCESS:    2008600	FORWARD:          0	MERGED:         33	TO_CACHE:    2008566

L2C Instructions Evicting Data 0
L2C Translations Evicting Data 157685
L2C Data Evicting Data 2979222
L2C Instructions Evicting Instructions 0
L2C Translations Evicting Instructions 0
L2C Data Evicting Instructions 0
L2C Instructions Evicting Translations 0
L2C Translations Evicting Translations 1722
L2C Data Evicting Translations 31345
L2C Dense regions hint from L2: 0
PSCL5 SPEC fills:          0  NON-SPEC fills:          0
PSCL5 Test counter :          0
PSCL5 Leapfrog:          0
PSCL5 MSHR merge:          0
PSCL5 TOTAL     ACCESS:          0  HIT:          0  MISS:          0  HIT %:       -nan  MISS %:       -nan   MPKI: 0
PSCL5 PREFETCH  REQUESTED:          0  ISSUED:          0  USEFUL:          0  USELESS:          0
PSCL5 USEFUL LOAD PREFETCHES:          0 PREFETCH ISSUED TO LOWER LEVEL:          0  ACCURACY: -nan
PSCL5 TIMELY PREFETCHES:          0 LATE PREFETCHES: 0 DROPPED PREFETCHES: 0
PSCL5 COMMIT LATE PREFETCHES: 0 MISSED OPPORTUNITY: 0 LATE IN PQ: 0 UNCOVERED: 0
PSCL5 COMMIT LATE MSHR PREFETCHES: 0
PSCL5 MPKI TOTAL: 0 MSHR LATE: 0 PQ LATE: 0 COMMIT LATE: 0 MISSED OPPORTUNITY: 0 UNCOVERED: 0
PSCL5 PREFETCHES SAME FILL-ORIGIN LEVEL: 0 DIFFERENT FILL-ORIGIN LEVEL: 0

PSCL4 SPEC fills:          0  NON-SPEC fills:          0
PSCL4 Test counter :          0
PSCL4 Leapfrog:          0
PSCL4 MSHR merge:          0
PSCL4 TOTAL     ACCESS:          0  HIT:          0  MISS:          0  HIT %:       -nan  MISS %:       -nan   MPKI: 0
PSCL4 PREFETCH  REQUESTED:          0  ISSUED:          0  USEFUL:          0  USELESS:          0
PSCL4 USEFUL LOAD PREFETCHES:          0 PREFETCH ISSUED TO LOWER LEVEL:          0  ACCURACY: -nan
PSCL4 TIMELY PREFETCHES:          0 LATE PREFETCHES: 0 DROPPED PREFETCHES: 0
PSCL4 COMMIT LATE PREFETCHES: 0 MISSED OPPORTUNITY: 0 LATE IN PQ: 0 UNCOVERED: 0
PSCL4 COMMIT LATE MSHR PREFETCHES: 0
PSCL4 MPKI TOTAL: 0 MSHR LATE: 0 PQ LATE: 0 COMMIT LATE: 0 MISSED OPPORTUNITY: 0 UNCOVERED: 0
PSCL4 PREFETCHES SAME FILL-ORIGIN LEVEL: 0 DIFFERENT FILL-ORIGIN LEVEL: 0

PSCL3 SPEC fills:          0  NON-SPEC fills:          0
PSCL3 Test counter :          0
PSCL3 Leapfrog:          0
PSCL3 MSHR merge:          0
PSCL3 TOTAL     ACCESS:          0  HIT:          0  MISS:          0  HIT %:       -nan  MISS %:       -nan   MPKI: 0
PSCL3 PREFETCH  REQUESTED:          0  ISSUED:          0  USEFUL:          0  USELESS:          0
PSCL3 USEFUL LOAD PREFETCHES:          0 PREFETCH ISSUED TO LOWER LEVEL:          0  ACCURACY: -nan
PSCL3 TIMELY PREFETCHES:          0 LATE PREFETCHES: 0 DROPPED PREFETCHES: 0
PSCL3 COMMIT LATE PREFETCHES: 0 MISSED OPPORTUNITY: 0 LATE IN PQ: 0 UNCOVERED: 0
PSCL3 COMMIT LATE MSHR PREFETCHES: 0
PSCL3 MPKI TOTAL: 0 MSHR LATE: 0 PQ LATE: 0 COMMIT LATE: 0 MISSED OPPORTUNITY: 0 UNCOVERED: 0
PSCL3 PREFETCHES SAME FILL-ORIGIN LEVEL: 0 DIFFERENT FILL-ORIGIN LEVEL: 0

PSCL2 SPEC fills:          0  NON-SPEC fills:          0
PSCL2 Test counter :          0
PSCL2 Leapfrog:          0
PSCL2 MSHR merge:          0
PSCL2 TOTAL     ACCESS:          0  HIT:          0  MISS:          0  HIT %:       -nan  MISS %:       -nan   MPKI: 0
PSCL2 PREFETCH  REQUESTED:          0  ISSUED:          0  USEFUL:          0  USELESS:          0
PSCL2 USEFUL LOAD PREFETCHES:          0 PREFETCH ISSUED TO LOWER LEVEL:          0  ACCURACY: -nan
PSCL2 TIMELY PREFETCHES:          0 LATE PREFETCHES: 0 DROPPED PREFETCHES: 0
PSCL2 COMMIT LATE PREFETCHES: 0 MISSED OPPORTUNITY: 0 LATE IN PQ: 0 UNCOVERED: 0
PSCL2 COMMIT LATE MSHR PREFETCHES: 0
PSCL2 MPKI TOTAL: 0 MSHR LATE: 0 PQ LATE: 0 COMMIT LATE: 0 MISSED OPPORTUNITY: 0 UNCOVERED: 0
PSCL2 PREFETCHES SAME FILL-ORIGIN LEVEL: 0 DIFFERENT FILL-ORIGIN LEVEL: 0

LLC SPEC fills:          0  NON-SPEC fills:     464038
LLC Test counter :          0
LLC Leapfrog:          0
LLC MSHR merge:          0
LLC TOTAL     ACCESS:   28470575  HIT:   13551295  MISS:   14919280  HIT %:    47.5975  MISS %:    52.4025   MPKI: 74.5964
LLC LOAD      TOTAL       ACCESS:   13453428  HIT:    6976946  MISS:    6476482  HIT %:      51.86  MISS %:      48.14   MPKI: 32.3824
LLC LOAD      NON_SPEC    ACCESS:     827417  HIT:     363379  MISS:     464038  HIT %:    43.9173  MISS %:    56.0827   MPKI: 2.32019
LLC LOAD      SPEC        ACCESS:   12626011  HIT:    6613567  MISS:    6012444  HIT %:    52.3805  MISS %:    47.6195   MPKI: 30.0622
LLC RFO       NON_SPEC    ACCESS:       4263  HIT:         20  MISS:       4243  HIT %:   0.469153  MISS %:    99.5308   MPKI: 0.021215
LLC PREFETCH  NON_SPEC    ACCESS:    1915380  HIT:     221372  MISS:    1694008  HIT %:    11.5576  MISS %:    88.4424   MPKI: 8.47004
LLC WRITEBACK NON_SPEC    ACCESS:     263093  HIT:     263056  MISS:         37  HIT %:    99.9859  MISS %:  0.0140635   MPKI: 0.000185
LLC CLEAN_EVICTION NON_SPEC    ACCESS:   12410356  HIT:    5753887  MISS:    6656469  HIT %:    46.3636  MISS %:    53.6364   MPKI: 33.2823
LLC COMMIT LOAD NON_SPEC    ACCESS:     264648  HIT:     217853  MISS:      46795  HIT %:     82.318  MISS %:     17.682   MPKI: 0.233975
LLC LOAD TRANSLATION NON_SPEC    ACCESS:     159394  HIT:     118149  MISS:      41245  HIT %:    74.1239  MISS %:    25.8761   MPKI: 0.206225
LLC TRANSLATION FROM L1D PREFETCHER NON_SPEC    ACCESS:         13  HIT:         12  MISS:          1  HIT %:    92.3077  MISS %:    7.69231   MPKI: 5e-06
LLC PREFETCH  REQUESTED:          0  ISSUED:          0  USEFUL:      98175  USELESS:    1596187
LLC USEFUL LOAD PREFETCHES:      98175 PREFETCH ISSUED TO LOWER LEVEL:    1694008  ACCURACY: 5.79543
LLC TIMELY PREFETCHES:      98175 LATE PREFETCHES: 0 DROPPED PREFETCHES: 0
LLC COMMIT LATE PREFETCHES: 0 MISSED OPPORTUNITY: 0 LATE IN PQ: 0 UNCOVERED: 0
LLC COMMIT LATE MSHR PREFETCHES: 0
LLC MPKI TOTAL: 32.3824 MSHR LATE: 0 PQ LATE: 0 COMMIT LATE: 0 MISSED OPPORTUNITY: 0 UNCOVERED: 0
LLC PREFETCHES SAME FILL-ORIGIN LEVEL: 0 DIFFERENT FILL-ORIGIN LEVEL: 0
LLC AVERAGE MISS LATENCY: 110.853 cycles
LLC AVERAGE MISS LATENCY LOAD: 192.519 cycles
LLC AVERAGE MISS LATENCY PREFETCH: 228.272 cycles
LLC AVERAGE MSHR OCCUPANCY: 2.42597
LLC MSHR FULL: 0
LLC RQ	ACCESS:   13882114	FORWARD:          0	MERGED:          0	TO_CACHE:   13881746
LLC WQ	ACCESS:   12673449	FORWARD:        375	MERGED:          0	TO_CACHE:   12673449
LLC PQ	ACCESS:    1915387	FORWARD:          0	MERGED:          0	TO_CACHE:    1915380

LLC Dense regions hint to LLC: 0

RAW hits: 2438719
Loads Generated: 49476931
Loads sent to L1D: 47038211
Stores Generated: 7505174
Stores sent to L1D: 7505182
Major fault: 0 Minor fault: 33326
Allocated PAGES: 33326
Total Load insts: 60847276
Total Non-spec loads: 2521806
Percentage of speculative loads: 95.8555

LeapFrogging counter: 11780710
Commit hits: 24769415 miss: 20141096
Commit hit %: 55.1528 miss %: 44.8472
Commits not translated: 0
Loads retired: 16744842
Stores retired: 7505182
Cache fills: 16744850
L1D response latency: 103.912 cycles
Load retirement latency: 271.847 cycles
OOO test counter: 0
Discarded buffer inserts: 24769415 hits: 21971 hit %: 0.0887021
Filter prediction accuracy: 99.8848
Speculative prefetch buffer size: 0
CPU 0 L1D PC-based stride prefetcher final stats
Degree: 3

DRAM Statistics
 CHANNEL 0
 RQ ROW_BUFFER_HIT:    1117055  ROW_BUFFER_MISS:    7139915
 DBUS_CONGESTED:       2784
 WQ ROW_BUFFER_HIT:    2151622  ROW_BUFFER_MISS:    4919870  FULL:       9072

 AVG_CONGESTED_CYCLE: 5
 All warmup complete: 2
Channel 0 Bank busy for read cycles: 0
Channel 0 Bank busy for write cycles: 0
Channel 0
Rank 0
0banks busy for read cycles: 18367177
0banks busy for write cycles: 40260
1banks busy for read cycles: 153862536
1banks busy for write cycles: 6911822
2banks busy for read cycles: 124933826
2banks busy for write cycles: 6124213
3banks busy for read cycles: 91013894
3banks busy for write cycles: 6270651
4banks busy for read cycles: 56189451
4banks busy for write cycles: 7133191
5banks busy for read cycles: 28082063
5banks busy for write cycles: 9353133
6banks busy for read cycles: 11226223
6banks busy for write cycles: 16580831
7banks busy for read cycles: 3295080
7banks busy for write cycles: 49339741
8banks busy for read cycles: 1030496
8banks busy for write cycles: 130669029

CPU 0 Branch Prediction Accuracy: 97.9623% MPKI: 4.27319 Average ROB Occupancy at Mispredict: 138.664
Branch types
NOT_BRANCH: 158057977 79.029%
BRANCH_DIRECT_JUMP: 294369 0.147184%
BRANCH_INDIRECT: 0 0%
BRANCH_CONDITIONAL: 41647482 20.8237%
BRANCH_DIRECT_CALL: 22 1.1e-05%
BRANCH_INDIRECT_CALL: 0 0%
BRANCH_RETURN: 22 1.1e-05%
BRANCH_OTHER: 0 0%

DRAM PAGES: 1048576
Allocated PAGES: 33326
