
*** ChampSim Multicore Out-of-Order Simulator ***

Warmup Instructions: 50000000
Simulation Instructions: 200000000
Number of CPUs: 1
LLC sets: 2048
LLC ways: 16
L0D sets: 16
L0D ways: 2
ROB size: 352
LQ size: 128
SQ size: 72
Secure Berti: OFF
Berti: OFF
Berti Fill: OFF
On commit prefetching: ON
Hit-based filter: ON
Time-guarding: ON
Free-slotting: ON
Leap-frogging: ON
Train prefetcher on L0D bypass: OFF
No translation penalty for prefetchers: OFF
Prefetch to L0D only: OFF
Prefetch to L1D only: OFF
Clean evictions: ON
Commit loads: ON
Commit write: ON
Fill commit loads to L2C, LLC: ON
DRAM IO FREQUENCY: 6400
ROB SIZE: 352
Off-chip DRAM Size: 4096 MB Channels: 1 Width: 64-bit Data Rate: 6400 MT/s
CPU 0 runs /home/sumon/secure_berti/GhostMinion/../../traces/gap/cc-14.trace.gz
.gz
BTB has LRU replacement policy
ITLB has LRU replacement policy
DTLB has LRU replacement policy
STLB has LRU replacement policy
L1I has LRU replacement policy
L0D has LRU replacement policy
CPU 0 L1D IP-based stride prefetcher
L1D has LRU replacement policy
L2C has LRU replacement policy
LLC has LRU replacement policy
Heartbeat CPU 0 instructions: 10000003 cycles: 3225069 heartbeat IPC: 3.10071 cumulative IPC: 3.10071 (Simulation time: 0 hr 0 min 50 sec) 
Heartbeat CPU 0 instructions: 20000001 cycles: 6452704 heartbeat IPC: 3.09824 cumulative IPC: 3.09948 (Simulation time: 0 hr 1 min 48 sec) 
Heartbeat CPU 0 instructions: 30000002 cycles: 9688794 heartbeat IPC: 3.09015 cumulative IPC: 3.09636 (Simulation time: 0 hr 2 min 46 sec) 
Heartbeat CPU 0 instructions: 40000001 cycles: 12919243 heartbeat IPC: 3.09554 cumulative IPC: 3.09616 (Simulation time: 0 hr 3 min 45 sec) 
Heartbeat CPU 0 instructions: 50000003 cycles: 16152398 heartbeat IPC: 3.09295 cumulative IPC: 3.09552 (Simulation time: 0 hr 4 min 42 sec) 

Warmup complete CPU 0 instructions: 50000003 cycles: 16152398 (Simulation time: 0 hr 4 min 42 sec) 

Heartbeat CPU 0 instructions: 60000002 cycles: 54721523 heartbeat IPC: 0.259275 cumulative IPC: 0.259275 (Simulation time: 0 hr 5 min 33 sec) 
Heartbeat CPU 0 instructions: 70000000 cycles: 92658035 heartbeat IPC: 0.263598 cumulative IPC: 0.261419 (Simulation time: 0 hr 6 min 21 sec) 
Heartbeat CPU 0 instructions: 80000001 cycles: 131119990 heartbeat IPC: 0.259997 cumulative IPC: 0.260943 (Simulation time: 0 hr 7 min 7 sec) 
Heartbeat CPU 0 instructions: 90000000 cycles: 168363166 heartbeat IPC: 0.268506 cumulative IPC: 0.262793 (Simulation time: 0 hr 7 min 54 sec) 
Heartbeat CPU 0 instructions: 100000001 cycles: 205679681 heartbeat IPC: 0.267978 cumulative IPC: 0.263814 (Simulation time: 0 hr 8 min 41 sec) 
Heartbeat CPU 0 instructions: 110000000 cycles: 243760847 heartbeat IPC: 0.262597 cumulative IPC: 0.263611 (Simulation time: 0 hr 9 min 27 sec) 
Heartbeat CPU 0 instructions: 120000000 cycles: 282123480 heartbeat IPC: 0.26067 cumulative IPC: 0.263186 (Simulation time: 0 hr 10 min 13 sec) 
Heartbeat CPU 0 instructions: 130000003 cycles: 320749097 heartbeat IPC: 0.258896 cumulative IPC: 0.262642 (Simulation time: 0 hr 10 min 58 sec) 
Heartbeat CPU 0 instructions: 140000001 cycles: 358349363 heartbeat IPC: 0.265956 cumulative IPC: 0.263006 (Simulation time: 0 hr 11 min 42 sec) 
Heartbeat CPU 0 instructions: 150000001 cycles: 395440088 heartbeat IPC: 0.269609 cumulative IPC: 0.263652 (Simulation time: 0 hr 12 min 28 sec) 
Heartbeat CPU 0 instructions: 160000003 cycles: 432740609 heartbeat IPC: 0.268093 cumulative IPC: 0.26405 (Simulation time: 0 hr 13 min 13 sec) 
Heartbeat CPU 0 instructions: 170000000 cycles: 471194276 heartbeat IPC: 0.260053 cumulative IPC: 0.263712 (Simulation time: 0 hr 13 min 57 sec) 
Heartbeat CPU 0 instructions: 180000000 cycles: 508988170 heartbeat IPC: 0.264593 cumulative IPC: 0.26378 (Simulation time: 0 hr 14 min 39 sec) 
Heartbeat CPU 0 instructions: 190000000 cycles: 545845134 heartbeat IPC: 0.271319 cumulative IPC: 0.264304 (Simulation time: 0 hr 15 min 21 sec) 
Heartbeat CPU 0 instructions: 200000001 cycles: 583653494 heartbeat IPC: 0.264492 cumulative IPC: 0.264317 (Simulation time: 0 hr 16 min 3 sec) 
Heartbeat CPU 0 instructions: 210000000 cycles: 621513697 heartbeat IPC: 0.26413 cumulative IPC: 0.264305 (Simulation time: 0 hr 16 min 46 sec) 
Heartbeat CPU 0 instructions: 220000000 cycles: 659164093 heartbeat IPC: 0.265601 cumulative IPC: 0.264381 (Simulation time: 0 hr 17 min 28 sec) 
Heartbeat CPU 0 instructions: 230000000 cycles: 697843108 heartbeat IPC: 0.258538 cumulative IPC: 0.264049 (Simulation time: 0 hr 18 min 10 sec) 
Heartbeat CPU 0 instructions: 240000000 cycles: 735155624 heartbeat IPC: 0.268007 cumulative IPC: 0.264255 (Simulation time: 0 hr 18 min 52 sec) 
Heartbeat CPU 0 instructions: 250000002 cycles: 772288473 heartbeat IPC: 0.269303 cumulative IPC: 0.264503 (Simulation time: 0 hr 19 min 33 sec) 
Finished CPU 0 instructions: 200000000 cycles: 756136076 cumulative IPC: 0.264503 (Simulation time: 0 hr 19 min 33 sec) 
 Instruction ID: 250000145

ChampSim completed all CPUs

Region of Interest Statistics

CPU 0 cumulative IPC: 0.264503 instructions: 200000000 cycles: 756136076
ITLB SPEC fills:          0  NON-SPEC fills:          0
ITLB Test counter :          0
ITLB Leapfrog:          0
ITLB MSHR merge:          0
ITLB TOTAL     ACCESS:   30402702  HIT:   30402702  MISS:          0  HIT %:        100  MISS %:          0   MPKI: 0
ITLB LOAD TRANSLATION NON_SPEC    ACCESS:   30402702  HIT:   30402702  MISS:          0  HIT %:        100  MISS %:          0   MPKI: 0
ITLB PREFETCH  REQUESTED:          0  ISSUED:          0  USEFUL:          0  USELESS:          0
ITLB USEFUL LOAD PREFETCHES:          0 PREFETCH ISSUED TO LOWER LEVEL:          0  ACCURACY: -nan
ITLB TIMELY PREFETCHES:          0 LATE PREFETCHES: 0 DROPPED PREFETCHES: 0
ITLB COMMIT LATE PREFETCHES: 0 MISSED OPPORTUNITY: 0 LATE IN PQ: 0 UNCOVERED: 0
ITLB COMMIT LATE MSHR PREFETCHES: 0
ITLB MPKI TOTAL: 0 MSHR LATE: 0 PQ LATE: 0 COMMIT LATE: 0 MISSED OPPORTUNITY: 0 UNCOVERED: 0
ITLB PREFETCHES SAME FILL-ORIGIN LEVEL: 0 DIFFERENT FILL-ORIGIN LEVEL: 0
ITLB AVERAGE MISS LATENCY: -nan cycles
ITLB AVERAGE MISS LATENCY LOAD: -nan cycles
ITLB AVERAGE MISS LATENCY PREFETCH: -nan cycles
ITLB AVERAGE MSHR OCCUPANCY: 0
ITLB MSHR FULL: 0
ITLB RQ	ACCESS:   30985807	FORWARD:          0	MERGED:     583106	TO_CACHE:   30402701

DTLB SPEC fills:          0  NON-SPEC fills:          0
DTLB Test counter :          0
DTLB Leapfrog:          0
DTLB MSHR merge:          0
DTLB TOTAL     ACCESS:   47509010  HIT:   37808684  MISS:    9700326  HIT %:    79.5821  MISS %:    20.4179   MPKI: 48.5016
DTLB LOAD TRANSLATION NON_SPEC    ACCESS:   47509010  HIT:   37808684  MISS:    9700326  HIT %:    79.5821  MISS %:    20.4179   MPKI: 48.5016
DTLB PREFETCH  REQUESTED:          0  ISSUED:          0  USEFUL:          0  USELESS:          0
DTLB USEFUL LOAD PREFETCHES:          0 PREFETCH ISSUED TO LOWER LEVEL:          0  ACCURACY: -nan
DTLB TIMELY PREFETCHES:          0 LATE PREFETCHES: 0 DROPPED PREFETCHES: 0
DTLB COMMIT LATE PREFETCHES: 0 MISSED OPPORTUNITY: 0 LATE IN PQ: 0 UNCOVERED: 0
DTLB COMMIT LATE MSHR PREFETCHES: 0
DTLB MPKI TOTAL: 0 MSHR LATE: 0 PQ LATE: 0 COMMIT LATE: 0 MISSED OPPORTUNITY: 0 UNCOVERED: 0
DTLB PREFETCHES SAME FILL-ORIGIN LEVEL: 0 DIFFERENT FILL-ORIGIN LEVEL: 0
DTLB AVERAGE MISS LATENCY: 9.48853 cycles
DTLB AVERAGE MISS LATENCY LOAD: -nan cycles
DTLB AVERAGE MISS LATENCY PREFETCH: -nan cycles
DTLB AVERAGE MSHR OCCUPANCY: 0.368455
DTLB MSHR FULL: 0.00325022
DTLB RQ	ACCESS:   49670123	FORWARD:          0	MERGED:    1816693	TO_CACHE:   47853430

STLB SPEC fills:          0  NON-SPEC fills:          0
STLB Test counter :          0
STLB Leapfrog:          0
STLB MSHR merge:          0
STLB TOTAL     ACCESS:   10998009  HIT:   10983365  MISS:      14644  HIT %:    99.8668  MISS %:   0.133151   MPKI: 0.07322
STLB LOAD TRANSLATION NON_SPEC    ACCESS:    9700326  HIT:    9685682  MISS:      14644  HIT %:     99.849  MISS %:   0.150964   MPKI: 0.07322
STLB TRANSLATION FROM L1D PREFETCHER NON_SPEC    ACCESS:    1297683  HIT:    1297683  MISS:          0  HIT %:        100  MISS %:          0   MPKI: 0
STLB PREFETCH  REQUESTED:          0  ISSUED:          0  USEFUL:          0  USELESS:          0
STLB USEFUL LOAD PREFETCHES:          0 PREFETCH ISSUED TO LOWER LEVEL:          0  ACCURACY: -nan
STLB TIMELY PREFETCHES:          0 LATE PREFETCHES: 0 DROPPED PREFETCHES: 0
STLB COMMIT LATE PREFETCHES: 0 MISSED OPPORTUNITY: 0 LATE IN PQ: 0 UNCOVERED: 0
STLB COMMIT LATE MSHR PREFETCHES: 0
STLB MPKI TOTAL: 0 MSHR LATE: 0 PQ LATE: 0 COMMIT LATE: 0 MISSED OPPORTUNITY: 0 UNCOVERED: 0
STLB PREFETCHES SAME FILL-ORIGIN LEVEL: 0 DIFFERENT FILL-ORIGIN LEVEL: 0
STLB AVERAGE MISS LATENCY: 186.571 cycles
STLB AVERAGE MISS LATENCY LOAD: -nan cycles
STLB AVERAGE MISS LATENCY PREFETCH: -nan cycles
STLB AVERAGE MSHR OCCUPANCY: 0.00109874
STLB MSHR FULL: 0
STLB RQ	ACCESS:   13471614	FORWARD:          0	MERGED:    2473604	TO_CACHE:   10998010

STLB Hit, L1D data hit: 0
STLB Hit, L2C data hit: 0
STLB Hit, LLC data hit: 0
STLB Hit, LLC data miss: 0
STLB STLB hints to L2: 0
L0D SPEC fills:   24926941  NON-SPEC fills:          0
L0D TimeGuard Request with older TS:     646197 Restricted eviction:     273187 read:     583702
L0D Test counter :          0
L0D Leapfrog:          0
L0D MSHR merge:     863845
L0D TOTAL     ACCESS:   48558771  HIT:   12983168  MISS:   35575603  HIT %:     26.737  MISS %:     73.263   MPKI: 177.878
L0D LOAD      TOTAL       ACCESS:   48558771  HIT:   12983168  MISS:   35575603  HIT %:     26.737  MISS %:     73.263   MPKI: 177.878
L0D LOAD      NON_SPEC    ACCESS:   11285408  HIT:     909933  MISS:   10375475  HIT %:    8.06292  MISS %:    91.9371   MPKI: 51.8774
L0D LOAD      SPEC        ACCESS:   37273363  HIT:   12073235  MISS:   25200128  HIT %:    32.3911  MISS %:    67.6089   MPKI: 126.001
L0D PREFETCH  REQUESTED:          0  ISSUED:          0  USEFUL:          0  USELESS:          0
L0D USEFUL LOAD PREFETCHES:          0 PREFETCH ISSUED TO LOWER LEVEL:          0  ACCURACY: -nan
L0D TIMELY PREFETCHES:          0 LATE PREFETCHES: 0 DROPPED PREFETCHES: 0
L0D COMMIT LATE PREFETCHES: 0 MISSED OPPORTUNITY: 0 LATE IN PQ: 0 UNCOVERED: 0
L0D COMMIT LATE MSHR PREFETCHES: 0
L0D MPKI TOTAL: 182.197 MSHR LATE: 0 PQ LATE: 0 COMMIT LATE: 0 MISSED OPPORTUNITY: 0 UNCOVERED: 0
L0D PREFETCHES SAME FILL-ORIGIN LEVEL: 0 DIFFERENT FILL-ORIGIN LEVEL: 0
L0D AVERAGE MISS LATENCY: 30.9521 cycles
L0D AVERAGE MISS LATENCY LOAD: 30.9521 cycles
L0D AVERAGE MISS LATENCY PREFETCH: -nan cycles
L0D AVERAGE MSHR OCCUPANCY: 1.99922
L0D MSHR FULL: 0.0404447
L0D RQ	ACCESS:   55035489	FORWARD:          0	MERGED:    5612872	TO_CACHE:   49422617
L0D WQ	ACCESS:     247506	FORWARD:          0	MERGED:          0	TO_CACHE:     247506

L1D SPEC fills:          0  NON-SPEC fills:    3377332
L1D Test counter :          0
L1D Leapfrog:          0
L1D MSHR merge:      12559
L1D TOTAL     ACCESS:   50348702  HIT:   24260891  MISS:   26087811  HIT %:    48.1857  MISS %:    51.8143   MPKI: 130.439
L1D LOAD      TOTAL       ACCESS:   35574943  HIT:   21552047  MISS:   14022896  HIT %:    60.5821  MISS %:    39.4179   MPKI: 70.1145
L1D LOAD      NON_SPEC    ACCESS:   10375009  HIT:    6997677  MISS:    3377332  HIT %:    67.4474  MISS %:    32.5526   MPKI: 16.8867
L1D LOAD      SPEC        ACCESS:   25199934  HIT:   14554370  MISS:   10645564  HIT %:    57.7556  MISS %:    42.2444   MPKI: 53.2278
L1D RFO       NON_SPEC    ACCESS:     246252  HIT:     246248  MISS:          4  HIT %:    99.9984  MISS %: 0.00162435   MPKI: 2e-05
L1D PREFETCH  NON_SPEC    ACCESS:    3684282  HIT:    2254950  MISS:    1429332  HIT %:    61.2046  MISS %:    38.7954   MPKI: 7.14666
L1D COMMIT LOAD NON_SPEC    ACCESS:     433180  HIT:     190538  MISS:     242642  HIT %:    43.9859  MISS %:    56.0141   MPKI: 1.21321
L1D COMMIT WRITE NON_SPEC    ACCESS:   10410045  HIT:      17108  MISS:   10392937  HIT %:   0.164341  MISS %:    99.8357   MPKI: 51.9647
L1D PREFETCH  REQUESTED:    3793367  ISSUED:    3793367  USEFUL:     965654  USELESS:     463678
L1D USEFUL LOAD PREFETCHES:     965654 PREFETCH ISSUED TO LOWER LEVEL:    1447742  ACCURACY: 66.7007
L1D TIMELY PREFETCHES:     965654 LATE PREFETCHES: 12144 DROPPED PREFETCHES: 0
L1D COMMIT LATE PREFETCHES: 0 MISSED OPPORTUNITY: 0 LATE IN PQ: 0 UNCOVERED: 0
L1D COMMIT LATE MSHR PREFETCHES: 0
L1D MPKI TOTAL: 70.1178 MSHR LATE: 0.06072 PQ LATE: 0 COMMIT LATE: 0 MISSED OPPORTUNITY: 0 UNCOVERED: 0
L1D PREFETCHES SAME FILL-ORIGIN LEVEL: 1441476 DIFFERENT FILL-ORIGIN LEVEL: 6266
L1D AVERAGE MISS LATENCY: 45.8328 cycles
L1D AVERAGE MISS LATENCY LOAD: 65.5798 cycles
L1D AVERAGE MISS LATENCY PREFETCH: 186.322 cycles
L1D AVERAGE MSHR OCCUPANCY: 1.73862
L1D MSHR FULL: 1.11911e-05
L1D RQ	ACCESS:   36043853	FORWARD:          0	MERGED:      28341	TO_CACHE:   36010276
L1D WQ	ACCESS:   10658633	FORWARD:       5236	MERGED:       1082	TO_CACHE:   10657551
L1D PQ	ACCESS:    3793367	FORWARD:          0	MERGED:      22080	TO_CACHE:    3771287

L1D UNIQUE REGIONS ACCESSED: 0
L1D REGIONS CONFLICTS: 0
L1D Cross Page Prefetch Requests: 0
L1D Same Page Prefetch Requests: 4822805
L1D ROI Sum of L1D PQ occupancy: 54147113
L1D PREFETCHES PUSHED FROM L2C: 0
L1I SPEC fills:          0  NON-SPEC fills:          0
L1I Test counter :          0
L1I Leapfrog:          0
L1I MSHR merge:          0
L1I TOTAL     ACCESS:   30985808  HIT:   30985808  MISS:          0  HIT %:        100  MISS %:          0   MPKI: 0
L1I LOAD      TOTAL       ACCESS:   30985808  HIT:   30985808  MISS:          0  HIT %:        100  MISS %:          0   MPKI: 0
L1I LOAD      NON_SPEC    ACCESS:   30985808  HIT:   30985808  MISS:          0  HIT %:        100  MISS %:          0   MPKI: 0
L1I PREFETCH  REQUESTED:          0  ISSUED:          0  USEFUL:          0  USELESS:          0
L1I USEFUL LOAD PREFETCHES:          0 PREFETCH ISSUED TO LOWER LEVEL:          0  ACCURACY: -nan
L1I TIMELY PREFETCHES:          0 LATE PREFETCHES: 0 DROPPED PREFETCHES: 0
L1I COMMIT LATE PREFETCHES: 0 MISSED OPPORTUNITY: 0 LATE IN PQ: 0 UNCOVERED: 0
L1I COMMIT LATE MSHR PREFETCHES: 0
L1I MPKI TOTAL: 0 MSHR LATE: 0 PQ LATE: 0 COMMIT LATE: 0 MISSED OPPORTUNITY: 0 UNCOVERED: 0
L1I PREFETCHES SAME FILL-ORIGIN LEVEL: 0 DIFFERENT FILL-ORIGIN LEVEL: 0
L1I AVERAGE MISS LATENCY: -nan cycles
L1I AVERAGE MISS LATENCY LOAD: -nan cycles
L1I AVERAGE MISS LATENCY PREFETCH: -nan cycles
L1I AVERAGE MSHR OCCUPANCY: 0
L1I MSHR FULL: 0
L1I RQ	ACCESS:   55539190	FORWARD:          0	MERGED:   24553383	TO_CACHE:   30985807

BTB SPEC fills:          0  NON-SPEC fills:          0
BTB Test counter :          0
BTB Leapfrog:          0
BTB MSHR merge:          0
BTB TOTAL     ACCESS:   40353859  HIT:   40353854  MISS:          5  HIT %:        100  MISS %: 1.23904e-05   MPKI: 2.5e-05
BTB BRANCH_DIRECT_JUMP	ACCESS:          0  HIT:          0  MISS:          0
BTB BRANCH_INDIRECT	ACCESS:          0  HIT:          0  MISS:          0
BTB BRANCH_CONDITIONAL	ACCESS:   40353859  HIT:   40353854  MISS:          5
BTB BRANCH_DIRECT_CALL	ACCESS:          0  HIT:          0  MISS:          0
BTB BRANCH_INDIRECT_CALL	ACCESS:          0  HIT:          0  MISS:          0
BTB BRANCH_RETURN	ACCESS:          0  HIT:          0  MISS:          0
BTB BRANCH_OTHER ACCESS:          0  HIT:          0  MISS:          0

L2C SPEC fills:          0  NON-SPEC fills:    2255566
L2C Test counter :          0
L2C Leapfrog:          0
L2C MSHR merge:         24
L2C TOTAL     ACCESS:   23159379  HIT:    4691816  MISS:   18467563  HIT %:    20.2588  MISS %:    79.7412   MPKI: 92.3378
L2C LOAD      TOTAL       ACCESS:   14010725  HIT:    4308828  MISS:    9701897  HIT %:    30.7538  MISS %:    69.2462   MPKI: 48.5095
L2C LOAD      NON_SPEC    ACCESS:    3370881  HIT:    1115315  MISS:    2255566  HIT %:    33.0868  MISS %:    66.9132   MPKI: 11.2778
L2C LOAD      SPEC        ACCESS:   10639844  HIT:    3193513  MISS:    7446331  HIT %:    30.0147  MISS %:    69.9853   MPKI: 37.2317
L2C RFO       NON_SPEC    ACCESS:          4  HIT:          4  MISS:          0  HIT %:        100  MISS %:          0   MPKI: 0
L2C PREFETCH  NON_SPEC    ACCESS:    1447334  HIT:     111378  MISS:    1335956  HIT %:    7.69539  MISS %:    92.3046   MPKI: 6.67978
L2C WRITEBACK NON_SPEC    ACCESS:      59278  HIT:      59271  MISS:          7  HIT %:    99.9882  MISS %:  0.0118088   MPKI: 3.5e-05
L2C CLEAN_EVICTION NON_SPEC    ACCESS:    7326450  HIT:      44709  MISS:    7281741  HIT %:   0.610241  MISS %:    99.3898   MPKI: 36.4087
L2C COMMIT LOAD NON_SPEC    ACCESS:     242397  HIT:      98630  MISS:     143767  HIT %:    40.6894  MISS %:    59.3106   MPKI: 0.718835
L2C LOAD TRANSLATION NON_SPEC    ACCESS:      73191  HIT:      68996  MISS:       4195  HIT %:    94.2684  MISS %:    5.73158   MPKI: 0.020975
L2C PREFETCH  REQUESTED:          0  ISSUED:          0  USEFUL:      35917  USELESS:    1300076
L2C USEFUL LOAD PREFETCHES:      35917 PREFETCH ISSUED TO LOWER LEVEL:    1335981  ACCURACY: 2.68844
L2C TIMELY PREFETCHES:      35917 LATE PREFETCHES: 25 DROPPED PREFETCHES: 0
L2C COMMIT LATE PREFETCHES: 0 MISSED OPPORTUNITY: 0 LATE IN PQ: 0 UNCOVERED: 0
L2C COMMIT LATE MSHR PREFETCHES: 0
L2C MPKI TOTAL: 48.5095 MSHR LATE: 0.000125 PQ LATE: 0 COMMIT LATE: 0 MISSED OPPORTUNITY: 0 UNCOVERED: 0
L2C PREFETCHES SAME FILL-ORIGIN LEVEL: 5780 DIFFERENT FILL-ORIGIN LEVEL: 0
L2C AVERAGE MISS LATENCY: 54.273 cycles
L2C AVERAGE MISS LATENCY LOAD: 77.1396 cycles
L2C AVERAGE MISS LATENCY PREFETCH: 185.137 cycles
L2C AVERAGE MSHR OCCUPANCY: 1.82553
L2C MSHR FULL: 0
L2C RQ	ACCESS:   14326592	FORWARD:          0	MERGED:          0	TO_CACHE:   14326320
L2C WQ	ACCESS:    7385729	FORWARD:        274	MERGED:          1	TO_CACHE:    7385728
L2C PQ	ACCESS:    1447742	FORWARD:          0	MERGED:          0	TO_CACHE:    1447740

L2C Instructions Evicting Data 0
L2C Translations Evicting Data 4193
L2C Data Evicting Data 3733858
L2C Instructions Evicting Instructions 0
L2C Translations Evicting Instructions 0
L2C Data Evicting Instructions 0
L2C Instructions Evicting Translations 0
L2C Translations Evicting Translations 2
L2C Data Evicting Translations 1431
L2C Dense regions hint from L2: 0
PSCL5 SPEC fills:          0  NON-SPEC fills:          0
PSCL5 Test counter :          0
PSCL5 Leapfrog:          0
PSCL5 MSHR merge:          0
PSCL5 TOTAL     ACCESS:          0  HIT:          0  MISS:          0  HIT %:       -nan  MISS %:       -nan   MPKI: 0
PSCL5 PREFETCH  REQUESTED:          0  ISSUED:          0  USEFUL:          0  USELESS:          0
PSCL5 USEFUL LOAD PREFETCHES:          0 PREFETCH ISSUED TO LOWER LEVEL:          0  ACCURACY: -nan
PSCL5 TIMELY PREFETCHES:          0 LATE PREFETCHES: 0 DROPPED PREFETCHES: 0
PSCL5 COMMIT LATE PREFETCHES: 0 MISSED OPPORTUNITY: 0 LATE IN PQ: 0 UNCOVERED: 0
PSCL5 COMMIT LATE MSHR PREFETCHES: 0
PSCL5 MPKI TOTAL: 0 MSHR LATE: 0 PQ LATE: 0 COMMIT LATE: 0 MISSED OPPORTUNITY: 0 UNCOVERED: 0
PSCL5 PREFETCHES SAME FILL-ORIGIN LEVEL: 0 DIFFERENT FILL-ORIGIN LEVEL: 0

PSCL4 SPEC fills:          0  NON-SPEC fills:          0
PSCL4 Test counter :          0
PSCL4 Leapfrog:          0
PSCL4 MSHR merge:          0
PSCL4 TOTAL     ACCESS:          0  HIT:          0  MISS:          0  HIT %:       -nan  MISS %:       -nan   MPKI: 0
PSCL4 PREFETCH  REQUESTED:          0  ISSUED:          0  USEFUL:          0  USELESS:          0
PSCL4 USEFUL LOAD PREFETCHES:          0 PREFETCH ISSUED TO LOWER LEVEL:          0  ACCURACY: -nan
PSCL4 TIMELY PREFETCHES:          0 LATE PREFETCHES: 0 DROPPED PREFETCHES: 0
PSCL4 COMMIT LATE PREFETCHES: 0 MISSED OPPORTUNITY: 0 LATE IN PQ: 0 UNCOVERED: 0
PSCL4 COMMIT LATE MSHR PREFETCHES: 0
PSCL4 MPKI TOTAL: 0 MSHR LATE: 0 PQ LATE: 0 COMMIT LATE: 0 MISSED OPPORTUNITY: 0 UNCOVERED: 0
PSCL4 PREFETCHES SAME FILL-ORIGIN LEVEL: 0 DIFFERENT FILL-ORIGIN LEVEL: 0

PSCL3 SPEC fills:          0  NON-SPEC fills:          0
PSCL3 Test counter :          0
PSCL3 Leapfrog:          0
PSCL3 MSHR merge:          0
PSCL3 TOTAL     ACCESS:          0  HIT:          0  MISS:          0  HIT %:       -nan  MISS %:       -nan   MPKI: 0
PSCL3 PREFETCH  REQUESTED:          0  ISSUED:          0  USEFUL:          0  USELESS:          0
PSCL3 USEFUL LOAD PREFETCHES:          0 PREFETCH ISSUED TO LOWER LEVEL:          0  ACCURACY: -nan
PSCL3 TIMELY PREFETCHES:          0 LATE PREFETCHES: 0 DROPPED PREFETCHES: 0
PSCL3 COMMIT LATE PREFETCHES: 0 MISSED OPPORTUNITY: 0 LATE IN PQ: 0 UNCOVERED: 0
PSCL3 COMMIT LATE MSHR PREFETCHES: 0
PSCL3 MPKI TOTAL: 0 MSHR LATE: 0 PQ LATE: 0 COMMIT LATE: 0 MISSED OPPORTUNITY: 0 UNCOVERED: 0
PSCL3 PREFETCHES SAME FILL-ORIGIN LEVEL: 0 DIFFERENT FILL-ORIGIN LEVEL: 0

PSCL2 SPEC fills:          0  NON-SPEC fills:          0
PSCL2 Test counter :          0
PSCL2 Leapfrog:          0
PSCL2 MSHR merge:          0
PSCL2 TOTAL     ACCESS:          0  HIT:          0  MISS:          0  HIT %:       -nan  MISS %:       -nan   MPKI: 0
PSCL2 PREFETCH  REQUESTED:          0  ISSUED:          0  USEFUL:          0  USELESS:          0
PSCL2 USEFUL LOAD PREFETCHES:          0 PREFETCH ISSUED TO LOWER LEVEL:          0  ACCURACY: -nan
PSCL2 TIMELY PREFETCHES:          0 LATE PREFETCHES: 0 DROPPED PREFETCHES: 0
PSCL2 COMMIT LATE PREFETCHES: 0 MISSED OPPORTUNITY: 0 LATE IN PQ: 0 UNCOVERED: 0
PSCL2 COMMIT LATE MSHR PREFETCHES: 0
PSCL2 MPKI TOTAL: 0 MSHR LATE: 0 PQ LATE: 0 COMMIT LATE: 0 MISSED OPPORTUNITY: 0 UNCOVERED: 0
PSCL2 PREFETCHES SAME FILL-ORIGIN LEVEL: 0 DIFFERENT FILL-ORIGIN LEVEL: 0

LLC SPEC fills:          0  NON-SPEC fills:     747918
LLC Test counter :          0
LLC Leapfrog:          0
LLC MSHR merge:          0
LLC TOTAL     ACCESS:   18556818  HIT:   11167673  MISS:    7389145  HIT %:     60.181  MISS %:     39.819   MPKI: 36.9457
LLC LOAD      TOTAL       ACCESS:    9701784  HIT:    6423419  MISS:    3278365  HIT %:    66.2086  MISS %:    33.7914   MPKI: 16.3918
LLC LOAD      NON_SPEC    ACCESS:    2255551  HIT:    1507633  MISS:     747918  HIT %:     66.841  MISS %:     33.159   MPKI: 3.73959
LLC LOAD      SPEC        ACCESS:    7446233  HIT:    4915786  MISS:    2530447  HIT %:    66.0171  MISS %:    33.9829   MPKI: 12.6522
LLC PREFETCH  NON_SPEC    ACCESS:    1335981  HIT:     164766  MISS:    1171215  HIT %:     12.333  MISS %:     87.667   MPKI: 5.85607
LLC WRITEBACK NON_SPEC    ACCESS:      54584  HIT:      54579  MISS:          5  HIT %:    99.9908  MISS %: 0.00916019   MPKI: 2.5e-05
LLC CLEAN_EVICTION NON_SPEC    ACCESS:    7316540  HIT:    4392400  MISS:    2924140  HIT %:    60.0338  MISS %:    39.9662   MPKI: 14.6207
LLC COMMIT LOAD NON_SPEC    ACCESS:     143734  HIT:     130192  MISS:      13542  HIT %:    90.5784  MISS %:    9.42157   MPKI: 0.06771
LLC LOAD TRANSLATION NON_SPEC    ACCESS:       4195  HIT:       2317  MISS:       1878  HIT %:    55.2324  MISS %:    44.7676   MPKI: 0.00939
LLC PREFETCH  REQUESTED:          0  ISSUED:          0  USEFUL:      61524  USELESS:    1110236
LLC USEFUL LOAD PREFETCHES:      61524 PREFETCH ISSUED TO LOWER LEVEL:    1171215  ACCURACY: 5.25301
LLC TIMELY PREFETCHES:      61524 LATE PREFETCHES: 0 DROPPED PREFETCHES: 0
LLC COMMIT LATE PREFETCHES: 0 MISSED OPPORTUNITY: 0 LATE IN PQ: 0 UNCOVERED: 0
LLC COMMIT LATE MSHR PREFETCHES: 0
LLC MPKI TOTAL: 16.3918 MSHR LATE: 0 PQ LATE: 0 COMMIT LATE: 0 MISSED OPPORTUNITY: 0 UNCOVERED: 0
LLC PREFETCHES SAME FILL-ORIGIN LEVEL: 0 DIFFERENT FILL-ORIGIN LEVEL: 0
LLC AVERAGE MISS LATENCY: 99.2679 cycles
LLC AVERAGE MISS LATENCY LOAD: 159.895 cycles
LLC AVERAGE MISS LATENCY PREFETCH: 176.911 cycles
LLC AVERAGE MSHR OCCUPANCY: 1.07102
LLC MSHR FULL: 0
LLC RQ	ACCESS:    9849835	FORWARD:          0	MERGED:          0	TO_CACHE:    9849714
LLC WQ	ACCESS:    7371125	FORWARD:        121	MERGED:          0	TO_CACHE:    7371125
LLC PQ	ACCESS:    1335981	FORWARD:          0	MERGED:          0	TO_CACHE:    1335981

LLC Dense regions hint to LLC: 0

RAW hits: 26541
Loads Generated: 55062032
Loads sent to L1D: 55035489
Stores Generated: 247506
Stores sent to L1D: 247506
Major fault: 0 Minor fault: 19168
Allocated PAGES: 19168
Total Load insts: 67812888
Total Non-spec loads: 11770481
Percentage of speculative loads: 82.6427

LeapFrogging counter: 499771
Commit hits: 24405591 miss: 19197612
Commit hit %: 55.972 miss %: 44.028
Commits not translated: 0
Loads retired: 14022894
Stores retired: 247506
Cache fills: 14022896
L1D response latency: 65.5798 cycles
Load retirement latency: 146.872 cycles
OOO test counter: 0
Discarded buffer inserts: 24405591 hits: 28281 hit %: 0.115879
Filter prediction accuracy: 99.7471
Speculative prefetch buffer size: 0
CPU 0 L1D PC-based stride prefetcher final stats
Degree: 3

DRAM Statistics
 CHANNEL 0
 RQ ROW_BUFFER_HIT:     434201  ROW_BUFFER_MISS:    4029964
 DBUS_CONGESTED:       2372
 WQ ROW_BUFFER_HIT:    1160844  ROW_BUFFER_MISS:    2072415  FULL:          0

 AVG_CONGESTED_CYCLE: 5
 All warmup complete: 2
Channel 0 Bank busy for read cycles: 0
Channel 0 Bank busy for write cycles: 0
Channel 0
Rank 0
0banks busy for read cycles: 80802222
0banks busy for write cycles: 612527
1banks busy for read cycles: 248277591
1banks busy for write cycles: 103187736
2banks busy for read cycles: 98881394
2banks busy for write cycles: 68706461
3banks busy for read cycles: 37018784
3banks busy for write cycles: 37178315
4banks busy for read cycles: 11957164
4banks busy for write cycles: 20640011
5banks busy for read cycles: 3160592
5banks busy for write cycles: 12753817
6banks busy for read cycles: 761546
6banks busy for write cycles: 9128625
7banks busy for read cycles: 162493
7banks busy for write cycles: 9302463
8banks busy for read cycles: 20981
8banks busy for write cycles: 13583355

CPU 0 Branch Prediction Accuracy: 92.3859% MPKI: 15.4313 Average ROB Occupancy at Mispredict: 33.9284
Branch types
NOT_BRANCH: 159466168 79.7331%
BRANCH_DIRECT_JUMP: 0 0%
BRANCH_INDIRECT: 0 0%
BRANCH_CONDITIONAL: 40533593 20.2668%
BRANCH_DIRECT_CALL: 0 0%
BRANCH_INDIRECT_CALL: 0 0%
BRANCH_RETURN: 0 0%
BRANCH_OTHER: 0 0%

DRAM PAGES: 1048576
Allocated PAGES: 19168
