
*** ChampSim Multicore Out-of-Order Simulator ***

Warmup Instructions: 50000000
Simulation Instructions: 200000000
Number of CPUs: 1
LLC sets: 2048
LLC ways: 16
L0D sets: 16
L0D ways: 2
ROB size: 352
LQ size: 128
SQ size: 72
Secure Berti: OFF
Berti: OFF
Berti Fill: OFF
On commit prefetching: ON
Hit-based filter: ON
Time-guarding: ON
Free-slotting: ON
Leap-frogging: ON
Train prefetcher on L0D bypass: OFF
No translation penalty for prefetchers: OFF
Prefetch to L0D only: OFF
Prefetch to L1D only: OFF
Clean evictions: ON
Commit loads: ON
Commit write: ON
Fill commit loads to L2C, LLC: ON
DRAM IO FREQUENCY: 6400
ROB SIZE: 352
Off-chip DRAM Size: 4096 MB Channels: 1 Width: 64-bit Data Rate: 6400 MT/s
CPU 0 runs /home/sumon/secure_berti/GhostMinion/../../traces/gap/cc-13.trace.gz
.gz
BTB has LRU replacement policy
ITLB has LRU replacement policy
DTLB has LRU replacement policy
STLB has LRU replacement policy
L1I has LRU replacement policy
L0D has LRU replacement policy
CPU 0 L1D IP-based stride prefetcher
L1D has LRU replacement policy
L2C has LRU replacement policy
LLC has LRU replacement policy
Heartbeat CPU 0 instructions: 10000003 cycles: 3233781 heartbeat IPC: 3.09236 cumulative IPC: 3.09236 (Simulation time: 0 hr 0 min 37 sec) 
Heartbeat CPU 0 instructions: 20000000 cycles: 6471949 heartbeat IPC: 3.08817 cumulative IPC: 3.09026 (Simulation time: 0 hr 1 min 19 sec) 
Heartbeat CPU 0 instructions: 30000003 cycles: 9712570 heartbeat IPC: 3.08583 cumulative IPC: 3.08878 (Simulation time: 0 hr 2 min 1 sec) 
Heartbeat CPU 0 instructions: 40000002 cycles: 12951850 heartbeat IPC: 3.08711 cumulative IPC: 3.08836 (Simulation time: 0 hr 2 min 44 sec) 
Heartbeat CPU 0 instructions: 50000001 cycles: 16195946 heartbeat IPC: 3.08252 cumulative IPC: 3.08719 (Simulation time: 0 hr 3 min 27 sec) 

Warmup complete CPU 0 instructions: 50000001 cycles: 16195946 (Simulation time: 0 hr 3 min 27 sec) 

Heartbeat CPU 0 instructions: 60000000 cycles: 62261480 heartbeat IPC: 0.217082 cumulative IPC: 0.217082 (Simulation time: 0 hr 4 min 25 sec) 
Heartbeat CPU 0 instructions: 70000000 cycles: 106295847 heartbeat IPC: 0.227095 cumulative IPC: 0.221976 (Simulation time: 0 hr 5 min 23 sec) 
Heartbeat CPU 0 instructions: 80000000 cycles: 150182020 heartbeat IPC: 0.227862 cumulative IPC: 0.223904 (Simulation time: 0 hr 6 min 20 sec) 
Heartbeat CPU 0 instructions: 90000000 cycles: 194611583 heartbeat IPC: 0.225075 cumulative IPC: 0.224196 (Simulation time: 0 hr 7 min 16 sec) 
Heartbeat CPU 0 instructions: 100000003 cycles: 237584079 heartbeat IPC: 0.232707 cumulative IPC: 0.225848 (Simulation time: 0 hr 8 min 9 sec) 
Heartbeat CPU 0 instructions: 110000000 cycles: 279938703 heartbeat IPC: 0.236102 cumulative IPC: 0.227494 (Simulation time: 0 hr 9 min 1 sec) 
Heartbeat CPU 0 instructions: 120000000 cycles: 322106026 heartbeat IPC: 0.23715 cumulative IPC: 0.228825 (Simulation time: 0 hr 9 min 52 sec) 
Heartbeat CPU 0 instructions: 130000000 cycles: 365944310 heartbeat IPC: 0.228111 cumulative IPC: 0.228736 (Simulation time: 0 hr 10 min 44 sec) 
Heartbeat CPU 0 instructions: 140000002 cycles: 409566559 heartbeat IPC: 0.229241 cumulative IPC: 0.228792 (Simulation time: 0 hr 11 min 33 sec) 
Heartbeat CPU 0 instructions: 150000000 cycles: 450874927 heartbeat IPC: 0.242082 cumulative IPC: 0.230055 (Simulation time: 0 hr 12 min 22 sec) 
Heartbeat CPU 0 instructions: 160000002 cycles: 493513317 heartbeat IPC: 0.23453 cumulative IPC: 0.230455 (Simulation time: 0 hr 13 min 9 sec) 
Heartbeat CPU 0 instructions: 170000000 cycles: 536399470 heartbeat IPC: 0.233175 cumulative IPC: 0.230679 (Simulation time: 0 hr 13 min 54 sec) 
Heartbeat CPU 0 instructions: 180000003 cycles: 579150450 heartbeat IPC: 0.233913 cumulative IPC: 0.230925 (Simulation time: 0 hr 14 min 35 sec) 
Heartbeat CPU 0 instructions: 190000003 cycles: 621644848 heartbeat IPC: 0.235325 cumulative IPC: 0.231233 (Simulation time: 0 hr 15 min 17 sec) 
Heartbeat CPU 0 instructions: 200000000 cycles: 664373622 heartbeat IPC: 0.234034 cumulative IPC: 0.231418 (Simulation time: 0 hr 15 min 58 sec) 
Heartbeat CPU 0 instructions: 210000000 cycles: 705727069 heartbeat IPC: 0.241818 cumulative IPC: 0.232042 (Simulation time: 0 hr 16 min 38 sec) 
Heartbeat CPU 0 instructions: 220000000 cycles: 749445370 heartbeat IPC: 0.228737 cumulative IPC: 0.231845 (Simulation time: 0 hr 17 min 19 sec) 
Heartbeat CPU 0 instructions: 230000000 cycles: 791231315 heartbeat IPC: 0.239315 cumulative IPC: 0.232247 (Simulation time: 0 hr 18 min 0 sec) 
Heartbeat CPU 0 instructions: 240000000 cycles: 834242620 heartbeat IPC: 0.232497 cumulative IPC: 0.232261 (Simulation time: 0 hr 18 min 41 sec) 
Heartbeat CPU 0 instructions: 250000000 cycles: 876743152 heartbeat IPC: 0.235291 cumulative IPC: 0.23241 (Simulation time: 0 hr 19 min 21 sec) 
Finished CPU 0 instructions: 200000003 cycles: 860547207 cumulative IPC: 0.23241 (Simulation time: 0 hr 19 min 21 sec) 
 Instruction ID: 250000047

ChampSim completed all CPUs

Region of Interest Statistics

CPU 0 cumulative IPC: 0.23241 instructions: 200000003 cycles: 860547207
ITLB SPEC fills:          0  NON-SPEC fills:          0
ITLB Test counter :          0
ITLB Leapfrog:          0
ITLB MSHR merge:          0
ITLB TOTAL     ACCESS:   31038796  HIT:   31038796  MISS:          0  HIT %:        100  MISS %:          0   MPKI: 0
ITLB LOAD TRANSLATION NON_SPEC    ACCESS:   31038796  HIT:   31038796  MISS:          0  HIT %:        100  MISS %:          0   MPKI: 0
ITLB PREFETCH  REQUESTED:          0  ISSUED:          0  USEFUL:          0  USELESS:          0
ITLB USEFUL LOAD PREFETCHES:          0 PREFETCH ISSUED TO LOWER LEVEL:          0  ACCURACY: -nan
ITLB TIMELY PREFETCHES:          0 LATE PREFETCHES: 0 DROPPED PREFETCHES: 0
ITLB COMMIT LATE PREFETCHES: 0 MISSED OPPORTUNITY: 0 LATE IN PQ: 0 UNCOVERED: 0
ITLB COMMIT LATE MSHR PREFETCHES: 0
ITLB MPKI TOTAL: 0 MSHR LATE: 0 PQ LATE: 0 COMMIT LATE: 0 MISSED OPPORTUNITY: 0 UNCOVERED: 0
ITLB PREFETCHES SAME FILL-ORIGIN LEVEL: 0 DIFFERENT FILL-ORIGIN LEVEL: 0
ITLB AVERAGE MISS LATENCY: -nan cycles
ITLB AVERAGE MISS LATENCY LOAD: -nan cycles
ITLB AVERAGE MISS LATENCY PREFETCH: -nan cycles
ITLB AVERAGE MSHR OCCUPANCY: 0
ITLB MSHR FULL: 0
ITLB RQ	ACCESS:   31615479	FORWARD:          0	MERGED:     576684	TO_CACHE:   31038795

DTLB SPEC fills:          0  NON-SPEC fills:          0
DTLB Test counter :          0
DTLB Leapfrog:          0
DTLB MSHR merge:          0
DTLB TOTAL     ACCESS:   49224277  HIT:   39183258  MISS:   10041019  HIT %:    79.6015  MISS %:    20.3985   MPKI: 50.2051
DTLB LOAD TRANSLATION NON_SPEC    ACCESS:   49224277  HIT:   39183258  MISS:   10041019  HIT %:    79.6015  MISS %:    20.3985   MPKI: 50.2051
DTLB PREFETCH  REQUESTED:          0  ISSUED:          0  USEFUL:          0  USELESS:          0
DTLB USEFUL LOAD PREFETCHES:          0 PREFETCH ISSUED TO LOWER LEVEL:          0  ACCURACY: -nan
DTLB TIMELY PREFETCHES:          0 LATE PREFETCHES: 0 DROPPED PREFETCHES: 0
DTLB COMMIT LATE PREFETCHES: 0 MISSED OPPORTUNITY: 0 LATE IN PQ: 0 UNCOVERED: 0
DTLB COMMIT LATE MSHR PREFETCHES: 0
DTLB MPKI TOTAL: 0 MSHR LATE: 0 PQ LATE: 0 COMMIT LATE: 0 MISSED OPPORTUNITY: 0 UNCOVERED: 0
DTLB PREFETCHES SAME FILL-ORIGIN LEVEL: 0 DIFFERENT FILL-ORIGIN LEVEL: 0
DTLB AVERAGE MISS LATENCY: 9.44081 cycles
DTLB AVERAGE MISS LATENCY LOAD: -nan cycles
DTLB AVERAGE MISS LATENCY PREFETCH: -nan cycles
DTLB AVERAGE MSHR OCCUPANCY: 0.322182
DTLB MSHR FULL: 0.00230461
DTLB RQ	ACCESS:   51109657	FORWARD:          0	MERGED:    1582345	TO_CACHE:   49527312

STLB SPEC fills:          0  NON-SPEC fills:          0
STLB Test counter :          0
STLB Leapfrog:          0
STLB MSHR merge:          0
STLB TOTAL     ACCESS:   11271358  HIT:   11256338  MISS:      15020  HIT %:    99.8667  MISS %:   0.133258   MPKI: 0.0751
STLB LOAD TRANSLATION NON_SPEC    ACCESS:   10041019  HIT:   10025999  MISS:      15020  HIT %:    99.8504  MISS %:   0.149586   MPKI: 0.0751
STLB TRANSLATION FROM L1D PREFETCHER NON_SPEC    ACCESS:    1230339  HIT:    1230339  MISS:          0  HIT %:        100  MISS %:          0   MPKI: 0
STLB PREFETCH  REQUESTED:          0  ISSUED:          0  USEFUL:          0  USELESS:          0
STLB USEFUL LOAD PREFETCHES:          0 PREFETCH ISSUED TO LOWER LEVEL:          0  ACCURACY: -nan
STLB TIMELY PREFETCHES:          0 LATE PREFETCHES: 0 DROPPED PREFETCHES: 0
STLB COMMIT LATE PREFETCHES: 0 MISSED OPPORTUNITY: 0 LATE IN PQ: 0 UNCOVERED: 0
STLB COMMIT LATE MSHR PREFETCHES: 0
STLB MPKI TOTAL: 0 MSHR LATE: 0 PQ LATE: 0 COMMIT LATE: 0 MISSED OPPORTUNITY: 0 UNCOVERED: 0
STLB PREFETCHES SAME FILL-ORIGIN LEVEL: 0 DIFFERENT FILL-ORIGIN LEVEL: 0
STLB AVERAGE MISS LATENCY: 187.433 cycles
STLB AVERAGE MISS LATENCY LOAD: -nan cycles
STLB AVERAGE MISS LATENCY PREFETCH: -nan cycles
STLB AVERAGE MSHR OCCUPANCY: 0.000968384
STLB MSHR FULL: 0
STLB RQ	ACCESS:   13634174	FORWARD:          0	MERGED:    2362816	TO_CACHE:   11271358

STLB Hit, L1D data hit: 0
STLB Hit, L2C data hit: 0
STLB Hit, LLC data hit: 0
STLB Hit, LLC data miss: 0
STLB STLB hints to L2: 0
L0D SPEC fills:   24875334  NON-SPEC fills:          0
L0D TimeGuard Request with older TS:     535973 Restricted eviction:     197333 read:     542151
L0D Test counter :          0
L0D Leapfrog:          0
L0D MSHR merge:     725125
L0D TOTAL     ACCESS:   50137491  HIT:   13034583  MISS:   37102908  HIT %:    25.9977  MISS %:    74.0023   MPKI: 185.515
L0D LOAD      TOTAL       ACCESS:   50137491  HIT:   13034583  MISS:   37102908  HIT %:    25.9977  MISS %:    74.0023   MPKI: 185.515
L0D LOAD      NON_SPEC    ACCESS:   13045972  HIT:    1015731  MISS:   12030241  HIT %:    7.78578  MISS %:    92.2142   MPKI: 60.1512
L0D LOAD      SPEC        ACCESS:   37091519  HIT:   12018852  MISS:   25072667  HIT %:    32.4032  MISS %:    67.5968   MPKI: 125.363
L0D PREFETCH  REQUESTED:          0  ISSUED:          0  USEFUL:          0  USELESS:          0
L0D USEFUL LOAD PREFETCHES:          0 PREFETCH ISSUED TO LOWER LEVEL:          0  ACCURACY: -nan
L0D TIMELY PREFETCHES:          0 LATE PREFETCHES: 0 DROPPED PREFETCHES: 0
L0D COMMIT LATE PREFETCHES: 0 MISSED OPPORTUNITY: 0 LATE IN PQ: 0 UNCOVERED: 0
L0D COMMIT LATE MSHR PREFETCHES: 0
L0D MPKI TOTAL: 189.14 MSHR LATE: 0 PQ LATE: 0 COMMIT LATE: 0 MISSED OPPORTUNITY: 0 UNCOVERED: 0
L0D PREFETCHES SAME FILL-ORIGIN LEVEL: 0 DIFFERENT FILL-ORIGIN LEVEL: 0
L0D AVERAGE MISS LATENCY: 30.5255 cycles
L0D AVERAGE MISS LATENCY LOAD: 30.5255 cycles
L0D AVERAGE MISS LATENCY PREFETCH: -nan cycles
L0D AVERAGE MSHR OCCUPANCY: 1.69823
L0D MSHR FULL: 0.0290344
L0D RQ	ACCESS:   55706385	FORWARD:          0	MERGED:    4843773	TO_CACHE:   50862612
L0D WQ	ACCESS:     247045	FORWARD:          0	MERGED:          0	TO_CACHE:     247045

L1D SPEC fills:          0  NON-SPEC fills:    4146998
L1D Test counter :          0
L1D Leapfrog:          0
L1D MSHR merge:      17292
L1D TOTAL     ACCESS:   51297628  HIT:   25233114  MISS:   26064514  HIT %:    49.1896  MISS %:    50.8104   MPKI: 130.323
L1D LOAD      TOTAL       ACCESS:   37102328  HIT:   22695357  MISS:   14406971  HIT %:    61.1696  MISS %:    38.8304   MPKI: 72.0349
L1D LOAD      NON_SPEC    ACCESS:   12029808  HIT:    7882810  MISS:    4146998  HIT %:    65.5273  MISS %:    34.4727   MPKI: 20.735
L1D LOAD      SPEC        ACCESS:   25072520  HIT:   14812547  MISS:   10259973  HIT %:    59.0788  MISS %:    40.9212   MPKI: 51.2999
L1D RFO       NON_SPEC    ACCESS:     246118  HIT:     246110  MISS:          8  HIT %:    99.9967  MISS %: 0.00325047   MPKI: 4e-05
L1D PREFETCH  NON_SPEC    ACCESS:    3495182  HIT:    2087351  MISS:    1407831  HIT %:    59.7208  MISS %:    40.2792   MPKI: 7.03915
L1D COMMIT LOAD NON_SPEC    ACCESS:     380339  HIT:     187535  MISS:     192804  HIT %:    49.3073  MISS %:    50.6927   MPKI: 0.96402
L1D COMMIT WRITE NON_SPEC    ACCESS:   10073661  HIT:      16761  MISS:   10056900  HIT %:   0.166384  MISS %:    99.8336   MPKI: 50.2845
L1D PREFETCH  REQUESTED:    3617356  ISSUED:    3617356  USEFUL:     983271  USELESS:     424552
L1D USEFUL LOAD PREFETCHES:     983271 PREFETCH ISSUED TO LOWER LEVEL:    1429814  ACCURACY: 68.7692
L1D TIMELY PREFETCHES:     983271 LATE PREFETCHES: 16953 DROPPED PREFETCHES: 0
L1D COMMIT LATE PREFETCHES: 0 MISSED OPPORTUNITY: 0 LATE IN PQ: 0 UNCOVERED: 0
L1D COMMIT LATE MSHR PREFETCHES: 0
L1D MPKI TOTAL: 72.0378 MSHR LATE: 0.084765 PQ LATE: 0 COMMIT LATE: 0 MISSED OPPORTUNITY: 0 UNCOVERED: 0
L1D PREFETCHES SAME FILL-ORIGIN LEVEL: 1424784 DIFFERENT FILL-ORIGIN LEVEL: 5030
L1D AVERAGE MISS LATENCY: 46.8303 cycles
L1D AVERAGE MISS LATENCY LOAD: 65.549 cycles
L1D AVERAGE MISS LATENCY PREFETCH: 190.76 cycles
L1D AVERAGE MSHR OCCUPANCY: 1.47126
L1D MSHR FULL: 2.77447e-06
L1D RQ	ACCESS:   37516371	FORWARD:          0	MERGED:      26582	TO_CACHE:   37484485
L1D WQ	ACCESS:   10321817	FORWARD:       5304	MERGED:       1111	TO_CACHE:   10320706
L1D PQ	ACCESS:    3617356	FORWARD:          0	MERGED:      24201	TO_CACHE:    3593155

L1D UNIQUE REGIONS ACCESSED: 0
L1D REGIONS CONFLICTS: 0
L1D Cross Page Prefetch Requests: 0
L1D Same Page Prefetch Requests: 4637074
L1D ROI Sum of L1D PQ occupancy: 51588035
L1D PREFETCHES PUSHED FROM L2C: 0
L1I SPEC fills:          0  NON-SPEC fills:          0
L1I Test counter :          0
L1I Leapfrog:          0
L1I MSHR merge:          0
L1I TOTAL     ACCESS:   31615480  HIT:   31615480  MISS:          0  HIT %:        100  MISS %:          0   MPKI: 0
L1I LOAD      TOTAL       ACCESS:   31615480  HIT:   31615480  MISS:          0  HIT %:        100  MISS %:          0   MPKI: 0
L1I LOAD      NON_SPEC    ACCESS:   31615480  HIT:   31615480  MISS:          0  HIT %:        100  MISS %:          0   MPKI: 0
L1I PREFETCH  REQUESTED:          0  ISSUED:          0  USEFUL:          0  USELESS:          0
L1I USEFUL LOAD PREFETCHES:          0 PREFETCH ISSUED TO LOWER LEVEL:          0  ACCURACY: -nan
L1I TIMELY PREFETCHES:          0 LATE PREFETCHES: 0 DROPPED PREFETCHES: 0
L1I COMMIT LATE PREFETCHES: 0 MISSED OPPORTUNITY: 0 LATE IN PQ: 0 UNCOVERED: 0
L1I COMMIT LATE MSHR PREFETCHES: 0
L1I MPKI TOTAL: 0 MSHR LATE: 0 PQ LATE: 0 COMMIT LATE: 0 MISSED OPPORTUNITY: 0 UNCOVERED: 0
L1I PREFETCHES SAME FILL-ORIGIN LEVEL: 0 DIFFERENT FILL-ORIGIN LEVEL: 0
L1I AVERAGE MISS LATENCY: -nan cycles
L1I AVERAGE MISS LATENCY LOAD: -nan cycles
L1I AVERAGE MISS LATENCY PREFETCH: -nan cycles
L1I AVERAGE MSHR OCCUPANCY: 0
L1I MSHR FULL: 0
L1I RQ	ACCESS:   56813111	FORWARD:          0	MERGED:   25197632	TO_CACHE:   31615479

BTB SPEC fills:          0  NON-SPEC fills:          0
BTB Test counter :          0
BTB Leapfrog:          0
BTB MSHR merge:          0
BTB TOTAL     ACCESS:   40650073  HIT:   40650068  MISS:          5  HIT %:        100  MISS %: 1.23001e-05   MPKI: 2.5e-05
BTB BRANCH_DIRECT_JUMP	ACCESS:          0  HIT:          0  MISS:          0
BTB BRANCH_INDIRECT	ACCESS:          0  HIT:          0  MISS:          0
BTB BRANCH_CONDITIONAL	ACCESS:   40650073  HIT:   40650068  MISS:          5
BTB BRANCH_DIRECT_CALL	ACCESS:          0  HIT:          0  MISS:          0
BTB BRANCH_INDIRECT_CALL	ACCESS:          0  HIT:          0  MISS:          0
BTB BRANCH_RETURN	ACCESS:          0  HIT:          0  MISS:          0
BTB BRANCH_OTHER ACCESS:          0  HIT:          0  MISS:          0

L2C SPEC fills:          0  NON-SPEC fills:    2755048
L2C Test counter :          0
L2C Leapfrog:          0
L2C MSHR merge:         42
L2C TOTAL     ACCESS:   23205127  HIT:    4836189  MISS:   18368938  HIT %:     20.841  MISS %:     79.159   MPKI: 91.8447
L2C LOAD      TOTAL       ACCESS:   14390048  HIT:    4497741  MISS:    9892307  HIT %:    31.2559  MISS %:    68.7441   MPKI: 49.4615
L2C LOAD      NON_SPEC    ACCESS:    4138605  HIT:    1383557  MISS:    2755048  HIT %:    33.4305  MISS %:    66.5695   MPKI: 13.7752
L2C LOAD      SPEC        ACCESS:   10251443  HIT:    3114184  MISS:    7137259  HIT %:     30.378  MISS %:     69.622   MPKI: 35.6863
L2C RFO       NON_SPEC    ACCESS:          8  HIT:          8  MISS:          0  HIT %:        100  MISS %:          0   MPKI: 0
L2C PREFETCH  NON_SPEC    ACCESS:    1429361  HIT:      70578  MISS:    1358783  HIT %:    4.93773  MISS %:    95.0623   MPKI: 6.79391
L2C WRITEBACK NON_SPEC    ACCESS:      67305  HIT:      67294  MISS:         11  HIT %:    99.9837  MISS %:  0.0163435   MPKI: 5.5e-05
L2C CLEAN_EVICTION NON_SPEC    ACCESS:    7050771  HIT:      51099  MISS:    6999672  HIT %:   0.724729  MISS %:    99.2753   MPKI: 34.9984
L2C COMMIT LOAD NON_SPEC    ACCESS:     192564  HIT:      79264  MISS:     113300  HIT %:    41.1624  MISS %:    58.8376   MPKI: 0.5665
L2C LOAD TRANSLATION NON_SPEC    ACCESS:      75070  HIT:      70205  MISS:       4865  HIT %:    93.5194  MISS %:    6.48062   MPKI: 0.024325
L2C PREFETCH  REQUESTED:          0  ISSUED:          0  USEFUL:      35553  USELESS:    1323257
L2C USEFUL LOAD PREFETCHES:      35553 PREFETCH ISSUED TO LOWER LEVEL:    1358825  ACCURACY: 2.61645
L2C TIMELY PREFETCHES:      35553 LATE PREFETCHES: 42 DROPPED PREFETCHES: 0
L2C COMMIT LATE PREFETCHES: 0 MISSED OPPORTUNITY: 0 LATE IN PQ: 0 UNCOVERED: 0
L2C COMMIT LATE MSHR PREFETCHES: 0
L2C MPKI TOTAL: 49.4615 MSHR LATE: 0.00021 PQ LATE: 0 COMMIT LATE: 0 MISSED OPPORTUNITY: 0 UNCOVERED: 0
L2C PREFETCHES SAME FILL-ORIGIN LEVEL: 4660 DIFFERENT FILL-ORIGIN LEVEL: 0
L2C AVERAGE MISS LATENCY: 55.6001 cycles
L2C AVERAGE MISS LATENCY LOAD: 77.3711 cycles
L2C AVERAGE MISS LATENCY PREFETCH: 184.472 cycles
L2C AVERAGE MSHR OCCUPANCY: 1.59124
L2C MSHR FULL: 0
L2C RQ	ACCESS:   14657902	FORWARD:          0	MERGED:          0	TO_CACHE:   14657692
L2C WQ	ACCESS:    7118076	FORWARD:        210	MERGED:          0	TO_CACHE:    7118076
L2C PQ	ACCESS:    1429814	FORWARD:          0	MERGED:          0	TO_CACHE:    1429814

L2C Instructions Evicting Data 0
L2C Translations Evicting Data 4865
L2C Data Evicting Data 4225320
L2C Instructions Evicting Instructions 0
L2C Translations Evicting Instructions 0
L2C Data Evicting Instructions 0
L2C Instructions Evicting Translations 0
L2C Translations Evicting Translations 0
L2C Data Evicting Translations 1811
L2C Dense regions hint from L2: 0
PSCL5 SPEC fills:          0  NON-SPEC fills:          0
PSCL5 Test counter :          0
PSCL5 Leapfrog:          0
PSCL5 MSHR merge:          0
PSCL5 TOTAL     ACCESS:          0  HIT:          0  MISS:          0  HIT %:       -nan  MISS %:       -nan   MPKI: 0
PSCL5 PREFETCH  REQUESTED:          0  ISSUED:          0  USEFUL:          0  USELESS:          0
PSCL5 USEFUL LOAD PREFETCHES:          0 PREFETCH ISSUED TO LOWER LEVEL:          0  ACCURACY: -nan
PSCL5 TIMELY PREFETCHES:          0 LATE PREFETCHES: 0 DROPPED PREFETCHES: 0
PSCL5 COMMIT LATE PREFETCHES: 0 MISSED OPPORTUNITY: 0 LATE IN PQ: 0 UNCOVERED: 0
PSCL5 COMMIT LATE MSHR PREFETCHES: 0
PSCL5 MPKI TOTAL: 0 MSHR LATE: 0 PQ LATE: 0 COMMIT LATE: 0 MISSED OPPORTUNITY: 0 UNCOVERED: 0
PSCL5 PREFETCHES SAME FILL-ORIGIN LEVEL: 0 DIFFERENT FILL-ORIGIN LEVEL: 0

PSCL4 SPEC fills:          0  NON-SPEC fills:          0
PSCL4 Test counter :          0
PSCL4 Leapfrog:          0
PSCL4 MSHR merge:          0
PSCL4 TOTAL     ACCESS:          0  HIT:          0  MISS:          0  HIT %:       -nan  MISS %:       -nan   MPKI: 0
PSCL4 PREFETCH  REQUESTED:          0  ISSUED:          0  USEFUL:          0  USELESS:          0
PSCL4 USEFUL LOAD PREFETCHES:          0 PREFETCH ISSUED TO LOWER LEVEL:          0  ACCURACY: -nan
PSCL4 TIMELY PREFETCHES:          0 LATE PREFETCHES: 0 DROPPED PREFETCHES: 0
PSCL4 COMMIT LATE PREFETCHES: 0 MISSED OPPORTUNITY: 0 LATE IN PQ: 0 UNCOVERED: 0
PSCL4 COMMIT LATE MSHR PREFETCHES: 0
PSCL4 MPKI TOTAL: 0 MSHR LATE: 0 PQ LATE: 0 COMMIT LATE: 0 MISSED OPPORTUNITY: 0 UNCOVERED: 0
PSCL4 PREFETCHES SAME FILL-ORIGIN LEVEL: 0 DIFFERENT FILL-ORIGIN LEVEL: 0

PSCL3 SPEC fills:          0  NON-SPEC fills:          0
PSCL3 Test counter :          0
PSCL3 Leapfrog:          0
PSCL3 MSHR merge:          0
PSCL3 TOTAL     ACCESS:          0  HIT:          0  MISS:          0  HIT %:       -nan  MISS %:       -nan   MPKI: 0
PSCL3 PREFETCH  REQUESTED:          0  ISSUED:          0  USEFUL:          0  USELESS:          0
PSCL3 USEFUL LOAD PREFETCHES:          0 PREFETCH ISSUED TO LOWER LEVEL:          0  ACCURACY: -nan
PSCL3 TIMELY PREFETCHES:          0 LATE PREFETCHES: 0 DROPPED PREFETCHES: 0
PSCL3 COMMIT LATE PREFETCHES: 0 MISSED OPPORTUNITY: 0 LATE IN PQ: 0 UNCOVERED: 0
PSCL3 COMMIT LATE MSHR PREFETCHES: 0
PSCL3 MPKI TOTAL: 0 MSHR LATE: 0 PQ LATE: 0 COMMIT LATE: 0 MISSED OPPORTUNITY: 0 UNCOVERED: 0
PSCL3 PREFETCHES SAME FILL-ORIGIN LEVEL: 0 DIFFERENT FILL-ORIGIN LEVEL: 0

PSCL2 SPEC fills:          0  NON-SPEC fills:          0
PSCL2 Test counter :          0
PSCL2 Leapfrog:          0
PSCL2 MSHR merge:          0
PSCL2 TOTAL     ACCESS:          0  HIT:          0  MISS:          0  HIT %:       -nan  MISS %:       -nan   MPKI: 0
PSCL2 PREFETCH  REQUESTED:          0  ISSUED:          0  USEFUL:          0  USELESS:          0
PSCL2 USEFUL LOAD PREFETCHES:          0 PREFETCH ISSUED TO LOWER LEVEL:          0  ACCURACY: -nan
PSCL2 TIMELY PREFETCHES:          0 LATE PREFETCHES: 0 DROPPED PREFETCHES: 0
PSCL2 COMMIT LATE PREFETCHES: 0 MISSED OPPORTUNITY: 0 LATE IN PQ: 0 UNCOVERED: 0
PSCL2 COMMIT LATE MSHR PREFETCHES: 0
PSCL2 MPKI TOTAL: 0 MSHR LATE: 0 PQ LATE: 0 COMMIT LATE: 0 MISSED OPPORTUNITY: 0 UNCOVERED: 0
PSCL2 PREFETCHES SAME FILL-ORIGIN LEVEL: 0 DIFFERENT FILL-ORIGIN LEVEL: 0

LLC SPEC fills:          0  NON-SPEC fills:     920425
LLC Test counter :          0
LLC Leapfrog:          0
LLC MSHR merge:          0
LLC TOTAL     ACCESS:   18473587  HIT:   11057942  MISS:    7415645  HIT %:    59.8581  MISS %:    40.1419   MPKI: 37.0782
LLC LOAD      TOTAL       ACCESS:    9892191  HIT:    6520374  MISS:    3371817  HIT %:    65.9144  MISS %:    34.0856   MPKI: 16.8591
LLC LOAD      NON_SPEC    ACCESS:    2755037  HIT:    1834612  MISS:     920425  HIT %:    66.5912  MISS %:    33.4088   MPKI: 4.60212
LLC LOAD      SPEC        ACCESS:    7137154  HIT:    4685762  MISS:    2451392  HIT %:    65.6531  MISS %:    34.3469   MPKI: 12.257
LLC PREFETCH  NON_SPEC    ACCESS:    1358825  HIT:     158960  MISS:    1199865  HIT %:    11.6983  MISS %:    88.3017   MPKI: 5.99932
LLC WRITEBACK NON_SPEC    ACCESS:      62423  HIT:      62416  MISS:          7  HIT %:    99.9888  MISS %:  0.0112138   MPKI: 3.5e-05
LLC CLEAN_EVICTION NON_SPEC    ACCESS:    7042008  HIT:    4211248  MISS:    2830760  HIT %:    59.8018  MISS %:    40.1982   MPKI: 14.1538
LLC COMMIT LOAD NON_SPEC    ACCESS:     113275  HIT:     102009  MISS:      11266  HIT %:    90.0543  MISS %:    9.94571   MPKI: 0.05633
LLC LOAD TRANSLATION NON_SPEC    ACCESS:       4865  HIT:       2935  MISS:       1930  HIT %:    60.3289  MISS %:    39.6711   MPKI: 0.00965
LLC PREFETCH  REQUESTED:          0  ISSUED:          0  USEFUL:      61339  USELESS:    1137980
LLC USEFUL LOAD PREFETCHES:      61339 PREFETCH ISSUED TO LOWER LEVEL:    1199865  ACCURACY: 5.11216
LLC TIMELY PREFETCHES:      61339 LATE PREFETCHES: 0 DROPPED PREFETCHES: 0
LLC COMMIT LATE PREFETCHES: 0 MISSED OPPORTUNITY: 0 LATE IN PQ: 0 UNCOVERED: 0
LLC COMMIT LATE MSHR PREFETCHES: 0
LLC MPKI TOTAL: 16.8591 MSHR LATE: 0 PQ LATE: 0 COMMIT LATE: 0 MISSED OPPORTUNITY: 0 UNCOVERED: 0
LLC PREFETCHES SAME FILL-ORIGIN LEVEL: 0 DIFFERENT FILL-ORIGIN LEVEL: 0
LLC AVERAGE MISS LATENCY: 100.366 cycles
LLC AVERAGE MISS LATENCY LOAD: 157.983 cycles
LLC AVERAGE MISS LATENCY PREFETCH: 174.902 cycles
LLC AVERAGE MSHR OCCUPANCY: 0.927848
LLC MSHR FULL: 0
LLC RQ	ACCESS:   10010431	FORWARD:          0	MERGED:          0	TO_CACHE:   10010332
LLC WQ	ACCESS:    7104431	FORWARD:         99	MERGED:          0	TO_CACHE:    7104431
LLC PQ	ACCESS:    1358825	FORWARD:          0	MERGED:          0	TO_CACHE:    1358825

LLC Dense regions hint to LLC: 0

RAW hits: 26178
Loads Generated: 55732564
Loads sent to L1D: 55706385
Stores Generated: 247045
Stores sent to L1D: 247045
Major fault: 0 Minor fault: 19633
Allocated PAGES: 19633
Total Load insts: 68639310
Total Non-spec loads: 13587993
Percentage of speculative loads: 80.2038

LeapFrogging counter: 364491
Commit hits: 24445270 miss: 18011487
Commit hit %: 57.5769 miss %: 42.4231
Commits not translated: 0
Loads retired: 14406970
Stores retired: 247045
Cache fills: 14406971
L1D response latency: 65.549 cycles
Load retirement latency: 139.116 cycles
OOO test counter: 0
Discarded buffer inserts: 24445270 hits: 31778 hit %: 0.129997
Filter prediction accuracy: 99.77
Speculative prefetch buffer size: 0
CPU 0 L1D PC-based stride prefetcher final stats
Degree: 3

DRAM Statistics
 CHANNEL 0
 RQ ROW_BUFFER_HIT:     464981  ROW_BUFFER_MISS:    4119228
 DBUS_CONGESTED:       2460
 WQ ROW_BUFFER_HIT:    1075597  ROW_BUFFER_MISS:    2118240  FULL:          0

 AVG_CONGESTED_CYCLE: 5
 All warmup complete: 2
Channel 0 Bank busy for read cycles: 0
Channel 0 Bank busy for write cycles: 0
Channel 0
Rank 0
0banks busy for read cycles: 120855505
0banks busy for write cycles: 833536
1banks busy for read cycles: 284863375
1banks busy for write cycles: 140661946
2banks busy for read cycles: 99754748
2banks busy for write cycles: 82784151
3banks busy for read cycles: 32929823
3banks busy for write cycles: 37125325
4banks busy for read cycles: 9815822
4banks busy for write cycles: 16568982
5banks busy for read cycles: 2580031
5banks busy for write cycles: 8878767
6banks busy for read cycles: 729885
6banks busy for write cycles: 5998916
7banks busy for read cycles: 210105
7banks busy for write cycles: 6200777
8banks busy for read cycles: 41269
8banks busy for write cycles: 9714245

CPU 0 Branch Prediction Accuracy: 90.5062% MPKI: 19.3845 Average ROB Occupancy at Mispredict: 25.2801
Branch types
NOT_BRANCH: 159163481 79.5817%
BRANCH_DIRECT_JUMP: 0 0%
BRANCH_INDIRECT: 0 0%
BRANCH_CONDITIONAL: 40836226 20.4181%
BRANCH_DIRECT_CALL: 0 0%
BRANCH_INDIRECT_CALL: 0 0%
BRANCH_RETURN: 0 0%
BRANCH_OTHER: 0 0%

DRAM PAGES: 1048576
Allocated PAGES: 19633
