
*** ChampSim Multicore Out-of-Order Simulator ***

Warmup Instructions: 50000000
Simulation Instructions: 200000000
Number of CPUs: 1
LLC sets: 2048
LLC ways: 16
L0D sets: 16
L0D ways: 2
ROB size: 352
LQ size: 128
SQ size: 72
Secure Berti: OFF
Berti: OFF
Berti Fill: OFF
On commit prefetching: ON
Hit-based filter: ON
Time-guarding: ON
Free-slotting: ON
Leap-frogging: ON
Train prefetcher on L0D bypass: OFF
No translation penalty for prefetchers: OFF
Prefetch to L0D only: OFF
Prefetch to L1D only: OFF
Clean evictions: ON
Commit loads: ON
Commit write: ON
Fill commit loads to L2C, LLC: ON
DRAM IO FREQUENCY: 6400
ROB SIZE: 352
Off-chip DRAM Size: 4096 MB Channels: 1 Width: 64-bit Data Rate: 6400 MT/s
CPU 0 runs /home/sumon/secure_berti/GhostMinion/../../traces/gap/cc-5.trace.gz
.gz
BTB has LRU replacement policy
ITLB has LRU replacement policy
DTLB has LRU replacement policy
STLB has LRU replacement policy
L1I has LRU replacement policy
L0D has LRU replacement policy
CPU 0 L1D IP-based stride prefetcher
L1D has LRU replacement policy
L2C has LRU replacement policy
LLC has LRU replacement policy
Heartbeat CPU 0 instructions: 10000001 cycles: 3229402 heartbeat IPC: 3.09655 cumulative IPC: 3.09655 (Simulation time: 0 hr 0 min 52 sec) 
Heartbeat CPU 0 instructions: 20000001 cycles: 6449504 heartbeat IPC: 3.10549 cumulative IPC: 3.10101 (Simulation time: 0 hr 1 min 49 sec) 
Heartbeat CPU 0 instructions: 30000002 cycles: 9674932 heartbeat IPC: 3.10036 cumulative IPC: 3.1008 (Simulation time: 0 hr 2 min 46 sec) 
Heartbeat CPU 0 instructions: 40000001 cycles: 12897700 heartbeat IPC: 3.10292 cumulative IPC: 3.10133 (Simulation time: 0 hr 3 min 44 sec) 
Heartbeat CPU 0 instructions: 50000001 cycles: 16118917 heartbeat IPC: 3.10442 cumulative IPC: 3.10195 (Simulation time: 0 hr 4 min 41 sec) 

Warmup complete CPU 0 instructions: 50000001 cycles: 16118917 (Simulation time: 0 hr 4 min 41 sec) 

Heartbeat CPU 0 instructions: 60000001 cycles: 50693037 heartbeat IPC: 0.289234 cumulative IPC: 0.289234 (Simulation time: 0 hr 5 min 31 sec) 
Heartbeat CPU 0 instructions: 70000002 cycles: 84174633 heartbeat IPC: 0.298672 cumulative IPC: 0.293877 (Simulation time: 0 hr 6 min 19 sec) 
Heartbeat CPU 0 instructions: 80000000 cycles: 117772278 heartbeat IPC: 0.29764 cumulative IPC: 0.295121 (Simulation time: 0 hr 7 min 5 sec) 
Heartbeat CPU 0 instructions: 90000000 cycles: 151585187 heartbeat IPC: 0.295745 cumulative IPC: 0.295276 (Simulation time: 0 hr 7 min 50 sec) 
Heartbeat CPU 0 instructions: 100000000 cycles: 184807597 heartbeat IPC: 0.301002 cumulative IPC: 0.296404 (Simulation time: 0 hr 8 min 37 sec) 
Heartbeat CPU 0 instructions: 110000000 cycles: 217820794 heartbeat IPC: 0.302909 cumulative IPC: 0.297469 (Simulation time: 0 hr 9 min 23 sec) 
Heartbeat CPU 0 instructions: 120000000 cycles: 250917938 heartbeat IPC: 0.302141 cumulative IPC: 0.298127 (Simulation time: 0 hr 10 min 8 sec) 
Heartbeat CPU 0 instructions: 130000003 cycles: 282886163 heartbeat IPC: 0.312811 cumulative IPC: 0.299887 (Simulation time: 0 hr 10 min 53 sec) 
Heartbeat CPU 0 instructions: 140000001 cycles: 315560605 heartbeat IPC: 0.30605 cumulative IPC: 0.300559 (Simulation time: 0 hr 11 min 38 sec) 
Heartbeat CPU 0 instructions: 150000000 cycles: 347736842 heartbeat IPC: 0.310788 cumulative IPC: 0.301552 (Simulation time: 0 hr 12 min 22 sec) 
Heartbeat CPU 0 instructions: 160000000 cycles: 380433801 heartbeat IPC: 0.305839 cumulative IPC: 0.301937 (Simulation time: 0 hr 13 min 7 sec) 
Heartbeat CPU 0 instructions: 170000000 cycles: 413270353 heartbeat IPC: 0.304539 cumulative IPC: 0.302152 (Simulation time: 0 hr 13 min 51 sec) 
Heartbeat CPU 0 instructions: 180000001 cycles: 446065645 heartbeat IPC: 0.304922 cumulative IPC: 0.302363 (Simulation time: 0 hr 14 min 33 sec) 
Heartbeat CPU 0 instructions: 190000002 cycles: 478839507 heartbeat IPC: 0.305121 cumulative IPC: 0.302558 (Simulation time: 0 hr 15 min 16 sec) 
Heartbeat CPU 0 instructions: 200000000 cycles: 511085361 heartbeat IPC: 0.310117 cumulative IPC: 0.303051 (Simulation time: 0 hr 15 min 58 sec) 
Heartbeat CPU 0 instructions: 210000001 cycles: 543773887 heartbeat IPC: 0.305918 cumulative IPC: 0.303228 (Simulation time: 0 hr 16 min 41 sec) 
Heartbeat CPU 0 instructions: 220000000 cycles: 575805524 heartbeat IPC: 0.312191 cumulative IPC: 0.303741 (Simulation time: 0 hr 17 min 24 sec) 
Heartbeat CPU 0 instructions: 230000001 cycles: 607782678 heartbeat IPC: 0.312723 cumulative IPC: 0.304227 (Simulation time: 0 hr 18 min 6 sec) 
Heartbeat CPU 0 instructions: 240000003 cycles: 639381937 heartbeat IPC: 0.316463 cumulative IPC: 0.304847 (Simulation time: 0 hr 18 min 48 sec) 
Heartbeat CPU 0 instructions: 250000002 cycles: 670565005 heartbeat IPC: 0.320687 cumulative IPC: 0.305602 (Simulation time: 0 hr 19 min 30 sec) 
Finished CPU 0 instructions: 200000001 cycles: 654446088 cumulative IPC: 0.305602 (Simulation time: 0 hr 19 min 30 sec) 
 Instruction ID: 250000027

ChampSim completed all CPUs

Region of Interest Statistics

CPU 0 cumulative IPC: 0.305602 instructions: 200000001 cycles: 654446088
ITLB SPEC fills:          0  NON-SPEC fills:          0
ITLB Test counter :          0
ITLB Leapfrog:          0
ITLB MSHR merge:          0
ITLB TOTAL     ACCESS:   29803439  HIT:   29803439  MISS:          0  HIT %:        100  MISS %:          0   MPKI: 0
ITLB LOAD TRANSLATION NON_SPEC    ACCESS:   29803439  HIT:   29803439  MISS:          0  HIT %:        100  MISS %:          0   MPKI: 0
ITLB PREFETCH  REQUESTED:          0  ISSUED:          0  USEFUL:          0  USELESS:          0
ITLB USEFUL LOAD PREFETCHES:          0 PREFETCH ISSUED TO LOWER LEVEL:          0  ACCURACY: -nan
ITLB TIMELY PREFETCHES:          0 LATE PREFETCHES: 0 DROPPED PREFETCHES: 0
ITLB COMMIT LATE PREFETCHES: 0 MISSED OPPORTUNITY: 0 LATE IN PQ: 0 UNCOVERED: 0
ITLB COMMIT LATE MSHR PREFETCHES: 0
ITLB MPKI TOTAL: 0 MSHR LATE: 0 PQ LATE: 0 COMMIT LATE: 0 MISSED OPPORTUNITY: 0 UNCOVERED: 0
ITLB PREFETCHES SAME FILL-ORIGIN LEVEL: 0 DIFFERENT FILL-ORIGIN LEVEL: 0
ITLB AVERAGE MISS LATENCY: -nan cycles
ITLB AVERAGE MISS LATENCY LOAD: -nan cycles
ITLB AVERAGE MISS LATENCY PREFETCH: -nan cycles
ITLB AVERAGE MSHR OCCUPANCY: 0
ITLB MSHR FULL: 0
ITLB RQ	ACCESS:   30409512	FORWARD:          0	MERGED:     606073	TO_CACHE:   29803439

DTLB SPEC fills:          0  NON-SPEC fills:          0
DTLB Test counter :          0
DTLB Leapfrog:          0
DTLB MSHR merge:          0
DTLB TOTAL     ACCESS:   46058518  HIT:   36579758  MISS:    9478760  HIT %:    79.4202  MISS %:    20.5798   MPKI: 47.3938
DTLB LOAD TRANSLATION NON_SPEC    ACCESS:   46058518  HIT:   36579758  MISS:    9478760  HIT %:    79.4202  MISS %:    20.5798   MPKI: 47.3938
DTLB PREFETCH  REQUESTED:          0  ISSUED:          0  USEFUL:          0  USELESS:          0
DTLB USEFUL LOAD PREFETCHES:          0 PREFETCH ISSUED TO LOWER LEVEL:          0  ACCURACY: -nan
DTLB TIMELY PREFETCHES:          0 LATE PREFETCHES: 0 DROPPED PREFETCHES: 0
DTLB COMMIT LATE PREFETCHES: 0 MISSED OPPORTUNITY: 0 LATE IN PQ: 0 UNCOVERED: 0
DTLB COMMIT LATE MSHR PREFETCHES: 0
DTLB MPKI TOTAL: 0 MSHR LATE: 0 PQ LATE: 0 COMMIT LATE: 0 MISSED OPPORTUNITY: 0 UNCOVERED: 0
DTLB PREFETCHES SAME FILL-ORIGIN LEVEL: 0 DIFFERENT FILL-ORIGIN LEVEL: 0
DTLB AVERAGE MISS LATENCY: 9.524 cycles
DTLB AVERAGE MISS LATENCY LOAD: -nan cycles
DTLB AVERAGE MISS LATENCY PREFETCH: -nan cycles
DTLB AVERAGE MSHR OCCUPANCY: 0.411085
DTLB MSHR FULL: 0.00382419
DTLB RQ	ACCESS:   48346053	FORWARD:          0	MERGED:    1906415	TO_CACHE:   46439638

STLB SPEC fills:          0  NON-SPEC fills:          0
STLB Test counter :          0
STLB Leapfrog:          0
STLB MSHR merge:          0
STLB TOTAL     ACCESS:   10667275  HIT:   10653006  MISS:      14269  HIT %:    99.8662  MISS %:   0.133764   MPKI: 0.071345
STLB LOAD TRANSLATION NON_SPEC    ACCESS:    9478760  HIT:    9464491  MISS:      14269  HIT %:    99.8495  MISS %:   0.150537   MPKI: 0.071345
STLB TRANSLATION FROM L1D PREFETCHER NON_SPEC    ACCESS:    1188515  HIT:    1188515  MISS:          0  HIT %:        100  MISS %:          0   MPKI: 0
STLB PREFETCH  REQUESTED:          0  ISSUED:          0  USEFUL:          0  USELESS:          0
STLB USEFUL LOAD PREFETCHES:          0 PREFETCH ISSUED TO LOWER LEVEL:          0  ACCURACY: -nan
STLB TIMELY PREFETCHES:          0 LATE PREFETCHES: 0 DROPPED PREFETCHES: 0
STLB COMMIT LATE PREFETCHES: 0 MISSED OPPORTUNITY: 0 LATE IN PQ: 0 UNCOVERED: 0
STLB COMMIT LATE MSHR PREFETCHES: 0
STLB MPKI TOTAL: 0 MSHR LATE: 0 PQ LATE: 0 COMMIT LATE: 0 MISSED OPPORTUNITY: 0 UNCOVERED: 0
STLB PREFETCHES SAME FILL-ORIGIN LEVEL: 0 DIFFERENT FILL-ORIGIN LEVEL: 0
STLB AVERAGE MISS LATENCY: 187.83 cycles
STLB AVERAGE MISS LATENCY LOAD: -nan cycles
STLB AVERAGE MISS LATENCY PREFETCH: -nan cycles
STLB AVERAGE MSHR OCCUPANCY: 0.00125055
STLB MSHR FULL: 0
STLB RQ	ACCESS:   12938779	FORWARD:          0	MERGED:    2271504	TO_CACHE:   10667275

STLB Hit, L1D data hit: 0
STLB Hit, L2C data hit: 0
STLB Hit, LLC data hit: 0
STLB Hit, LLC data miss: 0
STLB STLB hints to L2: 0
L0D SPEC fills:   24863990  NON-SPEC fills:          0
L0D TimeGuard Request with older TS:     737981 Restricted eviction:     328485 read:     637141
L0D Test counter :          0
L0D Leapfrog:          0
L0D MSHR merge:     983322
L0D TOTAL     ACCESS:   47114456  HIT:   13314965  MISS:   33799491  HIT %:    28.2609  MISS %:    71.7391   MPKI: 168.997
L0D LOAD      TOTAL       ACCESS:   47114456  HIT:   13314965  MISS:   33799491  HIT %:    28.2609  MISS %:    71.7391   MPKI: 168.997
L0D LOAD      NON_SPEC    ACCESS:    9507503  HIT:     900487  MISS:    8607016  HIT %:    9.47133  MISS %:    90.5287   MPKI: 43.0351
L0D LOAD      SPEC        ACCESS:   37606953  HIT:   12414478  MISS:   25192475  HIT %:    33.0111  MISS %:    66.9889   MPKI: 125.962
L0D PREFETCH  REQUESTED:          0  ISSUED:          0  USEFUL:          0  USELESS:          0
L0D USEFUL LOAD PREFETCHES:          0 PREFETCH ISSUED TO LOWER LEVEL:          0  ACCURACY: -nan
L0D TIMELY PREFETCHES:          0 LATE PREFETCHES: 0 DROPPED PREFETCHES: 0
L0D COMMIT LATE PREFETCHES: 0 MISSED OPPORTUNITY: 0 LATE IN PQ: 0 UNCOVERED: 0
L0D COMMIT LATE MSHR PREFETCHES: 0
L0D MPKI TOTAL: 173.914 MSHR LATE: 0 PQ LATE: 0 COMMIT LATE: 0 MISSED OPPORTUNITY: 0 UNCOVERED: 0
L0D PREFETCHES SAME FILL-ORIGIN LEVEL: 0 DIFFERENT FILL-ORIGIN LEVEL: 0
L0D AVERAGE MISS LATENCY: 31.57 cycles
L0D AVERAGE MISS LATENCY LOAD: 31.57 cycles
L0D AVERAGE MISS LATENCY PREFETCH: -nan cycles
L0D AVERAGE MSHR OCCUPANCY: 2.24285
L0D MSHR FULL: 0.0480903
L0D RQ	ACCESS:   54337449	FORWARD:          0	MERGED:    6239678	TO_CACHE:   48097771
L0D WQ	ACCESS:     248282	FORWARD:          0	MERGED:          0	TO_CACHE:     248282

L1D SPEC fills:          0  NON-SPEC fills:    2692832
L1D Test counter :          0
L1D Leapfrog:          0
L1D MSHR merge:      17965
L1D TOTAL     ACCESS:   48783851  HIT:   22410238  MISS:   26373613  HIT %:    45.9378  MISS %:    54.0622   MPKI: 131.868
L1D LOAD      TOTAL       ACCESS:   33798713  HIT:   19941858  MISS:   13856855  HIT %:    59.0018  MISS %:    40.9982   MPKI: 69.2843
L1D LOAD      NON_SPEC    ACCESS:    8606451  HIT:    5913619  MISS:    2692832  HIT %:    68.7115  MISS %:    31.2885   MPKI: 13.4642
L1D LOAD      SPEC        ACCESS:   25192262  HIT:   14028239  MISS:   11164023  HIT %:    55.6847  MISS %:    44.3153   MPKI: 55.8201
L1D RFO       NON_SPEC    ACCESS:     246805  HIT:     246804  MISS:          1  HIT %:    99.9996  MISS %: 0.000405178   MPKI: 5e-06
L1D PREFETCH  NON_SPEC    ACCESS:    3357489  HIT:    1992003  MISS:    1365486  HIT %:    59.3301  MISS %:    40.6699   MPKI: 6.82743
L1D COMMIT LOAD NON_SPEC    ACCESS:     488593  HIT:     208490  MISS:     280103  HIT %:    42.6715  MISS %:    57.3285   MPKI: 1.40051
L1D COMMIT WRITE NON_SPEC    ACCESS:   10892251  HIT:      21083  MISS:   10871168  HIT %:    0.19356  MISS %:    99.8064   MPKI: 54.3558
L1D PREFETCH  REQUESTED:    3486552  ISSUED:    3486552  USEFUL:     934495  USELESS:     430989
L1D USEFUL LOAD PREFETCHES:     934495 PREFETCH ISSUED TO LOWER LEVEL:    1388579  ACCURACY: 67.2987
L1D TIMELY PREFETCHES:     934495 LATE PREFETCHES: 17522 DROPPED PREFETCHES: 0
L1D COMMIT LATE PREFETCHES: 0 MISSED OPPORTUNITY: 0 LATE IN PQ: 0 UNCOVERED: 0
L1D COMMIT LATE MSHR PREFETCHES: 0
L1D MPKI TOTAL: 69.2882 MSHR LATE: 0.08761 PQ LATE: 0 COMMIT LATE: 0 MISSED OPPORTUNITY: 0 UNCOVERED: 0
L1D PREFETCHES SAME FILL-ORIGIN LEVEL: 1383009 DIFFERENT FILL-ORIGIN LEVEL: 5570
L1D AVERAGE MISS LATENCY: 44.2481 cycles
L1D AVERAGE MISS LATENCY LOAD: 64.5174 cycles
L1D AVERAGE MISS LATENCY PREFETCH: 191.658 cycles
L1D AVERAGE MSHR OCCUPANCY: 1.98395
L1D MSHR FULL: 1.57481e-06
L1D RQ	ACCESS:   34330979	FORWARD:          0	MERGED:      34314	TO_CACHE:   34289848
L1D WQ	ACCESS:   11141955	FORWARD:       6817	MERGED:       1420	TO_CACHE:   11140535
L1D PQ	ACCESS:    3486552	FORWARD:          0	MERGED:      26533	TO_CACHE:    3460019

L1D UNIQUE REGIONS ACCESSED: 0
L1D REGIONS CONFLICTS: 0
L1D Cross Page Prefetch Requests: 0
L1D Same Page Prefetch Requests: 4474444
L1D ROI Sum of L1D PQ occupancy: 49700461
L1D PREFETCHES PUSHED FROM L2C: 0
L1I SPEC fills:          0  NON-SPEC fills:          0
L1I Test counter :          0
L1I Leapfrog:          0
L1I MSHR merge:          0
L1I TOTAL     ACCESS:   30409512  HIT:   30409512  MISS:          0  HIT %:        100  MISS %:          0   MPKI: 0
L1I LOAD      TOTAL       ACCESS:   30409512  HIT:   30409512  MISS:          0  HIT %:        100  MISS %:          0   MPKI: 0
L1I LOAD      NON_SPEC    ACCESS:   30409512  HIT:   30409512  MISS:          0  HIT %:        100  MISS %:          0   MPKI: 0
L1I PREFETCH  REQUESTED:          0  ISSUED:          0  USEFUL:          0  USELESS:          0
L1I USEFUL LOAD PREFETCHES:          0 PREFETCH ISSUED TO LOWER LEVEL:          0  ACCURACY: -nan
L1I TIMELY PREFETCHES:          0 LATE PREFETCHES: 0 DROPPED PREFETCHES: 0
L1I COMMIT LATE PREFETCHES: 0 MISSED OPPORTUNITY: 0 LATE IN PQ: 0 UNCOVERED: 0
L1I COMMIT LATE MSHR PREFETCHES: 0
L1I MPKI TOTAL: 0 MSHR LATE: 0 PQ LATE: 0 COMMIT LATE: 0 MISSED OPPORTUNITY: 0 UNCOVERED: 0
L1I PREFETCHES SAME FILL-ORIGIN LEVEL: 0 DIFFERENT FILL-ORIGIN LEVEL: 0
L1I AVERAGE MISS LATENCY: -nan cycles
L1I AVERAGE MISS LATENCY LOAD: -nan cycles
L1I AVERAGE MISS LATENCY PREFETCH: -nan cycles
L1I AVERAGE MSHR OCCUPANCY: 0
L1I MSHR FULL: 0
L1I RQ	ACCESS:   55240143	FORWARD:          0	MERGED:   24830631	TO_CACHE:   30409512

BTB SPEC fills:          0  NON-SPEC fills:          0
BTB Test counter :          0
BTB Leapfrog:          0
BTB MSHR merge:          0
BTB TOTAL     ACCESS:   40039424  HIT:   40039419  MISS:          5  HIT %:        100  MISS %: 1.24877e-05   MPKI: 2.5e-05
BTB BRANCH_DIRECT_JUMP	ACCESS:          0  HIT:          0  MISS:          0
BTB BRANCH_INDIRECT	ACCESS:          0  HIT:          0  MISS:          0
BTB BRANCH_CONDITIONAL	ACCESS:   40039424  HIT:   40039419  MISS:          5
BTB BRANCH_DIRECT_CALL	ACCESS:          0  HIT:          0  MISS:          0
BTB BRANCH_INDIRECT_CALL	ACCESS:          0  HIT:          0  MISS:          0
BTB BRANCH_RETURN	ACCESS:          0  HIT:          0  MISS:          0
BTB BRANCH_OTHER ACCESS:          0  HIT:          0  MISS:          0

L2C SPEC fills:          0  NON-SPEC fills:    1731420
L2C Test counter :          0
L2C Leapfrog:          0
L2C MSHR merge:         21
L2C TOTAL     ACCESS:   23229060  HIT:    4732055  MISS:   18497005  HIT %:    20.3713  MISS %:    79.6287   MPKI: 92.485
L2C LOAD      TOTAL       ACCESS:   13839366  HIT:    4372011  MISS:    9467355  HIT %:    31.5911  MISS %:    68.4089   MPKI: 47.3368
L2C LOAD      NON_SPEC    ACCESS:    2684985  HIT:     953565  MISS:    1731420  HIT %:    35.5147  MISS %:    64.4853   MPKI: 8.6571
L2C LOAD      SPEC        ACCESS:   11154381  HIT:    3418446  MISS:    7735935  HIT %:    30.6467  MISS %:    69.3533   MPKI: 38.6797
L2C RFO       NON_SPEC    ACCESS:          1  HIT:          1  MISS:          0  HIT %:        100  MISS %:          0   MPKI: 0
L2C PREFETCH  NON_SPEC    ACCESS:    1388195  HIT:      72424  MISS:    1315771  HIT %:    5.21713  MISS %:    94.7829   MPKI: 6.57885
L2C WRITEBACK NON_SPEC    ACCESS:      51171  HIT:      51163  MISS:          8  HIT %:    99.9844  MISS %:  0.0156339   MPKI: 4e-05
L2C CLEAN_EVICTION NON_SPEC    ACCESS:    7599241  HIT:      55613  MISS:    7543628  HIT %:   0.731823  MISS %:    99.2682   MPKI: 37.7181
L2C COMMIT LOAD NON_SPEC    ACCESS:     279768  HIT:     114252  MISS:     165516  HIT %:    40.8381  MISS %:    59.1619   MPKI: 0.82758
L2C LOAD TRANSLATION NON_SPEC    ACCESS:      71318  HIT:      66591  MISS:       4727  HIT %:    93.3719  MISS %:    6.62806   MPKI: 0.023635
L2C PREFETCH  REQUESTED:          0  ISSUED:          0  USEFUL:      34238  USELESS:    1281131
L2C USEFUL LOAD PREFETCHES:      34238 PREFETCH ISSUED TO LOWER LEVEL:    1315793  ACCURACY: 2.60208
L2C TIMELY PREFETCHES:      34238 LATE PREFETCHES: 21 DROPPED PREFETCHES: 0
L2C COMMIT LATE PREFETCHES: 0 MISSED OPPORTUNITY: 0 LATE IN PQ: 0 UNCOVERED: 0
L2C COMMIT LATE MSHR PREFETCHES: 0
L2C MPKI TOTAL: 47.3368 MSHR LATE: 0.000105 PQ LATE: 0 COMMIT LATE: 0 MISSED OPPORTUNITY: 0 UNCOVERED: 0
L2C PREFETCHES SAME FILL-ORIGIN LEVEL: 5183 DIFFERENT FILL-ORIGIN LEVEL: 0
L2C AVERAGE MISS LATENCY: 52.9027 cycles
L2C AVERAGE MISS LATENCY LOAD: 76.7082 cycles
L2C AVERAGE MISS LATENCY PREFETCH: 186.047 cycles
L2C AVERAGE MSHR OCCUPANCY: 2.01291
L2C MSHR FULL: 0
L2C RQ	ACCESS:   14190754	FORWARD:          0	MERGED:          0	TO_CACHE:   14190452
L2C WQ	ACCESS:    7650416	FORWARD:        302	MERGED:          1	TO_CACHE:    7650415
L2C PQ	ACCESS:    1388579	FORWARD:          0	MERGED:          0	TO_CACHE:    1388579

L2C Instructions Evicting Data 0
L2C Translations Evicting Data 4727
L2C Data Evicting Data 3211373
L2C Instructions Evicting Instructions 0
L2C Translations Evicting Instructions 0
L2C Data Evicting Instructions 0
L2C Instructions Evicting Translations 0
L2C Translations Evicting Translations 0
L2C Data Evicting Translations 1334
L2C Dense regions hint from L2: 0
PSCL5 SPEC fills:          0  NON-SPEC fills:          0
PSCL5 Test counter :          0
PSCL5 Leapfrog:          0
PSCL5 MSHR merge:          0
PSCL5 TOTAL     ACCESS:          0  HIT:          0  MISS:          0  HIT %:       -nan  MISS %:       -nan   MPKI: 0
PSCL5 PREFETCH  REQUESTED:          0  ISSUED:          0  USEFUL:          0  USELESS:          0
PSCL5 USEFUL LOAD PREFETCHES:          0 PREFETCH ISSUED TO LOWER LEVEL:          0  ACCURACY: -nan
PSCL5 TIMELY PREFETCHES:          0 LATE PREFETCHES: 0 DROPPED PREFETCHES: 0
PSCL5 COMMIT LATE PREFETCHES: 0 MISSED OPPORTUNITY: 0 LATE IN PQ: 0 UNCOVERED: 0
PSCL5 COMMIT LATE MSHR PREFETCHES: 0
PSCL5 MPKI TOTAL: 0 MSHR LATE: 0 PQ LATE: 0 COMMIT LATE: 0 MISSED OPPORTUNITY: 0 UNCOVERED: 0
PSCL5 PREFETCHES SAME FILL-ORIGIN LEVEL: 0 DIFFERENT FILL-ORIGIN LEVEL: 0

PSCL4 SPEC fills:          0  NON-SPEC fills:          0
PSCL4 Test counter :          0
PSCL4 Leapfrog:          0
PSCL4 MSHR merge:          0
PSCL4 TOTAL     ACCESS:          0  HIT:          0  MISS:          0  HIT %:       -nan  MISS %:       -nan   MPKI: 0
PSCL4 PREFETCH  REQUESTED:          0  ISSUED:          0  USEFUL:          0  USELESS:          0
PSCL4 USEFUL LOAD PREFETCHES:          0 PREFETCH ISSUED TO LOWER LEVEL:          0  ACCURACY: -nan
PSCL4 TIMELY PREFETCHES:          0 LATE PREFETCHES: 0 DROPPED PREFETCHES: 0
PSCL4 COMMIT LATE PREFETCHES: 0 MISSED OPPORTUNITY: 0 LATE IN PQ: 0 UNCOVERED: 0
PSCL4 COMMIT LATE MSHR PREFETCHES: 0
PSCL4 MPKI TOTAL: 0 MSHR LATE: 0 PQ LATE: 0 COMMIT LATE: 0 MISSED OPPORTUNITY: 0 UNCOVERED: 0
PSCL4 PREFETCHES SAME FILL-ORIGIN LEVEL: 0 DIFFERENT FILL-ORIGIN LEVEL: 0

PSCL3 SPEC fills:          0  NON-SPEC fills:          0
PSCL3 Test counter :          0
PSCL3 Leapfrog:          0
PSCL3 MSHR merge:          0
PSCL3 TOTAL     ACCESS:          0  HIT:          0  MISS:          0  HIT %:       -nan  MISS %:       -nan   MPKI: 0
PSCL3 PREFETCH  REQUESTED:          0  ISSUED:          0  USEFUL:          0  USELESS:          0
PSCL3 USEFUL LOAD PREFETCHES:          0 PREFETCH ISSUED TO LOWER LEVEL:          0  ACCURACY: -nan
PSCL3 TIMELY PREFETCHES:          0 LATE PREFETCHES: 0 DROPPED PREFETCHES: 0
PSCL3 COMMIT LATE PREFETCHES: 0 MISSED OPPORTUNITY: 0 LATE IN PQ: 0 UNCOVERED: 0
PSCL3 COMMIT LATE MSHR PREFETCHES: 0
PSCL3 MPKI TOTAL: 0 MSHR LATE: 0 PQ LATE: 0 COMMIT LATE: 0 MISSED OPPORTUNITY: 0 UNCOVERED: 0
PSCL3 PREFETCHES SAME FILL-ORIGIN LEVEL: 0 DIFFERENT FILL-ORIGIN LEVEL: 0

PSCL2 SPEC fills:          0  NON-SPEC fills:          0
PSCL2 Test counter :          0
PSCL2 Leapfrog:          0
PSCL2 MSHR merge:          0
PSCL2 TOTAL     ACCESS:          0  HIT:          0  MISS:          0  HIT %:       -nan  MISS %:       -nan   MPKI: 0
PSCL2 PREFETCH  REQUESTED:          0  ISSUED:          0  USEFUL:          0  USELESS:          0
PSCL2 USEFUL LOAD PREFETCHES:          0 PREFETCH ISSUED TO LOWER LEVEL:          0  ACCURACY: -nan
PSCL2 TIMELY PREFETCHES:          0 LATE PREFETCHES: 0 DROPPED PREFETCHES: 0
PSCL2 COMMIT LATE PREFETCHES: 0 MISSED OPPORTUNITY: 0 LATE IN PQ: 0 UNCOVERED: 0
PSCL2 COMMIT LATE MSHR PREFETCHES: 0
PSCL2 MPKI TOTAL: 0 MSHR LATE: 0 PQ LATE: 0 COMMIT LATE: 0 MISSED OPPORTUNITY: 0 UNCOVERED: 0
PSCL2 PREFETCHES SAME FILL-ORIGIN LEVEL: 0 DIFFERENT FILL-ORIGIN LEVEL: 0

LLC SPEC fills:          0  NON-SPEC fills:     567907
LLC Test counter :          0
LLC Leapfrog:          0
LLC MSHR merge:          0
LLC TOTAL     ACCESS:   18587420  HIT:   11213723  MISS:    7373697  HIT %:    60.3296  MISS %:    39.6704   MPKI: 36.8685
LLC LOAD      TOTAL       ACCESS:    9467209  HIT:    6277869  MISS:    3189340  HIT %:    66.3117  MISS %:    33.6883   MPKI: 15.9467
LLC LOAD      NON_SPEC    ACCESS:    1731408  HIT:    1163501  MISS:     567907  HIT %:    67.1997  MISS %:    32.8003   MPKI: 2.83953
LLC LOAD      SPEC        ACCESS:    7735801  HIT:    5114368  MISS:    2621433  HIT %:     66.113  MISS %:     33.887   MPKI: 13.1072
LLC PREFETCH  NON_SPEC    ACCESS:    1315792  HIT:     160441  MISS:    1155351  HIT %:    12.1935  MISS %:    87.8065   MPKI: 5.77675
LLC WRITEBACK NON_SPEC    ACCESS:      46767  HIT:      46766  MISS:          1  HIT %:    99.9979  MISS %: 0.00213826   MPKI: 5e-06
LLC CLEAN_EVICTION NON_SPEC    ACCESS:    7587454  HIT:    4575766  MISS:    3011688  HIT %:     60.307  MISS %:     39.693   MPKI: 15.0584
LLC COMMIT LOAD NON_SPEC    ACCESS:     165471  HIT:     149977  MISS:      15494  HIT %:    90.6364  MISS %:    9.36357   MPKI: 0.07747
LLC LOAD TRANSLATION NON_SPEC    ACCESS:       4727  HIT:       2904  MISS:       1823  HIT %:    61.4343  MISS %:    38.5657   MPKI: 0.009115
LLC PREFETCH  REQUESTED:          0  ISSUED:          0  USEFUL:      61981  USELESS:    1092606
LLC USEFUL LOAD PREFETCHES:      61981 PREFETCH ISSUED TO LOWER LEVEL:    1155352  ACCURACY: 5.36469
LLC TIMELY PREFETCHES:      61981 LATE PREFETCHES: 0 DROPPED PREFETCHES: 0
LLC COMMIT LATE PREFETCHES: 0 MISSED OPPORTUNITY: 0 LATE IN PQ: 0 UNCOVERED: 0
LLC COMMIT LATE MSHR PREFETCHES: 0
LLC MPKI TOTAL: 15.9467 MSHR LATE: 0 PQ LATE: 0 COMMIT LATE: 0 MISSED OPPORTUNITY: 0 UNCOVERED: 0
LLC PREFETCHES SAME FILL-ORIGIN LEVEL: 0 DIFFERENT FILL-ORIGIN LEVEL: 0
LLC AVERAGE MISS LATENCY: 97.5521 cycles
LLC AVERAGE MISS LATENCY LOAD: 160.424 cycles
LLC AVERAGE MISS LATENCY PREFETCH: 177.668 cycles
LLC AVERAGE MSHR OCCUPANCY: 1.18258
LLC MSHR FULL: 0
LLC RQ	ACCESS:    9637576	FORWARD:          0	MERGED:          0	TO_CACHE:    9637406
LLC WQ	ACCESS:    7634221	FORWARD:        170	MERGED:          0	TO_CACHE:    7634221
LLC PQ	ACCESS:    1315793	FORWARD:          0	MERGED:          0	TO_CACHE:    1315793

LLC Dense regions hint to LLC: 0

RAW hits: 30120
Loads Generated: 54367569
Loads sent to L1D: 54337449
Stores Generated: 248282
Stores sent to L1D: 248282
Major fault: 0 Minor fault: 18714
Allocated PAGES: 18714
Total Load insts: 66974701
Total Non-spec loads: 9981693
Percentage of speculative loads: 85.0963

LeapFrogging counter: 562346
Commit hits: 24267767 miss: 20425992
Commit hit %: 54.2979 miss %: 45.7021
Commits not translated: 0
Loads retired: 13856853
Stores retired: 248282
Cache fills: 13856855
L1D response latency: 64.5174 cycles
Load retirement latency: 151.957 cycles
OOO test counter: 0
Discarded buffer inserts: 24267767 hits: 40434 hit %: 0.166616
Filter prediction accuracy: 99.7305
Speculative prefetch buffer size: 0
CPU 0 L1D PC-based stride prefetcher final stats
Degree: 3

DRAM Statistics
 CHANNEL 0
 RQ ROW_BUFFER_HIT:     411825  ROW_BUFFER_MISS:    3949034
 DBUS_CONGESTED:       2276
 WQ ROW_BUFFER_HIT:    1278841  ROW_BUFFER_MISS:    1996932  FULL:          0

 AVG_CONGESTED_CYCLE: 5
 All warmup complete: 2
Channel 0 Bank busy for read cycles: 0
Channel 0 Bank busy for write cycles: 0
Channel 0
Rank 0
0banks busy for read cycles: 42626997
0banks busy for write cycles: 382955
1banks busy for read cycles: 215603175
1banks busy for write cycles: 64447539
2banks busy for read cycles: 98976288
2banks busy for write cycles: 53339880
3banks busy for read cycles: 40639831
3banks busy for write cycles: 35700910
4banks busy for read cycles: 13367898
4banks busy for write cycles: 23379047
5banks busy for read cycles: 3485222
5banks busy for write cycles: 16420423
6banks busy for read cycles: 858703
6banks busy for write cycles: 13181467
7banks busy for read cycles: 216773
7banks busy for write cycles: 13707522
8banks busy for read cycles: 35998
8banks busy for write cycles: 18075461

CPU 0 Branch Prediction Accuracy: 94.3308% MPKI: 11.3996 Average ROB Occupancy at Mispredict: 48.4358
Branch types
NOT_BRANCH: 159783723 79.8919%
BRANCH_DIRECT_JUMP: 0 0%
BRANCH_INDIRECT: 0 0%
BRANCH_CONDITIONAL: 40215925 20.108%
BRANCH_DIRECT_CALL: 0 0%
BRANCH_INDIRECT_CALL: 0 0%
BRANCH_RETURN: 0 0%
BRANCH_OTHER: 0 0%

DRAM PAGES: 1048576
Allocated PAGES: 18714
