
*** ChampSim Multicore Out-of-Order Simulator ***

Warmup Instructions: 50000000
Simulation Instructions: 200000000
Number of CPUs: 1
LLC sets: 2048
LLC ways: 16
L0D sets: 16
L0D ways: 2
ROB size: 352
LQ size: 128
SQ size: 72
Secure Berti: OFF
Berti: OFF
Berti Fill: OFF
On commit prefetching: ON
Hit-based filter: ON
Time-guarding: ON
Free-slotting: ON
Leap-frogging: ON
Train prefetcher on L0D bypass: OFF
No translation penalty for prefetchers: OFF
Prefetch to L0D only: OFF
Prefetch to L1D only: OFF
Clean evictions: ON
Commit loads: ON
Commit write: ON
Fill commit loads to L2C, LLC: ON
DRAM IO FREQUENCY: 6400
ROB SIZE: 352
Off-chip DRAM Size: 4096 MB Channels: 1 Width: 64-bit Data Rate: 6400 MT/s
CPU 0 runs /home/sumon/secure_berti/GhostMinion/../../traces/gap/pr-14.trace.gz
.gz
BTB has LRU replacement policy
ITLB has LRU replacement policy
DTLB has LRU replacement policy
STLB has LRU replacement policy
L1I has LRU replacement policy
L0D has LRU replacement policy
CPU 0 L1D IP-based stride prefetcher
L1D has LRU replacement policy
L2C has LRU replacement policy
LLC has LRU replacement policy
Heartbeat CPU 0 instructions: 10000001 cycles: 3333819 heartbeat IPC: 2.99956 cumulative IPC: 2.99956 (Simulation time: 0 hr 0 min 40 sec) 
Heartbeat CPU 0 instructions: 20000001 cycles: 17886557 heartbeat IPC: 0.687156 cumulative IPC: 1.11816 (Simulation time: 0 hr 2 min 12 sec) 
Heartbeat CPU 0 instructions: 30000003 cycles: 34467679 heartbeat IPC: 0.603096 cumulative IPC: 0.870381 (Simulation time: 0 hr 3 min 27 sec) 
Heartbeat CPU 0 instructions: 40000003 cycles: 51035206 heartbeat IPC: 0.60359 cumulative IPC: 0.783773 (Simulation time: 0 hr 4 min 31 sec) 
Heartbeat CPU 0 instructions: 50000000 cycles: 67593487 heartbeat IPC: 0.603927 cumulative IPC: 0.739716 (Simulation time: 0 hr 5 min 33 sec) 

Warmup complete CPU 0 instructions: 50000004 cycles: 67593494 (Simulation time: 0 hr 5 min 33 sec) 

Heartbeat CPU 0 instructions: 60000000 cycles: 246358807 heartbeat IPC: 0.0559393 cumulative IPC: 0.0559392 (Simulation time: 0 hr 8 min 6 sec) 
Heartbeat CPU 0 instructions: 70000000 cycles: 425514233 heartbeat IPC: 0.0558175 cumulative IPC: 0.0558783 (Simulation time: 0 hr 10 min 31 sec) 
Heartbeat CPU 0 instructions: 80000001 cycles: 604665281 heartbeat IPC: 0.0558188 cumulative IPC: 0.0558584 (Simulation time: 0 hr 12 min 47 sec) 
Heartbeat CPU 0 instructions: 90000000 cycles: 783800247 heartbeat IPC: 0.0558238 cumulative IPC: 0.0558498 (Simulation time: 0 hr 14 min 47 sec) 
Heartbeat CPU 0 instructions: 100000001 cycles: 962889145 heartbeat IPC: 0.0558382 cumulative IPC: 0.0558475 (Simulation time: 0 hr 16 min 42 sec) 
Heartbeat CPU 0 instructions: 110000000 cycles: 1141971373 heartbeat IPC: 0.0558403 cumulative IPC: 0.0558463 (Simulation time: 0 hr 18 min 35 sec) 
Heartbeat CPU 0 instructions: 120000001 cycles: 1320863655 heartbeat IPC: 0.0558996 cumulative IPC: 0.0558539 (Simulation time: 0 hr 20 min 28 sec) 
Heartbeat CPU 0 instructions: 130000000 cycles: 1498886863 heartbeat IPC: 0.0561724 cumulative IPC: 0.0558935 (Simulation time: 0 hr 22 min 20 sec) 
Heartbeat CPU 0 instructions: 140000002 cycles: 1678442148 heartbeat IPC: 0.0556932 cumulative IPC: 0.0558712 (Simulation time: 0 hr 24 min 12 sec) 
Heartbeat CPU 0 instructions: 150000001 cycles: 1857505071 heartbeat IPC: 0.0558463 cumulative IPC: 0.0558687 (Simulation time: 0 hr 26 min 6 sec) 
Heartbeat CPU 0 instructions: 160000001 cycles: 2036730636 heartbeat IPC: 0.0557956 cumulative IPC: 0.055862 (Simulation time: 0 hr 27 min 58 sec) 
Heartbeat CPU 0 instructions: 170000003 cycles: 2214620610 heartbeat IPC: 0.0562145 cumulative IPC: 0.0558912 (Simulation time: 0 hr 29 min 49 sec) 
Heartbeat CPU 0 instructions: 180000001 cycles: 2393129176 heartbeat IPC: 0.0560197 cumulative IPC: 0.0559011 (Simulation time: 0 hr 31 min 40 sec) 
Heartbeat CPU 0 instructions: 190000000 cycles: 2523482349 heartbeat IPC: 0.0767147 cumulative IPC: 0.0570058 (Simulation time: 0 hr 33 min 8 sec) 
Heartbeat CPU 0 instructions: 200000002 cycles: 2564137822 heartbeat IPC: 0.245969 cumulative IPC: 0.0600831 (Simulation time: 0 hr 33 min 51 sec) 
Heartbeat CPU 0 instructions: 210000001 cycles: 2743255227 heartbeat IPC: 0.0558293 cumulative IPC: 0.0597983 (Simulation time: 0 hr 35 min 41 sec) 
Heartbeat CPU 0 instructions: 220000000 cycles: 2922597831 heartbeat IPC: 0.0557592 cumulative IPC: 0.0595446 (Simulation time: 0 hr 37 min 36 sec) 
Heartbeat CPU 0 instructions: 230000000 cycles: 3101695719 heartbeat IPC: 0.0558354 cumulative IPC: 0.0593256 (Simulation time: 0 hr 39 min 43 sec) 
Heartbeat CPU 0 instructions: 240000002 cycles: 3280528698 heartbeat IPC: 0.0559181 cumulative IPC: 0.059136 (Simulation time: 0 hr 41 min 47 sec) 
Heartbeat CPU 0 instructions: 250000003 cycles: 3459180976 heartbeat IPC: 0.0559747 cumulative IPC: 0.0589694 (Simulation time: 0 hr 43 min 52 sec) 
Finished CPU 0 instructions: 200000000 cycles: 3391587483 cumulative IPC: 0.0589694 (Simulation time: 0 hr 43 min 52 sec) 
 Instruction ID: 250000385

ChampSim completed all CPUs

Region of Interest Statistics

CPU 0 cumulative IPC: 0.0589694 instructions: 200000000 cycles: 3391587483
ITLB SPEC fills:          0  NON-SPEC fills:          0
ITLB Test counter :          0
ITLB Leapfrog:          0
ITLB MSHR merge:          0
ITLB TOTAL     ACCESS:   58772644  HIT:   58772644  MISS:          0  HIT %:        100  MISS %:          0   MPKI: 0
ITLB LOAD TRANSLATION NON_SPEC    ACCESS:   58772644  HIT:   58772644  MISS:          0  HIT %:        100  MISS %:          0   MPKI: 0
ITLB PREFETCH  REQUESTED:          0  ISSUED:          0  USEFUL:          0  USELESS:          0
ITLB USEFUL LOAD PREFETCHES:          0 PREFETCH ISSUED TO LOWER LEVEL:          0  ACCURACY: -nan
ITLB TIMELY PREFETCHES:          0 LATE PREFETCHES: 0 DROPPED PREFETCHES: 0
ITLB COMMIT LATE PREFETCHES: 0 MISSED OPPORTUNITY: 0 LATE IN PQ: 0 UNCOVERED: 0
ITLB COMMIT LATE MSHR PREFETCHES: 0
ITLB MPKI TOTAL: 0 MSHR LATE: 0 PQ LATE: 0 COMMIT LATE: 0 MISSED OPPORTUNITY: 0 UNCOVERED: 0
ITLB PREFETCHES SAME FILL-ORIGIN LEVEL: 0 DIFFERENT FILL-ORIGIN LEVEL: 0
ITLB AVERAGE MISS LATENCY: -nan cycles
ITLB AVERAGE MISS LATENCY LOAD: -nan cycles
ITLB AVERAGE MISS LATENCY PREFETCH: -nan cycles
ITLB AVERAGE MSHR OCCUPANCY: 0
ITLB MSHR FULL: 0
ITLB RQ	ACCESS:   59900652	FORWARD:          0	MERGED:    1128007	TO_CACHE:   58772645

DTLB SPEC fills:          0  NON-SPEC fills:          0
DTLB Test counter :          0
DTLB Leapfrog:          0
DTLB MSHR merge:          0
DTLB TOTAL     ACCESS:   71329750  HIT:   48332330  MISS:   22997420  HIT %:     67.759  MISS %:     32.241   MPKI: 114.987
DTLB LOAD TRANSLATION NON_SPEC    ACCESS:   71329750  HIT:   48332330  MISS:   22997420  HIT %:     67.759  MISS %:     32.241   MPKI: 114.987
DTLB PREFETCH  REQUESTED:          0  ISSUED:          0  USEFUL:          0  USELESS:          0
DTLB USEFUL LOAD PREFETCHES:          0 PREFETCH ISSUED TO LOWER LEVEL:          0  ACCURACY: -nan
DTLB TIMELY PREFETCHES:          0 LATE PREFETCHES: 0 DROPPED PREFETCHES: 0
DTLB COMMIT LATE PREFETCHES: 0 MISSED OPPORTUNITY: 0 LATE IN PQ: 0 UNCOVERED: 0
DTLB COMMIT LATE MSHR PREFETCHES: 0
DTLB MPKI TOTAL: 0 MSHR LATE: 0 PQ LATE: 0 COMMIT LATE: 0 MISSED OPPORTUNITY: 0 UNCOVERED: 0
DTLB PREFETCHES SAME FILL-ORIGIN LEVEL: 0 DIFFERENT FILL-ORIGIN LEVEL: 0
DTLB AVERAGE MISS LATENCY: 9.2918 cycles
DTLB AVERAGE MISS LATENCY LOAD: -nan cycles
DTLB AVERAGE MISS LATENCY PREFETCH: -nan cycles
DTLB AVERAGE MSHR OCCUPANCY: 0.196525
DTLB MSHR FULL: 0
DTLB RQ	ACCESS:   72194261	FORWARD:          0	MERGED:     855121	TO_CACHE:   71339140

STLB SPEC fills:          0  NON-SPEC fills:          0
STLB Test counter :          0
STLB Leapfrog:          0
STLB MSHR merge:          0
STLB TOTAL     ACCESS:   26231945  HIT:   26191127  MISS:      40818  HIT %:    99.8444  MISS %:   0.155604   MPKI: 0.20409
STLB LOAD TRANSLATION NON_SPEC    ACCESS:   22997419  HIT:   22956601  MISS:      40818  HIT %:    99.8225  MISS %:   0.177489   MPKI: 0.20409
STLB TRANSLATION FROM L1D PREFETCHER NON_SPEC    ACCESS:    3234526  HIT:    3234526  MISS:          0  HIT %:        100  MISS %:          0   MPKI: 0
STLB PREFETCH  REQUESTED:          0  ISSUED:          0  USEFUL:          0  USELESS:          0
STLB USEFUL LOAD PREFETCHES:          0 PREFETCH ISSUED TO LOWER LEVEL:          0  ACCURACY: -nan
STLB TIMELY PREFETCHES:          0 LATE PREFETCHES: 0 DROPPED PREFETCHES: 0
STLB COMMIT LATE PREFETCHES: 0 MISSED OPPORTUNITY: 0 LATE IN PQ: 0 UNCOVERED: 0
STLB COMMIT LATE MSHR PREFETCHES: 0
STLB MPKI TOTAL: 0 MSHR LATE: 0 PQ LATE: 0 COMMIT LATE: 0 MISSED OPPORTUNITY: 0 UNCOVERED: 0
STLB PREFETCHES SAME FILL-ORIGIN LEVEL: 0 DIFFERENT FILL-ORIGIN LEVEL: 0
STLB AVERAGE MISS LATENCY: 154.49 cycles
STLB AVERAGE MISS LATENCY LOAD: -nan cycles
STLB AVERAGE MISS LATENCY PREFETCH: -nan cycles
STLB AVERAGE MSHR OCCUPANCY: 0.00105779
STLB MSHR FULL: 0
STLB RQ	ACCESS:   32432032	FORWARD:          0	MERGED:    6200085	TO_CACHE:   26231947

STLB Hit, L1D data hit: 0
STLB Hit, L2C data hit: 0
STLB Hit, LLC data hit: 0
STLB Hit, LLC data miss: 0
STLB STLB hints to L2: 0
L0D SPEC fills:    5696484  NON-SPEC fills:          0
L0D TimeGuard Request with older TS:      70530 Restricted eviction:      12647 read:      23251
L0D Test counter :          0
L0D Leapfrog:          0
L0D MSHR merge:    1186813
L0D TOTAL     ACCESS:   67701632  HIT:   24409617  MISS:   43292015  HIT %:    36.0547  MISS %:    63.9453   MPKI: 216.46
L0D LOAD      TOTAL       ACCESS:   67701632  HIT:   24409617  MISS:   43292015  HIT %:    36.0547  MISS %:    63.9453   MPKI: 216.46
L0D LOAD      NON_SPEC    ACCESS:   37601247  HIT:      18363  MISS:   37582884  HIT %:  0.0488361  MISS %:    99.9512   MPKI: 187.914
L0D LOAD      SPEC        ACCESS:   30100385  HIT:   24391254  MISS:    5709131  HIT %:     81.033  MISS %:     18.967   MPKI: 28.5457
L0D PREFETCH  REQUESTED:          0  ISSUED:          0  USEFUL:          0  USELESS:          0
L0D USEFUL LOAD PREFETCHES:          0 PREFETCH ISSUED TO LOWER LEVEL:          0  ACCURACY: -nan
L0D TIMELY PREFETCHES:          0 LATE PREFETCHES: 0 DROPPED PREFETCHES: 0
L0D COMMIT LATE PREFETCHES: 0 MISSED OPPORTUNITY: 0 LATE IN PQ: 0 UNCOVERED: 0
L0D COMMIT LATE MSHR PREFETCHES: 0
L0D MPKI TOTAL: 222.394 MSHR LATE: 0 PQ LATE: 0 COMMIT LATE: 0 MISSED OPPORTUNITY: 0 UNCOVERED: 0
L0D PREFETCHES SAME FILL-ORIGIN LEVEL: 0 DIFFERENT FILL-ORIGIN LEVEL: 0
L0D AVERAGE MISS LATENCY: 66.3009 cycles
L0D AVERAGE MISS LATENCY LOAD: 66.3009 cycles
L0D AVERAGE MISS LATENCY PREFETCH: -nan cycles
L0D AVERAGE MSHR OCCUPANCY: 0.223015
L0D MSHR FULL: 0
L0D RQ	ACCESS:   77350916	FORWARD:          0	MERGED:    8462472	TO_CACHE:   68888444
L0D WQ	ACCESS:    3305817	FORWARD:          0	MERGED:          0	TO_CACHE:    3305817

L1D SPEC fills:          0  NON-SPEC fills:   31883946
L1D Test counter :          0
L1D Leapfrog:          0
L1D MSHR merge:      51247
L1D TOTAL     ACCESS:   55900900  HIT:   20293890  MISS:   35607010  HIT %:    36.3033  MISS %:    63.6967   MPKI: 178.035
L1D LOAD      TOTAL       ACCESS:   43292001  HIT:   11287571  MISS:   32004430  HIT %:    26.0731  MISS %:    73.9269   MPKI: 160.022
L1D LOAD      NON_SPEC    ACCESS:   37582882  HIT:    5698936  MISS:   31883946  HIT %:    15.1636  MISS %:    84.8364   MPKI: 159.42
L1D LOAD      SPEC        ACCESS:    5709119  HIT:    5588635  MISS:     120484  HIT %:    97.8896  MISS %:    2.11038   MPKI: 0.60242
L1D RFO       NON_SPEC    ACCESS:    3301776  HIT:    3300150  MISS:       1626  HIT %:    99.9508  MISS %:  0.0492462   MPKI: 0.00813
L1D PREFETCH  NON_SPEC    ACCESS:    8825416  HIT:    5319829  MISS:    3505587  HIT %:    60.2785  MISS %:    39.7215   MPKI: 17.5279
L1D COMMIT LOAD NON_SPEC    ACCESS:     341018  HIT:     340769  MISS:        249  HIT %:     99.927  MISS %:  0.0730167   MPKI: 0.001245
L1D COMMIT WRITE NON_SPEC    ACCESS:     140689  HIT:      45571  MISS:      95118  HIT %:    32.3913  MISS %:    67.6087   MPKI: 0.47559
L1D PREFETCH  REQUESTED:    9682724  ISSUED:    9682724  USEFUL:    2505915  USELESS:     999676
L1D USEFUL LOAD PREFETCHES:    2505915 PREFETCH ISSUED TO LOWER LEVEL:    3556867  ACCURACY: 70.4529
L1D TIMELY PREFETCHES:    2505915 LATE PREFETCHES: 51233 DROPPED PREFETCHES: 0
L1D COMMIT LATE PREFETCHES: 0 MISSED OPPORTUNITY: 0 LATE IN PQ: 0 UNCOVERED: 0
L1D COMMIT LATE MSHR PREFETCHES: 0
L1D MPKI TOTAL: 160.022 MSHR LATE: 0.256165 PQ LATE: 0 COMMIT LATE: 0 MISSED OPPORTUNITY: 0 UNCOVERED: 0
L1D PREFETCHES SAME FILL-ORIGIN LEVEL: 3556843 DIFFERENT FILL-ORIGIN LEVEL: 24
L1D AVERAGE MISS LATENCY: 92.9039 cycles
L1D AVERAGE MISS LATENCY LOAD: 82.9162 cycles
L1D AVERAGE MISS LATENCY PREFETCH: 186.608 cycles
L1D AVERAGE MSHR OCCUPANCY: 0.380991
L1D MSHR FULL: 0
L1D RQ	ACCESS:   43671482	FORWARD:          0	MERGED:      37663	TO_CACHE:   43633033
L1D WQ	ACCESS:    3446507	FORWARD:        786	MERGED:        587	TO_CACHE:    3445920
L1D PQ	ACCESS:    9682724	FORWARD:          0	MERGED:     248111	TO_CACHE:    9434613

L1D UNIQUE REGIONS ACCESSED: 0
L1D REGIONS CONFLICTS: 0
L1D Cross Page Prefetch Requests: 0
L1D Same Page Prefetch Requests: 12552346
L1D ROI Sum of L1D PQ occupancy: 135601045
L1D PREFETCHES PUSHED FROM L2C: 0
L1I SPEC fills:          0  NON-SPEC fills:          0
L1I Test counter :          0
L1I Leapfrog:          0
L1I MSHR merge:          1
L1I TOTAL     ACCESS:   59900650  HIT:   59900629  MISS:         21  HIT %:        100  MISS %: 3.50581e-05   MPKI: 0.000105
L1I LOAD      TOTAL       ACCESS:   59900650  HIT:   59900629  MISS:         21  HIT %:        100  MISS %: 3.50581e-05   MPKI: 0.000105
L1I LOAD      NON_SPEC    ACCESS:   59900650  HIT:   59900629  MISS:         21  HIT %:        100  MISS %: 3.50581e-05   MPKI: 0.000105
L1I PREFETCH  REQUESTED:          0  ISSUED:          0  USEFUL:          0  USELESS:          0
L1I USEFUL LOAD PREFETCHES:          0 PREFETCH ISSUED TO LOWER LEVEL:          0  ACCURACY: -nan
L1I TIMELY PREFETCHES:          0 LATE PREFETCHES: 0 DROPPED PREFETCHES: 0
L1I COMMIT LATE PREFETCHES: 0 MISSED OPPORTUNITY: 0 LATE IN PQ: 0 UNCOVERED: 0
L1I COMMIT LATE MSHR PREFETCHES: 0
L1I MPKI TOTAL: 0.00011 MSHR LATE: 0 PQ LATE: 0 COMMIT LATE: 0 MISSED OPPORTUNITY: 0 UNCOVERED: 0
L1I PREFETCHES SAME FILL-ORIGIN LEVEL: 0 DIFFERENT FILL-ORIGIN LEVEL: 0
L1I AVERAGE MISS LATENCY: 166.381 cycles
L1I AVERAGE MISS LATENCY LOAD: 166.381 cycles
L1I AVERAGE MISS LATENCY PREFETCH: -nan cycles
L1I AVERAGE MSHR OCCUPANCY: 1.33554e-07
L1I MSHR FULL: 0
L1I RQ	ACCESS:   71031939	FORWARD:          0	MERGED:   11131287	TO_CACHE:   59900652

BTB SPEC fills:          0  NON-SPEC fills:          0
BTB Test counter :          0
BTB Leapfrog:          0
BTB MSHR merge:          0
BTB TOTAL     ACCESS:   37022761  HIT:   37022589  MISS:        172  HIT %:    99.9995  MISS %: 0.000464579   MPKI: 0.00086
BTB BRANCH_DIRECT_JUMP	ACCESS:         66  HIT:         33  MISS:         33
BTB BRANCH_INDIRECT	ACCESS:          4  HIT:          0  MISS:          4
BTB BRANCH_CONDITIONAL	ACCESS:   37022625  HIT:   37022536  MISS:         89
BTB BRANCH_DIRECT_CALL	ACCESS:         28  HIT:         10  MISS:         18
BTB BRANCH_INDIRECT_CALL	ACCESS:          5  HIT:          1  MISS:          4
BTB BRANCH_RETURN	ACCESS:         33  HIT:          9  MISS:         24
BTB BRANCH_OTHER ACCESS:          0  HIT:          0  MISS:          0

L2C SPEC fills:          0  NON-SPEC fills:   22483659
L2C Test counter :          0
L2C Leapfrog:          0
L2C MSHR merge:          1
L2C TOTAL     ACCESS:   35947284  HIT:    9876454  MISS:   26070830  HIT %:    27.4748  MISS %:    72.5252   MPKI: 130.354
L2C LOAD      TOTAL       ACCESS:   31953218  HIT:    9403430  MISS:   22549788  HIT %:    29.4287  MISS %:    70.5713   MPKI: 112.749
L2C LOAD      NON_SPEC    ACCESS:   31848511  HIT:    9364831  MISS:   22483680  HIT %:    29.4043  MISS %:    70.5957   MPKI: 112.418
L2C LOAD      SPEC        ACCESS:     104707  HIT:      38599  MISS:      66108  HIT %:    36.8638  MISS %:    63.1362   MPKI: 0.33054
L2C RFO       NON_SPEC    ACCESS:       1603  HIT:        558  MISS:       1045  HIT %:    34.8097  MISS %:    65.1903   MPKI: 0.005225
L2C PREFETCH  NON_SPEC    ACCESS:    3556857  HIT:      93680  MISS:    3463177  HIT %:    2.63379  MISS %:    97.3662   MPKI: 17.3159
L2C WRITEBACK NON_SPEC    ACCESS:     132295  HIT:     131526  MISS:        769  HIT %:    99.4187  MISS %:   0.581277   MPKI: 0.003845
L2C CLEAN_EVICTION NON_SPEC    ACCESS:      99019  HIT:      55661  MISS:      43358  HIT %:    56.2124  MISS %:    43.7876   MPKI: 0.21679
L2C COMMIT LOAD NON_SPEC    ACCESS:        249  HIT:        243  MISS:          6  HIT %:    97.5904  MISS %:    2.40964   MPKI: 3e-05
L2C LOAD TRANSLATION NON_SPEC    ACCESS:     204043  HIT:     191356  MISS:      12687  HIT %:    93.7822  MISS %:    6.21781   MPKI: 0.063435
L2C PREFETCH  REQUESTED:          0  ISSUED:          0  USEFUL:      78088  USELESS:    3385120
L2C USEFUL LOAD PREFETCHES:      78088 PREFETCH ISSUED TO LOWER LEVEL:    3463178  ACCURACY: 2.25481
L2C TIMELY PREFETCHES:      78088 LATE PREFETCHES: 1 DROPPED PREFETCHES: 0
L2C COMMIT LATE PREFETCHES: 0 MISSED OPPORTUNITY: 0 LATE IN PQ: 0 UNCOVERED: 0
L2C COMMIT LATE MSHR PREFETCHES: 0
L2C MPKI TOTAL: 112.749 MSHR LATE: 5e-06 PQ LATE: 0 COMMIT LATE: 0 MISSED OPPORTUNITY: 0 UNCOVERED: 0
L2C PREFETCHES SAME FILL-ORIGIN LEVEL: 23 DIFFERENT FILL-ORIGIN LEVEL: 0
L2C AVERAGE MISS LATENCY: 106.64 cycles
L2C AVERAGE MISS LATENCY LOAD: 96.2089 cycles
L2C AVERAGE MISS LATENCY PREFETCH: 175.872 cycles
L2C AVERAGE MSHR OCCUPANCY: 0.20059
L2C MSHR FULL: 0
L2C RQ	ACCESS:   32159113	FORWARD:          0	MERGED:          0	TO_CACHE:   32159113
L2C WQ	ACCESS:     231314	FORWARD:          0	MERGED:          0	TO_CACHE:     231314
L2C PQ	ACCESS:    3556867	FORWARD:          0	MERGED:          0	TO_CACHE:    3556867

L2C Instructions Evicting Data 21
L2C Translations Evicting Data 12687
L2C Data Evicting Data 25935207
L2C Instructions Evicting Instructions 0
L2C Translations Evicting Instructions 0
L2C Data Evicting Instructions 21
L2C Instructions Evicting Translations 0
L2C Translations Evicting Translations 0
L2C Data Evicting Translations 12659
L2C Dense regions hint from L2: 0
PSCL5 SPEC fills:          0  NON-SPEC fills:          0
PSCL5 Test counter :          0
PSCL5 Leapfrog:          0
PSCL5 MSHR merge:          0
PSCL5 TOTAL     ACCESS:          0  HIT:          0  MISS:          0  HIT %:       -nan  MISS %:       -nan   MPKI: 0
PSCL5 PREFETCH  REQUESTED:          0  ISSUED:          0  USEFUL:          0  USELESS:          0
PSCL5 USEFUL LOAD PREFETCHES:          0 PREFETCH ISSUED TO LOWER LEVEL:          0  ACCURACY: -nan
PSCL5 TIMELY PREFETCHES:          0 LATE PREFETCHES: 0 DROPPED PREFETCHES: 0
PSCL5 COMMIT LATE PREFETCHES: 0 MISSED OPPORTUNITY: 0 LATE IN PQ: 0 UNCOVERED: 0
PSCL5 COMMIT LATE MSHR PREFETCHES: 0
PSCL5 MPKI TOTAL: 0 MSHR LATE: 0 PQ LATE: 0 COMMIT LATE: 0 MISSED OPPORTUNITY: 0 UNCOVERED: 0
PSCL5 PREFETCHES SAME FILL-ORIGIN LEVEL: 0 DIFFERENT FILL-ORIGIN LEVEL: 0

PSCL4 SPEC fills:          0  NON-SPEC fills:          0
PSCL4 Test counter :          0
PSCL4 Leapfrog:          0
PSCL4 MSHR merge:          0
PSCL4 TOTAL     ACCESS:          0  HIT:          0  MISS:          0  HIT %:       -nan  MISS %:       -nan   MPKI: 0
PSCL4 PREFETCH  REQUESTED:          0  ISSUED:          0  USEFUL:          0  USELESS:          0
PSCL4 USEFUL LOAD PREFETCHES:          0 PREFETCH ISSUED TO LOWER LEVEL:          0  ACCURACY: -nan
PSCL4 TIMELY PREFETCHES:          0 LATE PREFETCHES: 0 DROPPED PREFETCHES: 0
PSCL4 COMMIT LATE PREFETCHES: 0 MISSED OPPORTUNITY: 0 LATE IN PQ: 0 UNCOVERED: 0
PSCL4 COMMIT LATE MSHR PREFETCHES: 0
PSCL4 MPKI TOTAL: 0 MSHR LATE: 0 PQ LATE: 0 COMMIT LATE: 0 MISSED OPPORTUNITY: 0 UNCOVERED: 0
PSCL4 PREFETCHES SAME FILL-ORIGIN LEVEL: 0 DIFFERENT FILL-ORIGIN LEVEL: 0

PSCL3 SPEC fills:          0  NON-SPEC fills:          0
PSCL3 Test counter :          0
PSCL3 Leapfrog:          0
PSCL3 MSHR merge:          0
PSCL3 TOTAL     ACCESS:          0  HIT:          0  MISS:          0  HIT %:       -nan  MISS %:       -nan   MPKI: 0
PSCL3 PREFETCH  REQUESTED:          0  ISSUED:          0  USEFUL:          0  USELESS:          0
PSCL3 USEFUL LOAD PREFETCHES:          0 PREFETCH ISSUED TO LOWER LEVEL:          0  ACCURACY: -nan
PSCL3 TIMELY PREFETCHES:          0 LATE PREFETCHES: 0 DROPPED PREFETCHES: 0
PSCL3 COMMIT LATE PREFETCHES: 0 MISSED OPPORTUNITY: 0 LATE IN PQ: 0 UNCOVERED: 0
PSCL3 COMMIT LATE MSHR PREFETCHES: 0
PSCL3 MPKI TOTAL: 0 MSHR LATE: 0 PQ LATE: 0 COMMIT LATE: 0 MISSED OPPORTUNITY: 0 UNCOVERED: 0
PSCL3 PREFETCHES SAME FILL-ORIGIN LEVEL: 0 DIFFERENT FILL-ORIGIN LEVEL: 0

PSCL2 SPEC fills:          0  NON-SPEC fills:          0
PSCL2 Test counter :          0
PSCL2 Leapfrog:          0
PSCL2 MSHR merge:          0
PSCL2 TOTAL     ACCESS:          0  HIT:          0  MISS:          0  HIT %:       -nan  MISS %:       -nan   MPKI: 0
PSCL2 PREFETCH  REQUESTED:          0  ISSUED:          0  USEFUL:          0  USELESS:          0
PSCL2 USEFUL LOAD PREFETCHES:          0 PREFETCH ISSUED TO LOWER LEVEL:          0  ACCURACY: -nan
PSCL2 TIMELY PREFETCHES:          0 LATE PREFETCHES: 0 DROPPED PREFETCHES: 0
PSCL2 COMMIT LATE PREFETCHES: 0 MISSED OPPORTUNITY: 0 LATE IN PQ: 0 UNCOVERED: 0
PSCL2 COMMIT LATE MSHR PREFETCHES: 0
PSCL2 MPKI TOTAL: 0 MSHR LATE: 0 PQ LATE: 0 COMMIT LATE: 0 MISSED OPPORTUNITY: 0 UNCOVERED: 0
PSCL2 PREFETCHES SAME FILL-ORIGIN LEVEL: 0 DIFFERENT FILL-ORIGIN LEVEL: 0

LLC SPEC fills:          0  NON-SPEC fills:    9342984
LLC Test counter :          0
LLC Leapfrog:          0
LLC MSHR merge:          0
LLC TOTAL     ACCESS:   26244606  HIT:   13628886  MISS:   12615720  HIT %:    51.9302  MISS %:    48.0698   MPKI: 63.0786
LLC LOAD      TOTAL       ACCESS:   22549787  HIT:   13142105  MISS:    9407682  HIT %:    58.2804  MISS %:    41.7196   MPKI: 47.0384
LLC LOAD      NON_SPEC    ACCESS:   22483680  HIT:   13140675  MISS:    9343005  HIT %:    58.4454  MISS %:    41.5546   MPKI: 46.715
LLC LOAD      SPEC        ACCESS:      66107  HIT:       1430  MISS:      64677  HIT %:    2.16316  MISS %:    97.8368   MPKI: 0.323385
LLC RFO       NON_SPEC    ACCESS:       1045  HIT:         22  MISS:       1023  HIT %:    2.10526  MISS %:    97.8947   MPKI: 0.005115
LLC PREFETCH  NON_SPEC    ACCESS:    3463178  HIT:     304595  MISS:    3158583  HIT %:    8.79525  MISS %:    91.2048   MPKI: 15.7929
LLC WRITEBACK NON_SPEC    ACCESS:     125177  HIT:     124771  MISS:        406  HIT %:    99.6757  MISS %:   0.324341   MPKI: 0.00203
LLC CLEAN_EVICTION NON_SPEC    ACCESS:      92726  HIT:      50978  MISS:      41748  HIT %:     54.977  MISS %:     45.023   MPKI: 0.20874
LLC COMMIT LOAD NON_SPEC    ACCESS:          6  HIT:          5  MISS:          1  HIT %:    83.3333  MISS %:    16.6667   MPKI: 5e-06
LLC LOAD TRANSLATION NON_SPEC    ACCESS:      12687  HIT:       6410  MISS:       6277  HIT %:    50.5242  MISS %:    49.4758   MPKI: 0.031385
LLC PREFETCH  REQUESTED:          0  ISSUED:          0  USEFUL:     143440  USELESS:    3015777
LLC USEFUL LOAD PREFETCHES:     143440 PREFETCH ISSUED TO LOWER LEVEL:    3158583  ACCURACY: 4.54128
LLC TIMELY PREFETCHES:     143440 LATE PREFETCHES: 0 DROPPED PREFETCHES: 0
LLC COMMIT LATE PREFETCHES: 0 MISSED OPPORTUNITY: 0 LATE IN PQ: 0 UNCOVERED: 0
LLC COMMIT LATE MSHR PREFETCHES: 0
LLC MPKI TOTAL: 47.0384 MSHR LATE: 0 PQ LATE: 0 COMMIT LATE: 0 MISSED OPPORTUNITY: 0 UNCOVERED: 0
LLC PREFETCHES SAME FILL-ORIGIN LEVEL: 0 DIFFERENT FILL-ORIGIN LEVEL: 0
LLC AVERAGE MISS LATENCY: 158.499 cycles
LLC AVERAGE MISS LATENCY LOAD: 158.726 cycles
LLC AVERAGE MISS LATENCY PREFETCH: 159.921 cycles
LLC AVERAGE MSHR OCCUPANCY: 0.173758
LLC MSHR FULL: 0
LLC RQ	ACCESS:   22563525	FORWARD:          0	MERGED:          0	TO_CACHE:   22563525
LLC WQ	ACCESS:     217903	FORWARD:          0	MERGED:          0	TO_CACHE:     217903
LLC PQ	ACCESS:    3463178	FORWARD:          0	MERGED:          0	TO_CACHE:    3463178

LLC Dense regions hint to LLC: 0

RAW hits: 25
Loads Generated: 77350942
Loads sent to L1D: 77350916
Stores Generated: 3305817
Stores sent to L1D: 3305817
Major fault: 0 Minor fault: 34901
Allocated PAGES: 34901
Total Load insts: 95645184
Total Non-spec loads: 44920600
Percentage of speculative loads: 53.0341

LeapFrogging counter: 0
Commit hits: 5696010 miss: 34009972
Commit hit %: 14.3455 miss %: 85.6545
Commits not translated: 0
Loads retired: 32004430
Stores retired: 3305817
Cache fills: 32004430
L1D response latency: 82.9162 cycles
Load retirement latency: 102.687 cycles
OOO test counter: 0
Discarded buffer inserts: 5696010 hits: 22315 hit %: 0.391765
Filter prediction accuracy: 99.9776
Speculative prefetch buffer size: 0
CPU 0 L1D PC-based stride prefetcher final stats
Degree: 3

DRAM Statistics
 CHANNEL 0
 RQ ROW_BUFFER_HIT:    1725997  ROW_BUFFER_MISS:   10847569
 DBUS_CONGESTED:       1057
 WQ ROW_BUFFER_HIT:      57799  ROW_BUFFER_MISS:     160235  FULL:          0

 AVG_CONGESTED_CYCLE: 4
 All warmup complete: 2
Channel 0 Bank busy for read cycles: 0
Channel 0 Bank busy for write cycles: 0
Channel 0
Rank 0
0banks busy for read cycles: 1825984415
0banks busy for write cycles: 135485
1banks busy for read cycles: 1375751672
1banks busy for write cycles: 28715225
2banks busy for read cycles: 138137385
2banks busy for write cycles: 1191968
3banks busy for read cycles: 15231704
3banks busy for write cycles: 250527
4banks busy for read cycles: 3515584
4banks busy for write cycles: 90412
5banks busy for read cycles: 350667
5banks busy for write cycles: 47475
6banks busy for read cycles: 5918
6banks busy for write cycles: 27742
7banks busy for read cycles: 188
7banks busy for write cycles: 105056
8banks busy for read cycles: 0
8banks busy for write cycles: 2046061

CPU 0 Branch Prediction Accuracy: 96.9509% MPKI: 5.6443 Average ROB Occupancy at Mispredict: 137.453
Branch types
NOT_BRANCH: 162977012 81.4885%
BRANCH_DIRECT_JUMP: 66 3.3e-05%
BRANCH_INDIRECT: 4 2e-06%
BRANCH_CONDITIONAL: 37022851 18.5114%
BRANCH_DIRECT_CALL: 28 1.4e-05%
BRANCH_INDIRECT_CALL: 5 2.5e-06%
BRANCH_RETURN: 33 1.65e-05%
BRANCH_OTHER: 0 0%

DRAM PAGES: 1048576
Allocated PAGES: 34901
