
*** ChampSim Multicore Out-of-Order Simulator ***

Warmup Instructions: 50000000
Simulation Instructions: 200000000
Number of CPUs: 1
LLC sets: 2048
LLC ways: 16
Secure Berti: OFF
Berti: OFF
Berti Fill: OFF
On commit prefetching: OFF
L2 LLC Bypass speculative loads: OFF
Off-chip DRAM Size: 4096 MB Channels: 1 Width: 64-bit Data Rate: 6400 MT/s
CPU 0 runs /home/sumon/secure_berti/Berti_Baseline/../../traces/spec/600.perlbench_s-570B.champsimtrace.xz
.xz
BTB has LRU replacement policy
ITLB has LRU replacement policy
DTLB has LRU replacement policy
STLB has LRU replacement policy
L1I has LRU replacement policy
IP Table Entries: 1024
CSPT Entries: 128
RR_ENTRIES: 32
RST_ENTRIES: 8
L1D has LRU replacement policy
L2C has LRU replacement policy
LLC has LRU replacement policy
Heartbeat CPU 0 instructions: 10000003 cycles: 2893540 heartbeat IPC: 3.45598 cumulative IPC: 3.45598 (Simulation time: 0 hr 0 min 27 sec) 
Heartbeat CPU 0 instructions: 20000003 cycles: 5752060 heartbeat IPC: 3.49831 cumulative IPC: 3.47702 (Simulation time: 0 hr 0 min 53 sec) 
Heartbeat CPU 0 instructions: 30000003 cycles: 8647137 heartbeat IPC: 3.45414 cumulative IPC: 3.46936 (Simulation time: 0 hr 1 min 19 sec) 
Heartbeat CPU 0 instructions: 40000002 cycles: 11518099 heartbeat IPC: 3.48315 cumulative IPC: 3.4728 (Simulation time: 0 hr 1 min 46 sec) 
Heartbeat CPU 0 instructions: 50000002 cycles: 14387395 heartbeat IPC: 3.48518 cumulative IPC: 3.47526 (Simulation time: 0 hr 2 min 13 sec) 

Warmup complete CPU 0 instructions: 50000002 cycles: 14387395 (Simulation time: 0 hr 2 min 13 sec) 

Heartbeat CPU 0 instructions: 60000000 cycles: 28570267 heartbeat IPC: 0.705076 cumulative IPC: 0.705076 (Simulation time: 0 hr 2 min 42 sec) 
Heartbeat CPU 0 instructions: 70000000 cycles: 50543975 heartbeat IPC: 0.455089 cumulative IPC: 0.55315 (Simulation time: 0 hr 3 min 12 sec) 
Heartbeat CPU 0 instructions: 80000002 cycles: 73939166 heartbeat IPC: 0.427438 cumulative IPC: 0.503763 (Simulation time: 0 hr 3 min 43 sec) 
Heartbeat CPU 0 instructions: 90000003 cycles: 101615578 heartbeat IPC: 0.361319 cumulative IPC: 0.458567 (Simulation time: 0 hr 4 min 18 sec) 
Heartbeat CPU 0 instructions: 100000002 cycles: 116696605 heartbeat IPC: 0.663085 cumulative IPC: 0.488715 (Simulation time: 0 hr 4 min 51 sec) 
Heartbeat CPU 0 instructions: 110000000 cycles: 131706794 heartbeat IPC: 0.666214 cumulative IPC: 0.511424 (Simulation time: 0 hr 5 min 24 sec) 
Heartbeat CPU 0 instructions: 120000003 cycles: 147469506 heartbeat IPC: 0.634409 cumulative IPC: 0.525991 (Simulation time: 0 hr 5 min 58 sec) 
Heartbeat CPU 0 instructions: 130000000 cycles: 163059282 heartbeat IPC: 0.641446 cumulative IPC: 0.538098 (Simulation time: 0 hr 6 min 32 sec) 
Heartbeat CPU 0 instructions: 140000003 cycles: 191054719 heartbeat IPC: 0.357201 cumulative IPC: 0.509432 (Simulation time: 0 hr 7 min 11 sec) 
Heartbeat CPU 0 instructions: 150000002 cycles: 217357574 heartbeat IPC: 0.380187 cumulative IPC: 0.492683 (Simulation time: 0 hr 7 min 51 sec) 
Heartbeat CPU 0 instructions: 160000001 cycles: 238963697 heartbeat IPC: 0.462832 cumulative IPC: 0.489811 (Simulation time: 0 hr 8 min 26 sec) 
Heartbeat CPU 0 instructions: 170000001 cycles: 255396559 heartbeat IPC: 0.608537 cumulative IPC: 0.497906 (Simulation time: 0 hr 9 min 0 sec) 
Heartbeat CPU 0 instructions: 180000000 cycles: 275786887 heartbeat IPC: 0.490429 cumulative IPC: 0.497323 (Simulation time: 0 hr 9 min 35 sec) 
Heartbeat CPU 0 instructions: 190000001 cycles: 303874431 heartbeat IPC: 0.35603 cumulative IPC: 0.483614 (Simulation time: 0 hr 10 min 13 sec) 
Heartbeat CPU 0 instructions: 200000001 cycles: 330739070 heartbeat IPC: 0.372237 cumulative IPC: 0.474156 (Simulation time: 0 hr 10 min 51 sec) 
Heartbeat CPU 0 instructions: 210000000 cycles: 351356342 heartbeat IPC: 0.48503 cumulative IPC: 0.474821 (Simulation time: 0 hr 11 min 24 sec) 
Heartbeat CPU 0 instructions: 220000000 cycles: 367381110 heartbeat IPC: 0.624034 cumulative IPC: 0.481595 (Simulation time: 0 hr 11 min 53 sec) 
Heartbeat CPU 0 instructions: 230000000 cycles: 382090230 heartbeat IPC: 0.67985 cumulative IPC: 0.489526 (Simulation time: 0 hr 12 min 20 sec) 
Heartbeat CPU 0 instructions: 240000002 cycles: 397814941 heartbeat IPC: 0.635942 cumulative IPC: 0.49553 (Simulation time: 0 hr 12 min 46 sec) 
Heartbeat CPU 0 instructions: 250000003 cycles: 414205112 heartbeat IPC: 0.610122 cumulative IPC: 0.500228 (Simulation time: 0 hr 13 min 11 sec) 
Finished CPU 0 instructions: 200000001 cycles: 399817717 cumulative IPC: 0.500228 (Simulation time: 0 hr 13 min 11 sec) 

ChampSim completed all CPUs

Region of Interest Statistics

CPU 0 cumulative IPC: 0.500228 instructions: 200000001 cycles: 399817717
ITLB TOTAL     ACCESS:   31225414  HIT:   31150866  MISS:      74548  HIT %:    99.7613  MISS %:   0.238741   MPKI: 0.37274
ITLB Test counter:          0
ITLB LOAD TRANSLATION ACCESS:   31225414  HIT:   31150866  MISS:      74548  HIT %:    99.7613  MISS %:   0.238741   MPKI: 0.37274
ITLB PREFETCH  REQUESTED:          0  ISSUED:          0  USEFUL:          0  USELESS:          0
ITLB USEFUL LOAD PREFETCHES:          0 PREFETCH ISSUED TO LOWER LEVEL:          0  ACCURACY: -nan
ITLB TIMELY PREFETCHES:          0 LATE PREFETCHES: 0 DROPPED PREFETCHES: 0
ITLB COMMIT LATE PREFETCHES: 0 MISSED OPPORTUNITY: 0 LATE IN PQ: 0 UNCOVERED: 0
ITLB COMMIT LATE MSHR PREFETCHES: 0
ITLB MPKI TOTAL: 0 MSHR LATE: 0 PQ LATE: 0 COMMIT LATE: 0 MISSED OPPORTUNITY: 0 UNCOVERED: 0
ITLB PREFETCHES SAME FILL-ORIGIN LEVEL: 0 DIFFERENT FILL-ORIGIN LEVEL: 0
ITLB AVERAGE MISS LATENCY: 9.99659 cycles
ITLB AVERAGE MISS LATENCY LOAD: -nan cycles
ITLB AVERAGE MISS LATENCY PREFETCH: -nan cycles
ITLB AVERAGE MSHR OCCUPANCY: 0.00133939
ITLB MSHR FULL: 0
ITLB RQ	ACCESS:   35194024	FORWARD:          0	MERGED:    3940918	TO_CACHE:   31253106

DTLB TOTAL     ACCESS:   54977284  HIT:   54439528  MISS:     537756  HIT %:    99.0219  MISS %:   0.978142   MPKI: 2.68878
DTLB Test counter:          0
DTLB LOAD TRANSLATION ACCESS:   54977284  HIT:   54439528  MISS:     537756  HIT %:    99.0219  MISS %:   0.978142   MPKI: 2.68878
DTLB PREFETCH  REQUESTED:          0  ISSUED:          0  USEFUL:          0  USELESS:          0
DTLB USEFUL LOAD PREFETCHES:          0 PREFETCH ISSUED TO LOWER LEVEL:          0  ACCURACY: -nan
DTLB TIMELY PREFETCHES:          0 LATE PREFETCHES: 0 DROPPED PREFETCHES: 0
DTLB COMMIT LATE PREFETCHES: 0 MISSED OPPORTUNITY: 0 LATE IN PQ: 0 UNCOVERED: 0
DTLB COMMIT LATE MSHR PREFETCHES: 0
DTLB MPKI TOTAL: 0 MSHR LATE: 0 PQ LATE: 0 COMMIT LATE: 0 MISSED OPPORTUNITY: 0 UNCOVERED: 0
DTLB PREFETCHES SAME FILL-ORIGIN LEVEL: 0 DIFFERENT FILL-ORIGIN LEVEL: 0
DTLB AVERAGE MISS LATENCY: 13.5147 cycles
DTLB AVERAGE MISS LATENCY LOAD: -nan cycles
DTLB AVERAGE MISS LATENCY PREFETCH: -nan cycles
DTLB AVERAGE MSHR OCCUPANCY: 0.0125965
DTLB MSHR FULL: 1.41834e-06
DTLB RQ	ACCESS:   75568952	FORWARD:          0	MERGED:   20575026	TO_CACHE:   54993926

STLB TOTAL     ACCESS:    2481820  HIT:    2458019  MISS:      23801  HIT %:     99.041  MISS %:   0.959014   MPKI: 0.119005
STLB Test counter:          0
STLB LOAD TRANSLATION ACCESS:     612304  HIT:     588503  MISS:      23801  HIT %:    96.1129  MISS %:    3.88712   MPKI: 0.119005
STLB TRANSLATION FROM L1D PREFETCHER ACCESS:    1869516  HIT:    1869516  MISS:          0  HIT %:        100  MISS %:          0   MPKI: 0
STLB PREFETCH  REQUESTED:          0  ISSUED:          0  USEFUL:          0  USELESS:          0
STLB USEFUL LOAD PREFETCHES:          0 PREFETCH ISSUED TO LOWER LEVEL:          0  ACCURACY: -nan
STLB TIMELY PREFETCHES:          0 LATE PREFETCHES: 0 DROPPED PREFETCHES: 0
STLB COMMIT LATE PREFETCHES: 0 MISSED OPPORTUNITY: 0 LATE IN PQ: 0 UNCOVERED: 0
STLB COMMIT LATE MSHR PREFETCHES: 0
STLB MPKI TOTAL: 0 MSHR LATE: 0 PQ LATE: 0 COMMIT LATE: 0 MISSED OPPORTUNITY: 0 UNCOVERED: 0
STLB PREFETCHES SAME FILL-ORIGIN LEVEL: 0 DIFFERENT FILL-ORIGIN LEVEL: 0
STLB AVERAGE MISS LATENCY: 104.339 cycles
STLB AVERAGE MISS LATENCY LOAD: -nan cycles
STLB AVERAGE MISS LATENCY PREFETCH: -nan cycles
STLB AVERAGE MSHR OCCUPANCY: 0.00525179
STLB MSHR FULL: 0
STLB RQ	ACCESS:    2939740	FORWARD:          0	MERGED:     457920	TO_CACHE:    2481820

STLB Hit, L1D data hit: 0
STLB Hit, L2C data hit: 0
STLB Hit, LLC data hit: 0
STLB Hit, LLC data miss: 0
STLB STLB hints to L2: 0
L1D TOTAL     ACCESS:   77753717  HIT:   76614811  MISS:    1138906  HIT %:    98.5352  MISS %:    1.46476   MPKI: 5.69453
L1D Test counter:          0
L1D LOAD      ACCESS:   36281425  HIT:   35797080  MISS:     514158  HIT %:     98.665  MISS %:    1.33497   MPKI: 2.42172
L1D RFO       ACCESS:   39174313  HIT:   39123731  MISS:      50582  HIT %:    99.8709  MISS %:    0.12912   MPKI: 0.25291
L1D PREFETCH  ACCESS:    2297979  HIT:    1694000  MISS:     603979  HIT %:    73.7169  MISS %:    26.2831   MPKI: 3.01989
L1D PREFETCH  REQUESTED:    4655322  ISSUED:    4655314  USEFUL:     169584  USELESS:     434332
L1D USEFUL LOAD PREFETCHES:     169584 PREFETCH ISSUED TO LOWER LEVEL:     612719  ACCURACY: 27.6773
L1D TIMELY PREFETCHES:     169584 LATE PREFETCHES: 8586 DROPPED PREFETCHES: 0
L1D COMMIT LATE PREFETCHES: 0 MISSED OPPORTUNITY: 0 LATE IN PQ: 11214 UNCOVERED: 0
L1D COMMIT LATE MSHR PREFETCHES: 0
L1D MPKI TOTAL: 2.57079 MSHR LATE: 0.04293 PQ LATE: 0.05607 COMMIT LATE: 0 MISSED OPPORTUNITY: 0 UNCOVERED: 0
L1D PREFETCHES SAME FILL-ORIGIN LEVEL: 612719 DIFFERENT FILL-ORIGIN LEVEL: 0
L1D AVERAGE MISS LATENCY: 69.4297 cycles
L1D AVERAGE MISS LATENCY LOAD: 64.5589 cycles
L1D AVERAGE MISS LATENCY PREFETCH: 74.865 cycles
L1D AVERAGE MSHR OCCUPANCY: 0.0883091
L1D MSHR FULL: 2.2362e-05
L1D RQ	ACCESS:   46691186	FORWARD:          0	MERGED:    9242785	TO_CACHE:   36311235
L1D WQ	ACCESS:   39740638	FORWARD:    1137608	MERGED:     482921	TO_CACHE:   39257717
L1D PQ	ACCESS:    2327878	FORWARD:          0	MERGED:          0	TO_CACHE:    2327436

L1D UNIQUE REGIONS ACCESSED: 0
L1D REGIONS CONFLICTS: 0
L1D Cross Page Prefetch Requests: 0
L1D Same Page Prefetch Requests: 2487854
L1D ROI Sum of L1D PQ occupancy: 30248423
L1D PREFETCHES PUSHED FROM L2C: 0
48d2cd: 1
4cc4c6: 1
420fab: 1
60b1f9: 1
44581e: 1
4d6d6c: 1
4671c7: 1
4cfb02: 1
4573bd: 1
47bce7: 1
4c23d1: 1
5ee9b5: 1
60c908: 1
60a8c9: 1
45b652: 1
4d64ad: 1
4bdd2f: 1
45a54a: 1
4cbcdb: 1
4da955: 1
45b379: 1
45b12b: 1
609dbc: 1
4a83f7: 1
47d5a6: 1
4925ae: 1
47aa91: 1
45f3d6: 1
45dbc1: 1
420fd9: 1
4d919c: 1
60bc95: 1
4d646f: 1
60a717: 1
401cfd: 1
462ccc: 1
60a5a1: 1
60c235: 1
60b2e7: 1
4dde64: 1
4d6dee: 1
45b416: 1
5ef1c5: 1
50feb0: 1
4d6346: 1
4d7078: 1
4d7c32: 1
46578a: 1
47aa95: 1
5f1ee0: 1
60b0ca: 1
60c4d0: 1
60c285: 1
60c645: 1
60bc9a: 1
60c605: 1
60c7b0: 1
458c26: 1
41afbb: 1
60b7d7: 1
60b237: 1
4be618: 1
5f0581: 1
5f05c1: 1
45e1c0: 1
47a210: 1
47c7ad: 1
60c7ba: 1
466ca5: 1
47a7ee: 1
4d115a: 1
60b297: 1
48d0a8: 1
5eefa1: 1
46350b: 1
60c120: 1
60a7c7: 1
60b0ae: 1
609b7b: 1
413431: 1
4596fd: 1
60bb25: 1
479c15: 1
477e21: 1
470893: 1
47b24f: 1
5f2e31: 1
4cc541: 1
60ba27: 1
524878: 1
60a967: 1
45afee: 1
5eecb4: 1
462e33: 1
60c8d0: 1
4584a5: 1
60c685: 1
45abdf: 1
60af7a: 1
609a11: 1
4d709f: 1
458cb6: 1
418899: 1
60a779: 1
4d1072: 1
419b60: 1
5ef7a0: 1
4cce68: 1
50feac: 1
4cb630: 1
41881a: 1
60ba17: 1
5ef440: 1
60aafb: 1
412b2c: 1
60a70b: 1
4d2fd1: 1
60c3ba: 1
478488: 1
47c2cd: 1
469baa: 1
45b33b: 1
48d785: 1
45fe18: 1
609560: 1
462e6e: 1
47ab67: 1
5f1e6d: 1
60ba90: 1
47088f: 1
473b02: 1
46ce42: 1
60baa2: 1
60c04e: 1
5f057d: 1
5fa4c4: 1
60b687: 1
45f2c9: 1
60c8c8: 1
4dde4c: 1
5f2de7: 1
4d0625: 1
457219: 1
479b3d: 1
60a5b9: 1
479b41: 1
408d20: 1
609891: 1
4cce59: 1
4d308c: 1
47beb5: 1
47669d: 1
60c64d: 1
46ee50: 1
48baac: 1
45abe2: 1
60c491: 1
46c466: 1
4cb576: 1
60aff7: 1
47a941: 1
4ba9a1: 1
479e64: 1
4e102d: 1
470573: 1
60c640: 1
47c804: 1
469781: 1
4770ce: 1
4706fe: 1
60b77f: 1
60a917: 1
422a7a: 1
60c0d5: 1
4c580b: 1
418137: 1
60aeeb: 1
609050: 1
60b8d7: 1
422a9e: 1
4d2e0c: 1
45a23a: 1
478d62: 1
4c52dd: 1
4181fd: 1
60c845: 1
418064: 1
422a83: 1
6097f4: 1
60b827: 1
418060: 1
60bff0: 1
4698ea: 1
4d5685: 1
422a6b: 1
60a38d: 1
60972a: 1
60c00a: 1
422add: 1
60c612: 1
4dde60: 1
419014: 1
4c57b3: 1
60c0dd: 1
4c5817: 1
60c358: 1
457208: 1
4d925a: 1
60c805: 1
47dd9e: 1
4be484: 1
40a81d: 1
60c895: 1
60c6c8: 1
4dad8e: 1
60be76: 2
45b8c8: 2
479b36: 2
4d9200: 2
6067ee: 2
4d3182: 2
60b3e7: 2
60aa67: 2
4672b4: 2
46cfbe: 2
60c885: 2
4d2e31: 2
60b0f3: 2
60bcd5: 2
457dc6: 2
60c2f8: 2
60bae5: 2
60b927: 2
60c24a: 2
413294: 2
4d56f7: 2
60badd: 2
60b637: 2
60a2d3: 2
60ac07: 2
60c002: 2
60c3b5: 2
4d78b7: 2
60c80a: 2
60acda: 2
45b1fb: 2
45fd31: 2
5f0b40: 2
60a4ee: 2
50fb63: 2
4ce61c: 2
4c02b4: 2
4015b9: 2
418eef: 2
41afd6: 2
50fd75: 2
60c330: 2
60b349: 2
609a20: 2
45b0cb: 2
476e62: 2
4c2287: 2
60be1a: 2
60bef0: 2
60b8cf: 2
47aa40: 2
477ed0: 2
49c1e8: 2
45aaa1: 2
60bc4a: 2
4d375e: 2
4cab37: 2
463024: 2
5f1da7: 2
60a2cb: 2
4c5173: 2
4c43fd: 2
4ce287: 2
45d955: 2
47da8d: 2
4c24d7: 2
60b5e9: 2
4d6358: 2
60c812: 2
60bb98: 2
60b197: 2
60c328: 2
50954b: 2
60abb7: 2
5f0b2c: 2
60b0e7: 2
4bf71b: 2
4bea27: 2
609e4c: 2
4be665: 2
60a913: 2
4d6de4: 2
4cbc9d: 2
60c3ca: 2
60aa57: 2
4184f4: 2
47ab23: 2
60aa63: 2
4ca54a: 2
60c2c5: 2
4cd29f: 2
467196: 2
4996df: 2
4d8b63: 2
6099d4: 2
60bcd0: 2
46d1bb: 2
4c233b: 2
463a99: 2
4cc6b9: 2
498580: 2
4673fb: 2
48e352: 2
4d0508: 2
48d805: 2
48d827: 2
4a8460: 2
47c976: 3
4a48f1: 3
45b342: 3
5ee8d8: 3
475ec7: 3
60bf98: 3
60c489: 3
4111ae: 3
5d894c: 3
464eeb: 3
47b16f: 3
4014de: 3
523a49: 3
4dde99: 3
60bbf8: 3
45b72e: 3
4cd455: 3
60c44d: 3
4ca541: 3
4cc50e: 3
458413: 3
4672b0: 3
60c04a: 3
47dc09: 3
47b583: 3
475ec0: 3
4cd41e: 3
4d927c: 3
4d9267: 3
4d92fc: 3
46e500: 3
4a48f9: 3
60bb58: 3
45710f: 3
4a841a: 3
47b168: 3
459fe1: 3
60b62f: 3
5dda8d: 3
47de7b: 3
457d8b: 3
45fa3e: 3
421b01: 3
41b961: 3
45de66: 3
4b236e: 3
457e16: 3
4d1117: 3
5ce427: 3
4de2eb: 3
6073c3: 3
5d882c: 3
479930: 3
5d8848: 3
497cbd: 3
5d873b: 3
457f75: 3
5f0b52: 3
4111a7: 3
413457: 3
497ac8: 3
4c2353: 3
60c730: 3
4983f7: 3
609bf6: 3
609a03: 3
5d8945: 3
60beb5: 3
5f7c20: 3
4a48fc: 3
47b13e: 3
4e0f0d: 3
497edb: 3
46023b: 3
4d9207: 3
45b23a: 3
41c68e: 3
47b5d9: 3
4d92f9: 3
4c3eb1: 3
50fb3d: 3
50fc54: 3
4111aa: 3
60afa7: 3
4cc507: 3
498c9d: 3
413bec: 3
46c9f6: 3
5ef161: 3
4dfb17: 3
47bef0: 3
60abaf: 3
457223: 3
4589f0: 3
4d809b: 3
47b145: 3
60bf38: 3
4d603a: 3
457e20: 3
4644ea: 3
47d2eb: 3
476ed8: 3
60bb10: 3
60b0f7: 3
5dcc7f: 3
5dda90: 3
5de5e6: 3
46d8ab: 3
462d5e: 3
400480: 3
4dfb8e: 3
46e51c: 3
41a3a6: 3
4d307b: 3
4dd324: 3
608dbd: 3
498466: 3
5dcc86: 3
47b1ab: 3
60b537: 3
47b738: 3
467171: 3
4d160e: 3
5114d0: 3
60b387: 3
60bc90: 3
60bad0: 3
45af9f: 3
60c499: 3
47dec7: 3
47a7ab: 3
46d220: 3
47de8d: 3
45fe8d: 3
47debd: 3
4c2381: 3
4191fa: 3
41c692: 3
609b16: 3
60c2bd: 3
60c056: 3
4672ad: 3
459eb5: 3
4214e0: 3
4d6efe: 3
4d306a: 3
4ce5f7: 3
4d603e: 3
633507: 3
60c1e0: 3
4573ef: 3
47da31: 3
60c412: 3
60c68d: 3
46e518: 3
60c708: 3
4bdce5: 3
478f5f: 3
497cb0: 3
45a1a9: 3
477d6f: 3
60ad07: 3
421028: 4
4d0639: 4
609715: 4
45821a: 4
478693: 4
4be8e2: 4
4c4c22: 4
46d1fe: 4
60c840: 4
4ce35e: 4
45b3de: 4
60c508: 4
47dd96: 4
4d7dd8: 4
4d923c: 4
498a7d: 4
45b592: 4
4131f9: 4
45b5ff: 4
46c7b0: 4
45b345: 4
47d12d: 4
473c7a: 4
457e4f: 4
41bb9b: 4
4d5f4e: 4
5f067b: 4
4a86bb: 4
45a6ff: 4
479553: 4
478f37: 4
4600e0: 4
478f91: 4
60a4f2: 4
60c4c8: 4
4432cd: 4
46d023: 4
402081: 4
609d11: 4
47b596: 4
4785d9: 4
4d90a0: 4
460177: 4
4cfa55: 4
4a8404: 4
4d664e: 4
60bba0: 4
45f305: 4
46c7f1: 4
421b1c: 4
60b783: 4
426e0b: 4
60bec5: 4
6099a6: 4
60c3c2: 4
60bcdd: 4
6099d0: 4
60a7b7: 4
4c5800: 4
60ba23: 4
60c140: 4
60bdb8: 4
4573b2: 4
5f155a: 4
609823: 4
45982d: 4
476581: 4
4782bc: 4
60c378: 4
60c1fa: 4
4c9e6e: 4
47ab2a: 4
60c230: 4
4195ba: 4
4cd280: 4
60c3b0: 5
60be60: 5
4782bf: 5
60c118: 5
60c178: 5
479b57: 5
60c405: 5
60a907: 5
4bb802: 5
4ca986: 5
418ebb: 5
45b02a: 5
469e49: 5
42401a: 5
60b243: 5
609ff1: 5
4ac98c: 5
60a325: 5
47b9d4: 5
60bce5: 5
60c938: 5
4cdefe: 5
60c440: 5
4bdcd6: 5
60b8d3: 5
4c266d: 5
60c538: 5
60a8ea: 5
60bb1d: 5
60ae09: 5
60a350: 5
4da95f: 5
60b4e3: 5
4184c7: 5
4d6238: 5
45da4b: 5
4d63f3: 5
60b193: 5
60c60a: 5
47ca8c: 5
6098e0: 5
45c293: 5
5f0b79: 5
418f91: 5
412b66: 5
60bb90: 5
4ccdaf: 5
460785: 5
60ae2a: 5
479919: 5
60c600: 5
4cc867: 5
60c6d0: 5
476db0: 5
4adbe5: 6
4786ef: 6
450117: 6
459386: 6
44feb7: 6
46d89c: 6
47a944: 6
60c242: 6
60c400: 6
4d74f1: 6
4daf4b: 6
50fe7a: 6
463364: 6
60a4f6: 6
47869f: 6
609bac: 6
41bba5: 6
47d0bb: 6
47dd84: 6
60c8c0: 6
47b180: 6
60a34c: 6
4dd444: 6
478b1f: 6
47a948: 6
4d9213: 6
4df708: 6
45352b: 6
60c800: 6
6098b3: 6
609a91: 6
60a7c3: 6
4be628: 6
457fea: 6
60c4c0: 6
609b2c: 6
60c27d: 6
45ab9f: 6
45005d: 6
421a86: 6
609c11: 6
47906a: 6
4daefe: 6
4d5d51: 6
60c6c0: 6
4d1c06: 6
60abb3: 6
60c1b0: 6
421a9b: 6
4df8df: 6
4674ac: 6
4be5a3: 6
4bc251: 6
463ac4: 6
60a321: 6
60ae47: 6
609cb0: 6
4786bf: 6
609a00: 6
60ab8a: 6
60c2f0: 6
609c2c: 6
478a23: 6
41bba2: 6
60aea7: 6
60a329: 6
45939c: 6
621010: 6
41af5d: 6
5ee9c2: 6
41af6f: 6
478707: 6
4786fc: 6
478f16: 6
60bc10: 6
478fc0: 6
478703: 6
426e2d: 6
45b738: 6
45b2d6: 7
608e21: 7
5f0b5c: 7
469951: 7
4d74e5: 7
60c270: 7
4c3eb5: 7
4b8e50: 7
60ba1f: 7
4c4911: 7
476052: 7
4d8b91: 7
60a54e: 7
4d8b9c: 7
6097c1: 7
4ccdb4: 7
60a354: 7
4be9d5: 7
609aaf: 7
50fae9: 7
609da1: 7
4cd811: 7
60a2a4: 7
4be3d3: 7
4d922a: 7
60a576: 7
60c480: 7
476584: 7
6099a2: 7
462b4f: 7
408e84: 7
49ca91: 7
4ccdcb: 7
46c3c6: 8
47b9e0: 8
5ef157: 8
608dcf: 8
45de8d: 8
4cf59b: 8
5f07dc: 8
4d6003: 8
46737b: 8
60c040: 8
60bd10: 8
608d7c: 8
47b6bb: 8
4ba7f8: 8
418942: 8
46725a: 8
4df1f0: 8
609744: 8
5ef145: 8
60bdb0: 8
4a83fb: 8
608c41: 8
60b4e7: 8
4d04ec: 8
45731d: 8
418511: 8
60b787: 8
60a10e: 8
457136: 8
60a125: 8
60a51d: 8
60a2ff: 8
476037: 8
60c2b5: 8
60c0d0: 8
4d8a56: 8
478071: 8
60bf30: 8
5f0b37: 8
450055: 8
47c820: 9
60ae4f: 9
4674e8: 9
457520: 9
47c842: 9
60c760: 9
609922: 9
5ee88f: 9
476df0: 9
476dc5: 9
609c91: 9
4abf0a: 9
4d140f: 9
5f0b30: 9
5f0b16: 9
4d37d7: 9
60a348: 9
46d676: 9
60c320: 9
60c780: 9
609d2c: 9
479929: 9
608ee1: 9
60a7bf: 9
609e31: 9
60b4df: 9
4cc6e7: 9
608be9: 9
4572f4: 9
4d1413: 9
5f0728: 9
609b96: 10
60ada7: 10
4b9b62: 10
4d8144: 10
46451d: 10
4d8b20: 10
6097f0: 10
608e75: 10
60be2a: 10
60bd80: 10
465809: 10
60a310: 10
60c680: 10
60a32d: 10
4b8fee: 10
4cc5f5: 10
4dadce: 10
60b393: 10
46c3ab: 10
5f0900: 10
48d63b: 10
46d862: 10
478465: 10
45b33e: 10
60beb0: 10
60be10: 11
4c6ba7: 11
4a859f: 11
5ef14d: 11
5df41c: 11
60ae53: 11
4d91f2: 11
475f49: 11
4d922e: 11
4d9279: 11
457ec1: 11
6097e3: 11
60a79a: 11
60a5dc: 11
477dc5: 11
4c7847: 11
4766c9: 11
60c390: 11
4644f3: 11
60ad9f: 11
463960: 12
47c9a1: 12
60c370: 12
609edc: 12
46f2c0: 12
4671ce: 12
4da9a7: 12
4bf6d0: 12
46598a: 12
4d0bdc: 12
4766b1: 12
4ac9be: 12
462dd0: 12
60bf60: 12
4d63ce: 12
5f07fa: 12
45aff2: 12
457145: 12
467bb7: 12
4cd4e8: 12
4c4e70: 12
4d7eec: 12
475f2d: 13
406f96: 13
42805d: 13
47b229: 13
465884: 13
50faeb: 13
457f0f: 13
4bafe5: 13
4be722: 13
4570bf: 13
457201: 13
464b74: 13
464435: 13
46c471: 13
46c422: 13
4674ce: 13
60693b: 13
5f1db9: 13
4d8136: 13
476f02: 13
420d35: 13
4989d9: 13
60c900: 13
60c2b0: 13
45b17c: 14
412b63: 14
41b1e2: 14
46f1e3: 14
46f515: 14
609913: 14
459c67: 14
498c0f: 14
46f1fe: 14
46f541: 14
4be6fd: 14
47aa54: 14
46f53a: 14
608cb8: 14
411313: 14
47c9b5: 14
45b175: 14
41d36f: 14
46f24f: 14
60a541: 14
476711: 14
41d35b: 14
45d919: 14
47aa50: 14
46f4fe: 14
46f78d: 14
464918: 14
46fa93: 14
5f1daf: 14
46f544: 14
46d7cc: 14
60bb50: 14
457364: 14
4d7efd: 15
46b0c7: 15
498a4a: 15
427f62: 15
498a76: 15
4593c4: 15
5f3095: 15
45b1fe: 15
47c9f8: 15
476151: 15
5f172c: 15
6098a2: 15
60c350: 15
4184ee: 15
609751: 15
46c3cd: 15
46c855: 15
45d958: 15
464910: 15
49ca9f: 15
49efe5: 15
47698d: 15
60c930: 15
427f46: 15
4ccd1d: 15
4457fc: 15
60ada3: 15
49ec45: 16
60aa3a: 16
4b0b85: 16
608c8c: 16
46f257: 16
5f0951: 16
4b001a: 16
4d1c7f: 16
4be3c9: 16
475f34: 16
460e73: 16
606920: 16
609820: 16
4da962: 16
4be3e8: 16
4d7ef4: 16
4baf4b: 16
41d369: 16
46f254: 16
4646b2: 16
60ad9b: 16
41d361: 16
5ee9a3: 17
608d0a: 17
45b202: 17
4d1407: 17
476ec0: 17
475f57: 17
4b2fbf: 17
4a7029: 17
60a3c4: 17
4764ec: 17
60c500: 17
4ac9d6: 17
4be3ce: 17
45fef7: 17
476040: 17
4b9c85: 17
4d9779: 17
4b6171: 17
478b25: 17
4a7a66: 17
4a702d: 17
49f448: 17
46f202: 17
49ef05: 17
4780a5: 18
60a56a: 18
478b22: 18
4d8e35: 18
47b3d1: 18
498a64: 18
60aba7: 18
41c66c: 18
4a84a8: 18
4739ff: 18
4ddbb6: 18
60a530: 18
60ae57: 18
4d9768: 18
4d8e3e: 18
4a8530: 18
4d1075: 18
45919d: 18
5ef0f1: 18
408a7f: 18
458e50: 18
608b90: 18
60a224: 18
469910: 19
46444c: 19
47c499: 19
4d7d30: 19
4d09c7: 19
5f06bf: 19
4d8100: 19
60a00c: 19
476284: 19
476842: 19
4c5119: 19
4781c6: 19
47c9a8: 19
4a847b: 19
4a84f0: 19
498a8a: 19
5f2dca: 19
4baf72: 20
401ff7: 20
45da7e: 20
4d920a: 20
4798e2: 20
4a785b: 20
4268e0: 20
4d0c08: 20
47956d: 20
46c377: 20
4c467f: 20
458c55: 20
45db6e: 20
60c700: 20
4a2bd6: 20
4a523a: 20
4a84fc: 20
606840: 20
478efa: 20
40288c: 20
48ab54: 20
4cd600: 20
460e87: 20
608b93: 21
459d2f: 21
484431: 21
48ab50: 21
4bee24: 21
48a9de: 21
60a56e: 21
47b4e4: 21
4da99a: 21
60a546: 21
408d41: 21
4be828: 21
47aa3d: 21
484296: 21
45ddb2: 21
45b392: 21
47c9ac: 22
427930: 22
4a844a: 22
4cc4c0: 22
4cc5ca: 22
47aa47: 22
464419: 22
407423: 22
4d5d36: 22
45aa9e: 22
46d160: 22
4996d8: 22
4d095e: 22
5f0743: 22
443845: 23
4d0965: 23
5ef197: 23
4017aa: 23
47aaac: 23
60a0ac: 23
4bab55: 24
60bbf0: 24
608ff0: 24
4ce2a6: 24
5f3080: 24
47b4d9: 24
4be9bc: 24
47c9e6: 24
60c580: 24
45ddc0: 24
5f171d: 24
4112de: 25
458d3d: 25
476980: 25
47b8ba: 25
445a27: 25
4d2dd9: 26
401f44: 26
60c110: 26
418b1d: 26
60c530: 26
4cb1c6: 26
4782ff: 26
47b635: 26
60bbc0: 27
4bd344: 27
4bdf15: 27
45839b: 27
60a232: 27
4b9c6e: 27
5ef429: 27
44381d: 27
42798a: 28
4be5ac: 28
46fecc: 28
4184a4: 28
4d8b79: 28
41900e: 28
40187f: 28
4d8b6c: 28
608eab: 29
40159a: 29
60c190: 29
6097d6: 29
4d76bd: 29
4d8165: 29
4d7927: 29
5f07a8: 29
464e97: 29
47d29d: 29
60a572: 29
46b0ab: 29
45b2ef: 30
4675a5: 30
408d36: 30
4e05df: 30
47b9c0: 30
47c9e9: 30
46750e: 30
4e0b20: 30
401879: 30
407c13: 30
460076: 30
4cbca3: 30
4785ad: 30
60a54a: 30
458227: 30
479c21: 31
41915e: 31
46f2c9: 31
60c7a0: 31
5f0aa7: 31
4015a7: 31
4781bb: 31
4210b3: 31
46f289: 32
5f30e2: 32
498ca6: 32
46f216: 32
5f0b10: 32
6097d2: 32
47684e: 32
4196c3: 32
606843: 33
45b5e2: 33
4c46a6: 33
4a3081: 33
49d1eb: 33
4bb039: 33
4b8f11: 33
46d81f: 34
45acc4: 34
4782fc: 34
60bfb0: 34
44592c: 34
5f0b91: 34
47b6bf: 34
4c5850: 34
4b4765: 34
476eed: 34
4989dd: 35
47671e: 35
4136ca: 35
4a86d3: 35
4d5ffc: 35
4136eb: 35
49ae9b: 36
4d7657: 36
41364e: 36
45b2f2: 36
4079a4: 36
5ef11a: 36
476c75: 36
478632: 36
4d76c7: 36
4a7819: 36
4792a9: 37
4d74da: 37
414a20: 37
421b11: 37
47397e: 37
476fe9: 37
4a23f3: 37
473a03: 37
4b0518: 37
473ac3: 37
4d646b: 37
4a7816: 37
467456: 38
4c5006: 38
418be9: 38
413254: 38
45b1af: 38
41b003: 38
414983: 38
46c48f: 38
4582e3: 38
46d859: 38
46fe99: 38
4673b4: 39
4a8559: 39
4673ff: 39
4d8148: 39
477d72: 39
46d817: 39
428aa6: 39
467422: 39
4673b0: 39
467383: 39
4582dc: 39
4675e3: 39
41133a: 39
46d810: 39
46d824: 39
4582f5: 39
4b8fd3: 40
4766ec: 40
47cba1: 40
417fb4: 40
4bc23c: 40
60bf90: 40
4cc571: 40
4643f1: 40
46d0f2: 41
4be8e6: 41
4434ec: 41
45c2df: 41
50fbaa: 41
4c25f9: 41
60a20b: 41
608e90: 41
473b36: 42
4d814d: 42
477fa0: 42
4d76d2: 42
4d318f: 43
4a849f: 43
5ee99d: 43
41b02a: 43
46d899: 44
5f0b06: 44
50fde8: 44
608df7: 45
418493: 45
478199: 45
608ce0: 45
4c5c33: 45
608f17: 45
50feba: 45
459c5d: 46
60c170: 46
5f2db5: 46
5f0c66: 46
47d232: 46
608de2: 46
608d34: 46
475f6c: 46
608e4b: 46
5f0b1b: 47
4bbd22: 47
476f30: 47
608c11: 47
473bfc: 48
60bdf0: 48
47d148: 48
5ee8ef: 49
609ec1: 49
46d855: 49
5ef1a9: 49
49ef94: 49
4d8ed5: 49
419b3b: 50
60c980: 50
5fa258: 51
4184e0: 51
5f069e: 51
4cb1b7: 51
4dcd92: 51
5f783a: 51
5ee98b: 51
41b044: 52
476ab9: 52
609a24: 52
608e36: 53
498caf: 53
45a702: 53
427934: 53
465879: 54
4d6450: 54
60a1f0: 55
479c25: 55
4d63e7: 55
608c56: 56
608efc: 56
608ccb: 56
4457d4: 56
608d1f: 57
401897: 57
47bd5c: 57
41afcb: 57
608bfc: 57
41a4ca: 57
6068dc: 58
6068bd: 58
4cd163: 58
47c565: 58
473b31: 58
4cc548: 58
46441c: 58
4d8f00: 58
5f306c: 58
47a598: 59
402015: 59
5ee8e5: 59
402872: 59
402890: 59
5f0786: 60
5ee993: 60
41bc99: 60
445d9d: 61
4c2377: 61
469f13: 61
5f3055: 61
4783d4: 61
4d321b: 61
402011: 61
5f07c0: 62
463ac7: 62
5ef0df: 62
47dd5f: 62
421b15: 63
45fefb: 63
47c814: 63
498bea: 63
459c6b: 63
41193a: 63
4ba381: 63
478e95: 63
4bc148: 64
464edc: 64
609ea6: 64
418c00: 64
45a679: 64
608ec6: 65
419ad0: 65
40a592: 65
50fb6f: 65
609726: 65
49ecf2: 66
477f4d: 66
60a27e: 67
608c26: 67
46d6c4: 68
4c784b: 68
476941: 68
45aaa9: 68
608e0c: 69
47d38b: 69
478d65: 69
47b391: 70
6068e3: 70
5f071f: 70
5f06b0: 70
60c960: 70
5ef02c: 70
4dce34: 70
4cd14d: 70
478ae0: 70
4dd404: 70
417e31: 70
45c329: 71
47d2a8: 71
5f309e: 72
4a8709: 72
4c4ed9: 72
4b944b: 72
46c405: 72
4d8a5a: 72
45818d: 72
47d1df: 73
608f32: 73
4bb2d5: 73
4cd425: 73
50fd3d: 74
443772: 74
4658ef: 74
473c00: 75
4d8fa1: 75
401710: 75
46cc0e: 76
608cf5: 76
411756: 76
476a8e: 76
46c8b0: 77
45a67c: 77
46c8b9: 77
5f0730: 77
45aba2: 78
4996a2: 78
608d49: 78
4646d8: 78
4d63db: 78
4c5b80: 78
46715f: 79
5eefdb: 79
6068b9: 79
4b93ec: 79
41961c: 79
4cf75e: 79
608e60: 79
47670e: 79
4d2e1d: 79
60c560: 79
408d39: 80
45c21b: 80
445787: 80
4989c8: 80
463950: 81
4c5908: 81
479b24: 81
473ad1: 81
462dac: 82
45b73c: 82
4c4971: 83
60b247: 83
47aabf: 83
47c578: 83
469c14: 83
476ec4: 84
479ae1: 84
46d05f: 84
4d8f94: 84
60bc30: 85
46d35b: 85
476d20: 85
420809: 86
47b244: 86
4bd2d0: 87
408a73: 87
609991: 87
60a261: 88
401883: 88
476db3: 88
402049: 88
4b1917: 89
606826: 89
473832: 89
5f07c4: 89
4c4cbe: 89
4210c0: 90
47682e: 90
4d8f27: 90
46d35e: 90
4bd977: 90
46714f: 91
4d8b4e: 91
4d90f1: 91
47666a: 92
476e4a: 93
4120c5: 94
5ef1df: 94
49ce86: 96
4208bf: 96
45b1b2: 97
4d5fff: 98
609740: 98
4cd608: 99
5f1d3d: 99
4a8457: 99
47b190: 100
49ce8a: 100
4bedb9: 101
4bbd1e: 101
47b9d7: 102
60bdd0: 102
4996cf: 102
4c2348: 102
4434cc: 103
477f4a: 104
4b04fa: 105
4d6202: 105
479557: 105
5f1ead: 105
41afde: 106
46ee8f: 106
408aec: 106
4d073e: 107
60900a: 108
60bfd0: 108
476fbb: 109
4d5f18: 109
47d2a4: 111
4afeb1: 111
476dc9: 112
479b30: 112
47c90c: 112
4a253a: 113
4117cb: 115
46730b: 116
47b541: 116
408a69: 117
4c5821: 118
49caa5: 119
476dbe: 121
476854: 121
47c938: 122
41a3d1: 122
4d073b: 123
47b252: 124
5f0af9: 125
44591c: 125
5f2d46: 127
4ba508: 128
5f0c31: 128
60a28c: 129
46d8a0: 129
4c7a7b: 130
50fcb4: 130
478063: 131
477fbf: 132
4994bd: 132
418931: 132
4bb7f6: 132
4d74e8: 133
41a3fc: 133
60c9a0: 134
4700d2: 135
47c7f2: 135
49ca95: 137
46d893: 139
477fb3: 140
4d8d08: 140
4cd505: 140
4cf714: 141
4739b7: 141
4cf76f: 141
4d8a63: 142
47d20e: 143
5f1d5f: 143
476dd8: 143
46c859: 143
4764bf: 144
608ffc: 145
5f1d82: 145
4cbcdf: 146
5f0a80: 147
4434b7: 149
478015: 149
5ef020: 149
476abd: 150
4596cf: 151
45aaad: 151
46440f: 153
60c5a0: 153
4cd4ec: 155
45fed0: 156
47de2b: 156
45c2fc: 156
4ba4e0: 157
4bf7ce: 158
47b8fd: 159
4761ac: 159
476e43: 161
46c444: 162
479572: 163
40205c: 163
47ab60: 165
47d555: 166
4d3815: 167
4c585c: 167
5ef19f: 169
45fe94: 169
47b3d5: 170
4ba4f9: 171
408ac3: 171
609018: 171
445929: 171
478b10: 173
4d5f47: 174
5efad5: 176
41bb21: 178
41b157: 181
47650e: 181
479e3b: 182
476845: 182
60bfe0: 183
46c4f5: 183
5f30a2: 190
4bb03f: 191
4644f7: 191
408a76: 191
50faa2: 193
445935: 198
4d6349: 198
41b153: 199
4bd2e5: 200
4bb7f9: 201
4c5841: 204
5ef076: 207
408d23: 207
46712d: 209
5f04be: 209
41a3ef: 209
4cc5d1: 209
445d55: 210
60c1c0: 213
428f5a: 213
47db20: 216
49caa2: 217
45738e: 217
6068b2: 217
45aff5: 218
45b809: 218
4cf847: 219
476002: 219
4c64b6: 221
47a6ca: 223
419339: 223
443760: 224
4c5c89: 225
4d3189: 225
418b55: 226
479bdd: 227
4765d9: 228
4bac41: 230
421a7d: 232
4ccb0a: 233
479c56: 233
4c59b4: 236
4761a9: 237
4d0680: 238
445d67: 238
458191: 238
50b025: 239
47aa0f: 241
4c6bb5: 242
4a86ab: 243
47d2de: 243
50fc30: 244
4ccb06: 247
41a363: 248
60a240: 249
476129: 249
4cf6ce: 250
47660b: 251
4cc5ec: 253
4bb03d: 254
445911: 255
4698c3: 256
457141: 257
4d76ca: 261
60c3a0: 261
4d8eab: 262
476719: 264
46c778: 264
401ffa: 265
4d9000: 266
478cc9: 266
4d5751: 267
47a217: 270
5f0c7a: 273
47d1aa: 274
41193e: 276
478aa0: 276
46713a: 281
4996b4: 283
46cb49: 286
4ccaf5: 286
4cd958: 287
5f2621: 288
47a96d: 289
4dae84: 296
4cd17a: 303
608ba4: 303
467136: 307
476fe5: 307
4cb634: 307
41ada8: 310
46c2b2: 311
4c39e0: 313
4c580f: 314
479a9c: 317
5f25d4: 320
4208fc: 321
463c74: 321
4195f4: 321
443656: 323
417f3c: 324
420904: 324
44376a: 325
4bac47: 325
47b217: 326
5f25e9: 326
45afa2: 327
5f0668: 330
463b93: 330
4bede2: 333
478165: 337
412243: 338
445915: 339
47b8bd: 342
47c9e0: 344
476984: 345
428f94: 345
4d3131: 346
5ee966: 348
5ef001: 350
4c38f4: 350
4781ca: 351
4118cb: 352
412246: 352
47da1c: 358
4cf707: 361
5f2d24: 361
5f048e: 362
5f06ab: 363
44366d: 364
4003f0: 372
4c3701: 372
47dd28: 373
5114d7: 373
47c90f: 376
4195c1: 379
411752: 381
50fcc1: 381
4761f9: 384
50fa96: 385
4d8ed9: 385
44588b: 386
4cc700: 386
45720b: 392
5f2c20: 394
428a69: 399
4195cd: 399
445d5e: 401
443653: 402
5ef0fd: 406
44364f: 406
476271: 409
476e11: 409
4bacb7: 419
4d37d4: 420
5f0abf: 420
50fcf1: 427
47dc0c: 429
4c4cc2: 430
5f25c0: 431
4bc615: 434
479ba6: 435
476147: 436
4c36fa: 450
47b57f: 451
4c2563: 454
4d8b68: 454
4cd05b: 458
4c3705: 460
4d8aa5: 462
4d8f2b: 463
4c581c: 466
475fc2: 468
4d8ee2: 480
476629: 482
41bbd3: 483
476f34: 483
50fc10: 485
458194: 488
5ef18b: 493
4c5c2d: 494
47620c: 498
41ae81: 498
5f0c4b: 502
478f3a: 502
4bb317: 509
4d57ca: 517
5ee975: 519
47b8e0: 519
46ff08: 526
4b9572: 531
47a9ff: 535
476df7: 538
4208f0: 539
479aff: 541
4d080b: 541
4208c2: 552
4baba6: 553
50fbd6: 568
4beddd: 575
4c2362: 575
47cbdd: 576
5f0c1c: 581
476e4d: 586
4cc704: 588
4cd433: 592
419040: 595
477ff2: 598
478b14: 599
4d3044: 607
47aa12: 624
418a50: 630
4cb3ec: 640
5f25a9: 648
47b8a0: 652
47d3cb: 667
5f1d8d: 668
4003a0: 669
60be00: 674
47a963: 682
417f48: 683
5f0523: 689
4bbd11: 693
47c9ed: 695
476221: 696
475f40: 698
4cfa06: 701
50fc05: 713
476008: 715
4c5911: 715
47642b: 719
4cc872: 721
41a453: 722
4da99e: 723
45b58f: 728
476113: 736
475ef3: 748
4d0837: 748
477f07: 760
418b44: 767
50fa8b: 775
47aa15: 779
4c5b85: 784
49c93b: 794
4cf564: 814
47b3e8: 818
4d5f21: 851
47d25c: 852
47601c: 853
4cc9b5: 871
479af5: 891
41a53c: 923
4600e3: 965
60a1d3: 970
5eefef: 975
47aa04: 979
4dcaf9: 987
470059: 993
475f06: 1017
477003: 1039
47cba9: 1043
47623f: 1056
419ac0: 1062
419ac4: 1073
5f0535: 1079
476ff0: 1132
4dad84: 1155
475fd0: 1163
475fcc: 1164
479b27: 1180
4d0742: 1193
47cd3f: 1197
4d8a67: 1209
4d63d5: 1243
608b7d: 1245
476080: 1245
50fcc4: 1274
4d56f4: 1306
4d075a: 1307
47dd59: 1311
4ce30b: 1327
476133: 1341
4d6457: 1341
41b15b: 1350
4b8e8a: 1351
47b8a4: 1391
421020: 1403
4b8eb0: 1424
42100a: 1432
41b037: 1479
4cc639: 1481
479b03: 1487
418b21: 1515
5ee9c8: 1523
5f0544: 1530
5ee962: 1564
47dd63: 1620
41a470: 1636
418b00: 1660
47a692: 1764
476123: 1764
50fa9a: 1828
47d275: 1850
47612d: 1853
4d5f4a: 1859
4195f0: 1865
4b8b99: 1879
47cd5a: 1935
477038: 1939
418d4a: 2044
4195dc: 2151
418bc4: 2154
477058: 2197
47616a: 2217
5f2c39: 2276
479c0b: 2278
418bc0: 2321
5f04b7: 2368
4d5793: 2383
4bab02: 2474
47d2e1: 2478
46ff9c: 2544
4d9100: 2554
41d350: 2596
4baacf: 2635
4c3a32: 2759
5f053a: 2797
418b3e: 2865
47cd43: 2916
4d7924: 3154
47d272: 3217
47a696: 3304
41a559: 3387
4d63df: 3526
47d251: 3760
47d24d: 3815
417f2a: 3896
4dcb84: 4006
475f82: 4058
4dca40: 4813
4cf81b: 4982
428f70: 5036
417f3f: 5936
418ae2: 7548
418b06: 8545
418b30: 10525
46ff30: 11615
4cc330: 113250
L1I TOTAL     ACCESS:   34973831  HIT:   34099478  MISS:     874353  HIT %:       97.5  MISS %:    2.50002   MPKI: 4.37176
L1I Test counter:          0
L1I LOAD      ACCESS:   34973831  HIT:   34099478  MISS:    1094545  HIT %:       97.5  MISS %:    2.50002   MPKI: 4.37176
L1I PREFETCH  REQUESTED:          0  ISSUED:          0  USEFUL:          0  USELESS:          0
L1I USEFUL LOAD PREFETCHES:          0 PREFETCH ISSUED TO LOWER LEVEL:          0  ACCURACY: -nan
L1I TIMELY PREFETCHES:          0 LATE PREFETCHES: 0 DROPPED PREFETCHES: 0
L1I COMMIT LATE PREFETCHES: 0 MISSED OPPORTUNITY: 0 LATE IN PQ: 0 UNCOVERED: 0
L1I COMMIT LATE MSHR PREFETCHES: 0
L1I MPKI TOTAL: 5.47272 MSHR LATE: 0 PQ LATE: 0 COMMIT LATE: 0 MISSED OPPORTUNITY: 0 UNCOVERED: 0
L1I PREFETCHES SAME FILL-ORIGIN LEVEL: 0 DIFFERENT FILL-ORIGIN LEVEL: 0
L1I AVERAGE MISS LATENCY: 18.4387 cycles
L1I AVERAGE MISS LATENCY LOAD: 18.4387 cycles
L1I AVERAGE MISS LATENCY PREFETCH: -nan cycles
L1I AVERAGE MSHR OCCUPANCY: 0.0330078
L1I MSHR FULL: 0
L1I RQ	ACCESS:   56040074	FORWARD:          0	MERGED:   20846050	TO_CACHE:   35194024

4d7401: 1
4188da: 1
4dc4a1: 1
47aeba: 1
422eb5: 1
50fd80: 1
4180c4: 1
48cae1: 1
476933: 1
462a2a: 1
4d8612: 1
4d7080: 1
45e4df: 1
42134f: 1
4d8864: 1
421290: 1
4be9d0: 1
4dc52d: 1
475f90: 1
47c1dc: 1
45e3a4: 1
4d7a80: 1
4d70c4: 1
45e103: 1
4d7124: 1
490eda: 1
490e90: 1
4629d0: 1
5fa540: 1
60bff0: 1
60c7b0: 1
422a40: 1
45e442: 1
45e401: 1
45e316: 1
45e1cf: 1
4d7e0a: 1
45e1a3: 1
4d62c1: 1
418099: 1
45e0c4: 1
45e08d: 1
45e041: 1
45e016: 1
418497: 1
47d3fb: 1
50b1a4: 1
50ff50: 1
4c7930: 1
476880: 1
47da40: 1
4d73c0: 1
418782: 1
4212c0: 1
50b080: 1
5f1f70: 1
47b11d: 1
4c7946: 1
5facd0: 1
4ce485: 1
470542: 1
609bdb: 1
422d6d: 1
4ba798: 1
418775: 1
477104: 1
4ddeef: 1
421302: 1
422a10: 1
45dfc0: 1
4ba701: 1
470501: 1
476740: 1
4d71c0: 1
422be4: 1
4dde81: 1
4dc1c0: 1
45e3da: 1
421380: 1
4d1642: 1
47b0dd: 1
5f2074: 1
4ccec4: 1
4c5281: 1
4d7140: 1
5f1f80: 1
420f40: 1
609fbb: 1
609fc0: 1
47aa8d: 1
50ff80: 1
5f2082: 1
4c799f: 1
5fa484: 1
47ab59: 1
470700: 1
5fa4c0: 1
4d85eb: 1
4707c8: 1
4d8541: 1
4d8530: 1
47085e: 1
470881: 1
4708c7: 1
47119d: 1
4d7060: 1
4cd025: 1
47aec4: 1
418140: 1
4ce420: 1
4ce440: 1
45e607: 1
45e5cf: 1
4ce4eb: 1
418040: 1
4181c1: 1
420f82: 1
60975f: 1
4d8893: 1
4d7380: 1
4d8825: 1
4d7451: 1
4d7480: 1
4d858c: 1
4d87f5: 1
4591d2: 1
4181bb: 1
4dc430: 1
490f00: 1
459227: 1
4cd5c1: 1
41a663: 1
4d10f7: 1
470444: 1
4704e6: 1
470580: 1
4d8689: 1
4706ec: 1
4d864a: 1
4bdf44: 1
45e481: 1
4d8a42: 1
4d9181: 1
50fb80: 1
45a9eb: 1
4c51e4: 1
420fc5: 1
4c52c0: 1
4ba4b9: 1
4d7d40: 1
4bdf80: 1
4dc440: 1
470420: 1
45e6eb: 1
45e640: 1
45e50f: 1
45e543: 1
4bdfc3: 1
4c5228: 1
422ece: 1
50b0c2: 1
45e211: 1
422a83: 1
5fa550: 1
45e251: 1
422ac3: 1
49108c: 1
4910c0: 1
45e284: 1
45e2d9: 1
4c5240: 1
4bf840: 2
4c6532: 2
418381: 2
419909: 2
48ddc0: 2
418571: 2
48d996: 2
4131eb: 2
41801b: 2
460108: 2
48de42: 2
4bea10: 2
479b7f: 2
4be770: 2
48d8c3: 2
45a880: 2
5fa520: 2
419a1e: 2
4ce2f0: 2
41b992: 2
4c2443: 2
498482: 2
48d7c6: 2
48c100: 2
60aa03: 2
4bba2c: 2
4c55b6: 2
48e407: 2
4199c4: 2
4beada: 2
418304: 2
4c7240: 2
418340: 2
48d785: 2
48e380: 2
4cc346: 2
45b483: 2
45b459: 2
4be785: 2
48e305: 2
4be8e2: 2
48db82: 2
48d901: 2
48d881: 2
48d843: 2
48d802: 2
48d9c0: 2
4bea80: 2
4c6541: 2
4d5781: 2
4beb42: 2
41b643: 2
4beb30: 2
476783: 2
419a41: 2
48e344: 2
4c1cfe: 2
45b420: 2
4c119e: 2
48e2f0: 2
4c7237: 2
4182b0: 2
4bf882: 2
418580: 2
4187e5: 2
5ef815: 2
48db4e: 2
4bf740: 2
60ab4b: 2
4c8a02: 2
48de00: 2
4bb944: 2
4c89fd: 2
4cca2b: 2
48dd82: 2
5df781: 3
5f7881: 3
4de890: 3
497cc5: 3
5def72: 3
4e0a33: 3
632e40: 3
4df3c0: 3
5df765: 3
633230: 3
6331c3: 3
5de7c2: 3
5ddf71: 3
41494c: 3
47bfcd: 3
4df900: 3
4de901: 3
4df383: 3
5f7c03: 3
5de440: 3
4df913: 3
5de483: 3
5f7c42: 3
5de542: 3
5f9410: 3
5dd940: 3
4bf75a: 3
4e0aff: 3
5de785: 3
4e14c9: 3
5ddec4: 3
46e540: 3
5df2c7: 3
47c1c3: 3
4925c4: 3
48d342: 3
49bdc6: 3
45ff4a: 3
5decc1: 3
413884: 3
411641: 3
48d143: 3
410d81: 3
4de8c3: 3
4e2129: 3
4d9302: 3
45fd41: 3
5ed2c5: 3
524181: 3
45a086: 3
5de4c0: 3
4a3b0a: 3
4a2e81: 3
523f02: 3
498202: 3
497c60: 3
5240c1: 3
497b20: 3
5deb70: 3
498580: 3
5f7bf0: 3
498450: 3
498400: 3
414659: 3
498243: 3
524082: 3
498185: 3
497a85: 3
48f150: 3
41b9a4: 3
406f4b: 3
48d68a: 3
48e560: 3
4983e0: 3
497eec: 3
634540: 3
5debb0: 3
4597c2: 3
459814: 3
6338da: 3
633501: 3
6334d0: 3
5df568: 3
633305: 3
6332b0: 3
5df3c0: 3
5dde43: 3
408b8d: 3
5dde16: 3
459783: 3
634502: 3
4c54cf: 3
5de2b0: 3
5de2c2: 3
5dec01: 3
5ddd50: 3
5debff: 3
5ddb90: 3
5dda80: 3
5dd216: 3
5dfc46: 3
5dd180: 3
5dccf9: 3
633440: 3
5dd9f0: 3
5deea2: 3
5de902: 3
5de942: 3
5df286: 3
5de9db: 3
5de745: 3
5de6c4: 3
5df255: 3
5de683: 3
5de646: 3
5de604: 3
5de5c8: 3
5dec94: 3
5dea34: 3
633416: 3
6333c0: 3
5deac7: 3
5dfb67: 3
5deb02: 3
411600: 3
5df800: 3
5df5a0: 3
5df480: 3
63360f: 3
633959: 3
45fcc1: 3
5ed310: 3
5e48c3: 3
5ebfa0: 3
5ebec2: 3
5ebe80: 3
5e4870: 3
5d8d41: 3
5e4880: 3
5e22c4: 3
4d15c9: 3
4d141c: 3
4d139b: 3
5d8b18: 3
5eb590: 3
45fc8c: 3
45fbd6: 3
45fa42: 3
45fa13: 3
5dde81: 3
47de80: 3
5fa401: 3
5fa3c0: 3
5de3be: 3
4285aa: 3
5de3c0: 3
5ddf81: 3
5d8842: 3
5dcf19: 3
5dcc41: 3
5dcc28: 3
5d8903: 3
5ded01: 3
5fad4b: 3
5d8887: 3
5df8c0: 3
5d8808: 3
633860: 3
497a46: 3
5df343: 3
5de11c: 3
428500: 3
5d8741: 3
5dd245: 3
5eb6e0: 3
5d8680: 3
6073c3: 3
478f54: 3
5d8645: 3
5d8790: 3
5d8604: 3
5d85e0: 3
5eb5c0: 3
5d8d0f: 3
45e988: 3
497d05: 3
5dcd03: 3
5d8721: 3
477ffb: 3
45ecd9: 3
4a3216: 3
5de581: 3
6332df: 3
411240: 3
5d8d81: 3
48dc40: 3
45b840: 3
5245c0: 3
60b550: 3
4d1603: 3
5d8940: 3
524540: 3
5e2303: 3
523d83: 3
4979f0: 3
4aff56: 3
5dcf71: 3
5d88c1: 3
45e860: 3
46cdb0: 3
49856b: 3
48e58c: 3
633881: 3
459084: 3
45b7ee: 3
5df456: 3
5df6a1: 3
45b0c8: 3
48d428: 3
5dcfd0: 3
4a4945: 3
63319d: 3
4df6c1: 3
5ddc28: 3
5df5d0: 3
4115c1: 3
460200: 3
411100: 3
5df402: 3
49bc83: 3
460281: 3
4601c3: 3
5ed2a0: 3
49bd80: 3
4e200d: 3
460740: 3
4b236a: 3
498282: 3
48d2c5: 3
408b40: 3
479d3c: 3
4769d1: 3
524100: 3
4dd440: 3
414900: 3
478fc0: 3
49bc00: 3
497a04: 3
4a4900: 3
5ce420: 3
4a5b31: 3
6073a0: 3
4a5200: 3
4a1384: 3
4a2e40: 3
59a9f0: 3
46232b: 3
497ac0: 3
50f8ea: 3
4dde88: 3
5dd124: 3
49bbc1: 3
459e84: 3
498b04: 3
524307: 3
6094e0: 3
5de704: 3
5de501: 3
48d463: 3
4a4981: 3
5fad0a: 3
524400: 3
609a80: 3
5de99b: 3
47df00: 3
5def80: 3
45f910: 3
505e89: 3
5243c3: 3
48d483: 3
5de8d1: 3
4cca5e: 3
45ec69: 3
45e880: 3
45e900: 3
45e8fb: 3
45e951: 3
45e9c0: 3
4145d5: 3
523b07: 3
4ad33a: 3
460800: 3
460840: 3
4a5b40: 3
523d00: 3
48e5c1: 3
459ed0: 3
4b22ce: 3
4aca82: 3
609500: 3
4acf96: 3
4a3b40: 3
492702: 3
4b151c: 3
4b8afc: 3
406c9a: 3
4acd81: 3
4acdf9: 3
5df8a7: 3
4cb5f6: 3
459095: 3
632df0: 3
609876: 3
5dd982: 3
4c4943: 3
524341: 3
523bf4: 3
4982c2: 3
45f940: 3
45ff15: 3
5deec1: 3
5ded60: 3
5dee70: 3
49bc41: 3
41384a: 3
5de800: 3
4767ca: 3
6090e0: 3
4acd6f: 3
5dd3ce: 3
4a750a: 3
4e0f07: 3
498307: 3
59f060: 3
4799a7: 3
523ec0: 3
524882: 3
524ac9: 3
479a4a: 3
48d329: 3
4df44e: 3
5eb7e6: 3
4c4936: 3
427485: 3
4148f0: 3
5dd144: 3
4ac0c0: 3
4c1d10: 3
5dd1c2: 3
462285: 3
5dd8d0: 3
4d1100: 3
5def10: 3
4282a3: 3
524241: 3
4e28c6: 3
5244c1: 3
460780: 3
45fd1b: 3
4d5d45: 3
49bd00: 3
410e00: 3
460190: 3
497c83: 3
4ace03: 3
5fa442: 3
458401: 3
477f8d: 3
479944: 3
632e0a: 3
5df606: 3
460241: 3
524500: 3
406cc6: 3
524641: 3
5df846: 3
50fd50: 3
4a49c6: 3
5ddf04: 3
48d6c0: 3
4df69b: 3
5e22a0: 3
476802: 3
4a48ee: 3
5dec42: 3
411038: 3
48d2be: 3
479900: 3
4770c6: 3
499070: 3
5df7da: 3
4138f2: 3
400480: 3
4a4b2d: 3
46c714: 3
4b22b5: 3
4a5082: 3
523ca0: 3
401d93: 3
6344d0: 3
5dcc86: 3
45ed4d: 3
4d6fc5: 3
479ac0: 3
609a76: 3
4799c0: 3
49bd45: 3
5dd900: 3
4a2425: 3
5de400: 3
47df81: 3
498344: 3
45ec10: 3
46e470: 3
46073d: 3
462334: 3
4b2305: 3
4de840: 3
4607f6: 3
4e09bf: 3
49bcc1: 3
459480: 3
5dda30: 3
524803: 3
5dda40: 3
4981c2: 3
479a27: 3
5ebf02: 3
457c41: 3
45f9c8: 3
498170: 3
4dc960: 3
4dded3: 3
458450: 3
47df7d: 3
47dec1: 3
4d3f81: 3
419244: 3
47de40: 3
523f80: 3
47aa4d: 3
4dc9e4: 3
4dca04: 3
4d6ef0: 3
5248c3: 3
524840: 3
457b00: 3
523e40: 3
457b88: 3
457c04: 3
523e01: 3
523dc1: 3
523d43: 3
5247c0: 3
413791: 3
47b280: 3
50fe81: 3
5fa383: 3
492550: 3
492582: 3
492604: 3
4926e3: 3
4028e1: 3
492744: 3
49279b: 3
408b01: 3
60a980: 3
524781: 3
41a3ae: 3
60a9c5: 3
46e78c: 3
46e707: 3
46e500: 3
46e4c3: 3
46edc2: 3
46e483: 3
4d701e: 3
4d6f45: 3
4d6f07: 3
4149c5: 3
523eb0: 3
411150: 3
523cd5: 3
523c52: 3
411180: 3
523a42: 3
523a00: 3
4111c6: 3
411200: 3
41bce0: 3
478bc2: 3
410f21: 3
41bddf: 3
413bc8: 3
413add: 3
413a50: 3
413904: 3
4110fb: 3
410f87: 3
410f40: 3
609541: 3
6091a0: 3
411570: 3
410df9: 3
524740: 3
524701: 3
5246c2: 3
524682: 3
524600: 3
524585: 3
524480: 3
4137c3: 3
410d70: 3
524441: 3
524380: 3
523c01: 3
5242c1: 3
524281: 3
410ed5: 3
524201: 3
5241c0: 3
524143: 3
524040: 3
524002: 3
523fc1: 3
523f41: 3
5fa450: 3
609880: 3
458220: 3
411581: 3
60b5c2: 3
414fd0: 3
60b583: 3
60ac20: 4
41b950: 4
60ac47: 4
60ac83: 4
6097a6: 4
60af43: 4
5f14c4: 4
47a8e9: 4
461657: 4
47c182: 4
458436: 4
401f82: 4
469a36: 4
5f1500: 4
4dde41: 4
608dc1: 4
60af05: 4
4ddd60: 4
45f3c1: 4
476211: 4
60acc1: 4
60c7c2: 4
4c245d: 4
4bf85a: 4
4bb582: 4
4cbcfd: 4
45f185: 4
47c10c: 4
47c0c0: 4
4c2480: 4
45f001: 4
4d6ec0: 4
45dd02: 4
47c140: 4
60b807: 4
60aec0: 4
46d75f: 4
60b7f0: 4
4ba009: 4
458440: 4
41b635: 4
426f15: 4
426f4e: 4
426f98: 4
426fc7: 4
45dd42: 4
45efc0: 4
45f049: 4
45f14b: 4
45f2c4: 4
45f2bf: 4
45f301: 4
45f3bc: 4
4bea21: 4
5fa4f0: 4
41b581: 4
41b483: 4
60b845: 4
4dde37: 4
41b445: 4
41b205: 4
47a70e: 4
5f14af: 4
60b882: 4
47c086: 4
4cac83: 4
4cac7f: 4
45dbc1: 4
47c200: 4
45db90: 4
45dc69: 4
426ca0: 4
47a941: 4
477ec2: 4
426cc0: 4
45dcfd: 4
4be9c1: 4
426e03: 4
426e80: 4
413286: 5
4ba26e: 5
608c77: 5
608c82: 5
4269c2: 5
4bf701: 5
60b483: 5
48c29f: 5
45da06: 5
60b445: 5
413446: 5
60b400: 5
47ba02: 5
41b57d: 5
41ba41: 5
41b9c1: 5
465220: 5
47a71e: 5
426989: 5
411353: 5
41ba2c: 5
4d06c1: 5
4582d0: 5
426960: 5
41924a: 5
60b010: 5
60b080: 5
4bea01: 5
4be3a6: 5
4ba490: 5
60c3b0: 5
4ba4c8: 5
45d9c3: 5
413438: 5
4c6ec7: 5
60b041: 5
4c765d: 5
4ce2e8: 5
462342: 6
478744: 6
4e100e: 6
462241: 6
5f0d00: 6
4be640: 6
465645: 6
477dcb: 6
50fe2d: 6
47d5d3: 6
60b187: 6
469842: 6
401f40: 6
4be613: 6
450100: 6
4d90c3: 6
60b1c3: 6
4d07c2: 6
450150: 6
407c45: 6
46d781: 6
4786c3: 6
506041: 6
478684: 6
60b160: 6
44fea0: 6
5fa341: 6
505f6f: 6
4ac841: 6
478640: 6
405480: 6
478943: 6
45924b: 6
407420: 6
478703: 6
4be3bb: 6
4d5e40: 6
47a54e: 6
4d2643: 6
45b0c1: 6
453460: 6
458e7b: 6
4dff50: 6
4534ae: 6
4d3f1f: 6
46581e: 6
45904d: 6
4112de: 6
4b9b80: 6
427ac1: 6
42839a: 6
458fae: 6
609bf6: 6
458e81: 6
478a41: 6
4cbd84: 6
478991: 6
4bb575: 6
4e1562: 6
4d8a82: 6
4d6041: 6
60b201: 6
4dd4c4: 6
4bf803: 6
4c2401: 6
458cb6: 6
4d09a0: 6
608ba0: 6
60b342: 6
4789de: 6
506008: 6
4df700: 6
505f07: 6
462210: 6
421e81: 6
478a1f: 6
47892a: 6
621010: 6
49e754: 6
422237: 6
422242: 6
60b2b0: 6
505e50: 6
60b9c3: 6
505ec1: 6
401f01: 6
4d6095: 6
4d26eb: 6
4187e8: 7
5eecc2: 7
4c3da9: 7
418500: 7
5ee902: 7
4246c2: 7
4246b0: 7
60c002: 7
60b741: 7
5fa500: 7
60b6c7: 7
476030: 7
45dc03: 7
48c4af: 7
609b80: 7
609b76: 7
609c00: 7
4185cb: 7
418642: 7
509541: 7
424701: 7
4c3a90: 7
426d02: 7
5eecb4: 7
60b703: 7
458590: 7
5ef78f: 7
467204: 7
60b940: 7
60b985: 7
418605: 7
60b2c7: 7
458484: 7
4c3d61: 7
4c3e40: 7
4c3c41: 7
4c3dc2: 7
4c3e10: 7
4c77bb: 7
4c60b1: 7
4c7ac0: 7
421543: 7
47a7a7: 7
60b305: 7
418b81: 7
60a141: 7
47cf3c: 7
60b6a0: 7
4585c0: 7
458575: 7
412590: 7
60ab42: 7
4583d0: 7
4c6100: 8
5f3200: 8
60c1e0: 8
4d92e6: 8
47d6c1: 8
47d737: 8
4d5a02: 8
4be710: 8
47b042: 8
4d8e45: 8
60a183: 8
608d80: 8
47b08a: 8
4be9f5: 8
4d7a0e: 8
4c5fea: 8
47d940: 8
4d9680: 8
424830: 8
50f7c0: 8
4770c4: 8
5fa304: 8
4bbcc0: 8
419200: 8
47d801: 8
5fa2f0: 8
4054c5: 8
4bbb7f: 8
4bbb82: 8
47a746: 8
4d9600: 8
4c60c1: 8
47d745: 8
48d605: 8
4c6004: 8
4c4851: 8
48d5fd: 8
4d9241: 8
609d00: 8
4c6441: 8
47d848: 8
4bc7c0: 8
609cf6: 8
4534c2: 8
47d91e: 8
515470: 8
424841: 8
479169: 8
47d7d4: 8
4bc281: 8
4ba784: 8
4cba64: 8
4ba763: 8
4bf8a9: 8
4d9200: 8
47d670: 8
47d685: 8
4d9282: 8
4d9657: 8
4184c3: 8
5f0b40: 8
47b004: 8
453580: 9
428396: 9
453540: 9
44fec0: 9
4055e3: 9
45a045: 9
4cc740: 9
450050: 9
4e0e04: 9
4e0703: 9
41881a: 9
47d613: 9
465502: 9
4190b1: 9
4654c1: 9
5f0aa7: 9
418e16: 9
4df840: 9
48d936: 9
407018: 9
4debef: 9
4dec00: 9
45b189: 9
406f81: 9
4b9b82: 9
60bd50: 9
4796d3: 9
405500: 9
47a7d7: 9
4e06d8: 9
4be6a0: 9
60c201: 9
465640: 9
41ab81: 9
4535c6: 9
45a071: 9
60b783: 9
48cb80: 9
4d3f1c: 9
60b7c4: 9
4192c0: 9
419284: 9
41abc2: 9
41ab40: 9
4dec93: 9
45b08e: 9
4d0b00: 9
609f81: 9
4df823: 9
60c880: 9
405603: 9
4c40be: 9
463b44: 9
465542: 9
60c640: 9
453502: 9
476d32: 9
60a781: 9
4ba002: 9
60ab03: 9
60aad0: 9
418942: 9
405552: 9
5fa282: 9
47cf43: 9
46549b: 9
47952c: 9
47cf94: 9
41914c: 9
47d086: 9
4c5a81: 9
48d728: 9
47d5a6: 9
4df240: 9
4190c0: 9
419129: 9
4191fa: 9
60c3c2: 10
41829a: 10
4020b2: 10
412cb5: 10
60b750: 10
407020: 10
4c45d3: 10
4de285: 10
50f5a0: 10
60a8c2: 10
407c40: 10
4c8bf8: 10
5f0881: 10
4191ad: 10
418480: 10
412d80: 10
509530: 10
60c2f0: 10
4652c2: 10
407c10: 10
406d70: 10
407959: 10
407984: 10
465282: 10
4c89c1: 10
4de347: 10
4de260: 10
4de2c6: 10
407bca: 10
60a6e0: 10
407040: 10
47c682: 10
47c76c: 10
60a707: 10
477114: 10
4bd403: 10
4079c1: 10
4c8a0e: 10
60a743: 10
60bc00: 10
4c8c03: 10
47c641: 10
4de315: 10
60bcd0: 10
4c6c12: 10
412cc0: 10
4bc20c: 10
4cfad1: 11
60be10: 11
459465: 11
4be7cb: 11
418242: 11
4be8b1: 11
60b600: 11
4d1d20: 11
4be846: 11
4be8c6: 11
4be81f: 11
60b645: 11
4be643: 11
60b680: 11
46f786: 11
4bbbc0: 11
60c300: 11
4bd3f1: 11
4bb18a: 11
50fec5: 11
4bc79c: 11
41821c: 11
4cb4f6: 11
4b966a: 12
457f40: 12
4240c0: 12
427fde: 12
462c47: 12
462b80: 12
462b46: 12
457edc: 12
60bd10: 12
462a40: 12
4da9c8: 12
457f04: 12
50b042: 12
457e81: 12
457211: 12
423fd0: 12
4275d7: 12
4274c2: 12
4280d0: 12
4182c1: 12
4596c1: 12
462a83: 12
418ec1: 12
428201: 12
60c343: 12
45de63: 12
459e3f: 12
4d1f17: 12
459e42: 12
469e85: 12
469f01: 12
4282a7: 12
50fe1a: 12
42858e: 12
424081: 12
459e04: 12
469e45: 12
428506: 12
4dec88: 12
42854c: 12
60b4b0: 12
469e24: 12
469eea: 12
4deb7b: 12
4deb80: 12
457ec1: 12
457e8c: 12
42400c: 12
467953: 12
424043: 12
4d1c40: 12
47ac02: 12
424144: 12
467900: 12
4bb001: 12
4bb077: 12
4be6c2: 13
4ca34a: 13
4be980: 13
4b972c: 13
476f9a: 13
412b10: 13
4bd3c3: 13
60bd80: 13
4c6c41: 13
406cdc: 13
419b4a: 13
4be972: 13
4c8881: 13
4c8868: 13
4c8902: 13
4c8940: 13
4be482: 13
4b98c0: 13
509b81: 13
509b73: 13
401f87: 13
4c89b9: 13
60a830: 13
60bcc3: 13
60b140: 13
4d58ce: 13
4bea63: 13
4b9941: 13
4b9902: 13
412b41: 13
4b988a: 13
498c81: 14
4be5c0: 14
4c4083: 14
4c4150: 14
60a10e: 14
4b9693: 14
4be5a0: 14
5ef142: 14
50f807: 14
60bf40: 14
5f0900: 14
4d9170: 14
498bc1: 14
60a847: 14
60c0d0: 14
4d8c14: 14
60b0c0: 14
4c6ae1: 14
4c57c0: 14
4698c0: 14
60b105: 14
60c0c1: 14
4696c9: 14
469873: 14
479b89: 14
4283c0: 15
457380: 15
4ba69e: 15
46af44: 15
45b2c1: 15
4bdf02: 15
5f0984: 15
60bd40: 15
41ae42: 15
4c1d36: 15
45a180: 15
4284da: 15
4ba648: 15
45b240: 15
4c3ec4: 15
4beb2a: 15
46af1c: 15
4d9193: 15
60adc5: 15
45ee49: 15
4dff48: 15
4282c1: 15
465632: 15
464b80: 15
408dd0: 15
445780: 15
60c4c0: 15
60b501: 15
428424: 15
45a080: 15
4cd441: 15
45a49a: 15
60b4c7: 15
4bcf68: 15
609f51: 15
4be000: 15
443207: 15
427441: 15
4bdee2: 15
4d2123: 15
46487b: 15
464e86: 15
4be443: 15
45edc0: 15
427e80: 15
4d1fc1: 15
427e30: 15
42782f: 15
45a304: 15
45a417: 15
60a5d5: 15
60bef0: 15
4c4070: 15
427e50: 15
60a885: 15
60bf01: 15
45a52b: 15
427420: 15
4d2074: 15
609e31: 15
4281ea: 15
45a543: 15
427f46: 15
60c100: 15
4594c0: 15
4df202: 15
4b9c01: 15
427f99: 15
4593c4: 15
45a2d1: 15
4b971d: 15
4df729: 15
428090: 15
45ee80: 15
4c3f12: 15
50fda2: 15
427f3a: 15
4ba6c7: 15
4285c7: 15
464b60: 15
4e17a5: 15
428040: 15
464b00: 15
4649bf: 15
4649c4: 15
464883: 15
45a340: 15
464900: 15
45a443: 15
45ee01: 15
4d1d68: 15
4c4170: 15
45a241: 15
45a20c: 15
427ec0: 15
45a1dd: 15
45a160: 15
41a599: 15
609e41: 15
427bc1: 15
4a1344: 16
46f427: 16
46f247: 16
46f310: 16
60bd01: 16
406bd8: 16
470041: 16
406def: 16
46f4c0: 16
4b1716: 16
49ee79: 16
4a7345: 16
46f289: 16
458b44: 16
46f2c0: 16
4c42e0: 16
458acc: 16
47c7ad: 16
498b93: 16
408a1b: 16
4b9bc1: 16
46ff42: 16
49ed4c: 16
458ba5: 16
477e81: 16
46f132: 16
4a355c: 16
406b60: 16
4a3c01: 16
46ef90: 16
4a3c46: 16
46f758: 16
406b80: 16
4cc600: 16
49c85c: 16
4a61c0: 16
49ec94: 16
458a80: 16
46fe60: 16
60bc40: 16
41d3ac: 16
41d350: 16
4700b0: 16
46fe83: 16
4c4ed6: 16
4700c0: 16
47002f: 16
46ff9c: 16
46ff00: 16
4a30c0: 16
46fec1: 16
606920: 16
4a3580: 16
46f202: 16
46f1c0: 16
46f184: 16
46f140: 16
46efc2: 16
49f669: 16
46fa89: 16
46f472: 16
60bb42: 16
46f541: 16
4cac0f: 16
4a1244: 16
4b9c58: 16
4a32c1: 16
49ecc3: 16
4a3eb0: 16
49f0e0: 16
49f000: 16
406c00: 16
4a2541: 16
49ac4a: 16
4c4ad8: 16
4a131f: 16
4a3bcd: 16
50f8d3: 16
4b9231: 16
4b16c4: 16
4a2b41: 16
49e95f: 16
4b9245: 16
46f505: 16
49ee81: 16
4a88c0: 16
4a3002: 16
4a724a: 16
4a3ec2: 16
4a3e00: 16
4b8e40: 16
458b0b: 16
4a3c82: 16
4b8a51: 17
4b3d22: 17
49d283: 17
49f700: 17
4d6403: 17
4ad215: 17
49f0e6: 17
49b8c8: 17
4b5d7e: 17
4b3782: 17
49ed5e: 17
4b0b82: 17
4c434f: 17
4a5d8f: 17
4b333a: 17
4b3583: 17
4b35ff: 17
4b7745: 17
4a7bda: 17
4b7780: 17
4d2e50: 17
4ad6af: 17
4b4443: 17
4b64d8: 17
4ac0c7: 17
4a578b: 17
4b24c7: 17
4b375f: 17
4b6a23: 17
4b59a0: 17
4b5950: 17
49d2c8: 17
4ad2bb: 17
4a4b2a: 17
4b6509: 17
4b3523: 17
4a573a: 17
4ace42: 17
4b3b02: 17
4a5742: 17
4b4403: 17
4a3a01: 17
49ed03: 17
4a57c3: 17
4a5840: 17
4b3242: 17
4b3082: 17
4b5a02: 17
4ad131: 17
459200: 17
4ac38d: 17
4a3a93: 17
4ace2f: 17
4b3a4a: 17
4b3b44: 17
4a5303: 17
49f004: 17
4a7043: 17
60c090: 17
4a3bc1: 17
4a30cc: 17
4b397d: 17
4a3ac3: 17
4b6a42: 17
49d3c4: 17
4a3b00: 17
4a314f: 17
4b2593: 17
4a39c1: 17
4b2132: 17
4b3341: 17
427e0d: 17
4a3125: 17
4b3001: 17
49c7ef: 17
4ad620: 17
4b248d: 17
4a7781: 17
4b59db: 17
4aced0: 17
49b900: 17
4ad643: 17
4b5b4a: 17
4b34d4: 17
4a3a66: 17
4b23c5: 17
4b2403: 17
4acb81: 17
4acbc1: 17
4b0989: 17
4ad1ba: 17
4b2143: 17
4a58c5: 17
4b08b0: 17
4b3555: 17
4accd6: 17
4b5acf: 17
4b6554: 17
4b5f61: 17
4a3e22: 17
4b5f02: 17
4ad1c4: 17
49ed82: 17
4b4fa6: 17
49e6d3: 17
4acfd8: 17
4acb41: 17
4b28bd: 17
4b2181: 17
4a2400: 17
427dc6: 17
4b6e80: 17
4a72c0: 17
4b305a: 17
4a74f2: 17
4a5340: 17
4a7502: 17
4b6e41: 17
4a5804: 17
4b0cc5: 17
4b6dc1: 17
4b6bc1: 17
4b6fa1: 17
4b3e62: 17
4b76c4: 17
4b0b6e: 17
4b3147: 17
4b2f82: 17
4b5a44: 17
4a5eef: 17
4b7700: 17
4b40aa: 17
49e9c1: 17
4b33c2: 17
4ad301: 17
49b9d3: 17
49edc5: 17
4b6149: 17
4bdd83: 17
427d80: 17
4a701a: 17
49d263: 17
4a7086: 17
4a75b3: 17
4d8d29: 17
4b69c0: 17
4b6b81: 17
4b6b64: 17
4a7a0a: 17
4b6c03: 17
4ad2c3: 17
4b6dbc: 17
4acb29: 17
4a35a5: 17
4a8ac0: 17
4aca01: 17
45ebe1: 17
4ad7f2: 17
4a50ab: 17
49d404: 17
4b17c3: 17
4b5d83: 17
4ac404: 17
45ed81: 17
4a5257: 17
4be520: 17
4b2e80: 17
4a4b45: 17
4b5b11: 17
4ad241: 17
45eb8b: 17
4bb083: 17
4a70c0: 17
4b3603: 17
49d302: 17
4b1867: 17
49c800: 17
4a7c2e: 17
4b7141: 17
4b0804: 17
4ac3e0: 17
4a3e81: 17
418f1e: 17
4a5881: 17
4b6c40: 17
4b5a82: 17
4be4c0: 17
4be547: 17
4a3534: 17
4b3e84: 17
4b6181: 17
4b179f: 17
4a5bcc: 17
4a301c: 17
45eca5: 17
45ed00: 17
4b3237: 17
4591d8: 17
4a5f06: 17
4b08d4: 17
4a5c49: 17
4a8a80: 17
4b2395: 17
4b2ec5: 17
4b2f43: 17
4acd59: 17
4ac345: 17
4be3c2: 17
4a8a59: 17
4b095f: 17
4a521f: 17
4a5c81: 17
4b69a4: 17
4b4ec0: 17
5ef0ad: 17
4a5b76: 17
4be404: 17
4b3381: 17
4b6b1b: 17
4a395f: 17
4b3412: 17
4a7b05: 17
49f441: 17
4a4226: 17
4b6581: 17
4a5900: 17
4a7ad2: 17
4a3545: 17
4b2f02: 17
49e983: 17
4b4752: 17
4b5fd8: 17
4ad142: 17
4ac9c6: 17
609c11: 17
4b28c4: 17
4b2587: 17
4b2862: 17
4b7132: 17
4b2fc6: 17
4a8b01: 17
49f652: 17
4b6d20: 17
4b3980: 17
4beb80: 17
4e0a68: 18
458ee7: 18
60be43: 18
45a0da: 18
4ddb02: 18
4df360: 18
459f00: 18
4ddbc5: 18
4ddb70: 18
4ddacd: 18
4dda70: 18
457f80: 18
457f60: 18
467b81: 18
459189: 18
4d8d66: 18
499710: 18
4ad865: 18
4d8d81: 18
60c8c0: 18
476d36: 18
4e0acf: 18
499704: 18
4e28ed: 18
459f4a: 18
608dc8: 18
408f0e: 18
4c64fb: 18
4780a2: 18
4df6df: 18
609da1: 18
45a100: 18
4e0997: 18
4e1497: 18
458f08: 18
4dd190: 18
4ba612: 18
459fc1: 18
408e04: 18
609dc0: 18
4dda81: 18
47a143: 18
4e0fa9: 18
60c320: 18
408e84: 18
411280: 18
458e45: 18
467967: 18
4ddb81: 18
4b95c0: 18
45a005: 18
4c5798: 18
60bb10: 18
4e0a80: 18
408ec3: 18
4dd1c4: 18
609801: 18
457fe0: 18
4bb108: 18
459f9e: 18
608f04: 18
50f881: 19
4e00c4: 19
60c480: 19
60c440: 19
4a2dc4: 19
4b07d0: 19
49b935: 19
49c781: 19
49ccc1: 19
4a7c00: 19
60c900: 19
4a7b00: 19
49c7c0: 19
49b940: 19
5f1e41: 19
4a7af5: 19
4c4e58: 19
49b9c0: 19
4a1200: 19
4ad721: 19
4a7bc1: 19
49b8c1: 19
4d7970: 19
60a790: 19
4b239d: 19
4b04ea: 19
4b0781: 19
4a6400: 19
4b08d9: 19
50fa03: 19
4a6502: 19
4b0980: 19
50f982: 19
4cbd04: 19
49c742: 19
458262: 19
50f902: 19
421513: 19
50fa41: 19
4a6583: 19
50f845: 19
4b1985: 19
4a660c: 19
4a778b: 19
4a656d: 19
50f9c0: 19
4b0778: 19
609891: 19
49b981: 19
4a6685: 19
4d8d11: 19
4a72c2: 19
4a6451: 19
50f951: 19
4a63c2: 19
4b19dc: 19
60bc82: 19
4a6642: 19
4b1b10: 19
4a2e2e: 19
50f820: 19
498b70: 20
4bf7aa: 20
608ec0: 20
498a81: 20
4bbac1: 20
4a474d: 20
4a51c4: 20
4ac080: 20
458c80: 20
4a4381: 20
4a504d: 20
4a4342: 20
608e85: 20
4a7341: 20
4d2ed4: 20
4ac101: 20
4cc760: 20
4b9fe8: 20
4571e6: 20
459243: 20
4a4581: 20
4a61c3: 20
4bee40: 20
50fe50: 20
4ada01: 20
4d8b79: 20
4abe43: 20
4ac00f: 20
4abfc5: 20
498b81: 20
4a4402: 20
60a5c3: 20
4abf42: 20
4abec0: 20
4cc7f7: 20
4c4582: 20
4a4680: 20
4a515b: 20
4a50c2: 20
4a4dd5: 20
60bf30: 20
49ecc0: 20
49e972: 20
4a4d81: 20
49ecb3: 20
5f1dc3: 20
4a518d: 20
4a4801: 20
4d8e35: 20
4d2fc5: 20
4a44f5: 20
4cc7a2: 20
458276: 20
4acfc0: 20
4a4483: 20
4a5b85: 20
4a7243: 20
458284: 20
49af54: 20
4a88e0: 20
4ad342: 20
4a4663: 20
49ac42: 20
49ee43: 20
4a47c5: 20
4d2f9a: 20
4a4301: 20
4a4261: 20
4a4555: 20
4a46c0: 20
4a43c3: 20
4b07e2: 20
4a2b6a: 20
4a73c3: 20
4abdb0: 20
5f0588: 20
4ac044: 20
41afbb: 20
4d8adc: 20
4a2bc3: 20
4a4294: 20
4a4442: 20
4abdc6: 20
4a4782: 20
4a4d50: 20
4a2b9a: 20
4ad9f0: 20
4abe90: 20
4a4c0f: 20
4abe02: 20
4abf80: 20
4a42c1: 20
5f1e02: 20
5f07a8: 20
4abf05: 20
4a4501: 20
4d0d32: 21
4e0691: 21
487c6d: 21
48b044: 21
4e09c1: 21
6097f0: 21
48a9c3: 21
4e2842: 21
4dea81: 21
4e2440: 21
4dfc01: 21
48b900: 21
4dfad0: 21
4baf81: 21
4d0d42: 21
4df11d: 21
48acc0: 21
4d0cd9: 21
484105: 21
48afc3: 21
48abee: 21
47a1c2: 21
4e2b1a: 21
48ae03: 21
4e0b02: 21
484242: 21
4df890: 21
4e2b8c: 21
48ab80: 21
484302: 21
48ae41: 21
48aa44: 21
4e2641: 21
487b2f: 21
48ab42: 21
4dfba0: 21
484b82: 21
49c841: 21
487b80: 21
48ab10: 21
484080: 21
48a980: 21
487c10: 21
4df8c1: 21
4e2bd7: 21
4dfe65: 21
60c680: 21
4df310: 21
47a040: 21
609043: 21
48adfe: 21
609c91: 21
48aa8c: 21
4b8c43: 21
48cb70: 21
484220: 21
60a148: 21
4e2680: 21
4e2aec: 21
4e2982: 21
484280: 21
4d0ac0: 21
4d0a63: 21
4d0a04: 21
4e27f5: 21
4e0b40: 21
484402: 21
50fb42: 21
4e0ec6: 21
47a0c1: 21
4dfa80: 21
4e2887: 21
47a082: 21
48b8e0: 21
4d0c02: 21
60bf83: 21
4842c1: 21
47a012: 21
48ac78: 21
46ce80: 21
4deb00: 21
4e2b44: 21
46cec1: 21
4e17da: 21
47a180: 21
4df97d: 21
47a100: 21
4dfbc1: 21
4dea70: 21
4e2c96: 21
48a943: 21
48a927: 21
479fc2: 21
4840c3: 21
4e263c: 21
4d0abd: 21
4e05cb: 21
4deaca: 21
48aac3: 21
4e270e: 21
487b40: 21
4e2cc4: 21
4dfb01: 21
4e2932: 21
4e2943: 21
4df1c5: 21
48af8f: 21
48ac80: 21
4e2c02: 21
4d09c2: 21
48aa04: 21
4df150: 21
4df183: 21
4d0bd0: 21
4e0334: 21
4df982: 21
4e2800: 21
41b64a: 21
48b96e: 21
4d8b80: 22
5f0b47: 22
608cc0: 22
41b2d8: 22
41b1c0: 22
60a942: 22
4c4180: 22
4bf6bd: 22
45d9f1: 22
60a001: 22
45da32: 22
4c5101: 22
462d02: 22
608d43: 22
41b294: 22
608d04: 22
41b300: 22
608c41: 22
609001: 22
4bf6c0: 22
45db55: 23
4cb93f: 23
418fce: 23
41b68c: 23
4d5705: 23
60c840: 23
45db0c: 23
45b5f0: 23
60bc90: 23
60af87: 23
60be81: 23
4c3b82: 23
60c350: 23
4bc359: 23
45da82: 23
4b9481: 23
406e02: 23
45dac1: 23
60a190: 23
45da60: 23
4a2556: 23
420c20: 23
4b9882: 23
4b987f: 23
4b9b49: 23
4d6e04: 24
60a8e0: 24
60bb02: 24
45b602: 24
45b641: 24
4d1be2: 24
4c40c3: 24
45fec0: 24
401ed0: 24
4bd381: 24
4ccd12: 24
4bbec6: 24
457e60: 24
4b9500: 24
407399: 24
457415: 24
4d1c01: 24
419b30: 24
462cc5: 25
4ba45b: 25
5f078f: 25
4d2dc3: 25
4c3b40: 25
408d02: 25
60c281: 25
60c2b0: 25
60a7c3: 25
47a7e4: 25
458cc0: 26
608f42: 26
60be60: 26
462c84: 26
458e0c: 26
458d80: 26
4bf6b4: 26
458bc0: 26
609ff1: 26
462c60: 26
47c584: 26
443278: 26
41b6c0: 26
402243: 26
458a0f: 26
46720b: 26
458d45: 26
461093: 26
4678e0: 26
458a44: 26
458c41: 26
458d31: 26
458c30: 26
60a0c1: 27
608b90: 27
45d941: 27
4c6503: 27
47b3c1: 27
45da41: 27
4d3edb: 27
60bb90: 27
4d3f6d: 27
45d900: 27
60abc5: 27
60b210: 27
60ab80: 27
47d301: 27
60ac00: 27
4cb980: 27
427a80: 27
4c3c01: 27
45d98d: 27
467703: 27
4cb944: 27
45d8f0: 27
467602: 27
60a091: 27
4ba5eb: 27
4676f7: 28
60c270: 28
5f0bcf: 28
60a907: 28
467681: 28
60bc10: 28
60b243: 28
4c4681: 28
60b8a0: 28
4c3a42: 29
4ce0e1: 29
49ce34: 29
60bad0: 29
60c140: 29
60b902: 29
60a530: 29
4bdcd6: 29
60a804: 29
4c7f17: 29
60b8c7: 29
459796: 29
419b3b: 29
60b387: 30
47c49c: 30
467bc0: 30
4c3d06: 30
60b360: 30
47a8b7: 30
47c226: 30
4c3ac0: 30
47a8c2: 30
606940: 30
4c239e: 30
60bac0: 30
4c5b04: 30
4c3e85: 30
467711: 30
467b00: 30
467609: 30
4c3b02: 30
47c2c6: 30
477f88: 30
47bbc3: 30
47c081: 30
47c242: 30
47c284: 30
467c05: 30
4c3cdd: 30
4679e8: 30
467af2: 30
47c05d: 30
467a00: 30
467b41: 30
467c23: 30
4d2d90: 30
467a41: 30
467980: 30
4cc88d: 30
609b11: 31
60bf60: 31
60afc1: 31
60a303: 31
60aa30: 31
418e01: 31
608fd0: 31
4bce0c: 31
60c082: 31
45b401: 31
476c81: 31
476994: 31
476dc5: 31
4cab87: 31
4c2202: 32
460f00: 32
4c1ce6: 32
60aa81: 32
5f154b: 32
41c680: 32
4d7a1c: 32
45b280: 32
460ef0: 32
5f0aef: 32
460e82: 32
460e44: 32
460d01: 32
460cc5: 32
460cb0: 32
460d40: 32
4a8542: 32
60ad70: 32
60ad44: 32
461050: 32
60c6c0: 32
4d5d41: 32
60aa47: 32
4a8503: 32
4248b0: 33
4a35c2: 33
418a14: 33
4a265c: 33
4a2afd: 33
4a2e4a: 33
4a3056: 33
467784: 33
4a2f01: 33
4a2740: 33
4a2801: 33
41383e: 33
4a2888: 33
4a2ea2: 33
4137ec: 33
4a3da0: 33
4d6de4: 33
4a750f: 33
4a3f5f: 33
4a28c6: 33
4a2901: 33
4a294b: 33
4a2984: 33
4c8cc2: 33
4a29c6: 33
49d1c0: 33
4a2a81: 33
4a2b00: 33
4a87f0: 33
4a8842: 33
49f400: 33
4a8803: 33
4a3081: 33
4a31f1: 33
4a2f83: 33
4073c1: 33
4a1380: 33
49d140: 33
44a4b0: 33
412d90: 33
413841: 33
4a2fc4: 33
608c01: 33
4c0301: 33
4a2a44: 33
49d005: 33
49ec16: 33
4c1d43: 33
49eb45: 33
49eb81: 33
4ac838: 33
4ac869: 33
49c3b5: 33
60beb0: 33
4a3f94: 33
4a3dc0: 33
4c4ef5: 33
49ec41: 33
60a310: 33
44a4c0: 33
49ef80: 33
60c740: 33
49f101: 33
49efc0: 33
4a2a02: 33
477e4f: 33
45ff01: 33
4a3201: 33
4a3e72: 33
4c6cc1: 33
4a2681: 33
4a2701: 33
4a2782: 33
4a27c3: 33
4a2840: 33
4b8adf: 33
49f142: 33
4bdcc3: 33
4a2f56: 33
49e8cd: 33
4a400f: 33
4b1f21: 33
5fac81: 33
49ea41: 33
4a2ec1: 33
413431: 33
49d1b0: 33
4a26c1: 33
4a3fc0: 33
49f680: 33
4aff06: 33
49f0b7: 33
49f581: 34
4acf80: 34
4b0de3: 34
47a857: 34
4b046f: 34
457481: 34
420cc2: 34
60a341: 34
411486: 34
60b284: 34
47c481: 34
49f500: 34
49f544: 34
45b380: 34
4d0580: 34
60ae02: 34
47c4b0: 34
49f4da: 34
4b04c0: 34
60c730: 34
4b43e4: 34
60c2c1: 34
4b0857: 34
6097c1: 35
458200: 35
41b180: 35
414970: 35
60a541: 35
60a582: 35
4c4555: 35
60af70: 35
609d11: 35
4bdd42: 35
41c6c0: 35
60ad87: 35
478488: 35
4bafd0: 35
60c040: 35
413703: 35
414a1c: 35
49b744: 36
4a2473: 36
4bee81: 36
4acf70: 36
412f40: 36
4a0843: 36
4a0907: 36
419440: 36
49a331: 36
4a1fe0: 36
4a7610: 36
49b680: 36
4a6490: 36
499fc6: 36
49b56f: 36
49af00: 36
4a2480: 36
412f00: 36
49d11c: 36
4a7776: 36
49a930: 36
4a5e97: 36
49a131: 36
4a1182: 36
60acd0: 36
499f06: 36
49b78c: 36
457520: 36
49be80: 36
49f3ee: 36
4a79c4: 36
4a64c7: 36
4a794f: 36
49e740: 36
499ec1: 36
4a6183: 36
4a08cf: 36
4a7a41: 36
4a6341: 36
4a7b81: 36
4a52c3: 36
4a52b8: 36
499e3e: 36
499e43: 36
4a3b9f: 36
4a3993: 36
49a380: 36
49a259: 36
4adc48: 36
498a3d: 36
4a0980: 36
49a1c4: 36
4b18ee: 36
49f5cb: 36
4a2002: 36
49a187: 36
4b1900: 36
49ea07: 36
49ac11: 36
4adc27: 36
4b169c: 36
499e81: 36
4adb6a: 36
49a281: 36
49a2c8: 36
49a440: 36
4a2509: 36
4b0082: 36
4b0a89: 36
46718f: 36
49abc5: 36
49a807: 36
4b0043: 36
4a1160: 36
4c7ed8: 36
4a0472: 36
4b0a0b: 36
49a3c0: 36
4a7701: 36
49b601: 36
4b89fe: 36
4b8b01: 36
4a76d3: 36
49b700: 36
4a7b4d: 36
49ad10: 36
49a985: 36
4ac7a0: 36
4a7301: 36
4a71c0: 36
49c35e: 36
4adb80: 36
4afe50: 36
417f4e: 36
49b5c3: 36
49be50: 36
49a427: 36
49e738: 36
49ae60: 36
49ae91: 36
49aec4: 36
4131c2: 36
4adbc0: 36
49a484: 36
499f44: 36
49e898: 36
49a5c6: 36
49a645: 36
4adae7: 36
4afe85: 36
4ac499: 36
49ef4d: 36
49ef01: 36
4ac301: 36
49a745: 36
49a881: 36
4ac2c2: 36
49a946: 36
4ac2b0: 36
49a780: 36
499faf: 36
4a8bc0: 36
4a7a00: 36
4adcc6: 36
4c02af: 36
49b6c2: 36
4a2d70: 36
4a5981: 36
49a343: 36
4a6140: 36
49a55f: 36
4b123d: 36
4ac982: 36
4989d0: 36
45b34e: 36
4a32a2: 36
420d40: 36
467241: 36
49a7c1: 36
4a628d: 36
4a0a03: 36
49c83e: 36
49cc72: 36
49cfc0: 36
498a41: 36
4ba954: 36
4b13f0: 36
49c332: 36
4a8c95: 36
49c289: 36
49c243: 36
49c200: 36
4a6f70: 36
49bb23: 36
4a2380: 36
4a6242: 36
4a0940: 36
49a4c3: 36
4da981: 36
4a0481: 36
4a11c1: 36
4a8441: 36
4ac891: 36
4a8981: 36
49b641: 36
4a5e52: 36
4131bc: 36
4a0886: 36
49b802: 36
4affc0: 36
4ac8c0: 36
4cc9df: 36
49bb4c: 36
457466: 36
49b586: 36
49ee09: 36
4ac910: 36
4a24c0: 36
4b1245: 36
4c7d77: 36
49e7d4: 36
4a7a83: 36
4cc333: 36
4a6205: 36
49b841: 36
4a6330: 36
499d37: 36
49b881: 36
49b7f0: 36
417f9c: 36
4a77c1: 36
4a8c42: 36
4b1602: 36
4a23c4: 36
49c186: 36
4d3ed7: 36
49c1c3: 36
4a8a03: 36
4a89c1: 36
4b8a49: 36
49bec4: 36
4ac7c0: 36
4a8955: 36
49f709: 36
4a8b83: 36
4a8901: 36
4a75ce: 36
4ac940: 36
4a7190: 36
4a7201: 36
49aa01: 36
4a7381: 36
49bb82: 36
49ba00: 36
499740: 36
49c15d: 36
4b0017: 36
49a502: 36
49a607: 36
4a0800: 36
49b530: 36
49a847: 36
49a9c6: 36
609a91: 36
49ba80: 36
4a25c4: 36
49ba40: 36
49a5a5: 36
49be00: 36
412eca: 36
4a62c4: 36
4a2d80: 36
4a6382: 36
49a141: 36
4b03b0: 36
498cd4: 36
4a7291: 36
4a6f81: 36
49eec3: 36
4bddb2: 37
60a383: 37
478f82: 37
4ad51b: 37
47adf9: 37
4aca50: 37
4c9601: 37
4a8680: 37
60ad03: 37
60c760: 37
4d7e20: 37
4c02c1: 37
60b3c2: 38
4136ca: 38
60a2a0: 38
413682: 38
4d5d1b: 38
60ba07: 38
4b99f0: 38
47cedb: 38
41468a: 38
60c383: 38
60c780: 38
4bbe5d: 38
609d41: 38
60c800: 38
412e00: 38
413202: 38
4cb104: 38
412dc0: 38
47a816: 38
4a85fa: 38
60bec1: 38
41364c: 38
41324f: 38
60a3c4: 38
414b20: 38
478f7b: 38
4a8604: 38
414983: 38
40263b: 38
4574cc: 39
458170: 39
445da1: 39
47ccca: 39
457472: 39
60c400: 39
428f50: 39
458182: 39
457512: 39
44607a: 39
446084: 39
4461c0: 39
443842: 39
4d81b0: 39
445c03: 39
4d8090: 39
443642: 39
479700: 39
428a81: 39
4461b0: 39
4432c3: 39
45839b: 39
445b67: 39
443490: 39
443350: 39
445a04: 39
445a82: 39
470180: 39
4701c6: 39
4703c0: 39
470410: 39
4ce070: 39
445be6: 39
4bddc3: 39
445981: 39
4431f0: 39
44586c: 39
4022c5: 39
4a8581: 39
443282: 39
4021c0: 39
4021b0: 39
4433c1: 39
411340: 39
4583c0: 39
470352: 39
4112c1: 39
445b03: 39
443381: 39
443621: 39
4703a9: 39
445d50: 39
445800: 39
4d8140: 39
4581d0: 39
445ac1: 39
445880: 39
4457c3: 39
4458da: 39
445903: 39
445a42: 39
4d7aa4: 39
428c85: 39
428c70: 39
45b082: 39
428f8c: 39
443752: 39
428a40: 39
4435c0: 39
470300: 39
458356: 39
443504: 39
443805: 39
4434c0: 39
445dc0: 39
4d8ac5: 39
4438c9: 39
443914: 39
411460: 39
4459c1: 39
4437d0: 39
445941: 39
443681: 39
40228b: 39
443883: 39
443940: 39
458303: 39
4d8100: 39
4d7981: 40
419b41: 40
4c8ca4: 40
4c95ff: 40
4d7ac0: 40
417dd0: 40
60bdc3: 40
4d79c1: 40
476250: 40
609715: 40
4589d0: 40
4d7a70: 40
4ba4c4: 41
4d6600: 41
4ce081: 41
48bd81: 41
479720: 41
4bc201: 41
401681: 41
4c6c00: 41
60c600: 41
4bf7bb: 41
60a502: 41
60ba90: 41
4016e8: 41
411301: 42
4d7eec: 42
4c66f9: 42
4c75c1: 42
4c7f86: 42
457d76: 42
4c6701: 42
4d8010: 42
4c6741: 42
457c50: 42
457d84: 42
4d7e40: 42
479350: 42
457d09: 42
4c6632: 42
5f0741: 42
4c7f65: 42
4c75b9: 42
4d7f01: 42
4c664e: 42
60bb50: 42
4ca2e6: 42
457cd8: 42
608e40: 43
60c110: 43
60c500: 43
60c230: 43
428640: 43
60b9f0: 43
60c960: 43
42868c: 43
428610: 43
60ba41: 43
60ae82: 43
420c80: 43
47a209: 44
4bdd02: 44
60ae47: 44
477050: 44
60bb80: 44
4d6238: 44
60a163: 44
4c4db3: 44
479541: 45
4ca86d: 45
479640: 45
4783b3: 45
45b180: 45
4796cb: 45
60c540: 45
60c530: 45
458292: 45
4795f0: 45
479405: 45
46712d: 45
47be0e: 45
476242: 45
479600: 45
60ae20: 45
479584: 45
47824d: 45
4a7801: 45
4d7b80: 45
478202: 45
4bc2bf: 45
479536: 45
49c8c9: 46
4a8640: 46
49cc81: 46
420d03: 46
4a8590: 46
420c6b: 46
4a8700: 46
45b3c0: 46
47ad13: 46
499441: 46
4d5a4f: 46
4bba42: 47
50fe00: 47
4d7bc0: 47
4c4dc2: 47
60c242: 47
4d7c04: 47
4cb1c6: 47
478298: 47
4d8d08: 48
4cb1a8: 48
47840e: 48
4bba37: 48
60a17a: 48
4bb95b: 49
4782c3: 49
41bc90: 49
4aff67: 50
4c24a5: 50
46c721: 50
4a844a: 50
4b9401: 50
4cb4c0: 50
4ca7cc: 50
50fb03: 51
608c97: 51
4bb900: 51
4c23d1: 51
465687: 51
457405: 51
4d3142: 51
419904: 51
419a6c: 51
4cad37: 51
45b20e: 52
4024a2: 52
41bb9b: 52
4c56c7: 52
60c700: 52
47bea8: 52
4bedc0: 52
4b85c0: 52
4bc2c1: 52
41bbc3: 52
4b0501: 53
4199a3: 53
4b159e: 53
5fa530: 53
49f6f5: 53
4b03d0: 53
4d8a03: 53
4b15f5: 53
419ac0: 53
4bb337: 53
5f0bb0: 53
4a7984: 53
4a8513: 53
4a7544: 53
4b0403: 53
4aff80: 53
4b8a02: 53
4a6fc1: 53
419a82: 53
49c710: 53
60c370: 53
4198d0: 53
4b1471: 53
419941: 53
4ad3e0: 54
4781c2: 54
4cfb26: 54
4793d1: 54
5fa230: 54
4c6244: 55
478303: 55
4a8550: 55
4783e6: 55
4beda9: 55
476629: 55
4cb4a7: 56
4d5cc3: 56
4a7841: 56
4210ce: 56
5fa570: 56
467c44: 57
47c8c0: 57
467586: 57
4675c3: 57
40275b: 57
4c595a: 57
467cc0: 57
467c81: 57
467bd0: 57
4678b2: 57
467805: 57
4bc337: 57
4bd481: 57
4d7370: 57
467bbb: 57
4678c4: 57
467741: 57
4d3f22: 57
478180: 57
41ae4b: 57
467654: 57
47bb41: 57
47bb03: 57
50fe3b: 58
4c1d06: 58
4c45ff: 59
46cee3: 59
609b91: 59
60c940: 60
4573a0: 60
4ca140: 60
459d4d: 60
60bf90: 60
5ef202: 60
459e94: 60
4c2580: 60
467543: 60
5fa245: 60
50b021: 60
60a1c6: 61
4ba401: 61
4cc9c0: 61
48cdb4: 61
4c5c45: 62
459deb: 62
4582c3: 62
465a00: 62
4ccefc: 62
4c5a5f: 62
4c7a85: 62
459d81: 62
50fe90: 62
4d6448: 62
4d6482: 62
48cd00: 62
60c170: 63
475f82: 63
4d90ca: 63
4ca922: 63
4ce280: 63
421520: 63
464737: 63
41b153: 63
4c6200: 63
459cc3: 63
41b040: 63
459d01: 63
41b003: 63
45b102: 63
60a2c0: 63
465106: 64
60bfb0: 64
4650c5: 64
48c0c1: 64
465140: 64
465040: 64
60bdb0: 64
464fc1: 64
4c2496: 64
4b9641: 64
4c22d7: 64
465183: 64
465000: 64
465085: 64
4cd255: 65
4659c1: 65
4cd470: 65
47bac1: 65
45b089: 65
5f1fd0: 65
4cab42: 65
60bfc3: 65
459c9a: 66
467498: 66
459c20: 66
459c41: 66
4bd44d: 66
427a42: 66
47aa3d: 66
459ec1: 66
50fc30: 66
4bdc86: 66
4bba47: 66
609ea6: 67
46c341: 67
45aa40: 67
4cfac0: 67
466d5b: 67
4cb652: 68
45de57: 68
4c6513: 68
46c602: 68
41ad83: 68
60bdd0: 68
4d8e5d: 68
47c880: 68
41adc0: 68
4bee01: 69
46cfc1: 69
4c7816: 69
4bb481: 69
41ad76: 69
467383: 69
4cf881: 69
467350: 69
418b65: 69
608bc2: 69
4c64e5: 69
4d3dc0: 69
4bb27c: 69
4765e3: 70
41b1af: 70
47aa40: 70
4cab22: 71
41ac40: 71
4c4504: 71
5f07d1: 71
4cfc58: 71
4c48c2: 72
5f0841: 72
4c48ba: 72
48cc03: 72
4d7e00: 72
418bac: 72
4d3e00: 72
4d7d90: 72
60a202: 72
4ca84a: 73
4c7ef6: 73
5f7810: 73
4bc1c4: 73
4caaea: 73
408d41: 73
60c980: 73
47be82: 73
4ca841: 73
46cdbc: 73
5f7844: 73
408d91: 73
4d07d6: 74
465707: 74
4c490e: 74
4d7dd8: 74
4ca802: 74
5f0781: 74
47bbfe: 74
4d1cc1: 75
4573c1: 75
4c7804: 76
60bbc0: 76
46cc03: 76
46cbc5: 76
46ca82: 76
4bc1b0: 76
4c4e03: 76
46cc65: 76
46ca4e: 76
4cb56d: 76
4cb523: 76
50fd3d: 76
4b9604: 76
47b344: 76
45aa02: 76
47b339: 76
46cbb1: 76
418ac1: 76
46ce0b: 76
4b9681: 76
46cdc2: 76
421550: 76
4c462c: 76
4c44db: 76
46cc80: 76
46ccc0: 76
60c183: 77
46cf40: 77
4ca681: 77
45de86: 77
408cca: 77
47b483: 77
4d5786: 77
4c5a0a: 77
5f0760: 77
47ad94: 77
60c190: 77
41ae01: 77
4c464a: 77
408c81: 77
46596a: 78
47b468: 78
41a480: 78
475f40: 78
46cf82: 78
45a884: 78
465882: 78
4d908c: 78
4d16b0: 78
4658de: 78
4d8b44: 79
4d9100: 79
465563: 79
402487: 79
479f98: 79
4c574e: 79
47a229: 79
60a285: 79
60bdf0: 79
457101: 80
4c622a: 80
45a842: 80
4bbdc2: 80
4bd38a: 80
512350: 80
46ce42: 80
512382: 80
45a9f9: 80
45ddc0: 80
4285e0: 81
41c650: 81
45a702: 81
4bbd82: 81
4c59f1: 81
45a685: 81
4214a0: 81
479ec3: 81
479ded: 81
45a5c6: 81
60c580: 81
479f5d: 81
45a813: 81
45a6c3: 81
45a761: 81
4dadea: 81
45a781: 81
45a671: 81
428602: 81
45a580: 81
46cf00: 81
45a7c3: 81
4bbf63: 82
50fec1: 82
4a8482: 82
4c6e78: 82
4d7d30: 82
60a4c0: 82
4c54d2: 82
476626: 82
60c930: 82
4d8b20: 82
5f1f60: 82
4c8f4e: 83
4c4804: 83
4c6e80: 83
467406: 83
4673c3: 83
4989c0: 83
467500: 83
467448: 83
4c5503: 83
4d7c43: 83
4c47ff: 83
59f040: 84
59f020: 84
47aaac: 84
457343: 84
4c4444: 84
4214c0: 84
4674c3: 84
4cec10: 85
465981: 85
4cc920: 85
412243: 85
4c7a80: 85
4a83f0: 85
4a8402: 85
4ba9ac: 85
465874: 85
4a84c3: 86
609902: 86
46c5f7: 86
47ab72: 87
59f083: 87
4bc22c: 87
606801: 87
4d1d7a: 87
462dc3: 88
4699c2: 88
48ccec: 88
469a02: 88
60c7a0: 88
4c1d02: 89
5fac20: 89
4bb282: 89
417409: 91
4172c0: 91
4bc0ea: 91
417390: 91
4172a0: 91
417301: 91
402780: 91
48cbc4: 91
4c4367: 91
417441: 91
469a40: 92
4120c1: 92
4bc101: 92
469eb1: 92
4bbd42: 92
401790: 92
469b80: 92
469c42: 92
469ed5: 92
469f13: 92
4c6ac1: 92
4b8d16: 93
47b1c3: 93
4210c0: 93
46cb3b: 93
4b8c00: 93
4016c2: 93
40168d: 93
48c0b8: 94
4cbc43: 94
4d26e1: 94
411d79: 94
4989b0: 94
464f01: 94
4cb581: 94
464ec2: 94
4bbfb2: 95
469c01: 95
469b79: 95
469d81: 95
464dee: 95
4d5a57: 95
463900: 96
462f04: 96
4dc506: 96
463359: 96
4dc2d8: 96
463109: 96
462ec0: 96
463141: 96
4638d7: 96
463744: 96
4dc4c0: 96
462fc1: 96
4630c1: 96
463182: 96
469bc6: 96
463546: 96
462f98: 96
46300c: 96
4cc530: 96
462e80: 96
463083: 96
4635ea: 96
41afc8: 96
463652: 96
4cbcc3: 96
4dc4b8: 96
479cc3: 96
5f1742: 96
463503: 96
463381: 96
4bb02c: 96
463055: 96
4631c0: 96
4dc180: 97
4597ce: 97
4cfa43: 97
4c5841: 97
459800: 97
5f0a80: 97
4cb34d: 97
4dc16e: 97
4dc0e0: 97
4ba9c0: 97
465240: 98
46523b: 98
47acc1: 98
4c5601: 98
4bb8f7: 99
4cccc5: 99
4d6652: 99
45b202: 99
464e90: 99
4c55d1: 99
4d7c10: 99
608e01: 99
4d2550: 100
459742: 100
4596e0: 100
4d2702: 100
4d2637: 100
4d28fd: 100
4d2903: 100
4d2580: 100
459701: 100
49ce80: 100
4d29d3: 100
4d29b0: 100
4d2b13: 100
462d10: 101
4c6aae: 101
4ba95e: 101
469d53: 101
4d8fb5: 101
5ef1c3: 101
4cf582: 102
427d70: 102
4dac80: 102
478cdb: 102
4d1402: 102
476201: 102
48bfd0: 103
4268e0: 103
46c7d0: 103
469ae9: 103
48c702: 103
4c73bd: 103
60c1b0: 103
48c002: 103
426909: 103
41a682: 103
469c80: 103
48bf10: 103
462d9f: 104
46c410: 104
4c437f: 104
5f171d: 104
46ee82: 104
4c61f6: 104
469980: 104
462d41: 104
5f05c1: 105
48cac0: 105
401700: 105
4d5860: 106
46d0da: 106
60c560: 107
4d63ce: 107
478d3b: 108
45dd90: 108
4c1d15: 108
609a20: 108
4c7a6a: 108
4d1d1e: 109
478de6: 109
60bc30: 109
462e23: 109
478e03: 109
478d45: 109
50fde3: 110
45b175: 110
47bbe4: 110
60bbf0: 110
41af40: 110
45b030: 111
427d3e: 111
4cfa69: 111
4207e0: 111
48c98e: 111
4ba7ab: 111
48c740: 111
5ee91a: 112
4bd3e0: 112
402501: 112
49ccf1: 112
462e41: 112
412100: 112
45b040: 113
4c73c2: 113
4d5803: 113
420841: 113
47ba09: 113
4bce0f: 114
4b9d2d: 114
476140: 114
4bc240: 114
46467c: 114
5ee870: 114
5eea00: 115
4d421d: 115
4c4d06: 115
461640: 115
5f0b00: 116
5ee8c0: 116
5ee962: 116
5ee881: 116
4d6443: 116
464fa9: 116
463e01: 117
5ee9c2: 117
5ee980: 117
461601: 117
4cfa83: 117
411d80: 117
609991: 117
401747: 117
4c4c15: 118
4bbaaa: 118
47b9c0: 119
60a240: 119
463e92: 120
45c318: 120
4a86c2: 120
4615d0: 120
47be02: 120
4bb840: 121
609ec1: 121
420800: 121
60c390: 121
4cd280: 121
4d6367: 121
4bd340: 121
48cd81: 122
4bd2b0: 122
4d1e00: 123
47a586: 123
49c349: 123
4d17a5: 123
47c463: 124
4ca7c1: 124
47c381: 124
46d650: 125
4d1dd7: 125
47bce0: 125
4ca780: 125
4bb2c0: 126
47b940: 126
4c483e: 127
48cd7c: 127
4cc620: 127
4d5e74: 127
4bc7ce: 128
4d5b56: 128
4d1044: 128
50aff0: 128
4d40fe: 129
4bd2c0: 129
46d6aa: 129
464403: 129
419638: 129
4d4101: 130
4c6e41: 130
463d19: 130
402444: 131
4023c0: 131
4d0701: 131
4ca2de: 132
4d4045: 132
4d4010: 132
40164f: 133
457304: 133
47b52f: 133
461680: 133
477e00: 134
46c802: 136
4ca28f: 136
463cc0: 136
476fb0: 136
4c7843: 136
4c6381: 136
4c79b7: 136
48c44a: 136
4ca2d0: 137
45acd6: 137
4c5c59: 137
477040: 137
464441: 137
48bd40: 138
4dd380: 138
408d07: 139
4d648a: 139
4c4b00: 140
4dcd80: 140
464944: 141
4c77c7: 141
427bea: 141
4d1c78: 141
4dd404: 141
4bee5a: 142
48cc30: 142
47b3c3: 142
457670: 142
4d17c2: 143
463e30: 143
47bd41: 143
4bda83: 143
4c775f: 143
46eda2: 143
4ca688: 144
427c3e: 144
5f0700: 144
47c357: 144
4cc60a: 144
47a558: 144
4cb482: 144
48bd21: 144
4d16c2: 144
4ca641: 145
427c41: 145
477fb8: 145
4c6262: 145
4764e0: 145
4ca1c1: 145
477d60: 145
47bdf0: 145
4643d0: 145
478601: 146
465786: 146
45aa60: 146
45ad01: 146
457ae6: 147
4576c3: 147
4c64a1: 147
457710: 147
457685: 147
4646c1: 147
5fac41: 147
45b1a0: 147
457ab8: 147
457747: 147
48cc46: 148
45ab84: 148
5facc1: 148
4cc649: 148
4c5901: 149
4c5ac4: 149
4cd450: 149
4bd310: 149
4ba636: 149
49cf70: 149
464e03: 150
4c9700: 150
4279ff: 150
47bc41: 150
47bedb: 150
4ba880: 151
4cb3c1: 151
4c5481: 151
41a483: 151
4dae84: 151
476e01: 152
4bf7c2: 152
418a04: 153
419600: 153
418b42: 153
4d1a50: 153
427bac: 153
465455: 153
4c4841: 153
48bde8: 154
4d1c83: 154
49cc00: 154
473af0: 154
427943: 156
427900: 156
4d1a81: 156
427981: 156
402581: 156
466d63: 156
49cb80: 156
465680: 156
4d8f52: 156
4c4af7: 156
427a03: 156
4d1faa: 156
427c83: 156
47ae02: 156
4ba642: 156
4ccc8c: 156
48c3c1: 157
475f10: 157
464681: 157
4d5a16: 157
609910: 158
4c5478: 158
4cfc71: 158
464980: 158
4bf8ae: 159
412204: 159
4d8fb8: 159
6098c3: 160
50fcc1: 160
4c5b53: 160
4c5c03: 160
47aa04: 160
4db243: 160
45ac02: 160
49ce60: 160
606860: 160
4c594e: 161
47be53: 161
467206: 161
4bd958: 162
47bf03: 162
4c5c80: 163
4bb501: 163
45aca3: 163
4c6404: 163
48c25a: 164
4c4981: 164
4cd273: 164
47acf6: 165
4bacb7: 165
4d18c8: 165
47bd03: 165
49ca6e: 166
421080: 166
4c4993: 166
4d1944: 166
408c5a: 167
4d57c4: 167
46e9d9: 167
47acb1: 167
412090: 167
47bc82: 168
4c5082: 168
408da8: 169
6099c1: 169
4d8a87: 169
45b1dc: 169
45abc0: 170
45ab11: 171
4bd983: 172
4cf5d4: 172
4cec42: 173
48c490: 173
4c495a: 173
4ca740: 173
4c4384: 173
5ef20a: 174
50fc40: 175
4ba7c2: 176
4ba279: 177
45de02: 177
46edf0: 177
4c4ff9: 178
469700: 178
46ce30: 178
479b36: 178
4648d9: 179
4bb341: 179
45ab43: 179
45aadd: 179
4bf5f3: 179
473c41: 179
457db0: 180
45aa80: 180
50fd01: 180
4766c9: 181
498cc2: 181
4bb472: 181
4c4da4: 181
4d6e84: 182
473c00: 182
48bcd0: 182
478150: 182
476c65: 183
476c06: 183
4db239: 183
47ba82: 183
465560: 183
4785f0: 184
476bc3: 184
4791a0: 184
4cd228: 185
48c3b0: 185
41941e: 185
4bb7ce: 185
4ba841: 186
4ca700: 186
4027d0: 186
48d486: 186
48c340: 187
411740: 187
4baa80: 188
464929: 188
47cd3a: 188
457dc6: 188
465662: 189
465614: 189
4bb6b9: 190
45b741: 190
47a260: 190
46e8c0: 191
46e909: 191
4bc142: 191
4c9e06: 191
4cc507: 191
4785c1: 192
4bb800: 192
4698b2: 192
4570c3: 192
4b968b: 193
476485: 193
4bb6c1: 193
49ce24: 194
476941: 194
60bfd0: 194
419630: 194
467105: 194
476854: 195
411844: 195
49cc78: 195
6098e0: 195
476918: 195
606902: 195
4baa6f: 196
479716: 196
477d9c: 196
408a40: 196
4d5f81: 196
45b878: 196
46e94e: 197
464483: 197
4cb469: 197
4cbe81: 197
46ee45: 197
4ba807: 198
50fc79: 198
418dd7: 199
4baf43: 200
4d63c0: 200
4c63c1: 201
4c64c1: 201
499404: 201
47bc02: 202
4ca113: 202
48c981: 203
467250: 203
4c62b3: 204
47b360: 205
48deab: 205
408bc2: 205
4bb563: 206
4bb4f6: 206
463dcc: 207
47b60c: 207
4c62c0: 207
4670d0: 207
4cfa06: 207
4990c0: 207
464703: 208
45fe82: 208
47a242: 208
4645c2: 208
46577f: 208
41a780: 208
4dadc4: 208
48cdc1: 208
46c8c1: 208
465713: 208
4dcdc1: 209
4c967c: 209
4600cb: 209
4c50c4: 210
4bb726: 210
4c5800: 210
4c2353: 210
50fd40: 210
45734c: 211
4d6240: 211
4672a9: 211
4ca183: 212
48cadc: 212
4672c2: 212
4cf759: 212
4cec93: 212
4ba981: 212
465802: 213
4c9683: 213
411780: 214
4bb042: 214
48cc82: 214
5f0cc0: 216
47c3c0: 216
48c750: 216
48be00: 216
47ac70: 216
4c96cb: 216
45b780: 217
47c961: 217
46d802: 217
48dc78: 217
48d0c2: 217
48c114: 218
4cd482: 218
49928a: 218
5f0c80: 219
6099d0: 219
48c710: 219
4c9dfe: 219
4d6202: 219
4c6c99: 220
478543: 221
4ca610: 221
48dc10: 221
4c5001: 221
4ca5a0: 221
60991e: 222
499320: 222
408c01: 222
48bc03: 223
4ca069: 223
4c4be0: 223
478482: 223
48ca40: 223
4c54c1: 223
467304: 224
4c7ef9: 224
4ca5c1: 224
476b36: 224
46ca01: 225
4c2753: 225
4c5982: 225
4c5040: 226
478c49: 226
412041: 226
4ba442: 226
45c245: 226
4d13ff: 227
4ba9d0: 227
4d58e1: 229
479c56: 229
5f0830: 230
47c900: 230
4cce59: 230
46714f: 230
4ba43a: 231
479840: 231
476080: 231
46d6c0: 232
4c58c3: 232
499080: 232
476707: 232
4c57c9: 232
50fc84: 232
4118b5: 232
47aa6f: 232
46d703: 233
418df1: 233
46d6b2: 233
4d76a0: 233
4ca35d: 234
4ca6c1: 235
46b0c1: 236
48c282: 237
411a5d: 237
49cf81: 238
45b887: 238
499279: 238
48c5cc: 238
49c883: 239
49a71a: 240
45c210: 240
499464: 241
4cb645: 241
5f0d08: 241
408dc0: 241
4d8f00: 241
4bc602: 242
4dd2c1: 242
478570: 242
4d6e82: 242
460080: 242
4ba502: 244
4d1194: 244
4655ca: 244
4ccb69: 244
460101: 245
419682: 245
49c8c3: 245
418b83: 245
419642: 245
4b948a: 245
4739c0: 246
499481: 246
457e16: 246
4c248b: 247
457e41: 247
478bc8: 247
4cd780: 247
4bb277: 247
478b00: 248
4dac79: 249
4027c3: 249
46d0c1: 249
477f45: 249
4c282e: 250
4ce0f0: 250
4b8d73: 250
4cc640: 251
41a44c: 251
45b342: 252
40271a: 252
46d7c6: 252
4cd7f1: 252
408a83: 253
478586: 253
408ac3: 253
4d0612: 254
48c1d2: 254
49cc89: 254
4d6e4e: 255
4ce394: 255
4dd2b0: 256
477dc2: 256
47c785: 257
4ccdaf: 259
4b9d32: 259
412142: 259
4d62b3: 259
4ccdc1: 259
45944d: 260
48cba0: 260
473a43: 260
4dd324: 260
464746: 260
4d5680: 261
4995c3: 261
41ae80: 261
478b88: 261
4c2602: 262
4c5885: 262
478d00: 264
4dce45: 264
4bc122: 264
48c7be: 265
478450: 265
464502: 266
47a205: 266
473b80: 266
4189fa: 266
48c8bc: 267
5ef440: 267
60c5a0: 268
4996c0: 268
48ba70: 268
48bbc0: 268
465582: 268
464580: 268
48bb81: 269
49968f: 269
5ef420: 270
4cc881: 270
609740: 270
418c09: 271
4cb2da: 271
476840: 271
499584: 271
49c870: 271
4dce34: 273
476900: 274
4c2381: 274
47850b: 275
4b9445: 275
4c2865: 275
4c2342: 275
4d3246: 275
48c8c4: 275
4ba998: 276
4bb3c6: 277
609820: 278
4cbe73: 278
4db291: 278
4c5b80: 278
60c3a0: 279
47642b: 279
4bac41: 279
5ef0c0: 279
60c9a0: 279
463e42: 279
4d10c0: 280
4572a7: 280
4792a0: 280
4d9780: 281
499500: 281
469781: 281
41a697: 282
473985: 282
5ef101: 282
49c941: 283
4ba996: 283
5f1f00: 284
5ef504: 284
4784c2: 285
49c900: 285
48c502: 285
4c4fb3: 285
476966: 286
47c502: 286
49cb50: 286
4c9fb7: 286
48c9c2: 287
4d3204: 287
4698c3: 287
50fbd3: 287
48c1b0: 288
420a03: 288
606910: 289
4ca360: 289
48be50: 289
48dc81: 289
4cb6e4: 291
60c1c0: 291
45b2e0: 292
4b9a04: 292
4bb2b7: 292
45b31c: 292
40a504: 292
477081: 293
40a5e4: 293
4ba357: 293
5f0c41: 294
5f0482: 295
4cb4c7: 295
4cc9ec: 296
479316: 297
46c886: 297
48ca00: 297
45fed0: 297
48d085: 297
463a67: 298
47c5a0: 298
4c2665: 298
46c8e9: 299
4b99e0: 299
60a16f: 299
418931: 301
45b009: 301
476ec0: 301
420860: 302
47c5c2: 302
4bc154: 302
4d758d: 303
41a3c0: 304
4644c4: 304
48c4c4: 305
45c313: 305
49ca88: 305
412581: 306
4ce105: 306
4dd340: 306
5f31c0: 307
47c492: 307
48c7c1: 308
4b9de8: 308
46c899: 308
4698e0: 308
47b8e0: 309
4dad84: 309
4c9eb7: 309
5f1f40: 309
40a4d0: 312
4b9c69: 312
4c9ec0: 312
418ea9: 313
418c00: 314
4671c7: 315
46cb33: 315
479b41: 316
40a686: 316
41a395: 316
411a31: 316
5f0940: 316
48c842: 316
47d950: 317
48c95c: 317
47c6c0: 318
48caac: 318
4d1082: 318
47c704: 318
47c6a7: 318
48cb41: 318
40a602: 319
4ce178: 319
4db2c0: 319
40a643: 319
45fe00: 320
48c680: 321
4c5bf1: 321
4c45c4: 322
401844: 322
4daf98: 322
4ca986: 322
4024f0: 322
5f0a7c: 322
47b244: 323
4c9eca: 323
48c6c4: 324
5f30cb: 324
4d31e6: 324
417f43: 324
48d940: 324
4196c3: 324
45fe44: 324
48c641: 324
459423: 324
411942: 324
48c610: 324
47c74c: 324
47c4c2: 325
4570b0: 326
46d203: 326
459386: 326
4d04b0: 327
47b20c: 327
4c6b9e: 327
48ba81: 327
48bac4: 327
4697c2: 327
4daf40: 328
4daf02: 328
48c810: 328
4dafc0: 328
463945: 328
4daec0: 328
48d6e0: 328
48d2d7: 329
45c281: 329
5f092f: 329
476581: 329
6099a2: 329
40a582: 329
48d303: 330
46c405: 331
46975d: 331
48de79: 331
5ef1d5: 331
4696c4: 331
4cfc02: 332
5f05c6: 332
417e40: 332
48c540: 333
5f3080: 333
5ef083: 333
469849: 334
41193a: 334
48d610: 334
47c55d: 334
4b9d46: 334
47c601: 334
48d710: 334
48d640: 334
4b96a2: 334
467182: 334
4cbc8a: 335
46456c: 335
4cd94c: 336
4bafda: 336
479c4c: 336
47a9ff: 336
4ba381: 336
48df85: 336
473a03: 336
463910: 337
466c70: 337
4766d0: 337
45af90: 337
476a5c: 337
415002: 338
498c59: 338
415341: 339
41a340: 339
48d741: 339
48bb49: 339
48cb33: 339
4cd881: 339
48dec0: 340
40a543: 340
469807: 340
4cd679: 340
4cd600: 340
[...]
4a4402: 4
4c464a: 4
45ab84: 4
4c4d06: 4
45a417: 4
4cfa83: 4
609b2c: 4
41b581: 4
4d31f1: 4
41b635: 4
4bb083: 4
4cbe81: 4
4ddd60: 4
41b483: 4
40a543: 4
609823: 4
4c36fa: 4
60a341: 4
4c4841: 4
459c41: 4
41b950: 4
408e84: 4
41b445: 4
41b9c1: 4
41ba41: 4
48bd40: 4
47c5c2: 4
4d1407: 4
479806: 4
478b88: 4
476b02: 4
47b483: 4
45a1dd: 4
4c6632: 4
42868c: 4
45a160: 4
4bf8ae: 4
4d7dd8: 4
4bf7bb: 4
418ce5: 4
46cb42: 4
4a8513: 4
473901: 4
4bbd42: 4
47c55d: 4
4c60b1: 4
4bbd82: 4
4c3d06: 4
4792a0: 4
465a00: 4
47c502: 4
4600e0: 4
49e898: 4
4bb95b: 4
4ca541: 4
50fac0: 4
4c5800: 4
47a746: 4
45a304: 4
4c6004: 4
45a20c: 4
473c41: 4
4b8bc9: 4
464737: 4
45a241: 4
4cf901: 5
5f0b40: 5
4a8604: 5
60a2c0: 5
465884: 5
5f0b37: 5
4b9565: 5
469bc6: 5
46ad80: 5
477e00: 5
4d0d42: 5
60b783: 5
465455: 5
4ac940: 5
46d140: 5
47b004: 5
5ef083: 5
5fabd0: 5
4ca1d0: 5
4c0301: 5
465882: 5
462c84: 5
49a427: 5
4c44db: 5
49b841: 5
4c8cc2: 5
4576c3: 5
401fa0: 5
4cd1c1: 5
4c6cc1: 5
4d9746: 5
457242: 5
424701: 5
4ceb50: 5
4cbe73: 5
464b80: 5
609f81: 5
4214c0: 5
45b02a: 5
45ee01: 5
60a383: 5
459c5d: 5
47ad13: 5
5ee993: 5
48c9c2: 5
498bea: 5
4a0800: 5
4c2303: 5
467500: 5
60bd80: 5
401580: 5
4770c4: 5
45b401: 5
457710: 5
5f1d20: 5
41b2d8: 5
45b380: 5
4a0843: 5
4028c1: 5
49b744: 5
47b900: 5
47b870: 5
4643d0: 5
47b5c3: 5
4c254d: 5
420800: 5
45de8d: 5
4cfafd: 5
4d58bb: 5
478f82: 5
49e740: 5
60b105: 5
46005d: 5
60c8c0: 5
46d1c0: 5
41a504: 5
47cd37: 5
418242: 5
46d203: 5
4da984: 5
4e2842: 5
467c81: 5
49e738: 5
46c500: 5
5fac92: 5
47dc0c: 5
47ad94: 5
4d5d36: 5
4cc694: 5
609ff1: 5
4bbac1: 5
4d3246: 5
49a440: 5
4b159e: 5
4a0472: 5
60a091: 5
4dd380: 5
5f0cc0: 5
49abc5: 5
41a401: 5
4dca30: 5
4d0b30: 5
4b93d6: 5
60a907: 5
49b530: 5
49af54: 5
418a80: 5
4d59de: 5
60c4c0: 5
4c3b82: 5
4a4301: 5
4d8a48: 5
49ad10: 5
4c3900: 5
49a946: 5
408a83: 5
49a881: 5
4674c3: 5
47c7d0: 5
4c5503: 5
46c841: 5
4cdf01: 5
46ee04: 5
457cd8: 5
50f56d: 5
47b468: 5
49ba00: 5
46ca82: 5
4da99a: 5
4c56c7: 5
49b881: 5
48d5fd: 5
46d7c6: 5
469c42: 5
419630: 5
5efad5: 5
4b8ed8: 5
4bea63: 5
479c83: 5
5eef90: 5
4df823: 5
4c5a5f: 5
4bf5f3: 5
47d54b: 5
4ca301: 5
4d0b42: 5
4c8ca4: 5
5f1fd0: 5
421a70: 5
4ba279: 5
4645c2: 5
4d63c0: 5
4a85fa: 5
47b1c3: 5
4a518d: 5
4570c3: 5
4bbb7f: 5
4a515b: 5
401f01: 5
4b941a: 5
4dccc1: 5
401dc3: 5
4c75b9: 5
46cfd0: 5
417fb4: 5
5f2c41: 5
4badb3: 5
4d8adc: 5
47c961: 5
46ce80: 5
406def: 5
49bb23: 5
5f2d82: 5
4a8b83: 5
4a88e0: 5
45b1a0: 5
4cb1b7: 5
4a5e52: 5
60c040: 5
469d53: 5
465240: 5
4bb01f: 5
4b9e84: 5
4c4e41: 5
48cdc1: 5
46c944: 5
4797fd: 5
48c810: 5
50fe90: 5
47d440: 5
4b8fcb: 5
4bb306: 5
4d5d51: 5
4d91bc: 5
4c3ac0: 5
407984: 5
407c10: 5
60af70: 5
609b11: 5
4d7b80: 5
401ec1: 5
418480: 5
4182c1: 5
41829a: 5
4c4fc0: 5
466c70: 5
415318: 5
4cfb02: 5
4766c9: 5
60bb10: 5
418f82: 5
4bf701: 5
413286: 5
4d3147: 5
60c530: 5
60c0d0: 5
4739c0: 5
4bedc0: 5
4b948a: 5
413446: 5
60b4e7: 5
4dcdc1: 5
413202: 5
47b229: 5
4bacaf: 5
4da950: 5
4c3b02: 5
49f3ee: 5
46ee82: 5
47b75a: 5
458f08: 5
60aa47: 5
46c781: 5
401d8d: 5
60b360: 5
476b41: 5
4b9094: 5
47d143: 5
60a0ac: 5
47a1c0: 5
4c9e40: 5
60c600: 5
4a0481: 5
476c97: 5
45b3c0: 5
47de19: 5
60b501: 5
477e81: 5
4d7701: 5
608c01: 5
4ba5eb: 5
464e03: 5
47db20: 5
4679e8: 5
47ca85: 5
4b9b49: 5
4d8b79: 5
4b9500: 5
60ab03: 5
4675c3: 5
60a285: 5
4dce45: 5
60afc1: 5
45b8c1: 5
401b01: 5
462e41: 5
47c880: 5
4761f1: 5
4b9106: 5
4d3082: 5
479919: 5
457e16: 5
4d89c6: 5
4b8e80: 5
478b00: 5
4c3690: 5
418f6d: 5
418acf: 5
4c7efe: 5
4d7640: 5
46c4c0: 5
402801: 5
4e0b20: 5
4cc58d: 5
473b42: 5
420a80: 5
4ba357: 5
467609: 5
467448: 5
60ada7: 5
60c2b5: 5
4d5730: 5
4cf759: 5
467bd0: 5
48cb33: 5
4c2563: 5
4ca3e5: 5
60c270: 5
4c4cc2: 5
4c3a00: 5
4c3843: 5
4dd2b0: 5
4c3804: 5
420904: 5
46d8c2: 5
478c84: 5
47afc5: 5
47698d: 5
4c3b40: 5
5f25a0: 5
4bf6bd: 5
469c14: 5
60b4c7: 5
478071: 5
4d582d: 5
4bd958: 5
60a00c: 5
4d8a20: 5
46f2c9: 5
60c1b0: 5
5f1f00: 5
4b9fe8: 5
48ca40: 5
4bc341: 5
418f2d: 5
4196c3: 5
4781ca: 5
41b1c0: 5
4c43c8: 5
45904d: 5
47c6c0: 5
5f2dca: 5
47c9c2: 5
417f43: 5
467980: 5
46af44: 5
4d91c0: 5
47b180: 5
50f500: 5
4dab43: 5
46d351: 5
4655ca: 5
4c3c01: 5
46b0c7: 5
4d5f44: 5
4a2d70: 5
5f2d40: 5
477e4f: 5
4e0e04: 5
467711: 5
4d3e00: 5
4debef: 5
5ee98b: 5
48cdb4: 5
47b8ba: 5
462b46: 5
407020: 5
4cbd04: 5
469942: 5
498c00: 5
428602: 5
48c8c4: 5
4cd273: 5
40a643: 5
4b9e5c: 5
60b7c4: 5
476ac2: 5
47ab4a: 5
467805: 5
4780ca: 5
48caac: 5
4678c4: 5
47adf9: 5
4d3f6d: 5
46d184: 5
458ee7: 5
498580: 5
4cac0f: 5
60bec1: 5
4dd340: 5
476a5c: 5
48c641: 5
4d0640: 5
4a2bc3: 5
4dd2c1: 5
4cb104: 5
46d2fa: 5
47b583: 5
48cbc4: 5
4cbc8a: 5
4c1ce6: 5
45b580: 5
4df97d: 5
46c816: 5
463a67: 5
50fa70: 5
4d8e5d: 5
5f1d44: 5
476d08: 5
419a82: 5
4cd14d: 5
4e2800: 5
464502: 5
4648d9: 5
47a8c2: 5
60c3c2: 5
41bcc5: 5
458fae: 5
4678b2: 5
48c502: 5
424830: 5
462cc5: 5
47b7a7: 5
41821c: 5
4d7efd: 5
4d04c1: 5
457d76: 5
46467c: 5
4cc333: 5
46d887: 5
47d3c0: 5
4cd679: 5
5f0646: 5
4c248b: 5
419002: 5
6068a0: 5
4784c2: 5
467498: 5
4dcb01: 5
4d8b80: 6
60c580: 6
402005: 6
411703: 6
478a80: 6
4d8b20: 6
47b08a: 6
60bb50: 6
406c00: 6
4246c2: 6
476900: 6
4bb481: 6
4a64c7: 6
46c440: 6
4bb190: 6
46fecc: 6
4a5981: 6
4a0980: 6
4baf81: 6
4ce280: 6
48cadc: 6
4c5798: 6
458e81: 6
476966: 6
4a08cf: 6
5f2d24: 6
4a0907: 6
47b6c3: 6
46f216: 6
4b94c5: 6
4c4af7: 6
419342: 6
4246b0: 6
4be8e2: 6
417409: 6
478b49: 6
4b9d46: 6
4b9042: 6
45ddb2: 6
47cac1: 6
46596a: 6
4c42e0: 6
60c2f0: 6
60a202: 6
49b56f: 6
5df41c: 6
476df0: 6
47b130: 6
49a930: 6
457ab8: 6
4a847b: 6
4c73bd: 6
424841: 6
4b4765: 6
4b8f11: 6
4b9445: 6
47aee9: 6
4d8e80: 6
4b9147: 6
4d8f50: 6
4c3981: 6
4c38c4: 6
41b64a: 6
4136eb: 6
50fbd3: 6
460161: 6
4c37c3: 6
4c4444: 6
4c39c3: 6
47b042: 6
4c89b9: 6
464b60: 6
479082: 6
47810e: 6
609e41: 6
46444c: 6
60ad9b: 6
4d095e: 6
47b145: 6
479e43: 6
473a43: 6
464441: 6
46d650: 6
608b90: 6
60ae47: 6
5fa282: 6
5fa2f0: 6
4bbbc0: 6
5fa341: 6
4a8955: 6
464483: 6
4a8901: 6
4d74c0: 6
4d0e00: 6
609a20: 6
609820: 6
420995: 6
4dec00: 6
4c4f02: 6
5f2e03: 6
498a4a: 6
462d10: 6
498a64: 6
46d0b3: 6
4d9170: 6
4b96c1: 6
47a981: 6
5fa258: 6
60ac00: 6
40a602: 6
4d06fe: 6
50fa80: 6
477195: 6
41b6c0: 6
47ae41: 6
479ac3: 6
41b294: 6
4d0564: 6
476e30: 6
45aba2: 6
4da8c0: 6
47aac2: 6
4c4b00: 6
50f4f0: 6
478b14: 6
4d7a1c: 6
45818d: 6
47d2c1: 6
47ca00: 6
4a7819: 6
46c904: 6
49b7f0: 6
498c99: 6
498c59: 6
4c3ec4: 6
609f51: 6
4a3081: 6
4457d4: 6
47cbdd: 6
4c47ff: 6
4a0940: 6
4ce0f0: 6
41a363: 6
60c400: 6
47a3c1: 6
60bd10: 6
406cdc: 6
4d9200: 6
4bd2d0: 6
47ce83: 6
498a76: 6
47bce0: 6
4c3f12: 6
46e500: 6
621010: 6
4ccdc1: 6
4b9c01: 6
4c4180: 6
47d0bb: 6
4be628: 6
4a5e97: 6
45aff5: 6
411740: 6
4a4680: 6
4a8680: 6
4ca28f: 6
464b00: 6
49b78c: 6
41afbb: 6
47c900: 6
407bca: 6
4a523a: 6
4ba9d0: 6
47b526: 6
47db6b: 6
4d9657: 6
4d9600: 6
4d9282: 6
4ce178: 6
47d101: 6
4d648a: 6
4cdf61: 6
4d5ec9: 6
4027e0: 6
47d243: 6
4cd5eb: 6
412204: 6
473ab0: 6
476980: 6
609bf6: 6
5fa304: 6
476840: 6
46c4f5: 6
4d5680: 6
460181: 6
47b7c4: 6
47af42: 6
408d41: 6
4d2d90: 6
477ee0: 6
411a31: 6
498d11: 6
46b0c1: 6
4b9bc1: 6
47d9b0: 6
5f2f68: 6
4bd481: 6
420942: 6
4d1184: 6
46d9a2: 6
477fc3: 6
4172a0: 6
4d922e: 6
4d92e6: 6
45b806: 6
46d7cc: 6
4ce105: 6
427f46: 6
406b60: 6
4118b5: 6
478488: 6
412041: 6
473c81: 6
4570b0: 6
4d6443: 6
415341: 6
477f01: 6
4d3740: 6
401a80: 6
4d5e00: 6
4de347: 6
408a69: 6
4116e0: 6
6097d6: 6
457dc6: 6
4daa00: 6
412100: 6
4a4663: 6
478703: 6
402043: 6
4c48ba: 6
5f0ac4: 6
46451d: 6
406b80: 6
4798d4: 6
4a8981: 6
401d01: 6
45b5c1: 6
4ddb02: 6
457d09: 6
4a859f: 6
464419: 6
47a8b7: 6
459200: 6
47dd9e: 6
41a3c0: 6
60adc5: 6
46d100: 6
47a857: 6
46d840: 6
47b3d1: 6
47da8d: 6
473b80: 6
4d0784: 6
46d91e: 6
60c370: 6
411823: 6
401acd: 6
400480: 6
60ada3: 6
47bdf0: 6
478000: 6
406bd8: 6
464681: 6
478e81: 6
4658de: 6
478ed8: 6
498d83: 6
4de315: 6
4d6300: 6
411780: 6
475ec0: 6
4bb1c3: 6
476ab9: 6
4a4342: 6
4d9680: 6
4dd324: 6
60a1c2: 6
463950: 6
47971b: 6
4d75c2: 6
4a86c2: 6
478057: 6
4a84f0: 6
46b0a0: 6
478ac2: 6
47dc09: 6
47d1c0: 6
4118c1: 6
47db18: 6
411844: 6
478465: 6
4d6427: 6
47ae02: 6
4de285: 6
4c89c1: 6
4ddb70: 6
47a558: 6
60c6c0: 6
4a4782: 6
479150: 6
4cd59d: 6
4de2c6: 6
401eb1: 6
4cd542: 6
4d5fa2: 6
417441: 6
4c8940: 6
4768ce: 6
60c320: 6
41bb4d: 6
457fea: 6
47bc41: 6
4d9241: 6
4c8902: 6
457201: 6
412142: 6
5f04c7: 6
46cc65: 6
4d8c14: 6
411d80: 6
4cb1c6: 6
4b169c: 6
401557: 6
41a675: 6
4cc9a5: 6
4b98c0: 6
417301: 6
4014d0: 6
473985: 6
48c7be: 6
4d91f2: 6
49ecf2: 6
5dcc86: 6
411942: 6
412b41: 6
41a540: 6
5f1742: 6
46cdc2: 6
4d750d: 6
478e50: 6
4b8b01: 6
47d0ff: 6
4c4400: 6
4c8c03: 6
401fc3: 6
412cb5: 6
478ff2: 6
4117c5: 6
50fd40: 6
6073c3: 6
473a03: 6
46d301: 6
411a5d: 6
401b40: 6
411d79: 6
60c440: 6
4571d1: 6
4bbcc0: 6
412b10: 6
4dcbc0: 6
46598a: 6
47d198: 6
4591d8: 6
4cb581: 6
46d94d: 6
41b68c: 6
473941: 6
60ad87: 6
4600cb: 6
47cef6: 6
47a6ca: 6
4172c0: 6
46e8c0: 6
4de260: 6
412020: 6
476701: 6
515470: 6
4ac910: 6
4120c1: 6
4ddb81: 6
457c50: 6
45b780: 6
4b9702: 6
41219f: 6
4762c0: 6
4ada01: 6
479a80: 6
4d5ff0: 6
4d3204: 6
4c8868: 6
5f1ec3: 6
47d9c6: 6
4791c2: 6
4d5dee: 6
473820: 6
6068c1: 6
4bb108: 6
4989dd: 6
4dda81: 6
609ea6: 6
46d740: 6
4121ff: 6
41b003: 6
60bf60: 7
4b9902: 7
5fac01: 7
4572c0: 7
462dd0: 7
4d5c88: 7
402882: 7
4c8bf8: 7
4d3120: 7
4c8a0e: 7
408a7f: 7
4208fc: 7
4ca523: 7
60abc5: 7
4ddbc5: 7
60ae53: 7
41bb00: 7
4cd505: 7
4d0ac0: 7
4cd17a: 7
4d5ffc: 7
458acc: 7
47a402: 7
4cb634: 7
4d79c1: 7
4d0730: 7
4c73c2: 7
60c840: 7
465282: 7
5ef19f: 7
4184e0: 7
609ec1: 7
4be3d3: 7
5f07a8: 7
457183: 7
418be9: 7
5f1e90: 7
459189: 7
4c48c2: 7
60c930: 7
458200: 7
4c2594: 7
4e05df: 7
609e31: 7
4285e0: 7
4649c4: 7
4d7944: 7
4572a7: 7
5f2600: 7
608b60: 7
419904: 7
476037: 7
41c680: 7
4a7816: 7
4baf4b: 7
4ba7f8: 7
458b44: 7
46c3c1: 7
5f071f: 7
4b9c85: 7
4c6ba7: 7
476aa0: 7
4c7847: 7
4c3741: 7
46440f: 7
4594c0: 7
414a20: 7
41b300: 7
609b96: 7
4769cd: 7
4079c1: 7
60a10e: 7
4b8b50: 7
4c3705: 7
460080: 7
41afcb: 7
479040: 7
465809: 7
498ba0: 7
60bdb0: 7
5ef020: 7
46af1c: 7
4d8a5a: 7
608b81: 7
457145: 7
476821: 7
4195a0: 7
47bc82: 7
60c500: 7
477f45: 7
4c36c1: 7
476748: 7
4cc872: 7
4cd780: 7
4c3960: 7
4644f3: 7
4dcd80: 7
479c21: 7
407c40: 7
458a80: 7
4c490e: 7
4d754e: 7
4d0302: 7
4be9d5: 7
408a1b: 7
4b9941: 7
457304: 7
473b02: 7
4c46c1: 7
609aaf: 7
60bc30: 7
476e43: 7
4b0518: 7
4ddacd: 7
4bf6c0: 7
457f80: 7
463910: 7
4582c3: 7
458e50: 7
41a3ef: 7
4a8530: 7
4bd344: 8
60bf90: 8
4136ca: 8
46fe99: 8
457ae6: 8
41a697: 8
60beb0: 8
4df1f0: 8
407040: 8
460076: 8
4268e0: 8
458ba5: 8
47650e: 8
4d6003: 8
47aa54: 8
418892: 8
4d318f: 8
4646c1: 8
47aa15: 8
457fe0: 8
476681: 8
464403: 8
4652c2: 8
6068dc: 8
609dc0: 8
4790c3: 8
47a380: 8
48c680: 8
60bf30: 8
4d09c7: 8
4761f9: 8
5f1d80: 8
464883: 8
407399: 8
47da58: 8
476640: 8
5f0b10: 8
45919d: 8
46c740: 8
476581: 8
401f44: 8
457747: 8
4ca986: 8
47678e: 8
41c6c0: 8
402890: 8
4cbc43: 8
45b73c: 8
4d9279: 8
60c390: 8
4d8b68: 8
5f0c66: 8
408a76: 8
4ce301: 8
4cc700: 8
419b3b: 8
4dda70: 8
4d76d2: 8
459386: 8
60bbf0: 8
60ab80: 8
6098a2: 8
5ee962: 8
45aaa9: 8
609d41: 8
4c8881: 8
60c2b0: 8
4798e2: 8
609d11: 8
47ce1d: 8
45b5e2: 8
5f25c0: 8
4bb039: 8
47b9e0: 8
41bc99: 9
40159a: 9
4c6bb5: 9
46487b: 9
4dd404: 9
457520: 9
60c480: 9
418b1d: 9
459c6b: 9
421a7d: 9
476db3: 9
4195c1: 9
4600e3: 9
4cb6e4: 9
4d7d30: 9
609751: 9
4b9c6e: 9
4cb3ec: 9
47c641: 9
477dc5: 9
49ce86: 9
4989c8: 9
4003a0: 9
60c700: 9
459c67: 9
414983: 9
47a598: 9
4d759c: 9
458284: 9
60ae57: 9
479929: 9
458b0b: 9
5f2c20: 9
45fefb: 10
44591c: 10
60c170: 10
4781bb: 10
47aaac: 10
464910: 10
476c75: 10
412b63: 10
4d9000: 10
4d57ca: 10
60c190: 10
46c855: 10
4003f0: 10
608eab: 10
45b202: 10
60aba7: 10
475f40: 10
60c7a0: 10
609a91: 10
5f2d46: 10
476842: 10
407c13: 10
60c110: 10
4cc639: 10
47aa50: 10
5f0668: 10
4d6202: 10
402081: 10
608c11: 10
5f0a80: 10
606843: 11
408a73: 11
60a546: 11
49ce8a: 11
46d05f: 11
4dce34: 11
60c680: 11
4a844a: 11
609c11: 11
608e90: 11
4996cf: 11
4d8f2b: 11
5f1d5f: 11
4d8eab: 11
464e97: 11
46c405: 11
419ad0: 11
463ac7: 11
4d8a63: 11
45fed0: 11
4d0680: 11
5f0b06: 12
608c26: 12
60a56e: 12
4baf72: 12
6097d2: 12
609da1: 12
60bfb0: 12
41a3fc: 12
5f0b1b: 12
408aec: 12
5f171d: 12
45acc4: 12
47684e: 12
4073c1: 12
4658ef: 12
5f1ead: 12
4bab55: 12
50fd3d: 12
406f96: 12
6068bd: 13
4cc9b5: 13
60a1f0: 13
4b1917: 13
4afeb1: 13
4d073e: 13
4d8ed9: 13
608de2: 13
5f0af9: 13
47671e: 13
4c5850: 13
60900a: 13
609740: 13
41b02a: 13
608d34: 13
418c00: 13
609c91: 13
60c560: 13
476ec0: 14
41afde: 14
4d5751: 14
608c56: 14
47dd28: 14
4079a4: 14
4be6fd: 14
4a86d3: 14
5f04b7: 14
45ddc0: 14
445929: 14
60a1d3: 14
609991: 14
50b025: 14
4b04fa: 14
608b7d: 14
608e36: 15
4a8559: 15
428f5a: 15
4785ad: 15
47b252: 15
4a253a: 15
4be3ce: 15
4bc615: 15
5f0c31: 15
45c329: 15
608e4b: 15
6068b9: 15
50fb6f: 15
608f17: 15
4a849f: 15
479c25: 15
445d55: 15
476dc9: 16
4d5fff: 16
445d67: 16
45b1b2: 16
4bee24: 16
4be3c9: 16
608ccb: 16
60bdf0: 16
49ca95: 16
608ec6: 16
46d0f2: 16
608e0c: 16
473ac3: 16
608df7: 16
608ce0: 16
420809: 16
4780a5: 16
5f0730: 16
608d1f: 16
419339: 16
4be3e8: 16
45afa2: 17
4bc148: 17
479bdd: 17
47b9d7: 17
608bfc: 17
4cc704: 17
476941: 17
5f0523: 17
45aaad: 17
4593c4: 17
401883: 17
4c784b: 17
608d49: 17
60bbc0: 17
47b9c0: 17
4c3a32: 17
4ddbb6: 18
60c980: 18
476f30: 18
5f783a: 18
5f07c0: 18
60c960: 18
47c938: 18
608efc: 18
4ba381: 18
478015: 18
608cf5: 19
445935: 19
608ff0: 19
407423: 19
418493: 19
46c859: 19
4596cf: 19
4a8709: 20
4994bd: 20
408ac3: 20
47670e: 20
47cba1: 20
4d76ca: 20
46730b: 20
608e60: 20
608f32: 20
4d63db: 21
4c2377: 21
417e31: 21
445911: 21
476dd8: 21
476dbe: 21
47aa04: 21
4792a9: 22
476a8e: 22
60bfd0: 22
41193a: 22
476e4a: 23
4c5006: 23
476002: 23
428f94: 23
4208c2: 23
4d6349: 23
478e95: 24
4208f0: 24
476d20: 24
60bdd0: 24
4be9bc: 24
4d073b: 24
5f0b91: 24
47682e: 25
608ffc: 25
4b944b: 25
4c5b80: 25
47da1c: 25
4d3044: 25
47d1df: 26
41b153: 26
4dad84: 26
41b157: 26
457141: 27
4d3131: 27
4c5c33: 28
4d5f18: 28
5f07c4: 28
476845: 28
4be5ac: 28
609018: 28
60c9a0: 29
4cf564: 29
458191: 29
458194: 30
4bb7f6: 30
445915: 30
4644f7: 30
476eed: 30
478f3a: 30
47642b: 30
4698c3: 30
478063: 30
6068e3: 30
477d72: 31
609a24: 31
4a8457: 32
4bb2d5: 32
479b24: 32
462dac: 33
41a453: 33
606826: 34
445d5e: 34
4da99e: 34
47d38b: 34
50fbd6: 35
4d3189: 36
478165: 36
44588b: 36
401ffa: 36
47b8bd: 37
46ff08: 37
45738e: 39
5f2621: 39
47dd5f: 40
4996b4: 41
4be8e6: 41
45b58f: 42
476629: 43
478199: 44
46712d: 44
4d5f47: 45
50fcc1: 46
477058: 46
47b3d5: 46
476abd: 47
467136: 47
4c4cbe: 47
479b30: 48
4c5908: 48
4bac41: 49
476719: 49
5f0c7a: 50
476008: 50
4764bf: 50
47b57f: 50
4783d4: 51
41961c: 52
50faa2: 52
49caa2: 53
5f0535: 54
4c7a7b: 56
41ae81: 56
5ef0fd: 56
46713a: 57
4d37d4: 59
476e11: 60
60bfe0: 60
418b55: 62
47d555: 62
60c5a0: 62
476ec4: 63
50fc30: 64
47b8a0: 65
477fbf: 65
477f4d: 66
475fc2: 66
4d8ee2: 67
4d56f4: 67
47aabf: 70
4bbd1e: 70
6068b2: 70
41a53c: 70
475fcc: 70
475fd0: 72
47ab60: 72
4d8a67: 73
5f0c4b: 74
4cfa06: 75
50fcb4: 75
4bb03f: 75
4c5821: 75
4d080b: 76
4c585c: 76
60a240: 77
5f1d8d: 79
4bb7f9: 82
5f0c1c: 82
418a50: 84
5ef18b: 85
477f4a: 86
4c5841: 86
4120c5: 87
4a86ab: 88
608ba4: 88
42100a: 91
47c9ed: 92
5eefef: 92
418b00: 93
479a9c: 93
47b8e0: 94
4bb03d: 95
49c93b: 98
4c5c89: 101
46cb49: 103
4118cb: 103
477ff2: 104
4bac47: 105
50fc10: 109
47d20e: 109
41193e: 111
4bb317: 113
47b541: 113
419ac0: 113
476ff0: 115
41bbd3: 117
412246: 119
4dcb84: 120
47d1aa: 120
60c3a0: 122
4761ac: 122
419ac4: 122
47d2de: 123
412243: 124
46c778: 126
50fa96: 127
476984: 128
41a470: 128
4ba4e0: 128
4195f4: 133
60c1c0: 140
47de2b: 140
4c64b6: 140
47601c: 141
476df7: 142
476271: 143
476fe5: 144
46c2b2: 147
4ba4f9: 148
4d6457: 149
4c38f4: 151
60be00: 154
4dcaf9: 155
478aa0: 157
4bacb7: 158
418b44: 159
41b15b: 164
4d0742: 165
47b3e8: 166
4d9100: 169
479c56: 172
476129: 176
4c2362: 177
50fa8b: 183
47a217: 190
478cc9: 190
4baba6: 191
47b8a4: 192
47a963: 193
4d075a: 203
4761a9: 203
4c580f: 204
5f0544: 206
50fcf1: 208
4d63d5: 211
41b037: 213
417f48: 214
417f3c: 223
47d3cb: 225
47cba9: 242
475ef3: 242
4d5f21: 247
5ee9c8: 250
47dd59: 251
5114d7: 254
479b27: 257
479ba6: 263
4cf81b: 264
463b93: 272
50fc05: 274
47d25c: 280
4c581c: 283
463c74: 283
475f06: 284
5f2c39: 285
428f70: 302
5f053a: 310
41a559: 311
477003: 316
419040: 317
479aff: 320
47dd63: 320
476147: 331
46ff9c: 332
4bbd11: 333
476e4d: 335
41d350: 351
421020: 353
4b9572: 386
418bc0: 386
418bc4: 387
4c5c2d: 391
476f34: 398
4d7924: 400
476221: 418
476113: 418
418b21: 424
4ce30b: 426
4dca40: 437
4b8b99: 440
479af5: 492
477038: 499
47cd3f: 539
418d4a: 541
4c5911: 553
47a692: 576
4d5f4a: 597
4c5b85: 605
477f07: 620
47cd5a: 631
50fa9a: 639
50fcc4: 663
47d275: 664
47623f: 685
476080: 691
418b3e: 698
4bab02: 783
4d5793: 798
4baacf: 827
479b03: 864
4195f0: 911
4b8eb0: 929
4b8e8a: 932
47a696: 1055
4195dc: 1085
476133: 1092
47d2e1: 1156
476123: 1332
46ff30: 1363
475f82: 1381
479c0b: 1390
47cd43: 1418
47612d: 1504
418b06: 1507
417f3f: 1614
417f2a: 1644
47d24d: 1742
47d272: 1795
47d251: 1821
47616a: 1902
4d63df: 2296
418ae2: 2301
418b30: 3713
4cc330: 45388

RAW hits: 3140047
Loads Generated: 49831232
Loads sent to L1D: 46691186
Stores Generated: 39740620
Stores sent to L1D: 39740638
Major fault: 0 Minor fault: 5924
Allocated PAGES: 5924
Total Load insts: 55687802
Total Non-spec loads: 13130064
Percentage of speculative loads: 76.422
L1D response latency: 65.7239 cycles
Load retirement latency: 98.2764 cycles


stream: 
stream:times selected: 5626692
stream:pref_filled: 371780
stream:pref_useful: 120540
stream:pref_late: 6681
stream:misses: 51872
stream:misses_by_poll: 0

CS: 
CS:times selected: 169191
CS:pref_filled: 42715
CS:pref_useful: 25996
CS:pref_late: 170
CS:misses: 3138
CS:misses_by_poll: 37

CPLX: 
CPLX:times selected: 5438006
CPLX:pref_filled: 192366
CPLX:pref_useful: 23987
CPLX:pref_late: 1124
CPLX:misses: 261236
CPLX:misses_by_poll: 650

NL_L1: 
NL:times selected: 26388
NL:pref_filled: 4366
NL:pref_useful: 1272
NL:pref_late: 95
NL:misses: 3582
NL:misses_by_poll: 0

total selections: 11260277
total_filled: 603979
total_useful: 169584
total_late: 8615
total_polluted: 687
total_misses_after_warmup: 514158
conflicts: 1324256
Degree Incremented Times: 5354
Degree Decremented Times: 505515

L1 IP Table Write Accesses: 33308694
L1 IP Table Read Accesses: 31984438
L1 RST Write Accesses: 4998162
L1 RST Read Accesses: 9996324
L1 CSPT Write Accesses: 4998162
L1 CSPT Read Accesses: 9825455
L1 RR Filter Tag Write Accesses: 2327886
L1 RR Filter Tag Read Accesses: 179699779
L1 IP Table Tag Write Accesses: 36311238
L1 IP Table Tag Read Accesses: 36311238
L1 RST Tag Write Accesses: 0
L1 RST Tag Read Accesses: 48414696
L1 RR Filter Write Accesses: 0
L1 RR Filter Read Accesses: 7509983
test: 1327415

DRAM Statistics
 CHANNEL 0
 RQ ROW_BUFFER_HIT:      89327  ROW_BUFFER_MISS:     266095
 DBUS_CONGESTED:        102
 WQ ROW_BUFFER_HIT:       8781  ROW_BUFFER_MISS:      31495  FULL:          0

 AVG_CONGESTED_CYCLE: 4
 All warmup complete: 2
Channel 0 Bank busy for read cycles: 0
Channel 0 Bank busy for write cycles: 0
Channel 0
Rank 0
0banks busy for read cycles: 362539245
0banks busy for write cycles: 31141
1banks busy for read cycles: 20673557
1banks busy for write cycles: 5256163
2banks busy for read cycles: 7681311
2banks busy for write cycles: 928999
3banks busy for read cycles: 1880643
3banks busy for write cycles: 166776
4banks busy for read cycles: 437168
4banks busy for write cycles: 33983
5banks busy for read cycles: 121507
5banks busy for write cycles: 8254
6banks busy for read cycles: 32601
6banks busy for write cycles: 5443
7banks busy for read cycles: 12725
7banks busy for write cycles: 433
8banks busy for read cycles: 7769
8banks busy for write cycles: 0

CPU 0 Branch Prediction Accuracy: 99.0693% MPKI: 1.53431 Average ROB Occupancy at Mispredict: 52.9881
Branch types
NOT_BRANCH: 167028098 83.514%
BRANCH_DIRECT_JUMP: 4141048 2.07052%
BRANCH_INDIRECT: 1274734 0.637367%
BRANCH_CONDITIONAL: 23669876 11.8349%
BRANCH_DIRECT_CALL: 1551808 0.775904%
BRANCH_INDIRECT_CALL: 391135 0.195567%
BRANCH_RETURN: 1942942 0.971471%
BRANCH_OTHER: 0 0%

DRAM PAGES: 1048576
Allocated PAGES: 5924
