
*** ChampSim Multicore Out-of-Order Simulator ***

Warmup Instructions: 50000000
Simulation Instructions: 200000000
Number of CPUs: 1
LLC sets: 2048
LLC ways: 16
Secure Berti: OFF
Berti: OFF
Berti Fill: OFF
On commit prefetching: OFF
L2 LLC Bypass speculative loads: OFF
Off-chip DRAM Size: 4096 MB Channels: 1 Width: 64-bit Data Rate: 6400 MT/s
CPU 0 runs /home/sumon/secure_berti/Berti_Baseline/../../traces/spec/603.bwaves_s-891B.champsimtrace.xz
.xz
BTB has LRU replacement policy
ITLB has LRU replacement policy
DTLB has LRU replacement policy
STLB has LRU replacement policy
L1I has LRU replacement policy
IP Table Entries: 1024
CSPT Entries: 128
RR_ENTRIES: 32
RST_ENTRIES: 8
L1D has LRU replacement policy
L2C has LRU replacement policy
LLC has LRU replacement policy
Heartbeat CPU 0 instructions: 10000003 cycles: 2715419 heartbeat IPC: 3.68267 cumulative IPC: 3.68267 (Simulation time: 0 hr 0 min 14 sec) 
Heartbeat CPU 0 instructions: 20000003 cycles: 5430815 heartbeat IPC: 3.6827 cumulative IPC: 3.68269 (Simulation time: 0 hr 0 min 27 sec) 
Heartbeat CPU 0 instructions: 30000002 cycles: 8146190 heartbeat IPC: 3.68273 cumulative IPC: 3.6827 (Simulation time: 0 hr 0 min 40 sec) 
Heartbeat CPU 0 instructions: 40000000 cycles: 10861585 heartbeat IPC: 3.6827 cumulative IPC: 3.6827 (Simulation time: 0 hr 0 min 53 sec) 
Heartbeat CPU 0 instructions: 50000002 cycles: 13778226 heartbeat IPC: 3.4286 cumulative IPC: 3.62891 (Simulation time: 0 hr 1 min 5 sec) 

Warmup complete CPU 0 instructions: 50000002 cycles: 13778226 (Simulation time: 0 hr 1 min 5 sec) 

Heartbeat CPU 0 instructions: 60000001 cycles: 27530444 heartbeat IPC: 0.727155 cumulative IPC: 0.727155 (Simulation time: 0 hr 1 min 21 sec) 
Heartbeat CPU 0 instructions: 70000001 cycles: 41283069 heartbeat IPC: 0.727134 cumulative IPC: 0.727145 (Simulation time: 0 hr 1 min 37 sec) 
Heartbeat CPU 0 instructions: 80000002 cycles: 55035551 heartbeat IPC: 0.727142 cumulative IPC: 0.727144 (Simulation time: 0 hr 1 min 54 sec) 
Heartbeat CPU 0 instructions: 90000001 cycles: 68787716 heartbeat IPC: 0.727158 cumulative IPC: 0.727147 (Simulation time: 0 hr 2 min 10 sec) 
Heartbeat CPU 0 instructions: 100000000 cycles: 82540038 heartbeat IPC: 0.72715 cumulative IPC: 0.727148 (Simulation time: 0 hr 2 min 26 sec) 
Heartbeat CPU 0 instructions: 110000000 cycles: 96292830 heartbeat IPC: 0.727125 cumulative IPC: 0.727144 (Simulation time: 0 hr 2 min 43 sec) 
Heartbeat CPU 0 instructions: 120000001 cycles: 110045674 heartbeat IPC: 0.727122 cumulative IPC: 0.727141 (Simulation time: 0 hr 2 min 59 sec) 
Heartbeat CPU 0 instructions: 130000000 cycles: 123798032 heartbeat IPC: 0.727148 cumulative IPC: 0.727142 (Simulation time: 0 hr 3 min 16 sec) 
Heartbeat CPU 0 instructions: 140000001 cycles: 137551362 heartbeat IPC: 0.727097 cumulative IPC: 0.727137 (Simulation time: 0 hr 3 min 32 sec) 
Heartbeat CPU 0 instructions: 150000000 cycles: 151304472 heartbeat IPC: 0.727108 cumulative IPC: 0.727134 (Simulation time: 0 hr 3 min 49 sec) 
Heartbeat CPU 0 instructions: 160000000 cycles: 165057120 heartbeat IPC: 0.727133 cumulative IPC: 0.727134 (Simulation time: 0 hr 4 min 5 sec) 
Heartbeat CPU 0 instructions: 170000000 cycles: 178732964 heartbeat IPC: 0.731216 cumulative IPC: 0.727472 (Simulation time: 0 hr 4 min 22 sec) 
Heartbeat CPU 0 instructions: 180000001 cycles: 192251962 heartbeat IPC: 0.7397 cumulative IPC: 0.728399 (Simulation time: 0 hr 4 min 38 sec) 
Heartbeat CPU 0 instructions: 190000002 cycles: 205307172 heartbeat IPC: 0.765978 cumulative IPC: 0.73096 (Simulation time: 0 hr 4 min 57 sec) 
Heartbeat CPU 0 instructions: 200000002 cycles: 217814969 heartbeat IPC: 0.799501 cumulative IPC: 0.735162 (Simulation time: 0 hr 5 min 17 sec) 
Heartbeat CPU 0 instructions: 210000002 cycles: 230322241 heartbeat IPC: 0.799535 cumulative IPC: 0.73888 (Simulation time: 0 hr 5 min 38 sec) 
Heartbeat CPU 0 instructions: 220000000 cycles: 242830360 heartbeat IPC: 0.799481 cumulative IPC: 0.742189 (Simulation time: 0 hr 5 min 58 sec) 
Heartbeat CPU 0 instructions: 230000000 cycles: 255336266 heartbeat IPC: 0.799622 cumulative IPC: 0.745163 (Simulation time: 0 hr 6 min 18 sec) 
Heartbeat CPU 0 instructions: 240000000 cycles: 267843277 heartbeat IPC: 0.799552 cumulative IPC: 0.74784 (Simulation time: 0 hr 6 min 39 sec) 
Heartbeat CPU 0 instructions: 250000000 cycles: 280349801 heartbeat IPC: 0.799583 cumulative IPC: 0.750268 (Simulation time: 0 hr 6 min 59 sec) 
Finished CPU 0 instructions: 200000002 cycles: 266571576 cumulative IPC: 0.750268 (Simulation time: 0 hr 6 min 59 sec) 

ChampSim completed all CPUs

Region of Interest Statistics

CPU 0 cumulative IPC: 0.750268 instructions: 200000002 cycles: 266571576
ITLB TOTAL     ACCESS:   33485094  HIT:   33485093  MISS:          1  HIT %:        100  MISS %: 2.9864e-06   MPKI: 5e-06
ITLB Test counter:          0
ITLB LOAD TRANSLATION ACCESS:   33485094  HIT:   33485093  MISS:          1  HIT %:        100  MISS %: 2.9864e-06   MPKI: 5e-06
ITLB PREFETCH  REQUESTED:          0  ISSUED:          0  USEFUL:          0  USELESS:          0
ITLB USEFUL LOAD PREFETCHES:          0 PREFETCH ISSUED TO LOWER LEVEL:          0  ACCURACY: -nan
ITLB TIMELY PREFETCHES:          0 LATE PREFETCHES: 0 DROPPED PREFETCHES: 0
ITLB COMMIT LATE PREFETCHES: 0 MISSED OPPORTUNITY: 0 LATE IN PQ: 0 UNCOVERED: 0
ITLB COMMIT LATE MSHR PREFETCHES: 0
ITLB MPKI TOTAL: 0 MSHR LATE: 0 PQ LATE: 0 COMMIT LATE: 0 MISSED OPPORTUNITY: 0 UNCOVERED: 0
ITLB PREFETCHES SAME FILL-ORIGIN LEVEL: 0 DIFFERENT FILL-ORIGIN LEVEL: 0
ITLB AVERAGE MISS LATENCY: 431 cycles
ITLB AVERAGE MISS LATENCY LOAD: -nan cycles
ITLB AVERAGE MISS LATENCY PREFETCH: -nan cycles
ITLB AVERAGE MSHR OCCUPANCY: 2.9864e-08
ITLB MSHR FULL: 0
ITLB RQ	ACCESS:   34870804	FORWARD:          0	MERGED:    1385709	TO_CACHE:   33485095

DTLB TOTAL     ACCESS:   23747940  HIT:   23687286  MISS:      60654  HIT %:    99.7446  MISS %:   0.255407   MPKI: 0.30327
DTLB Test counter:          0
DTLB LOAD TRANSLATION ACCESS:   23747940  HIT:   23687286  MISS:      60654  HIT %:    99.7446  MISS %:   0.255407   MPKI: 0.30327
DTLB PREFETCH  REQUESTED:          0  ISSUED:          0  USEFUL:          0  USELESS:          0
DTLB USEFUL LOAD PREFETCHES:          0 PREFETCH ISSUED TO LOWER LEVEL:          0  ACCURACY: -nan
DTLB TIMELY PREFETCHES:          0 LATE PREFETCHES: 0 DROPPED PREFETCHES: 0
DTLB COMMIT LATE PREFETCHES: 0 MISSED OPPORTUNITY: 0 LATE IN PQ: 0 UNCOVERED: 0
DTLB COMMIT LATE MSHR PREFETCHES: 0
DTLB MPKI TOTAL: 0 MSHR LATE: 0 PQ LATE: 0 COMMIT LATE: 0 MISSED OPPORTUNITY: 0 UNCOVERED: 0
DTLB PREFETCHES SAME FILL-ORIGIN LEVEL: 0 DIFFERENT FILL-ORIGIN LEVEL: 0
DTLB AVERAGE MISS LATENCY: 116.838 cycles
DTLB AVERAGE MISS LATENCY LOAD: -nan cycles
DTLB AVERAGE MISS LATENCY PREFETCH: -nan cycles
DTLB AVERAGE MSHR OCCUPANCY: 0.00250915
DTLB MSHR FULL: 0
DTLB RQ	ACCESS:   24382059	FORWARD:          0	MERGED:     616616	TO_CACHE:   23765443

STLB TOTAL     ACCESS:    3531515  HIT:    3471197  MISS:      60318  HIT %:     98.292  MISS %:    1.70799   MPKI: 0.30159
STLB Test counter:          0
STLB LOAD TRANSLATION ACCESS:      60655  HIT:        337  MISS:      60318  HIT %:   0.555601  MISS %:    99.4444   MPKI: 0.30159
STLB TRANSLATION FROM L1D PREFETCHER ACCESS:    3470860  HIT:    3470860  MISS:          0  HIT %:        100  MISS %:          0   MPKI: 0
STLB PREFETCH  REQUESTED:          0  ISSUED:          0  USEFUL:          0  USELESS:          0
STLB USEFUL LOAD PREFETCHES:          0 PREFETCH ISSUED TO LOWER LEVEL:          0  ACCURACY: -nan
STLB TIMELY PREFETCHES:          0 LATE PREFETCHES: 0 DROPPED PREFETCHES: 0
STLB COMMIT LATE PREFETCHES: 0 MISSED OPPORTUNITY: 0 LATE IN PQ: 0 UNCOVERED: 0
STLB COMMIT LATE MSHR PREFETCHES: 0
STLB MPKI TOTAL: 0 MSHR LATE: 0 PQ LATE: 0 COMMIT LATE: 0 MISSED OPPORTUNITY: 0 UNCOVERED: 0
STLB PREFETCHES SAME FILL-ORIGIN LEVEL: 0 DIFFERENT FILL-ORIGIN LEVEL: 0
STLB AVERAGE MISS LATENCY: 108.446 cycles
STLB AVERAGE MISS LATENCY LOAD: -nan cycles
STLB AVERAGE MISS LATENCY PREFETCH: -nan cycles
STLB AVERAGE MSHR OCCUPANCY: 5.66329e-07
STLB MSHR FULL: 0
STLB RQ	ACCESS:    3867533	FORWARD:          0	MERGED:     336018	TO_CACHE:    3531515

STLB Hit, L1D data hit: 0
STLB Hit, L2C data hit: 0
STLB Hit, LLC data hit: 0
STLB Hit, LLC data miss: 0
STLB STLB hints to L2: 0
L1D TOTAL     ACCESS:   27869539  HIT:   24008450  MISS:    3861089  HIT %:    86.1458  MISS %:    13.8542   MPKI: 19.3054
L1D Test counter:          0
L1D LOAD      ACCESS:   20818021  HIT:   20667681  MISS:     378651  HIT %:    99.2778  MISS %:   0.722163   MPKI: 0.7517
L1D RFO       ACCESS:    3335728  HIT:    3335726  MISS:          2  HIT %:    99.9999  MISS %: 5.99569e-05   MPKI: 1e-05
L1D PREFETCH  ACCESS:    3715790  HIT:       5043  MISS:    3710747  HIT %:   0.135718  MISS %:    99.8643   MPKI: 18.5537
L1D PREFETCH  REQUESTED:    7613756  ISSUED:    7613756  USEFUL:    3710741  USELESS:          6
L1D USEFUL LOAD PREFETCHES:    3710741 PREFETCH ISSUED TO LOWER LEVEL:    3782277  ACCURACY: 98.1087
L1D TIMELY PREFETCHES:    3710741 LATE PREFETCHES: 71524 DROPPED PREFETCHES: 0
L1D COMMIT LATE PREFETCHES: 0 MISSED OPPORTUNITY: 0 LATE IN PQ: 14097 UNCOVERED: 0
L1D COMMIT LATE MSHR PREFETCHES: 0
L1D MPKI TOTAL: 1.89325 MSHR LATE: 0.35762 PQ LATE: 0.070485 COMMIT LATE: 0 MISSED OPPORTUNITY: 0 UNCOVERED: 0
L1D PREFETCHES SAME FILL-ORIGIN LEVEL: 3782277 DIFFERENT FILL-ORIGIN LEVEL: 0
L1D AVERAGE MISS LATENCY: 183.235 cycles
L1D AVERAGE MISS LATENCY LOAD: 89.4768 cycles
L1D AVERAGE MISS LATENCY PREFETCH: 187.033 cycles
L1D AVERAGE MSHR OCCUPANCY: 3.34543
L1D MSHR FULL: 0
L1D RQ	ACCESS:   35804809	FORWARD:          0	MERGED:   14758477	TO_CACHE:   21046332
L1D WQ	ACCESS:    3375822	FORWARD:          0	MERGED:      40095	TO_CACHE:    3335727
L1D PQ	ACCESS:    3806878	FORWARD:          0	MERGED:          0	TO_CACHE:    3806878

L1D UNIQUE REGIONS ACCESSED: 0
L1D REGIONS CONFLICTS: 0
L1D Cross Page Prefetch Requests: 0
L1D Same Page Prefetch Requests: 5106882
L1D ROI Sum of L1D PQ occupancy: 49866337
L1D PREFETCHES PUSHED FROM L2C: 0
4027d7: 1
40344d: 1
4026ec: 1
4027f6: 98
402746: 98
402804: 98
402730: 98
403381: 238
403400: 239
4027a0: 28501
4027a4: 55748
4033c0: 65219
L1I TOTAL     ACCESS:   34870802  HIT:   34870795  MISS:          7  HIT %:        100  MISS %: 2.00741e-05   MPKI: 3.5e-05
L1I Test counter:          0
L1I LOAD      ACCESS:   34870802  HIT:   34870795  MISS:          8  HIT %:        100  MISS %: 2.00741e-05   MPKI: 3.5e-05
L1I PREFETCH  REQUESTED:          0  ISSUED:          0  USEFUL:          0  USELESS:          0
L1I USEFUL LOAD PREFETCHES:          0 PREFETCH ISSUED TO LOWER LEVEL:          0  ACCURACY: -nan
L1I TIMELY PREFETCHES:          0 LATE PREFETCHES: 0 DROPPED PREFETCHES: 0
L1I COMMIT LATE PREFETCHES: 0 MISSED OPPORTUNITY: 0 LATE IN PQ: 0 UNCOVERED: 0
L1I COMMIT LATE MSHR PREFETCHES: 0
L1I MPKI TOTAL: 4e-05 MSHR LATE: 0 PQ LATE: 0 COMMIT LATE: 0 MISSED OPPORTUNITY: 0 UNCOVERED: 0
L1I PREFETCHES SAME FILL-ORIGIN LEVEL: 0 DIFFERENT FILL-ORIGIN LEVEL: 0
L1I AVERAGE MISS LATENCY: 214.143 cycles
L1I AVERAGE MISS LATENCY LOAD: 214.143 cycles
L1I AVERAGE MISS LATENCY PREFETCH: -nan cycles
L1I AVERAGE MSHR OCCUPANCY: 1.43386e-07
L1I MSHR FULL: 0
L1I RQ	ACCESS:   43891180	FORWARD:          0	MERGED:    9020376	TO_CACHE:   34870804

402781: 1
403444: 1
402801: 1
4026e0: 1
402702: 1
402746: 1
4027c3: 1
BTB TOTAL     ACCESS:   30088189  HIT:   30088178  MISS:         11  HIT %:        100  MISS %: 3.65592e-05   MPKI: 5.5e-05
BTB Test counter:          0
BTB BRANCH_DIRECT_JUMP	ACCESS:    1387292  HIT:    1387290  MISS:          2
BTB BRANCH_INDIRECT	ACCESS:          0  HIT:          0  MISS:          0
BTB BRANCH_CONDITIONAL	ACCESS:   28700897  HIT:   28700888  MISS:          9
BTB BRANCH_DIRECT_CALL	ACCESS:          0  HIT:          0  MISS:          0
BTB BRANCH_INDIRECT_CALL	ACCESS:          0  HIT:          0  MISS:          0
BTB BRANCH_RETURN	ACCESS:          0  HIT:          0  MISS:          0
BTB BRANCH_OTHER ACCESS:          0  HIT:          0  MISS:          0

L2C TOTAL     ACCESS:    3921457  HIT:      52740  MISS:    3868717  HIT %:    1.34491  MISS %:    98.6551   MPKI: 19.3436
L2C Test counter:          0
L2C LOAD      ACCESS:      78823  HIT:         45  MISS:      78778  HIT %:  0.0570899  MISS %:    99.9429   MPKI: 0.39389
L2C DATA LOAD MPKI: 0.393855
L2C INSTRUCTION LOAD MPKI: 3.5e-05
L2C RFO       ACCESS:          2  HIT:          0  MISS:          2  HIT %:          0  MISS %:        100   MPKI: 1e-05
L2C PREFETCH  ACCESS:    3782271  HIT:          0  MISS:    3782271  HIT %:          0  MISS %:        100   MPKI: 18.9114
L2C DATA PREFETCH MPKI: 18.9114
L2C INSTRUCTION PREFETCH MPKI: 0
L2C WRITEBACK ACCESS:          4  HIT:          1  MISS:          3  HIT %:         25  MISS %:         75   MPKI: 1.5e-05
L2C LOAD TRANSLATION ACCESS:      60357  HIT:      52694  MISS:       7663  HIT %:    87.3039  MISS %:    12.6961   MPKI: 0.038315
L2C PREFETCH  REQUESTED:          0  ISSUED:          0  USEFUL:          0  USELESS:    3782324
L2C USEFUL LOAD PREFETCHES:          0 PREFETCH ISSUED TO LOWER LEVEL:    3782277  ACCURACY: 0
L2C TIMELY PREFETCHES:          0 LATE PREFETCHES: 0 DROPPED PREFETCHES: 0
L2C COMMIT LATE PREFETCHES: 0 MISSED OPPORTUNITY: 0 LATE IN PQ: 0 UNCOVERED: 0
L2C COMMIT LATE MSHR PREFETCHES: 0
L2C MPKI TOTAL: 0.39389 MSHR LATE: 0 PQ LATE: 0 COMMIT LATE: 0 MISSED OPPORTUNITY: 0 UNCOVERED: 0
L2C PREFETCHES SAME FILL-ORIGIN LEVEL: 0 DIFFERENT FILL-ORIGIN LEVEL: 0
L2C AVERAGE MISS LATENCY: 172.627 cycles
L2C AVERAGE MISS LATENCY LOAD: 155.545 cycles
L2C AVERAGE MISS LATENCY PREFETCH: 172.93 cycles
L2C AVERAGE MSHR OCCUPANCY: 0.362518
L2C MSHR FULL: 0
L2C RQ	ACCESS:     139182	FORWARD:          0	MERGED:          0	TO_CACHE:     139182
L2C WQ	ACCESS:          4	FORWARD:          0	MERGED:          0	TO_CACHE:          4
L2C PQ	ACCESS:    3782277	FORWARD:          0	MERGED:          0	TO_CACHE:    3782277

L2C Instructions Evicting Data 7
L2C Translations Evicting Data 7663
L2C Data Evicting Data 3853373
L2C Instructions Evicting Instructions 0
L2C Translations Evicting Instructions 0
L2C Data Evicting Instructions 7
L2C Instructions Evicting Translations 0
L2C Translations Evicting Translations 0
L2C Data Evicting Translations 7664
L2C Dense regions hint from L2: 0
403444: 1
40344d: 1
4027d7: 1
4027c3: 1
4026e0: 1
402702: 1
402781: 1
402801: 1
402730: 98
4027f6: 98
402804: 98
402746: 99
403400: 214
403381: 219
4027a0: 15052
4027a4: 24466
4033c0: 38426
PSCL5 TOTAL     ACCESS:      60318  HIT:      60318  MISS:          0  HIT %:        100  MISS %:          0   MPKI: 0
PSCL5 Test counter:          0
PSCL5 LOAD TRANSLATION ACCESS:      60318  HIT:      60318  MISS:          0  HIT %:        100  MISS %:          0   MPKI: 0
PSCL5 PREFETCH  REQUESTED:          0  ISSUED:          0  USEFUL:          0  USELESS:          0
PSCL5 USEFUL LOAD PREFETCHES:          0 PREFETCH ISSUED TO LOWER LEVEL:          0  ACCURACY: -nan
PSCL5 TIMELY PREFETCHES:          0 LATE PREFETCHES: 0 DROPPED PREFETCHES: 0
PSCL5 COMMIT LATE PREFETCHES: 0 MISSED OPPORTUNITY: 0 LATE IN PQ: 0 UNCOVERED: 0
PSCL5 COMMIT LATE MSHR PREFETCHES: 0
PSCL5 MPKI TOTAL: 0 MSHR LATE: 0 PQ LATE: 0 COMMIT LATE: 0 MISSED OPPORTUNITY: 0 UNCOVERED: 0
PSCL5 PREFETCHES SAME FILL-ORIGIN LEVEL: 0 DIFFERENT FILL-ORIGIN LEVEL: 0

PSCL4 TOTAL     ACCESS:      60318  HIT:      60318  MISS:          0  HIT %:        100  MISS %:          0   MPKI: 0
PSCL4 Test counter:          0
PSCL4 LOAD TRANSLATION ACCESS:      60318  HIT:      60318  MISS:          0  HIT %:        100  MISS %:          0   MPKI: 0
PSCL4 PREFETCH  REQUESTED:          0  ISSUED:          0  USEFUL:          0  USELESS:          0
PSCL4 USEFUL LOAD PREFETCHES:          0 PREFETCH ISSUED TO LOWER LEVEL:          0  ACCURACY: -nan
PSCL4 TIMELY PREFETCHES:          0 LATE PREFETCHES: 0 DROPPED PREFETCHES: 0
PSCL4 COMMIT LATE PREFETCHES: 0 MISSED OPPORTUNITY: 0 LATE IN PQ: 0 UNCOVERED: 0
PSCL4 COMMIT LATE MSHR PREFETCHES: 0
PSCL4 MPKI TOTAL: 0 MSHR LATE: 0 PQ LATE: 0 COMMIT LATE: 0 MISSED OPPORTUNITY: 0 UNCOVERED: 0
PSCL4 PREFETCHES SAME FILL-ORIGIN LEVEL: 0 DIFFERENT FILL-ORIGIN LEVEL: 0

PSCL3 TOTAL     ACCESS:      60318  HIT:      60318  MISS:          0  HIT %:        100  MISS %:          0   MPKI: 0
PSCL3 Test counter:          0
PSCL3 LOAD TRANSLATION ACCESS:      60318  HIT:      60318  MISS:          0  HIT %:        100  MISS %:          0   MPKI: 0
PSCL3 PREFETCH  REQUESTED:          0  ISSUED:          0  USEFUL:          0  USELESS:          0
PSCL3 USEFUL LOAD PREFETCHES:          0 PREFETCH ISSUED TO LOWER LEVEL:          0  ACCURACY: -nan
PSCL3 TIMELY PREFETCHES:          0 LATE PREFETCHES: 0 DROPPED PREFETCHES: 0
PSCL3 COMMIT LATE PREFETCHES: 0 MISSED OPPORTUNITY: 0 LATE IN PQ: 0 UNCOVERED: 0
PSCL3 COMMIT LATE MSHR PREFETCHES: 0
PSCL3 MPKI TOTAL: 0 MSHR LATE: 0 PQ LATE: 0 COMMIT LATE: 0 MISSED OPPORTUNITY: 0 UNCOVERED: 0
PSCL3 PREFETCHES SAME FILL-ORIGIN LEVEL: 0 DIFFERENT FILL-ORIGIN LEVEL: 0

PSCL2 TOTAL     ACCESS:      60318  HIT:      60198  MISS:        120  HIT %:    99.8011  MISS %:   0.198946   MPKI: 0.0006
PSCL2 Test counter:          0
PSCL2 LOAD TRANSLATION ACCESS:      60318  HIT:      60198  MISS:        120  HIT %:    99.8011  MISS %:   0.198946   MPKI: 0.0006
PSCL2 PREFETCH  REQUESTED:          0  ISSUED:          0  USEFUL:          0  USELESS:          0
PSCL2 USEFUL LOAD PREFETCHES:          0 PREFETCH ISSUED TO LOWER LEVEL:          0  ACCURACY: -nan
PSCL2 TIMELY PREFETCHES:          0 LATE PREFETCHES: 0 DROPPED PREFETCHES: 0
PSCL2 COMMIT LATE PREFETCHES: 0 MISSED OPPORTUNITY: 0 LATE IN PQ: 0 UNCOVERED: 0
PSCL2 COMMIT LATE MSHR PREFETCHES: 0
PSCL2 MPKI TOTAL: 0 MSHR LATE: 0 PQ LATE: 0 COMMIT LATE: 0 MISSED OPPORTUNITY: 0 UNCOVERED: 0
PSCL2 PREFETCHES SAME FILL-ORIGIN LEVEL: 0 DIFFERENT FILL-ORIGIN LEVEL: 0

LLC TOTAL     ACCESS:    3868718  HIT:        837  MISS:    3867881  HIT %:  0.0216351  MISS %:    99.9784   MPKI: 19.3394
LLC Test counter:          0
LLC LOAD      ACCESS:      78778  HIT:        824  MISS:      77954  HIT %:    1.04598  MISS %:     98.954   MPKI: 0.38977
LLC RFO       ACCESS:          2  HIT:          0  MISS:          2  HIT %:          0  MISS %:        100   MPKI: 1e-05
LLC PREFETCH  ACCESS:    3782271  HIT:          0  MISS:    3782271  HIT %:          0  MISS %:        100   MPKI: 18.9114
LLC WRITEBACK ACCESS:          4  HIT:          1  MISS:          3  HIT %:         25  MISS %:         75   MPKI: 1.5e-05
LLC LOAD TRANSLATION ACCESS:       7663  HIT:         12  MISS:       7651  HIT %:   0.156597  MISS %:    99.8434   MPKI: 0.038255
LLC PREFETCH  REQUESTED:          0  ISSUED:          0  USEFUL:          0  USELESS:    3782496
LLC USEFUL LOAD PREFETCHES:          0 PREFETCH ISSUED TO LOWER LEVEL:    3782277  ACCURACY: 0
LLC TIMELY PREFETCHES:          0 LATE PREFETCHES: 0 DROPPED PREFETCHES: 0
LLC COMMIT LATE PREFETCHES: 0 MISSED OPPORTUNITY: 0 LATE IN PQ: 0 UNCOVERED: 0
LLC COMMIT LATE MSHR PREFETCHES: 0
LLC MPKI TOTAL: 0.38977 MSHR LATE: 0 PQ LATE: 0 COMMIT LATE: 0 MISSED OPPORTUNITY: 0 UNCOVERED: 0
LLC PREFETCHES SAME FILL-ORIGIN LEVEL: 0 DIFFERENT FILL-ORIGIN LEVEL: 0
LLC AVERAGE MISS LATENCY: 142.657 cycles
LLC AVERAGE MISS LATENCY LOAD: 126.872 cycles
LLC AVERAGE MISS LATENCY PREFETCH: 142.93 cycles
LLC AVERAGE MSHR OCCUPANCY: 0.306225
LLC MSHR FULL: 0
LLC RQ	ACCESS:      86443	FORWARD:          0	MERGED:          0	TO_CACHE:      86443
LLC WQ	ACCESS:          4	FORWARD:          0	MERGED:          0	TO_CACHE:          4
LLC PQ	ACCESS:    3782277	FORWARD:          0	MERGED:          0	TO_CACHE:    3782277

LLC Dense regions hint to LLC: 0
4027d7: 1
4027f6: 1
4027c3: 1
402781: 1
403444: 1
40344d: 1
402801: 1
402702: 1
4026e0: 1
402746: 1
4027a0: 15052
4027a4: 24466
4033c0: 38426

RAW hits: 1
Loads Generated: 35804811
Loads sent to L1D: 35804809
Stores Generated: 3375822
Stores sent to L1D: 3375822
Major fault: 0 Minor fault: 62153
Allocated PAGES: 62153
Total Load insts: 43896007
Total Non-spec loads: 10547952
Percentage of speculative loads: 75.9706
L1D response latency: 170.675 cycles
Load retirement latency: 300.735 cycles


stream: 
stream:times selected: 7796773
stream:pref_filled: 4947324
stream:pref_useful: 4947288
stream:pref_late: 66200
stream:misses: 502
stream:misses_by_poll: 0

CS: 
CS:times selected: 7757453
CS:pref_filled: 16928
CS:pref_useful: 16928
CS:pref_late: 3039
CS:misses: 395076
CS:misses_by_poll: 189

CPLX: 
CPLX:times selected: 39295
CPLX:pref_filled: 136
CPLX:pref_useful: 136
CPLX:pref_late: 115
CPLX:misses: 6092
CPLX:misses_by_poll: 0

NL_L1: 
NL:times selected: 26
NL:pref_filled: 1
NL:pref_useful: 1
NL:pref_late: 0
NL:misses: 10
NL:misses_by_poll: 0

total selections: 15593547
total_filled: 3710747
total_useful: 3710741
total_late: 71524
total_polluted: 189
total_misses_after_warmup: 378651
conflicts: 14
Degree Incremented Times: 210635
Degree Decremented Times: 0

L1 IP Table Write Accesses: 21046331
L1 IP Table Read Accesses: 21046317
L1 RST Write Accesses: 5357976
L1 RST Read Accesses: 10715952
L1 CSPT Write Accesses: 5357976
L1 CSPT Read Accesses: 5474530
L1 RR Filter Tag Write Accesses: 3806878
L1 RR Filter Tag Read Accesses: 1280936675
L1 IP Table Tag Write Accesses: 21046332
L1 IP Table Tag Read Accesses: 21046332
L1 RST Tag Write Accesses: 0
L1 RST Tag Read Accesses: 48226874
L1 RR Filter Write Accesses: 0
L1 RR Filter Read Accesses: 46006983
test: 97688

DRAM Statistics
 CHANNEL 0
 RQ ROW_BUFFER_HIT:    2083713  ROW_BUFFER_MISS:    1784165
 DBUS_CONGESTED:          0
 WQ ROW_BUFFER_HIT:          0  ROW_BUFFER_MISS:          2  FULL:          0

 AVG_CONGESTED_CYCLE: -
 All warmup complete: 2
Channel 0 Bank busy for read cycles: 0
Channel 0 Bank busy for write cycles: 0
Channel 0
Rank 0
0banks busy for read cycles: 97075372
0banks busy for write cycles: 2
1banks busy for read cycles: 96635266
1banks busy for write cycles: 300
2banks busy for read cycles: 3380859
2banks busy for write cycles: 0
3banks busy for read cycles: 35001733
3banks busy for write cycles: 0
4banks busy for read cycles: 24899482
4banks busy for write cycles: 0
5banks busy for read cycles: 1923285
5banks busy for write cycles: 0
6banks busy for read cycles: 1999970
6banks busy for write cycles: 0
7banks busy for read cycles: 3047992
7banks busy for write cycles: 0
8banks busy for read cycles: 2607316
8banks busy for write cycles: 0

CPU 0 Branch Prediction Accuracy: 99.8669% MPKI: 0.223155 Average ROB Occupancy at Mispredict: 29.3291
Branch types
NOT_BRANCH: 166478363 83.2392%
BRANCH_DIRECT_JUMP: 1387292 0.693646%
BRANCH_INDIRECT: 0 0%
BRANCH_CONDITIONAL: 32134349 16.0672%
BRANCH_DIRECT_CALL: 0 0%
BRANCH_INDIRECT_CALL: 0 0%
BRANCH_RETURN: 0 0%
BRANCH_OTHER: 0 0%

DRAM PAGES: 1048576
Allocated PAGES: 62153
