
*** ChampSim Multicore Out-of-Order Simulator ***

Warmup Instructions: 50000000
Simulation Instructions: 200000000
Number of CPUs: 1
LLC sets: 2048
LLC ways: 16
Secure Berti: OFF
Berti: OFF
Berti Fill: OFF
On commit prefetching: OFF
L2 LLC Bypass speculative loads: OFF
Off-chip DRAM Size: 4096 MB Channels: 1 Width: 64-bit Data Rate: 6400 MT/s
CPU 0 runs /home/sumon/secure_berti/Berti_Baseline/../../traces/spec/605.mcf_s-665B.champsimtrace.xz
.xz
BTB has LRU replacement policy
ITLB has LRU replacement policy
DTLB has LRU replacement policy
STLB has LRU replacement policy
L1I has LRU replacement policy
IP Table Entries: 1024
CSPT Entries: 128
RR_ENTRIES: 32
RST_ENTRIES: 8
L1D has LRU replacement policy
L2C has LRU replacement policy
LLC has LRU replacement policy
Heartbeat CPU 0 instructions: 10000000 cycles: 3318930 heartbeat IPC: 3.01302 cumulative IPC: 3.01302 (Simulation time: 0 hr 0 min 32 sec) 
Heartbeat CPU 0 instructions: 20000000 cycles: 6642688 heartbeat IPC: 3.00864 cumulative IPC: 3.01083 (Simulation time: 0 hr 1 min 3 sec) 
Heartbeat CPU 0 instructions: 30000002 cycles: 9958921 heartbeat IPC: 3.01547 cumulative IPC: 3.01237 (Simulation time: 0 hr 1 min 34 sec) 
Heartbeat CPU 0 instructions: 40000003 cycles: 13274694 heartbeat IPC: 3.01589 cumulative IPC: 3.01325 (Simulation time: 0 hr 2 min 6 sec) 
Heartbeat CPU 0 instructions: 50000002 cycles: 16584927 heartbeat IPC: 3.02094 cumulative IPC: 3.01479 (Simulation time: 0 hr 2 min 39 sec) 

Warmup complete CPU 0 instructions: 50000002 cycles: 16584927 (Simulation time: 0 hr 2 min 39 sec) 

Heartbeat CPU 0 instructions: 60000003 cycles: 53200621 heartbeat IPC: 0.273107 cumulative IPC: 0.273107 (Simulation time: 0 hr 3 min 12 sec) 
Heartbeat CPU 0 instructions: 70000003 cycles: 89625962 heartbeat IPC: 0.274534 cumulative IPC: 0.273819 (Simulation time: 0 hr 3 min 46 sec) 
Heartbeat CPU 0 instructions: 80000001 cycles: 126135281 heartbeat IPC: 0.273903 cumulative IPC: 0.273847 (Simulation time: 0 hr 4 min 22 sec) 
Heartbeat CPU 0 instructions: 90000002 cycles: 163231525 heartbeat IPC: 0.269569 cumulative IPC: 0.272765 (Simulation time: 0 hr 4 min 59 sec) 
Heartbeat CPU 0 instructions: 100000000 cycles: 199225707 heartbeat IPC: 0.277823 cumulative IPC: 0.273761 (Simulation time: 0 hr 5 min 34 sec) 
Heartbeat CPU 0 instructions: 110000000 cycles: 235261503 heartbeat IPC: 0.277502 cumulative IPC: 0.274378 (Simulation time: 0 hr 6 min 11 sec) 
Heartbeat CPU 0 instructions: 120000000 cycles: 271081808 heartbeat IPC: 0.279171 cumulative IPC: 0.275052 (Simulation time: 0 hr 6 min 48 sec) 
Heartbeat CPU 0 instructions: 130000000 cycles: 306811417 heartbeat IPC: 0.27988 cumulative IPC: 0.275647 (Simulation time: 0 hr 7 min 24 sec) 
Heartbeat CPU 0 instructions: 140000002 cycles: 343208385 heartbeat IPC: 0.274748 cumulative IPC: 0.275547 (Simulation time: 0 hr 8 min 1 sec) 
Heartbeat CPU 0 instructions: 150000000 cycles: 379407358 heartbeat IPC: 0.276251 cumulative IPC: 0.275617 (Simulation time: 0 hr 8 min 37 sec) 
Heartbeat CPU 0 instructions: 160000001 cycles: 415261342 heartbeat IPC: 0.278909 cumulative IPC: 0.275913 (Simulation time: 0 hr 9 min 13 sec) 
Heartbeat CPU 0 instructions: 170000003 cycles: 451728355 heartbeat IPC: 0.27422 cumulative IPC: 0.275771 (Simulation time: 0 hr 9 min 48 sec) 
Heartbeat CPU 0 instructions: 180000001 cycles: 487604855 heartbeat IPC: 0.278734 cumulative IPC: 0.275997 (Simulation time: 0 hr 10 min 23 sec) 
Heartbeat CPU 0 instructions: 190000002 cycles: 523658908 heartbeat IPC: 0.277361 cumulative IPC: 0.276094 (Simulation time: 0 hr 10 min 58 sec) 
Heartbeat CPU 0 instructions: 200000000 cycles: 559889529 heartbeat IPC: 0.27601 cumulative IPC: 0.276088 (Simulation time: 0 hr 11 min 31 sec) 
Heartbeat CPU 0 instructions: 210000000 cycles: 596082643 heartbeat IPC: 0.276296 cumulative IPC: 0.276101 (Simulation time: 0 hr 12 min 3 sec) 
Heartbeat CPU 0 instructions: 220000000 cycles: 631803112 heartbeat IPC: 0.279952 cumulative IPC: 0.276325 (Simulation time: 0 hr 12 min 33 sec) 
Heartbeat CPU 0 instructions: 230000000 cycles: 668563516 heartbeat IPC: 0.272032 cumulative IPC: 0.276083 (Simulation time: 0 hr 13 min 1 sec) 
Heartbeat CPU 0 instructions: 240000000 cycles: 704265487 heartbeat IPC: 0.280097 cumulative IPC: 0.276291 (Simulation time: 0 hr 13 min 28 sec) 
Heartbeat CPU 0 instructions: 250000002 cycles: 740284425 heartbeat IPC: 0.277632 cumulative IPC: 0.276358 (Simulation time: 0 hr 13 min 55 sec) 
Finished CPU 0 instructions: 200000000 cycles: 723699498 cumulative IPC: 0.276358 (Simulation time: 0 hr 13 min 55 sec) 

ChampSim completed all CPUs

Region of Interest Statistics

CPU 0 cumulative IPC: 0.276358 instructions: 200000000 cycles: 723699498
ITLB TOTAL     ACCESS:   36332251  HIT:   36332251  MISS:          0  HIT %:        100  MISS %:          0   MPKI: 0
ITLB Test counter:          0
ITLB LOAD TRANSLATION ACCESS:   36332251  HIT:   36332251  MISS:          0  HIT %:        100  MISS %:          0   MPKI: 0
ITLB PREFETCH  REQUESTED:          0  ISSUED:          0  USEFUL:          0  USELESS:          0
ITLB USEFUL LOAD PREFETCHES:          0 PREFETCH ISSUED TO LOWER LEVEL:          0  ACCURACY: -nan
ITLB TIMELY PREFETCHES:          0 LATE PREFETCHES: 0 DROPPED PREFETCHES: 0
ITLB COMMIT LATE PREFETCHES: 0 MISSED OPPORTUNITY: 0 LATE IN PQ: 0 UNCOVERED: 0
ITLB COMMIT LATE MSHR PREFETCHES: 0
ITLB MPKI TOTAL: 0 MSHR LATE: 0 PQ LATE: 0 COMMIT LATE: 0 MISSED OPPORTUNITY: 0 UNCOVERED: 0
ITLB PREFETCHES SAME FILL-ORIGIN LEVEL: 0 DIFFERENT FILL-ORIGIN LEVEL: 0
ITLB AVERAGE MISS LATENCY: -nan cycles
ITLB AVERAGE MISS LATENCY LOAD: -nan cycles
ITLB AVERAGE MISS LATENCY PREFETCH: -nan cycles
ITLB AVERAGE MSHR OCCUPANCY: 0
ITLB MSHR FULL: 0
ITLB RQ	ACCESS:   38037506	FORWARD:          0	MERGED:    1705256	TO_CACHE:   36332250

DTLB TOTAL     ACCESS:   62388780  HIT:   59393116  MISS:    2995664  HIT %:    95.1984  MISS %:    4.80161   MPKI: 14.9783
DTLB Test counter:          0
DTLB LOAD TRANSLATION ACCESS:   62388780  HIT:   59393116  MISS:    2995664  HIT %:    95.1984  MISS %:    4.80161   MPKI: 14.9783
DTLB PREFETCH  REQUESTED:          0  ISSUED:          0  USEFUL:          0  USELESS:          0
DTLB USEFUL LOAD PREFETCHES:          0 PREFETCH ISSUED TO LOWER LEVEL:          0  ACCURACY: -nan
DTLB TIMELY PREFETCHES:          0 LATE PREFETCHES: 0 DROPPED PREFETCHES: 0
DTLB COMMIT LATE PREFETCHES: 0 MISSED OPPORTUNITY: 0 LATE IN PQ: 0 UNCOVERED: 0
DTLB COMMIT LATE MSHR PREFETCHES: 0
DTLB MPKI TOTAL: 0 MSHR LATE: 0 PQ LATE: 0 COMMIT LATE: 0 MISSED OPPORTUNITY: 0 UNCOVERED: 0
DTLB PREFETCHES SAME FILL-ORIGIN LEVEL: 0 DIFFERENT FILL-ORIGIN LEVEL: 0
DTLB AVERAGE MISS LATENCY: 10.8051 cycles
DTLB AVERAGE MISS LATENCY LOAD: -nan cycles
DTLB AVERAGE MISS LATENCY PREFETCH: -nan cycles
DTLB AVERAGE MSHR OCCUPANCY: 0.0251674
DTLB MSHR FULL: 0
DTLB RQ	ACCESS:   75987392	FORWARD:          0	MERGED:   13220372	TO_CACHE:   62767020

STLB TOTAL     ACCESS:   15384786  HIT:   15342799  MISS:      41987  HIT %:    99.7271  MISS %:   0.272912   MPKI: 0.209935
STLB Test counter:          0
STLB LOAD TRANSLATION ACCESS:    2995664  HIT:    2953677  MISS:      41987  HIT %:    98.5984  MISS %:    1.40159   MPKI: 0.209935
STLB TRANSLATION FROM L1D PREFETCHER ACCESS:   12389122  HIT:   12389122  MISS:          0  HIT %:        100  MISS %:          0   MPKI: 0
STLB PREFETCH  REQUESTED:          0  ISSUED:          0  USEFUL:          0  USELESS:          0
STLB USEFUL LOAD PREFETCHES:          0 PREFETCH ISSUED TO LOWER LEVEL:          0  ACCURACY: -nan
STLB TIMELY PREFETCHES:          0 LATE PREFETCHES: 0 DROPPED PREFETCHES: 0
STLB COMMIT LATE PREFETCHES: 0 MISSED OPPORTUNITY: 0 LATE IN PQ: 0 UNCOVERED: 0
STLB COMMIT LATE MSHR PREFETCHES: 0
STLB MPKI TOTAL: 0 MSHR LATE: 0 PQ LATE: 0 COMMIT LATE: 0 MISSED OPPORTUNITY: 0 UNCOVERED: 0
STLB PREFETCHES SAME FILL-ORIGIN LEVEL: 0 DIFFERENT FILL-ORIGIN LEVEL: 0
STLB AVERAGE MISS LATENCY: 116.579 cycles
STLB AVERAGE MISS LATENCY LOAD: -nan cycles
STLB AVERAGE MISS LATENCY PREFETCH: -nan cycles
STLB AVERAGE MSHR OCCUPANCY: 0.00466402
STLB MSHR FULL: 0
STLB RQ	ACCESS:   17733597	FORWARD:          0	MERGED:    2348811	TO_CACHE:   15384786

STLB Hit, L1D data hit: 0
STLB Hit, L2C data hit: 0
STLB Hit, LLC data hit: 0
STLB Hit, LLC data miss: 0
STLB STLB hints to L2: 0
L1D TOTAL     ACCESS:   88819836  HIT:   76001584  MISS:   12818252  HIT %:    85.5683  MISS %:    14.4317   MPKI: 64.0913
L1D Test counter:          0
L1D LOAD      ACCESS:   52348483  HIT:   47063638  MISS:    5363001  HIT %:    89.9045  MISS %:    10.0955   MPKI: 26.4242
L1D RFO       ACCESS:   22290847  HIT:   21529850  MISS:     760997  HIT %:    96.5861  MISS %:    3.41394   MPKI: 3.80498
L1D PREFETCH  ACCESS:   14180506  HIT:    7408096  MISS:    6772410  HIT %:    52.2414  MISS %:    47.7586   MPKI: 33.8621
L1D PREFETCH  REQUESTED:   29493538  ISSUED:   29493514  USEFUL:    1698252  USELESS:    5074110
L1D USEFUL LOAD PREFETCHES:    1698252 PREFETCH ISSUED TO LOWER LEVEL:    7118991  ACCURACY: 23.8552
L1D TIMELY PREFETCHES:    1698252 LATE PREFETCHES: 345040 DROPPED PREFETCHES: 0
L1D COMMIT LATE PREFETCHES: 0 MISSED OPPORTUNITY: 0 LATE IN PQ: 129716 UNCOVERED: 0
L1D COMMIT LATE MSHR PREFETCHES: 0
L1D MPKI TOTAL: 26.815 MSHR LATE: 1.7252 PQ LATE: 0.64858 COMMIT LATE: 0 MISSED OPPORTUNITY: 0 UNCOVERED: 0
L1D PREFETCHES SAME FILL-ORIGIN LEVEL: 7118991 DIFFERENT FILL-ORIGIN LEVEL: 0
L1D AVERAGE MISS LATENCY: 69.943 cycles
L1D AVERAGE MISS LATENCY LOAD: 60.8749 cycles
L1D AVERAGE MISS LATENCY PREFETCH: 80.983 cycles
L1D AVERAGE MSHR OCCUPANCY: 0.571792
L1D MSHR FULL: 0.000799053
L1D RQ	ACCESS:   67187184	FORWARD:          0	MERGED:   12473195	TO_CACHE:   52426640
L1D WQ	ACCESS:   23674381	FORWARD:    2304997	MERGED:     113629	TO_CACHE:   23560752
L1D PQ	ACCESS:   14755581	FORWARD:          0	MERGED:          0	TO_CACHE:   14737933

L1D UNIQUE REGIONS ACCESSED: 0
L1D REGIONS CONFLICTS: 0
L1D Cross Page Prefetch Requests: 0
L1D Same Page Prefetch Requests: 18535888
L1D ROI Sum of L1D PQ occupancy: 191163971
L1D PREFETCHES PUSHED FROM L2C: 0
4084af: 1
407521: 1
405ccd: 1
403d17: 2
403e42: 2
404a4b: 2
404a33: 2
403db8: 3
403d6c: 4
403d76: 4
404097: 6
403d28: 6
403d44: 7
404920: 8
403d86: 10
403ce0: 12
4048cd: 12
403d8d: 13
403f2f: 17
4048a6: 23
403ca9: 23
404924: 24
403d13: 26
403ed7: 32
403ea0: 33
4045e1: 34
40499c: 37
403f18: 39
403cf4: 50
405d03: 51
404610: 78
404648: 83
4044d5: 87
403f28: 126
404652: 127
404629: 128
404684: 129
403e6d: 144
403d4d: 147
403e76: 152
4044b7: 221
4046c8: 224
40459f: 253
4084b4: 264
404ce3: 305
4045db: 307
404ce8: 310
4044fc: 311
4044bf: 311
40465d: 311
4048a0: 311
404cda: 311
4045bd: 311
403f02: 649
405d41: 883
404a14: 931
405d23: 1224
404fc0: 1340
4048e0: 1495
4048b8: 2014
4048bf: 2280
403ce9: 2332
403eb0: 2481
403ef3: 2604
403cc6: 3290
403ee8: 4334
404076: 7499
4048b1: 7597
40409b: 7639
4048c3: 8642
403e50: 9600
403e54: 9824
403eb4: 11080
403e9a: 12728
404820: 12893
403cc0: 12902
4048aa: 13784
4048bc: 15708
404841: 16693
404823: 17589
4048b4: 18385
403e90: 22412
404826: 22562
403eec: 22822
403ee2: 28955
403e60: 32504
403e64: 32513
4049d6: 32556
403e94: 42246
40483c: 82896
404844: 98353
4049cc: 400612
40483f: 408492
4049de: 1163623
4049e5: 1198317
40482f: 1482126
L1I TOTAL     ACCESS:   38037507  HIT:   38037505  MISS:          2  HIT %:        100  MISS %: 5.25797e-06   MPKI: 1e-05
L1I Test counter:          0
L1I LOAD      ACCESS:   38037507  HIT:   38037505  MISS:          2  HIT %:        100  MISS %: 5.25797e-06   MPKI: 1e-05
L1I PREFETCH  REQUESTED:          0  ISSUED:          0  USEFUL:          0  USELESS:          0
L1I USEFUL LOAD PREFETCHES:          0 PREFETCH ISSUED TO LOWER LEVEL:          0  ACCURACY: -nan
L1I TIMELY PREFETCHES:          0 LATE PREFETCHES: 0 DROPPED PREFETCHES: 0
L1I COMMIT LATE PREFETCHES: 0 MISSED OPPORTUNITY: 0 LATE IN PQ: 0 UNCOVERED: 0
L1I COMMIT LATE MSHR PREFETCHES: 0
L1I MPKI TOTAL: 1e-05 MSHR LATE: 0 PQ LATE: 0 COMMIT LATE: 0 MISSED OPPORTUNITY: 0 UNCOVERED: 0
L1I PREFETCHES SAME FILL-ORIGIN LEVEL: 0 DIFFERENT FILL-ORIGIN LEVEL: 0
L1I AVERAGE MISS LATENCY: 214 cycles
L1I AVERAGE MISS LATENCY LOAD: 214 cycles
L1I AVERAGE MISS LATENCY PREFETCH: -nan cycles
L1I AVERAGE MSHR OCCUPANCY: 2.62898e-08
L1I MSHR FULL: 0
L1I RQ	ACCESS:   61793384	FORWARD:          0	MERGED:   23755878	TO_CACHE:   38037506

403e02: 1
403dc3: 1
BTB TOTAL     ACCESS:   47317451  HIT:   44887025  MISS:    2430426  HIT %:    94.8636  MISS %:    5.13643   MPKI: 12.1521
BTB Test counter:          0
BTB BRANCH_DIRECT_JUMP	ACCESS:    5163667  HIT:    5163630  MISS:         37
BTB BRANCH_INDIRECT	ACCESS:          0  HIT:          0  MISS:          0
BTB BRANCH_CONDITIONAL	ACCESS:   31033862  HIT:   31033783  MISS:         79
BTB BRANCH_DIRECT_CALL	ACCESS:    5259752  HIT:    5259734  MISS:         18
BTB BRANCH_INDIRECT_CALL	ACCESS:     300210  HIT:     300202  MISS:          8
BTB BRANCH_RETURN	ACCESS:    5559960  HIT:    3129676  MISS:    2430284
BTB BRANCH_OTHER ACCESS:          0  HIT:          0  MISS:          0

L2C TOTAL     ACCESS:   14011822  HIT:    6494927  MISS:    7516895  HIT %:    46.3532  MISS %:    53.6468   MPKI: 37.5845
L2C Test counter:          0
L2C LOAD      ACCESS:    4939797  HIT:    2177523  MISS:    2762274  HIT %:    44.0812  MISS %:    55.9188   MPKI: 13.8114
L2C DATA LOAD MPKI: 13.8114
L2C INSTRUCTION LOAD MPKI: 1e-05
L2C RFO       ACCESS:     759445  HIT:     312832  MISS:     446613  HIT %:    41.1922  MISS %:    58.8078   MPKI: 2.23306
L2C PREFETCH  ACCESS:    7118976  HIT:    2830508  MISS:    4288468  HIT %:      39.76  MISS %:      60.24   MPKI: 21.4423
L2C DATA PREFETCH MPKI: 21.4423
L2C INSTRUCTION PREFETCH MPKI: 0
L2C WRITEBACK ACCESS:    1151324  HIT:    1150699  MISS:        625  HIT %:    99.9457  MISS %:  0.0542853   MPKI: 0.003125
L2C LOAD TRANSLATION ACCESS:      42280  HIT:      23365  MISS:      18915  HIT %:    55.2625  MISS %:    44.7375   MPKI: 0.094575
L2C PREFETCH  REQUESTED:          0  ISSUED:          0  USEFUL:     365543  USELESS:    3923143
L2C USEFUL LOAD PREFETCHES:     365543 PREFETCH ISSUED TO LOWER LEVEL:    4288468  ACCURACY: 8.52386
L2C TIMELY PREFETCHES:     365543 LATE PREFETCHES: 0 DROPPED PREFETCHES: 0
L2C COMMIT LATE PREFETCHES: 0 MISSED OPPORTUNITY: 0 LATE IN PQ: 0 UNCOVERED: 0
L2C COMMIT LATE MSHR PREFETCHES: 0
L2C MPKI TOTAL: 13.8114 MSHR LATE: 0 PQ LATE: 0 COMMIT LATE: 0 MISSED OPPORTUNITY: 0 UNCOVERED: 0
L2C PREFETCHES SAME FILL-ORIGIN LEVEL: 0 DIFFERENT FILL-ORIGIN LEVEL: 0
L2C AVERAGE MISS LATENCY: 103.038 cycles
L2C AVERAGE MISS LATENCY LOAD: 89.4386 cycles
L2C AVERAGE MISS LATENCY PREFETCH: 119.093 cycles
L2C AVERAGE MSHR OCCUPANCY: 2.03225
L2C MSHR FULL: 0
L2C RQ	ACCESS:    5741543	FORWARD:          0	MERGED:          0	TO_CACHE:    5741522
L2C WQ	ACCESS:    1151324	FORWARD:         36	MERGED:          0	TO_CACHE:    1151324
L2C PQ	ACCESS:    7118991	FORWARD:          0	MERGED:          0	TO_CACHE:    7118976

L2C Instructions Evicting Data 2
L2C Translations Evicting Data 18847
L2C Data Evicting Data 7478513
L2C Instructions Evicting Instructions 0
L2C Translations Evicting Instructions 0
L2C Data Evicting Instructions 2
L2C Instructions Evicting Translations 0
L2C Translations Evicting Translations 68
L2C Data Evicting Translations 18838
L2C Dense regions hint from L2: 0
4084b4: 1
403ce0: 1
4044d5: 1
4046c8: 1
403e02: 1
403cf4: 1
403d44: 1
403db8: 1
403dc3: 1
40459f: 1
404684: 1
4044b7: 1
4048a6: 1
404a33: 2
403d13: 2
403d4d: 2
40409b: 4
404076: 5
4048a0: 5
4048cd: 9
403f18: 15
403ca9: 22
4045e1: 24
403ed7: 27
403ea0: 30
404ce8: 47
404ce3: 50
4048aa: 78
403e54: 82
403e50: 83
4045db: 148
403e60: 169
403e64: 179
4048b1: 191
4044fc: 311
4044bf: 311
4045bd: 311
40465d: 311
403f02: 579
404826: 677
404841: 711
404a14: 821
4048e0: 1001
404823: 1053
404820: 1265
4048b8: 1335
4048bf: 1463
403ce9: 1817
403eb0: 2252
403ef3: 2508
40483c: 2813
403cc6: 2980
403ee8: 4235
4048b4: 6688
4048c3: 7457
4049d6: 8179
403eb4: 10818
403cc0: 11447
403e9a: 11684
4048bc: 14535
403e90: 21411
403eec: 21619
403ee2: 27655
403e94: 40122
404844: 49358
4049cc: 84779
40482f: 120514
40483f: 197407
4049de: 1043048
4049e5: 1057612
PSCL5 TOTAL     ACCESS:      41987  HIT:      41987  MISS:          0  HIT %:        100  MISS %:          0   MPKI: 0
PSCL5 Test counter:          0
PSCL5 LOAD TRANSLATION ACCESS:      41987  HIT:      41987  MISS:          0  HIT %:        100  MISS %:          0   MPKI: 0
PSCL5 PREFETCH  REQUESTED:          0  ISSUED:          0  USEFUL:          0  USELESS:          0
PSCL5 USEFUL LOAD PREFETCHES:          0 PREFETCH ISSUED TO LOWER LEVEL:          0  ACCURACY: -nan
PSCL5 TIMELY PREFETCHES:          0 LATE PREFETCHES: 0 DROPPED PREFETCHES: 0
PSCL5 COMMIT LATE PREFETCHES: 0 MISSED OPPORTUNITY: 0 LATE IN PQ: 0 UNCOVERED: 0
PSCL5 COMMIT LATE MSHR PREFETCHES: 0
PSCL5 MPKI TOTAL: 0 MSHR LATE: 0 PQ LATE: 0 COMMIT LATE: 0 MISSED OPPORTUNITY: 0 UNCOVERED: 0
PSCL5 PREFETCHES SAME FILL-ORIGIN LEVEL: 0 DIFFERENT FILL-ORIGIN LEVEL: 0

PSCL4 TOTAL     ACCESS:      41987  HIT:      41987  MISS:          0  HIT %:        100  MISS %:          0   MPKI: 0
PSCL4 Test counter:          0
PSCL4 LOAD TRANSLATION ACCESS:      41987  HIT:      41987  MISS:          0  HIT %:        100  MISS %:          0   MPKI: 0
PSCL4 PREFETCH  REQUESTED:          0  ISSUED:          0  USEFUL:          0  USELESS:          0
PSCL4 USEFUL LOAD PREFETCHES:          0 PREFETCH ISSUED TO LOWER LEVEL:          0  ACCURACY: -nan
PSCL4 TIMELY PREFETCHES:          0 LATE PREFETCHES: 0 DROPPED PREFETCHES: 0
PSCL4 COMMIT LATE PREFETCHES: 0 MISSED OPPORTUNITY: 0 LATE IN PQ: 0 UNCOVERED: 0
PSCL4 COMMIT LATE MSHR PREFETCHES: 0
PSCL4 MPKI TOTAL: 0 MSHR LATE: 0 PQ LATE: 0 COMMIT LATE: 0 MISSED OPPORTUNITY: 0 UNCOVERED: 0
PSCL4 PREFETCHES SAME FILL-ORIGIN LEVEL: 0 DIFFERENT FILL-ORIGIN LEVEL: 0

PSCL3 TOTAL     ACCESS:      41987  HIT:      41987  MISS:          0  HIT %:        100  MISS %:          0   MPKI: 0
PSCL3 Test counter:          0
PSCL3 LOAD TRANSLATION ACCESS:      41987  HIT:      41987  MISS:          0  HIT %:        100  MISS %:          0   MPKI: 0
PSCL3 PREFETCH  REQUESTED:          0  ISSUED:          0  USEFUL:          0  USELESS:          0
PSCL3 USEFUL LOAD PREFETCHES:          0 PREFETCH ISSUED TO LOWER LEVEL:          0  ACCURACY: -nan
PSCL3 TIMELY PREFETCHES:          0 LATE PREFETCHES: 0 DROPPED PREFETCHES: 0
PSCL3 COMMIT LATE PREFETCHES: 0 MISSED OPPORTUNITY: 0 LATE IN PQ: 0 UNCOVERED: 0
PSCL3 COMMIT LATE MSHR PREFETCHES: 0
PSCL3 MPKI TOTAL: 0 MSHR LATE: 0 PQ LATE: 0 COMMIT LATE: 0 MISSED OPPORTUNITY: 0 UNCOVERED: 0
PSCL3 PREFETCHES SAME FILL-ORIGIN LEVEL: 0 DIFFERENT FILL-ORIGIN LEVEL: 0

PSCL2 TOTAL     ACCESS:      41987  HIT:      41492  MISS:        495  HIT %:    98.8211  MISS %:    1.17894   MPKI: 0.002475
PSCL2 Test counter:          0
PSCL2 LOAD TRANSLATION ACCESS:      41987  HIT:      41492  MISS:        495  HIT %:    98.8211  MISS %:    1.17894   MPKI: 0.002475
PSCL2 PREFETCH  REQUESTED:          0  ISSUED:          0  USEFUL:          0  USELESS:          0
PSCL2 USEFUL LOAD PREFETCHES:          0 PREFETCH ISSUED TO LOWER LEVEL:          0  ACCURACY: -nan
PSCL2 TIMELY PREFETCHES:          0 LATE PREFETCHES: 0 DROPPED PREFETCHES: 0
PSCL2 COMMIT LATE PREFETCHES: 0 MISSED OPPORTUNITY: 0 LATE IN PQ: 0 UNCOVERED: 0
PSCL2 COMMIT LATE MSHR PREFETCHES: 0
PSCL2 MPKI TOTAL: 0 MSHR LATE: 0 PQ LATE: 0 COMMIT LATE: 0 MISSED OPPORTUNITY: 0 UNCOVERED: 0
PSCL2 PREFETCHES SAME FILL-ORIGIN LEVEL: 0 DIFFERENT FILL-ORIGIN LEVEL: 0

LLC TOTAL     ACCESS:    8180877  HIT:    5112798  MISS:    3068079  HIT %:    62.4969  MISS %:    37.5031   MPKI: 15.3404
LLC Test counter:          0
LLC LOAD      ACCESS:    2762273  HIT:    1927283  MISS:     834990  HIT %:    69.7716  MISS %:    30.2284   MPKI: 4.17495
LLC RFO       ACCESS:     446608  HIT:     440272  MISS:       6336  HIT %:    98.5813  MISS %:    1.41869   MPKI: 0.03168
LLC PREFETCH  ACCESS:    4288462  HIT:    2071214  MISS:    2217248  HIT %:    48.2974  MISS %:    51.7026   MPKI: 11.0862
LLC WRITEBACK ACCESS:     664619  HIT:     662620  MISS:       1999  HIT %:    99.6992  MISS %:   0.300774   MPKI: 0.009995
LLC LOAD TRANSLATION ACCESS:      18915  HIT:      11409  MISS:       7506  HIT %:    60.3172  MISS %:    39.6828   MPKI: 0.03753
LLC PREFETCH  REQUESTED:          0  ISSUED:          0  USEFUL:     286201  USELESS:    1932040
LLC USEFUL LOAD PREFETCHES:     286201 PREFETCH ISSUED TO LOWER LEVEL:    2217248  ACCURACY: 12.9079
LLC TIMELY PREFETCHES:     286201 LATE PREFETCHES: 0 DROPPED PREFETCHES: 0
LLC COMMIT LATE PREFETCHES: 0 MISSED OPPORTUNITY: 0 LATE IN PQ: 0 UNCOVERED: 0
LLC COMMIT LATE MSHR PREFETCHES: 0
LLC MPKI TOTAL: 4.17495 MSHR LATE: 0 PQ LATE: 0 COMMIT LATE: 0 MISSED OPPORTUNITY: 0 UNCOVERED: 0
LLC PREFETCHES SAME FILL-ORIGIN LEVEL: 0 DIFFERENT FILL-ORIGIN LEVEL: 0
LLC AVERAGE MISS LATENCY: 178.449 cycles
LLC AVERAGE MISS LATENCY LOAD: 196.076 cycles
LLC AVERAGE MISS LATENCY PREFETCH: 171.945 cycles
LLC AVERAGE MSHR OCCUPANCY: 2.22972
LLC MSHR FULL: 0
LLC RQ	ACCESS:    3227802	FORWARD:          0	MERGED:          0	TO_CACHE:    3227796
LLC WQ	ACCESS:     664619	FORWARD:         12	MERGED:          0	TO_CACHE:     664619
LLC PQ	ACCESS:    4288468	FORWARD:          0	MERGED:          0	TO_CACHE:    4288462

LLC Dense regions hint to LLC: 0
404820: 1
4044fc: 1
403e02: 1
403dc3: 1
4045e1: 1
404a14: 1
4048b1: 1
4045db: 2
4044bf: 3
403ed7: 4
403ea0: 6
404841: 8
404826: 10
40483c: 18
4048e0: 37
4048b8: 40
4048bf: 53
4048b4: 103
403f02: 113
4048c3: 116
404844: 225
4048bc: 234
403eb0: 482
403ef3: 585
40483f: 604
403ee8: 736
403ce9: 1465
40482f: 1557
403e9a: 2322
403cc6: 2395
403eb4: 2757
403eec: 3691
403ee2: 4817
403e90: 5105
403e94: 6878
4049d6: 8179
403cc0: 8763
4049cc: 84735
4049e5: 111671
4049de: 587269

RAW hits: 3098421
Loads Generated: 70285606
Loads sent to L1D: 67187184
Stores Generated: 23674352
Stores sent to L1D: 23674381
Major fault: 0 Minor fault: 30918
Allocated PAGES: 30918
Total Load insts: 82859444
Total Non-spec loads: 18661632
Percentage of speculative loads: 77.478
L1D response latency: 65.1269 cycles
Load retirement latency: 113.629 cycles


stream: 
stream:times selected: 25850027
stream:pref_filled: 6025873
stream:pref_useful: 521604
stream:pref_late: 9858
stream:misses: 1393541
stream:misses_by_poll: 0

CS: 
CS:times selected: 3229356
CS:pref_filled: 1637257
CS:pref_useful: 1597615
CS:pref_late: 372125
CS:misses: 474746
CS:misses_by_poll: 3835

CPLX: 
CPLX:times selected: 22441041
CPLX:pref_filled: 983860
CPLX:pref_useful: 117991
CPLX:pref_late: 1172
CPLX:misses: 4868833
CPLX:misses_by_poll: 2292

NL_L1: 
NL:times selected: 163459
NL:pref_filled: 50458
NL:pref_useful: 5277
NL:pref_late: 191
NL:misses: 48164
NL:misses_by_poll: 1

total selections: 51683883
total_filled: 6772410
total_useful: 1698252
total_late: 389515
total_polluted: 6128
total_misses_after_warmup: 5363001
conflicts: 129107
Degree Incremented Times: 244965
Degree Decremented Times: 761338

L1 IP Table Write Accesses: 52199469
L1 IP Table Read Accesses: 52070362
L1 RST Write Accesses: 20571784
L1 RST Read Accesses: 41143568
L1 CSPT Write Accesses: 20571784
L1 CSPT Read Accesses: 38530137
L1 RR Filter Tag Write Accesses: 14755605
L1 RR Filter Tag Read Accesses: 790330787
L1 IP Table Tag Write Accesses: 52426639
L1 IP Table Tag Read Accesses: 52426639
L1 RST Tag Write Accesses: 0
L1 RST Tag Read Accesses: 180609531
L1 RR Filter Write Accesses: 0
L1 RR Filter Read Accesses: 29475964
test: 11840853

DRAM Statistics
 CHANNEL 0
 RQ ROW_BUFFER_HIT:     483178  ROW_BUFFER_MISS:    2582841
 DBUS_CONGESTED:        348
 WQ ROW_BUFFER_HIT:       8725  ROW_BUFFER_MISS:      34529  FULL:          0

 AVG_CONGESTED_CYCLE: 4
 All warmup complete: 2
Channel 0 Bank busy for read cycles: 0
Channel 0 Bank busy for write cycles: 0
Channel 0
Rank 0
0banks busy for read cycles: 553246600
0banks busy for write cycles: 31643
1banks busy for read cycles: 51502864
1banks busy for write cycles: 6603116
2banks busy for read cycles: 43015580
2banks busy for write cycles: 1111474
3banks busy for read cycles: 29097281
3banks busy for write cycles: 279665
4banks busy for read cycles: 18572086
4banks busy for write cycles: 98211
5banks busy for read cycles: 11277772
5banks busy for write cycles: 48589
6banks busy for read cycles: 5875488
6banks busy for write cycles: 26227
7banks busy for read cycles: 2248754
7banks busy for write cycles: 14274
8banks busy for read cycles: 636428
8banks busy for write cycles: 13447

CPU 0 Branch Prediction Accuracy: 92.9349% MPKI: 17.4788 Average ROB Occupancy at Mispredict: 19.2119
Branch types
NOT_BRANCH: 150520485 75.2602%
BRANCH_DIRECT_JUMP: 5163667 2.58183%
BRANCH_INDIRECT: 0 0%
BRANCH_CONDITIONAL: 33195560 16.5978%
BRANCH_DIRECT_CALL: 5259752 2.62988%
BRANCH_INDIRECT_CALL: 300210 0.150105%
BRANCH_RETURN: 5559960 2.77998%
BRANCH_OTHER: 0 0%

DRAM PAGES: 1048576
Allocated PAGES: 30918
