
*** ChampSim Multicore Out-of-Order Simulator ***

Warmup Instructions: 50000000
Simulation Instructions: 200000000
Number of CPUs: 1
LLC sets: 2048
LLC ways: 16
Secure Berti: OFF
Berti: OFF
Berti Fill: OFF
On commit prefetching: OFF
L2 LLC Bypass speculative loads: OFF
Off-chip DRAM Size: 4096 MB Channels: 1 Width: 64-bit Data Rate: 6400 MT/s
CPU 0 runs /home/sumon/secure_berti/Berti_Baseline/../../traces/spec/605.mcf_s-1152B.champsimtrace.xz
.xz
BTB has LRU replacement policy
ITLB has LRU replacement policy
DTLB has LRU replacement policy
STLB has LRU replacement policy
L1I has LRU replacement policy
IP Table Entries: 1024
CSPT Entries: 128
RR_ENTRIES: 32
RST_ENTRIES: 8
L1D has LRU replacement policy
L2C has LRU replacement policy
LLC has LRU replacement policy
Heartbeat CPU 0 instructions: 10000001 cycles: 3344716 heartbeat IPC: 2.98979 cumulative IPC: 2.98979 (Simulation time: 0 hr 0 min 33 sec) 
Heartbeat CPU 0 instructions: 20000000 cycles: 6691741 heartbeat IPC: 2.98773 cumulative IPC: 2.98876 (Simulation time: 0 hr 1 min 5 sec) 
Heartbeat CPU 0 instructions: 30000001 cycles: 10033758 heartbeat IPC: 2.99221 cumulative IPC: 2.98991 (Simulation time: 0 hr 1 min 35 sec) 
Heartbeat CPU 0 instructions: 40000001 cycles: 13379767 heartbeat IPC: 2.98864 cumulative IPC: 2.98959 (Simulation time: 0 hr 2 min 6 sec) 
Heartbeat CPU 0 instructions: 50000001 cycles: 16730820 heartbeat IPC: 2.98414 cumulative IPC: 2.9885 (Simulation time: 0 hr 2 min 37 sec) 

Warmup complete CPU 0 instructions: 50000001 cycles: 16730820 (Simulation time: 0 hr 2 min 37 sec) 

Heartbeat CPU 0 instructions: 60000001 cycles: 55110014 heartbeat IPC: 0.260558 cumulative IPC: 0.260558 (Simulation time: 0 hr 3 min 8 sec) 
Heartbeat CPU 0 instructions: 70000000 cycles: 93890407 heartbeat IPC: 0.257862 cumulative IPC: 0.259203 (Simulation time: 0 hr 3 min 38 sec) 
Heartbeat CPU 0 instructions: 80000001 cycles: 132135485 heartbeat IPC: 0.261472 cumulative IPC: 0.259955 (Simulation time: 0 hr 4 min 8 sec) 
Heartbeat CPU 0 instructions: 90000003 cycles: 170576900 heartbeat IPC: 0.260136 cumulative IPC: 0.26 (Simulation time: 0 hr 4 min 39 sec) 
Heartbeat CPU 0 instructions: 100000001 cycles: 209143494 heartbeat IPC: 0.259292 cumulative IPC: 0.259858 (Simulation time: 0 hr 5 min 9 sec) 
Heartbeat CPU 0 instructions: 110000000 cycles: 247784695 heartbeat IPC: 0.258791 cumulative IPC: 0.25968 (Simulation time: 0 hr 5 min 41 sec) 
Heartbeat CPU 0 instructions: 120000002 cycles: 286734327 heartbeat IPC: 0.256742 cumulative IPC: 0.259256 (Simulation time: 0 hr 6 min 12 sec) 
Heartbeat CPU 0 instructions: 130000000 cycles: 326080834 heartbeat IPC: 0.254152 cumulative IPC: 0.258607 (Simulation time: 0 hr 6 min 44 sec) 
Heartbeat CPU 0 instructions: 140000003 cycles: 365894665 heartbeat IPC: 0.251169 cumulative IPC: 0.257759 (Simulation time: 0 hr 7 min 18 sec) 
Heartbeat CPU 0 instructions: 150000001 cycles: 405762692 heartbeat IPC: 0.250828 cumulative IPC: 0.257048 (Simulation time: 0 hr 7 min 53 sec) 
Heartbeat CPU 0 instructions: 160000000 cycles: 446058652 heartbeat IPC: 0.248164 cumulative IPC: 0.256214 (Simulation time: 0 hr 8 min 28 sec) 
Heartbeat CPU 0 instructions: 170000001 cycles: 487181949 heartbeat IPC: 0.243171 cumulative IPC: 0.255074 (Simulation time: 0 hr 9 min 4 sec) 
Heartbeat CPU 0 instructions: 180000000 cycles: 528272897 heartbeat IPC: 0.243363 cumulative IPC: 0.254134 (Simulation time: 0 hr 9 min 42 sec) 
Heartbeat CPU 0 instructions: 190000000 cycles: 569803935 heartbeat IPC: 0.240784 cumulative IPC: 0.253131 (Simulation time: 0 hr 10 min 19 sec) 
Heartbeat CPU 0 instructions: 200000001 cycles: 611768829 heartbeat IPC: 0.238294 cumulative IPC: 0.252085 (Simulation time: 0 hr 10 min 56 sec) 
Heartbeat CPU 0 instructions: 210000002 cycles: 653615069 heartbeat IPC: 0.23897 cumulative IPC: 0.251223 (Simulation time: 0 hr 11 min 32 sec) 
Heartbeat CPU 0 instructions: 220000000 cycles: 694648631 heartbeat IPC: 0.243703 cumulative IPC: 0.250768 (Simulation time: 0 hr 12 min 6 sec) 
Heartbeat CPU 0 instructions: 230000002 cycles: 735708048 heartbeat IPC: 0.24355 cumulative IPC: 0.250356 (Simulation time: 0 hr 12 min 39 sec) 
Heartbeat CPU 0 instructions: 240000001 cycles: 779739492 heartbeat IPC: 0.22711 cumulative IPC: 0.249014 (Simulation time: 0 hr 13 min 13 sec) 
Heartbeat CPU 0 instructions: 250000001 cycles: 821879475 heartbeat IPC: 0.237304 cumulative IPC: 0.248401 (Simulation time: 0 hr 13 min 45 sec) 
Finished CPU 0 instructions: 200000000 cycles: 805148655 cumulative IPC: 0.248401 (Simulation time: 0 hr 13 min 45 sec) 

ChampSim completed all CPUs

Region of Interest Statistics

CPU 0 cumulative IPC: 0.248401 instructions: 200000000 cycles: 805148655
ITLB TOTAL     ACCESS:   34762253  HIT:   34762253  MISS:          0  HIT %:        100  MISS %:          0   MPKI: 0
ITLB Test counter:          0
ITLB LOAD TRANSLATION ACCESS:   34762253  HIT:   34762253  MISS:          0  HIT %:        100  MISS %:          0   MPKI: 0
ITLB PREFETCH  REQUESTED:          0  ISSUED:          0  USEFUL:          0  USELESS:          0
ITLB USEFUL LOAD PREFETCHES:          0 PREFETCH ISSUED TO LOWER LEVEL:          0  ACCURACY: -nan
ITLB TIMELY PREFETCHES:          0 LATE PREFETCHES: 0 DROPPED PREFETCHES: 0
ITLB COMMIT LATE PREFETCHES: 0 MISSED OPPORTUNITY: 0 LATE IN PQ: 0 UNCOVERED: 0
ITLB COMMIT LATE MSHR PREFETCHES: 0
ITLB MPKI TOTAL: 0 MSHR LATE: 0 PQ LATE: 0 COMMIT LATE: 0 MISSED OPPORTUNITY: 0 UNCOVERED: 0
ITLB PREFETCHES SAME FILL-ORIGIN LEVEL: 0 DIFFERENT FILL-ORIGIN LEVEL: 0
ITLB AVERAGE MISS LATENCY: -nan cycles
ITLB AVERAGE MISS LATENCY LOAD: -nan cycles
ITLB AVERAGE MISS LATENCY PREFETCH: -nan cycles
ITLB AVERAGE MSHR OCCUPANCY: 0
ITLB MSHR FULL: 0
ITLB RQ	ACCESS:   36224413	FORWARD:          0	MERGED:    1462160	TO_CACHE:   34762253

DTLB TOTAL     ACCESS:   55036578  HIT:   47726307  MISS:    7310271  HIT %:    86.7174  MISS %:    13.2826   MPKI: 36.5514
DTLB Test counter:          0
DTLB LOAD TRANSLATION ACCESS:   55036578  HIT:   47726307  MISS:    7310271  HIT %:    86.7174  MISS %:    13.2826   MPKI: 36.5514
DTLB PREFETCH  REQUESTED:          0  ISSUED:          0  USEFUL:          0  USELESS:          0
DTLB USEFUL LOAD PREFETCHES:          0 PREFETCH ISSUED TO LOWER LEVEL:          0  ACCURACY: -nan
DTLB TIMELY PREFETCHES:          0 LATE PREFETCHES: 0 DROPPED PREFETCHES: 0
DTLB COMMIT LATE PREFETCHES: 0 MISSED OPPORTUNITY: 0 LATE IN PQ: 0 UNCOVERED: 0
DTLB COMMIT LATE MSHR PREFETCHES: 0
DTLB MPKI TOTAL: 0 MSHR LATE: 0 PQ LATE: 0 COMMIT LATE: 0 MISSED OPPORTUNITY: 0 UNCOVERED: 0
DTLB PREFETCHES SAME FILL-ORIGIN LEVEL: 0 DIFFERENT FILL-ORIGIN LEVEL: 0
DTLB AVERAGE MISS LATENCY: 11.107 cycles
DTLB AVERAGE MISS LATENCY LOAD: -nan cycles
DTLB AVERAGE MISS LATENCY PREFETCH: -nan cycles
DTLB AVERAGE MSHR OCCUPANCY: 0.0712654
DTLB MSHR FULL: 0
DTLB RQ	ACCESS:   66718156	FORWARD:          0	MERGED:   11277082	TO_CACHE:   55441074

STLB TOTAL     ACCESS:   24496312  HIT:   24396653  MISS:      99659  HIT %:    99.5932  MISS %:   0.406833   MPKI: 0.498295
STLB Test counter:          0
STLB LOAD TRANSLATION ACCESS:    7310271  HIT:    7210612  MISS:      99659  HIT %:    98.6367  MISS %:    1.36327   MPKI: 0.498295
STLB TRANSLATION FROM L1D PREFETCHER ACCESS:   17186041  HIT:   17186041  MISS:          0  HIT %:        100  MISS %:          0   MPKI: 0
STLB PREFETCH  REQUESTED:          0  ISSUED:          0  USEFUL:          0  USELESS:          0
STLB USEFUL LOAD PREFETCHES:          0 PREFETCH ISSUED TO LOWER LEVEL:          0  ACCURACY: -nan
STLB TIMELY PREFETCHES:          0 LATE PREFETCHES: 0 DROPPED PREFETCHES: 0
STLB COMMIT LATE PREFETCHES: 0 MISSED OPPORTUNITY: 0 LATE IN PQ: 0 UNCOVERED: 0
STLB COMMIT LATE MSHR PREFETCHES: 0
STLB MPKI TOTAL: 0 MSHR LATE: 0 PQ LATE: 0 COMMIT LATE: 0 MISSED OPPORTUNITY: 0 UNCOVERED: 0
STLB PREFETCHES SAME FILL-ORIGIN LEVEL: 0 DIFFERENT FILL-ORIGIN LEVEL: 0
STLB AVERAGE MISS LATENCY: 134.037 cycles
STLB AVERAGE MISS LATENCY LOAD: -nan cycles
STLB AVERAGE MISS LATENCY PREFETCH: -nan cycles
STLB AVERAGE MSHR OCCUPANCY: 0.00988353
STLB MSHR FULL: 0
STLB RQ	ACCESS:   28016672	FORWARD:          0	MERGED:    3520360	TO_CACHE:   24496312

STLB Hit, L1D data hit: 0
STLB Hit, L2C data hit: 0
STLB Hit, LLC data hit: 0
STLB Hit, LLC data miss: 0
STLB STLB hints to L2: 0
L1D TOTAL     ACCESS:   83750486  HIT:   59692801  MISS:   24057685  HIT %:    71.2746  MISS %:    28.7254   MPKI: 120.288
L1D Test counter:          0
L1D LOAD      ACCESS:   48726831  HIT:   37341157  MISS:   11701639  HIT %:    76.6337  MISS %:    23.3663   MPKI: 56.9284
L1D RFO       ACCESS:   16620386  HIT:   16013681  MISS:     606705  HIT %:    96.3496  MISS %:    3.65037   MPKI: 3.03353
L1D PREFETCH  ACCESS:   18403269  HIT:    6337963  MISS:   12065306  HIT %:    34.4393  MISS %:    65.5607   MPKI: 60.3265
L1D PREFETCH  REQUESTED:   41429757  ISSUED:   41429188  USEFUL:    2560734  USELESS:    9504578
L1D USEFUL LOAD PREFETCHES:    2560734 PREFETCH ISSUED TO LOWER LEVEL:   13600888  ACCURACY: 18.8277
L1D TIMELY PREFETCHES:    2560734 LATE PREFETCHES: 1534875 DROPPED PREFETCHES: 0
L1D COMMIT LATE PREFETCHES: 0 MISSED OPPORTUNITY: 0 LATE IN PQ: 607209 UNCOVERED: 0
L1D COMMIT LATE MSHR PREFETCHES: 0
L1D MPKI TOTAL: 58.5082 MSHR LATE: 7.67438 PQ LATE: 3.03605 COMMIT LATE: 0 MISSED OPPORTUNITY: 0 UNCOVERED: 0
L1D PREFETCHES SAME FILL-ORIGIN LEVEL: 13600888 DIFFERENT FILL-ORIGIN LEVEL: 0
L1D AVERAGE MISS LATENCY: 86.0214 cycles
L1D AVERAGE MISS LATENCY LOAD: 70.8153 cycles
L1D AVERAGE MISS LATENCY PREFETCH: 102.787 cycles
L1D AVERAGE MSHR OCCUPANCY: 1.92817
L1D MSHR FULL: 0.0109304
L1D RQ	ACCESS:   68224453	FORWARD:          0	MERGED:   17434145	TO_CACHE:   49042797
L1D WQ	ACCESS:   17802933	FORWARD:    1763897	MERGED:     127574	TO_CACHE:   17675359
L1D PQ	ACCESS:   20722787	FORWARD:          0	MERGED:          0	TO_CACHE:   20706401

L1D UNIQUE REGIONS ACCESSED: 0
L1D REGIONS CONFLICTS: 0
L1D Cross Page Prefetch Requests: 0
L1D Same Page Prefetch Requests: 25143496
L1D ROI Sum of L1D PQ occupancy: 269999896
L1D PREFETCHES PUSHED FROM L2C: 0
4084b4: 1
403d20: 1
404a33: 1
403d28: 1
403d76: 2
404097: 2
403e6d: 3
403d86: 4
403d6c: 4
4074f3: 4
403e42: 5
404cae: 6
403db8: 6
407521: 7
403d17: 9
403d44: 10
403d8d: 10
4048cd: 26
403d13: 29
404924: 31
403cf4: 36
404920: 41
403f18: 45
403ca9: 52
403ce0: 60
404648: 66
405d03: 84
403d4d: 87
40499c: 93
4046d0: 94
403e6e: 95
404629: 103
403ea0: 104
404652: 108
4048a6: 119
4045e1: 126
403ed7: 137
404684: 149
4084af: 168
4084b0: 187
4044b7: 279
4046c8: 285
404ce3: 339
4048e9: 414
404fc0: 538
405ccd: 671
40459f: 743
404cda: 866
4045db: 926
405d41: 947
4048a0: 949
4044bf: 950
4045bd: 950
4044fc: 950
40465d: 950
403f02: 1179
404a08: 1406
404a4b: 1456
405d23: 1716
4048b8: 3197
403ef3: 4629
403e54: 5271
403e50: 5307
403ee8: 6249
404a14: 6602
4048e0: 6775
4048c3: 7098
403eb0: 7584
403ce9: 8374
4048bf: 8997
404820: 9496
403cc6: 10264
404841: 12023
404823: 12693
403e60: 15950
403e64: 15967
404826: 17678
4048b1: 20594
404076: 21820
40409b: 22198
403eb4: 27972
4048aa: 29059
403eec: 29977
403e9a: 35204
403ee2: 36828
403cc0: 40562
4048bc: 50458
403e94: 54108
4048b4: 56133
403e90: 56524
404844: 67128
40483c: 81441
4049d6: 194296
40483f: 366064
40482f: 715273
4049cc: 1958233
4049de: 3617566
4049e5: 3721452
L1I TOTAL     ACCESS:   36224413  HIT:   36224411  MISS:          2  HIT %:        100  MISS %: 5.52114e-06   MPKI: 1e-05
L1I Test counter:          0
L1I LOAD      ACCESS:   36224413  HIT:   36224411  MISS:          2  HIT %:        100  MISS %: 5.52114e-06   MPKI: 1e-05
L1I PREFETCH  REQUESTED:          0  ISSUED:          0  USEFUL:          0  USELESS:          0
L1I USEFUL LOAD PREFETCHES:          0 PREFETCH ISSUED TO LOWER LEVEL:          0  ACCURACY: -nan
L1I TIMELY PREFETCHES:          0 LATE PREFETCHES: 0 DROPPED PREFETCHES: 0
L1I COMMIT LATE PREFETCHES: 0 MISSED OPPORTUNITY: 0 LATE IN PQ: 0 UNCOVERED: 0
L1I COMMIT LATE MSHR PREFETCHES: 0
L1I MPKI TOTAL: 1e-05 MSHR LATE: 0 PQ LATE: 0 COMMIT LATE: 0 MISSED OPPORTUNITY: 0 UNCOVERED: 0
L1I PREFETCHES SAME FILL-ORIGIN LEVEL: 0 DIFFERENT FILL-ORIGIN LEVEL: 0
L1I AVERAGE MISS LATENCY: 214 cycles
L1I AVERAGE MISS LATENCY LOAD: 214 cycles
L1I AVERAGE MISS LATENCY PREFETCH: -nan cycles
L1I AVERAGE MSHR OCCUPANCY: 2.76057e-08
L1I MSHR FULL: 0
L1I RQ	ACCESS:   55413754	FORWARD:          0	MERGED:   19189341	TO_CACHE:   36224413

403e02: 1
403dc3: 1
BTB TOTAL     ACCESS:   49743916  HIT:   48131262  MISS:    1612654  HIT %:    96.7581  MISS %:    3.24191   MPKI: 8.06327
BTB Test counter:          0
BTB BRANCH_DIRECT_JUMP	ACCESS:    5836928  HIT:    5836891  MISS:         37
BTB BRANCH_INDIRECT	ACCESS:          0  HIT:          0  MISS:          0
BTB BRANCH_CONDITIONAL	ACCESS:   36112465  HIT:   36112386  MISS:         79
BTB BRANCH_DIRECT_CALL	ACCESS:    3647058  HIT:    3647040  MISS:         18
BTB BRANCH_INDIRECT_CALL	ACCESS:     250202  HIT:     250194  MISS:          8
BTB BRANCH_RETURN	ACCESS:    3897263  HIT:    2284751  MISS:    1612512
BTB BRANCH_OTHER ACCESS:          0  HIT:          0  MISS:          0

L2C TOTAL     ACCESS:   25176394  HIT:    5475718  MISS:   19700676  HIT %:    21.7494  MISS %:    78.2506   MPKI: 98.5034
L2C Test counter:          0
L2C LOAD      ACCESS:    9850730  HIT:    2071360  MISS:    7779370  HIT %:    21.0275  MISS %:    78.9725   MPKI: 38.8969
L2C DATA LOAD MPKI: 38.8968
L2C INSTRUCTION LOAD MPKI: 1e-05
L2C RFO       ACCESS:     605996  HIT:     193657  MISS:     412339  HIT %:    31.9568  MISS %:    68.0432   MPKI: 2.06169
L2C PREFETCH  ACCESS:   13600867  HIT:    2130663  MISS:   11470204  HIT %:    15.6656  MISS %:    84.3344   MPKI: 57.351
L2C DATA PREFETCH MPKI: 57.351
L2C INSTRUCTION PREFETCH MPKI: 0
L2C WRITEBACK ACCESS:    1018534  HIT:    1017345  MISS:       1189  HIT %:    99.8833  MISS %:   0.116736   MPKI: 0.005945
L2C LOAD TRANSLATION ACCESS:     100267  HIT:      62693  MISS:      37574  HIT %:    62.5261  MISS %:    37.4739   MPKI: 0.18787
L2C PREFETCH  REQUESTED:          0  ISSUED:          0  USEFUL:     429256  USELESS:   11041038
L2C USEFUL LOAD PREFETCHES:     429256 PREFETCH ISSUED TO LOWER LEVEL:   11470204  ACCURACY: 3.74236
L2C TIMELY PREFETCHES:     429256 LATE PREFETCHES: 0 DROPPED PREFETCHES: 0
L2C COMMIT LATE PREFETCHES: 0 MISSED OPPORTUNITY: 0 LATE IN PQ: 0 UNCOVERED: 0
L2C COMMIT LATE MSHR PREFETCHES: 0
L2C MPKI TOTAL: 38.8969 MSHR LATE: 0 PQ LATE: 0 COMMIT LATE: 0 MISSED OPPORTUNITY: 0 UNCOVERED: 0
L2C PREFETCHES SAME FILL-ORIGIN LEVEL: 0 DIFFERENT FILL-ORIGIN LEVEL: 0
L2C AVERAGE MISS LATENCY: 102.411 cycles
L2C AVERAGE MISS LATENCY LOAD: 84.298 cycles
L2C AVERAGE MISS LATENCY PREFETCH: 117.085 cycles
L2C AVERAGE MSHR OCCUPANCY: 4.20926
L2C MSHR FULL: 0
L2C RQ	ACCESS:   10557065	FORWARD:          0	MERGED:          0	TO_CACHE:   10556993
L2C WQ	ACCESS:    1018534	FORWARD:         93	MERGED:          0	TO_CACHE:    1018534
L2C PQ	ACCESS:   13600888	FORWARD:          0	MERGED:          0	TO_CACHE:   13600867

L2C Instructions Evicting Data 2
L2C Translations Evicting Data 37509
L2C Data Evicting Data 19624407
L2C Instructions Evicting Instructions 0
L2C Translations Evicting Instructions 0
L2C Data Evicting Instructions 2
L2C Instructions Evicting Translations 0
L2C Translations Evicting Translations 65
L2C Data Evicting Translations 37502
L2C Dense regions hint from L2: 0
4048a6: 1
403d28: 1
4048e9: 1
403d86: 1
403d13: 1
403dc3: 1
403e02: 1
403d76: 1
403d6c: 1
404a08: 2
4046c8: 2
403d44: 2
403cf4: 2
403db8: 2
403e6e: 2
404684: 2
4044b7: 2
403d4d: 3
404cae: 3
403e64: 3
403d8d: 4
403e60: 4
4048a0: 7
403ce0: 11
4048cd: 15
403f18: 21
40459f: 25
403ca9: 35
404ce3: 48
403e54: 52
403e50: 52
403ea0: 77
4045e1: 80
403ed7: 107
4048aa: 118
4048b1: 135
404a4b: 155
4045db: 310
404a14: 333
4044fc: 950
40465d: 950
4045bd: 950
4044bf: 950
403f02: 1005
4048b8: 1656
404826: 2596
4048e0: 2864
404823: 2951
404820: 3023
4048b4: 3227
404841: 3874
4048c3: 4057
4048bf: 4205
403ef3: 4360
403ee8: 6059
403ce9: 6634
403eb0: 7077
403cc6: 9408
40483c: 22284
403eb4: 27417
403eec: 28057
403e9a: 32251
403ee2: 34559
403cc0: 36083
404844: 37826
4048bc: 45832
403e94: 50878
403e90: 52797
4049d6: 57558
40482f: 181060
40483f: 195661
4049cc: 565235
4049de: 3043869
4049e5: 3299584
PSCL5 TOTAL     ACCESS:      99659  HIT:      99659  MISS:          0  HIT %:        100  MISS %:          0   MPKI: 0
PSCL5 Test counter:          0
PSCL5 LOAD TRANSLATION ACCESS:      99659  HIT:      99659  MISS:          0  HIT %:        100  MISS %:          0   MPKI: 0
PSCL5 PREFETCH  REQUESTED:          0  ISSUED:          0  USEFUL:          0  USELESS:          0
PSCL5 USEFUL LOAD PREFETCHES:          0 PREFETCH ISSUED TO LOWER LEVEL:          0  ACCURACY: -nan
PSCL5 TIMELY PREFETCHES:          0 LATE PREFETCHES: 0 DROPPED PREFETCHES: 0
PSCL5 COMMIT LATE PREFETCHES: 0 MISSED OPPORTUNITY: 0 LATE IN PQ: 0 UNCOVERED: 0
PSCL5 COMMIT LATE MSHR PREFETCHES: 0
PSCL5 MPKI TOTAL: 0 MSHR LATE: 0 PQ LATE: 0 COMMIT LATE: 0 MISSED OPPORTUNITY: 0 UNCOVERED: 0
PSCL5 PREFETCHES SAME FILL-ORIGIN LEVEL: 0 DIFFERENT FILL-ORIGIN LEVEL: 0

PSCL4 TOTAL     ACCESS:      99659  HIT:      99659  MISS:          0  HIT %:        100  MISS %:          0   MPKI: 0
PSCL4 Test counter:          0
PSCL4 LOAD TRANSLATION ACCESS:      99659  HIT:      99659  MISS:          0  HIT %:        100  MISS %:          0   MPKI: 0
PSCL4 PREFETCH  REQUESTED:          0  ISSUED:          0  USEFUL:          0  USELESS:          0
PSCL4 USEFUL LOAD PREFETCHES:          0 PREFETCH ISSUED TO LOWER LEVEL:          0  ACCURACY: -nan
PSCL4 TIMELY PREFETCHES:          0 LATE PREFETCHES: 0 DROPPED PREFETCHES: 0
PSCL4 COMMIT LATE PREFETCHES: 0 MISSED OPPORTUNITY: 0 LATE IN PQ: 0 UNCOVERED: 0
PSCL4 COMMIT LATE MSHR PREFETCHES: 0
PSCL4 MPKI TOTAL: 0 MSHR LATE: 0 PQ LATE: 0 COMMIT LATE: 0 MISSED OPPORTUNITY: 0 UNCOVERED: 0
PSCL4 PREFETCHES SAME FILL-ORIGIN LEVEL: 0 DIFFERENT FILL-ORIGIN LEVEL: 0

PSCL3 TOTAL     ACCESS:      99659  HIT:      99659  MISS:          0  HIT %:        100  MISS %:          0   MPKI: 0
PSCL3 Test counter:          0
PSCL3 LOAD TRANSLATION ACCESS:      99659  HIT:      99659  MISS:          0  HIT %:        100  MISS %:          0   MPKI: 0
PSCL3 PREFETCH  REQUESTED:          0  ISSUED:          0  USEFUL:          0  USELESS:          0
PSCL3 USEFUL LOAD PREFETCHES:          0 PREFETCH ISSUED TO LOWER LEVEL:          0  ACCURACY: -nan
PSCL3 TIMELY PREFETCHES:          0 LATE PREFETCHES: 0 DROPPED PREFETCHES: 0
PSCL3 COMMIT LATE PREFETCHES: 0 MISSED OPPORTUNITY: 0 LATE IN PQ: 0 UNCOVERED: 0
PSCL3 COMMIT LATE MSHR PREFETCHES: 0
PSCL3 MPKI TOTAL: 0 MSHR LATE: 0 PQ LATE: 0 COMMIT LATE: 0 MISSED OPPORTUNITY: 0 UNCOVERED: 0
PSCL3 PREFETCHES SAME FILL-ORIGIN LEVEL: 0 DIFFERENT FILL-ORIGIN LEVEL: 0

PSCL2 TOTAL     ACCESS:      99659  HIT:      98667  MISS:        992  HIT %:    99.0046  MISS %:   0.995394   MPKI: 0.00496
PSCL2 Test counter:          0
PSCL2 LOAD TRANSLATION ACCESS:      99659  HIT:      98667  MISS:        992  HIT %:    99.0046  MISS %:   0.995394   MPKI: 0.00496
PSCL2 PREFETCH  REQUESTED:          0  ISSUED:          0  USEFUL:          0  USELESS:          0
PSCL2 USEFUL LOAD PREFETCHES:          0 PREFETCH ISSUED TO LOWER LEVEL:          0  ACCURACY: -nan
PSCL2 TIMELY PREFETCHES:          0 LATE PREFETCHES: 0 DROPPED PREFETCHES: 0
PSCL2 COMMIT LATE PREFETCHES: 0 MISSED OPPORTUNITY: 0 LATE IN PQ: 0 UNCOVERED: 0
PSCL2 COMMIT LATE MSHR PREFETCHES: 0
PSCL2 MPKI TOTAL: 0 MSHR LATE: 0 PQ LATE: 0 COMMIT LATE: 0 MISSED OPPORTUNITY: 0 UNCOVERED: 0
PSCL2 PREFETCHES SAME FILL-ORIGIN LEVEL: 0 DIFFERENT FILL-ORIGIN LEVEL: 0

LLC TOTAL     ACCESS:   20488656  HIT:   12330949  MISS:    8157707  HIT %:    60.1843  MISS %:    39.8157   MPKI: 40.7885
LLC Test counter:          0
LLC LOAD      ACCESS:    7779368  HIT:    5552829  MISS:    2226539  HIT %:    71.3789  MISS %:    28.6211   MPKI: 11.1327
LLC RFO       ACCESS:     412338  HIT:     406291  MISS:       6047  HIT %:    98.5335  MISS %:    1.46652   MPKI: 0.030235
LLC PREFETCH  ACCESS:   11470199  HIT:    5565468  MISS:    5904731  HIT %:    48.5211  MISS %:    51.4789   MPKI: 29.5237
LLC WRITEBACK ACCESS:     789177  HIT:     788430  MISS:        747  HIT %:    99.9053  MISS %:  0.0946556   MPKI: 0.003735
LLC LOAD TRANSLATION ACCESS:      37574  HIT:      17931  MISS:      19643  HIT %:    47.7218  MISS %:    52.2782   MPKI: 0.098215
LLC PREFETCH  REQUESTED:          0  ISSUED:          0  USEFUL:     312930  USELESS:    5592164
LLC USEFUL LOAD PREFETCHES:     312930 PREFETCH ISSUED TO LOWER LEVEL:    5904731  ACCURACY: 5.29965
LLC TIMELY PREFETCHES:     312930 LATE PREFETCHES: 0 DROPPED PREFETCHES: 0
LLC COMMIT LATE PREFETCHES: 0 MISSED OPPORTUNITY: 0 LATE IN PQ: 0 UNCOVERED: 0
LLC COMMIT LATE MSHR PREFETCHES: 0
LLC MPKI TOTAL: 11.1327 MSHR LATE: 0 PQ LATE: 0 COMMIT LATE: 0 MISSED OPPORTUNITY: 0 UNCOVERED: 0
LLC PREFETCHES SAME FILL-ORIGIN LEVEL: 0 DIFFERENT FILL-ORIGIN LEVEL: 0
LLC AVERAGE MISS LATENCY: 173.995 cycles
LLC AVERAGE MISS LATENCY LOAD: 188.585 cycles
LLC AVERAGE MISS LATENCY PREFETCH: 168.433 cycles
LLC AVERAGE MSHR OCCUPANCY: 3.34315
LLC MSHR FULL: 0
LLC RQ	ACCESS:    8229283	FORWARD:          0	MERGED:          0	TO_CACHE:    8229280
LLC WQ	ACCESS:     789177	FORWARD:          8	MERGED:          0	TO_CACHE:     789177
LLC PQ	ACCESS:   11470204	FORWARD:          0	MERGED:          0	TO_CACHE:   11470199

LLC Dense regions hint to LLC: 0
403dc3: 1
403e02: 1
4045db: 1
4048a0: 1
4044b7: 1
404684: 1
403e6e: 1
403db8: 1
403d76: 1
403cf4: 1
4045e1: 1
4046c8: 1
403ca9: 1
403e50: 2
403f18: 2
404cae: 2
404a4b: 2
403e54: 3
404820: 6
40465d: 6
404a14: 6
4044bf: 8
403ea0: 9
403ed7: 13
404826: 14
4045bd: 17
4044fc: 17
4048b8: 23
404823: 25
404841: 26
4048b1: 28
4048c3: 29
4048bf: 43
4048aa: 53
4048e0: 66
4048b4: 89
404844: 97
40483c: 99
403f02: 119
4048bc: 500
403eb0: 546
403ef3: 693
40483f: 872
403ee8: 989
40482f: 1173
403eb4: 2653
403e9a: 2682
403eec: 3420
403ce9: 4613
403ee2: 4674
403e90: 5282
403cc6: 6787
403e94: 6912
403cc0: 24057
4049d6: 57558
4049e5: 105909
4049cc: 565219
4049de: 1431183

RAW hits: 2428528
Loads Generated: 70652983
Loads sent to L1D: 68224453
Stores Generated: 17802933
Stores sent to L1D: 17802933
Major fault: 0 Minor fault: 80635
Allocated PAGES: 80635
Total Load insts: 84331446
Total Non-spec loads: 15602802
Percentage of speculative loads: 81.4982
L1D response latency: 81.8492 cycles
Load retirement latency: 177.889 cycles


stream: 
stream:times selected: 32161048
stream:pref_filled: 10482805
stream:pref_useful: 375252
stream:pref_late: 17020
stream:misses: 2552766
stream:misses_by_poll: 0

CS: 
CS:times selected: 5684193
CS:pref_filled: 2802587
CS:pref_useful: 2692350
CS:pref_late: 1638464
CS:misses: 2148823
CS:misses_by_poll: 5555

CPLX: 
CPLX:times selected: 26243815
CPLX:pref_filled: 1173485
CPLX:pref_useful: 132944
CPLX:pref_late: 5762
CPLX:misses: 8975431
CPLX:misses_by_poll: 3311

NL_L1: 
NL:times selected: 132558
NL:pref_filled: 46686
NL:pref_useful: 2735
NL:pref_late: 383
NL:misses: 50809
NL:misses_by_poll: 2

total selections: 64221614
total_filled: 12065306
total_useful: 2560734
total_late: 1683985
total_polluted: 8868
total_misses_after_warmup: 11701639
conflicts: 110895
Degree Incremented Times: 235783
Degree Decremented Times: 620777

L1 IP Table Write Accesses: 48835865
L1 IP Table Read Accesses: 48724970
L1 RST Write Accesses: 26023400
L1 RST Read Accesses: 52046800
L1 CSPT Write Accesses: 26023400
L1 CSPT Read Accesses: 47232705
L1 RR Filter Tag Write Accesses: 20723356
L1 RR Filter Tag Read Accesses: 1165950014
L1 IP Table Tag Write Accesses: 49042796
L1 IP Table Tag Read Accesses: 49042796
L1 RST Tag Write Accesses: 0
L1 RST Tag Read Accesses: 243541749
L1 RR Filter Write Accesses: 0
L1 RR Filter Read Accesses: 41384964
test: 15166874

DRAM Statistics
 CHANNEL 0
 RQ ROW_BUFFER_HIT:    2005326  ROW_BUFFER_MISS:    6151479
 DBUS_CONGESTED:        929
 WQ ROW_BUFFER_HIT:      12177  ROW_BUFFER_MISS:      57969  FULL:          0

 AVG_CONGESTED_CYCLE: 4
 All warmup complete: 2
Channel 0 Bank busy for read cycles: 0
Channel 0 Bank busy for write cycles: 0
Channel 0
Rank 0
0banks busy for read cycles: 433345226
0banks busy for write cycles: 36533
1banks busy for read cycles: 104919566
1banks busy for write cycles: 7955343
2banks busy for read cycles: 81862547
2banks busy for write cycles: 1147025
3banks busy for read cycles: 61440855
3banks busy for write cycles: 296451
4banks busy for read cycles: 46830108
4banks busy for write cycles: 135603
5banks busy for read cycles: 33165532
5banks busy for write cycles: 99032
6banks busy for read cycles: 19763088
6banks busy for write cycles: 91079
7banks busy for read cycles: 9055277
7banks busy for write cycles: 149684
8banks busy for read cycles: 4379272
8banks busy for write cycles: 476435

CPU 0 Branch Prediction Accuracy: 94.5902% MPKI: 13.9808 Average ROB Occupancy at Mispredict: 27.1979
Branch types
NOT_BRANCH: 148312417 74.1562%
BRANCH_DIRECT_JUMP: 5836928 2.91846%
BRANCH_INDIRECT: 0 0%
BRANCH_CONDITIONAL: 38055866 19.0279%
BRANCH_DIRECT_CALL: 3647058 1.82353%
BRANCH_INDIRECT_CALL: 250202 0.125101%
BRANCH_RETURN: 3897263 1.94863%
BRANCH_OTHER: 0 0%

DRAM PAGES: 1048576
Allocated PAGES: 80635
