
*** ChampSim Multicore Out-of-Order Simulator ***

Warmup Instructions: 50000000
Simulation Instructions: 200000000
Number of CPUs: 1
LLC sets: 2048
LLC ways: 16
Secure Berti: OFF
Berti: OFF
Berti Fill: OFF
On commit prefetching: OFF
L2 LLC Bypass speculative loads: OFF
Off-chip DRAM Size: 4096 MB Channels: 1 Width: 64-bit Data Rate: 6400 MT/s
CPU 0 runs /home/sumon/secure_berti/Berti_Baseline/../../traces/spec/605.mcf_s-1644B.champsimtrace.xz
.xz
BTB has LRU replacement policy
ITLB has LRU replacement policy
DTLB has LRU replacement policy
STLB has LRU replacement policy
L1I has LRU replacement policy
IP Table Entries: 1024
CSPT Entries: 128
RR_ENTRIES: 32
RST_ENTRIES: 8
L1D has LRU replacement policy
L2C has LRU replacement policy
LLC has LRU replacement policy
Heartbeat CPU 0 instructions: 10000003 cycles: 5099630 heartbeat IPC: 1.96093 cumulative IPC: 1.96093 (Simulation time: 0 hr 0 min 43 sec) 
Heartbeat CPU 0 instructions: 20000001 cycles: 10196093 heartbeat IPC: 1.96214 cumulative IPC: 1.96154 (Simulation time: 0 hr 1 min 24 sec) 
Heartbeat CPU 0 instructions: 30000002 cycles: 15293027 heartbeat IPC: 1.96196 cumulative IPC: 1.96168 (Simulation time: 0 hr 2 min 3 sec) 
Heartbeat CPU 0 instructions: 40000000 cycles: 20378399 heartbeat IPC: 1.96642 cumulative IPC: 1.96286 (Simulation time: 0 hr 2 min 43 sec) 
Heartbeat CPU 0 instructions: 50000000 cycles: 25457909 heartbeat IPC: 1.96869 cumulative IPC: 1.96403 (Simulation time: 0 hr 3 min 22 sec) 

Warmup complete CPU 0 instructions: 50000004 cycles: 25457910 (Simulation time: 0 hr 3 min 22 sec) 

Heartbeat CPU 0 instructions: 60000001 cycles: 91273965 heartbeat IPC: 0.151939 cumulative IPC: 0.151939 (Simulation time: 0 hr 4 min 35 sec) 
Heartbeat CPU 0 instructions: 70000003 cycles: 157115151 heartbeat IPC: 0.151881 cumulative IPC: 0.15191 (Simulation time: 0 hr 5 min 49 sec) 
Heartbeat CPU 0 instructions: 80000000 cycles: 223649148 heartbeat IPC: 0.150299 cumulative IPC: 0.151369 (Simulation time: 0 hr 7 min 3 sec) 
Heartbeat CPU 0 instructions: 90000000 cycles: 290106647 heartbeat IPC: 0.150472 cumulative IPC: 0.151144 (Simulation time: 0 hr 8 min 18 sec) 
Heartbeat CPU 0 instructions: 100000003 cycles: 357637319 heartbeat IPC: 0.148081 cumulative IPC: 0.150521 (Simulation time: 0 hr 9 min 32 sec) 
Heartbeat CPU 0 instructions: 110000000 cycles: 425468990 heartbeat IPC: 0.147424 cumulative IPC: 0.149996 (Simulation time: 0 hr 10 min 47 sec) 
Heartbeat CPU 0 instructions: 120000000 cycles: 493338810 heartbeat IPC: 0.147341 cumulative IPC: 0.149611 (Simulation time: 0 hr 12 min 2 sec) 
Heartbeat CPU 0 instructions: 130000000 cycles: 560678679 heartbeat IPC: 0.1485 cumulative IPC: 0.149471 (Simulation time: 0 hr 13 min 13 sec) 
Heartbeat CPU 0 instructions: 140000003 cycles: 626289970 heartbeat IPC: 0.152413 cumulative IPC: 0.149792 (Simulation time: 0 hr 14 min 22 sec) 
Heartbeat CPU 0 instructions: 150000002 cycles: 689080012 heartbeat IPC: 0.159261 cumulative IPC: 0.150688 (Simulation time: 0 hr 15 min 30 sec) 
Heartbeat CPU 0 instructions: 160000002 cycles: 750775065 heartbeat IPC: 0.162088 cumulative IPC: 0.151658 (Simulation time: 0 hr 16 min 39 sec) 
Heartbeat CPU 0 instructions: 170000000 cycles: 813766962 heartbeat IPC: 0.158751 cumulative IPC: 0.152225 (Simulation time: 0 hr 17 min 44 sec) 
Heartbeat CPU 0 instructions: 180000000 cycles: 876861546 heartbeat IPC: 0.158492 cumulative IPC: 0.152689 (Simulation time: 0 hr 18 min 50 sec) 
Heartbeat CPU 0 instructions: 190000000 cycles: 939721272 heartbeat IPC: 0.159084 cumulative IPC: 0.153129 (Simulation time: 0 hr 19 min 56 sec) 
Heartbeat CPU 0 instructions: 200000001 cycles: 1003998559 heartbeat IPC: 0.155576 cumulative IPC: 0.153289 (Simulation time: 0 hr 21 min 2 sec) 
Heartbeat CPU 0 instructions: 210000000 cycles: 1068475636 heartbeat IPC: 0.155094 cumulative IPC: 0.153401 (Simulation time: 0 hr 22 min 9 sec) 
Heartbeat CPU 0 instructions: 220000000 cycles: 1132829118 heartbeat IPC: 0.155392 cumulative IPC: 0.153517 (Simulation time: 0 hr 23 min 16 sec) 
Heartbeat CPU 0 instructions: 230000001 cycles: 1196908513 heartbeat IPC: 0.156056 cumulative IPC: 0.153656 (Simulation time: 0 hr 24 min 22 sec) 
Heartbeat CPU 0 instructions: 240000002 cycles: 1261359179 heartbeat IPC: 0.155157 cumulative IPC: 0.153734 (Simulation time: 0 hr 25 min 29 sec) 
Heartbeat CPU 0 instructions: 250000001 cycles: 1326116361 heartbeat IPC: 0.154423 cumulative IPC: 0.153768 (Simulation time: 0 hr 26 min 36 sec) 
Finished CPU 0 instructions: 200000001 cycles: 1300658452 cumulative IPC: 0.153768 (Simulation time: 0 hr 26 min 36 sec) 

ChampSim completed all CPUs

Region of Interest Statistics

CPU 0 cumulative IPC: 0.153768 instructions: 200000001 cycles: 1300658452
ITLB TOTAL     ACCESS:   35076001  HIT:   35076001  MISS:          0  HIT %:        100  MISS %:          0   MPKI: 0
ITLB Test counter:          0
ITLB LOAD TRANSLATION ACCESS:   35076001  HIT:   35076001  MISS:          0  HIT %:        100  MISS %:          0   MPKI: 0
ITLB PREFETCH  REQUESTED:          0  ISSUED:          0  USEFUL:          0  USELESS:          0
ITLB USEFUL LOAD PREFETCHES:          0 PREFETCH ISSUED TO LOWER LEVEL:          0  ACCURACY: -nan
ITLB TIMELY PREFETCHES:          0 LATE PREFETCHES: 0 DROPPED PREFETCHES: 0
ITLB COMMIT LATE PREFETCHES: 0 MISSED OPPORTUNITY: 0 LATE IN PQ: 0 UNCOVERED: 0
ITLB COMMIT LATE MSHR PREFETCHES: 0
ITLB MPKI TOTAL: 0 MSHR LATE: 0 PQ LATE: 0 COMMIT LATE: 0 MISSED OPPORTUNITY: 0 UNCOVERED: 0
ITLB PREFETCHES SAME FILL-ORIGIN LEVEL: 0 DIFFERENT FILL-ORIGIN LEVEL: 0
ITLB AVERAGE MISS LATENCY: -nan cycles
ITLB AVERAGE MISS LATENCY LOAD: -nan cycles
ITLB AVERAGE MISS LATENCY PREFETCH: -nan cycles
ITLB AVERAGE MSHR OCCUPANCY: 0
ITLB MSHR FULL: 0
ITLB RQ	ACCESS:   35180133	FORWARD:          0	MERGED:     104133	TO_CACHE:   35076000

DTLB TOTAL     ACCESS:   82070025  HIT:   76431485  MISS:    5638540  HIT %:    93.1296  MISS %:     6.8704   MPKI: 28.1927
DTLB Test counter:          0
DTLB LOAD TRANSLATION ACCESS:   82070025  HIT:   76431485  MISS:    5638540  HIT %:    93.1296  MISS %:     6.8704   MPKI: 28.1927
DTLB PREFETCH  REQUESTED:          0  ISSUED:          0  USEFUL:          0  USELESS:          0
DTLB USEFUL LOAD PREFETCHES:          0 PREFETCH ISSUED TO LOWER LEVEL:          0  ACCURACY: -nan
DTLB TIMELY PREFETCHES:          0 LATE PREFETCHES: 0 DROPPED PREFETCHES: 0
DTLB COMMIT LATE PREFETCHES: 0 MISSED OPPORTUNITY: 0 LATE IN PQ: 0 UNCOVERED: 0
DTLB COMMIT LATE MSHR PREFETCHES: 0
DTLB MPKI TOTAL: 0 MSHR LATE: 0 PQ LATE: 0 COMMIT LATE: 0 MISSED OPPORTUNITY: 0 UNCOVERED: 0
DTLB PREFETCHES SAME FILL-ORIGIN LEVEL: 0 DIFFERENT FILL-ORIGIN LEVEL: 0
DTLB AVERAGE MISS LATENCY: 966.448 cycles
DTLB AVERAGE MISS LATENCY LOAD: -nan cycles
DTLB AVERAGE MISS LATENCY PREFETCH: -nan cycles
DTLB AVERAGE MSHR OCCUPANCY: 5.77818
DTLB MSHR FULL: 0.491158
DTLB RQ	ACCESS:  129112539	FORWARD:          0	MERGED:   15442910	TO_CACHE:  113669629

STLB TOTAL     ACCESS:   14285031  HIT:    9463016  MISS:    4822015  HIT %:    66.2443  MISS %:    33.7557   MPKI: 24.1101
STLB Test counter:          0
STLB LOAD TRANSLATION ACCESS:    5638540  HIT:     816527  MISS:    4822013  HIT %:    14.4812  MISS %:    85.5188   MPKI: 24.1101
STLB TRANSLATION FROM L1D PREFETCHER ACCESS:    8646491  HIT:    8646489  MISS:          2  HIT %:        100  MISS %: 2.31308e-05   MPKI: 1e-05
STLB PREFETCH  REQUESTED:          0  ISSUED:          0  USEFUL:          2  USELESS:          0
STLB USEFUL LOAD PREFETCHES:          2 PREFETCH ISSUED TO LOWER LEVEL:          0  ACCURACY: inf
STLB TIMELY PREFETCHES:          2 LATE PREFETCHES: 0 DROPPED PREFETCHES: 0
STLB COMMIT LATE PREFETCHES: 0 MISSED OPPORTUNITY: 0 LATE IN PQ: 0 UNCOVERED: 0
STLB COMMIT LATE MSHR PREFETCHES: 0
STLB MPKI TOTAL: 0 MSHR LATE: 0 PQ LATE: 0 COMMIT LATE: 0 MISSED OPPORTUNITY: 0 UNCOVERED: 0
STLB PREFETCHES SAME FILL-ORIGIN LEVEL: 0 DIFFERENT FILL-ORIGIN LEVEL: 0
STLB AVERAGE MISS LATENCY: 1119.53 cycles
STLB AVERAGE MISS LATENCY LOAD: -nan cycles
STLB AVERAGE MISS LATENCY PREFETCH: -nan cycles
STLB AVERAGE MSHR OCCUPANCY: 3.70931
STLB MSHR FULL: 0
STLB RQ	ACCESS:   16242505	FORWARD:          0	MERGED:    1957470	TO_CACHE:   14285035

STLB Hit, L1D data hit: 0
STLB Hit, L2C data hit: 0
STLB Hit, LLC data hit: 0
STLB Hit, LLC data miss: 0
STLB STLB hints to L2: 0
L1D TOTAL     ACCESS:  107398937  HIT:   85232475  MISS:   22166462  HIT %:    79.3606  MISS %:    20.6394   MPKI: 110.832
L1D Test counter:          0
L1D LOAD      ACCESS:   58793183  HIT:   53220103  MISS:    5922752  HIT %:    90.5209  MISS %:    9.47913   MPKI: 27.8654
L1D RFO       ACCESS:   39359629  HIT:   30613004  MISS:    8746625  HIT %:    77.7777  MISS %:    22.2223   MPKI: 43.7331
L1D PREFETCH  ACCESS:    9246125  HIT:    1399368  MISS:    7846757  HIT %:    15.1346  MISS %:    84.8654   MPKI: 39.2338
L1D PREFETCH  REQUESTED:   21207945  ISSUED:   21207945  USEFUL:    3660002  USELESS:    4186767
L1D USEFUL LOAD PREFETCHES:    3660002 PREFETCH ISSUED TO LOWER LEVEL:    8938239  ACCURACY: 40.9477
L1D TIMELY PREFETCHES:    3660002 LATE PREFETCHES: 1091482 DROPPED PREFETCHES: 0
L1D COMMIT LATE PREFETCHES: 0 MISSED OPPORTUNITY: 0 LATE IN PQ: 180228 UNCOVERED: 0
L1D COMMIT LATE MSHR PREFETCHES: 0
L1D MPKI TOTAL: 29.6138 MSHR LATE: 5.45741 PQ LATE: 0.90114 COMMIT LATE: 0 MISSED OPPORTUNITY: 0 UNCOVERED: 0
L1D PREFETCHES SAME FILL-ORIGIN LEVEL: 8938239 DIFFERENT FILL-ORIGIN LEVEL: 0
L1D AVERAGE MISS LATENCY: 259.006 cycles
L1D AVERAGE MISS LATENCY LOAD: 115.055 cycles
L1D AVERAGE MISS LATENCY PREFETCH: 241.833 cycles
L1D AVERAGE MSHR OCCUPANCY: 5.32554
L1D MSHR FULL: 0.0061059
L1D RQ	ACCESS:   78104305	FORWARD:          0	MERGED:   17498479	TO_CACHE:   59142855
L1D WQ	ACCESS:   69973103	FORWARD:    1462994	MERGED:       3419	TO_CACHE:   69969684
L1D PQ	ACCESS:   10603984	FORWARD:          0	MERGED:          0	TO_CACHE:   10603961

L1D UNIQUE REGIONS ACCESSED: 0
L1D REGIONS CONFLICTS: 0
L1D Cross Page Prefetch Requests: 0
L1D Same Page Prefetch Requests: 13216124
L1D ROI Sum of L1D PQ occupancy: 138252052
L1D PREFETCHES PUSHED FROM L2C: 0
4033f0: 544
4033c9: 44086
4033b5: 114608
4033a0: 1236842
4033b9: 4177000
L1I TOTAL     ACCESS:   35180134  HIT:   35180134  MISS:          0  HIT %:        100  MISS %:          0   MPKI: 0
L1I Test counter:          0
L1I LOAD      ACCESS:   35180134  HIT:   35180134  MISS:          0  HIT %:        100  MISS %:          0   MPKI: 0
L1I PREFETCH  REQUESTED:          0  ISSUED:          0  USEFUL:          0  USELESS:          0
L1I USEFUL LOAD PREFETCHES:          0 PREFETCH ISSUED TO LOWER LEVEL:          0  ACCURACY: -nan
L1I TIMELY PREFETCHES:          0 LATE PREFETCHES: 0 DROPPED PREFETCHES: 0
L1I COMMIT LATE PREFETCHES: 0 MISSED OPPORTUNITY: 0 LATE IN PQ: 0 UNCOVERED: 0
L1I COMMIT LATE MSHR PREFETCHES: 0
L1I MPKI TOTAL: 0 MSHR LATE: 0 PQ LATE: 0 COMMIT LATE: 0 MISSED OPPORTUNITY: 0 UNCOVERED: 0
L1I PREFETCHES SAME FILL-ORIGIN LEVEL: 0 DIFFERENT FILL-ORIGIN LEVEL: 0
L1I AVERAGE MISS LATENCY: -nan cycles
L1I AVERAGE MISS LATENCY LOAD: -nan cycles
L1I AVERAGE MISS LATENCY PREFETCH: -nan cycles
L1I AVERAGE MSHR OCCUPANCY: 0
L1I MSHR FULL: 0
L1I RQ	ACCESS:   59369734	FORWARD:          0	MERGED:   24189601	TO_CACHE:   35180133

BTB TOTAL     ACCESS:   20480033  HIT:   20480028  MISS:          5  HIT %:        100  MISS %: 2.4414e-05   MPKI: 2.5e-05
BTB Test counter:          0
BTB BRANCH_DIRECT_JUMP	ACCESS:    2986815  HIT:    2986814  MISS:          1
BTB BRANCH_INDIRECT	ACCESS:          0  HIT:          0  MISS:          0
BTB BRANCH_CONDITIONAL	ACCESS:    8746594  HIT:    8746592  MISS:          2
BTB BRANCH_DIRECT_CALL	ACCESS:    4373312  HIT:    4373311  MISS:          1
BTB BRANCH_INDIRECT_CALL	ACCESS:          0  HIT:          0  MISS:          0
BTB BRANCH_RETURN	ACCESS:    4373312  HIT:    4373311  MISS:          1
BTB BRANCH_OTHER ACCESS:          0  HIT:          0  MISS:          0

L2C TOTAL     ACCESS:   47051314  HIT:   22628728  MISS:   24422586  HIT %:    48.0937  MISS %:    51.9063   MPKI: 122.113
L2C Test counter:          0
L2C LOAD      ACCESS:    4481555  HIT:    1003107  MISS:    3478448  HIT %:     22.383  MISS %:     77.617   MPKI: 17.3922
L2C DATA LOAD MPKI: 17.3922
L2C INSTRUCTION LOAD MPKI: 0
L2C RFO       ACCESS:    8746625  HIT:        925  MISS:    8745700  HIT %:  0.0105755  MISS %:    99.9894   MPKI: 43.7285
L2C PREFETCH  ACCESS:    8938237  HIT:     923877  MISS:    8014360  HIT %:    10.3362  MISS %:    89.6638   MPKI: 40.0718
L2C DATA PREFETCH MPKI: 40.0718
L2C INSTRUCTION PREFETCH MPKI: 0
L2C WRITEBACK ACCESS:   17979695  HIT:   17972494  MISS:       7201  HIT %:    99.9599  MISS %:  0.0400507   MPKI: 0.036005
L2C LOAD TRANSLATION ACCESS:    6905198  HIT:    2728323  MISS:    4176875  HIT %:    39.5111  MISS %:    60.4889   MPKI: 20.8844
L2C TRANSLATION FROM L1D PREFETCHER ACCESS:          4  HIT:          2  MISS:          2  HIT %:         50  MISS %:         50   MPKI: 1e-05
L2C PREFETCH  REQUESTED:          0  ISSUED:          0  USEFUL:      84232  USELESS:    7930194
L2C USEFUL LOAD PREFETCHES:      84232 PREFETCH ISSUED TO LOWER LEVEL:    8014360  ACCURACY: 1.05101
L2C TIMELY PREFETCHES:      84232 LATE PREFETCHES: 0 DROPPED PREFETCHES: 0
L2C COMMIT LATE PREFETCHES: 0 MISSED OPPORTUNITY: 0 LATE IN PQ: 0 UNCOVERED: 0
L2C COMMIT LATE MSHR PREFETCHES: 0
L2C MPKI TOTAL: 17.3922 MSHR LATE: 0 PQ LATE: 0 COMMIT LATE: 0 MISSED OPPORTUNITY: 0 UNCOVERED: 0
L2C PREFETCHES SAME FILL-ORIGIN LEVEL: 0 DIFFERENT FILL-ORIGIN LEVEL: 0
L2C AVERAGE MISS LATENCY: 287.038 cycles
L2C AVERAGE MISS LATENCY LOAD: 164.807 cycles
L2C AVERAGE MISS LATENCY PREFETCH: 280.521 cycles
L2C AVERAGE MSHR OCCUPANCY: 4.04412
L2C MSHR FULL: 0
L2C RQ	ACCESS:   20133427	FORWARD:          0	MERGED:          0	TO_CACHE:   20133384
L2C WQ	ACCESS:   17979695	FORWARD:         45	MERGED:          0	TO_CACHE:   17979695
L2C PQ	ACCESS:    8938239	FORWARD:          0	MERGED:          0	TO_CACHE:    8938237

L2C Instructions Evicting Data 0
L2C Translations Evicting Data 3458109
L2C Data Evicting Data 16781556
L2C Instructions Evicting Instructions 0
L2C Translations Evicting Instructions 0
L2C Data Evicting Instructions 0
L2C Instructions Evicting Translations 0
L2C Translations Evicting Translations 718768
L2C Data Evicting Translations 3456952
L2C Dense regions hint from L2: 0
4033f0: 219
4033c9: 13259
4033b5: 19878
4033a0: 258626
4033b9: 3186466
PSCL5 TOTAL     ACCESS:    4822016  HIT:    4822016  MISS:          0  HIT %:        100  MISS %:          0   MPKI: 0
PSCL5 Test counter:          0
PSCL5 LOAD TRANSLATION ACCESS:    4822014  HIT:    4822014  MISS:          0  HIT %:        100  MISS %:          0   MPKI: 0
PSCL5 TRANSLATION FROM L1D PREFETCHER ACCESS:          2  HIT:          2  MISS:          0  HIT %:        100  MISS %:          0   MPKI: 0
PSCL5 PREFETCH  REQUESTED:          0  ISSUED:          0  USEFUL:          0  USELESS:          0
PSCL5 USEFUL LOAD PREFETCHES:          0 PREFETCH ISSUED TO LOWER LEVEL:          0  ACCURACY: -nan
PSCL5 TIMELY PREFETCHES:          0 LATE PREFETCHES: 0 DROPPED PREFETCHES: 0
PSCL5 COMMIT LATE PREFETCHES: 0 MISSED OPPORTUNITY: 0 LATE IN PQ: 0 UNCOVERED: 0
PSCL5 COMMIT LATE MSHR PREFETCHES: 0
PSCL5 MPKI TOTAL: 0 MSHR LATE: 0 PQ LATE: 0 COMMIT LATE: 0 MISSED OPPORTUNITY: 0 UNCOVERED: 0
PSCL5 PREFETCHES SAME FILL-ORIGIN LEVEL: 0 DIFFERENT FILL-ORIGIN LEVEL: 0

PSCL4 TOTAL     ACCESS:    4822016  HIT:    4822016  MISS:          0  HIT %:        100  MISS %:          0   MPKI: 0
PSCL4 Test counter:          0
PSCL4 LOAD TRANSLATION ACCESS:    4822014  HIT:    4822014  MISS:          0  HIT %:        100  MISS %:          0   MPKI: 0
PSCL4 TRANSLATION FROM L1D PREFETCHER ACCESS:          2  HIT:          2  MISS:          0  HIT %:        100  MISS %:          0   MPKI: 0
PSCL4 PREFETCH  REQUESTED:          0  ISSUED:          0  USEFUL:          0  USELESS:          0
PSCL4 USEFUL LOAD PREFETCHES:          0 PREFETCH ISSUED TO LOWER LEVEL:          0  ACCURACY: -nan
PSCL4 TIMELY PREFETCHES:          0 LATE PREFETCHES: 0 DROPPED PREFETCHES: 0
PSCL4 COMMIT LATE PREFETCHES: 0 MISSED OPPORTUNITY: 0 LATE IN PQ: 0 UNCOVERED: 0
PSCL4 COMMIT LATE MSHR PREFETCHES: 0
PSCL4 MPKI TOTAL: 0 MSHR LATE: 0 PQ LATE: 0 COMMIT LATE: 0 MISSED OPPORTUNITY: 0 UNCOVERED: 0
PSCL4 PREFETCHES SAME FILL-ORIGIN LEVEL: 0 DIFFERENT FILL-ORIGIN LEVEL: 0

PSCL3 TOTAL     ACCESS:    4822016  HIT:    4822016  MISS:          0  HIT %:        100  MISS %:          0   MPKI: 0
PSCL3 Test counter:          0
PSCL3 LOAD TRANSLATION ACCESS:    4822014  HIT:    4822014  MISS:          0  HIT %:        100  MISS %:          0   MPKI: 0
PSCL3 TRANSLATION FROM L1D PREFETCHER ACCESS:          2  HIT:          2  MISS:          0  HIT %:        100  MISS %:          0   MPKI: 0
PSCL3 PREFETCH  REQUESTED:          0  ISSUED:          0  USEFUL:          0  USELESS:          0
PSCL3 USEFUL LOAD PREFETCHES:          0 PREFETCH ISSUED TO LOWER LEVEL:          0  ACCURACY: -nan
PSCL3 TIMELY PREFETCHES:          0 LATE PREFETCHES: 0 DROPPED PREFETCHES: 0
PSCL3 COMMIT LATE PREFETCHES: 0 MISSED OPPORTUNITY: 0 LATE IN PQ: 0 UNCOVERED: 0
PSCL3 COMMIT LATE MSHR PREFETCHES: 0
PSCL3 MPKI TOTAL: 0 MSHR LATE: 0 PQ LATE: 0 COMMIT LATE: 0 MISSED OPPORTUNITY: 0 UNCOVERED: 0
PSCL3 PREFETCHES SAME FILL-ORIGIN LEVEL: 0 DIFFERENT FILL-ORIGIN LEVEL: 0

PSCL2 TOTAL     ACCESS:    4822015  HIT:    2738679  MISS:    2083336  HIT %:    56.7953  MISS %:    43.2047   MPKI: 10.4167
PSCL2 Test counter:          0
PSCL2 LOAD TRANSLATION ACCESS:    4822015  HIT:    2738679  MISS:    2083336  HIT %:    56.7953  MISS %:    43.2047   MPKI: 10.4167
PSCL2 PREFETCH  REQUESTED:          0  ISSUED:          0  USEFUL:          0  USELESS:          0
PSCL2 USEFUL LOAD PREFETCHES:          0 PREFETCH ISSUED TO LOWER LEVEL:          0  ACCURACY: -nan
PSCL2 TIMELY PREFETCHES:          0 LATE PREFETCHES: 0 DROPPED PREFETCHES: 0
PSCL2 COMMIT LATE PREFETCHES: 0 MISSED OPPORTUNITY: 0 LATE IN PQ: 0 UNCOVERED: 0
PSCL2 COMMIT LATE MSHR PREFETCHES: 0
PSCL2 MPKI TOTAL: 0 MSHR LATE: 0 PQ LATE: 0 COMMIT LATE: 0 MISSED OPPORTUNITY: 0 UNCOVERED: 0
PSCL2 PREFETCHES SAME FILL-ORIGIN LEVEL: 0 DIFFERENT FILL-ORIGIN LEVEL: 0

LLC TOTAL     ACCESS:   41448677  HIT:   22066386  MISS:   19382291  HIT %:    53.2379  MISS %:    46.7621   MPKI: 96.9115
LLC Test counter:          0
LLC LOAD      ACCESS:    3478410  HIT:    2101719  MISS:    1376691  HIT %:    60.4218  MISS %:    39.5782   MPKI: 6.88345
LLC RFO       ACCESS:    8745700  HIT:      42852  MISS:    8702848  HIT %:   0.489978  MISS %:      99.51   MPKI: 43.5142
LLC PREFETCH  ACCESS:    8014355  HIT:    1972839  MISS:    6041516  HIT %:    24.6163  MISS %:    75.3837   MPKI: 30.2076
LLC WRITEBACK ACCESS:   17033335  HIT:   17019226  MISS:      14109  HIT %:    99.9172  MISS %:  0.0828317   MPKI: 0.070545
LLC LOAD TRANSLATION ACCESS:    4176875  HIT:     929750  MISS:    3247125  HIT %:    22.2595  MISS %:    77.7405   MPKI: 16.2356
LLC TRANSLATION FROM L1D PREFETCHER ACCESS:          2  HIT:          0  MISS:          2  HIT %:          0  MISS %:        100   MPKI: 1e-05
LLC PREFETCH  REQUESTED:          0  ISSUED:          0  USEFUL:      97927  USELESS:    5943670
LLC USEFUL LOAD PREFETCHES:      97927 PREFETCH ISSUED TO LOWER LEVEL:    6041516  ACCURACY: 1.6209
LLC TIMELY PREFETCHES:      97927 LATE PREFETCHES: 0 DROPPED PREFETCHES: 0
LLC COMMIT LATE PREFETCHES: 0 MISSED OPPORTUNITY: 0 LATE IN PQ: 0 UNCOVERED: 0
LLC COMMIT LATE MSHR PREFETCHES: 0
LLC MPKI TOTAL: 6.88345 MSHR LATE: 0 PQ LATE: 0 COMMIT LATE: 0 MISSED OPPORTUNITY: 0 UNCOVERED: 0
LLC PREFETCHES SAME FILL-ORIGIN LEVEL: 0 DIFFERENT FILL-ORIGIN LEVEL: 0
LLC AVERAGE MISS LATENCY: 323.636 cycles
LLC AVERAGE MISS LATENCY LOAD: 340.317 cycles
LLC AVERAGE MISS LATENCY PREFETCH: 332.127 cycles
LLC AVERAGE MSHR OCCUPANCY: 3.7247
LLC MSHR FULL: 0
LLC RQ	ACCESS:   16401026	FORWARD:          0	MERGED:          0	TO_CACHE:   16400988
LLC WQ	ACCESS:   17033335	FORWARD:         43	MERGED:          0	TO_CACHE:   17033335
LLC PQ	ACCESS:    8014360	FORWARD:          0	MERGED:          0	TO_CACHE:    8014355

LLC Dense regions hint to LLC: 0
4033f0: 219
4033c9: 8666
4033b5: 19878
4033a0: 258626
4033b9: 1089302

RAW hits: 4988755
Loads Generated: 83093059
Loads sent to L1D: 78104305
Stores Generated: 69973106
Stores sent to L1D: 69973103
Major fault: 0 Minor fault: 318411
Allocated PAGES: 318411
Total Load insts: 97347806
Total Non-spec loads: 40415651
Percentage of speculative loads: 58.4832
L1D response latency: 143.076 cycles
Load retirement latency: 529.763 cycles


stream: 
stream:times selected: 28718042
stream:pref_filled: 4950695
stream:pref_useful: 115504
stream:pref_late: 30049
stream:misses: 786389
stream:misses_by_poll: 0

CS: 
CS:times selected: 15590984
CS:pref_filled: 4633309
CS:pref_useful: 4621895
CS:pref_late: 1045454
CS:misses: 1501075
CS:misses_by_poll: 23925

CPLX: 
CPLX:times selected: 13065673
CPLX:pref_filled: 537335
CPLX:pref_useful: 131163
CPLX:pref_late: 5974
CPLX:misses: 4703934
CPLX:misses_by_poll: 1504

NL_L1: 
NL:times selected: 89992
NL:pref_filled: 19480
NL:pref_useful: 2336
NL:pref_late: 420
NL:misses: 30733
NL:misses_by_poll: 3

total selections: 57464691
total_filled: 7846757
total_useful: 3660002
total_late: 1095423
total_polluted: 25432
total_misses_after_warmup: 5922752
conflicts: 0
Degree Incremented Times: 290713
Degree Decremented Times: 872029

L1 IP Table Write Accesses: 59142855
L1 IP Table Read Accesses: 59142855
L1 RST Write Accesses: 23093780
L1 RST Read Accesses: 46187560
L1 CSPT Write Accesses: 23093780
L1 CSPT Read Accesses: 33747688
L1 RR Filter Tag Write Accesses: 10603984
L1 RR Filter Tag Read Accesses: 1653508311
L1 IP Table Tag Write Accesses: 59142855
L1 IP Table Tag Read Accesses: 59142855
L1 RST Tag Write Accesses: 0
L1 RST Tag Read Accesses: 207580750
L1 RR Filter Write Accesses: 0
L1 RR Filter Read Accesses: 62162752
test: 5525603

DRAM Statistics
 CHANNEL 0
 RQ ROW_BUFFER_HIT:     126034  ROW_BUFFER_MISS:   19238303
 DBUS_CONGESTED:         31
 WQ ROW_BUFFER_HIT:    2450649  ROW_BUFFER_MISS:   12414628  FULL:          0

 AVG_CONGESTED_CYCLE: 5
 All warmup complete: 2
Channel 0 Bank busy for read cycles: 0
Channel 0 Bank busy for write cycles: 0
Channel 0
Rank 0
0banks busy for read cycles: 1323230
0banks busy for write cycles: 8
1banks busy for read cycles: 103024389
1banks busy for write cycles: 2159947
2banks busy for read cycles: 144754780
2banks busy for write cycles: 2165050
3banks busy for read cycles: 222221577
3banks busy for write cycles: 2218751
4banks busy for read cycles: 167113806
4banks busy for write cycles: 3833972
5banks busy for read cycles: 121899531
5banks busy for write cycles: 8046616
6banks busy for read cycles: 73107711
6banks busy for write cycles: 20417155
7banks busy for read cycles: 34139617
7banks busy for write cycles: 81612748
8banks busy for read cycles: 9386741
8banks busy for write cycles: 303232824

CPU 0 Branch Prediction Accuracy: 95.2594% MPKI: 5.89095 Average ROB Occupancy at Mispredict: 114.84
Branch types
NOT_BRANCH: 175146304 87.5732%
BRANCH_DIRECT_JUMP: 2986815 1.49341%
BRANCH_INDIRECT: 0 0%
BRANCH_CONDITIONAL: 13119937 6.55997%
BRANCH_DIRECT_CALL: 4373312 2.18666%
BRANCH_INDIRECT_CALL: 0 0%
BRANCH_RETURN: 4373312 2.18666%
BRANCH_OTHER: 0 0%

DRAM PAGES: 1048576
Allocated PAGES: 318411
