
*** ChampSim Multicore Out-of-Order Simulator ***

Warmup Instructions: 50000000
Simulation Instructions: 200000000
Number of CPUs: 1
LLC sets: 2048
LLC ways: 16
Secure Berti: OFF
Berti: OFF
Berti Fill: OFF
On commit prefetching: OFF
L2 LLC Bypass speculative loads: OFF
Off-chip DRAM Size: 4096 MB Channels: 1 Width: 64-bit Data Rate: 6400 MT/s
CPU 0 runs /home/sumon/secure_berti/Berti_Baseline/../../traces/spec/607.cactuBSSN_s-4004B.champsimtrace.xz
.xz
BTB has LRU replacement policy
ITLB has LRU replacement policy
DTLB has LRU replacement policy
STLB has LRU replacement policy
L1I has LRU replacement policy
IP Table Entries: 1024
CSPT Entries: 128
RR_ENTRIES: 32
RST_ENTRIES: 8
L1D has LRU replacement policy
L2C has LRU replacement policy
LLC has LRU replacement policy
Heartbeat CPU 0 instructions: 10000001 cycles: 3597170 heartbeat IPC: 2.77996 cumulative IPC: 2.77996 (Simulation time: 0 hr 0 min 34 sec) 
Heartbeat CPU 0 instructions: 20000001 cycles: 7194765 heartbeat IPC: 2.77963 cumulative IPC: 2.7798 (Simulation time: 0 hr 1 min 7 sec) 
Heartbeat CPU 0 instructions: 30000003 cycles: 10791894 heartbeat IPC: 2.78 cumulative IPC: 2.77986 (Simulation time: 0 hr 1 min 40 sec) 
Heartbeat CPU 0 instructions: 40000000 cycles: 14389719 heartbeat IPC: 2.77946 cumulative IPC: 2.77976 (Simulation time: 0 hr 2 min 14 sec) 
Heartbeat CPU 0 instructions: 50000002 cycles: 17985770 heartbeat IPC: 2.78083 cumulative IPC: 2.77998 (Simulation time: 0 hr 2 min 48 sec) 

Warmup complete CPU 0 instructions: 50000002 cycles: 17985770 (Simulation time: 0 hr 2 min 48 sec) 

Heartbeat CPU 0 instructions: 60000002 cycles: 29249550 heartbeat IPC: 0.887801 cumulative IPC: 0.887801 (Simulation time: 0 hr 3 min 15 sec) 
Heartbeat CPU 0 instructions: 70000003 cycles: 40465894 heartbeat IPC: 0.891556 cumulative IPC: 0.889675 (Simulation time: 0 hr 3 min 41 sec) 
Heartbeat CPU 0 instructions: 80000002 cycles: 51824939 heartbeat IPC: 0.880356 cumulative IPC: 0.886547 (Simulation time: 0 hr 4 min 8 sec) 
Heartbeat CPU 0 instructions: 90000003 cycles: 63051534 heartbeat IPC: 0.890742 cumulative IPC: 0.887592 (Simulation time: 0 hr 4 min 35 sec) 
Heartbeat CPU 0 instructions: 100000000 cycles: 74275585 heartbeat IPC: 0.890944 cumulative IPC: 0.88826 (Simulation time: 0 hr 5 min 1 sec) 
Heartbeat CPU 0 instructions: 110000000 cycles: 85528843 heartbeat IPC: 0.888632 cumulative IPC: 0.888322 (Simulation time: 0 hr 5 min 29 sec) 
Heartbeat CPU 0 instructions: 120000001 cycles: 96753512 heartbeat IPC: 0.890895 cumulative IPC: 0.888689 (Simulation time: 0 hr 5 min 55 sec) 
Heartbeat CPU 0 instructions: 130000000 cycles: 107972599 heartbeat IPC: 0.891338 cumulative IPC: 0.889019 (Simulation time: 0 hr 6 min 22 sec) 
Heartbeat CPU 0 instructions: 140000002 cycles: 119237718 heartbeat IPC: 0.887696 cumulative IPC: 0.888872 (Simulation time: 0 hr 6 min 49 sec) 
Heartbeat CPU 0 instructions: 150000002 cycles: 130476930 heartbeat IPC: 0.889742 cumulative IPC: 0.888959 (Simulation time: 0 hr 7 min 16 sec) 
Heartbeat CPU 0 instructions: 160000002 cycles: 141722672 heartbeat IPC: 0.889225 cumulative IPC: 0.888983 (Simulation time: 0 hr 7 min 43 sec) 
Heartbeat CPU 0 instructions: 170000000 cycles: 152938390 heartbeat IPC: 0.891606 cumulative IPC: 0.889201 (Simulation time: 0 hr 8 min 10 sec) 
Heartbeat CPU 0 instructions: 180000001 cycles: 164186761 heartbeat IPC: 0.889018 cumulative IPC: 0.889187 (Simulation time: 0 hr 8 min 37 sec) 
Heartbeat CPU 0 instructions: 190000002 cycles: 175427623 heartbeat IPC: 0.889612 cumulative IPC: 0.889217 (Simulation time: 0 hr 9 min 4 sec) 
Heartbeat CPU 0 instructions: 200000003 cycles: 186656717 heartbeat IPC: 0.890544 cumulative IPC: 0.889305 (Simulation time: 0 hr 9 min 30 sec) 
Heartbeat CPU 0 instructions: 210000001 cycles: 197896342 heartbeat IPC: 0.889709 cumulative IPC: 0.889331 (Simulation time: 0 hr 9 min 56 sec) 
Heartbeat CPU 0 instructions: 220000000 cycles: 209124041 heartbeat IPC: 0.890654 cumulative IPC: 0.889408 (Simulation time: 0 hr 10 min 21 sec) 
Heartbeat CPU 0 instructions: 230000000 cycles: 220355612 heartbeat IPC: 0.890347 cumulative IPC: 0.889461 (Simulation time: 0 hr 10 min 47 sec) 
Heartbeat CPU 0 instructions: 240000001 cycles: 231706724 heartbeat IPC: 0.880971 cumulative IPC: 0.88901 (Simulation time: 0 hr 11 min 13 sec) 
Heartbeat CPU 0 instructions: 250000000 cycles: 242950284 heartbeat IPC: 0.889398 cumulative IPC: 0.889029 (Simulation time: 0 hr 11 min 39 sec) 
Finished CPU 0 instructions: 200000002 cycles: 224964515 cumulative IPC: 0.889029 (Simulation time: 0 hr 11 min 39 sec) 

ChampSim completed all CPUs

Region of Interest Statistics

CPU 0 cumulative IPC: 0.889029 instructions: 200000002 cycles: 224964515
ITLB TOTAL     ACCESS:   27907650  HIT:   27907650  MISS:          0  HIT %:        100  MISS %:          0   MPKI: 0
ITLB Test counter:          0
ITLB LOAD TRANSLATION ACCESS:   27907650  HIT:   27907650  MISS:          0  HIT %:        100  MISS %:          0   MPKI: 0
ITLB PREFETCH  REQUESTED:          0  ISSUED:          0  USEFUL:          0  USELESS:          0
ITLB USEFUL LOAD PREFETCHES:          0 PREFETCH ISSUED TO LOWER LEVEL:          0  ACCURACY: -nan
ITLB TIMELY PREFETCHES:          0 LATE PREFETCHES: 0 DROPPED PREFETCHES: 0
ITLB COMMIT LATE PREFETCHES: 0 MISSED OPPORTUNITY: 0 LATE IN PQ: 0 UNCOVERED: 0
ITLB COMMIT LATE MSHR PREFETCHES: 0
ITLB MPKI TOTAL: 0 MSHR LATE: 0 PQ LATE: 0 COMMIT LATE: 0 MISSED OPPORTUNITY: 0 UNCOVERED: 0
ITLB PREFETCHES SAME FILL-ORIGIN LEVEL: 0 DIFFERENT FILL-ORIGIN LEVEL: 0
ITLB AVERAGE MISS LATENCY: -nan cycles
ITLB AVERAGE MISS LATENCY LOAD: -nan cycles
ITLB AVERAGE MISS LATENCY PREFETCH: -nan cycles
ITLB AVERAGE MSHR OCCUPANCY: 0
ITLB MSHR FULL: 0
ITLB RQ	ACCESS:   33918308	FORWARD:          0	MERGED:    6010658	TO_CACHE:   27907650

DTLB TOTAL     ACCESS:   56749158  HIT:   49019211  MISS:    7729947  HIT %:    86.3787  MISS %:    13.6213   MPKI: 38.6497
DTLB Test counter:          0
DTLB LOAD TRANSLATION ACCESS:   56749158  HIT:   49019211  MISS:    7729947  HIT %:    86.3787  MISS %:    13.6213   MPKI: 38.6497
DTLB PREFETCH  REQUESTED:          0  ISSUED:          0  USEFUL:          0  USELESS:          0
DTLB USEFUL LOAD PREFETCHES:          0 PREFETCH ISSUED TO LOWER LEVEL:          0  ACCURACY: -nan
DTLB TIMELY PREFETCHES:          0 LATE PREFETCHES: 0 DROPPED PREFETCHES: 0
DTLB COMMIT LATE PREFETCHES: 0 MISSED OPPORTUNITY: 0 LATE IN PQ: 0 UNCOVERED: 0
DTLB COMMIT LATE MSHR PREFETCHES: 0
DTLB MPKI TOTAL: 0 MSHR LATE: 0 PQ LATE: 0 COMMIT LATE: 0 MISSED OPPORTUNITY: 0 UNCOVERED: 0
DTLB PREFETCHES SAME FILL-ORIGIN LEVEL: 0 DIFFERENT FILL-ORIGIN LEVEL: 0
DTLB AVERAGE MISS LATENCY: 9.9237 cycles
DTLB AVERAGE MISS LATENCY LOAD: -nan cycles
DTLB AVERAGE MISS LATENCY PREFETCH: -nan cycles
DTLB AVERAGE MSHR OCCUPANCY: 0.905691
DTLB MSHR FULL: 0.0306414
DTLB RQ	ACCESS:   79315879	FORWARD:          0	MERGED:   21707307	TO_CACHE:   57608572

STLB TOTAL     ACCESS:    8931317  HIT:    8922801  MISS:       8516  HIT %:    99.9047  MISS %:  0.0953499   MPKI: 0.04258
STLB Test counter:          0
STLB LOAD TRANSLATION ACCESS:    7729947  HIT:    7721431  MISS:       8516  HIT %:    99.8898  MISS %:   0.110169   MPKI: 0.04258
STLB TRANSLATION FROM L1D PREFETCHER ACCESS:    1201370  HIT:    1201370  MISS:          0  HIT %:        100  MISS %:          0   MPKI: 0
STLB PREFETCH  REQUESTED:          0  ISSUED:          0  USEFUL:          0  USELESS:          0
STLB USEFUL LOAD PREFETCHES:          0 PREFETCH ISSUED TO LOWER LEVEL:          0  ACCURACY: -nan
STLB TIMELY PREFETCHES:          0 LATE PREFETCHES: 0 DROPPED PREFETCHES: 0
STLB COMMIT LATE PREFETCHES: 0 MISSED OPPORTUNITY: 0 LATE IN PQ: 0 UNCOVERED: 0
STLB COMMIT LATE MSHR PREFETCHES: 0
STLB MPKI TOTAL: 0 MSHR LATE: 0 PQ LATE: 0 COMMIT LATE: 0 MISSED OPPORTUNITY: 0 UNCOVERED: 0
STLB PREFETCHES SAME FILL-ORIGIN LEVEL: 0 DIFFERENT FILL-ORIGIN LEVEL: 0
STLB AVERAGE MISS LATENCY: 533.817 cycles
STLB AVERAGE MISS LATENCY LOAD: -nan cycles
STLB AVERAGE MISS LATENCY PREFETCH: -nan cycles
STLB AVERAGE MSHR OCCUPANCY: 0.012705
STLB MSHR FULL: 0
STLB RQ	ACCESS:    9009544	FORWARD:          0	MERGED:      78227	TO_CACHE:    8931317

STLB Hit, L1D data hit: 0
STLB Hit, L2C data hit: 0
STLB Hit, LLC data hit: 0
STLB Hit, LLC data miss: 0
STLB STLB hints to L2: 0
L1D TOTAL     ACCESS:   80173996  HIT:   64118080  MISS:   16055916  HIT %:    79.9737  MISS %:    20.0263   MPKI: 80.2796
L1D Test counter:          0
L1D LOAD      ACCESS:   62874930  HIT:   49082383  MISS:   14130686  HIT %:    78.0635  MISS %:    21.9365   MPKI: 68.9627
L1D RFO       ACCESS:   16028636  HIT:   14799275  MISS:    1229361  HIT %:    92.3302  MISS %:    7.66978   MPKI: 6.1468
L1D PREFETCH  ACCESS:    1270430  HIT:     236422  MISS:    1034008  HIT %:    18.6096  MISS %:    81.3904   MPKI: 5.17004
L1D PREFETCH  REQUESTED:    2559219  ISSUED:    2559194  USEFUL:      34503  USELESS:     999503
L1D USEFUL LOAD PREFETCHES:      34503 PREFETCH ISSUED TO LOWER LEVEL:    1035074  ACCURACY: 3.33338
L1D TIMELY PREFETCHES:      34503 LATE PREFETCHES: 1066 DROPPED PREFETCHES: 0
L1D COMMIT LATE PREFETCHES: 0 MISSED OPPORTUNITY: 0 LATE IN PQ: 7285 UNCOVERED: 0
L1D COMMIT LATE MSHR PREFETCHES: 0
L1D MPKI TOTAL: 70.6534 MSHR LATE: 0.00533 PQ LATE: 0.036425 COMMIT LATE: 0 MISSED OPPORTUNITY: 0 UNCOVERED: 0
L1D PREFETCHES SAME FILL-ORIGIN LEVEL: 1035074 DIFFERENT FILL-ORIGIN LEVEL: 0
L1D AVERAGE MISS LATENCY: 27.5655 cycles
L1D AVERAGE MISS LATENCY LOAD: 19.7754 cycles
L1D AVERAGE MISS LATENCY PREFETCH: 64.8304 cycles
L1D AVERAGE MSHR OCCUPANCY: 4.19627
L1D MSHR FULL: 0.134383
L1D RQ	ACCESS:   77866658	FORWARD:          0	MERGED:   14611417	TO_CACHE:   63213068
L1D WQ	ACCESS:   16211860	FORWARD:      42173	MERGED:     109049	TO_CACHE:   16102811
L1D PQ	ACCESS:    1279597	FORWARD:          0	MERGED:          0	TO_CACHE:    1279597

L1D UNIQUE REGIONS ACCESSED: 0
L1D REGIONS CONFLICTS: 0
L1D Cross Page Prefetch Requests: 0
L1D Same Page Prefetch Requests: 1598508
L1D ROI Sum of L1D PQ occupancy: 21934761
L1D PREFETCHES PUSHED FROM L2C: 0
8bbcd1: 1
8bbb98: 1
8d4257: 1
8d4316: 1
8bd947: 1
8bbae8: 1
8d424f: 1
8bbbf4: 1
8bbbaf: 1
8bbb06: 2
8d427b: 2
8d429f: 2
8d4265: 3
8d42f5: 3
8d42ee: 3
8d42db: 3
8bbb44: 3
8bbae0: 4
8d42ad: 4
8bd207: 5
8bf56b: 5
8bbd43: 5
8bd091: 6
8bbd29: 6
8bda33: 7
8d4291: 8
8d426d: 9
8bd07b: 10
8bd760: 11
8bf708: 12
8d4283: 13
8bbcf7: 15
8d42be: 26
8d42cd: 38
8bd838: 48
8bf727: 65
8bbdec: 70
8bdb82: 78
8d2790: 104
8bf6ed: 126
8bd169: 127
8bd13a: 135
8bbd0e: 231
8be88b: 260
8bd051: 262
8bef43: 263
8bf290: 281
8be513: 301
8be1b8: 303
8bcff1: 335
8bdafc: 347
8d42c5: 353
8bbc22: 369
8bebc4: 380
8bbb6a: 416
8d1504: 423
8bde49: 427
8bd77c: 432
8d153e: 437
8bbb30: 443
8bbbc6: 447
8bdc1e: 512
8bbd64: 523
8bbcac: 527
8bfa0b: 552
8bbcba: 562
8bdf9c: 612
8bbe36: 631
8bd09b: 633
8bd1f7: 637
8bcfd6: 653
8bdd68: 658
8bd0c9: 660
8bf06c: 688
8bcfab: 793
8bf994: 895
8bf3db: 964
8bed2c: 973
8bf10d: 992
8bd134: 1036
8bf471: 1058
8be378: 1101
8bd172: 1149
8bd0a9: 1168
8bd185: 1208
8bdcaf: 1227
8bea55: 1227
8bd8ba: 1288
8be9b9: 1337
8be679: 1351
8be713: 1382
8be046: 1384
8be2d7: 1387
8bedde: 1406
8bd43a: 1456
8bd971: 1461
8bdf03: 1464
8bd230: 1474
8bd54a: 1542
8bd201: 1649
8bd557: 1721
8bd20f: 1750
8be0ff: 1797
a1cece: 1891
8be245: 2017
8bd30a: 2044
8bdd14: 2058
8bd661: 2058
8bf4ce: 2058
8bd9df: 2058
8be3df: 2058
8beaa7: 2058
8be0ab: 2058
8bf16a: 2058
8bee3b: 2058
8be76f: 2058
8bf262: 2060
8be3a7: 2060
8bf13c: 2064
8bd9a9: 2065
8be075: 2065
8bd62b: 2066
8bebd1: 2072
8bebe5: 2072
8bee05: 2075
8be1c6: 2077
8be520: 2079
8bf296: 2079
8be534: 2079
8be1da: 2080
8bdb16: 2080
8bd789: 2080
8bef65: 2080
8be8ac: 2080
8bef50: 2080
8bdb01: 2080
8bde57: 2080
8bd102: 2080
8be898: 2080
8bde6b: 2080
8bd117: 2080
8bd45c: 2080
8bf2ab: 2080
8bd447: 2080
8bd79e: 2080
8bdcde: 2091
8bf4a0: 2107
8bd2e5: 2191
8bea78: 2204
8bf64e: 2286
8bef0d: 2291
8be18e: 2321
8bde12: 2359
8bd0f5: 2367
8bd69a: 2417
8bd4ef: 2499
8bdbac: 2548
8bdff2: 2624
8beb97: 2648
8bd47a: 2768
8bf42c: 2802
8bec3b: 2823
8bd7f5: 2985
8bd2f7: 3034
8be674: 3185
8be328: 3223
8bea0a: 3273
8bed8a: 3276
8bd40c: 3298
8be4de: 3341
8be73e: 3369
8be6d3: 3438
8bf301: 3478
8be856: 3481
8be64f: 3496
8bd926: 3536
8bed02: 3581
8bf3b1: 3589
8bd285: 3643
8bd5c4: 3670
8bdac7: 3819
8be98f: 3828
8be2ba: 3850
8be93f: 3871
8be58d: 3873
8beffd: 3875
8be26e: 3877
8bf8e4: 3911
8bf910: 3914
8bfb29: 3948
8beb7b: 3963
8bd0ce: 3975
8bea87: 4010
8bf247: 4019
8beef2: 4022
8bf042: 4033
8be836: 4033
8bd107: 4053
8bd7ba: 4071
8be4c3: 4074
8bddf7: 4075
8be178: 4075
8bf93c: 4095
8bdcf4: 4104
8bdaac: 4108
8bd72c: 4116
8bd3f1: 4121
8bdbfa: 4174
8bebd6: 4179
8bcfa6: 4218
8bd1f2: 4221
8be8c4: 4231
8be551: 4232
8bef7d: 4232
8bebfe: 4234
8bde83: 4234
8bf2c4: 4249
8bd53b: 4271
8be1f2: 4274
8bdb2e: 4274
8bd1fc: 4341
8be9b4: 4348
8bd0b9: 4397
8bdf7e: 4404
8be4f2: 4404
8bf26e: 4429
8bf3d6: 4442
8bdc19: 4462
8bed27: 4471
8bd52d: 4471
8bd8b5: 4472
8bd8a5: 4474
8bd545: 4477
8bd5a9: 4482
8becf4: 4484
8bdc4f: 4485
8be037: 4485
8bd42e: 4486
8bf3a3: 4486
8bdfd7: 4486
8bd08a: 4486
8bdca0: 4486
8bf03c: 4487
8bd8ab: 4487
8bea4e: 4488
8bddcd: 4488
8be2ac: 4488
8bf067: 4488
8bd3ec: 4488
8bf229: 4488
8bf462: 4488
8be30d: 4488
8bd90a: 4488
8bedcf: 4488
8be369: 4488
8be704: 4488
8beedb: 4489
8be641: 4489
8bd70a: 4489
8bf411: 4489
8bd550: 4489
8bf0fe: 4489
8be4a5: 4489
8bed6e: 4489
8bdf97: 4489
8beb75: 4489
8be80c: 4489
8bdbec: 4489
8be6b8: 4489
8bd716: 4489
8bf0b7: 4489
8bd3cc: 4489
8be9ef: 4489
8bda82: 4489
8beecf: 4489
8bdf70: 4489
8bd060: 4489
8bf0ab: 4489
8bf242: 4489
8beb63: 4489
8bd962: 4489
8bd3d8: 4489
8beb57: 4489
8be818: 4489
8bd269: 4489
8bd096: 4489
8bddd9: 4489
8bd1e4: 4489
8be49e: 4489
8be150: 4489
8be831: 4489
8bd727: 4489
8bf21d: 4489
8be981: 4489
8bdc5b: 4489
8bd075: 4489
8be157: 4489
8beeec: 4489
8bda8e: 4489
8befd3: 4507
8bd0b1: 4546
8beba3: 4555
8bd463: 4566
8bde72: 4573
8bd44c: 4581
8bf633: 4582
8bebec: 4584
8bf193: 4585
8bf550: 4587
8be697: 4588
8bdec2: 4588
8be55c: 4588
8bf5a9: 4591
8bf6b7: 4591
8bde27: 4591
8be525: 4592
8bf2b2: 4593
8bec09: 4594
8bef56: 4594
8bf644: 4594
8bf678: 4594
8bd676: 4595
8be53b: 4595
8bde18: 4595
8bea20: 4596
8bdb9d: 4596
8be4e3: 4596
8beb9c: 4596
8beab8: 4597
8bf29c: 4597
8bf561: 4597
8beda1: 4597
8be25f: 4597
8bdb07: 4597
8bf43b: 4598
8bd7c4: 4598
8bd9f4: 4598
8bd11e: 4598
8be86a: 4598
8bd78f: 4598
8bee50: 4598
8bd29e: 4598
8bf4e3: 4598
8be8b3: 4598
8be1cb: 4598
8bd75b: 4598
8bd4e0: 4598
8be89d: 4598
8bf2cf: 4598
8be85b: 4598
8bd31b: 4598
8be19b: 4598
8bdadb: 4598
8be1e1: 4598
8be33e: 4598
8be785: 4598
8be3f4: 4598
8bdd29: 4598
8be930: 4598
8bdc72: 4598
8bf17f: 4598
8bf598: 4598
8bdb1d: 4598
8bd420: 4598
8be008: 4598
8bd93d: 4598
8bde8d: 4598
8befee: 4598
8bd0e2: 4598
8be6e1: 4598
8be0c0: 4598
8bef6c: 4598
8bd5da: 4598
8bf0cf: 4598
8bef21: 4598
8bde5c: 4598
8bd7a5: 4598
8bdd3d: 4599
8bd411: 4599
8bef12: 4599
8be194: 4599
8bd74c: 4599
8bf267: 4599
8bd0d3: 4599
8bf689: 4599
8bdacc: 4599
8bd959: 4600
8bf808: 4620
8bf77b: 4651
8bee7c: 4658
8be025: 4678
8be915: 4769
8beaf0: 4769
8bf765: 4790
8bd026: 4801
8bd5ef: 4817
8bf81e: 4829
8be4be: 4834
8be756: 4840
8bd33f: 4852
8bd2b8: 4863
8bd747: 4894
8bdc8e: 4911
8be0ec: 4979
8bd641: 5004
8bdaa7: 5009
8be173: 5021
8bee8f: 5037
8bf0ec: 5054
8be2d2: 5068
8bda1c: 5094
8bd1c8: 5113
8bddf2: 5114
8be3be: 5159
8be7b2: 5173
8be356: 5221
8bd9bf: 5233
8bd889: 5237
8bea3c: 5260
8beadd: 5334
8bdd55: 5342
8bd686: 5418
8bf34c: 5419
8bd32b: 5436
8be420: 5460
8bf510: 5495
8bf450: 5499
8bedbd: 5507
8bda08: 5550
8bf1a3: 5565
8bf4b6: 5569
8bee1b: 5574
8be6f1: 5592
8be799: 5633
8bd511: 5790
8bee64: 5808
8beacc: 5815
8bf14a: 5859
8be408: 5865
8be08b: 5934
8bf7f2: 6079
8bdbce: 6109
8bf4f7: 6286
8be0d4: 6464
8be965: 6489
8bf791: 6566
8be623: 6624
8becd8: 7316
8cff36: 7539
8be290: 7601
8bdf52: 7605
8bd485: 7614
8bf01e: 7676
8bf387: 7734
8bf75c: 7975
8d40f4: 8119
8d4020: 8152
8d41bd: 8162
9e6f9a: 8322
8d4168: 8354
8bd147: 8761
8bf201: 8781
8befc4: 8814
8bcfe4: 8913
8bf665: 8914
8bf61f: 8923
8bf585: 8941
8bf53c: 8952
8bddb2: 8978
8beb3b: 8978
8bd6ef: 8978
8be906: 8978
8be482: 8978
8bdb75: 8978
8be235: 8978
8bd4bf: 8978
8bf2eb: 9872
8bef94: 10034
8bf6ff: 10365
8bd03a: 10550
400640: 10552
8bf7d3: 10554
8d38e4: 10556
8d1891: 10574
8cff99: 10584
8d1547: 10600
a1ce6e: 10600
8d155e: 10602
8bec25: 10610
8d3f58: 10611
8d19be: 10611
8d26c0: 10619
a1ce3d: 10639
4005d0: 10643
8bfb6a: 10654
a1ce45: 10667
8cf1f0: 10669
8d00bf: 10691
8d01a8: 10695
8d4120: 10711
8bf73d: 10718
8bbe3e: 10719
8be573: 10815
8bf71e: 10830
8d2343: 10894
8be8db: 10926
8bd7e0: 11264
8bdea8: 11301
8be209: 11326
8bdb45: 11381
a1cee4: 23927
a1cef9: 25876
8bf4c9: 26682
8bf496: 27009
8bf47e: 28266
8bf165: 28478
8bf3e6: 28554
8bf132: 28614
8bf077: 28620
8bd243: 28621
8bed37: 28622
8be684: 28623
8be9c4: 28623
8be2e2: 28624
8bdc29: 28624
8bdfa7: 28625
8bd8e4: 28625
8bd583: 28627
8bedfb: 28646
8bea6e: 28647
8be739: 28647
8be39d: 28648
8be06b: 28649
8bdcd4: 28649
8be769: 28650
8bf488: 28650
8be3d9: 28651
8bd99f: 28651
8bee36: 28651
8bd621: 28651
8be0a6: 28652
8beaa2: 28653
8bd2db: 28654
8bdd0f: 28655
8bf11a: 28655
8bede3: 28656
8bea5a: 28656
8be720: 28656
8be385: 28658
8bd9da: 28660
8be053: 28660
8bdcbc: 28661
8bd65c: 28664
8bd987: 28664
8bd609: 28667
8bd2c5: 28668
8bd305: 28675
8bf3f0: 28702
8bf081: 28705
8bf124: 28809
8bed41: 29002
8beded: 29508
8bea5f: 29793
8bd24d: 30140
8be72a: 30157
8bd2d0: 30830
8be9ce: 31013
8bd8ee: 31052
8be38f: 31067
8bd58d: 31088
8bd991: 31095
8be05d: 31108
8bdcc6: 31130
8bd613: 31135
8be2ec: 31159
8bdc2e: 31166
8bdfb1: 31187
8be68e: 31187
8bbc7f: 32410
8bee16: 32616
8bea81: 32770
8bbc6c: 32975
8be750: 33063
8bf4b1: 33206
8bf145: 33228
8bcff9: 33616
8bd142: 33664
8bd006: 33687
8bd480: 33705
8bdea3: 33755
8bf1f7: 33807
8beebc: 33808
8beb31: 33817
8be7f9: 33817
8bd3a7: 33819
8be477: 33821
8bdda7: 33823
8bd6e4: 33825
8bda6f: 33826
8be13d: 33826
8bdb40: 33829
8bd7db: 33831
8bd3a2: 33982
8bbc66: 33984
8bead7: 34225
8be7ac: 34242
8be41b: 34254
8be3b9: 34297
8bd2f2: 34329
8bd63c: 34523
8bf50a: 34526
8bd9ba: 34545
8be086: 34570
8bdcef: 34584
8bf1e0: 34603
8bf19e: 34639
8bee77: 34665
8be204: 34716
8be0e7: 34889
8bda17: 34894
8befbb: 34938
8bdd50: 34938
8bd695: 35106
8bd33a: 35295
8bf60f: 35306
8bf52c: 35584
8be87f: 35724
8bd770: 35724
8bdd7e: 35724
8bdaf0: 35725
8be507: 35727
8bef37: 35728
8bde3d: 35729
8bebb8: 35729
8be1b1: 35731
8bcfa0: 35758
8be10c: 35771
8be11a: 35818
8bda4e: 35830
8bf573: 35838
8bbc9d: 35840
8bf284: 35883
8bbc8e: 35954
8be44e: 36005
8bbd4b: 36033
8bf656: 36041
8bd083: 36046
8bd6d9: 36108
8bbc57: 36108
8bbd31: 36145
8be56e: 36153
8bbd16: 36155
8bbcc2: 36157
8bbcff: 36183
8be8d6: 36188
8bec20: 36191
8bef8f: 36192
8bbcb4: 36203
8bda61: 36218
8bd264: 36242
8bf2e6: 36256
8bcfbe: 36259
8bd5a4: 36264
8bdabb: 36267
8bbc2a: 36274
8bd21a: 36280
8bf1ee: 36280
8beeaf: 36281
8be12f: 36281
8be7eb: 36281
8beb28: 36281
8be46c: 36281
8bdd9c: 36281
8bf58a: 36290
8bd6cb: 36299
8bbbce: 36301
8bd4b6: 36308
8bbc48: 36310
8bd570: 36316
8bd8d1: 36316
8bdd8e: 36316
8bd227: 36316
8bbbb7: 36326
8bd681: 36327
8bf5ca: 36327
8bbc39: 36328
8bf59e: 36328
8bf527: 36330
8bbc13: 36332
8bf6c5: 36333
8bf57b: 36333
8bf63e: 36333
8bf2b9: 36334
8bf68e: 36334
8bf698: 36336
8beac7: 36336
8bf6a7: 36337
8bf5ef: 36339
8bdd38: 36339
8be794: 36340
8bf536: 36340
8bcfb0: 36340
8bd905: 36340
8bf4f2: 36342
8be187: 36342
8bf69d: 36342
8bf54a: 36343
8bf5ae: 36343
8bf1c3: 36345
8bf6ac: 36345
8beb8b: 36345
8bd400: 36346
8bd8c0: 36346
8bf445: 36346
8be8fd: 36346
8bf6d5: 36346
8bde06: 36346
8bd059: 36346
8bf5b8: 36347
8bd5d5: 36347
8be348: 36347
8bef01: 36348
8bf62d: 36348
8bda03: 36348
8bf6da: 36348
8bedb3: 36349
8bf40c: 36349
8bea32: 36349
8bf0e1: 36349
8bf3bb: 36349
8bf65b: 36349
8bd2ad: 36349
8bf5e4: 36349
8bf67e: 36349
8bdb6c: 36349
8bf435: 36349
8be2c9: 36349
8bf66a: 36349
8bf5f4: 36349
8beb1a: 36349
8bf5c0: 36349
8bf619: 36349
8bf5de: 36349
8bf607: 36349
8bf41f: 36349
8bf3c8: 36349
8bf6cb: 36349
8bf256: 36349
8bf4de: 36349
8bf5cf: 36349
8bf55b: 36349
8bd6b5: 36350
8be31b: 36350
8be308: 36350
8bf04c: 36350
8bea1b: 36350
8bdf83: 36350
8be7d2: 36350
8be77f: 36350
8bbb89: 36350
8be45e: 36350
8bd5e4: 36350
8be6dc: 36350
8be9fd: 36350
8be999: 36350
8bed0c: 36350
8be01a: 36350
8be339: 36350
8beb0a: 36350
8bf17a: 36350
8be6c6: 36350
8be6b3: 36350
8bd06e: 36350
8be3ef: 36350
8beab2: 36350
8bed7c: 36350
8bee4b: 36350
8bf18e: 36350
8be4d2: 36350
8bdd24: 36350
8be440: 36350
8bf0c9: 36350
8bee5f: 36350
8bd94f: 36350
8bd3c6: 36350
8bdc02: 36350
8bdc84: 36350
8bd6bb: 36350
8bdf89: 36350
8be7d8: 36350
8bdb24: 36350
8bd9ef: 36350
8be9a6: 36350
8bd671: 36350
8bdfd2: 36350
8bebf3: 36350
8bd38e: 36350
8bbb4c: 36350
8bee97: 36350
8be8ba: 36350
8bd73b: 36350
8bd562: 36350
8bdd70: 36350
8bdc4a: 36350
8be003: 36350
8bef73: 36350
8bdfe5: 36350
8bf0a6: 36350
8be22b: 36350
8be1e8: 36350
8bdc6d: 36350
8be9ea: 36350
8beafd: 36350
8bd7ac: 36350
8be0bb: 36350
8bdc08: 36350
8be6eb: 36350
8bda40: 36350
8bbbfc: 36350
8bd298: 36350
8be2c4: 36350
8bf059: 36350
8bd316: 36350
8be666: 36350
8bd938: 36350
8bbba0: 36350
8bd388: 36350
8bf0b1: 36350
8bdc55: 36350
8bd5b7: 36350
8bed69: 36350
8bde79: 36350
8be403: 36350
8bd918: 36350
8bd326: 36350
8bed9c: 36350
8bbb72: 36350
8bbcd9: 36350
8bed19: 36350
8be0cf: 36350
8be659: 36350
8bd3c0: 36350
8be84a: 36350
8bbb5b: 36350
8bbbe5: 36350
8bd277: 36350
8be542: 36350
8bee9c: 36350
8bf1d0: 36350
L1I TOTAL     ACCESS:   31267291  HIT:   26067286  MISS:    5200005  HIT %:    83.3692  MISS %:    16.6308   MPKI: 26
L1I Test counter:          0
L1I LOAD      ACCESS:   31267291  HIT:   26067286  MISS:    7851021  HIT %:    83.3692  MISS %:    16.6308   MPKI: 26
L1I PREFETCH  REQUESTED:          0  ISSUED:          0  USEFUL:          0  USELESS:          0
L1I USEFUL LOAD PREFETCHES:          0 PREFETCH ISSUED TO LOWER LEVEL:          0  ACCURACY: -nan
L1I TIMELY PREFETCHES:          0 LATE PREFETCHES: 0 DROPPED PREFETCHES: 0
L1I COMMIT LATE PREFETCHES: 0 MISSED OPPORTUNITY: 0 LATE IN PQ: 0 UNCOVERED: 0
L1I COMMIT LATE MSHR PREFETCHES: 0
L1I MPKI TOTAL: 39.2551 MSHR LATE: 0 PQ LATE: 0 COMMIT LATE: 0 MISSED OPPORTUNITY: 0 UNCOVERED: 0
L1I PREFETCHES SAME FILL-ORIGIN LEVEL: 0 DIFFERENT FILL-ORIGIN LEVEL: 0
L1I AVERAGE MISS LATENCY: 14.0596 cycles
L1I AVERAGE MISS LATENCY LOAD: 14.0596 cycles
L1I AVERAGE MISS LATENCY PREFETCH: -nan cycles
L1I AVERAGE MSHR OCCUPANCY: 0.213528
L1I MSHR FULL: 0
L1I RQ	ACCESS:   47538166	FORWARD:          0	MERGED:   13619858	TO_CACHE:   33918308

8bba80: 1
8be303: 2
8cf300: 2
8d3307: 2
8bf301: 2
8d1330: 2
8bbac7: 2
8d2300: 2
8d0301: 2
8bd305: 2
8d4303: 2
8bbae0: 217
8d1ac9: 219
a1eaf0: 219
8cfac4: 219
8d2ac0: 219
8d0ac7: 219
8beac2: 219
8bdac2: 219
8bfac8: 219
8bbb06: 219
8bbb30: 36131
8bf6c1: 36349
8cf1c0: 36349
8d0242: 36349
8bfb01: 36349
8d0282: 36349
8cf280: 36349
8bf9c0: 36349
8cf5c0: 36349
8cf181: 36349
8d02c1: 36349
8cfb03: 36349
8bf987: 36349
8bf644: 36349
8bf684: 36349
8d0143: 36349
8cf246: 36349
8d05c1: 36349
8d0203: 36349
8cf640: 36349
8cf207: 36349
8d0180: 36349
8cff90: 36349
8d01c0: 36349
8cff48: 36349
8cf2c2: 36349
8cf981: 36349
8cf6c3: 36349
8cf9c5: 36349
8bf2c4: 36349
8d0644: 36349
8d0688: 36349
8d06c0: 36349
8cf150: 36349
8cf680: 36349
8bf5c0: 36349
8bdf48: 36350
8d3280: 36350
8bcfa0: 36350
8d31c0: 36350
8d35c3: 36350
8d2b01: 36350
8bd5c4: 36350
8d2681: 36350
8d26c0: 36350
8d0f44: 36350
8d3f80: 36350
8bd6c1: 36350
8d15c2: 36350
8d4186: 36350
8d29c3: 36350
8d25c0: 36350
8d2642: 36350
8bf201: 36350
8bf1c3: 36350
4005d0: 36350
8d42c5: 36350
8d21c4: 36350
8d2f81: 36350
8bd2c5: 36350
8be1c6: 36350
8bd285: 36350
9e71d9: 36350
a1e9b0: 36350
8bd201: 36350
8be981: 36350
8d4241: 36350
8bd142: 36350
8d4207: 36350
8d41c5: 36350
8d32c4: 36350
8bd243: 36350
8d4283: 36350
8bd681: 36350
8d4147: 36350
8d3985: 36350
8d3642: 36350
8d36c1: 36350
9e7140: 36350
8d3189: 36350
8d3240: 36350
8d3f46: 36350
8d3201: 36350
8d2986: 36350
8d16c0: 36350
9e7180: 36350
8d39c2: 36350
a1e6c2: 36350
8d1981: 36350
a1e6a0: 36350
8be286: 36350
8d1b01: 36350
8d0981: 36350
8be200: 36350
8d1143: 36350
8d2f45: 36350
8be183: 36350
a1eb00: 36350
8d1646: 36350
8d19c6: 36350
8bf280: 36350
8d1f83: 36350
8d2143: 36350
8be143: 36350
8d2186: 36350
8beb02: 36350
8d2205: 36350
8d1283: 36350
8bd641: 36350
8bd987: 36350
8bd9c5: 36350
8be240: 36350
8bf141: 36350
8bdb01: 36350
8be684: 36350
8d1203: 36350
8d11c2: 36350
8bef83: 36350
8d1241: 36350
a1e9c5: 36350
8d09c5: 36350
8be9c4: 36350
8d12c4: 36350
8bdf83: 36350
8bd1c4: 36350
8d3680: 36350
8d3141: 36350
8d1682: 36350
8d2240: 36350
8bf185: 36350
8bf242: 36350
8d22c0: 36350
8d0f83: 36350
8be6c6: 36350
8bd180: 36350
8be641: 36350
8d1183: 36350
8be5c1: 36350
8d0b08: 36350
8d2284: 36350
8d1f41: 36350
8bef43: 36350
8be2c4: 36350
BTB TOTAL     ACCESS:    1127062  HIT:    1054337  MISS:      72725  HIT %:    93.5474  MISS %:    6.45262   MPKI: 0.363625
BTB Test counter:          0
BTB BRANCH_DIRECT_JUMP	ACCESS:     218098  HIT:     218093  MISS:          5
BTB BRANCH_INDIRECT	ACCESS:      36350  HIT:      36349  MISS:          1
BTB BRANCH_CONDITIONAL	ACCESS:     436418  HIT:     436406  MISS:         12
BTB BRANCH_DIRECT_CALL	ACCESS:     218098  HIT:     218093  MISS:          5
BTB BRANCH_INDIRECT_CALL	ACCESS:          0  HIT:          0  MISS:          0
BTB BRANCH_RETURN	ACCESS:     218098  HIT:     145396  MISS:      72702
BTB BRANCH_OTHER ACCESS:          0  HIT:          0  MISS:          0

L2C TOTAL     ACCESS:   22583323  HIT:   21525065  MISS:    1058258  HIT %:     95.314  MISS %:    4.68602   MPKI: 5.29129
L2C Test counter:          0
L2C LOAD      ACCESS:   18989591  HIT:   18565041  MISS:     424550  HIT %:    97.7643  MISS %:     2.2357   MPKI: 2.12275
L2C DATA LOAD MPKI: 2.11644
L2C INSTRUCTION LOAD MPKI: 0.00631
L2C RFO       ACCESS:    1228955  HIT:    1111168  MISS:     117787  HIT %:    90.4157  MISS %:    9.58432   MPKI: 0.588935
L2C PREFETCH  ACCESS:    1035074  HIT:     531445  MISS:     503629  HIT %:    51.3437  MISS %:    48.6563   MPKI: 2.51814
L2C DATA PREFETCH MPKI: 2.51814
L2C INSTRUCTION PREFETCH MPKI: 0
L2C WRITEBACK ACCESS:    1316885  HIT:    1316666  MISS:        219  HIT %:    99.9834  MISS %:  0.0166302   MPKI: 0.001095
L2C LOAD TRANSLATION ACCESS:      12818  HIT:        745  MISS:      12073  HIT %:    5.81214  MISS %:    94.1879   MPKI: 0.060365
L2C PREFETCH  REQUESTED:          0  ISSUED:          0  USEFUL:     496493  USELESS:       7193
L2C USEFUL LOAD PREFETCHES:     496493 PREFETCH ISSUED TO LOWER LEVEL:     503629  ACCURACY: 98.5831
L2C TIMELY PREFETCHES:     496493 LATE PREFETCHES: 0 DROPPED PREFETCHES: 0
L2C COMMIT LATE PREFETCHES: 0 MISSED OPPORTUNITY: 0 LATE IN PQ: 0 UNCOVERED: 0
L2C COMMIT LATE MSHR PREFETCHES: 0
L2C MPKI TOTAL: 2.12275 MSHR LATE: 0 PQ LATE: 0 COMMIT LATE: 0 MISSED OPPORTUNITY: 0 UNCOVERED: 0
L2C PREFETCHES SAME FILL-ORIGIN LEVEL: 0 DIFFERENT FILL-ORIGIN LEVEL: 0
L2C AVERAGE MISS LATENCY: 183.821 cycles
L2C AVERAGE MISS LATENCY LOAD: 138.832 cycles
L2C AVERAGE MISS LATENCY PREFETCH: 100.754 cycles
L2C AVERAGE MSHR OCCUPANCY: 0.965735
L2C MSHR FULL: 0
L2C RQ	ACCESS:   20233667	FORWARD:          0	MERGED:          0	TO_CACHE:   20231365
L2C WQ	ACCESS:    1316885	FORWARD:       2302	MERGED:          0	TO_CACHE:    1316885
L2C PQ	ACCESS:    1035074	FORWARD:          0	MERGED:          0	TO_CACHE:    1035074

L2C Instructions Evicting Data 1145
L2C Translations Evicting Data 11988
L2C Data Evicting Data 1031619
L2C Instructions Evicting Instructions 108
L2C Translations Evicting Instructions 6
L2C Data Evicting Instructions 1146
L2C Instructions Evicting Translations 9
L2C Translations Evicting Translations 79
L2C Data Evicting Translations 11939
L2C Dense regions hint from L2: 0
8bdaa7: 1
8bdac7: 1
8bba80: 1
8bde12: 1
8be18e: 1
8d41bd: 1
8bd29e: 2
8bd30a: 2
8bbd4b: 2
8bbd31: 2
8bebb8: 2
8bd006: 2
8bd6e4: 2
8bbc7f: 2
8be303: 2
8bcfa0: 2
8bbb5b: 2
8bbac7: 2
8bd9a9: 2
8bf0cf: 2
8bd2e5: 2
8bd1f7: 2
8bd3c6: 2
8bd9f4: 2
8bd9df: 2
8bd770: 2
8bd6b5: 2
8bd463: 2
8bd676: 2
8bf598: 2
8bd45c: 2
8bee50: 2
8bd5da: 2
8bd7a5: 2
8bd4e0: 2
8d2300: 2
8bd11e: 2
8beebc: 2
8bbcff: 2
8bd117: 2
8be0c0: 2
8bd661: 2
8bdd14: 2
8bdcde: 2
8bea78: 2
8be6e1: 2
8d3307: 2
8bf1c3: 2
8bbc57: 2
8bd31b: 2
8bf808: 2
8be008: 2
8be8ac: 2
8bd388: 2
8bd2b8: 2
8bf550: 2
8bd7c4: 2
8be3a7: 2
8bdb9d: 2
8bd62b: 2
8bf13c: 2
8bdd7e: 2
8bf678: 2
8bd38e: 2
8be55c: 2
8bf4a0: 2
8bf2e6: 2
8be3f4: 2
8be53b: 2
8bbc48: 2
8be3df: 2
8bf4e3: 2
8be76f: 2
8d4303: 2
8bf1ee: 2
8bcfb0: 2
8cf300: 2
8bf2b9: 2
8bf284: 2
8bf2cf: 2
8bf1f7: 2
8bef6c: 2
8bf16a: 2
8befee: 2
8bee3b: 2
8bee05: 2
8bf4ce: 2
8bebe5: 2
8beda1: 2
8beb0a: 2
8beaa7: 2
8beab8: 2
8bea20: 2
8be8b3: 2
8bf17f: 2
8be930: 2
8bec09: 2
8bf43b: 2
8bebec: 2
8bd3c0: 2
8be534: 2
8bd059: 2
8d4120: 2
8be7f9: 2
8bde8d: 2
8bd06e: 2
8bd79e: 2
8d4168: 2
8d1646: 2
8bd93d: 2
8d1330: 2
8d0301: 2
8bf633: 2
8bef65: 2
8bf2b2: 2
8bde6b: 2
8be44e: 2
8bf2ab: 2
8be477: 2
8be33e: 2
8be25f: 2
8be1e1: 2
8be1da: 2
8bde72: 2
8be87f: 2
8bdb1d: 2
8be075: 2
8be0ab: 2
8bdd29: 2
8bdb16: 2
8bdc72: 2
8bda6f: 2
8be507: 2
8be73e: 2
8be785: 2
8bbcc2: 3
8beafd: 3
8bd73b: 3
8be542: 3
8bdea3: 3
8bd5ef: 3
8bd480: 3
8bf256: 3
8be187: 3
8be7d8: 3
8bbc6c: 3
8bdabb: 3
8bde06: 3
8bd7ac: 3
8be84a: 3
8bdb40: 3
8bef73: 3
8bd7db: 3
8bda40: 3
8bcfbe: 3
8bbc8e: 3
8be4d2: 3
8bf1d0: 3
8beb8b: 3
8bebf3: 3
8bef8f: 3
8bf387: 3
8be1e8: 3
8bbc9d: 3
8bd400: 3
8bee97: 3
8bbc66: 4
8be7eb: 4
8be12f: 4
8beb28: 4
8bdda7: 4
8bd6d9: 4
8beeaf: 4
8be204: 4
8be10c: 4
8be8d6: 4
8be56e: 4
8bdd70: 4
8bd091: 4
8bee9c: 4
8bd78f: 5
8bd1c8: 5
8bd3a2: 5
8bf69d: 5
8bd180: 5
8bdb07: 6
8bd32b: 6
8bf29c: 6
8bd201: 6
8bd1c4: 6
8bd285: 6
8bd5c4: 6
8bf689: 7
8d15c2: 7
8d1143: 7
8bf7d3: 7
8bd889: 7
8d1241: 7
8d1183: 7
8d12c4: 7
8bd107: 7
8d11c2: 7
8d1203: 7
8bbcb4: 7
8d1283: 7
8bef56: 8
8be11a: 8
8bd026: 8
8bd511: 9
8bd959: 9
8bf510: 9
8becd8: 9
8be965: 9
8bd3a7: 10
8bf5cf: 10
8bd227: 10
8bf644: 10
8bd7f5: 11
8bf619: 11
8be2ec: 13
8bcff9: 13
8be525: 14
8bf04c: 14
8bdc6d: 14
8bd8ee: 14
8bd686: 15
a1cece: 15
8bd609: 15
8be003: 16
8bf059: 17
8bf081: 17
8be13d: 17
8bd938: 18
8bd264: 18
8bed19: 18
8be06b: 19
8be6dc: 19
8bec20: 19
8be623: 19
8bef37: 20
8bd420: 20
8be339: 20
8bf132: 20
8be89d: 21
8bf3c8: 23
8bbc39: 24
8beb31: 24
8bdbac: 25
8bd243: 26
8be2c9: 26
8bde79: 28
8bf1a3: 29
8bf5c0: 30
8bf26e: 30
8bf4f7: 31
8bf301: 32
8bf4b6: 32
8bdaf0: 34
8be1b1: 34
8bdb24: 35
8be356: 35
8bec3b: 35
8bed0c: 36
8beffd: 36
8bd69a: 37
8bda61: 37
8d2790: 37
8beadd: 37
8beba3: 38
8bea5a: 38
8be0ec: 38
8be46c: 39
8be7b2: 39
8bede3: 40
8bdd55: 40
8be93f: 40
8bd6bb: 40
8be58d: 40
8bedbd: 40
8be799: 41
8be408: 41
8bde3d: 42
8bd142: 42
8be420: 43
8bee64: 44
8bd305: 45
8bf450: 45
8be7d2: 45
8be86a: 45
8bbd16: 46
8be4f2: 46
8be720: 46
8bd21a: 46
8bd2d0: 47
8bdf83: 47
8bf488: 47
8bdcbc: 49
8bd5b7: 49
8bdc8e: 50
8be440: 50
8bde27: 51
8bd09b: 51
8bd8c0: 52
8be659: 53
8beded: 53
8bef21: 53
8bf14a: 54
8bcfd6: 55
8be05d: 55
8bf561: 55
8bf193: 56
8be19b: 56
8bdc02: 58
8be0bb: 59
8be72a: 59
8be3ef: 61
8be77f: 61
8bda4e: 62
8beaa2: 62
8bda1c: 63
8be3d9: 63
8be8ba: 63
8bd9bf: 64
8bee4b: 64
8bd65c: 64
8bd671: 64
8bf17a: 64
8be6c6: 65
8be3be: 65
8bee1b: 66
8be0a6: 66
8be26e: 66
8bea87: 66
8be9fd: 67
8be025: 67
8bd991: 68
8d1504: 69
8bdd0f: 70
8bdc55: 71
8be573: 72
8be684: 72
8be8db: 73
8bdea8: 73
8be2e2: 73
8bdb45: 74
8bf55b: 75
8bd485: 75
8bf145: 75
8be750: 75
8be3b9: 75
8bf5f4: 75
8bdcef: 75
8bf5ae: 75
8bee16: 75
8bd2ad: 76
8bf698: 76
8bedb3: 76
8be41b: 76
8be01a: 76
8bf4f2: 76
8bf0e1: 76
8bec25: 77
8bf66a: 77
8bdc84: 77
8bea32: 77
8bd0c9: 77
8bf65b: 77
8bda03: 78
8bd695: 79
8bd083: 79
8bf2eb: 79
8bf0ec: 80
8bda17: 80
8be209: 80
8bd94f: 80
8bd2f2: 81
8bf67e: 81
8bd9ba: 82
8bbc2a: 83
8bdec2: 85
8bbbb7: 85
8bd641: 85
8bbbce: 87
8bd7e0: 91
8bda08: 93
8bdd9c: 97
8bbae0: 99
8bcfab: 99
8bd0e2: 100
8bee7c: 100
8d2ac0: 101
8bd0a9: 102
8beac2: 105
8be756: 105
8bef01: 109
a1eaf0: 113
8bd185: 117
8d0ac7: 122
8bd172: 125
8bdac2: 138
8d1ac9: 141
8bf62d: 154
8bfac8: 158
8cfac4: 158
8be9a6: 183
8bf6cb: 188
8bde5c: 190
a1cee4: 209
8bf607: 210
8bdcf4: 229
8bf41f: 243
8bd2f7: 297
8bdfb1: 326
8bea3c: 360
8be999: 383
8bd2db: 436
8bf3bb: 451
8bd44c: 480
8bf5e4: 527
8bd5a4: 552
8bf54a: 553
8bd2c5: 594
8be1cb: 595
8bf6ac: 599
8bd4ef: 639
8bd621: 640
8bd8d1: 698
8bebd6: 714
8be0d4: 785
8bf01e: 805
8bd570: 928
8be39d: 947
8bd58d: 952
8bf536: 973
8bdc2e: 975
8be666: 976
8bf527: 987
8bf40c: 1034
8bd24d: 1082
8bf435: 1107
8be9ce: 1121
8bf0c9: 1214
8bd99f: 1252
8bd298: 1328
8bdc08: 1337
8bdbce: 1376
8bf496: 1399
8bf3f0: 1460
8bedfb: 1469
8bdd3d: 1485
8bd33f: 1488
8bd75b: 1491
8bdcd4: 1548
8bf5a9: 1581
8be290: 1599
8be739: 1623
8bf0a6: 1672
8be68e: 1695
8bdf52: 1698
8bed9c: 1714
8bd5d5: 1719
8bd583: 1726
8bea6e: 1733
8bf47e: 1743
8bdf89: 1783
8bed69: 2074
8bf4de: 2082
8be2c4: 2091
8bd277: 2131
8bdc29: 2251
8bdd50: 2280
8be053: 2303
8bf19e: 2332
8bd918: 2339
8be6f1: 2389
8bd905: 2400
8bea1b: 2411
8bed37: 2427
8bf6d5: 2443
8bdadb: 2447
8bd987: 2483
8beacc: 2503
8bf6a7: 2519
8be6b3: 2556
8be385: 2589
8bf59e: 2615
8bed41: 2622
8bf11a: 2712
8be0cf: 2764
8bdfd2: 2783
a1cef9: 2788
8bea81: 2826
8bd681: 2860
8be9ea: 2901
8bdc4a: 2929
8be086: 2938
8be308: 3007
8bd562: 3031
8bee5f: 3163
8bf4c9: 3192
8be0e7: 3212
8bd147: 3235
8bf124: 3251
8bbc13: 3326
8bdcc6: 3414
8be31b: 3458
8bdfe5: 3520
8bea5f: 3631
8bdfa7: 3715
8bd613: 3802
8be38f: 3811
8bd8e4: 3840
8bd316: 3854
8bf165: 3906
8bdd24: 3965
8be769: 3987
8beab2: 4020
8bd9ef: 4061
8bf58a: 4080
8be08b: 4088
8bf0b1: 4103
8bee36: 4140
8bed7c: 4149
8bf3e6: 4276
8bd9da: 4302
8bf445: 4362
8bd63c: 4372
8be9c4: 4415
8be348: 4470
8bf077: 4536
8bef94: 4597
8beac7: 4613
8be7ac: 4649
8be794: 4656
8be6eb: 4657
8bbcd9: 4674
8bead7: 4681
8bf50a: 4682
8bd5e4: 4690
8bf18e: 4694
8bf63e: 4705
8bbba0: 4706
8bf6da: 4707
8bd326: 4707
8bee77: 4707
8bf5b8: 4707
8bf4b1: 4708
8bf57b: 4708
8bbb72: 4708
8bbbe5: 4708
8be403: 4708
8bf5de: 4708
8bf5ef: 4708
8bf68e: 4708
8bf5ca: 4708
8bbb89: 4708
8bdd38: 4708
8bbbfc: 4708
8bd33a: 4708
8bf6c5: 4708
8bbb4c: 4737
PSCL5 TOTAL     ACCESS:       8516  HIT:       8516  MISS:          0  HIT %:        100  MISS %:          0   MPKI: 0
PSCL5 Test counter:          0
PSCL5 LOAD TRANSLATION ACCESS:       8516  HIT:       8516  MISS:          0  HIT %:        100  MISS %:          0   MPKI: 0
PSCL5 PREFETCH  REQUESTED:          0  ISSUED:          0  USEFUL:          0  USELESS:          0
PSCL5 USEFUL LOAD PREFETCHES:          0 PREFETCH ISSUED TO LOWER LEVEL:          0  ACCURACY: -nan
PSCL5 TIMELY PREFETCHES:          0 LATE PREFETCHES: 0 DROPPED PREFETCHES: 0
PSCL5 COMMIT LATE PREFETCHES: 0 MISSED OPPORTUNITY: 0 LATE IN PQ: 0 UNCOVERED: 0
PSCL5 COMMIT LATE MSHR PREFETCHES: 0
PSCL5 MPKI TOTAL: 0 MSHR LATE: 0 PQ LATE: 0 COMMIT LATE: 0 MISSED OPPORTUNITY: 0 UNCOVERED: 0
PSCL5 PREFETCHES SAME FILL-ORIGIN LEVEL: 0 DIFFERENT FILL-ORIGIN LEVEL: 0

PSCL4 TOTAL     ACCESS:       8516  HIT:       8516  MISS:          0  HIT %:        100  MISS %:          0   MPKI: 0
PSCL4 Test counter:          0
PSCL4 LOAD TRANSLATION ACCESS:       8516  HIT:       8516  MISS:          0  HIT %:        100  MISS %:          0   MPKI: 0
PSCL4 PREFETCH  REQUESTED:          0  ISSUED:          0  USEFUL:          0  USELESS:          0
PSCL4 USEFUL LOAD PREFETCHES:          0 PREFETCH ISSUED TO LOWER LEVEL:          0  ACCURACY: -nan
PSCL4 TIMELY PREFETCHES:          0 LATE PREFETCHES: 0 DROPPED PREFETCHES: 0
PSCL4 COMMIT LATE PREFETCHES: 0 MISSED OPPORTUNITY: 0 LATE IN PQ: 0 UNCOVERED: 0
PSCL4 COMMIT LATE MSHR PREFETCHES: 0
PSCL4 MPKI TOTAL: 0 MSHR LATE: 0 PQ LATE: 0 COMMIT LATE: 0 MISSED OPPORTUNITY: 0 UNCOVERED: 0
PSCL4 PREFETCHES SAME FILL-ORIGIN LEVEL: 0 DIFFERENT FILL-ORIGIN LEVEL: 0

PSCL3 TOTAL     ACCESS:       8516  HIT:       8516  MISS:          0  HIT %:        100  MISS %:          0   MPKI: 0
PSCL3 Test counter:          0
PSCL3 LOAD TRANSLATION ACCESS:       8516  HIT:       8516  MISS:          0  HIT %:        100  MISS %:          0   MPKI: 0
PSCL3 PREFETCH  REQUESTED:          0  ISSUED:          0  USEFUL:          0  USELESS:          0
PSCL3 USEFUL LOAD PREFETCHES:          0 PREFETCH ISSUED TO LOWER LEVEL:          0  ACCURACY: -nan
PSCL3 TIMELY PREFETCHES:          0 LATE PREFETCHES: 0 DROPPED PREFETCHES: 0
PSCL3 COMMIT LATE PREFETCHES: 0 MISSED OPPORTUNITY: 0 LATE IN PQ: 0 UNCOVERED: 0
PSCL3 COMMIT LATE MSHR PREFETCHES: 0
PSCL3 MPKI TOTAL: 0 MSHR LATE: 0 PQ LATE: 0 COMMIT LATE: 0 MISSED OPPORTUNITY: 0 UNCOVERED: 0
PSCL3 PREFETCHES SAME FILL-ORIGIN LEVEL: 0 DIFFERENT FILL-ORIGIN LEVEL: 0

PSCL2 TOTAL     ACCESS:       8516  HIT:       4205  MISS:       4311  HIT %:    49.3776  MISS %:    50.6224   MPKI: 0.021555
PSCL2 Test counter:          0
PSCL2 LOAD TRANSLATION ACCESS:       8516  HIT:       4205  MISS:       4311  HIT %:    49.3776  MISS %:    50.6224   MPKI: 0.021555
PSCL2 PREFETCH  REQUESTED:          0  ISSUED:          0  USEFUL:          0  USELESS:          0
PSCL2 USEFUL LOAD PREFETCHES:          0 PREFETCH ISSUED TO LOWER LEVEL:          0  ACCURACY: -nan
PSCL2 TIMELY PREFETCHES:          0 LATE PREFETCHES: 0 DROPPED PREFETCHES: 0
PSCL2 COMMIT LATE PREFETCHES: 0 MISSED OPPORTUNITY: 0 LATE IN PQ: 0 UNCOVERED: 0
PSCL2 COMMIT LATE MSHR PREFETCHES: 0
PSCL2 MPKI TOTAL: 0 MSHR LATE: 0 PQ LATE: 0 COMMIT LATE: 0 MISSED OPPORTUNITY: 0 UNCOVERED: 0
PSCL2 PREFETCHES SAME FILL-ORIGIN LEVEL: 0 DIFFERENT FILL-ORIGIN LEVEL: 0

LLC TOTAL     ACCESS:    1176118  HIT:     641561  MISS:     534557  HIT %:     54.549  MISS %:     45.451   MPKI: 2.67278
LLC Test counter:          0
LLC LOAD      ACCESS:     424550  HIT:     217715  MISS:     206835  HIT %:    51.2814  MISS %:    48.7186   MPKI: 1.03417
LLC RFO       ACCESS:     117765  HIT:         65  MISS:     117700  HIT %:  0.0551947  MISS %:    99.9448   MPKI: 0.5885
LLC PREFETCH  ACCESS:     503629  HIT:     294746  MISS:     208883  HIT %:    58.5244  MISS %:    41.4756   MPKI: 1.04441
LLC WRITEBACK ACCESS:     118101  HIT:     118044  MISS:         57  HIT %:    99.9517  MISS %:  0.0482638   MPKI: 0.000285
LLC LOAD TRANSLATION ACCESS:      12073  HIT:      10991  MISS:       1082  HIT %:    91.0379  MISS %:    8.96215   MPKI: 0.00541
LLC PREFETCH  REQUESTED:          0  ISSUED:          0  USEFUL:      78730  USELESS:     130887
LLC USEFUL LOAD PREFETCHES:      78730 PREFETCH ISSUED TO LOWER LEVEL:     208883  ACCURACY: 37.691
LLC TIMELY PREFETCHES:      78730 LATE PREFETCHES: 0 DROPPED PREFETCHES: 0
LLC COMMIT LATE PREFETCHES: 0 MISSED OPPORTUNITY: 0 LATE IN PQ: 0 UNCOVERED: 0
LLC COMMIT LATE MSHR PREFETCHES: 0
LLC MPKI TOTAL: 1.03417 MSHR LATE: 0 PQ LATE: 0 COMMIT LATE: 0 MISSED OPPORTUNITY: 0 UNCOVERED: 0
LLC PREFETCHES SAME FILL-ORIGIN LEVEL: 0 DIFFERENT FILL-ORIGIN LEVEL: 0
LLC AVERAGE MISS LATENCY: 303.576 cycles
LLC AVERAGE MISS LATENCY LOAD: 222.274 cycles
LLC AVERAGE MISS LATENCY PREFETCH: 169.425 cycles
LLC AVERAGE MSHR OCCUPANCY: 3.53398
LLC MSHR FULL: 0
LLC RQ	ACCESS:     554410	FORWARD:          0	MERGED:          0	TO_CACHE:     554388
LLC WQ	ACCESS:     118101	FORWARD:         22	MERGED:          0	TO_CACHE:     118101
LLC PQ	ACCESS:     503629	FORWARD:          0	MERGED:          0	TO_CACHE:     503629

LLC Dense regions hint to LLC: 0
8bf644: 1
8bde27: 1
8bd420: 1
8be93f: 1
8d1646: 1
8be3be: 1
a1cece: 1
8bd69a: 1
8d1143: 1
8bf689: 1
8bdac7: 1
8bd185: 1
8bec3b: 1
8d1504: 1
8bdbac: 1
8bee7c: 1
8bd201: 1
8bdd55: 1
8d1ac9: 1
8bcfd6: 1
8beac2: 1
8beba3: 1
8d1241: 1
8be19b: 1
8bd9bf: 1
8bba80: 1
8bd5c4: 1
8be58d: 1
8bf26e: 1
8bd7f5: 1
8bd026: 1
8bdaf0: 1
8d15c2: 1
8bf7d3: 1
8bd285: 1
8d1283: 1
8d1203: 1
8bd1c4: 1
8d4120: 1
8d11c2: 1
8d12c4: 1
8bd180: 1
8d4168: 1
8d1183: 1
8beffd: 1
8d0ac7: 1
8bf1a3: 1
8beadd: 1
8bdac2: 1
8bd09b: 1
8be420: 1
8d41bd: 1
8bd79e: 2
8bbc7f: 2
8be785: 2
8bd3c6: 2
8beda1: 2
8be477: 2
8bd609: 2
8bd7db: 2
8bf1ee: 2
8bd8c0: 2
8bda40: 2
8bde3d: 2
8be8d6: 2
8be6e1: 2
8bed0c: 2
8bf598: 2
8bd45c: 2
8bdd9c: 2
8bd9df: 2
8be659: 2
8bd9f4: 2
8be1da: 2
8bd9a9: 2
8bd770: 2
8bd6e4: 2
8bd388: 2
8bf550: 2
8bcff9: 2
8bee1b: 2
8bdcde: 2
8bd3a7: 2
8bf4e3: 2
8bd38e: 2
a1eaf0: 2
8bd676: 2
8bd6d9: 2
8bea20: 2
8bd7ac: 2
8bbcff: 2
8bd059: 2
8bd2e5: 2
8bee97: 2
8bf2ab: 2
8beb28: 2
8be204: 2
8be46c: 2
8bebec: 2
8bf43b: 2
8bd7c4: 2
8be930: 2
8bf17f: 2
8bdc72: 2
8beafd: 2
8d4303: 2
8bd62b: 2
8be25f: 2
8bd5da: 2
8bea87: 2
8bbc9d: 2
8bf13c: 2
8bbc39: 2
8bd6bb: 2
8be1e1: 2
8be44e: 2
8bdb40: 2
8be2ec: 2
8be55c: 2
8be3a7: 2
8bdd7e: 2
8be3f4: 2
8be12f: 2
8be33e: 2
8bde8d: 2
8be339: 2
8be1e8: 2
8bd938: 2
8be507: 2
8bde72: 2
8be11a: 2
8be3df: 2
8be10c: 2
8bd06e: 2
8bd661: 2
8bebb8: 2
8bd006: 2
8beb0a: 2
8bd29e: 2
8bee50: 2
8beaa7: 2
8bec09: 2
8beab8: 2
8be8ac: 2
8bec20: 2
8be87f: 2
8be7f9: 2
8be534: 2
8be56e: 2
8bea78: 2
8be542: 2
8be720: 2
8be6dc: 2
8bda6f: 2
8bdc6d: 2
8bdc02: 2
8bd93d: 2
8bef65: 2
8bdcbc: 2
8bdd14: 2
8bdb24: 2
8bdb9d: 2
8bda61: 2
8be1b1: 2
8bd7a5: 2
8bd4e0: 2
8be8ba: 2
8bdf83: 2
8be7d2: 2
8bf2e6: 2
8bd8ee: 2
8be13d: 2
8be008: 2
8bde6b: 2
8be76f: 2
8be7d8: 2
8be0c0: 2
8be0ab: 2
8bdea3: 2
8be003: 2
8bde79: 2
8bf5cf: 2
8bf4a0: 2
8bdd70: 2
8bdd29: 2
8bdb16: 2
8bdda7: 2
8be53b: 2
8bdb1d: 2
8be303: 2
8bcfa0: 2
8d2300: 2
8be7eb: 2
8bd21a: 2
8bda4e: 2
8bd117: 2
8bd227: 2
8beb31: 2
8be73e: 2
8bd11e: 2
8beebc: 2
8be756: 2
8bd480: 2
8bd463: 2
8bebf3: 2
8bede3: 2
8bebe5: 2
8cf300: 2
8bea5a: 2
8bbc6c: 2
8bbc8e: 2
8bd6b5: 2
8bbcb4: 2
8be440: 2
8bd3a2: 2
8bbcc2: 2
8bee9c: 2
8bed19: 2
8bbd31: 2
8bf1d0: 2
8bbd4b: 2
8be8b3: 2
8bcfb0: 2
8bcfbe: 2
8bd30a: 2
8d1330: 2
8d3307: 2
8bf284: 2
8bf2b9: 2
8bf4ce: 2
8bf2b2: 2
8bf619: 2
8bf633: 2
8d0301: 2
8bf1c3: 2
8bf561: 2
8bf14a: 2
8bf4b6: 2
8be86a: 2
8be26e: 2
8bbae0: 2
8d2ac0: 2
8bd264: 2
8bf2cf: 2
8bf1f7: 2
8bef6c: 2
8bf059: 2
8bf16a: 2
8bf081: 2
8bef8f: 2
8bef73: 2
8bf0cf: 2
8beeaf: 2
8bef37: 2
8befee: 2
8bee3b: 2
8bee4b: 2
8bee05: 2
8bbc66: 2
8bbc57: 2
8bbd16: 2
8bbc48: 2
8bd3c0: 2
8be075: 2
8bd31b: 2
8bf678: 2
8bbb5b: 2
8bd400: 3
8be0bb: 3
8bdabb: 3
8be3ef: 3
8bd991: 3
8bf04c: 3
8bd142: 3
8bf132: 3
8bf256: 3
8be06b: 3
8bd671: 3
8be77f: 3
8bf69d: 3
8bd73b: 3
8bde06: 3
8be2e2: 3
8bd2d0: 3
8bd172: 3
8bf5c0: 3
8bf17a: 3
8be05d: 3
8bf301: 3
8bd2f7: 3
8bef21: 3
8be2c9: 3
8bd641: 3
8beb8b: 3
8be684: 3
8be187: 3
8be4d2: 3
8bf3c8: 3
8beded: 3
8bf488: 3
8be84a: 3
8bd0a9: 4
8bdd0f: 4
8beaa2: 4
8bd243: 4
8be9fd: 4
8bd5b7: 4
8be72a: 4
8be9a6: 4
8bd65c: 4
8be6c6: 4
8be0a6: 4
8be3d9: 4
8bdec2: 4
8bdc55: 4
8bf41f: 4
8bd0e2: 5
8bdcf4: 6
8bd305: 6
8bea3c: 7
8be999: 8
8bde5c: 9
8bdfb1: 10
8be1cb: 10
8be0d4: 11
a1cee4: 13
8bdd3d: 14
8bd5a4: 15
8bd4ef: 17
8be666: 17
8bebd6: 21
8bed69: 23
8bdc29: 24
8bf5a9: 25
8bed37: 26
8bf527: 26
8bd918: 28
8bd8d1: 28
8be39d: 30
8bd583: 30
8bd44c: 31
8bdfa7: 32
8bf435: 32
8bd33f: 32
8bdc2e: 33
8be2c4: 34
8beacc: 34
8bdadb: 35
8bf4de: 35
a1cef9: 35
8be053: 35
8be6b3: 36
8bf3e6: 37
8bd5d5: 38
8bedfb: 38
8be6f1: 38
8bf01e: 38
8bdbce: 38
8be290: 38
8bea5f: 38
8bd75b: 38
8bd8e4: 39
8bdf52: 39
8be08b: 39
8be769: 39
8bd905: 39
8bea1b: 39
8bf5e4: 39
8be31b: 40
8bf077: 40
8bd298: 40
8bf3bb: 40
8be9c4: 40
8bf496: 40
8bf47e: 41
8bee36: 41
8bf0c9: 41
8bf607: 41
8bdfd2: 41
8bf6cb: 41
8bdf89: 41
8be385: 41
8bed9c: 41
8beab2: 41
8bd9da: 41
8bd2db: 41
8bd987: 41
8bf40c: 41
8bd9ef: 41
8bd562: 41
8bd316: 41
8bdc4a: 42
8bf0a6: 42
8bdc08: 42
8bf165: 42
8bd621: 42
8bdcd4: 42
8bf11a: 42
8bf54a: 42
8bdd24: 42
8bd99f: 42
8bea6e: 42
8bd2c5: 42
8be739: 42
8bf124: 42
8bf4c9: 42
8be9ea: 42
8be38f: 42
8bf62d: 42
8bed41: 42
8be308: 42
8bed7c: 43
8be68e: 43
8bd24d: 43
8bd570: 43
8bdcc6: 43
8bf0b1: 43
8bf536: 43
8bd613: 43
8bd277: 43
8bdfe5: 44
8be9ce: 44
8bf3f0: 44
8bf6ac: 44
8bd58d: 44
8be573: 72
8bdea8: 73
8be8db: 73
8bdb45: 74
8be750: 75
8bf5ae: 75
8be3b9: 75
8bee16: 75
8bdcef: 75
8bf5f4: 75
8bf145: 75
8bd485: 75
8bf55b: 75
8bf0e1: 76
8be01a: 76
8bedb3: 76
8bf698: 76
8bf4f2: 76
8be41b: 76
8bd2ad: 76
8bea32: 77
8bec25: 77
8bdc84: 77
8bf65b: 77
8bf66a: 77
8bda03: 78
8bd695: 79
8bf2eb: 79
8bd083: 79
8be209: 80
8bd94f: 80
8bda17: 80
8bd2f2: 81
8bf67e: 81
8bd9ba: 82
8bbc2a: 83
8bbbb7: 85
8bbbce: 87
8bd7e0: 90
8bef01: 109
8bdd50: 2280
8bf19e: 2332
8bf6d5: 2442
8bf6a7: 2519
8bf59e: 2615
8be0cf: 2764
8bea81: 2825
8bd681: 2860
8be086: 2938
8bee5f: 3162
8be0e7: 3212
8bd147: 3234
8bbc13: 3326
8bf58a: 4080
8bf445: 4362
8bd63c: 4372
8be348: 4470
8bef94: 4596
8beac7: 4613
8be7ac: 4649
8be794: 4656
8be6eb: 4656
8bbcd9: 4674
8bead7: 4681
8bf50a: 4682
8bd5e4: 4690
8bf18e: 4694
8bf63e: 4705
8bbba0: 4706
8bf5b8: 4707
8bd326: 4707
8bf6da: 4707
8bee77: 4707
8bdd38: 4708
8bbb89: 4708
8bbbfc: 4708
8bbbe5: 4708
8bf68e: 4708
8bbb72: 4708
8bf5ef: 4708
8bf5ca: 4708
8be403: 4708
8bf6c5: 4708
8bd33a: 4708
8bf5de: 4708
8bbb4c: 4708
8bf4b1: 4708
8bf57b: 4708

RAW hits: 505340
Loads Generated: 78371999
Loads sent to L1D: 77866658
Stores Generated: 16212582
Stores sent to L1D: 16212582
Major fault: 0 Minor fault: 8463
Allocated PAGES: 8463
Total Load insts: 112382656
Total Non-spec loads: 7215323
Percentage of speculative loads: 93.5797
L1D response latency: 19.777 cycles
Load retirement latency: 96.8731 cycles


stream: 
stream:times selected: 1663127
stream:pref_filled: 1240699
stream:pref_useful: 34758
stream:pref_late: 772
stream:misses: 10680
stream:misses_by_poll: 0

CS: 
CS:times selected: 1300915
CS:pref_filled: 4687
CS:pref_useful: 151
CS:pref_late: 2
CS:misses: 20969
CS:misses_by_poll: 2

CPLX: 
CPLX:times selected: 1661751
CPLX:pref_filled: 50958
CPLX:pref_useful: 7590
CPLX:pref_late: 226
CPLX:misses: 6768252
CPLX:misses_by_poll: 21

NL_L1: 
NL:times selected: 45
NL:pref_filled: 35
NL:pref_useful: 1
NL:pref_late: 0
NL:misses: 82
NL:misses_by_poll: 0

total selections: 4625838
total_filled: 1034008
total_useful: 34503
total_late: 1139
total_polluted: 23
total_misses_after_warmup: 14130686
conflicts: 15454628
Degree Incremented Times: 0
Degree Decremented Times: 1000870

L1 IP Table Write Accesses: 37609809
L1 IP Table Read Accesses: 22155181
L1 RST Write Accesses: 1321642
L1 RST Read Accesses: 2643284
L1 CSPT Write Accesses: 1321642
L1 CSPT Read Accesses: 2642999
L1 RR Filter Tag Write Accesses: 1279622
L1 RR Filter Tag Read Accesses: 110148353
L1 IP Table Tag Write Accesses: 63213069
L1 IP Table Tag Read Accesses: 63213069
L1 RST Tag Write Accesses: 0
L1 RST Tag Read Accesses: 11753337
L1 RR Filter Write Accesses: 0
L1 RR Filter Read Accesses: 3578737
test: 146225

DRAM Statistics
 CHANNEL 0
 RQ ROW_BUFFER_HIT:     271764  ROW_BUFFER_MISS:     262736
 DBUS_CONGESTED:        303
 WQ ROW_BUFFER_HIT:      48275  ROW_BUFFER_MISS:      69536  FULL:          0

 AVG_CONGESTED_CYCLE: 4
 All warmup complete: 2
Channel 0 Bank busy for read cycles: 0
Channel 0 Bank busy for write cycles: 0
Channel 0
Rank 0
0banks busy for read cycles: 183298486
0banks busy for write cycles: 43230
1banks busy for read cycles: 19347044
1banks busy for write cycles: 5551065
2banks busy for read cycles: 5402267
2banks busy for write cycles: 1693179
3banks busy for read cycles: 3379922
3banks busy for write cycles: 1430305
4banks busy for read cycles: 1504325
4banks busy for write cycles: 1064008
5banks busy for read cycles: 552007
5banks busy for write cycles: 583560
6banks busy for read cycles: 406171
6banks busy for write cycles: 307490
7banks busy for read cycles: 186042
7banks busy for write cycles: 154790
8banks busy for read cycles: 24544
8banks busy for write cycles: 36081

CPU 0 Branch Prediction Accuracy: 99.9875% MPKI: 0.001115 Average ROB Occupancy at Mispredict: 37.8744
Branch types
NOT_BRANCH: 198218197 99.1091%
BRANCH_DIRECT_JUMP: 218098 0.109049%
BRANCH_INDIRECT: 36350 0.018175%
BRANCH_CONDITIONAL: 1090933 0.545466%
BRANCH_DIRECT_CALL: 218098 0.109049%
BRANCH_INDIRECT_CALL: 0 0%
BRANCH_RETURN: 218098 0.109049%
BRANCH_OTHER: 0 0%

DRAM PAGES: 1048576
Allocated PAGES: 8463
