
*** ChampSim Multicore Out-of-Order Simulator ***

Warmup Instructions: 50000000
Simulation Instructions: 200000000
Number of CPUs: 1
LLC sets: 2048
LLC ways: 16
Secure Berti: OFF
Berti: OFF
Berti Fill: OFF
On commit prefetching: OFF
L2 LLC Bypass speculative loads: OFF
Off-chip DRAM Size: 4096 MB Channels: 1 Width: 64-bit Data Rate: 6400 MT/s
CPU 0 runs /home/sumon/secure_berti/Berti_Baseline/../../traces/spec/619.lbm_s-3766B.champsimtrace.xz
.xz
BTB has LRU replacement policy
ITLB has LRU replacement policy
DTLB has LRU replacement policy
STLB has LRU replacement policy
L1I has LRU replacement policy
IP Table Entries: 1024
CSPT Entries: 128
RR_ENTRIES: 32
RST_ENTRIES: 8
L1D has LRU replacement policy
L2C has LRU replacement policy
LLC has LRU replacement policy
Heartbeat CPU 0 instructions: 10000000 cycles: 2732992 heartbeat IPC: 3.65899 cumulative IPC: 3.65899 (Simulation time: 0 hr 0 min 24 sec) 
Heartbeat CPU 0 instructions: 20000002 cycles: 5468867 heartbeat IPC: 3.65514 cumulative IPC: 3.65706 (Simulation time: 0 hr 0 min 47 sec) 
Heartbeat CPU 0 instructions: 30000000 cycles: 8201964 heartbeat IPC: 3.65885 cumulative IPC: 3.65766 (Simulation time: 0 hr 1 min 10 sec) 
Heartbeat CPU 0 instructions: 40000001 cycles: 10937847 heartbeat IPC: 3.65513 cumulative IPC: 3.65703 (Simulation time: 0 hr 1 min 33 sec) 
Heartbeat CPU 0 instructions: 50000000 cycles: 13673757 heartbeat IPC: 3.65509 cumulative IPC: 3.65664 (Simulation time: 0 hr 1 min 56 sec) 

Warmup complete CPU 0 instructions: 50000004 cycles: 13673758 (Simulation time: 0 hr 1 min 56 sec) 

Heartbeat CPU 0 instructions: 60000000 cycles: 23670206 heartbeat IPC: 1.00036 cumulative IPC: 1.00035 (Simulation time: 0 hr 2 min 19 sec) 
Heartbeat CPU 0 instructions: 70000001 cycles: 33831941 heartbeat IPC: 0.984084 cumulative IPC: 0.992153 (Simulation time: 0 hr 2 min 43 sec) 
Heartbeat CPU 0 instructions: 80000002 cycles: 43851066 heartbeat IPC: 0.998091 cumulative IPC: 0.994124 (Simulation time: 0 hr 3 min 7 sec) 
Heartbeat CPU 0 instructions: 90000001 cycles: 54010216 heartbeat IPC: 0.984334 cumulative IPC: 0.991659 (Simulation time: 0 hr 3 min 31 sec) 
Heartbeat CPU 0 instructions: 100000000 cycles: 64020015 heartbeat IPC: 0.999021 cumulative IPC: 0.993122 (Simulation time: 0 hr 3 min 55 sec) 
Heartbeat CPU 0 instructions: 110000000 cycles: 74480331 heartbeat IPC: 0.955994 cumulative IPC: 0.986735 (Simulation time: 0 hr 4 min 21 sec) 
Heartbeat CPU 0 instructions: 120000003 cycles: 85093775 heartbeat IPC: 0.942201 cumulative IPC: 0.980117 (Simulation time: 0 hr 4 min 50 sec) 
Heartbeat CPU 0 instructions: 130000000 cycles: 97488804 heartbeat IPC: 0.806775 cumulative IPC: 0.954482 (Simulation time: 0 hr 5 min 26 sec) 
Heartbeat CPU 0 instructions: 140000002 cycles: 111178462 heartbeat IPC: 0.730479 cumulative IPC: 0.923032 (Simulation time: 0 hr 6 min 6 sec) 
Heartbeat CPU 0 instructions: 150000000 cycles: 126921268 heartbeat IPC: 0.635211 cumulative IPC: 0.883022 (Simulation time: 0 hr 6 min 52 sec) 
Heartbeat CPU 0 instructions: 160000002 cycles: 146348961 heartbeat IPC: 0.514729 cumulative IPC: 0.829092 (Simulation time: 0 hr 7 min 50 sec) 
Heartbeat CPU 0 instructions: 170000001 cycles: 169909650 heartbeat IPC: 0.424436 cumulative IPC: 0.768069 (Simulation time: 0 hr 8 min 58 sec) 
Heartbeat CPU 0 instructions: 180000003 cycles: 195310234 heartbeat IPC: 0.393692 cumulative IPC: 0.715715 (Simulation time: 0 hr 10 min 10 sec) 
Heartbeat CPU 0 instructions: 190000001 cycles: 221911835 heartbeat IPC: 0.375917 cumulative IPC: 0.672307 (Simulation time: 0 hr 11 min 26 sec) 
Heartbeat CPU 0 instructions: 200000003 cycles: 246292817 heartbeat IPC: 0.410156 cumulative IPC: 0.644831 (Simulation time: 0 hr 12 min 33 sec) 
Heartbeat CPU 0 instructions: 210000003 cycles: 269213081 heartbeat IPC: 0.436295 cumulative IPC: 0.626127 (Simulation time: 0 hr 13 min 36 sec) 
Heartbeat CPU 0 instructions: 220000000 cycles: 290133375 heartbeat IPC: 0.478005 cumulative IPC: 0.614918 (Simulation time: 0 hr 14 min 34 sec) 
Heartbeat CPU 0 instructions: 230000000 cycles: 310628735 heartbeat IPC: 0.487915 cumulative IPC: 0.606152 (Simulation time: 0 hr 15 min 30 sec) 
Heartbeat CPU 0 instructions: 240000002 cycles: 330233254 heartbeat IPC: 0.510087 cumulative IPC: 0.600203 (Simulation time: 0 hr 16 min 24 sec) 
Heartbeat CPU 0 instructions: 250000003 cycles: 349899039 heartbeat IPC: 0.508497 cumulative IPC: 0.594839 (Simulation time: 0 hr 17 min 17 sec) 
Finished CPU 0 instructions: 200000002 cycles: 336225282 cumulative IPC: 0.594839 (Simulation time: 0 hr 17 min 17 sec) 

ChampSim completed all CPUs

Region of Interest Statistics

CPU 0 cumulative IPC: 0.594839 instructions: 200000002 cycles: 336225282
ITLB TOTAL     ACCESS:   26642831  HIT:   26642831  MISS:          0  HIT %:        100  MISS %:          0   MPKI: 0
ITLB Test counter:          0
ITLB LOAD TRANSLATION ACCESS:   26642831  HIT:   26642831  MISS:          0  HIT %:        100  MISS %:          0   MPKI: 0
ITLB PREFETCH  REQUESTED:          0  ISSUED:          0  USEFUL:          0  USELESS:          0
ITLB USEFUL LOAD PREFETCHES:          0 PREFETCH ISSUED TO LOWER LEVEL:          0  ACCURACY: -nan
ITLB TIMELY PREFETCHES:          0 LATE PREFETCHES: 0 DROPPED PREFETCHES: 0
ITLB COMMIT LATE PREFETCHES: 0 MISSED OPPORTUNITY: 0 LATE IN PQ: 0 UNCOVERED: 0
ITLB COMMIT LATE MSHR PREFETCHES: 0
ITLB MPKI TOTAL: 0 MSHR LATE: 0 PQ LATE: 0 COMMIT LATE: 0 MISSED OPPORTUNITY: 0 UNCOVERED: 0
ITLB PREFETCHES SAME FILL-ORIGIN LEVEL: 0 DIFFERENT FILL-ORIGIN LEVEL: 0
ITLB AVERAGE MISS LATENCY: -nan cycles
ITLB AVERAGE MISS LATENCY LOAD: -nan cycles
ITLB AVERAGE MISS LATENCY PREFETCH: -nan cycles
ITLB AVERAGE MSHR OCCUPANCY: 0
ITLB MSHR FULL: 0
ITLB RQ	ACCESS:   34489837	FORWARD:          0	MERGED:    7847006	TO_CACHE:   26642831

DTLB TOTAL     ACCESS:   36197592  HIT:   35971879  MISS:     225713  HIT %:    99.3764  MISS %:   0.623558   MPKI: 1.12856
DTLB Test counter:          0
DTLB LOAD TRANSLATION ACCESS:   36197592  HIT:   35971879  MISS:     225713  HIT %:    99.3764  MISS %:   0.623558   MPKI: 1.12856
DTLB PREFETCH  REQUESTED:          0  ISSUED:          0  USEFUL:          0  USELESS:          0
DTLB USEFUL LOAD PREFETCHES:          0 PREFETCH ISSUED TO LOWER LEVEL:          0  ACCURACY: -nan
DTLB TIMELY PREFETCHES:          0 LATE PREFETCHES: 0 DROPPED PREFETCHES: 0
DTLB COMMIT LATE PREFETCHES: 0 MISSED OPPORTUNITY: 0 LATE IN PQ: 0 UNCOVERED: 0
DTLB COMMIT LATE MSHR PREFETCHES: 0
DTLB MPKI TOTAL: 0 MSHR LATE: 0 PQ LATE: 0 COMMIT LATE: 0 MISSED OPPORTUNITY: 0 UNCOVERED: 0
DTLB PREFETCHES SAME FILL-ORIGIN LEVEL: 0 DIFFERENT FILL-ORIGIN LEVEL: 0
DTLB AVERAGE MISS LATENCY: 107.3 cycles
DTLB AVERAGE MISS LATENCY LOAD: -nan cycles
DTLB AVERAGE MISS LATENCY PREFETCH: -nan cycles
DTLB AVERAGE MSHR OCCUPANCY: 0.0652163
DTLB MSHR FULL: 0
DTLB RQ	ACCESS:   51400909	FORWARD:          0	MERGED:   15133041	TO_CACHE:   36267868

STLB TOTAL     ACCESS:    1438495  HIT:    1316025  MISS:     122470  HIT %:    91.4862  MISS %:    8.51376   MPKI: 0.61235
STLB Test counter:          0
STLB LOAD TRANSLATION ACCESS:     225713  HIT:     103243  MISS:     122470  HIT %:    45.7408  MISS %:    54.2592   MPKI: 0.61235
STLB TRANSLATION FROM L1D PREFETCHER ACCESS:    1212782  HIT:    1212782  MISS:          0  HIT %:        100  MISS %:          0   MPKI: 0
STLB PREFETCH  REQUESTED:          0  ISSUED:          0  USEFUL:          0  USELESS:          0
STLB USEFUL LOAD PREFETCHES:          0 PREFETCH ISSUED TO LOWER LEVEL:          0  ACCURACY: -nan
STLB TIMELY PREFETCHES:          0 LATE PREFETCHES: 0 DROPPED PREFETCHES: 0
STLB COMMIT LATE PREFETCHES: 0 MISSED OPPORTUNITY: 0 LATE IN PQ: 0 UNCOVERED: 0
STLB COMMIT LATE MSHR PREFETCHES: 0
STLB MPKI TOTAL: 0 MSHR LATE: 0 PQ LATE: 0 COMMIT LATE: 0 MISSED OPPORTUNITY: 0 UNCOVERED: 0
STLB PREFETCHES SAME FILL-ORIGIN LEVEL: 0 DIFFERENT FILL-ORIGIN LEVEL: 0
STLB AVERAGE MISS LATENCY: 179.605 cycles
STLB AVERAGE MISS LATENCY LOAD: -nan cycles
STLB AVERAGE MISS LATENCY PREFETCH: -nan cycles
STLB AVERAGE MSHR OCCUPANCY: 0.0573071
STLB MSHR FULL: 0
STLB RQ	ACCESS:    2278200	FORWARD:          0	MERGED:     839705	TO_CACHE:    1438495

STLB Hit, L1D data hit: 0
STLB Hit, L2C data hit: 0
STLB Hit, LLC data hit: 0
STLB Hit, LLC data miss: 0
STLB STLB hints to L2: 0
L1D TOTAL     ACCESS:   52654219  HIT:   39724396  MISS:   12929823  HIT %:    75.4439  MISS %:    24.5561   MPKI: 64.6491
L1D Test counter:          0
L1D LOAD      ACCESS:   19658334  HIT:   19058417  MISS:     853747  HIT %:    96.9483  MISS %:    3.05172   MPKI: 2.99958
L1D RFO       ACCESS:   31373260  HIT:   20402655  MISS:   10970605  HIT %:     65.032  MISS %:     34.968   MPKI: 54.853
L1D PREFETCH  ACCESS:    1622625  HIT:     263324  MISS:    1359301  HIT %:    16.2283  MISS %:    83.7717   MPKI: 6.7965
L1D PREFETCH  REQUESTED:    4149523  ISSUED:    4104987  USEFUL:    1359297  USELESS:          0
L1D USEFUL LOAD PREFETCHES:    1359297 PREFETCH ISSUED TO LOWER LEVEL:    1583906  ACCURACY: 85.8193
L1D TIMELY PREFETCHES:    1359297 LATE PREFETCHES: 224605 DROPPED PREFETCHES: 0
L1D COMMIT LATE PREFETCHES: 0 MISSED OPPORTUNITY: 0 LATE IN PQ: 345099 UNCOVERED: 0
L1D COMMIT LATE MSHR PREFETCHES: 0
L1D MPKI TOTAL: 4.26873 MSHR LATE: 1.12302 PQ LATE: 1.72549 COMMIT LATE: 0 MISSED OPPORTUNITY: 0 UNCOVERED: 0
L1D PREFETCHES SAME FILL-ORIGIN LEVEL: 1583906 DIFFERENT FILL-ORIGIN LEVEL: 0
L1D AVERAGE MISS LATENCY: 345.065 cycles
L1D AVERAGE MISS LATENCY LOAD: 343.368 cycles
L1D AVERAGE MISS LATENCY PREFETCH: 493.605 cycles
L1D AVERAGE MSHR OCCUPANCY: 15.125
L1D MSHR FULL: 0.880196
L1D RQ	ACCESS:   48469291	FORWARD:          0	MERGED:   22086491	TO_CACHE:   19912165
L1D WQ	ACCESS:   34563861	FORWARD:    6470635	MERGED:    3075117	TO_CACHE:   31488744
L1D PQ	ACCESS:    2052500	FORWARD:          0	MERGED:         13	TO_CACHE:    2052487

L1D UNIQUE REGIONS ACCESSED: 0
L1D REGIONS CONFLICTS: 0
L1D Cross Page Prefetch Requests: 0
L1D Same Page Prefetch Requests: 2344936
L1D ROI Sum of L1D PQ occupancy: 1376215145
L1D PREFETCHES PUSHED FROM L2C: 0
402058: 3
402065: 33
40208c: 66
40206d: 96
4023cc: 109
401cdb: 15908
401d14: 20892
401d43: 25128
401e02: 75928
401e33: 81584
401e67: 102232
401cb0: 277938
L1I TOTAL     ACCESS:   34489836  HIT:   34489836  MISS:          0  HIT %:        100  MISS %:          0   MPKI: 0
L1I Test counter:          0
L1I LOAD      ACCESS:   34489836  HIT:   34489836  MISS:          0  HIT %:        100  MISS %:          0   MPKI: 0
L1I PREFETCH  REQUESTED:          0  ISSUED:          0  USEFUL:          0  USELESS:          0
L1I USEFUL LOAD PREFETCHES:          0 PREFETCH ISSUED TO LOWER LEVEL:          0  ACCURACY: -nan
L1I TIMELY PREFETCHES:          0 LATE PREFETCHES: 0 DROPPED PREFETCHES: 0
L1I COMMIT LATE PREFETCHES: 0 MISSED OPPORTUNITY: 0 LATE IN PQ: 0 UNCOVERED: 0
L1I COMMIT LATE MSHR PREFETCHES: 0
L1I MPKI TOTAL: 0 MSHR LATE: 0 PQ LATE: 0 COMMIT LATE: 0 MISSED OPPORTUNITY: 0 UNCOVERED: 0
L1I PREFETCHES SAME FILL-ORIGIN LEVEL: 0 DIFFERENT FILL-ORIGIN LEVEL: 0
L1I AVERAGE MISS LATENCY: -nan cycles
L1I AVERAGE MISS LATENCY LOAD: -nan cycles
L1I AVERAGE MISS LATENCY PREFETCH: -nan cycles
L1I AVERAGE MSHR OCCUPANCY: 0
L1I MSHR FULL: 0
L1I RQ	ACCESS:   49499299	FORWARD:          0	MERGED:   15009462	TO_CACHE:   34489837

BTB TOTAL     ACCESS:    3122104  HIT:    3122098  MISS:          6  HIT %:    99.9998  MISS %: 0.000192178   MPKI: 3e-05
BTB Test counter:          0
BTB BRANCH_DIRECT_JUMP	ACCESS:     397756  HIT:     397755  MISS:          1
BTB BRANCH_INDIRECT	ACCESS:          0  HIT:          0  MISS:          0
BTB BRANCH_CONDITIONAL	ACCESS:    2724348  HIT:    2724343  MISS:          5
BTB BRANCH_DIRECT_CALL	ACCESS:          0  HIT:          0  MISS:          0
BTB BRANCH_INDIRECT_CALL	ACCESS:          0  HIT:          0  MISS:          0
BTB BRANCH_RETURN	ACCESS:          0  HIT:          0  MISS:          0
BTB BRANCH_OTHER ACCESS:          0  HIT:          0  MISS:          0

L2C TOTAL     ACCESS:   24022906  HIT:   16093853  MISS:    7929053  HIT %:    66.9938  MISS %:    33.0062   MPKI: 39.6453
L2C Test counter:          0
L2C LOAD      ACCESS:     375312  HIT:         99  MISS:     375213  HIT %:  0.0263781  MISS %:    99.9736   MPKI: 1.87606
L2C DATA LOAD MPKI: 1.87606
L2C INSTRUCTION LOAD MPKI: 0
L2C RFO       ACCESS:   10970602  HIT:    5016643  MISS:    5953959  HIT %:    45.7281  MISS %:    54.2719   MPKI: 29.7698
L2C PREFETCH  ACCESS:    1583906  HIT:          0  MISS:    1583906  HIT %:          0  MISS %:        100   MPKI: 7.91953
L2C DATA PREFETCH MPKI: 7.91953
L2C INSTRUCTION PREFETCH MPKI: 0
L2C WRITEBACK ACCESS:   10970610  HIT:   10970103  MISS:        507  HIT %:    99.9954  MISS %: 0.00462144   MPKI: 0.002535
L2C LOAD TRANSLATION ACCESS:     122476  HIT:     107008  MISS:      15468  HIT %:    87.3706  MISS %:    12.6294   MPKI: 0.07734
L2C PREFETCH  REQUESTED:          0  ISSUED:          0  USEFUL:          0  USELESS:    1584789
L2C USEFUL LOAD PREFETCHES:          0 PREFETCH ISSUED TO LOWER LEVEL:    1583906  ACCURACY: 0
L2C TIMELY PREFETCHES:          0 LATE PREFETCHES: 0 DROPPED PREFETCHES: 0
L2C COMMIT LATE PREFETCHES: 0 MISSED OPPORTUNITY: 0 LATE IN PQ: 0 UNCOVERED: 0
L2C COMMIT LATE MSHR PREFETCHES: 0
L2C MPKI TOTAL: 1.87606 MSHR LATE: 0 PQ LATE: 0 COMMIT LATE: 0 MISSED OPPORTUNITY: 0 UNCOVERED: 0
L2C PREFETCHES SAME FILL-ORIGIN LEVEL: 0 DIFFERENT FILL-ORIGIN LEVEL: 0
L2C AVERAGE MISS LATENCY: 558.63 cycles
L2C AVERAGE MISS LATENCY LOAD: 533.686 cycles
L2C AVERAGE MISS LATENCY PREFETCH: 509.378 cycles
L2C AVERAGE MSHR OCCUPANCY: 11.213
L2C MSHR FULL: 0
L2C RQ	ACCESS:   11468408	FORWARD:          0	MERGED:          0	TO_CACHE:   11468404
L2C WQ	ACCESS:   10970610	FORWARD:          4	MERGED:          0	TO_CACHE:   10970610
L2C PQ	ACCESS:    1583906	FORWARD:          0	MERGED:          0	TO_CACHE:    1583906

L2C Instructions Evicting Data 0
L2C Translations Evicting Data 15406
L2C Data Evicting Data 7897663
L2C Instructions Evicting Instructions 0
L2C Translations Evicting Instructions 0
L2C Data Evicting Instructions 0
L2C Instructions Evicting Translations 0
L2C Translations Evicting Translations 62
L2C Data Evicting Translations 15415
L2C Dense regions hint from L2: 0
402058: 3
402065: 20
40208c: 49
40206d: 66
4023cc: 70
401cdb: 10134
401d14: 10774
401d43: 14903
401e02: 42176
401e33: 43597
401e67: 53558
401cb0: 199863
PSCL5 TOTAL     ACCESS:     122470  HIT:     122470  MISS:          0  HIT %:        100  MISS %:          0   MPKI: 0
PSCL5 Test counter:          0
PSCL5 LOAD TRANSLATION ACCESS:     122470  HIT:     122470  MISS:          0  HIT %:        100  MISS %:          0   MPKI: 0
PSCL5 PREFETCH  REQUESTED:          0  ISSUED:          0  USEFUL:          0  USELESS:          0
PSCL5 USEFUL LOAD PREFETCHES:          0 PREFETCH ISSUED TO LOWER LEVEL:          0  ACCURACY: -nan
PSCL5 TIMELY PREFETCHES:          0 LATE PREFETCHES: 0 DROPPED PREFETCHES: 0
PSCL5 COMMIT LATE PREFETCHES: 0 MISSED OPPORTUNITY: 0 LATE IN PQ: 0 UNCOVERED: 0
PSCL5 COMMIT LATE MSHR PREFETCHES: 0
PSCL5 MPKI TOTAL: 0 MSHR LATE: 0 PQ LATE: 0 COMMIT LATE: 0 MISSED OPPORTUNITY: 0 UNCOVERED: 0
PSCL5 PREFETCHES SAME FILL-ORIGIN LEVEL: 0 DIFFERENT FILL-ORIGIN LEVEL: 0

PSCL4 TOTAL     ACCESS:     122470  HIT:     122470  MISS:          0  HIT %:        100  MISS %:          0   MPKI: 0
PSCL4 Test counter:          0
PSCL4 LOAD TRANSLATION ACCESS:     122470  HIT:     122470  MISS:          0  HIT %:        100  MISS %:          0   MPKI: 0
PSCL4 PREFETCH  REQUESTED:          0  ISSUED:          0  USEFUL:          0  USELESS:          0
PSCL4 USEFUL LOAD PREFETCHES:          0 PREFETCH ISSUED TO LOWER LEVEL:          0  ACCURACY: -nan
PSCL4 TIMELY PREFETCHES:          0 LATE PREFETCHES: 0 DROPPED PREFETCHES: 0
PSCL4 COMMIT LATE PREFETCHES: 0 MISSED OPPORTUNITY: 0 LATE IN PQ: 0 UNCOVERED: 0
PSCL4 COMMIT LATE MSHR PREFETCHES: 0
PSCL4 MPKI TOTAL: 0 MSHR LATE: 0 PQ LATE: 0 COMMIT LATE: 0 MISSED OPPORTUNITY: 0 UNCOVERED: 0
PSCL4 PREFETCHES SAME FILL-ORIGIN LEVEL: 0 DIFFERENT FILL-ORIGIN LEVEL: 0

PSCL3 TOTAL     ACCESS:     122470  HIT:     122469  MISS:          1  HIT %:    99.9992  MISS %: 0.000816526   MPKI: 5e-06
PSCL3 Test counter:          0
PSCL3 LOAD TRANSLATION ACCESS:     122470  HIT:     122469  MISS:          1  HIT %:    99.9992  MISS %: 0.000816526   MPKI: 5e-06
PSCL3 PREFETCH  REQUESTED:          0  ISSUED:          0  USEFUL:          0  USELESS:          0
PSCL3 USEFUL LOAD PREFETCHES:          0 PREFETCH ISSUED TO LOWER LEVEL:          0  ACCURACY: -nan
PSCL3 TIMELY PREFETCHES:          0 LATE PREFETCHES: 0 DROPPED PREFETCHES: 0
PSCL3 COMMIT LATE PREFETCHES: 0 MISSED OPPORTUNITY: 0 LATE IN PQ: 0 UNCOVERED: 0
PSCL3 COMMIT LATE MSHR PREFETCHES: 0
PSCL3 MPKI TOTAL: 0 MSHR LATE: 0 PQ LATE: 0 COMMIT LATE: 0 MISSED OPPORTUNITY: 0 UNCOVERED: 0
PSCL3 PREFETCHES SAME FILL-ORIGIN LEVEL: 0 DIFFERENT FILL-ORIGIN LEVEL: 0

PSCL2 TOTAL     ACCESS:     122470  HIT:     122344  MISS:        126  HIT %:    99.8971  MISS %:   0.102882   MPKI: 0.00063
PSCL2 Test counter:          0
PSCL2 LOAD TRANSLATION ACCESS:     122470  HIT:     122344  MISS:        126  HIT %:    99.8971  MISS %:   0.102882   MPKI: 0.00063
PSCL2 PREFETCH  REQUESTED:          0  ISSUED:          0  USEFUL:          0  USELESS:          0
PSCL2 USEFUL LOAD PREFETCHES:          0 PREFETCH ISSUED TO LOWER LEVEL:          0  ACCURACY: -nan
PSCL2 TIMELY PREFETCHES:          0 LATE PREFETCHES: 0 DROPPED PREFETCHES: 0
PSCL2 COMMIT LATE PREFETCHES: 0 MISSED OPPORTUNITY: 0 LATE IN PQ: 0 UNCOVERED: 0
PSCL2 COMMIT LATE MSHR PREFETCHES: 0
PSCL2 MPKI TOTAL: 0 MSHR LATE: 0 PQ LATE: 0 COMMIT LATE: 0 MISSED OPPORTUNITY: 0 UNCOVERED: 0
PSCL2 PREFETCHES SAME FILL-ORIGIN LEVEL: 0 DIFFERENT FILL-ORIGIN LEVEL: 0

LLC TOTAL     ACCESS:   13882219  HIT:    6030634  MISS:    7851585  HIT %:    43.4414  MISS %:    56.5586   MPKI: 39.2579
LLC Test counter:          0
LLC LOAD      ACCESS:     375213  HIT:         73  MISS:     375140  HIT %:  0.0194556  MISS %:    99.9805   MPKI: 1.8757
LLC RFO       ACCESS:    5953864  HIT:      77148  MISS:    5876716  HIT %:    1.29576  MISS %:    98.7042   MPKI: 29.3836
LLC PREFETCH  ACCESS:    1583906  HIT:          0  MISS:    1583906  HIT %:          0  MISS %:        100   MPKI: 7.91953
LLC WRITEBACK ACCESS:    5953768  HIT:    5953413  MISS:        355  HIT %:     99.994  MISS %: 0.00596261   MPKI: 0.001775
LLC LOAD TRANSLATION ACCESS:      15468  HIT:          0  MISS:      15468  HIT %:          0  MISS %:        100   MPKI: 0.07734
LLC PREFETCH  REQUESTED:          0  ISSUED:          0  USEFUL:          0  USELESS:    1588997
LLC USEFUL LOAD PREFETCHES:          0 PREFETCH ISSUED TO LOWER LEVEL:    1583906  ACCURACY: 0
LLC TIMELY PREFETCHES:          0 LATE PREFETCHES: 0 DROPPED PREFETCHES: 0
LLC COMMIT LATE PREFETCHES: 0 MISSED OPPORTUNITY: 0 LATE IN PQ: 0 UNCOVERED: 0
LLC COMMIT LATE MSHR PREFETCHES: 0
LLC MPKI TOTAL: 1.8757 MSHR LATE: 0 PQ LATE: 0 COMMIT LATE: 0 MISSED OPPORTUNITY: 0 UNCOVERED: 0
LLC PREFETCHES SAME FILL-ORIGIN LEVEL: 0 DIFFERENT FILL-ORIGIN LEVEL: 0
LLC AVERAGE MISS LATENCY: 533.12 cycles
LLC AVERAGE MISS LATENCY LOAD: 503.475 cycles
LLC AVERAGE MISS LATENCY PREFETCH: 478.895 cycles
LLC AVERAGE MSHR OCCUPANCY: 10.8102
LLC MSHR FULL: 0
LLC RQ	ACCESS:    6344654	FORWARD:          0	MERGED:          0	TO_CACHE:    6344555
LLC WQ	ACCESS:    5953769	FORWARD:         99	MERGED:          0	TO_CACHE:    5953769
LLC PQ	ACCESS:    1583906	FORWARD:          0	MERGED:          0	TO_CACHE:    1583906

LLC Dense regions hint to LLC: 0
402058: 2
402065: 15
40208c: 31
40206d: 43
4023cc: 44
401cdb: 10134
401d14: 10774
401d43: 14903
401e02: 42176
401e33: 43597
401e67: 53558
401cb0: 199863

RAW hits: 1924589
Loads Generated: 50393882
Loads sent to L1D: 48469291
Stores Generated: 34563852
Stores sent to L1D: 34563861
Major fault: 0 Minor fault: 72955
Allocated PAGES: 72955
Total Load insts: 58442174
Total Non-spec loads: 3793733
Percentage of speculative loads: 93.5086
L1D response latency: 548.856 cycles
Load retirement latency: 1136.52 cycles


stream: 
stream:times selected: 9326625
stream:pref_filled: 175069
stream:pref_useful: 175069
stream:pref_late: 57089
stream:misses: 126680
stream:misses_by_poll: 0

CS: 
CS:times selected: 1622334
CS:pref_filled: 799232
CS:pref_useful: 799226
CS:pref_late: 87138
CS:misses: 214886
CS:misses_by_poll: 3848

CPLX: 
CPLX:times selected: 7697879
CPLX:pref_filled: 646925
CPLX:pref_useful: 646922
CPLX:pref_late: 77504
CPLX:misses: 511123
CPLX:misses_by_poll: 3967

NL_L1: 
NL:times selected: 4214
NL:pref_filled: 151
NL:pref_useful: 151
NL:pref_late: 123
NL:misses: 543
NL:misses_by_poll: 0

total selections: 18651052
total_filled: 1359301
total_useful: 1359297
total_late: 225057
total_polluted: 7815
total_misses_after_warmup: 853747
conflicts: 95981
Degree Incremented Times: 321299
Degree Decremented Times: 0

L1 IP Table Write Accesses: 19371562
L1 IP Table Read Accesses: 19275581
L1 RST Write Accesses: 7389939
L1 RST Read Accesses: 14779878
L1 CSPT Write Accesses: 7389939
L1 CSPT Read Accesses: 23597119
L1 RR Filter Tag Write Accesses: 2097036
L1 RR Filter Tag Read Accesses: 1206919357
L1 IP Table Tag Write Accesses: 19912164
L1 IP Table Tag Read Accesses: 19912164
L1 RST Tag Write Accesses: 0
L1 RST Tag Read Accesses: 66781176
L1 RR Filter Write Accesses: 0
L1 RR Filter Read Accesses: 55320110
test: 1192066

DRAM Statistics
 CHANNEL 0
 RQ ROW_BUFFER_HIT:     544386  ROW_BUFFER_MISS:    7306844
 DBUS_CONGESTED:          1
 WQ ROW_BUFFER_HIT:    1247723  ROW_BUFFER_MISS:    4625708  FULL:          0

 AVG_CONGESTED_CYCLE: 3
 All warmup complete: 2
Channel 0 Bank busy for read cycles: 0
Channel 0 Bank busy for write cycles: 0
Channel 0
Rank 0
0banks busy for read cycles: 49348
0banks busy for write cycles: 0
1banks busy for read cycles: 2920087
1banks busy for write cycles: 590005
2banks busy for read cycles: 4607509
2banks busy for write cycles: 589999
3banks busy for read cycles: 8434045
3banks busy for write cycles: 589990
4banks busy for read cycles: 15879434
4banks busy for write cycles: 589959
5banks busy for read cycles: 35799190
5banks busy for write cycles: 589955
6banks busy for read cycles: 47953264
6banks busy for write cycles: 590569
7banks busy for read cycles: 55081170
7banks busy for write cycles: 6474588
8banks busy for read cycles: 41768945
8banks busy for write cycles: 113717226

CPU 0 Branch Prediction Accuracy: 97.6561% MPKI: 0.365925 Average ROB Occupancy at Mispredict: 171.818
Branch types
NOT_BRANCH: 196877355 98.4387%
BRANCH_DIRECT_JUMP: 397756 0.198878%
BRANCH_INDIRECT: 0 0%
BRANCH_CONDITIONAL: 2724542 1.36227%
BRANCH_DIRECT_CALL: 0 0%
BRANCH_INDIRECT_CALL: 0 0%
BRANCH_RETURN: 0 0%
BRANCH_OTHER: 0 0%

DRAM PAGES: 1048576
Allocated PAGES: 72955
