
*** ChampSim Multicore Out-of-Order Simulator ***

Warmup Instructions: 50000000
Simulation Instructions: 200000000
Number of CPUs: 1
LLC sets: 2048
LLC ways: 16
Secure Berti: OFF
Berti: OFF
Berti Fill: OFF
On commit prefetching: OFF
L2 LLC Bypass speculative loads: OFF
Off-chip DRAM Size: 4096 MB Channels: 1 Width: 64-bit Data Rate: 6400 MT/s
CPU 0 runs /home/sumon/secure_berti/Berti_Baseline/../../traces/spec/619.lbm_s-4268B.champsimtrace.xz
.xz
BTB has LRU replacement policy
ITLB has LRU replacement policy
DTLB has LRU replacement policy
STLB has LRU replacement policy
L1I has LRU replacement policy
IP Table Entries: 1024
CSPT Entries: 128
RR_ENTRIES: 32
RST_ENTRIES: 8
L1D has LRU replacement policy
L2C has LRU replacement policy
LLC has LRU replacement policy
Heartbeat CPU 0 instructions: 10000000 cycles: 2904862 heartbeat IPC: 3.4425 cumulative IPC: 3.4425 (Simulation time: 0 hr 0 min 24 sec) 
Heartbeat CPU 0 instructions: 20000001 cycles: 5808255 heartbeat IPC: 3.44425 cumulative IPC: 3.44338 (Simulation time: 0 hr 0 min 48 sec) 
Heartbeat CPU 0 instructions: 30000000 cycles: 8707548 heartbeat IPC: 3.44912 cumulative IPC: 3.44529 (Simulation time: 0 hr 1 min 11 sec) 
Heartbeat CPU 0 instructions: 40000000 cycles: 11613300 heartbeat IPC: 3.44145 cumulative IPC: 3.44433 (Simulation time: 0 hr 1 min 34 sec) 
Heartbeat CPU 0 instructions: 50000002 cycles: 14519874 heartbeat IPC: 3.44048 cumulative IPC: 3.44356 (Simulation time: 0 hr 1 min 57 sec) 

Warmup complete CPU 0 instructions: 50000002 cycles: 14519874 (Simulation time: 0 hr 1 min 57 sec) 

Heartbeat CPU 0 instructions: 60000001 cycles: 34921015 heartbeat IPC: 0.490169 cumulative IPC: 0.490169 (Simulation time: 0 hr 2 min 57 sec) 
Heartbeat CPU 0 instructions: 70000000 cycles: 54920698 heartbeat IPC: 0.500008 cumulative IPC: 0.495039 (Simulation time: 0 hr 3 min 56 sec) 
Heartbeat CPU 0 instructions: 80000000 cycles: 74690246 heartbeat IPC: 0.505828 cumulative IPC: 0.498584 (Simulation time: 0 hr 4 min 53 sec) 
Heartbeat CPU 0 instructions: 90000001 cycles: 94715832 heartbeat IPC: 0.499361 cumulative IPC: 0.498778 (Simulation time: 0 hr 5 min 53 sec) 
Heartbeat CPU 0 instructions: 100000001 cycles: 114374502 heartbeat IPC: 0.508681 cumulative IPC: 0.500728 (Simulation time: 0 hr 6 min 51 sec) 
Heartbeat CPU 0 instructions: 110000000 cycles: 134364724 heartbeat IPC: 0.500244 cumulative IPC: 0.500647 (Simulation time: 0 hr 7 min 51 sec) 
Heartbeat CPU 0 instructions: 120000001 cycles: 154697555 heartbeat IPC: 0.491815 cumulative IPC: 0.499366 (Simulation time: 0 hr 8 min 50 sec) 
Heartbeat CPU 0 instructions: 130000002 cycles: 174416094 heartbeat IPC: 0.507137 cumulative IPC: 0.500325 (Simulation time: 0 hr 9 min 49 sec) 
Heartbeat CPU 0 instructions: 140000003 cycles: 194501573 heartbeat IPC: 0.497872 cumulative IPC: 0.500051 (Simulation time: 0 hr 10 min 46 sec) 
Heartbeat CPU 0 instructions: 150000001 cycles: 214586999 heartbeat IPC: 0.497873 cumulative IPC: 0.499832 (Simulation time: 0 hr 11 min 43 sec) 
Heartbeat CPU 0 instructions: 160000001 cycles: 235097845 heartbeat IPC: 0.487547 cumulative IPC: 0.49869 (Simulation time: 0 hr 12 min 39 sec) 
Heartbeat CPU 0 instructions: 170000002 cycles: 255378953 heartbeat IPC: 0.49307 cumulative IPC: 0.498217 (Simulation time: 0 hr 13 min 35 sec) 
Heartbeat CPU 0 instructions: 180000001 cycles: 275617625 heartbeat IPC: 0.494104 cumulative IPC: 0.497898 (Simulation time: 0 hr 14 min 30 sec) 
Heartbeat CPU 0 instructions: 190000002 cycles: 296023244 heartbeat IPC: 0.490061 cumulative IPC: 0.49733 (Simulation time: 0 hr 15 min 26 sec) 
Heartbeat CPU 0 instructions: 200000000 cycles: 316239630 heartbeat IPC: 0.494648 cumulative IPC: 0.49715 (Simulation time: 0 hr 16 min 21 sec) 
Heartbeat CPU 0 instructions: 210000001 cycles: 336930908 heartbeat IPC: 0.483295 cumulative IPC: 0.496261 (Simulation time: 0 hr 17 min 17 sec) 
Heartbeat CPU 0 instructions: 220000000 cycles: 357420203 heartbeat IPC: 0.48806 cumulative IPC: 0.495771 (Simulation time: 0 hr 18 min 13 sec) 
Heartbeat CPU 0 instructions: 230000000 cycles: 377752868 heartbeat IPC: 0.491819 cumulative IPC: 0.49555 (Simulation time: 0 hr 19 min 7 sec) 
Heartbeat CPU 0 instructions: 240000001 cycles: 398200220 heartbeat IPC: 0.489061 cumulative IPC: 0.495204 (Simulation time: 0 hr 20 min 2 sec) 
Heartbeat CPU 0 instructions: 250000000 cycles: 418104168 heartbeat IPC: 0.502413 cumulative IPC: 0.495559 (Simulation time: 0 hr 20 min 56 sec) 
Finished CPU 0 instructions: 200000002 cycles: 403584301 cumulative IPC: 0.495559 (Simulation time: 0 hr 20 min 56 sec) 

ChampSim completed all CPUs

Region of Interest Statistics

CPU 0 cumulative IPC: 0.495559 instructions: 200000002 cycles: 403584301
ITLB TOTAL     ACCESS:   27028864  HIT:   27028864  MISS:          0  HIT %:        100  MISS %:          0   MPKI: 0
ITLB Test counter:          0
ITLB LOAD TRANSLATION ACCESS:   27028864  HIT:   27028864  MISS:          0  HIT %:        100  MISS %:          0   MPKI: 0
ITLB PREFETCH  REQUESTED:          0  ISSUED:          0  USEFUL:          0  USELESS:          0
ITLB USEFUL LOAD PREFETCHES:          0 PREFETCH ISSUED TO LOWER LEVEL:          0  ACCURACY: -nan
ITLB TIMELY PREFETCHES:          0 LATE PREFETCHES: 0 DROPPED PREFETCHES: 0
ITLB COMMIT LATE PREFETCHES: 0 MISSED OPPORTUNITY: 0 LATE IN PQ: 0 UNCOVERED: 0
ITLB COMMIT LATE MSHR PREFETCHES: 0
ITLB MPKI TOTAL: 0 MSHR LATE: 0 PQ LATE: 0 COMMIT LATE: 0 MISSED OPPORTUNITY: 0 UNCOVERED: 0
ITLB PREFETCHES SAME FILL-ORIGIN LEVEL: 0 DIFFERENT FILL-ORIGIN LEVEL: 0
ITLB AVERAGE MISS LATENCY: -nan cycles
ITLB AVERAGE MISS LATENCY LOAD: -nan cycles
ITLB AVERAGE MISS LATENCY PREFETCH: -nan cycles
ITLB AVERAGE MSHR OCCUPANCY: 0
ITLB MSHR FULL: 0
ITLB RQ	ACCESS:   34770364	FORWARD:          0	MERGED:    7741499	TO_CACHE:   27028865

DTLB TOTAL     ACCESS:   35697598  HIT:   35421071  MISS:     276527  HIT %:    99.2254  MISS %:   0.774638   MPKI: 1.38263
DTLB Test counter:          0
DTLB LOAD TRANSLATION ACCESS:   35697598  HIT:   35421071  MISS:     276527  HIT %:    99.2254  MISS %:   0.774638   MPKI: 1.38263
DTLB PREFETCH  REQUESTED:          0  ISSUED:          0  USEFUL:          0  USELESS:          0
DTLB USEFUL LOAD PREFETCHES:          0 PREFETCH ISSUED TO LOWER LEVEL:          0  ACCURACY: -nan
DTLB TIMELY PREFETCHES:          0 LATE PREFETCHES: 0 DROPPED PREFETCHES: 0
DTLB COMMIT LATE PREFETCHES: 0 MISSED OPPORTUNITY: 0 LATE IN PQ: 0 UNCOVERED: 0
DTLB COMMIT LATE MSHR PREFETCHES: 0
DTLB MPKI TOTAL: 0 MSHR LATE: 0 PQ LATE: 0 COMMIT LATE: 0 MISSED OPPORTUNITY: 0 UNCOVERED: 0
DTLB PREFETCHES SAME FILL-ORIGIN LEVEL: 0 DIFFERENT FILL-ORIGIN LEVEL: 0
DTLB AVERAGE MISS LATENCY: 110.309 cycles
DTLB AVERAGE MISS LATENCY LOAD: -nan cycles
DTLB AVERAGE MISS LATENCY PREFETCH: -nan cycles
DTLB AVERAGE MSHR OCCUPANCY: 0.0776571
DTLB MSHR FULL: 0
DTLB RQ	ACCESS:   49777781	FORWARD:          0	MERGED:   13973039	TO_CACHE:   35804742

STLB TOTAL     ACCESS:    1724600  HIT:    1574552  MISS:     150048  HIT %:    91.2995  MISS %:    8.70045   MPKI: 0.75024
STLB Test counter:          0
STLB LOAD TRANSLATION ACCESS:     276527  HIT:     126479  MISS:     150048  HIT %:    45.7384  MISS %:    54.2616   MPKI: 0.75024
STLB TRANSLATION FROM L1D PREFETCHER ACCESS:    1448073  HIT:    1448073  MISS:          0  HIT %:        100  MISS %:          0   MPKI: 0
STLB PREFETCH  REQUESTED:          0  ISSUED:          0  USEFUL:          0  USELESS:          0
STLB USEFUL LOAD PREFETCHES:          0 PREFETCH ISSUED TO LOWER LEVEL:          0  ACCURACY: -nan
STLB TIMELY PREFETCHES:          0 LATE PREFETCHES: 0 DROPPED PREFETCHES: 0
STLB COMMIT LATE PREFETCHES: 0 MISSED OPPORTUNITY: 0 LATE IN PQ: 0 UNCOVERED: 0
STLB COMMIT LATE MSHR PREFETCHES: 0
STLB MPKI TOTAL: 0 MSHR LATE: 0 PQ LATE: 0 COMMIT LATE: 0 MISSED OPPORTUNITY: 0 UNCOVERED: 0
STLB PREFETCHES SAME FILL-ORIGIN LEVEL: 0 DIFFERENT FILL-ORIGIN LEVEL: 0
STLB AVERAGE MISS LATENCY: 184.456 cycles
STLB AVERAGE MISS LATENCY LOAD: -nan cycles
STLB AVERAGE MISS LATENCY PREFETCH: -nan cycles
STLB AVERAGE MSHR OCCUPANCY: 0.0625699
STLB MSHR FULL: 0
STLB RQ	ACCESS:    2789946	FORWARD:          0	MERGED:    1065346	TO_CACHE:    1724600

STLB Hit, L1D data hit: 0
STLB Hit, L2C data hit: 0
STLB Hit, LLC data hit: 0
STLB Hit, LLC data miss: 0
STLB STLB hints to L2: 0
L1D TOTAL     ACCESS:   51118019  HIT:   35276681  MISS:   15841338  HIT %:    69.0103  MISS %:    30.9897   MPKI: 79.2067
L1D Test counter:          0
L1D LOAD      ACCESS:   16729182  HIT:   15847721  MISS:    1253625  HIT %:     94.731  MISS %:      5.269   MPKI: 4.4073
L1D RFO       ACCESS:   32507063  HIT:   19066218  MISS:   13440845  HIT %:    58.6525  MISS %:    41.3475   MPKI: 67.2042
L1D PREFETCH  ACCESS:    1881774  HIT:     362742  MISS:    1519032  HIT %:    19.2766  MISS %:    80.7234   MPKI: 7.59516
L1D PREFETCH  REQUESTED:    5095247  ISSUED:    5026866  USEFUL:    1519036  USELESS:          0
L1D USEFUL LOAD PREFETCHES:    1519036 PREFETCH ISSUED TO LOWER LEVEL:    1849767  ACCURACY: 82.1204
L1D TIMELY PREFETCHES:    1519036 LATE PREFETCHES: 330728 DROPPED PREFETCHES: 0
L1D COMMIT LATE PREFETCHES: 0 MISSED OPPORTUNITY: 0 LATE IN PQ: 518204 UNCOVERED: 0
L1D COMMIT LATE MSHR PREFETCHES: 0
L1D MPKI TOTAL: 6.26812 MSHR LATE: 1.65364 PQ LATE: 2.59102 COMMIT LATE: 0 MISSED OPPORTUNITY: 0 UNCOVERED: 0
L1D PREFETCHES SAME FILL-ORIGIN LEVEL: 1849767 DIFFERENT FILL-ORIGIN LEVEL: 0
L1D AVERAGE MISS LATENCY: 359.651 cycles
L1D AVERAGE MISS LATENCY LOAD: 344.425 cycles
L1D AVERAGE MISS LATENCY PREFETCH: 513.739 cycles
L1D AVERAGE MSHR OCCUPANCY: 15.606
L1D MSHR FULL: 0.942446
L1D RQ	ACCESS:   49697579	FORWARD:          0	MERGED:   23816292	TO_CACHE:   17101346
L1D WQ	ACCESS:   36967904	FORWARD:    8779941	MERGED:    4291469	TO_CACHE:   32676435
L1D PQ	ACCESS:    2513447	FORWARD:          0	MERGED:         28	TO_CACHE:    2513419

L1D UNIQUE REGIONS ACCESSED: 0
L1D REGIONS CONFLICTS: 0
L1D Cross Page Prefetch Requests: 0
L1D Same Page Prefetch Requests: 3154698
L1D ROI Sum of L1D PQ occupancy: 2048360165
L1D PREFETCHES PUSHED FROM L2C: 0
402058: 18
402065: 44
40208c: 98
40206d: 137
4023cc: 192
401cdb: 21563
401d14: 29399
401d43: 32765
401e02: 113747
401e33: 121568
401e67: 154617
401cb0: 407313
L1I TOTAL     ACCESS:   34770362  HIT:   34770362  MISS:          0  HIT %:        100  MISS %:          0   MPKI: 0
L1I Test counter:          0
L1I LOAD      ACCESS:   34770362  HIT:   34770362  MISS:          0  HIT %:        100  MISS %:          0   MPKI: 0
L1I PREFETCH  REQUESTED:          0  ISSUED:          0  USEFUL:          0  USELESS:          0
L1I USEFUL LOAD PREFETCHES:          0 PREFETCH ISSUED TO LOWER LEVEL:          0  ACCURACY: -nan
L1I TIMELY PREFETCHES:          0 LATE PREFETCHES: 0 DROPPED PREFETCHES: 0
L1I COMMIT LATE PREFETCHES: 0 MISSED OPPORTUNITY: 0 LATE IN PQ: 0 UNCOVERED: 0
L1I COMMIT LATE MSHR PREFETCHES: 0
L1I MPKI TOTAL: 0 MSHR LATE: 0 PQ LATE: 0 COMMIT LATE: 0 MISSED OPPORTUNITY: 0 UNCOVERED: 0
L1I PREFETCHES SAME FILL-ORIGIN LEVEL: 0 DIFFERENT FILL-ORIGIN LEVEL: 0
L1I AVERAGE MISS LATENCY: -nan cycles
L1I AVERAGE MISS LATENCY LOAD: -nan cycles
L1I AVERAGE MISS LATENCY PREFETCH: -nan cycles
L1I AVERAGE MSHR OCCUPANCY: 0
L1I MSHR FULL: 0
L1I RQ	ACCESS:   50459769	FORWARD:          0	MERGED:   15689405	TO_CACHE:   34770364

BTB TOTAL     ACCESS:    3614433  HIT:    3614427  MISS:          6  HIT %:    99.9998  MISS %: 0.000166001   MPKI: 3e-05
BTB Test counter:          0
BTB BRANCH_DIRECT_JUMP	ACCESS:     592790  HIT:     592789  MISS:          1
BTB BRANCH_INDIRECT	ACCESS:          0  HIT:          0  MISS:          0
BTB BRANCH_CONDITIONAL	ACCESS:    3021643  HIT:    3021638  MISS:          5
BTB BRANCH_DIRECT_CALL	ACCESS:          0  HIT:          0  MISS:          0
BTB BRANCH_INDIRECT_CALL	ACCESS:          0  HIT:          0  MISS:          0
BTB BRANCH_RETURN	ACCESS:          0  HIT:          0  MISS:          0
BTB BRANCH_OTHER ACCESS:          0  HIT:          0  MISS:          0

L2C TOTAL     ACCESS:   29432224  HIT:   19708182  MISS:    9724042  HIT %:    66.9612  MISS %:    33.0388   MPKI: 48.6202
L2C Test counter:          0
L2C LOAD      ACCESS:     550733  HIT:        145  MISS:     550588  HIT %:  0.0263285  MISS %:    99.9737   MPKI: 2.75294
L2C DATA LOAD MPKI: 2.75294
L2C INSTRUCTION LOAD MPKI: 0
L2C RFO       ACCESS:   13440830  HIT:    6136681  MISS:    7304149  HIT %:     45.657  MISS %:     54.343   MPKI: 36.5207
L2C PREFETCH  ACCESS:    1849760  HIT:          0  MISS:    1849760  HIT %:          0  MISS %:        100   MPKI: 9.2488
L2C DATA PREFETCH MPKI: 9.2488
L2C INSTRUCTION PREFETCH MPKI: 0
L2C WRITEBACK ACCESS:   13440845  HIT:   13440252  MISS:        593  HIT %:    99.9956  MISS %: 0.00441192   MPKI: 0.002965
L2C LOAD TRANSLATION ACCESS:     150056  HIT:     131104  MISS:      18952  HIT %:      87.37  MISS %:      12.63   MPKI: 0.09476
L2C PREFETCH  REQUESTED:          0  ISSUED:          0  USEFUL:          0  USELESS:    1848817
L2C USEFUL LOAD PREFETCHES:          0 PREFETCH ISSUED TO LOWER LEVEL:    1849767  ACCURACY: 0
L2C TIMELY PREFETCHES:          0 LATE PREFETCHES: 0 DROPPED PREFETCHES: 0
L2C COMMIT LATE PREFETCHES: 0 MISSED OPPORTUNITY: 0 LATE IN PQ: 0 UNCOVERED: 0
L2C COMMIT LATE MSHR PREFETCHES: 0
L2C MPKI TOTAL: 2.75294 MSHR LATE: 0 PQ LATE: 0 COMMIT LATE: 0 MISSED OPPORTUNITY: 0 UNCOVERED: 0
L2C PREFETCHES SAME FILL-ORIGIN LEVEL: 0 DIFFERENT FILL-ORIGIN LEVEL: 0
L2C AVERAGE MISS LATENCY: 586.006 cycles
L2C AVERAGE MISS LATENCY LOAD: 536.089 cycles
L2C AVERAGE MISS LATENCY PREFETCH: 533.722 cycles
L2C AVERAGE MSHR OCCUPANCY: 11.8674
L2C MSHR FULL: 0
L2C RQ	ACCESS:   14141643	FORWARD:          0	MERGED:          0	TO_CACHE:   14141628
L2C WQ	ACCESS:   13440845	FORWARD:         15	MERGED:          0	TO_CACHE:   13440845
L2C PQ	ACCESS:    1849767	FORWARD:          0	MERGED:          0	TO_CACHE:    1849767

L2C Instructions Evicting Data 0
L2C Translations Evicting Data 18894
L2C Data Evicting Data 9685613
L2C Instructions Evicting Instructions 0
L2C Translations Evicting Instructions 0
L2C Data Evicting Instructions 0
L2C Instructions Evicting Translations 0
L2C Translations Evicting Translations 58
L2C Data Evicting Translations 18884
L2C Dense regions hint from L2: 0
402058: 11
402065: 28
40208c: 72
40206d: 102
4023cc: 131
401cdb: 13566
401d14: 14902
401d43: 18871
401e02: 63434
401e33: 65186
401e67: 81702
401cb0: 292583
PSCL5 TOTAL     ACCESS:     150048  HIT:     150048  MISS:          0  HIT %:        100  MISS %:          0   MPKI: 0
PSCL5 Test counter:          0
PSCL5 LOAD TRANSLATION ACCESS:     150048  HIT:     150048  MISS:          0  HIT %:        100  MISS %:          0   MPKI: 0
PSCL5 PREFETCH  REQUESTED:          0  ISSUED:          0  USEFUL:          0  USELESS:          0
PSCL5 USEFUL LOAD PREFETCHES:          0 PREFETCH ISSUED TO LOWER LEVEL:          0  ACCURACY: -nan
PSCL5 TIMELY PREFETCHES:          0 LATE PREFETCHES: 0 DROPPED PREFETCHES: 0
PSCL5 COMMIT LATE PREFETCHES: 0 MISSED OPPORTUNITY: 0 LATE IN PQ: 0 UNCOVERED: 0
PSCL5 COMMIT LATE MSHR PREFETCHES: 0
PSCL5 MPKI TOTAL: 0 MSHR LATE: 0 PQ LATE: 0 COMMIT LATE: 0 MISSED OPPORTUNITY: 0 UNCOVERED: 0
PSCL5 PREFETCHES SAME FILL-ORIGIN LEVEL: 0 DIFFERENT FILL-ORIGIN LEVEL: 0

PSCL4 TOTAL     ACCESS:     150048  HIT:     150048  MISS:          0  HIT %:        100  MISS %:          0   MPKI: 0
PSCL4 Test counter:          0
PSCL4 LOAD TRANSLATION ACCESS:     150048  HIT:     150048  MISS:          0  HIT %:        100  MISS %:          0   MPKI: 0
PSCL4 PREFETCH  REQUESTED:          0  ISSUED:          0  USEFUL:          0  USELESS:          0
PSCL4 USEFUL LOAD PREFETCHES:          0 PREFETCH ISSUED TO LOWER LEVEL:          0  ACCURACY: -nan
PSCL4 TIMELY PREFETCHES:          0 LATE PREFETCHES: 0 DROPPED PREFETCHES: 0
PSCL4 COMMIT LATE PREFETCHES: 0 MISSED OPPORTUNITY: 0 LATE IN PQ: 0 UNCOVERED: 0
PSCL4 COMMIT LATE MSHR PREFETCHES: 0
PSCL4 MPKI TOTAL: 0 MSHR LATE: 0 PQ LATE: 0 COMMIT LATE: 0 MISSED OPPORTUNITY: 0 UNCOVERED: 0
PSCL4 PREFETCHES SAME FILL-ORIGIN LEVEL: 0 DIFFERENT FILL-ORIGIN LEVEL: 0

PSCL3 TOTAL     ACCESS:     150048  HIT:     150048  MISS:          0  HIT %:        100  MISS %:          0   MPKI: 0
PSCL3 Test counter:          0
PSCL3 LOAD TRANSLATION ACCESS:     150048  HIT:     150048  MISS:          0  HIT %:        100  MISS %:          0   MPKI: 0
PSCL3 PREFETCH  REQUESTED:          0  ISSUED:          0  USEFUL:          0  USELESS:          0
PSCL3 USEFUL LOAD PREFETCHES:          0 PREFETCH ISSUED TO LOWER LEVEL:          0  ACCURACY: -nan
PSCL3 TIMELY PREFETCHES:          0 LATE PREFETCHES: 0 DROPPED PREFETCHES: 0
PSCL3 COMMIT LATE PREFETCHES: 0 MISSED OPPORTUNITY: 0 LATE IN PQ: 0 UNCOVERED: 0
PSCL3 COMMIT LATE MSHR PREFETCHES: 0
PSCL3 MPKI TOTAL: 0 MSHR LATE: 0 PQ LATE: 0 COMMIT LATE: 0 MISSED OPPORTUNITY: 0 UNCOVERED: 0
PSCL3 PREFETCHES SAME FILL-ORIGIN LEVEL: 0 DIFFERENT FILL-ORIGIN LEVEL: 0

PSCL2 TOTAL     ACCESS:     150048  HIT:     149894  MISS:        154  HIT %:    99.8974  MISS %:   0.102634   MPKI: 0.00077
PSCL2 Test counter:          0
PSCL2 LOAD TRANSLATION ACCESS:     150048  HIT:     149894  MISS:        154  HIT %:    99.8974  MISS %:   0.102634   MPKI: 0.00077
PSCL2 PREFETCH  REQUESTED:          0  ISSUED:          0  USEFUL:          0  USELESS:          0
PSCL2 USEFUL LOAD PREFETCHES:          0 PREFETCH ISSUED TO LOWER LEVEL:          0  ACCURACY: -nan
PSCL2 TIMELY PREFETCHES:          0 LATE PREFETCHES: 0 DROPPED PREFETCHES: 0
PSCL2 COMMIT LATE PREFETCHES: 0 MISSED OPPORTUNITY: 0 LATE IN PQ: 0 UNCOVERED: 0
PSCL2 COMMIT LATE MSHR PREFETCHES: 0
PSCL2 MPKI TOTAL: 0 MSHR LATE: 0 PQ LATE: 0 COMMIT LATE: 0 MISSED OPPORTUNITY: 0 UNCOVERED: 0
PSCL2 PREFETCHES SAME FILL-ORIGIN LEVEL: 0 DIFFERENT FILL-ORIGIN LEVEL: 0

LLC TOTAL     ACCESS:   17029586  HIT:    7409916  MISS:    9619670  HIT %:     43.512  MISS %:     56.488   MPKI: 48.0983
LLC Test counter:          0
LLC LOAD      ACCESS:     550588  HIT:         97  MISS:     550491  HIT %:  0.0176175  MISS %:    99.9824   MPKI: 2.75245
LLC RFO       ACCESS:    7304045  HIT:     104036  MISS:    7200009  HIT %:    1.42436  MISS %:    98.5756   MPKI: 36
LLC PREFETCH  ACCESS:    1849760  HIT:          0  MISS:    1849760  HIT %:          0  MISS %:        100   MPKI: 9.2488
LLC WRITEBACK ACCESS:    7306241  HIT:    7305783  MISS:        458  HIT %:    99.9937  MISS %: 0.00626861   MPKI: 0.00229
LLC LOAD TRANSLATION ACCESS:      18952  HIT:          0  MISS:      18952  HIT %:          0  MISS %:        100   MPKI: 0.09476
LLC PREFETCH  REQUESTED:          0  ISSUED:          0  USEFUL:          0  USELESS:    1846884
LLC USEFUL LOAD PREFETCHES:          0 PREFETCH ISSUED TO LOWER LEVEL:    1849767  ACCURACY: 0
LLC TIMELY PREFETCHES:          0 LATE PREFETCHES: 0 DROPPED PREFETCHES: 0
LLC COMMIT LATE PREFETCHES: 0 MISSED OPPORTUNITY: 0 LATE IN PQ: 0 UNCOVERED: 0
LLC COMMIT LATE MSHR PREFETCHES: 0
LLC MPKI TOTAL: 2.75245 MSHR LATE: 0 PQ LATE: 0 COMMIT LATE: 0 MISSED OPPORTUNITY: 0 UNCOVERED: 0
LLC PREFETCHES SAME FILL-ORIGIN LEVEL: 0 DIFFERENT FILL-ORIGIN LEVEL: 0
LLC AVERAGE MISS LATENCY: 561.27 cycles
LLC AVERAGE MISS LATENCY LOAD: 505.862 cycles
LLC AVERAGE MISS LATENCY PREFETCH: 503.223 cycles
LLC AVERAGE MSHR OCCUPANCY: 11.493
LLC MSHR FULL: 0
LLC RQ	ACCESS:    7873698	FORWARD:          0	MERGED:          0	TO_CACHE:    7873594
LLC WQ	ACCESS:    7306241	FORWARD:        104	MERGED:          0	TO_CACHE:    7306241
LLC PQ	ACCESS:    1849767	FORWARD:          0	MERGED:          0	TO_CACHE:    1849767

LLC Dense regions hint to LLC: 0
402058: 9
402065: 20
40208c: 53
40206d: 72
4023cc: 93
401cdb: 13566
401d14: 14902
401d43: 18871
401e02: 63434
401e33: 65186
401e67: 81702
401cb0: 292583

RAW hits: 2551615
Loads Generated: 52249196
Loads sent to L1D: 49697579
Stores Generated: 36967886
Stores sent to L1D: 36967904
Major fault: 0 Minor fault: 96698
Allocated PAGES: 96698
Total Load insts: 61218002
Total Non-spec loads: 3373393
Percentage of speculative loads: 94.4895
L1D response latency: 551.26 cycles
Load retirement latency: 1152.74 cycles


stream: 
stream:times selected: 9863111
stream:pref_filled: 259361
stream:pref_useful: 259361
stream:pref_late: 89219
stream:misses: 171265
stream:misses_by_poll: 0

CS: 
CS:times selected: 1683883
CS:pref_filled: 851187
CS:pref_useful: 851185
CS:pref_late: 134487
CS:misses: 331522
CS:misses_by_poll: 4908

CPLX: 
CPLX:times selected: 8167859
CPLX:pref_filled: 967288
CPLX:pref_useful: 967283
CPLX:pref_late: 111172
CPLX:misses: 763951
CPLX:misses_by_poll: 5226

NL_L1: 
NL:times selected: 5891
NL:pref_filled: 278
NL:pref_useful: 278
NL:pref_late: 186
NL:misses: 891
NL:misses_by_poll: 0

total selections: 19720744
total_filled: 1519032
total_useful: 1519036
total_late: 340489
total_polluted: 10134
total_misses_after_warmup: 1253625
conflicts: 114605
Degree Incremented Times: 337348
Degree Decremented Times: 0

L1 IP Table Write Accesses: 16647506
L1 IP Table Read Accesses: 16532901
L1 RST Write Accesses: 7694333
L1 RST Read Accesses: 15388666
L1 CSPT Write Accesses: 7694333
L1 CSPT Read Accesses: 24351484
L1 RR Filter Tag Write Accesses: 2581828
L1 RR Filter Tag Read Accesses: 1232295241
L1 IP Table Tag Write Accesses: 17101346
L1 IP Table Tag Read Accesses: 17101346
L1 RST Tag Write Accesses: 0
L1 RST Tag Read Accesses: 69049689
L1 RR Filter Write Accesses: 0
L1 RR Filter Read Accesses: 56033007
test: 1705163

DRAM Statistics
 CHANNEL 0
 RQ ROW_BUFFER_HIT:     722255  ROW_BUFFER_MISS:    8896964
 DBUS_CONGESTED:          1
 WQ ROW_BUFFER_HIT:    1549013  ROW_BUFFER_MISS:    5656926  FULL:          0

 AVG_CONGESTED_CYCLE: 7
 All warmup complete: 2
Channel 0 Bank busy for read cycles: 0
Channel 0 Bank busy for write cycles: 0
Channel 0
Rank 0
0banks busy for read cycles: 36294
0banks busy for write cycles: 0
1banks busy for read cycles: 2797054
1banks busy for write cycles: 711017
2banks busy for read cycles: 3574379
2banks busy for write cycles: 711008
3banks busy for read cycles: 6402456
3banks busy for write cycles: 711002
4banks busy for read cycles: 16007889
4banks busy for write cycles: 710968
5banks busy for read cycles: 39627896
5banks busy for write cycles: 710955
6banks busy for read cycles: 56468242
6banks busy for write cycles: 711566
7banks busy for read cycles: 72404465
7banks busy for write cycles: 7927704
8banks busy for read cycles: 55772938
8banks busy for write cycles: 138298469

CPU 0 Branch Prediction Accuracy: 97.0917% MPKI: 0.525585 Average ROB Occupancy at Mispredict: 179.187
Branch types
NOT_BRANCH: 196385243 98.1926%
BRANCH_DIRECT_JUMP: 592790 0.296395%
BRANCH_INDIRECT: 0 0%
BRANCH_CONDITIONAL: 3021643 1.51082%
BRANCH_DIRECT_CALL: 0 0%
BRANCH_INDIRECT_CALL: 0 0%
BRANCH_RETURN: 0 0%
BRANCH_OTHER: 0 0%

DRAM PAGES: 1048576
Allocated PAGES: 96698
