
*** ChampSim Multicore Out-of-Order Simulator ***

Warmup Instructions: 50000000
Simulation Instructions: 200000000
Number of CPUs: 1
LLC sets: 2048
LLC ways: 16
Secure Berti: OFF
Berti: OFF
Berti Fill: OFF
On commit prefetching: OFF
L2 LLC Bypass speculative loads: OFF
Off-chip DRAM Size: 4096 MB Channels: 1 Width: 64-bit Data Rate: 6400 MT/s
CPU 0 runs /home/sumon/secure_berti/Berti_Baseline/../../traces/spec/620.omnetpp_s-141B.champsimtrace.xz
.xz
BTB has LRU replacement policy
ITLB has LRU replacement policy
DTLB has LRU replacement policy
STLB has LRU replacement policy
L1I has LRU replacement policy
IP Table Entries: 1024
CSPT Entries: 128
RR_ENTRIES: 32
RST_ENTRIES: 8
L1D has LRU replacement policy
L2C has LRU replacement policy
LLC has LRU replacement policy
Heartbeat CPU 0 instructions: 10000001 cycles: 3919910 heartbeat IPC: 2.55108 cumulative IPC: 2.55108 (Simulation time: 0 hr 0 min 32 sec) 
Heartbeat CPU 0 instructions: 20000003 cycles: 7853341 heartbeat IPC: 2.54231 cumulative IPC: 2.54669 (Simulation time: 0 hr 1 min 4 sec) 
Heartbeat CPU 0 instructions: 30000000 cycles: 11791797 heartbeat IPC: 2.53907 cumulative IPC: 2.54414 (Simulation time: 0 hr 1 min 36 sec) 
Heartbeat CPU 0 instructions: 40000001 cycles: 15718958 heartbeat IPC: 2.54637 cumulative IPC: 2.5447 (Simulation time: 0 hr 2 min 8 sec) 
Heartbeat CPU 0 instructions: 50000003 cycles: 19659486 heartbeat IPC: 2.53773 cumulative IPC: 2.5433 (Simulation time: 0 hr 2 min 40 sec) 

Warmup complete CPU 0 instructions: 50000003 cycles: 19659486 (Simulation time: 0 hr 2 min 40 sec) 

Heartbeat CPU 0 instructions: 60000001 cycles: 64774089 heartbeat IPC: 0.221658 cumulative IPC: 0.221658 (Simulation time: 0 hr 3 min 16 sec) 
Heartbeat CPU 0 instructions: 70000000 cycles: 110224464 heartbeat IPC: 0.22002 cumulative IPC: 0.220836 (Simulation time: 0 hr 3 min 52 sec) 
Heartbeat CPU 0 instructions: 80000003 cycles: 155398852 heartbeat IPC: 0.221364 cumulative IPC: 0.221012 (Simulation time: 0 hr 4 min 28 sec) 
Heartbeat CPU 0 instructions: 90000003 cycles: 200627378 heartbeat IPC: 0.221099 cumulative IPC: 0.221034 (Simulation time: 0 hr 5 min 4 sec) 
Heartbeat CPU 0 instructions: 100000000 cycles: 245384228 heartbeat IPC: 0.223429 cumulative IPC: 0.221509 (Simulation time: 0 hr 5 min 40 sec) 
Heartbeat CPU 0 instructions: 110000000 cycles: 290495717 heartbeat IPC: 0.221673 cumulative IPC: 0.221536 (Simulation time: 0 hr 6 min 17 sec) 
Heartbeat CPU 0 instructions: 120000000 cycles: 335448310 heartbeat IPC: 0.222457 cumulative IPC: 0.221667 (Simulation time: 0 hr 6 min 53 sec) 
Heartbeat CPU 0 instructions: 130000000 cycles: 380803388 heartbeat IPC: 0.220482 cumulative IPC: 0.221518 (Simulation time: 0 hr 7 min 30 sec) 
Heartbeat CPU 0 instructions: 140000000 cycles: 425985341 heartbeat IPC: 0.221327 cumulative IPC: 0.221497 (Simulation time: 0 hr 8 min 8 sec) 
Heartbeat CPU 0 instructions: 150000003 cycles: 471574034 heartbeat IPC: 0.219353 cumulative IPC: 0.221281 (Simulation time: 0 hr 8 min 44 sec) 
Heartbeat CPU 0 instructions: 160000001 cycles: 516616884 heartbeat IPC: 0.222011 cumulative IPC: 0.221347 (Simulation time: 0 hr 9 min 21 sec) 
Heartbeat CPU 0 instructions: 170000003 cycles: 561502679 heartbeat IPC: 0.222788 cumulative IPC: 0.221466 (Simulation time: 0 hr 9 min 58 sec) 
Heartbeat CPU 0 instructions: 180000000 cycles: 606520153 heartbeat IPC: 0.222136 cumulative IPC: 0.221518 (Simulation time: 0 hr 10 min 33 sec) 
Heartbeat CPU 0 instructions: 190000000 cycles: 651338135 heartbeat IPC: 0.223125 cumulative IPC: 0.221632 (Simulation time: 0 hr 11 min 9 sec) 
Heartbeat CPU 0 instructions: 200000000 cycles: 697199925 heartbeat IPC: 0.218046 cumulative IPC: 0.221389 (Simulation time: 0 hr 11 min 45 sec) 
Heartbeat CPU 0 instructions: 210000000 cycles: 742676151 heartbeat IPC: 0.219895 cumulative IPC: 0.221295 (Simulation time: 0 hr 12 min 20 sec) 
Heartbeat CPU 0 instructions: 220000000 cycles: 788338186 heartbeat IPC: 0.219 cumulative IPC: 0.221159 (Simulation time: 0 hr 12 min 54 sec) 
Heartbeat CPU 0 instructions: 230000001 cycles: 833696237 heartbeat IPC: 0.220468 cumulative IPC: 0.22112 (Simulation time: 0 hr 13 min 29 sec) 
Heartbeat CPU 0 instructions: 240000001 cycles: 879168033 heartbeat IPC: 0.219917 cumulative IPC: 0.221057 (Simulation time: 0 hr 14 min 4 sec) 
Heartbeat CPU 0 instructions: 250000000 cycles: 923655541 heartbeat IPC: 0.224782 cumulative IPC: 0.22124 (Simulation time: 0 hr 14 min 37 sec) 
Finished CPU 0 instructions: 200000001 cycles: 903996056 cumulative IPC: 0.22124 (Simulation time: 0 hr 14 min 37 sec) 

ChampSim completed all CPUs

Region of Interest Statistics

CPU 0 cumulative IPC: 0.22124 instructions: 200000001 cycles: 903996056
ITLB TOTAL     ACCESS:   33297506  HIT:   33007368  MISS:     290138  HIT %:    99.1286  MISS %:   0.871351   MPKI: 1.45069
ITLB Test counter:          0
ITLB LOAD TRANSLATION ACCESS:   33297506  HIT:   33007368  MISS:     290138  HIT %:    99.1286  MISS %:   0.871351   MPKI: 1.45069
ITLB PREFETCH  REQUESTED:          0  ISSUED:          0  USEFUL:          0  USELESS:          0
ITLB USEFUL LOAD PREFETCHES:          0 PREFETCH ISSUED TO LOWER LEVEL:          0  ACCURACY: -nan
ITLB TIMELY PREFETCHES:          0 LATE PREFETCHES: 0 DROPPED PREFETCHES: 0
ITLB COMMIT LATE PREFETCHES: 0 MISSED OPPORTUNITY: 0 LATE IN PQ: 0 UNCOVERED: 0
ITLB COMMIT LATE MSHR PREFETCHES: 0
ITLB MPKI TOTAL: 0 MSHR LATE: 0 PQ LATE: 0 COMMIT LATE: 0 MISSED OPPORTUNITY: 0 UNCOVERED: 0
ITLB PREFETCHES SAME FILL-ORIGIN LEVEL: 0 DIFFERENT FILL-ORIGIN LEVEL: 0
ITLB AVERAGE MISS LATENCY: 9.99996 cycles
ITLB AVERAGE MISS LATENCY LOAD: -nan cycles
ITLB AVERAGE MISS LATENCY PREFETCH: -nan cycles
ITLB AVERAGE MSHR OCCUPANCY: 0.0079308
ITLB MSHR FULL: 0
ITLB RQ	ACCESS:   37407201	FORWARD:          0	MERGED:    4019408	TO_CACHE:   33387793

DTLB TOTAL     ACCESS:   77161427  HIT:   72998357  MISS:    4163070  HIT %:    94.6047  MISS %:    5.39527   MPKI: 20.8153
DTLB Test counter:          0
DTLB LOAD TRANSLATION ACCESS:   77161427  HIT:   72998357  MISS:    4163070  HIT %:    94.6047  MISS %:    5.39527   MPKI: 20.8153
DTLB PREFETCH  REQUESTED:          0  ISSUED:          0  USEFUL:          0  USELESS:          0
DTLB USEFUL LOAD PREFETCHES:          0 PREFETCH ISSUED TO LOWER LEVEL:          0  ACCURACY: -nan
DTLB TIMELY PREFETCHES:          0 LATE PREFETCHES: 0 DROPPED PREFETCHES: 0
DTLB COMMIT LATE PREFETCHES: 0 MISSED OPPORTUNITY: 0 LATE IN PQ: 0 UNCOVERED: 0
DTLB COMMIT LATE MSHR PREFETCHES: 0
DTLB MPKI TOTAL: 0 MSHR LATE: 0 PQ LATE: 0 COMMIT LATE: 0 MISSED OPPORTUNITY: 0 UNCOVERED: 0
DTLB PREFETCHES SAME FILL-ORIGIN LEVEL: 0 DIFFERENT FILL-ORIGIN LEVEL: 0
DTLB AVERAGE MISS LATENCY: 35.5047 cycles
DTLB AVERAGE MISS LATENCY LOAD: -nan cycles
DTLB AVERAGE MISS LATENCY PREFETCH: -nan cycles
DTLB AVERAGE MSHR OCCUPANCY: 0.111139
DTLB MSHR FULL: 3.0532e-05
DTLB RQ	ACCESS:   87320592	FORWARD:          0	MERGED:   10059602	TO_CACHE:   77260990

STLB TOTAL     ACCESS:   12722707  HIT:   11752342  MISS:     970365  HIT %:     92.373  MISS %:    7.62703   MPKI: 4.85182
STLB Test counter:          0
STLB LOAD TRANSLATION ACCESS:    4453208  HIT:    3482848  MISS:     970360  HIT %:    78.2099  MISS %:    21.7901   MPKI: 4.8518
STLB TRANSLATION FROM L1D PREFETCHER ACCESS:    8269499  HIT:    8269494  MISS:          5  HIT %:    99.9999  MISS %: 6.04632e-05   MPKI: 2.5e-05
STLB PREFETCH  REQUESTED:          0  ISSUED:          0  USEFUL:          2  USELESS:          3
STLB USEFUL LOAD PREFETCHES:          2 PREFETCH ISSUED TO LOWER LEVEL:          0  ACCURACY: inf
STLB TIMELY PREFETCHES:          2 LATE PREFETCHES: 0 DROPPED PREFETCHES: 0
STLB COMMIT LATE PREFETCHES: 0 MISSED OPPORTUNITY: 0 LATE IN PQ: 0 UNCOVERED: 0
STLB COMMIT LATE MSHR PREFETCHES: 0
STLB MPKI TOTAL: 0 MSHR LATE: 0 PQ LATE: 0 COMMIT LATE: 0 MISSED OPPORTUNITY: 0 UNCOVERED: 0
STLB PREFETCHES SAME FILL-ORIGIN LEVEL: 0 DIFFERENT FILL-ORIGIN LEVEL: 0
STLB AVERAGE MISS LATENCY: 113.834 cycles
STLB AVERAGE MISS LATENCY LOAD: -nan cycles
STLB AVERAGE MISS LATENCY PREFETCH: -nan cycles
STLB AVERAGE MSHR OCCUPANCY: 0.0752326
STLB MSHR FULL: 0
STLB RQ	ACCESS:   15090255	FORWARD:          0	MERGED:    2367549	TO_CACHE:   12722706

STLB Hit, L1D data hit: 0
STLB Hit, L2C data hit: 0
STLB Hit, LLC data hit: 0
STLB Hit, LLC data miss: 0
STLB STLB hints to L2: 0
L1D TOTAL     ACCESS:   96620107  HIT:   89053351  MISS:    7566756  HIT %:    92.1685  MISS %:    7.83145   MPKI: 37.8338
L1D Test counter:          0
L1D LOAD      ACCESS:   50280152  HIT:   47151218  MISS:    3436618  HIT %:     93.777  MISS %:      6.223   MPKI: 15.6447
L1D RFO       ACCESS:   36118372  HIT:   35730571  MISS:     387801  HIT %:    98.9263  MISS %:    1.07369   MPKI: 1.939
L1D PREFETCH  ACCESS:   10221583  HIT:    6171562  MISS:    4050021  HIT %:    60.3778  MISS %:    39.6222   MPKI: 20.2501
L1D PREFETCH  REQUESTED:   21279873  ISSUED:   21279712  USEFUL:     546354  USELESS:    3503687
L1D USEFUL LOAD PREFETCHES:     546354 PREFETCH ISSUED TO LOWER LEVEL:    4115202  ACCURACY: 13.2765
L1D TIMELY PREFETCHES:     546354 LATE PREFETCHES: 47696 DROPPED PREFETCHES: 0
L1D COMMIT LATE PREFETCHES: 0 MISSED OPPORTUNITY: 0 LATE IN PQ: 176450 UNCOVERED: 0
L1D COMMIT LATE MSHR PREFETCHES: 0
L1D MPKI TOTAL: 17.1831 MSHR LATE: 0.23848 PQ LATE: 0.88225 COMMIT LATE: 0 MISSED OPPORTUNITY: 0 UNCOVERED: 0
L1D PREFETCHES SAME FILL-ORIGIN LEVEL: 4115202 DIFFERENT FILL-ORIGIN LEVEL: 0
L1D AVERAGE MISS LATENCY: 127.09 cycles
L1D AVERAGE MISS LATENCY LOAD: 119.119 cycles
L1D AVERAGE MISS LATENCY PREFETCH: 133.228 cycles
L1D AVERAGE MSHR OCCUPANCY: 0.724008
L1D MSHR FULL: 1.02791e-06
L1D RQ	ACCESS:   63544760	FORWARD:          0	MERGED:   10264617	TO_CACHE:   50587833
L1D WQ	ACCESS:   37145107	FORWARD:    2697928	MERGED:     412348	TO_CACHE:   36732759
L1D PQ	ACCESS:   10642665	FORWARD:          0	MERGED:          0	TO_CACHE:   10637047

L1D UNIQUE REGIONS ACCESSED: 0
L1D REGIONS CONFLICTS: 0
L1D Cross Page Prefetch Requests: 0
L1D Same Page Prefetch Requests: 13238515
L1D ROI Sum of L1D PQ occupancy: 137346151
L1D PREFETCHES PUSHED FROM L2C: 0
4c703e: 1
558cce: 1
412229: 1
4cce4f: 1
4c8937: 1
4ebf37: 1
558cf0: 1
4ebf72: 1
498162: 1
4c7067: 1
471349: 1
4c862b: 1
556db3: 1
680e22: 1
4cce59: 1
54971f: 1
556e18: 1
621ede: 1
4c74d9: 1
558d53: 1
55bd60: 1
59068b: 1
549adf: 1
555493: 1
549b30: 1
511a8f: 1
545061: 1
558469: 1
549b73: 1
4cce80: 1
4113bf: 1
558eb4: 1
549b13: 1
558ad6: 1
558d2d: 1
511c1a: 1
43b431: 1
590696: 1
4ccea2: 1
4c86bf: 1
411c77: 1
498169: 1
621ee1: 1
498148: 1
4e0583: 1
54cac0: 1
553cdd: 2
507547: 2
550bba: 2
412417: 2
6220e6: 2
558e90: 2
549fb0: 2
4c8516: 2
545292: 2
43b8c0: 2
4c79fa: 2
501cd7: 2
54499d: 2
41d437: 2
545307: 2
556f94: 2
4ebaeb: 2
553c0c: 2
4e0580: 2
558edf: 3
550280: 3
49815f: 3
556d4b: 3
620ad3: 3
622124: 3
4e057c: 3
4714b4: 3
545000: 3
410751: 3
545283: 3
544c50: 3
620b25: 3
5125e7: 3
549f7c: 4
4123f4: 4
554ab2: 4
549d41: 4
558a37: 4
558c3d: 4
549788: 4
55948c: 4
5453bb: 4
4714bb: 4
558e48: 4
4ebae4: 4
4c8508: 5
544d49: 5
553ca9: 5
501cbe: 5
411c7a: 5
558eae: 5
549cdc: 5
549ce3: 5
549d61: 5
550bb3: 5
47d5ae: 5
556fd9: 5
550680: 5
4117fe: 6
558c2c: 6
550657: 6
5012c3: 6
4714a7: 6
4123e1: 6
5498b1: 6
4ebada: 6
47d3b2: 6
557005: 6
556fe3: 6
55009f: 6
41077b: 6
410754: 6
558ed3: 6
553cac: 6
550613: 6
54cae0: 7
512590: 7
556e38: 7
412246: 7
550fab: 7
549ee8: 7
549ef6: 7
412409: 7
54976a: 8
550083: 8
550c04: 8
4e0578: 8
64caa6: 8
41241d: 8
549b06: 8
623fa2: 8
400670: 9
5502e6: 9
5450ac: 9
43b89a: 9
556f4d: 9
556dfe: 9
556dd4: 9
550e48: 9
5502ef: 10
550af9: 10
55241b: 10
549afd: 10
544925: 10
622088: 10
41d422: 10
622260: 11
4714ac: 11
549c81: 11
629270: 11
54500c: 11
550d03: 12
43b8b8: 12
549741: 12
622591: 12
5555c3: 12
620af7: 13
544b8c: 13
549c8f: 13
550cb3: 14
55002d: 15
67c67b: 15
67c33b: 15
41631a: 15
549d13: 15
549cd5: 15
67c88c: 15
5502ec: 15
556275: 15
5125c3: 15
67c788: 15
550cba: 15
55005b: 15
550cd8: 15
67c885: 16
67c76c: 16
4712b7: 16
639783: 16
47148a: 16
410666: 16
41cc22: 16
550f70: 17
55030c: 17
550cbd: 17
43ad21: 18
55055b: 18
5012ed: 18
5012bc: 18
5012f6: 18
51a66d: 18
4714db: 19
5504e0: 19
41065f: 20
43b8cc: 20
620ac1: 20
549fa0: 21
54eedc: 21
51a684: 21
55023a: 21
544fdb: 21
4117f3: 21
621edd: 22
55b752: 22
411804: 22
550d38: 23
550406: 23
49bf82: 24
623f65: 24
4710ce: 24
550114: 24
41066e: 25
550f8e: 25
623f79: 25
4c269a: 27
47d4b7: 27
47d4ab: 28
4c2586: 30
439bb0: 31
55063a: 32
47d4a3: 34
550b50: 35
555da8: 38
62207f: 43
47128d: 46
622108: 47
622090: 47
471483: 47
62215a: 47
55040d: 48
544ff8: 48
550010: 54
552757: 54
471436: 55
47d5ba: 56
4714df: 57
47d477: 62
4c2667: 64
47ea73: 67
62257c: 70
53f544: 72
545080: 85
550629: 86
47148e: 91
54492b: 92
558426: 92
5525eb: 94
620aa5: 94
54ff9a: 96
620aad: 97
620ab7: 97
620b09: 103
620aff: 103
5525b8: 107
55842d: 111
47ea6d: 116
621fdb: 117
552173: 117
41d1c7: 118
621fc8: 122
53f48a: 128
555bbb: 129
44416b: 129
623f49: 133
555bb1: 134
4713b5: 141
545370: 158
5525ac: 166
545247: 172
550965: 175
41ccb1: 181
63f85e: 184
623f34: 185
555504: 194
621e1e: 237
47d53a: 242
552252: 244
5507b5: 257
621ffe: 272
62201f: 278
621ec1: 288
544c9b: 296
545380: 300
6225da: 301
6225ab: 306
544907: 363
4441d5: 380
62098c: 386
621dee: 408
44512a: 409
4441ba: 428
4713dc: 436
443ff4: 450
4450fb: 460
622010: 473
6408a3: 476
620d89: 480
55218c: 481
54c958: 493
4712c4: 505
5125d4: 526
6291bb: 532
4ea00b: 578
552760: 578
4713a9: 580
4c2595: 585
55833c: 598
5583d5: 609
4713bc: 616
545190: 634
6291b5: 640
550005: 645
44ab20: 662
6291c1: 669
41d235: 673
5525f5: 687
4106b3: 700
620980: 714
5507d2: 746
550853: 764
5555ea: 784
54ff23: 800
62096e: 812
43b8f6: 840
552130: 843
5549c3: 865
4ebaf4: 872
53e1b9: 873
41cc4c: 873
47d608: 877
55214d: 910
5525be: 918
55003d: 921
544914: 922
41cc4f: 923
4c26a3: 943
550931: 947
550144: 955
555f38: 994
54490e: 998
54515b: 1003
552270: 1005
552182: 1005
556079: 1005
41072e: 1018
5524d8: 1020
5524c9: 1021
411780: 1021
552274: 1029
47d3b5: 1044
4ebf7c: 1054
4441ae: 1107
62093b: 1137
549390: 1220
55100a: 1227
555f7c: 1229
410781: 1291
55bb00: 1296
55b176: 1302
4712bc: 1318
63f85a: 1332
550091: 1340
41cc70: 1486
55b1e5: 1490
5555bc: 1507
555f2e: 1521
555d9d: 1531
5507ee: 1559
4713a4: 1566
4441c7: 1572
550b49: 1580
411aac: 1624
55b745: 1653
545180: 1708
41055f: 1737
55bb22: 1763
471411: 1771
411afa: 2009
554a73: 2035
44415f: 2096
54fff8: 2159
621e95: 2163
55b1c0: 2169
620b35: 2249
4441eb: 2271
63fad6: 2384
555f8f: 2399
55b6fe: 2409
555b1a: 2446
620961: 2525
549370: 2527
624580: 2577
4ea048: 2653
550075: 2697
44427d: 2700
47e5da: 2705
4ea0c7: 2709
623f81: 2723
549100: 2761
550ab2: 2810
54ff8c: 2843
506f34: 2848
4e9fc4: 2900
43b43b: 2946
43b438: 3027
620a3f: 3054
623f09: 3065
4ebfa0: 3122
41053f: 3196
620b3f: 3227
63fb0d: 3254
41191a: 3284
4117af: 3321
621435: 3366
54c9b1: 3418
416e91: 3419
410737: 3473
50754a: 3505
623f20: 3537
445148: 3551
4168b0: 3567
411c3e: 3568
4ebf44: 3576
621e83: 3677
41d1f7: 3710
416e8e: 3727
400640: 3734
55bb37: 3840
400580: 4048
55b7b0: 4084
555f5c: 4238
62241f: 4259
55039d: 4310
444186: 4325
550397: 4348
444197: 4516
47d5c0: 4662
555b54: 4762
4105d4: 4791
471398: 4828
444028: 5377
416eb9: 6163
47d45d: 6289
620a5d: 6652
62919a: 6902
41d1f4: 8137
62094f: 8546
47eb9a: 8742
55b6eb: 9277
62200b: 9325
507571: 9653
4712ab: 9713
6408a0: 10112
4168cb: 10507
411c4a: 10965
55bb33: 11030
41054e: 11559
5555a4: 11966
411c5f: 12063
4ebb70: 12174
4168b4: 12190
411b0d: 12243
555f6d: 12377
4ebf40: 12836
4ebf76: 12836
4ebe6b: 13136
5507af: 13164
550a73: 13378
47136d: 14351
412730: 14419
433dff: 14485
49c1ec: 14843
622407: 15011
444216: 15096
444020: 16184
5124e1: 16656
620aeb: 16724
444178: 17668
416e84: 18135
4340f0: 18294
621ea4: 18979
555b34: 19027
55bb1e: 19047
621e9a: 19084
433def: 19411
41218b: 19908
41195a: 20480
4ea01d: 20995
471366: 22529
55b173: 22847
544edb: 24647
47d453: 24752
4ec000: 27514
416eb3: 31327
416eb6: 34021
416e72: 34268
4168ba: 36825
621e17: 36923
624599: 38447
471359: 39565
47e5d4: 39927
47135d: 41488
4712af: 43092
416ef9: 51625
41cc78: 56876
471394: 62271
41cc81: 65168
54fe9b: 66767
4ea019: 72547
550ff8: 73125
4e9fc1: 76109
54fefc: 79831
5432c8: 88153
55bb13: 116253
47133d: 202987
471351: 306643
47134d: 376677
L1I TOTAL     ACCESS:   37367780  HIT:   37246842  MISS:     120938  HIT %:    99.6764  MISS %:   0.323642   MPKI: 0.60469
L1I Test counter:          0
L1I LOAD      ACCESS:   37367780  HIT:   37246842  MISS:     160357  HIT %:    99.6764  MISS %:   0.323642   MPKI: 0.60469
L1I PREFETCH  REQUESTED:          0  ISSUED:          0  USEFUL:          0  USELESS:          0
L1I USEFUL LOAD PREFETCHES:          0 PREFETCH ISSUED TO LOWER LEVEL:          0  ACCURACY: -nan
L1I TIMELY PREFETCHES:          0 LATE PREFETCHES: 0 DROPPED PREFETCHES: 0
L1I COMMIT LATE PREFETCHES: 0 MISSED OPPORTUNITY: 0 LATE IN PQ: 0 UNCOVERED: 0
L1I COMMIT LATE MSHR PREFETCHES: 0
L1I MPKI TOTAL: 0.801785 MSHR LATE: 0 PQ LATE: 0 COMMIT LATE: 0 MISSED OPPORTUNITY: 0 UNCOVERED: 0
L1I PREFETCHES SAME FILL-ORIGIN LEVEL: 0 DIFFERENT FILL-ORIGIN LEVEL: 0
L1I AVERAGE MISS LATENCY: 32.6393 cycles
L1I AVERAGE MISS LATENCY LOAD: 32.6393 cycles
L1I AVERAGE MISS LATENCY PREFETCH: -nan cycles
L1I AVERAGE MSHR OCCUPANCY: 0.00494234
L1I MSHR FULL: 0
L1I RQ	ACCESS:   56660929	FORWARD:          0	MERGED:   19253728	TO_CACHE:   37407201

4117c0: 1
445101: 1
4c8cd0: 1
4c862b: 1
511c10: 1
4cd041: 1
558c20: 1
550910: 1
4c7044: 1
507688: 1
4cced6: 1
550a40: 1
498140: 1
590680: 1
4c7086: 1
4c8db1: 1
55ba90: 1
558d80: 1
552753: 1
550e84: 1
4c868c: 1
67cd4f: 1
49c0e0: 1
4e0570: 1
4714ec: 1
4c7020: 1
558ca2: 1
511a84: 1
554a73: 1
680e01: 1
5906e0: 1
67cd04: 1
519a30: 1
63fad2: 1
622088: 1
4c8923: 1
449d70: 1
558a20: 1
549d41: 1
5557ef: 1
4c86c4: 1
55be85: 1
64e1c0: 1
511ce1: 1
680de2: 1
444281: 1
556dc0: 1
55b280: 1
549700: 1
498180: 1
558d02: 1
558a8b: 1
556067: 1
4c2680: 1
4cce40: 1
4c8dc1: 1
620e58: 1
558b46: 1
558b0a: 1
558ac4: 1
558d40: 1
511c80: 1
556d4b: 1
511c40: 1
511a50: 1
550043: 1
47d441: 1
4c7a42: 1
4c7a04: 1
4c79c9: 1
4c8740: 1
59071d: 1
4c8703: 1
519a81: 1
501d02: 1
555bc2: 1
552703: 1
629200: 1
545942: 1
6814e2: 1
67c748: 1
67c681: 1
501d6e: 1
501d8c: 1
4c8d53: 1
556d8f: 1
54a71e: 1
5504c0: 1
67cda3: 1
620b82: 1
54cad0: 1
54975c: 1
550690: 1
4cce80: 1
4c8d01: 1
544c40: 1
519a46: 1
558c41: 1
61d150: 1
552ad0: 1
558cc1: 1
552c90: 1
555a70: 1
4c74c0: 1
4c7697: 1
4cd010: 1
552686: 1
4c8500: 1
544cc3: 2
63fb00: 2
4ebe60: 2
553c02: 2
6220c0: 2
544e90: 2
552470: 2
5503c1: 2
55be88: 2
550c30: 2
5494b0: 2
558dc0: 2
553be0: 2
55c055: 2
6222c1: 2
55bcd0: 2
553c42: 2
47e640: 2
55bbe0: 2
410520: 2
54531d: 3
55c043: 3
51a630: 3
550120: 3
552603: 3
5508f0: 3
5511ce: 3
55ba40: 3
544c2c: 3
554ab7: 3
555e96: 3
545902: 3
55bf2d: 3
545947: 3
550849: 3
411b46: 3
550608: 4
55bc90: 4
55bebd: 4
550b40: 4
555b45: 4
443f6c: 4
556302: 4
55bed0: 4
550338: 4
5522cd: 4
55c028: 4
5592d2: 4
68062a: 4
553c80: 5
408910: 5
555e47: 5
433e41: 5
629241: 5
549370: 5
558ec2: 5
558e89: 5
558a41: 5
64caa0: 5
5505ce: 5
553cc0: 5
61d900: 6
55bec1: 6
6292d0: 6
55bc80: 6
558e48: 6
54ff84: 6
443ff4: 6
54ff6a: 6
620b35: 6
49bf82: 6
553440: 6
549490: 6
4e0580: 6
548301: 7
412442: 7
550942: 7
629282: 7
41242d: 7
559488: 7
629304: 7
41244b: 8
61ec00: 8
55bfb0: 8
411a80: 8
412400: 8
556500: 8
622260: 8
54a680: 8
55beb5: 8
550bc0: 8
5432b0: 8
544c60: 8
549bc2: 8
501cc2: 8
41cc10: 8
4c2570: 9
556f42: 9
556f19: 9
556fb0: 9
557190: 9
556fc1: 9
548570: 9
6408a0: 9
51a7f1: 9
5448f0: 9
5012c3: 9
6157d0: 9
553500: 9
557002: 9
6225c0: 9
557041: 9
5571c1: 9
556344: 9
552c80: 9
556e40: 9
556e80: 9
61d7e0: 9
548582: 9
550341: 9
67c7c7: 9
6802fd: 9
51a843: 9
68021d: 9
412241: 9
5500c0: 9
553340: 9
552bd0: 9
54ff04: 9
412200: 9
546502: 9
6806af: 9
43b442: 9
439c05: 9
556cc0: 9
54a500: 9
556ec2: 9
61d146: 9
68024f: 9
5498c3: 10
680307: 10
617100: 10
549a83: 10
67ca58: 10
549c70: 10
549c81: 10
67ce80: 10
51a680: 10
550241: 10
67c310: 10
549881: 10
680f80: 10
67c520: 10
471501: 10
550201: 10
549870: 10
622042: 10
54efe0: 10
550c80: 10
680f1c: 10
67cc4f: 10
54c8c4: 10
61ec70: 10
680f68: 10
443880: 10
67c5c0: 10
67ceeb: 10
544c81: 10
67c843: 10
617080: 10
550505: 10
67c340: 10
67c661: 10
5458c0: 10
681460: 10
447960: 10
550c4c: 10
61cef0: 10
549cc1: 10
680286: 10
549a7b: 10
550ecd: 10
54eec1: 10
443870: 10
61d0d3: 10
67cf4e: 10
5493c0: 10
41d441: 10
411482: 10
556281: 10
555f40: 10
4340c1: 10
549ec9: 10
545300: 10
61d842: 10
545882: 10
411460: 10
61d881: 10
55bc40: 10
5502c1: 10
67c544: 10
67cc81: 10
67c880: 10
550ac4: 10
67ce6f: 10
61d108: 10
545870: 10
61d081: 10
549b81: 10
61d040: 10
61cf00: 10
549ace: 10
6170c4: 10
54c8a0: 10
544ec4: 10
54cb10: 10
67c280: 10
68102b: 10
545042: 10
549b03: 10
47ea60: 10
61ec81: 10
41d410: 10
550cc3: 10
410543: 10
67ccc1: 10
549b40: 10
67cf86: 10
501cb0: 10
546960: 11
501300: 11
5453c6: 12
4340b6: 12
55bf3b: 12
5505f1: 12
55c0cc: 12
55008b: 13
5555c3: 13
54a650: 13
5463e0: 13
555fc7: 13
545341: 13
5583d5: 13
550027: 13
4123c0: 13
546b30: 13
5592a0: 13
549fc1: 13
41d150: 14
559300: 14
559340: 14
4113c4: 14
4ebb8b: 14
53e170: 14
55bb46: 14
546b50: 14
416300: 14
546b90: 14
55233a: 15
549f00: 15
64cb45: 15
67c585: 15
55bfc0: 15
680599: 15
558320: 15
558342: 15
554a84: 15
54cae0: 15
549f83: 15
549f70: 15
550eb0: 16
546ad0: 16
54ef00: 17
47eac0: 17
550f84: 17
54ab40: 17
5504bd: 17
550f03: 17
550280: 17
54aa80: 17
471481: 17
550f40: 17
550e40: 17
54eeb0: 17
55044a: 17
55bf64: 17
550542: 17
47ea80: 17
4ebb63: 18
550a80: 18
555a84: 18
501280: 18
51a641: 18
544e62: 18
62257c: 20
55010d: 20
5525c4: 20
621440: 20
55bf10: 21
544fc0: 21
550400: 22
55000d: 22
550583: 22
6223dc: 22
55bf41: 23
641120: 23
550591: 24
5465c0: 26
55baa0: 26
621ffe: 26
552282: 26
555540: 27
412110: 27
545283: 28
544b74: 29
55be45: 31
622083: 31
548440: 32
622190: 32
62228f: 32
622108: 33
62215a: 35
55bf30: 39
43b430: 47
543401: 47
55c086: 50
551090: 53
64e080: 53
620ae0: 56
4441a6: 62
49c100: 65
545080: 66
47eb80: 75
622581: 85
55bf00: 88
411ba0: 107
47d480: 107
412640: 108
55c010: 109
410641: 115
507650: 117
4c2660: 117
49bf40: 131
55bf60: 149
621f42: 158
433f40: 160
4ebf40: 163
411b01: 169
64cb03: 169
555f06: 173
64e1d0: 174
621f84: 188
49bfab: 197
55b1c0: 212
55c020: 229
4ebf82: 256
555f83: 257
5451c1: 259
55bf83: 273
55115d: 280
64e150: 293
55bac3: 302
416f03: 319
552482: 326
55bad3: 331
412180: 337
558441: 354
443f82: 356
5524a0: 361
544f9e: 371
552440: 371
54547e: 372
545190: 386
49c1c2: 424
4ea002: 436
550002: 446
4ec000: 455
623f00: 461
545180: 473
551001: 474
622407: 510
552120: 528
549100: 533
629184: 583
544b81: 595
55011a: 601
4ebb80: 609
411ac2: 613
64cac3: 613
550b86: 617
555b80: 621
55bba0: 623
544f08: 639
54510b: 641
546640: 641
546401: 644
545000: 644
55564d: 649
55067b: 650
434103: 651
5465b0: 695
5521c1: 759
444180: 761
621435: 794
629170: 809
550b25: 817
544acf: 817
64e1e0: 820
555b04: 822
55bb00: 823
4ebb04: 837
555afa: 838
554ac0: 838
4ebac0: 838
556495: 838
545481: 854
552411: 855
55548c: 856
552598: 857
55214a: 859
552182: 861
552142: 862
555400: 870
545140: 877
5555a4: 881
55b160: 893
5501c2: 916
507581: 989
445142: 995
53f5b0: 1050
558405: 1055
443f00: 1191
62241f: 1215
445148: 1224
6291c1: 1225
4441c1: 1286
621f26: 1450
49c1b0: 1476
550191: 1511
64e160: 1521
506f20: 1549
622002: 1583
548420: 1675
444004: 1698
555f27: 1740
47d430: 1865
549030: 1879
433f36: 1886
54f002: 1889
4ebf30: 1907
556027: 1919
556420: 2077
444140: 2533
550140: 2621
47e5a0: 3568
624580: 3935
47d596: 4622
410598: 4888
4c2586: 4908
400580: 4912
BTB TOTAL     ACCESS:   32873216  HIT:   30947953  MISS:    1925263  HIT %:    94.1434  MISS %:    5.85663   MPKI: 9.62631
BTB Test counter:          0
BTB BRANCH_DIRECT_JUMP	ACCESS:    2330259  HIT:    2330115  MISS:        144
BTB BRANCH_INDIRECT	ACCESS:     674228  HIT:     571149  MISS:     103079
BTB BRANCH_CONDITIONAL	ACCESS:   17721650  HIT:   17721121  MISS:        529
BTB BRANCH_DIRECT_CALL	ACCESS:    3701835  HIT:    3701543  MISS:        292
BTB BRANCH_INDIRECT_CALL	ACCESS:    2371706  HIT:    2363088  MISS:       8618
BTB BRANCH_RETURN	ACCESS:    6073538  HIT:    4260937  MISS:    1812601
BTB BRANCH_OTHER ACCESS:          0  HIT:          0  MISS:          0

L2C TOTAL     ACCESS:   11031927  HIT:    4913335  MISS:    6118592  HIT %:    44.5374  MISS %:    55.4626   MPKI: 30.593
L2C Test counter:          0
L2C LOAD      ACCESS:    3201986  HIT:    1059213  MISS:    2142773  HIT %:    33.0799  MISS %:    66.9201   MPKI: 10.7139
L2C DATA LOAD MPKI: 10.5529
L2C INSTRUCTION LOAD MPKI: 0.160945
L2C RFO       ACCESS:     370296  HIT:      68871  MISS:     301425  HIT %:    18.5989  MISS %:    81.4011   MPKI: 1.50712
L2C PREFETCH  ACCESS:    4115106  HIT:    1131364  MISS:    2983742  HIT %:    27.4929  MISS %:    72.5071   MPKI: 14.9187
L2C DATA PREFETCH MPKI: 14.9187
L2C INSTRUCTION PREFETCH MPKI: 0
L2C WRITEBACK ACCESS:    1953866  HIT:    1945689  MISS:       8177  HIT %:    99.5815  MISS %:   0.418504   MPKI: 0.040885
L2C LOAD TRANSLATION ACCESS:    1390666  HIT:     708194  MISS:     682472  HIT %:    50.9248  MISS %:    49.0752   MPKI: 3.41236
L2C TRANSLATION FROM L1D PREFETCHER ACCESS:          7  HIT:          4  MISS:          3  HIT %:    57.1429  MISS %:    42.8571   MPKI: 1.5e-05
L2C PREFETCH  REQUESTED:          0  ISSUED:          0  USEFUL:     112585  USELESS:    2871179
L2C USEFUL LOAD PREFETCHES:     112585 PREFETCH ISSUED TO LOWER LEVEL:    2983742  ACCURACY: 3.77328
L2C TIMELY PREFETCHES:     112585 LATE PREFETCHES: 0 DROPPED PREFETCHES: 0
L2C COMMIT LATE PREFETCHES: 0 MISSED OPPORTUNITY: 0 LATE IN PQ: 0 UNCOVERED: 0
L2C COMMIT LATE MSHR PREFETCHES: 0
L2C MPKI TOTAL: 10.7139 MSHR LATE: 0 PQ LATE: 0 COMMIT LATE: 0 MISSED OPPORTUNITY: 0 UNCOVERED: 0
L2C PREFETCHES SAME FILL-ORIGIN LEVEL: 0 DIFFERENT FILL-ORIGIN LEVEL: 0
L2C AVERAGE MISS LATENCY: 152.728 cycles
L2C AVERAGE MISS LATENCY LOAD: 153.327 cycles
L2C AVERAGE MISS LATENCY PREFETCH: 164.097 cycles
L2C AVERAGE MSHR OCCUPANCY: 0.870794
L2C MSHR FULL: 0
L2C RQ	ACCESS:    4963165	FORWARD:          0	MERGED:          0	TO_CACHE:    4962955
L2C WQ	ACCESS:    1953866	FORWARD:        306	MERGED:          0	TO_CACHE:    1953866
L2C PQ	ACCESS:    4115202	FORWARD:          0	MERGED:          0	TO_CACHE:    4115106

L2C Instructions Evicting Data 28437
L2C Translations Evicting Data 601426
L2C Data Evicting Data 4766706
L2C Instructions Evicting Instructions 555
L2C Translations Evicting Instructions 3221
L2C Data Evicting Instructions 28364
L2C Instructions Evicting Translations 3197
L2C Translations Evicting Translations 77828
L2C Data Evicting Translations 600681
L2C Dense regions hint from L2: 0
558c20: 1
501d6e: 1
445101: 1
5504c0: 1
4c8dc1: 1
550af9: 1
552470: 1
4cce59: 1
6814e2: 1
552686: 1
501d8c: 1
558a20: 1
511c10: 1
620e58: 1
552703: 1
4c74c0: 1
4c79c9: 1
54a71e: 1
558cc1: 1
549700: 1
4c8d53: 1
411c77: 1
680e01: 1
680de2: 1
61d150: 1
550120: 1
5555ea: 1
47d441: 1
410751: 1
4123f4: 1
67c748: 1
54971f: 1
558d40: 1
550c04: 1
55be85: 1
412246: 1
558eb4: 1
550910: 1
4113bf: 1
63fad2: 1
549741: 1
498162: 1
47ea73: 1
511a84: 1
4c86c4: 1
558ca2: 1
501d02: 1
4c8500: 1
4c7a42: 1
558c41: 1
4c2680: 1
558ac4: 1
4c868c: 1
4ebf72: 1
549adf: 1
4cce4f: 1
4c8cd0: 1
519a46: 1
4c8d01: 1
449d70: 1
4c7067: 1
55ba90: 1
550e84: 1
4c7a04: 1
4117c0: 1
558d80: 1
549788: 1
507688: 1
552ad0: 1
5906e0: 1
620b82: 1
4ebf37: 1
4cce40: 1
498169: 1
43b431: 1
558426: 1
4c8937: 1
4e0570: 1
55023a: 1
471483: 1
4c74d9: 1
550680: 1
558cce: 1
558ad6: 1
4c7086: 1
558b0a: 1
558a8b: 1
558d53: 1
558d2d: 1
558d02: 1
4714ec: 1
519a30: 1
550406: 1
511a8f: 1
552753: 1
556d8f: 1
511ce1: 1
556dc0: 1
511c80: 1
67c681: 1
67cd04: 1
67cd4f: 1
67cda3: 1
590680: 1
54cad0: 1
550690: 1
4ccea2: 1
444281: 1
555a70: 1
54975c: 1
54976a: 1
4cd010: 1
4cced6: 1
550043: 1
680e22: 1
550a40: 1
41d437: 1
4cd041: 1
4c86bf: 1
49c0e0: 1
556067: 1
55b280: 1
5557ef: 1
558b46: 1
498148: 1
545942: 1
558cf0: 1
590696: 1
4c7020: 1
555bc2: 1
4714a7: 1
498180: 1
4c8740: 1
629200: 1
4e0583: 1
59071d: 1
544c40: 1
4c8703: 1
519a81: 1
498140: 1
552c90: 1
4714bb: 1
59068b: 1
511c40: 1
549ee8: 1
4c8db1: 1
4c703e: 1
511c1a: 1
511a50: 1
4c8923: 1
4c7044: 1
4714df: 1
4c7697: 1
43b8c0: 2
4cce80: 2
558edf: 2
544cc3: 2
553be0: 2
412409: 2
47148e: 2
4c862b: 2
4714ac: 2
4ebe60: 2
4c79fa: 2
41cc22: 2
553cdd: 2
6222c1: 2
623f49: 2
62098c: 2
55bbe0: 2
553c0c: 2
410520: 2
553c02: 2
55bcd0: 2
550cbd: 2
550c30: 2
558eae: 2
63fb00: 2
544e90: 2
5453bb: 2
6220c0: 2
6220e6: 2
5503c1: 2
558dc0: 2
549f7c: 2
558e90: 2
47e640: 2
549fb0: 2
501cd7: 2
4ebada: 2
4c8516: 2
55be88: 2
5494b0: 2
55c055: 2
549ef6: 2
553c42: 2
623f79: 2
545947: 3
55bf2d: 3
549afd: 3
558c3d: 3
55030c: 3
49815f: 3
4e057c: 3
620b25: 3
549c8f: 3
55ba40: 3
51a630: 3
55040d: 3
55063a: 3
5498b1: 3
554ab7: 3
5511ce: 3
5508f0: 3
545902: 3
54531d: 3
550849: 3
411b46: 3
552603: 3
555e96: 3
550629: 3
622124: 3
544c2c: 3
4e0580: 3
620ad3: 3
55c043: 3
55c028: 4
4c8508: 4
55bc90: 4
550338: 4
501cbe: 4
550e48: 4
550b40: 4
556d4b: 4
555b45: 4
558a37: 4
550608: 4
443f6c: 4
550bb3: 4
556302: 4
549d41: 4
4106b3: 4
55bebd: 4
55bfb0: 4
5592d2: 4
68062a: 4
4ebae4: 4
5522cd: 4
55bed0: 4
555e47: 4
555504: 5
43b89a: 5
553cc0: 5
41631a: 5
558ec2: 5
558a41: 5
408910: 5
47d5ae: 5
5505ce: 5
433e41: 5
553c80: 5
411c7a: 5
558e89: 5
5502ec: 5
44416b: 5
4713dc: 5
629241: 5
550b50: 5
64caa0: 5
549d61: 5
621e95: 6
54ff84: 6
556e38: 6
47ea6d: 6
54ff6a: 6
553cac: 6
558ed3: 6
6292d0: 6
550114: 6
55bc80: 6
61d900: 6
558c2c: 6
549490: 6
550d38: 6
41077b: 6
410754: 6
553440: 6
55bec1: 6
64caa6: 7
559488: 7
548301: 7
43b8b8: 7
629304: 7
555da8: 7
412442: 7
550f70: 7
552760: 7
41242d: 7
550942: 7
550027: 7
629282: 7
41244b: 8
61ec00: 8
620b3f: 8
411a80: 8
5432b0: 8
55beb5: 8
550bc0: 8
4e0578: 8
549bc2: 8
412400: 8
544c60: 8
556dfe: 8
556500: 8
54a680: 8
41241d: 8
41cc10: 8
41d235: 8
501cc2: 8
41d422: 8
556e80: 9
557041: 9
557190: 9
546502: 9
556f4d: 9
556cc0: 9
43b442: 9
550ac4: 9
5571c1: 9
439c05: 9
4ebb8b: 9
51a7f1: 9
4c2570: 9
550341: 9
5448f0: 9
412241: 9
68021d: 9
51a843: 9
6225c0: 9
548582: 9
556fc1: 9
556f19: 9
5500c0: 9
553340: 9
54ff04: 9
61d146: 9
6802fd: 9
61d7e0: 9
412200: 9
556f42: 9
552bd0: 9
68024f: 9
6157d0: 9
553500: 9
400670: 9
556e40: 9
557002: 9
67c7c7: 9
556fb0: 9
5450ac: 9
556344: 9
6806af: 9
556ec2: 9
548570: 9
556dd4: 9
552c80: 9
54a500: 9
67ca58: 10
67c76c: 10
61cef0: 10
61d040: 10
54c8c4: 10
67c885: 10
67c5c0: 10
67c585: 10
55241b: 10
61ec70: 10
6170c4: 10
67ce6f: 10
54efe0: 10
617080: 10
411482: 10
54c8a0: 10
411460: 10
680599: 10
67cc4f: 10
54eec1: 10
61d108: 10
67cc81: 10
550c4c: 10
67c280: 10
67c33b: 10
54500c: 10
681460: 10
471501: 10
447960: 10
549b81: 10
549b40: 10
5458c0: 10
545870: 10
67ceeb: 10
61d081: 10
61cf00: 10
545300: 10
51a680: 10
67ce80: 10
68102b: 10
680f68: 10
67cf86: 10
67c843: 10
680f80: 10
41cc70: 10
680f1c: 10
549ace: 10
67ccc1: 10
67cf4e: 10
67c310: 10
67c88c: 10
67c880: 10
549cc1: 10
549b03: 10
550201: 10
550241: 10
67c544: 10
550c80: 10
67c520: 10
549c70: 10
61d881: 10
5498c3: 10
617100: 10
550cc3: 10
61ec81: 10
680286: 10
629270: 10
5493c0: 10
550f8e: 10
41d410: 10
549a7b: 10
550ecd: 10
5502c1: 10
549881: 10
443880: 10
41d441: 10
545882: 10
44ab20: 10
556281: 10
4340c1: 10
550505: 10
558e48: 10
55bc40: 10
549ec9: 10
67c340: 10
549870: 10
544c81: 10
67c661: 10
549a83: 10
67c67b: 10
54cb10: 10
61d0d3: 10
544ec4: 10
501cb0: 10
443870: 10
680307: 10
555f40: 10
622042: 10
47ea60: 10
410543: 10
61d842: 10
545042: 10
639783: 11
55002d: 11
55bf3b: 11
501300: 11
5012c3: 11
546960: 11
67c788: 11
622088: 11
54eedc: 12
5453c6: 12
555fc7: 12
55bf64: 12
4340b6: 12
55c0cc: 12
4441a6: 12
5505f1: 12
549fc1: 13
545341: 13
54a650: 13
4123c0: 13
5592a0: 13
55010d: 13
556275: 13
620af7: 13
546b30: 13
55008b: 13
5463e0: 13
4712b7: 13
410781: 13
546b50: 14
55bb46: 14
43b8cc: 14
416300: 14
4113c4: 14
559340: 14
546b90: 14
41d150: 14
53e170: 14
559300: 14
64cb45: 14
623f65: 14
4117f3: 14
550cb3: 14
549f00: 15
549cd5: 15
55bfc0: 15
549f83: 15
549d13: 15
549f70: 15
550cba: 15
554a84: 15
558342: 15
558320: 15
55233a: 15
55b752: 15
546ad0: 16
620b35: 16
55000d: 16
5555c3: 16
550eb0: 16
411804: 16
54ef00: 17
55bf41: 17
550280: 17
47ea80: 17
5504bd: 17
47eac0: 17
471481: 17
550400: 17
54aa80: 17
55044a: 17
550591: 17
550e40: 17
550f40: 17
550542: 17
54ab40: 17
555f06: 17
54eeb0: 17
54cae0: 17
55bf10: 17
550f03: 17
550f84: 17
5012f6: 18
4ebb63: 18
51a66d: 18
501280: 18
5012bc: 18
544e62: 18
43ad21: 18
4c2595: 18
5012ed: 18
620ac1: 18
555a84: 18
51a641: 18
550a80: 18
4712c4: 19
621440: 19
544fdb: 19
622260: 19
549c81: 19
5525c4: 20
62201f: 20
4c269a: 20
550144: 20
41065f: 20
49bf82: 21
544fc0: 21
51a684: 21
549fa0: 21
4713b5: 22
6223dc: 22
641120: 23
550010: 23
621e83: 23
41066e: 25
5507b5: 25
5465c0: 26
552282: 26
47d4b7: 26
55baa0: 26
621ffe: 27
549390: 27
412110: 27
47d4a3: 27
555540: 27
47d4ab: 28
55b745: 28
545283: 28
622083: 29
4c26a3: 29
548440: 29
544b74: 29
54492b: 29
55842d: 29
544c9b: 30
55833c: 30
439bb0: 30
53f544: 30
55be45: 31
622190: 31
622581: 32
54ff9a: 32
62228f: 32
47d5c0: 33
55bf30: 33
555bb1: 34
400640: 34
4ebaf4: 34
4ebfa0: 36
543401: 37
43b430: 37
623f20: 37
54ff8c: 39
62207f: 40
47d477: 42
47128d: 42
544ff8: 44
623f09: 44
471436: 44
622090: 45
506f20: 45
416e91: 45
4712bc: 49
400580: 49
63f85e: 50
62257c: 50
55c086: 50
622002: 50
47d5ba: 50
64e150: 51
64e080: 52
621f26: 53
551090: 53
620ae0: 55
620a3f: 57
49c100: 57
54fff8: 60
63fb0d: 60
5525f5: 61
47eb80: 62
545080: 62
4c2667: 63
444197: 63
5525ac: 64
506f34: 65
47d53a: 66
63fad6: 68
64e1d0: 68
47e5a0: 73
555f8f: 76
55bf00: 76
55c010: 76
623f34: 77
622108: 78
556420: 78
62215a: 78
621e1e: 79
5525eb: 82
621dee: 82
54c958: 83
621fdb: 84
41d1c7: 84
43b438: 84
622010: 88
411ba0: 88
412640: 90
47d480: 90
44415f: 90
620aa5: 91
507650: 92
445142: 93
4713a9: 93
620ab7: 95
620aad: 95
552142: 98
620961: 98
550091: 100
410641: 101
4ebf7c: 102
4c2660: 102
620aff: 103
620b09: 103
55214a: 104
550853: 104
550075: 105
49bf40: 106
621fc8: 107
621ec1: 111
55bf60: 112
53f48a: 113
55003d: 115
43b43b: 115
47d608: 117
41072e: 119
433f40: 119
444140: 120
55b7b0: 121
443f00: 122
555f38: 124
621f42: 126
550140: 126
555bbb: 127
47e5da: 129
4c2586: 132
552130: 133
410598: 133
411b01: 134
55b6fe: 134
621f84: 136
55bac3: 138
4712ab: 140
64cb03: 140
544914: 143
4713bc: 144
544907: 147
552482: 148
47d596: 149
555f27: 149
55bad3: 151
4ea0c7: 151
49bfab: 154
444186: 157
545370: 157
55214d: 162
444004: 163
549030: 163
4ea048: 166
556079: 167
443ff4: 169
545247: 171
550965: 174
556027: 175
5524a0: 177
55c020: 177
555f83: 177
5549c3: 182
4ebf82: 182
4e9fc4: 184
5451c1: 197
5507d2: 198
555f7c: 207
4450fb: 211
55bf83: 211
47d3b5: 212
433f36: 212
4ebf30: 212
624580: 214
416f03: 218
54f002: 221
55b1e5: 222
55115d: 223
620d89: 227
550191: 228
552252: 229
412180: 233
49c1b0: 236
548420: 239
6225ab: 243
64e160: 247
4441c1: 248
62096e: 248
55b6eb: 248
47d430: 249
4ea002: 251
443f82: 254
49c1c2: 254
471411: 256
556495: 256
550005: 258
62093b: 262
4441d5: 263
620980: 265
550002: 269
558441: 269
544f9e: 274
55100a: 274
63f85a: 275
55b176: 276
558405: 277
551001: 280
5501c2: 283
444180: 289
6225da: 293
552440: 294
507581: 297
545380: 299
552120: 303
54547e: 305
555afa: 309
55011a: 309
554ac0: 311
4441ba: 313
55b160: 314
4ebb80: 317
55548c: 318
4ebb04: 320
550b86: 322
550b25: 323
55b1c0: 324
55bba0: 325
64cac3: 330
411ac2: 330
545000: 331
4713a4: 331
54510b: 332
555b80: 333
5521c1: 333
629184: 334
4ea00b: 340
55067b: 341
545140: 344
55564d: 347
434103: 348
545481: 349
623f00: 349
44512a: 349
544b81: 354
5465b0: 355
4ebac0: 356
629170: 358
53e1b9: 359
555b04: 362
546640: 363
544acf: 365
546401: 365
41cc4c: 371
555400: 375
552411: 375
41cc4f: 382
64e1e0: 382
552598: 383
53f5b0: 385
621435: 386
544f08: 388
43b8f6: 393
4117af: 444
54ff23: 452
5583d5: 457
6408a3: 464
55218c: 473
5125d4: 495
6291bb: 503
4441eb: 566
6291b5: 577
444216: 585
444178: 644
4441ae: 717
416eb9: 767
545190: 767
5525be: 893
444028: 943
550931: 947
6291c1: 959
54490e: 996
552270: 1002
54515b: 1003
5524d8: 1020
411780: 1021
5524c9: 1021
41d1f7: 1022
552274: 1023
50754a: 1032
4441c7: 1044
62919a: 1142
55bb00: 1282
55bb22: 1287
552182: 1310
5555bc: 1375
471398: 1394
555d9d: 1437
555f2e: 1437
411aac: 1449
5507ee: 1539
550b49: 1575
41055f: 1723
62241f: 1770
549100: 1790
411afa: 1871
545180: 1886
54c9b1: 1906
554a73: 2035
555b1a: 2446
550ab2: 2500
623f81: 2503
549370: 2531
44427d: 2659
55bb37: 2676
41191a: 2696
507571: 2737
41053f: 3187
410737: 3244
4168b0: 3289
411c3e: 3431
47136d: 3510
416e8e: 3527
445148: 3568
4ebf44: 3573
4105d4: 3573
471366: 3924
555f5c: 4213
55039d: 4275
550397: 4313
555b54: 4413
41d1f4: 5793
47d45d: 6182
411c4a: 6468
620a5d: 6516
6408a0: 6739
411b0d: 7258
62200b: 7687
62094f: 7744
4712af: 8418
47eb9a: 8430
55bb33: 8486
411c5f: 8770
4168cb: 10143
47135d: 11344
41054e: 11460
5555a4: 11623
471359: 11705
4168b4: 12020
4ebb70: 12157
5124e1: 12170
555f6d: 12373
4ebf76: 12831
412730: 12895
4ebf40: 12944
4ebe6b: 13023
5507af: 13132
444020: 13302
550a73: 13322
49c1ec: 14132
433dff: 14175
621e17: 14195
55bb1e: 14579
622407: 15034
620aeb: 16146
416e84: 17697
4340f0: 18108
4ea01d: 18569
621e9a: 18857
621ea4: 18940
41195a: 18941
555b34: 19025
433def: 19151
41218b: 19893
55b173: 20228
544edb: 24051
47d453: 24271
4ec000: 26795
416eb3: 30855
416e72: 32072
416eb6: 33133
4168ba: 35233
47e5d4: 35371
471394: 36957
624599: 37969
41cc81: 47032
4ea019: 48580
41cc78: 51045
416ef9: 51253
54fe9b: 53714
550ff8: 67487
4e9fc1: 75948
54fefc: 78424
47133d: 83461
5432c8: 87953
55bb13: 88313
471351: 161403
47134d: 199136
PSCL5 TOTAL     ACCESS:     970365  HIT:     970365  MISS:          0  HIT %:        100  MISS %:          0   MPKI: 0
PSCL5 Test counter:          0
PSCL5 LOAD TRANSLATION ACCESS:     970360  HIT:     970360  MISS:          0  HIT %:        100  MISS %:          0   MPKI: 0
PSCL5 TRANSLATION FROM L1D PREFETCHER ACCESS:          5  HIT:          5  MISS:          0  HIT %:        100  MISS %:          0   MPKI: 0
PSCL5 PREFETCH  REQUESTED:          0  ISSUED:          0  USEFUL:          0  USELESS:          0
PSCL5 USEFUL LOAD PREFETCHES:          0 PREFETCH ISSUED TO LOWER LEVEL:          0  ACCURACY: -nan
PSCL5 TIMELY PREFETCHES:          0 LATE PREFETCHES: 0 DROPPED PREFETCHES: 0
PSCL5 COMMIT LATE PREFETCHES: 0 MISSED OPPORTUNITY: 0 LATE IN PQ: 0 UNCOVERED: 0
PSCL5 COMMIT LATE MSHR PREFETCHES: 0
PSCL5 MPKI TOTAL: 0 MSHR LATE: 0 PQ LATE: 0 COMMIT LATE: 0 MISSED OPPORTUNITY: 0 UNCOVERED: 0
PSCL5 PREFETCHES SAME FILL-ORIGIN LEVEL: 0 DIFFERENT FILL-ORIGIN LEVEL: 0

PSCL4 TOTAL     ACCESS:     970365  HIT:     970365  MISS:          0  HIT %:        100  MISS %:          0   MPKI: 0
PSCL4 Test counter:          0
PSCL4 LOAD TRANSLATION ACCESS:     970360  HIT:     970360  MISS:          0  HIT %:        100  MISS %:          0   MPKI: 0
PSCL4 TRANSLATION FROM L1D PREFETCHER ACCESS:          5  HIT:          5  MISS:          0  HIT %:        100  MISS %:          0   MPKI: 0
PSCL4 PREFETCH  REQUESTED:          0  ISSUED:          0  USEFUL:          0  USELESS:          0
PSCL4 USEFUL LOAD PREFETCHES:          0 PREFETCH ISSUED TO LOWER LEVEL:          0  ACCURACY: -nan
PSCL4 TIMELY PREFETCHES:          0 LATE PREFETCHES: 0 DROPPED PREFETCHES: 0
PSCL4 COMMIT LATE PREFETCHES: 0 MISSED OPPORTUNITY: 0 LATE IN PQ: 0 UNCOVERED: 0
PSCL4 COMMIT LATE MSHR PREFETCHES: 0
PSCL4 MPKI TOTAL: 0 MSHR LATE: 0 PQ LATE: 0 COMMIT LATE: 0 MISSED OPPORTUNITY: 0 UNCOVERED: 0
PSCL4 PREFETCHES SAME FILL-ORIGIN LEVEL: 0 DIFFERENT FILL-ORIGIN LEVEL: 0

PSCL3 TOTAL     ACCESS:     970365  HIT:     970365  MISS:          0  HIT %:        100  MISS %:          0   MPKI: 0
PSCL3 Test counter:          0
PSCL3 LOAD TRANSLATION ACCESS:     970360  HIT:     970360  MISS:          0  HIT %:        100  MISS %:          0   MPKI: 0
PSCL3 TRANSLATION FROM L1D PREFETCHER ACCESS:          5  HIT:          5  MISS:          0  HIT %:        100  MISS %:          0   MPKI: 0
PSCL3 PREFETCH  REQUESTED:          0  ISSUED:          0  USEFUL:          0  USELESS:          0
PSCL3 USEFUL LOAD PREFETCHES:          0 PREFETCH ISSUED TO LOWER LEVEL:          0  ACCURACY: -nan
PSCL3 TIMELY PREFETCHES:          0 LATE PREFETCHES: 0 DROPPED PREFETCHES: 0
PSCL3 COMMIT LATE PREFETCHES: 0 MISSED OPPORTUNITY: 0 LATE IN PQ: 0 UNCOVERED: 0
PSCL3 COMMIT LATE MSHR PREFETCHES: 0
PSCL3 MPKI TOTAL: 0 MSHR LATE: 0 PQ LATE: 0 COMMIT LATE: 0 MISSED OPPORTUNITY: 0 UNCOVERED: 0
PSCL3 PREFETCHES SAME FILL-ORIGIN LEVEL: 0 DIFFERENT FILL-ORIGIN LEVEL: 0

PSCL2 TOTAL     ACCESS:     970365  HIT:     550057  MISS:     420308  HIT %:    56.6856  MISS %:    43.3144   MPKI: 2.10154
PSCL2 Test counter:          0
PSCL2 LOAD TRANSLATION ACCESS:     970362  HIT:     550054  MISS:     420308  HIT %:    56.6854  MISS %:    43.3146   MPKI: 2.10154
PSCL2 TRANSLATION FROM L1D PREFETCHER ACCESS:          3  HIT:          3  MISS:          0  HIT %:        100  MISS %:          0   MPKI: 0
PSCL2 PREFETCH  REQUESTED:          0  ISSUED:          0  USEFUL:          0  USELESS:          0
PSCL2 USEFUL LOAD PREFETCHES:          0 PREFETCH ISSUED TO LOWER LEVEL:          0  ACCURACY: -nan
PSCL2 TIMELY PREFETCHES:          0 LATE PREFETCHES: 0 DROPPED PREFETCHES: 0
PSCL2 COMMIT LATE PREFETCHES: 0 MISSED OPPORTUNITY: 0 LATE IN PQ: 0 UNCOVERED: 0
PSCL2 COMMIT LATE MSHR PREFETCHES: 0
PSCL2 MPKI TOTAL: 0 MSHR LATE: 0 PQ LATE: 0 COMMIT LATE: 0 MISSED OPPORTUNITY: 0 UNCOVERED: 0
PSCL2 PREFETCHES SAME FILL-ORIGIN LEVEL: 0 DIFFERENT FILL-ORIGIN LEVEL: 0

LLC TOTAL     ACCESS:    7600849  HIT:    3143983  MISS:    4456866  HIT %:    41.3636  MISS %:    58.6364   MPKI: 22.2843
LLC Test counter:          0
LLC LOAD      ACCESS:    2142765  HIT:     554258  MISS:    1588507  HIT %:    25.8665  MISS %:    74.1335   MPKI: 7.94253
LLC RFO       ACCESS:     301425  HIT:      97770  MISS:     203655  HIT %:    32.4359  MISS %:    67.5641   MPKI: 1.01827
LLC PREFETCH  ACCESS:    2983738  HIT:     624771  MISS:    2358967  HIT %:    20.9392  MISS %:    79.0608   MPKI: 11.7948
LLC WRITEBACK ACCESS:    1490446  HIT:    1478701  MISS:      11745  HIT %:     99.212  MISS %:   0.788019   MPKI: 0.058725
LLC LOAD TRANSLATION ACCESS:     682472  HIT:     388480  MISS:     293992  HIT %:    56.9225  MISS %:    43.0775   MPKI: 1.46996
LLC TRANSLATION FROM L1D PREFETCHER ACCESS:          3  HIT:          3  MISS:          0  HIT %:        100  MISS %:          0   MPKI: 0
LLC PREFETCH  REQUESTED:          0  ISSUED:          0  USEFUL:     101830  USELESS:    2257183
LLC USEFUL LOAD PREFETCHES:     101830 PREFETCH ISSUED TO LOWER LEVEL:    2358967  ACCURACY: 4.31672
LLC TIMELY PREFETCHES:     101830 LATE PREFETCHES: 0 DROPPED PREFETCHES: 0
LLC COMMIT LATE PREFETCHES: 0 MISSED OPPORTUNITY: 0 LATE IN PQ: 0 UNCOVERED: 0
LLC COMMIT LATE MSHR PREFETCHES: 0
LLC MPKI TOTAL: 7.94253 MSHR LATE: 0 PQ LATE: 0 COMMIT LATE: 0 MISSED OPPORTUNITY: 0 UNCOVERED: 0
LLC PREFETCHES SAME FILL-ORIGIN LEVEL: 0 DIFFERENT FILL-ORIGIN LEVEL: 0
LLC AVERAGE MISS LATENCY: 168.521 cycles
LLC AVERAGE MISS LATENCY LOAD: 166.347 cycles
LLC AVERAGE MISS LATENCY PREFETCH: 169.588 cycles
LLC AVERAGE MSHR OCCUPANCY: 0.671319
LLC MSHR FULL: 0
LLC RQ	ACCESS:    3126673	FORWARD:          0	MERGED:          0	TO_CACHE:    3126665
LLC WQ	ACCESS:    1490446	FORWARD:         12	MERGED:          0	TO_CACHE:    1490446
LLC PQ	ACCESS:    2983742	FORWARD:          0	MERGED:          0	TO_CACHE:    2983738

LLC Dense regions hint to LLC: 0
4c8d01: 1
4ebf72: 1
501d6e: 1
501d8c: 1
511c10: 1
5906e0: 1
4c79c9: 1
4e0570: 1
4c8937: 1
4c7067: 1
41cc22: 1
41cc70: 1
552703: 1
4c8500: 1
55ba90: 1
550e84: 1
4cce4f: 1
501d02: 1
449d70: 1
558ac4: 1
411c77: 1
552c90: 1
680e22: 1
498140: 1
680e01: 1
680de2: 1
61d150: 1
47d441: 1
67c748: 1
4712c4: 1
4c868c: 1
4c8cd0: 1
558cce: 1
558eb4: 1
511a84: 1
54a71e: 1
4c86c4: 1
445101: 1
558c41: 1
55be85: 1
5504c0: 1
549700: 1
558cc1: 1
4c74c0: 1
55010d: 1
4c2680: 1
558c20: 1
552686: 1
4cce59: 1
412409: 1
4c8d53: 1
4c8dc1: 1
558a20: 1
63fad2: 1
498162: 1
4113bf: 1
552ad0: 1
550910: 1
4c7a42: 1
550cbd: 1
620b82: 1
519a46: 1
549adf: 1
558ca2: 1
4cce40: 1
620e58: 1
4c7a04: 1
498169: 1
4ebf37: 1
55bf2d: 1
444216: 1
4c74d9: 1
6814e2: 1
507688: 1
549c8f: 1
558d80: 1
4117c0: 1
558d40: 1
558ad6: 1
4cced6: 1
511c80: 1
4714ec: 1
519a81: 1
590696: 1
59068b: 1
590680: 1
556d8f: 1
519a30: 1
556dc0: 1
67c681: 1
4cd041: 1
511c40: 1
67cd4f: 1
4c8703: 1
511c1a: 1
67cda3: 1
4ccea2: 1
4c7044: 1
555f06: 1
629200: 1
549ee8: 1
5525ac: 1
545942: 1
555bc2: 1
555da8: 1
544c40: 1
555a70: 1
558d2d: 1
558d53: 1
558a8b: 1
4c8923: 1
558d02: 1
558b0a: 1
558b46: 1
4c8740: 1
55b280: 1
556067: 1
49c0e0: 1
550a40: 1
67cd04: 1
550690: 1
444281: 1
54975c: 1
511a8f: 1
4c8db1: 1
54cad0: 1
5557ef: 1
59071d: 1
4c7086: 1
511ce1: 1
552753: 1
4106b3: 1
4c7697: 1
4c86bf: 1
43b431: 1
550043: 1
4cd010: 1
4c703e: 1
511a50: 1
558cf0: 1
4e0583: 1
498148: 1
498180: 1
4c7020: 1
550c04: 1
5453bb: 2
549d41: 2
55bcd0: 2
6222c1: 2
4cce80: 2
544cc3: 2
6220c0: 2
6220e6: 2
5503c1: 2
4ebb8b: 2
55be88: 2
553c02: 2
553be0: 2
501cd7: 2
54ff9a: 2
63fb00: 2
544e90: 2
550010: 2
4c862b: 2
553c42: 2
47e640: 2
4c8516: 2
553c0c: 2
558dc0: 2
550b50: 2
549ef6: 2
5494b0: 2
549f7c: 2
553cdd: 2
4c79fa: 2
550c30: 2
55000d: 2
558e90: 2
549fb0: 2
4ebe60: 2
55c055: 2
550027: 2
55030c: 2
55bbe0: 2
410520: 2
43b8c0: 2
51a630: 3
554ab7: 3
5508f0: 3
620ad3: 3
55c043: 3
5505ce: 3
5498b1: 3
411b46: 3
54531d: 3
55ba40: 3
54492b: 3
552603: 3
550849: 3
555e96: 3
550bb3: 3
544c2c: 3
558c3d: 3
55bf41: 3
545902: 3
545947: 3
4e0580: 3
49815f: 3
5511ce: 3
443f6c: 3
4e057c: 3
623f65: 3
620b25: 3
622124: 3
555bb1: 3
4712b7: 3
556302: 4
550608: 4
501cbe: 4
43b89a: 4
47d5ae: 4
555e47: 4
433e41: 4
55bc90: 4
549d61: 4
556d4b: 4
4712ab: 4
4c8508: 4
558e89: 4
5522cd: 4
4ebae4: 4
55bed0: 4
558a37: 4
558a41: 4
5592d2: 4
55bebd: 4
555b45: 4
408910: 4
64e1d0: 4
55bf64: 4
55bf10: 4
550b40: 4
550338: 4
68062a: 4
41077b: 5
629241: 5
558ec2: 5
411c7a: 5
4712bc: 5
621e83: 5
553cac: 5
558ed3: 5
549490: 5
64caa0: 5
55bf3b: 5
553440: 5
410754: 5
553cc0: 5
553c80: 5
556e38: 6
41d422: 6
41244b: 6
62201f: 6
54ff84: 6
412442: 6
412400: 6
41242d: 6
54ff6a: 6
54500c: 6
61d900: 6
55bec1: 6
5507b5: 6
55bc80: 6
6292d0: 6
558c2c: 6
556f4d: 7
548301: 7
43b8b8: 7
64caa6: 7
556dfe: 7
629304: 7
559488: 7
41241d: 7
629282: 7
544c9b: 7
556dd4: 7
620b35: 7
550942: 7
61ec00: 8
556500: 8
411a80: 8
549bc2: 8
55beb5: 8
5432b0: 8
544c60: 8
5450ac: 8
552bd0: 8
501cc2: 8
54a680: 8
54eedc: 8
544907: 8
4e0578: 8
6225c0: 8
41cc10: 8
550bc0: 8
556ec2: 9
556f42: 9
556f19: 9
5448f0: 9
629270: 9
61d7e0: 9
546502: 9
5500c0: 9
556fc1: 9
400670: 9
556275: 9
545300: 9
553340: 9
550ac4: 9
553500: 9
54c958: 9
556fb0: 9
6157d0: 9
54a500: 9
558e48: 9
501cb0: 9
557002: 9
54ff04: 9
412200: 9
439c05: 9
412241: 9
556e40: 9
552c80: 9
557190: 9
51a7f1: 9
548582: 9
548570: 9
61d146: 9
51a843: 9
68021d: 9
621dee: 9
5571c1: 9
6806af: 9
556344: 9
5012c3: 9
43b442: 9
55241b: 9
67c7c7: 9
68024f: 9
556e80: 9
6802fd: 9
550341: 9
556cc0: 9
4c2570: 9
557041: 9
680f80: 10
550241: 10
549cc1: 10
67c880: 10
67c76c: 10
67c88c: 10
680f1c: 10
617080: 10
54c8a0: 10
61d040: 10
550c80: 10
639783: 10
6170c4: 10
61ec70: 10
550505: 10
67c585: 10
67c5c0: 10
67c885: 10
549b81: 10
67ce6f: 10
680599: 10
67cc81: 10
55bad3: 10
61d842: 10
47ea60: 10
545042: 10
67c67b: 10
680307: 10
61d108: 10
447960: 10
549c70: 10
549881: 10
54c8c4: 10
61cf00: 10
549a7b: 10
550ecd: 10
471501: 10
549870: 10
544ec4: 10
67c310: 10
5502c1: 10
549b40: 10
54efe0: 10
410543: 10
443870: 10
67c661: 10
61cef0: 10
47d53a: 10
61d0d3: 10
411482: 10
622042: 10
67c788: 10
555f40: 10
411460: 10
67c544: 10
550c4c: 10
549ace: 10
5498c3: 10
549b03: 10
544c81: 10
617100: 10
41d410: 10
67c843: 10
550201: 10
67c340: 10
549a83: 10
680f68: 10
54cb10: 10
61ec81: 10
55bc40: 10
549ec9: 10
67c520: 10
550cc3: 10
67cc4f: 10
545882: 10
4340c1: 10
51a680: 10
556281: 10
443880: 10
5493c0: 10
41d441: 10
67cf86: 10
67ca58: 10
67cf4e: 10
61d081: 10
680286: 10
67ceeb: 10
61d881: 10
681460: 10
545870: 10
4713b5: 10
54eec1: 10
5458c0: 10
67ccc1: 10
67c33b: 10
67c280: 10
67ce80: 10
68102b: 10
622088: 11
43b8cc: 11
546960: 11
501300: 11
53f544: 11
64e150: 11
4117f3: 11
620af7: 12
549f83: 12
549d13: 12
55c0cc: 12
54cae0: 12
549f70: 12
55008b: 12
5505f1: 12
4340b6: 12
621e1e: 12
55842d: 12
549f00: 12
64cb45: 12
55b160: 12
545341: 12
5453c6: 12
555fc7: 12
5549c3: 12
49bf82: 12
5592a0: 13
5555c3: 13
552482: 13
411804: 13
55c010: 13
549fc1: 13
54a650: 13
63f85e: 13
4123c0: 13
558342: 13
558320: 13
546b30: 13
549cd5: 13
623f34: 13
554a84: 13
5463e0: 13
4113c4: 13
55003d: 14
546b90: 14
416300: 14
552130: 14
55bfc0: 14
444180: 14
55b752: 14
546ad0: 14
41d150: 14
4ebac0: 14
546b50: 14
559300: 14
559340: 14
53e170: 14
550cb3: 14
55bb46: 14
550cba: 14
550eb0: 14
55233a: 14
550f40: 15
54eeb0: 15
47ea80: 15
550542: 15
550591: 15
550f84: 15
54ef00: 15
55bf30: 15
55044a: 15
471481: 15
5504bd: 15
621ec1: 15
550400: 15
54ab40: 15
550280: 15
550e40: 15
47eac0: 15
550f03: 15
51a66d: 16
544e62: 16
550a80: 16
54aa80: 16
43ad21: 16
501280: 16
555a84: 16
5012bc: 17
4c269a: 17
4ebb63: 17
51a641: 17
544acf: 17
5012ed: 17
5012f6: 17
621440: 17
55bac3: 18
549c81: 18
41cc4c: 18
53f5b0: 18
549030: 18
620ac1: 18
5525c4: 18
555b04: 18
620d89: 18
555b80: 18
544fdb: 18
41cc4f: 18
55b745: 18
54ff23: 19
544fc0: 19
622260: 19
5507d2: 19
51a684: 19
552598: 19
545000: 19
6223dc: 19
629170: 20
552120: 20
641120: 20
43b8f6: 20
550005: 20
5525f5: 20
556079: 20
41065f: 20
4ebaf4: 21
4ebb04: 21
549fa0: 21
47d4a3: 21
550b25: 21
546401: 21
444004: 21
621ffe: 22
41066e: 22
5465b0: 22
4ebfa0: 22
5524a0: 22
55067b: 22
558441: 22
550002: 23
552142: 23
5465c0: 23
550091: 23
443f82: 23
555400: 23
555540: 23
41072e: 24
412110: 24
545140: 24
4ebf30: 24
544914: 24
552282: 24
552411: 24
544b74: 24
55214d: 24
47d5c0: 24
55baa0: 24
550b86: 24
47d4b7: 25
622190: 25
400640: 25
555f27: 25
55100a: 25
629184: 25
47d5ba: 25
545283: 25
622083: 26
55564d: 26
544f08: 26
545481: 26
548440: 26
556495: 26
62228f: 26
554ac0: 26
622581: 26
4ebf7c: 27
55bf00: 27
471436: 27
47d4ab: 27
555afa: 27
64e1e0: 27
4713a9: 28
55be45: 28
556027: 28
558405: 28
62093b: 28
55bba0: 28
55214a: 28
62096e: 28
55011a: 29
623f20: 29
54ff8c: 29
47d3b5: 29
49bf40: 29
623f09: 29
439bb0: 30
5521c1: 30
55548c: 30
546640: 30
47d608: 30
54510b: 30
47128d: 30
55c020: 31
5501c2: 31
4ea002: 31
507581: 31
544ff8: 31
544b81: 31
445142: 31
4ebb80: 32
43b430: 32
543401: 32
54f002: 33
416e91: 33
4441c1: 33
53e1b9: 33
47d477: 33
4ebf82: 33
411ac2: 34
49bfab: 34
555f38: 34
433f40: 34
620961: 35
544f9e: 35
621f84: 35
433f36: 35
64cac3: 35
54547e: 35
620980: 36
64e080: 37
62207f: 37
551001: 37
506f20: 37
622002: 38
550853: 38
434103: 38
54fff8: 38
55bf60: 39
620ae0: 39
551090: 39
63fad6: 39
400580: 40
621f42: 40
55c086: 40
47e5a0: 41
64e160: 41
552440: 41
62257c: 42
623f00: 42
621f26: 42
444197: 42
41d1c7: 42
4ea048: 43
63fb0d: 43
555f83: 43
550191: 43
620a3f: 43
545080: 43
622090: 43
622010: 44
4117af: 44
506f34: 44
556420: 45
49c100: 46
412180: 46
49c1b0: 46
47eb80: 46
49c1c2: 48
53f48a: 48
5451c1: 48
416f03: 49
443f00: 50
507650: 51
555f8f: 51
55b1e5: 52
471411: 52
63f85a: 53
47d480: 54
410641: 54
621fdb: 55
412640: 56
55115d: 56
55bf83: 56
550075: 57
4c2660: 57
550140: 59
444140: 59
411ba0: 60
548420: 60
4c2667: 61
43b438: 62
47e5da: 62
4c2586: 62
55b6fe: 63
4441eb: 63
4e9fc4: 63
411b01: 65
47d430: 65
55b7b0: 66
62215a: 67
4ea0c7: 67
410598: 68
622108: 68
50754a: 68
621435: 69
47d596: 70
43b43b: 71
55b176: 71
64cb03: 74
4713bc: 81
5525eb: 82
621fc8: 85
444028: 85
620aa5: 88
620ab7: 89
555d9d: 89
620aad: 90
620b09: 99
5507ee: 99
620aff: 99
624580: 106
416eb9: 107
41d1f7: 109
55b1c0: 125
555bbb: 127
443ff4: 138
5125d4: 141
62919a: 146
545370: 153
55b6eb: 163
550965: 169
545247: 171
4450fb: 183
555f7c: 200
6225ab: 212
4713a4: 219
552252: 221
4441d5: 249
545380: 292
6225da: 293
4441ba: 295
4ea00b: 339
44512a: 347
6291b5: 370
6291bb: 405
550397: 435
5583d5: 439
55039d: 445
6408a3: 463
55218c: 466
6291c1: 513
471398: 544
545190: 621
4441ae: 698
62241f: 776
4ebe6b: 824
5525be: 886
550931: 938
55bb00: 972
54490e: 993
552270: 997
54515b: 997
4441c7: 999
552274: 1005
552182: 1008
5524d8: 1016
5524c9: 1018
411780: 1021
55bb22: 1265
41191a: 1287
5555bc: 1305
411aac: 1331
555f2e: 1398
549100: 1443
47136d: 1455
471366: 1481
550b49: 1572
41055f: 1600
545180: 1662
411afa: 1733
54c9b1: 1771
507571: 1837
554a73: 2035
623f81: 2271
555b1a: 2445
550ab2: 2496
549370: 2525
44427d: 2630
55bb37: 2632
411c4a: 2807
41053f: 2970
4712af: 3132
4168b0: 3170
410737: 3238
4105d4: 3297
411b0d: 3405
411c3e: 3408
445148: 3474
416e8e: 3503
4ebf44: 3554
47eb9a: 4035
555f5c: 4119
41d1f4: 4341
555b54: 4409
411c5f: 4506
47135d: 5671
47d45d: 5808
471359: 5816
62200b: 6446
620a5d: 6492
621e17: 6505
6408a0: 6569
412730: 6615
62094f: 7698
55bb33: 8348
5124e1: 8515
4168cb: 9047
47e5d4: 10257
41054e: 10632
5555a4: 10911
4168b4: 11037
41195a: 11333
4ebb70: 12093
5507af: 12176
444020: 12290
555f6d: 12343
4ebf40: 12770
4ebf76: 12794
49c1ec: 13230
550a73: 13285
433dff: 14098
55bb1e: 14344
622407: 14949
620aeb: 16091
416eb6: 16130
621e9a: 17112
416e84: 17616
4340f0: 18002
4168ba: 18153
4ea01d: 18530
4ec000: 18799
621ea4: 18892
555b34: 19018
433def: 19034
41218b: 19857
55b173: 20114
471394: 22039
47d453: 22991
41cc78: 23509
544edb: 23707
416eb3: 27820
47133d: 30773
416e72: 31179
41cc81: 34267
54fe9b: 36356
624599: 37776
550ff8: 42397
54fefc: 47151
4ea019: 48460
416ef9: 49956
4e9fc1: 75713
55bb13: 86919
5432c8: 87811
471351: 93459
47134d: 115881

RAW hits: 3327779
Loads Generated: 66872539
Loads sent to L1D: 63544760
Stores Generated: 37145094
Stores sent to L1D: 37145107
Major fault: 0 Minor fault: 53031
Allocated PAGES: 53031
Total Load insts: 78627193
Total Non-spec loads: 27218585
Percentage of speculative loads: 65.3827
L1D response latency: 120.962 cycles
Load retirement latency: 203.898 cycles


stream: 
stream:times selected: 21281872
stream:pref_filled: 3260637
stream:pref_useful: 578178
stream:pref_late: 59479
stream:misses: 851186
stream:misses_by_poll: 0

CS: 
CS:times selected: 129550
CS:pref_filled: 34770
CS:pref_useful: 7360
CS:pref_late: 8
CS:misses: 2480
CS:misses_by_poll: 9

CPLX: 
CPLX:times selected: 21140216
CPLX:pref_filled: 1707466
CPLX:pref_useful: 88054
CPLX:pref_late: 3714
CPLX:misses: 2794071
CPLX:misses_by_poll: 6033

NL_L1: 
NL:times selected: 108071
NL:pref_filled: 35273
NL:pref_useful: 7308
NL:pref_late: 953
NL:misses: 31331
NL:misses_by_poll: 2

total selections: 42659709
total_filled: 4050021
total_useful: 546354
total_late: 65753
total_polluted: 6044
total_misses_after_warmup: 3436618
conflicts: 1699540
Degree Incremented Times: 0
Degree Decremented Times: 899165

L1 IP Table Write Accesses: 45848262
L1 IP Table Read Accesses: 44148722
L1 RST Write Accesses: 17378737
L1 RST Read Accesses: 34757474
L1 CSPT Write Accesses: 17378737
L1 CSPT Read Accesses: 34642670
L1 RR Filter Tag Write Accesses: 10642826
L1 RR Filter Tag Read Accesses: 635154402
L1 IP Table Tag Write Accesses: 50587836
L1 IP Table Tag Read Accesses: 50587836
L1 RST Tag Write Accesses: 0
L1 RST Tag Read Accesses: 192051890
L1 RR Filter Write Accesses: 0
L1 RR Filter Read Accesses: 22533559
test: 10192132

DRAM Statistics
 CHANNEL 0
 RQ ROW_BUFFER_HIT:     372320  ROW_BUFFER_MISS:    4072776
 DBUS_CONGESTED:        781
 WQ ROW_BUFFER_HIT:     258934  ROW_BUFFER_MISS:     825129  FULL:          0

 AVG_CONGESTED_CYCLE: 4
 All warmup complete: 2
Channel 0 Bank busy for read cycles: 0
Channel 0 Bank busy for write cycles: 0
Channel 0
Rank 0
0banks busy for read cycles: 407802895
0banks busy for write cycles: 510480
1banks busy for read cycles: 177686740
1banks busy for write cycles: 76603708
2banks busy for read cycles: 113376837
2banks busy for write cycles: 36057381
3banks busy for read cycles: 43938429
3banks busy for write cycles: 16074114
4banks busy for read cycles: 14827224
4banks busy for write cycles: 6724271
5banks busy for read cycles: 4969415
5banks busy for write cycles: 2646039
6banks busy for read cycles: 1290884
6banks busy for write cycles: 957351
7banks busy for read cycles: 179328
7banks busy for write cycles: 289480
8banks busy for read cycles: 15549
8banks busy for write cycles: 45932

CPU 0 Branch Prediction Accuracy: 98.172% MPKI: 3.83776 Average ROB Occupancy at Mispredict: 37.9292
Branch types
NOT_BRANCH: 158010842 79.0054%
BRANCH_DIRECT_JUMP: 2330259 1.16513%
BRANCH_INDIRECT: 674228 0.337114%
BRANCH_CONDITIONAL: 26837265 13.4186%
BRANCH_DIRECT_CALL: 3701835 1.85092%
BRANCH_INDIRECT_CALL: 2371706 1.18585%
BRANCH_RETURN: 6073538 3.03677%
BRANCH_OTHER: 0 0%

DRAM PAGES: 1048576
Allocated PAGES: 53031
