
*** ChampSim Multicore Out-of-Order Simulator ***

Warmup Instructions: 50000000
Simulation Instructions: 200000000
Number of CPUs: 1
LLC sets: 2048
LLC ways: 16
Secure Berti: OFF
Berti: OFF
Berti Fill: OFF
On commit prefetching: OFF
L2 LLC Bypass speculative loads: OFF
Off-chip DRAM Size: 4096 MB Channels: 1 Width: 64-bit Data Rate: 6400 MT/s
CPU 0 runs /home/sumon/secure_berti/Berti_Baseline/../../traces/spec/621.wrf_s-8065B.champsimtrace.xz
.xz
BTB has LRU replacement policy
ITLB has LRU replacement policy
DTLB has LRU replacement policy
STLB has LRU replacement policy
L1I has LRU replacement policy
IP Table Entries: 1024
CSPT Entries: 128
RR_ENTRIES: 32
RST_ENTRIES: 8
L1D has LRU replacement policy
L2C has LRU replacement policy
LLC has LRU replacement policy
Heartbeat CPU 0 instructions: 10000002 cycles: 3025481 heartbeat IPC: 3.30526 cumulative IPC: 3.30526 (Simulation time: 0 hr 0 min 27 sec) 
Heartbeat CPU 0 instructions: 20000000 cycles: 6035704 heartbeat IPC: 3.32201 cumulative IPC: 3.31362 (Simulation time: 0 hr 0 min 51 sec) 
Heartbeat CPU 0 instructions: 30000000 cycles: 9021297 heartbeat IPC: 3.34942 cumulative IPC: 3.32546 (Simulation time: 0 hr 1 min 16 sec) 
Heartbeat CPU 0 instructions: 40000003 cycles: 12091163 heartbeat IPC: 3.25747 cumulative IPC: 3.3082 (Simulation time: 0 hr 1 min 41 sec) 
Heartbeat CPU 0 instructions: 50000002 cycles: 15092833 heartbeat IPC: 3.33148 cumulative IPC: 3.31283 (Simulation time: 0 hr 2 min 7 sec) 

Warmup complete CPU 0 instructions: 50000002 cycles: 15092833 (Simulation time: 0 hr 2 min 7 sec) 

Heartbeat CPU 0 instructions: 60000003 cycles: 24654922 heartbeat IPC: 1.0458 cumulative IPC: 1.0458 (Simulation time: 0 hr 2 min 29 sec) 
Heartbeat CPU 0 instructions: 70000000 cycles: 35554062 heartbeat IPC: 0.917503 cumulative IPC: 0.977458 (Simulation time: 0 hr 2 min 48 sec) 
Heartbeat CPU 0 instructions: 80000001 cycles: 45340907 heartbeat IPC: 1.02178 cumulative IPC: 0.991799 (Simulation time: 0 hr 3 min 10 sec) 
Heartbeat CPU 0 instructions: 90000000 cycles: 56059476 heartbeat IPC: 0.93296 cumulative IPC: 0.976404 (Simulation time: 0 hr 3 min 29 sec) 
Heartbeat CPU 0 instructions: 100000000 cycles: 66114368 heartbeat IPC: 0.994541 cumulative IPC: 0.979978 (Simulation time: 0 hr 3 min 52 sec) 
Heartbeat CPU 0 instructions: 110000000 cycles: 76654145 heartbeat IPC: 0.948787 cumulative IPC: 0.974638 (Simulation time: 0 hr 4 min 10 sec) 
Heartbeat CPU 0 instructions: 120000000 cycles: 90407015 heartbeat IPC: 0.727121 cumulative IPC: 0.92944 (Simulation time: 0 hr 4 min 39 sec) 
Heartbeat CPU 0 instructions: 130000002 cycles: 104058531 heartbeat IPC: 0.73252 cumulative IPC: 0.899223 (Simulation time: 0 hr 5 min 10 sec) 
Heartbeat CPU 0 instructions: 140000001 cycles: 117722452 heartbeat IPC: 0.731854 cumulative IPC: 0.87694 (Simulation time: 0 hr 5 min 40 sec) 
Heartbeat CPU 0 instructions: 150000002 cycles: 132888621 heartbeat IPC: 0.659362 cumulative IPC: 0.848927 (Simulation time: 0 hr 6 min 12 sec) 
Heartbeat CPU 0 instructions: 160000000 cycles: 145985915 heartbeat IPC: 0.763516 cumulative IPC: 0.840381 (Simulation time: 0 hr 6 min 32 sec) 
Heartbeat CPU 0 instructions: 170000003 cycles: 159921815 heartbeat IPC: 0.717571 cumulative IPC: 0.828563 (Simulation time: 0 hr 7 min 2 sec) 
Heartbeat CPU 0 instructions: 180000000 cycles: 168472700 heartbeat IPC: 1.16947 cumulative IPC: 0.847569 (Simulation time: 0 hr 7 min 20 sec) 
Heartbeat CPU 0 instructions: 190000001 cycles: 177402890 heartbeat IPC: 1.1198 cumulative IPC: 0.862547 (Simulation time: 0 hr 7 min 41 sec) 
Heartbeat CPU 0 instructions: 200000003 cycles: 186312695 heartbeat IPC: 1.12236 cumulative IPC: 0.876067 (Simulation time: 0 hr 8 min 1 sec) 
Heartbeat CPU 0 instructions: 210000000 cycles: 195089874 heartbeat IPC: 1.13932 cumulative IPC: 0.888903 (Simulation time: 0 hr 8 min 18 sec) 
Heartbeat CPU 0 instructions: 220000000 cycles: 203538035 heartbeat IPC: 1.18369 cumulative IPC: 0.902119 (Simulation time: 0 hr 8 min 38 sec) 
Heartbeat CPU 0 instructions: 230000000 cycles: 214645705 heartbeat IPC: 0.900279 cumulative IPC: 0.902017 (Simulation time: 0 hr 8 min 57 sec) 
Heartbeat CPU 0 instructions: 240000002 cycles: 227161727 heartbeat IPC: 0.798976 cumulative IPC: 0.895935 (Simulation time: 0 hr 9 min 21 sec) 
Heartbeat CPU 0 instructions: 250000000 cycles: 241985741 heartbeat IPC: 0.674581 cumulative IPC: 0.881473 (Simulation time: 0 hr 9 min 50 sec) 
Finished CPU 0 instructions: 200000000 cycles: 226892911 cumulative IPC: 0.881473 (Simulation time: 0 hr 9 min 50 sec) 

ChampSim completed all CPUs

Region of Interest Statistics

CPU 0 cumulative IPC: 0.881473 instructions: 200000000 cycles: 226892911
ITLB TOTAL     ACCESS:   28302882  HIT:   28302737  MISS:        145  HIT %:    99.9995  MISS %: 0.000512315   MPKI: 0.000725
ITLB Test counter:          0
ITLB LOAD TRANSLATION ACCESS:   28302882  HIT:   28302737  MISS:        145  HIT %:    99.9995  MISS %: 0.000512315   MPKI: 0.000725
ITLB PREFETCH  REQUESTED:          0  ISSUED:          0  USEFUL:          0  USELESS:          0
ITLB USEFUL LOAD PREFETCHES:          0 PREFETCH ISSUED TO LOWER LEVEL:          0  ACCURACY: -nan
ITLB TIMELY PREFETCHES:          0 LATE PREFETCHES: 0 DROPPED PREFETCHES: 0
ITLB COMMIT LATE PREFETCHES: 0 MISSED OPPORTUNITY: 0 LATE IN PQ: 0 UNCOVERED: 0
ITLB COMMIT LATE MSHR PREFETCHES: 0
ITLB MPKI TOTAL: 0 MSHR LATE: 0 PQ LATE: 0 COMMIT LATE: 0 MISSED OPPORTUNITY: 0 UNCOVERED: 0
ITLB PREFETCHES SAME FILL-ORIGIN LEVEL: 0 DIFFERENT FILL-ORIGIN LEVEL: 0
ITLB AVERAGE MISS LATENCY: 232.669 cycles
ITLB AVERAGE MISS LATENCY LOAD: -nan cycles
ITLB AVERAGE MISS LATENCY PREFETCH: -nan cycles
ITLB AVERAGE MSHR OCCUPANCY: 2.01393e-06
ITLB MSHR FULL: 0
ITLB RQ	ACCESS:   34402962	FORWARD:          0	MERGED:    6100026	TO_CACHE:   28302936

DTLB TOTAL     ACCESS:   44187601  HIT:   44116415  MISS:      71186  HIT %:    99.8389  MISS %:   0.161099   MPKI: 0.35593
DTLB Test counter:          0
DTLB LOAD TRANSLATION ACCESS:   44187601  HIT:   44116415  MISS:      71186  HIT %:    99.8389  MISS %:   0.161099   MPKI: 0.35593
DTLB PREFETCH  REQUESTED:          0  ISSUED:          0  USEFUL:          0  USELESS:          0
DTLB USEFUL LOAD PREFETCHES:          0 PREFETCH ISSUED TO LOWER LEVEL:          0  ACCURACY: -nan
DTLB TIMELY PREFETCHES:          0 LATE PREFETCHES: 0 DROPPED PREFETCHES: 0
DTLB COMMIT LATE PREFETCHES: 0 MISSED OPPORTUNITY: 0 LATE IN PQ: 0 UNCOVERED: 0
DTLB COMMIT LATE MSHR PREFETCHES: 0
DTLB MPKI TOTAL: 0 MSHR LATE: 0 PQ LATE: 0 COMMIT LATE: 0 MISSED OPPORTUNITY: 0 UNCOVERED: 0
DTLB PREFETCHES SAME FILL-ORIGIN LEVEL: 0 DIFFERENT FILL-ORIGIN LEVEL: 0
DTLB AVERAGE MISS LATENCY: 31.9579 cycles
DTLB AVERAGE MISS LATENCY LOAD: -nan cycles
DTLB AVERAGE MISS LATENCY PREFETCH: -nan cycles
DTLB AVERAGE MSHR OCCUPANCY: 0.0068249
DTLB MSHR FULL: 7.41754e-05
DTLB RQ	ACCESS:   49896062	FORWARD:          0	MERGED:    5666252	TO_CACHE:   44229810

STLB TOTAL     ACCESS:    3132976  HIT:    3117457  MISS:      15519  HIT %:    99.5047  MISS %:   0.495344   MPKI: 0.077595
STLB Test counter:          0
STLB LOAD TRANSLATION ACCESS:      71331  HIT:      55814  MISS:      15517  HIT %:    78.2465  MISS %:    21.7535   MPKI: 0.077585
STLB TRANSLATION FROM L1D PREFETCHER ACCESS:    3061645  HIT:    3061643  MISS:          2  HIT %:    99.9999  MISS %: 6.53244e-05   MPKI: 1e-05
STLB PREFETCH  REQUESTED:          0  ISSUED:          0  USEFUL:          2  USELESS:          0
STLB USEFUL LOAD PREFETCHES:          2 PREFETCH ISSUED TO LOWER LEVEL:          0  ACCURACY: inf
STLB TIMELY PREFETCHES:          2 LATE PREFETCHES: 0 DROPPED PREFETCHES: 0
STLB COMMIT LATE PREFETCHES: 0 MISSED OPPORTUNITY: 0 LATE IN PQ: 0 UNCOVERED: 0
STLB COMMIT LATE MSHR PREFETCHES: 0
STLB MPKI TOTAL: 0 MSHR LATE: 0 PQ LATE: 0 COMMIT LATE: 0 MISSED OPPORTUNITY: 0 UNCOVERED: 0
STLB PREFETCHES SAME FILL-ORIGIN LEVEL: 0 DIFFERENT FILL-ORIGIN LEVEL: 0
STLB AVERAGE MISS LATENCY: 106.921 cycles
STLB AVERAGE MISS LATENCY LOAD: -nan cycles
STLB AVERAGE MISS LATENCY PREFETCH: -nan cycles
STLB AVERAGE MSHR OCCUPANCY: 0.00782259
STLB MSHR FULL: 0
STLB RQ	ACCESS:    9979645	FORWARD:          0	MERGED:    6846669	TO_CACHE:    3132976

STLB Hit, L1D data hit: 0
STLB Hit, L2C data hit: 0
STLB Hit, LLC data hit: 0
STLB Hit, LLC data miss: 0
STLB STLB hints to L2: 0
L1D TOTAL     ACCESS:   58312280  HIT:   55428340  MISS:    2883940  HIT %:    95.0543  MISS %:    4.94568   MPKI: 14.4197
L1D Test counter:          0
L1D LOAD      ACCESS:   41256377  HIT:   40880812  MISS:     556857  HIT %:    99.0897  MISS %:    0.91032   MPKI: 1.87783
L1D RFO       ACCESS:    7302972  HIT:    6886638  MISS:     416334  HIT %:    94.2991  MISS %:    5.70088   MPKI: 2.08167
L1D PREFETCH  ACCESS:    9752931  HIT:    7660890  MISS:    2092041  HIT %:    78.5496  MISS %:    21.4504   MPKI: 10.4602
L1D PREFETCH  REQUESTED:   23117113  ISSUED:   19827248  USEFUL:    1840960  USELESS:     251046
L1D USEFUL LOAD PREFETCHES:    1840960 PREFETCH ISSUED TO LOWER LEVEL:    2149965  ACCURACY: 85.6274
L1D TIMELY PREFETCHES:    1840960 LATE PREFETCHES: 55466 DROPPED PREFETCHES: 0
L1D COMMIT LATE PREFETCHES: 0 MISSED OPPORTUNITY: 0 LATE IN PQ: 25164 UNCOVERED: 0
L1D COMMIT LATE MSHR PREFETCHES: 0
L1D MPKI TOTAL: 2.78429 MSHR LATE: 0.27733 PQ LATE: 0.12582 COMMIT LATE: 0 MISSED OPPORTUNITY: 0 UNCOVERED: 0
L1D PREFETCHES SAME FILL-ORIGIN LEVEL: 2149965 DIFFERENT FILL-ORIGIN LEVEL: 0
L1D AVERAGE MISS LATENCY: 154.419 cycles
L1D AVERAGE MISS LATENCY LOAD: 127.851 cycles
L1D AVERAGE MISS LATENCY PREFETCH: 132.712 cycles
L1D AVERAGE MSHR OCCUPANCY: 2.1825
L1D MSHR FULL: 0.0658974
L1D RQ	ACCESS:   60797246	FORWARD:          0	MERGED:   19343184	TO_CACHE:   41437669
L1D WQ	ACCESS:    8497479	FORWARD:      20023	MERGED:      39086	TO_CACHE:    8458393
L1D PQ	ACCESS:    9918934	FORWARD:          0	MERGED:       6990	TO_CACHE:    9908314

L1D UNIQUE REGIONS ACCESSED: 0
L1D REGIONS CONFLICTS: 0
L1D Cross Page Prefetch Requests: 0
L1D Same Page Prefetch Requests: 13944484
L1D ROI Sum of L1D PQ occupancy: 191906269
L1D PREFETCHES PUSHED FROM L2C: 0
1515f23: 1
4e5d97: 1
93021e: 1
b6a72a: 1
14fab6f: 1
93962f: 1
14fa81a: 1
932dfe: 1
931f0c: 1
8ef9f7: 1
93227b: 1
f34291: 1
51f4e7: 1
1515297: 1
1513985: 1
93023e: 1
92f5b5: 1
924537: 1
91596b: 1
14fa3d0: 1
939023: 1
9288e6: 1
14fa340: 1
8eff98: 1
14fadb4: 1
14fa370: 1
924aba: 1
92e0c9: 1
1516b60: 1
8efd5c: 1
f349fb: 1
508cf6: 1
9392cc: 1
51a9b6: 1
14fa400: 1
9278b7: 1
512abc: 1
b679f9: 1
5297ed: 1
8ef772: 1
1513929: 1
f36129: 1
5123b0: 1
90cc55: 1
4ecaf1: 1
509216: 1
f3533a: 1
8f0018: 1
8efef6: 1
93245d: 1
8e9cfb: 1
8f0075: 1
151529f: 1
8f012d: 1
4ecb1c: 1
8f01b7: 1
926924: 1
4f6cb4: 1
f383c9: 1
8efd1c: 1
8efebb: 1
f35fa5: 1
f36673: 1
1515f55: 1
f35bd5: 1
14fa430: 1
a9748c: 1
f349f2: 1
4db644: 1
14f98dc: 1
5094bc: 1
4db951: 1
52a670: 1
928048: 1
8efeae: 1
8ef3d3: 1
16264e0: 1
1515ed2: 1
915725: 1
14f9fe0: 1
14fa018: 1
936bca: 1
14fa04a: 1
92a6ad: 1
14fa074: 1
16267b0: 1
938642: 1
14fa0ac: 1
9363f2: 1
f356d7: 1
924a29: 1
14fac10: 1
14faa94: 1
4f6cf1: 1
1510250: 1
f384cf: 1
930236: 1
92f5ad: 1
14f9f37: 1
f38090: 1
926251: 1
938637: 1
14f99c0: 1
8f0164: 1
8ef59e: 1
14fa220: 1
14f9f70: 1
92f3d3: 1
9194d7: 1
14f9fbe: 1
1626752: 1
529691: 1
14f9fb0: 1
1517621: 1
14f9ff0: 1
9307b1: 1
9193d2: 1
5187d6: 1
14fa280: 1
8ef648: 1
14fa2e0: 1
91b773: 1
ac0c9c: 1
14fc2ee: 1
14fa250: 1
51c0f4: 1
9320ee: 1
92a996: 1
5129db: 1
14fa310: 1
8f01f2: 1
8efff0: 1
93296d: 1
14fa171: 1
16267b8: 1
14f99ab: 1
14fa0a6: 1
8f0207: 1
14fa0d3: 1
8efc32: 1
f34de8: 1
f35744: 1
1515f5d: 1
4db657: 1
919411: 1
932e21: 1
15138ef: 1
14fab00: 1
14f9981: 1
14fa1ab: 1
14fa1fa: 1
14fa06c: 1
92e0d1: 1
92e0d8: 1
14fc30b: 1
91947f: 1
512436: 1
14fbf3d: 1
14f9f78: 1
f38491: 1
927f84: 1
14f9420: 1
92f38a: 1
14fa09e: 1
f37fe2: 1
932465: 1
92f791: 1
92f781: 1
162643e: 1
930fae: 1
1513560: 1
1511a76: 1
15134d0: 1
1513795: 1
14fb270: 1
15134e4: 1
52a642: 1
14fbddc: 1
14fbe6b: 1
51202e: 1
16264ff: 1
14faba9: 1
151383d: 1
15137cb: 1
14fbefe: 1
93a43f: 1
f35e7a: 1
92d24b: 1
92d33a: 1
b478c9: 1
14fbe80: 1
14f9918: 1
15139a7: 1
1515ca5: 1
1515d3a: 1
14fc50d: 1
14f9bee: 1
4f6d64: 1
91ad75: 1
15139fd: 1
936a3d: 1
14fc8fc: 1
8e73e6: 1
932631: 1
8efdf6: 1
92d1be: 1
92bee7: 1
8ef456: 1
14fc312: 1
14fbfe5: 1
4eb919: 1
14fbffa: 1
1516da5: 1
14fc10b: 1
14fbe17: 1
51a691: 1
91ba21: 1
4deb6b: 1
507425: 1
1513899: 1
925a8f: 1
15138f7: 1
14fc48d: 1
14fa147: 1
1515559: 1
9251b4: 1
51b018: 1
1517482: 1
92612b: 1
14fbe95: 1
5073c1: 1
f34a4b: 1
919aa8: 1
4ec78b: 1
4eb9f6: 1
1513a05: 1
92d426: 1
92f3bc: 1
14faa6c: 1
14faa9c: 1
f3581f: 1
92d213: 1
14fab3d: 1
92fef5: 1
5290fc: 1
14fab35: 1
14fa837: 1
50e81e: 1
91b84f: 1
4ebd8e: 1
f36298: 1
8f0186: 1
14fbebf: 1
93235c: 1
939422: 1
4e5d8d: 1
14fab08: 1
92f425: 1
4ed231: 1
92f5bd: 1
14fa115: 1
1513953: 1
92a04b: 1
51b488: 1
8eaf20: 1
938771: 1
14fac2d: 1
14fb281: 1
9167cd: 1
1517164: 1
8efd8c: 1
924567: 1
1515c48: 1
928811: 1
14fac51: 1
8efe56: 1
14fadda: 1
14fae07: 1
14fae2b: 1
932273: 1
4f9754: 1
50705e: 1
15155a8: 1
14fae24: 1
f38172: 1
f349ea: 1
14fab45: 1
92961e: 1
f34500: 1
14fabde: 1
1515f87: 1
509c8d: 1
1513a51: 1
92d131: 1
4f6c23: 1
9392c3: 1
9307c1: 1
14f9bca: 1
4dd6ea: 1
1515fee: 1
8efb6d: 1
4f6ccb: 1
14faa9f: 1
92f4dd: 1
92a9a7: 1
9249ef: 1
932849: 1
4f6c07: 1
8f00d5: 1
932643: 1
929d19: 1
1626551: 1
f38431: 1
f35dda: 1
f35eb7: 1
14fa3f8: 1
1513a7e: 1
92fed1: 1
f356a3: 1
f3454d: 1
4dea14: 1
15135b4: 1
9392be: 1
51a9a9: 1
93264b: 1
9326d1: 1
93901e: 1
939029: 1
919ac1: 1
93270f: 1
926b2e: 1
8ef678: 1
f357cf: 1
f3460d: 1
93278a: 1
14fab99: 1
512256: 1
925b2a: 1
14f9fb8: 1
14fc46d: 1
924174: 1
916ac2: 1
15138db: 1
930226: 1
f38068: 1
930299: 1
8ef74e: 1
9307b9: 1
9307c8: 1
f38070: 1
14fbee9: 1
8ef410: 1
512403: 1
f356fe: 1
52956c: 1
14fa3a0: 1
9288da: 1
f382e4: 1
928f48: 1
8efb23: 1
508aee: 1
927fd4: 1
14f9f90: 1
917104: 1
14fa490: 1
14faa14: 1
91ae96: 1
92518b: 1
933210: 1
14fbf52: 1
15138b3: 1
93016a: 1
f38380: 1
1513665: 1
4db829: 1
14fa096: 1
15163da: 1
91aed0: 1
4e5d62: 1
14fa2b0: 1
92624f: 1
f381f4: 1
939595: 1
14faa64: 1
9322df: 1
936c51: 1
4ec77b: 1
14fa6e9: 1
f3824c: 1
15170e5: 1
931e74: 1
9369ac: 1
8efd71: 1
509d57: 1
9251c7: 1
922f6c: 1
9367a1: 1
931d5f: 1
9321f6: 1
91536f: 1
f3448c: 1
508b6c: 1
9322b9: 1
8ef7e3: 1
916aa5: 1
932290: 1
931d4c: 1
936799: 1
51a5de: 1
931d11: 1
92ce52: 1
f3834b: 1
f38318: 1
14faa42: 1
14fc0a2: 1
f382bd: 1
1668919: 1
939709: 1
f3836b: 1
93263b: 1
9320f6: 1
51c4d8: 1
939555: 1
92fee9: 1
93954d: 1
f34305: 1
14fbdc8: 1
150edf0: 1
f342fd: 1
4ec189: 1
93941a: 1
92cec0: 1
916c8e: 1
9392e7: 1
9392d4: 1
925090: 1
91591f: 1
9366e4: 1
15138bb: 1
f34330: 1
916169: 1
14fa83e: 1
1515ef9: 1
936456: 1
1626253: 1
932341: 1
93640c: 1
14fa248: 1
f3818c: 1
4ed5d1: 1
f38165: 1
9193c6: 1
f380e0: 1
f38557: 1
8efcbc: 1
92f380: 1
1515d1a: 1
14fbe2c: 1
14f9be7: 1
1515f2b: 1
f346c8: 1
90b154: 1
512a0c: 1
932639: 1
9237b4: 1
f360e9: 1
509884: 1
51bf8a: 1
917306: 1
f37f99: 1
924966: 1
508de3: 1
93645e: 1
f3817f: 1
529eff: 1
51227b: 1
92f42d: 1
92ff4e: 1
1513575: 1
92ce6c: 1
f3835b: 1
4db969: 1
925d23: 1
14fa1c8: 1
1513a2f: 1
936428: 1
90ceca: 1
92ce59: 1
9270e4: 1
52a5cd: 1
929cb8: 1
1513641: 1
14f9f58: 1
51bf3d: 1
92cf70: 1
4eba5b: 1
14fab67: 1
4ebf70: 1
166a217: 1
508267: 1
151554c: 1
51b006: 1
518a63: 1
4f9808: 1
1513a0d: 1
14f98e4: 1
14f9f50: 1
14fa0e3: 1
1513873: 1
14fc49d: 1
f34555: 1
f34a53: 1
512a6c: 1
9309fe: 1
4ebe42: 1
f3859d: 1
f385f9: 1
92a34e: 1
4ebe67: 1
92fed3: 1
8ef6e6: 1
15138a1: 1
925a97: 1
15139e3: 1
f38611: 1
1515d42: 1
15138d5: 1
f38601: 1
f35c97: 1
92f5c5: 1
f34e10: 1
930a6c: 1
4db6f5: 1
f34605: 1
f34df8: 1
8efc52: 1
f3538d: 1
15134c8: 1
14fbfd0: 1
92a2d0: 1
93959a: 1
92a9c4: 1
930fa6: 1
91b784: 1
931019: 1
92377c: 1
f3442a: 1
930986: 1
14fa4b0: 1
512a74: 1
f35323: 1
92f5a5: 1
91cfeb: 1
1515f01: 1
93094c: 1
1513abb: 1
8ef37d: 1
f3862b: 1
517ec5: 1
8ef508: 1
92a516: 1
1517934: 1
91cffd: 1
93095e: 1
f34799: 1
93098e: 1
f35750: 1
51b598: 1
92f5cd: 1
932288: 1
f38521: 1
f38529: 1
9366ec: 1
927f8c: 1
9302a4: 1
924149: 1
15174b7: 1
1513975: 1
1516b4f: 1
14fa010: 1
91639b: 1
14f99d5: 1
151365e: 1
f38515: 1
15139c9: 1
518b9a: 1
f36263: 1
8efc2a: 1
931086: 1
923014: 1
51a7c8: 1
927938: 1
506f72: 1
14fbdc0: 1
14faa3a: 1
f346d3: 1
931440: 1
51a9be: 1
f359a2: 1
925e64: 1
929d11: 1
931ca1: 1
166894f: 1
917d8b: 1
92bf00: 1
4dd59c: 1
f35d5a: 1
506e46: 1
f35e3a: 1
5295a6: 1
4f7d04: 1
f35e5a: 1
4f7c88: 1
917d93: 1
4f7c9b: 1
917d82: 1
f35981: 1
506f95: 1
f35975: 1
f3598c: 1
91cfd4: 1
508adb: 1
f35934: 1
50b076: 1
927115: 1
92b5b3: 1
512534: 1
f3590d: 1
f358d9: 1
f3588f: 1
92afb0: 1
f35ccb: 1
f35cd7: 1
90afcb: 1
f35c39: 1
f35bf5: 1
91609c: 1
92a93d: 1
92a686: 1
f35b75: 1
92a99f: 1
927f98: 1
f35aed: 1
927128: 1
f359ae: 1
4f7f73: 1
927481: 1
4f7f5f: 1
92b5a1: 1
92cf78: 1
927130: 1
5295bd: 1
507b61: 1
92b5cb: 1
92b5a9: 1
92a31d: 1
926941: 1
926ab1: 1
51b433: 1
4db938: 1
4f6c1b: 1
f34a2b: 1
509e55: 1
926a81: 1
901b34: 1
92ce43: 1
92fee2: 1
926a70: 1
9269e6: 1
901b18: 1
4db940: 1
901adb: 1
927af4: 1
507a4a: 1
14faf86: 1
f38139: 1
926a20: 1
9269de: 1
509221: 1
509229: 1
4f6e08: 1
f35d0a: 1
f34901: 1
f34a1b: 1
936710: 1
f3536f: 1
9270dc: 1
50b435: 1
5110ab: 1
52ac2a: 1
5237f4: 1
4db675: 1
51a6db: 1
8efbd2: 1
92a944: 1
51a671: 1
9275c0: 1
926d22: 1
4dd6f5: 1
50921e: 1
51b00e: 1
926c3a: 1
4dd5f8: 1
92622a: 1
5237bf: 1
936a45: 1
517ed7: 1
4db9b6: 1
51b41c: 1
92a02e: 1
5292b5: 1
92a530: 1
91d017: 1
5110ce: 1
91cfdf: 1
929f08: 1
8ead60: 1
91bc47: 1
92a9bf: 1
529497: 1
512218: 1
4ec05d: 1
528ef5: 1
922d1a: 1
9193b4: 1
91b77b: 1
92a01d: 1
92a064: 1
1516fb3: 1
91b762: 1
529ebf: 1
92a158: 1
91b749: 1
5122b5: 1
91b741: 1
91b509: 1
9278c0: 1
927fc0: 1
928489: 1
529743: 1
92a33f: 1
9279e4: 1
927faf: 1
928481: 1
90b05e: 1
928491: 1
928589: 1
927927: 1
927968: 1
5122c1: 1
5297f4: 1
529810: 1
9278af: 1
9233ad: 1
91bd3e: 1
92301c: 1
922ff9: 1
928f40: 1
929cd9: 1
929cc7: 1
929ccf: 1
917d9c: 1
91af0a: 1
92a4e2: 1
92a50e: 1
528f60: 1
91cff3: 1
90b27d: 1
92a547: 1
14fadea: 1
5110d8: 1
926123: 1
91b202: 1
92a576: 1
529645: 1
92a47b: 1
91aef9: 1
91ae2e: 1
8f013a: 1
511fe9: 1
91ad95: 1
91ada8: 1
92a58a: 1
92a697: 1
f35cbe: 1
90b274: 1
52963d: 1
92a6c6: 1
529f19: 1
f35bc5: 1
5122cc: 1
92a296: 1
92a27f: 1
15139db: 1
92a328: 1
52a402: 1
92a337: 1
528eb8: 1
93107e: 1
50e85e: 1
92a346: 1
925d97: 1
92a35a: 1
92a3d6: 1
91cfc2: 1
92d1d1: 1
1516fbb: 1
f3457d: 1
529ec7: 1
91ba6e: 1
91ba66: 1
f35f29: 1
92a384: 1
92a46f: 1
924cef: 1
8ef3ae: 1
916837: 1
f352c6: 1
924b56: 1
15168f3: 1
916aae: 1
15168db: 1
f343b8: 1
92a38c: 1
916b10: 1
924c7b: 1
90cc31: 1
4ec6f7: 1
f343c0: 1
f36199: 1
f361df: 1
f361ec: 1
f361d2: 1
f36257: 1
915946: 1
4ec732: 1
4f70b7: 1
924ce7: 1
9159bf: 1
15163eb: 1
1515fe6: 1
f344b5: 1
f3464a: 1
14f9f98: 1
90cc5c: 1
f35f9a: 1
f36056: 1
14f9957: 1
9259e6: 1
f34671: 1
14faad6: 1
14f992d: 1
f345ae: 1
f360c1: 1
512163: 1
9159c9: 1
f360b6: 1
924a8a: 1
f3608f: 1
f360cc: 1
9167ab: 1
f34497: 1
14f93e8: 1
9167b6: 1
9167c3: 1
15186d5: 1
916828: 1
f343f1: 1
f34255: 1
8ef830: 1
15139eb: 1
9193f9: 1
8ef790: 1
151394b: 1
8ef79d: 1
f36636: 1
8ef538: 1
926259: 1
8ef4e3: 1
9255a6: 1
8ef4b2: 1
f3424a: 1
f3488f: 1
8ef2e4: 1
f341eb: 1
f36608: 1
8ef31d: 1
8ef2a7: 1
90af9f: 1
90b13e: 1
508cb8: 1
90b28c: 1
4dbf29: 1
f341b2: 1
14fac4a: 1
1515f7f: 1
f352fc: 1
14f9900: 1
1515fc4: 1
9159ec: 1
1515fb4: 1
915a54: 1
925088: 1
915fda: 1
915fc8: 1
8eae70: 1
f34371: 1
925193: 1
9251cf: 1
509872: 1
91676d: 1
f362a0: 1
1515f4d: 1
f3429e: 1
f36501: 1
14fa3c8: 1
90cc42: 1
512a04: 1
92a98e: 1
4f7c54: 1
f36541: 1
f365c1: 1
4ecabe: 1
90afbd: 1
91d00c: 1
90b0f1: 1
924153: 1
92452e: 1
92453f: 1
9265b1: 1
926247: 1
4ec23e: 1
16266ec: 1
4ecb01: 1
f35377: 1
4ec486: 1
4eca68: 1
f3535f: 1
92620e: 1
4ec9bb: 1
f3539e: 1
f34791: 1
f35395: 1
f3624a: 1
927fa0: 1
926225: 1
4db87f: 1
91ac1e: 1
508c8f: 1
50987a: 1
508aa7: 1
924123: 1
50aae5: 1
f3490c: 1
f348a9: 1
4ec171: 1
92414b: 1
4f60a1: 1
928c81: 1
f36694: 1
9193da: 1
919436: 1
4ed5a1: 1
4ec657: 1
9193bc: 1
919440: 1
919475: 1
4ec550: 1
919820: 1
919ac9: 1
924141: 1
f35f9d: 1
52abed: 1
925b19: 1
4ebfb6: 1
f38058: 1
f38634: 1
f3473f: 1
91a816: 1
93866c: 1
91a822: 1
924974: 1
925b5a: 1
8eff3d: 1
f347bf: 1
9249f7: 1
938779: 1
925ac9: 1
924a79: 1
91acda: 1
f35f92: 1
15134f7: 1
92d2ae: 1
938665: 1
4ebc7d: 1
f3485f: 1
925bf5: 1
518ec0: 1
f352b9: 1
925e45: 1
4db971: 1
92d41d: 1
4ebc8a: 1
f3532f: 1
f34857: 1
f347f8: 1
f3803a: 1
4ec0a5: 1
917117: 1
92418c: 1
f346f9: 1
925d9f: 1
f35ffb: 1
925709: 2
92673b: 2
4ec118: 2
8e9222: 2
927595: 2
9275a2: 2
925736: 2
92571b: 2
90ce65: 2
93964c: 2
8e73ca: 2
9246a2: 2
9275fa: 2
924665: 2
9246b4: 2
9275e7: 2
4ec7ce: 2
5074c2: 2
927606: 2
1669deb: 2
926d13: 2
9266f6: 2
9266da: 2
925748: 2
506d62: 2
932e06: 2
8e7201: 2
528fbb: 2
91b4eb: 2
9275b4: 2
507086: 2
5082cb: 2
924689: 2
91a036: 2
932f4d: 2
91a89c: 2
50829a: 2
91a0ca: 2
4ec380: 2
91933d: 2
4ec38d: 2
4dec3f: 2
dea5ba: 2
91bb80: 2
939485: 2
939475: 2
91a0b6: 2
4ed429: 2
91608f: 2
4ebaf8: 2
8e7424: 2
916e14: 2
92a5f7: 2
4ec982: 2
92671c: 2
9191a0: 2
529e5b: 2
90b554: 2
90b5c5: 2
926d29: 2
4ec974: 2
8e7223: 2
4ebf5b: 2
92672f: 2
52ad3a: 2
936bc5: 2
4f7b58: 2
dea5fe: 2
932f26: 2
529df4: 2
51c72b: 2
925753: 2
46f705: 2
529da4: 2
93216d: 2
4ed3f0: 2
9234de: 2
9266eb: 2
52a894: 2
91bb8f: 2
4ed30c: 2
8e73bf: 2
9131cd: 3
f31cb3: 3
f2f35e: 3
91537f: 3
939640: 3
91a661: 3
f2f524: 3
4ed56b: 3
f31cde: 3
1669e98: 3
f332a2: 3
150d4c8: 3
f31cfc: 3
f31ce6: 3
150dee5: 3
150dc5a: 3
f32a55: 3
518976: 3
f32b50: 3
f31d02: 3
4ebce8: 3
f32c83: 3
5120af: 3
150db29: 3
f2f5c5: 3
150dc90: 3
529710: 3
92a901: 3
5071b6: 3
9131d3: 3
f32ca1: 3
507c2d: 3
5084c4: 3
150d50a: 3
f332bf: 3
91252d: 3
150db48: 3
f32c50: 3
51275f: 3
150dc00: 3
150de10: 3
924da8: 3
f2f638: 3
150de38: 3
f32ad7: 3
150def4: 3
f328f1: 3
150e6e5: 3
90b5e3: 3
5073e8: 3
f31d0e: 3
9266c5: 3
913f49: 3
91250b: 3
f32c93: 3
f32c66: 3
506cd3: 3
f32da7: 3
f2f37e: 3
506fae: 3
150ddb0: 3
f32d41: 3
f31da1: 3
507aaf: 3
f31de0: 3
150d5b2: 3
f320c3: 3
dea608: 3
9131c2: 3
f3329b: 3
50827e: 3
f31c01: 3
f32c76: 3
f31bed: 3
150dec0: 3
f31a1c: 3
150dcb8: 3
529729: 3
5123e0: 3
f32e58: 3
150dc6a: 3
150d715: 3
dea679: 3
150dd20: 3
150dba8: 3
150d942: 3
150db80: 3
50708c: 3
f31c11: 3
150de70: 3
f32a2e: 3
932175: 3
f2f59d: 3
150dbb0: 3
924d85: 3
915710: 3
92e1ac: 3
f2e8d3: 3
f31be9: 3
50742d: 3
f2fad5: 3
92780a: 3
f2e77c: 3
529724: 3
f32b0b: 3
150dbe0: 3
150d4ab: 3
5293ba: 3
f329bc: 3
150d764: 3
150dc10: 3
91520d: 3
f2e691: 3
f2f1b1: 3
4ec9ca: 3
f2f39b: 3
150e7cd: 3
150e7c6: 3
150ded7: 3
5125f9: 3
f32b61: 3
f2f376: 3
150de40: 3
150e833: 3
150e80b: 3
f2e6c5: 3
150e81c: 3
150ea46: 3
150e855: 3
f3290e: 3
f31997: 3
150dc38: 3
150dea0: 3
150dde0: 3
150dd80: 3
4f6c15: 3
150da54: 3
150e6dd: 3
f2f480: 3
150d79d: 3
f2f44e: 3
150d4c0: 3
915341: 3
150deec: 3
150e6c5: 3
166a148: 3
f31c23: 3
91b5bc: 3
150e7a1: 3
150d922: 3
150d534: 3
f332b6: 3
506d55: 3
f31993: 3
f32934: 3
9324ee: 3
150d684: 3
f32e38: 3
92469b: 3
150dd50: 3
9246bf: 3
150de30: 3
f31d6e: 3
f32cb9: 3
150d753: 3
150d70e: 3
150d77b: 3
92497a: 3
150e6cd: 3
150db88: 3
f33133: 3
150dcf0: 3
f32a04: 3
f3312b: 3
91554c: 3
91576c: 3
f31cd6: 3
1669caa: 3
f32908: 3
f31c17: 3
150d6f1: 3
150db40: 3
f32d80: 3
f328d0: 3
150db60: 3
f31cee: 3
f2f618: 3
f2f350: 3
f319a3: 3
f32b68: 3
f31c05: 3
5089af: 3
f31c83: 3
f32b58: 3
150db68: 3
4f89c7: 4
8df51b: 4
150eb34: 4
924679: 4
508920: 4
4f7f4e: 4
150eac0: 4
4f7f8c: 4
f2f82d: 4
150edc2: 4
150eb55: 4
506e2c: 4
51874b: 4
5123eb: 4
166a28b: 4
512506: 4
4f88c8: 4
9256f0: 4
507a63: 4
8df296: 4
150eae2: 4
150ec3d: 4
1516445: 4
150eb49: 4
4f70ad: 4
5293b5: 4
f2f88e: 4
4f7fde: 4
150eb9a: 4
923b80: 4
918d12: 4
5072da: 4
507234: 4
166a280: 4
8df344: 4
150ea90: 4
91b604: 4
512514: 4
150ed81: 4
918a60: 4
507a3e: 4
15164c4: 4
51251a: 4
150edb1: 4
4f886e: 4
150eac8: 4
5123fe: 4
4f89b9: 4
8df34c: 4
4f7e2b: 4
92692e: 4
9259fe: 4
8df54e: 4
f2f819: 4
923bee: 4
f2fe5d: 4
507197: 4
4f81b3: 4
150eb04: 4
f2f8f1: 4
4ec9b0: 4
f318cc: 4
150eaa6: 4
150ebb7: 4
f2fc3e: 4
f2f7fa: 4
14b0df0: 4
8deb66: 4
f2f987: 4
4f928c: 4
150eafc: 4
5070cf: 4
4f93c3: 4
5011fc: 4
150ebbe: 4
150ed9f: 4
924db4: 4
f2f8de: 4
91a919: 4
90b531: 4
150edda: 4
f2f81b: 4
4f7f56: 4
91b60b: 4
925771: 4
4f6e28: 4
150eb26: 4
f2fe75: 4
4ec9d0: 4
150edd3: 4
924959: 4
4f97f5: 4
1668d4d: 4
901c87: 4
f2f811: 4
8deb3f: 4
8deb1c: 4
5078c0: 4
1669ca5: 4
506f65: 4
f2f807: 4
9234ba: 4
928c8c: 4
4ed4a3: 4
8df2fa: 4
8df2c6: 4
512140: 4
51214a: 4
150eaae: 4
4f7f7b: 4
4f7e69: 4
150eb7d: 4
f2f80f: 4
51215d: 4
9321f0: 4
529560: 4
4f7e07: 4
91bb94: 4
166a276: 4
4ec3fe: 4
5011f2: 4
927590: 4
150ec0a: 4
dea61f: 4
9266c0: 4
f2f8b6: 4
150ec1e: 4
4ec3e7: 4
150ed97: 4
5070b7: 4
5011cd: 4
92760e: 4
927817: 4
927619: 4
932f43: 5
151646a: 5
932f03: 5
512500: 5
1669c93: 5
90b51f: 5
1516643: 5
50b23d: 5
1516487: 5
f2f9fd: 5
92a925: 5
9256f5: 5
9154ae: 5
50b237: 5
1516630: 5
5123f9: 5
92572d: 5
939470: 5
1668907: 5
90b5c0: 5
9237e7: 5
15164e4: 5
9324f7: 5
50828e: 5
9160e1: 5
51c597: 5
923471: 5
4ecd1a: 5
928a43: 5
151648e: 5
1516628: 5
512270: 5
924660: 5
925a0d: 5
4ec3f8: 5
51c688: 5
151644d: 5
928caf: 5
166a269: 5
927805: 5
93313d: 5
52a668: 5
92573b: 5
92570f: 5
9275a6: 5
9237ba: 5
928930: 5
9191d2: 5
9288f2: 5
52a599: 5
928983: 5
5082a6: 6
52972f: 6
90ce60: 6
52a57a: 6
518e10: 6
9191c4: 6
9266fd: 6
1669ea0: 6
4ebf50: 6
512158: 6
926934: 6
91b33a: 6
4f70a4: 6
5079ea: 6
9234ab: 6
90b5fd: 6
916025: 6
933085: 6
1669dd8: 6
925762: 6
4ecd20: 6
9266de: 6
4deb8a: 6
923484: 6
9275c8: 6
5082d3: 6
91a6ec: 6
90b5ab: 6
93947d: 6
5187ba: 6
1669eb3: 6
518970: 6
52957f: 6
93315e: 6
92893f: 6
916b8c: 6
92890c: 6
9286dd: 7
92387d: 7
506f60: 7
506d5d: 7
92674e: 7
9391b0: 7
52a5ea: 7
916baa: 7
1668935: 7
93315b: 7
92870a: 7
52a62b: 7
9387dd: 7
928ba1: 7
92467d: 7
91a830: 7
91a8a1: 7
529585: 7
933062: 7
92874b: 7
92378a: 7
92877f: 7
918e9e: 7
91607a: 7
91a8e9: 7
916126: 7
9192b7: 7
4deb65: 7
4ebf77: 7
1669e2f: 7
923c0d: 7
933145: 7
933166: 7
928967: 7
508211: 7
915443: 7
926743: 7
925766: 8
1668861: 8
5083f6: 8
90b524: 8
9387d0: 8
4deda0: 8
1669cb4: 8
9324e6: 8
91a4b9: 8
166a38c: 8
9246de: 8
4f9ba3: 8
506b98: 8
1668bb0: 8
1669ef6: 9
1669e0e: 9
166bd44: 9
91a801: 9
1669cd1: 9
508209: 9
166bd59: 9
4f9a10: 9
1669bfe: 9
8e83bf: 9
901beb: 9
929f6d: 9
901cff: 9
901ba5: 9
506d50: 9
926701: 9
9246a7: 9
1669e8f: 9
9368c5: 9
4ec3e0: 9
901bf4: 9
529735: 9
928a8c: 9
932eeb: 9
918deb: 9
91a7a1: 9
4ebf7d: 9
507216: 9
8e83cd: 10
91a741: 10
9246ce: 10
50721c: 10
4decc0: 10
925798: 10
901c02: 10
901d03: 10
8e8720: 10
9192a9: 10
91541b: 10
9324e0: 10
4de9d7: 10
156b7fa: 10
901b9b: 10
51880b: 10
916f40: 10
50b430: 10
91a795: 10
916bb6: 10
9286bb: 10
9391ba: 10
916f95: 11
933153: 11
923bfa: 11
90b83c: 11
51879d: 11
8e83b7: 11
51c5c3: 11
91540f: 11
92875a: 11
518e40: 11
518816: 11
512910: 11
90b2e1: 12
918a65: 12
4f7a50: 12
936b64: 12
918baf: 12
1669245: 12
91bb8a: 12
923c75: 12
936604: 12
52ac20: 12
1669e1b: 13
52a72a: 13
512295: 13
90b834: 13
8e857d: 13
4f7bcf: 13
92878c: 13
91bb04: 13
91b440: 13
4f7bde: 13
923c19: 13
4ec9d6: 13
8e63a0: 14
92e210: 14
928cef: 14
5293a0: 14
91b385: 14
4ec9dc: 14
93660c: 14
92f913: 14
918bf8: 14
928b63: 14
8ded39: 14
166bd30: 15
4f990e: 15
51228f: 15
915488: 15
166bd19: 15
4eb9bb: 15
936b6c: 15
1668898: 16
166890f: 16
928c60: 16
166888a: 16
8e838b: 16
4f7b68: 16
928d9a: 16
8ded51: 16
166874b: 16
506efa: 16
166884f: 16
50b359: 16
918c72: 16
8defb0: 16
90b5f5: 16
1668b99: 16
166c390: 16
9160d3: 16
918db6: 16
51c5ea: 17
4f7ae8: 17
51c5cb: 17
91b397: 17
8e7532: 17
9368cd: 17
8e7523: 17
51c5d8: 17
8e7537: 17
91a7bb: 17
9237f5: 17
507222: 17
8e7564: 17
91531d: 18
8defd6: 18
50b038: 18
915322: 18
918da4: 18
91b3a6: 18
512526: 18
92e220: 18
91bb14: 18
8e83ac: 18
4ebd00: 18
9156e4: 18
9156a1: 18
9246d2: 18
9153f9: 18
8e8375: 18
8e73a6: 19
8e837d: 19
91b511: 19
8e7656: 19
91b6b0: 19
8e835f: 19
8e738c: 19
8e735b: 19
8e7356: 19
8e63f5: 19
8e765b: 19
8e839f: 19
915465: 19
8e7384: 19
8e7394: 19
8e738f: 19
8e7369: 19
8e83b1: 19
8e8385: 19
915459: 20
90b583: 20
4f9990: 20
4de9dd: 20
4ebce0: 20
919103: 20
156b807: 20
f2f6ec: 20
512520: 20
918ddb: 21
8e9e10: 21
929edf: 21
507227: 21
92f90e: 21
518761: 21
918eaf: 21
50b354: 21
9275cd: 21
5083f0: 21
9246f2: 22
919018: 22
92f8fd: 22
50b2cf: 22
166886d: 22
166c3a9: 22
92a54f: 22
507092: 23
f2f750: 23
923499: 23
928a32: 23
91a7f0: 23
92a254: 23
92a5dd: 24
91b261: 24
506efd: 24
51c5e5: 24
928728: 24
924701: 25
4f6d56: 25
16688fb: 25
518769: 26
91b58c: 26
50824b: 26
923800: 26
92a57c: 26
52a5d5: 26
4ed3f8: 26
508991: 27
9390d0: 27
4f6c4b: 27
4f9b40: 27
15d6540: 27
9153ed: 27
50b4ab: 27
51883c: 28
932c13: 28
9275dc: 28
929f0e: 28
50b368: 28
933200: 28
4f6f83: 28
5187ff: 28
90b597: 29
51291c: 29
92d0d5: 29
4ed3fd: 30
92f8f0: 30
9246e3: 31
91b587: 31
518ec8: 31
933091: 31
923c2f: 31
92d0df: 32
f2f48f: 32
f2f520: 32
9390db: 32
9286ff: 33
9275d5: 33
91a0a6: 33
512920: 33
4f6c6f: 34
92d040: 34
15d7fd0: 34
508890: 34
918eaa: 35
928718: 35
4ed401: 35
932c87: 35
9332e8: 35
507097: 36
5188cf: 36
9306db: 36
915802: 36
51897c: 36
92a2b0: 37
915738: 37
933274: 37
9157e0: 38
50b15c: 38
9157ad: 38
924706: 38
5189c2: 38
4ebcfb: 39
916f73: 39
5078c8: 39
915783: 40
92a26b: 40
5187a5: 40
918da0: 41
9234cb: 41
925785: 41
9191f2: 41
923c8f: 41
512918: 42
925781: 42
926721: 42
50af66: 43
932502: 43
92382e: 43
923c34: 44
91b454: 46
9275ec: 46
92a8db: 47
923c47: 47
9246ee: 47
529108: 48
92a585: 48
930dc8: 48
92a271: 48
5290f0: 49
91a846: 49
925793: 49
90cdf9: 50
92a5bc: 51
923c53: 52
919273: 52
92e2da: 53
50b183: 53
923094: 53
929f19: 53
92334d: 53
923984: 54
923955: 54
923969: 54
923cfc: 54
923cf3: 54
923b04: 54
4ecd26: 54
923db9: 54
925776: 54
9239a8: 54
924111: 54
923aa5: 54
923a49: 54
923945: 54
92399c: 54
4ecc23: 55
4eb87c: 55
4ecc5e: 55
92d04d: 55
92a8d5: 55
4ecc12: 55
4eccbe: 55
4eccce: 55
f2fd1f: 55
4ecc9a: 55
528f88: 55
50b164: 55
50b171: 55
92a8bd: 55
926709: 56
529c46: 56
529e8b: 56
15d7f89: 56
4f6c5a: 56
529818: 56
5127f4: 56
4ed498: 56
929f4c: 56
506b28: 57
529800: 57
52a783: 57
4ecdf0: 57
4ed226: 57
91936d: 57
4ed32f: 57
529be9: 57
529be1: 57
4ed2b0: 57
4ed25b: 57
529c95: 57
529c9d: 57
512601: 57
92a90f: 57
4ed327: 57
4ed244: 57
91899a: 58
9185d2: 58
918528: 58
4f7206: 58
4f7703: 58
91a003: 58
518a76: 58
4ed22e: 58
518b27: 58
5188de: 58
5127ac: 58
918519: 58
529ea9: 58
529e1b: 58
918511: 58
529e2b: 58
512953: 58
92fa38: 58
4ed263: 58
5188e6: 58
52a6f9: 58
5127a0: 58
9184aa: 58
91a043: 59
92f5fd: 59
511e39: 59
919325: 59
50b17e: 59
93052a: 59
923c8b: 59
930578: 59
4f6f08: 59
91ac2e: 59
92a2a3: 59
52a6cb: 59
50836f: 59
91a03b: 59
91a010: 59
919335: 59
92a8af: 59
9185da: 59
5128de: 59
919af8: 59
92f5f5: 59
4ed4e3: 59
91a0f5: 59
5125e0: 59
4f6f10: 59
8e88c0: 59
51284f: 59
512847: 59
91a5ec: 59
51282c: 59
52a701: 59
92a246: 59
92a284: 59
9184c8: 59
930bf0: 60
91ac46: 60
930bf8: 60
92a8c8: 60
91a0fd: 60
9308fe: 60
92a8a4: 60
93120d: 60
931228: 60
92a8ef: 60
91ac08: 60
92a25e: 60
92a23c: 60
931220: 60
92fb1b: 60
91ac66: 60
931584: 60
92fb28: 60
92e22d: 61
930f67: 61
91a87b: 61
930bdd: 61
930754: 61
91a3f8: 61
930f59: 61
508929: 62
918962: 62
529103: 63
91a406: 64
51c4a5: 64
932160: 65
9185a6: 66
90cdfe: 66
50b044: 66
4f9923: 67
4de9e3: 68
4f9916: 68
90cdf5: 70
9185a0: 71
4eb97c: 71
91858e: 71
91896f: 71
91a0c4: 71
916ba2: 72
91a0a0: 72
9313f4: 72
91b45e: 72
923c69: 73
4de9c5: 74
8e9ec0: 74
50b03e: 75
923851: 79
926711: 79
932165: 80
8e8510: 81
932180: 81
f2f754: 82
4f9935: 82
51c487: 83
90cdf0: 84
518796: 86
92383c: 88
15d6534: 89
f2fa24: 92
50b026: 92
91a82a: 93
923806: 93
919221: 93
4eb98a: 95
f2fa2d: 98
508236: 99
51c480: 100
50b205: 101
90b571: 101
918585: 101
91a66e: 102
512889: 103
4f9930: 103
923866: 105
92381b: 106
92e2d0: 106
50b200: 107
512880: 110
51c650: 111
91a0b0: 111
5187c7: 113
52a5f5: 113
529cd0: 114
918593: 117
918580: 118
9189d0: 118
5078cc: 118
916b70: 120
9191f7: 121
919266: 122
930105: 124
91922e: 124
5083bb: 126
91a86f: 127
918e99: 127
511f93: 131
9157ed: 134
916b86: 135
528e64: 138
90b5de: 138
528e6a: 139
511f86: 139
528e50: 139
916e97: 141
918bbc: 145
923464: 146
919205: 147
51c49f: 148
507080: 148
506cda: 150
507210: 150
51c499: 152
529cdb: 154
936920: 156
4f6c7c: 159
9234f0: 159
91a81d: 159
506ef0: 159
928746: 160
51288c: 161
91a4a6: 164
923815: 165
50731f: 165
923860: 165
4eb9cb: 165
936660: 166
92384b: 166
511f9a: 167
518790: 168
930dc4: 168
9286f0: 170
506cdd: 171
92877a: 171
5074c9: 171
4ed360: 171
915044: 171
91589c: 174
9158ac: 174
5085a4: 177
4eb9d1: 177
51c4ab: 178
50b020: 178
50b04a: 179
91a7cf: 181
90b50d: 183
936bc0: 184
919248: 186
4de9c0: 186
52a5c0: 187
92869d: 189
5078d0: 190
4de9e8: 193
91923b: 193
91920a: 200
50781b: 201
91606d: 202
4ecd2c: 202
f2f486: 203
4ed36b: 208
4f6c40: 210
930100: 211
5084d7: 215
50749d: 220
918ec8: 221
5074d1: 224
5074bb: 224
9160fb: 225
507a1d: 226
4f7a56: 227
5077f7: 228
918dbe: 228
507887: 228
5074b0: 228
5077ff: 228
507708: 228
507757: 229
507987: 232
506cd0: 232
518e46: 232
508377: 236
918dcb: 236
50b350: 239
8e9cd0: 241
918ec4: 243
f2fd10: 244
4ecd37: 251
4ecd32: 252
9234be: 253
92f9e1: 253
932f11: 253
528e76: 255
9189d5: 256
91a8bb: 258
932f47: 260
4f97bc: 269
916113: 273
529cdf: 275
f2fa3d: 283
4f97c2: 286
92348c: 288
92a610: 294
92a606: 318
51c7a0: 328
92f80b: 329
91bb00: 348
923501: 356
932f52: 361
4eb9b0: 372
9154aa: 372
915338: 376
511f80: 384
f2f6f0: 387
92f9dd: 392
4ed36e: 394
9154da: 395
915470: 399
91542b: 415
4dec60: 420
8df254: 431
4f9962: 448
916e60: 453
508258: 454
91a853: 468
507830: 483
916e7b: 488
92f808: 490
52ac26: 492
f2f6e4: 512
50783b: 512
91549d: 519
9234f5: 519
4f97b6: 541
507396: 565
512886: 581
50739c: 588
529cd8: 592
91a841: 593
91b380: 603
918dfb: 607
92f7fc: 630
91a8b6: 683
91b600: 685
508230: 695
916e92: 723
91bb0c: 734
91a869: 743
4f97c8: 755
931399: 801
f2fc8f: 822
92f7f0: 861
508896: 884
918e8e: 886
4f97b0: 988
4ed368: 1029
50783e: 1034
90b59e: 1068
4f9a90: 1154
923506: 1164
f2f496: 1191
528e70: 1295
92352a: 1338
92d045: 1385
91b392: 1395
92a5b6: 1399
92a5e3: 1400
92352f: 1452
92a5cc: 1470
9154e7: 1476
929f46: 1494
929f5c: 1498
929f74: 1502
92a5b0: 1503
929f40: 1512
930d69: 1559
923543: 1673
9306c0: 1745
930095: 1791
918e08: 1838
92351b: 1973
930090: 1987
918e18: 2060
507838: 2121
93009e: 2192
923558: 2198
91b39e: 2265
92e228: 2300
528e7c: 2319
918e48: 2444
918e81: 2647
930099: 2657
f2fc80: 2673
528e82: 2679
930d63: 2722
918e3b: 2770
92d056: 2778
923515: 2857
918e25: 2888
92e21b: 2904
91a84e: 2909
931393: 3202
936b60: 3244
936600: 3264
511fa0: 3293
92353e: 3417
9368c0: 3434
923552: 3450
8e74e0: 3618
918e65: 3852
507390: 3993
f2f6e0: 4108
918e58: 4196
8df4e1: 4282
4eb9d7: 4641
8df4c0: 5347
8df23e: 5439
5073a2: 6499
4eb9e8: 6633
511fa6: 6664
511fb2: 6736
511fac: 6742
4eb9dd: 7274
4eb9e3: 7399
5073a8: 9137
5073ad: 10626
5073b3: 17248
8e7620: 31041
8e7320: 35237
L1I TOTAL     ACCESS:   34400543  HIT:   34395745  MISS:       4798  HIT %:    99.9861  MISS %:  0.0139475   MPKI: 0.02399
L1I Test counter:          0
L1I LOAD      ACCESS:   34400543  HIT:   34395745  MISS:       7215  HIT %:    99.9861  MISS %:  0.0139475   MPKI: 0.02399
L1I PREFETCH  REQUESTED:          0  ISSUED:          0  USEFUL:          0  USELESS:          0
L1I USEFUL LOAD PREFETCHES:          0 PREFETCH ISSUED TO LOWER LEVEL:          0  ACCURACY: -nan
L1I TIMELY PREFETCHES:          0 LATE PREFETCHES: 0 DROPPED PREFETCHES: 0
L1I COMMIT LATE PREFETCHES: 0 MISSED OPPORTUNITY: 0 LATE IN PQ: 0 UNCOVERED: 0
L1I COMMIT LATE MSHR PREFETCHES: 0
L1I MPKI TOTAL: 0.036075 MSHR LATE: 0 PQ LATE: 0 COMMIT LATE: 0 MISSED OPPORTUNITY: 0 UNCOVERED: 0
L1I PREFETCHES SAME FILL-ORIGIN LEVEL: 0 DIFFERENT FILL-ORIGIN LEVEL: 0
L1I AVERAGE MISS LATENCY: 213.01 cycles
L1I AVERAGE MISS LATENCY LOAD: 213.01 cycles
L1I AVERAGE MISS LATENCY PREFETCH: -nan cycles
L1I AVERAGE MSHR OCCUPANCY: 0.000181583
L1I MSHR FULL: 0
L1I RQ	ACCESS:   52437096	FORWARD:          0	MERGED:   18034134	TO_CACHE:   34402962

930fc5: 1
51b383: 1
927b86: 1
51b480: 1
4de2c2: 1
51b586: 1
51bea8: 1
8e7303: 1
518c84: 1
4ec203: 1
14f9b03: 1
917382: 1
509243: 1
9303c1: 1
51bf87: 1
509421: 1
927b01: 1
51bfc3: 1
51c045: 1
51c080: 1
926140: 1
511102: 1
51c105: 1
51c140: 1
b493c4: 1
52ad82: 1
52ab40: 1
517e40: 1
52ab84: 1
8ef110: 1
1518250: 1
925fc1: 1
1517403: 1
52ac01: 1
52ace2: 1
4f6507: 1
52ad03: 1
52ad42: 1
f35744: 1
4dd602: 1
4f7786: 1
92a5c2: 1
51abc4: 1
51ac06: 1
504081: 1
51ac45: 1
4f6e84: 1
51aff1: 1
51b006: 1
91bc02: 1
f352c1: 1
51c682: 1
15165c3: 1
4f6146: 1
928e85: 1
51c786: 1
51c874: 1
51f4a7: 1
f35887: 1
4f6ec3: 1
f34e00: 1
f35240: 1
f35280: 1
51c540: 1
922d01: 1
9284c0: 1
f35304: 1
4deb42: 1
928503: 1
508a50: 1
4eba83: 1
924d07: 1
508cc5: 1
511046: 1
511085: 1
928b04: 1
509481: 1
51c1c5: 1
4dd6f5: 1
928a43: 1
51c203: 1
f35807: 1
92afa1: 1
1513a41: 1
51c282: 1
51c301: 1
92e302: 1
923345: 1
52aa42: 1
931386: 1
51c348: 1
932d04: 1
4ed281: 1
50af82: 1
926441: 1
51c3c0: 1
511442: 1
51c446: 1
927fc0: 1
917883: 1
918e00: 1
915a00: 1
529680: 1
1515ec2: 1
5296c0: 1
4ec502: 1
4f7480: 1
529703: 1
4f74c3: 1
924b40: 1
529784: 1
8f0142: 1
936b01: 1
529280: 1
506ff8: 1
14fc385: 1
924bc1: 1
5297c0: 1
5292c6: 1
933382: 1
529301: 1
4ec143: 1
14fb270: 1
930384: 1
9253c7: 1
528dc0: 1
529c00: 1
529c43: 1
508140: 1
925080: 1
938856: 1
529c84: 1
f359c0: 1
901b04: 1
4ecac6: 1
529d01: 1
529d96: 1
529dc2: 1
1515b46: 1
528e06: 1
528e43: 1
4de682: 1
507340: 1
924280: 1
919302: 1
932f03: 1
528e82: 1
4ed503: 1
528f05: 1
919401: 1
5238c6: 1
f34942: 1
52a680: 1
1626603: 1
4f6a47: 1
52a6c2: 1
916a81: 1
52a701: 1
4ed543: 1
916ac2: 1
52a742: 1
16266c4: 1
52a783: 1
52a642: 1
925bc0: 1
52a7c5: 1
916b80: 1
52a800: 1
52a842: 1
52a881: 1
52a8c2: 1
52a900: 1
4f6d45: 1
f34c82: 1
52a9c0: 1
9254c1: 1
529344: 1
929f40: 1
529385: 1
5293c2: 1
529401: 1
529484: 1
92a080: 1
52946e: 1
529ec7: 1
52a084: 1
f38446: 1
51b440: 1
512ac0: 1
f34383: 1
52a0c1: 1
52a106: 1
52a140: 1
f34585: 1
52a2c3: 1
52a341: 1
52a3c1: 1
f346c4: 1
52a402: 1
52a442: 1
518686: 1
518440: 1
92a402: 1
518480: 1
924c83: 1
5184c7: 1
518500: 1
518546: 1
518584: 1
5185c5: 1
518601: 1
924e04: 1
518642: 1
518402: 1
924200: 1
919282: 1
5186c7: 1
518740: 1
518780: 1
5187c0: 1
523801: 1
518844: 1
919440: 1
92a883: 1
518942: 1
518102: 1
92cec0: 1
517e82: 1
14fc940: 1
517ec5: 1
517f0c: 1
92cfc0: 1
517f82: 1
517fc5: 1
518042: 1
518085: 1
92a047: 1
92d140: 1
518984: 1
5181c5: 1
92a187: 1
518200: 1
f38482: 1
518246: 1
518301: 1
92a2c3: 1
f38583: 1
518347: 1
518380: 1
92a342: 1
926bc1: 1
518f44: 1
518f84: 1
508ddb: 1
90b141: 1
928e42: 1
4f6103: 1
51bf45: 1
509201: 1
509c15: 1
509c46: 1
509c81: 1
511b83: 1
518f00: 1
509cc1: 1
926c01: 1
509d04: 1
509d41: 1
926c81: 1
f38284: 1
509e55: 1
50a905: 1
927845: 1
50a946: 1
50aa43: 1
518bc0: 1
919580: 1
b7553c: 1
5189c2: 1
518ae0: 1
518a82: 1
4ec001: 1
518c10: 1
518cc5: 1
9198c1: 1
518d05: 1
4f7202: 1
518d42: 1
918e40: 1
518d84: 1
518dc5: 1
4f72c2: 1
518e02: 1
518e83: 1
4ec402: 1
518ec0: 1
508783: 1
930680: 1
9256c3: 1
8ef306: 1
511ac3: 1
4f61c7: 1
923883: 1
9188c6: 1
f35e82: 1
511981: 1
939742: 1
5119c0: 1
923982: 1
91ba82: 1
511a01: 1
511a44: 1
511a82: 1
511882: 1
4ea801: 1
511b42: 1
930344: 1
aeab02: 1
4ea8c1: 1
511c00: 1
923bc2: 1
511c40: 1
926cc1: 1
511c83: 1
511cc0: 1
91b681: 1
4dee45: 1
f35646: 1
51134c: 1
939103: 1
511381: 1
511486: 1
91d000: 1
511503: 1
511540: 1
51c580: 1
5115c3: 1
4ea301: 1
511d01: 1
511600: 1
511641: 1
511740: 1
923702: 1
9267c4: 1
511786: 1
5117c0: 1
923782: 1
f35d42: 1
511840: 1
f35dc2: 1
923f02: 1
919385: 1
512783: 1
92cf80: 1
517f42: 1
512804: 1
4e5d83: 1
5128c3: 1
512903: 1
511ec3: 1
4eac01: 1
511f07: 1
511f40: 1
924342: 1
511f80: 1
511fc0: 1
512483: 1
5124c3: 1
512543: 1
932382: 1
a5f7c2: 1
512387: 1
512403: 1
932a80: 1
512a85: 1
f35e42: 1
511d41: 1
511d86: 1
511e05: 1
511e41: 1
511e83: 1
5120a0: 1
5120c4: 1
512100: 1
512140: 1
922e00: 1
512a02: 1
915f80: 1
5129d0: 1
4eaa85: 1
512a44: 1
4f6700: 1
5121c0: 1
a97e47: 1
512240: 1
4ebc07: 1
14f9f34: 1
512283: 1
512341: 1
15158c5: 1
518142: 1
4e5e41: 1
926241: 1
916c00: 1
16267c1: 1
a97dbd: 1
1626281: 1
51bec1: 1
528383: 1
9237c0: 1
16262c2: 1
1626301: 1
92f8c3: 1
51c0c1: 1
f356c5: 1
f34442: 1
927641: 1
f38503: 1
939882: 1
4ea702: 1
16267b0: 1
f349c2: 1
1626641: 1
928a84: 1
8f0000: 1
92f442: 1
1515c02: 1
924881: 1
92f480: 1
92f4c1: 1
1515ac1: 1
4dc494: 1
51a587: 1
92f5c5: 1
92f682: 1
92f947: 1
4f734c: 1
1669eff: 1
9172c2: 1
92f6c6: 1
14fc545: 1
529e83: 1
1513a85: 1
926904: 1
8f0040: 1
930a42: 1
932d40: 1
50ae82: 1
4de401: 1
927740: 1
50b440: 1
50114b: 1
928380: 1
a97f41: 1
ac0c81: 1
ac0d04: 1
4eb902: 1
933200: 1
4de8c1: 1
932081: 1
aeab80: 1
f34541: 1
1515501: 1
9177c1: 1
91b107: 1
f37f00: 1
916e07: 1
928c81: 1
4eaf85: 1
dea601: 1
8ef6c7: 1
dead42: 1
930004: 1
528fc0: 1
9365c0: 1
930dc0: 1
4f63c6: 1
1626703: 1
930082: 1
14fa300: 1
92a8c3: 1
9396c4: 1
b76243: 1
52a200: 1
f344c2: 1
92fac2: 1
92fb40: 1
518e40: 1
8efc01: 1
927600: 1
1626541: 1
4f6204: 1
92fe71: 1
92fe83: 1
14fa10d: 1
151394b: 1
9188b0: 1
a974c4: 1
932d80: 1
1513504: 1
ac0d81: 1
927e80: 1
1511a76: 1
1626507: 1
ac0e03: 1
1511a84: 1
92f706: 1
512941: 1
1515802: 1
14fa147: 1
aeabc6: 1
928681: 1
932200: 1
926383: 1
1513543: 1
1513601: 1
92e040: 1
9230c2: 1
4eac40: 1
15136c0: 1
14fc445: 1
14fc984: 1
9251c0: 1
14fc283: 1
918c86: 1
50ab83: 1
8ef2c7: 1
1515a47: 1
4f7943: 1
15170d4: 1
508080: 1
a5c141: 1
ac4537: 1
528d80: 1
1515c43: 1
92e281: 1
927700: 1
51a547: 1
939842: 1
51a5c2: 1
92f600: 1
929e41: 1
15168db: 1
927882: 1
936ac7: 1
916c82: 1
1517104: 1
925b84: 1
92f983: 1
4ec185: 1
1515702: 1
f35382: 1
919a87: 1
92d380: 1
50ac81: 1
92f781: 1
4debc6: 1
512841: 1
518000: 1
929fc2: 1
92d3c2: 1
508670: 1
b679b0: 1
919802: 1
a5f843: 1
50ac05: 1
92e144: 1
9231c6: 1
92e180: 1
923202: 1
15173f3: 1
9305c1: 1
14fa685: 1
922ec1: 1
932b80: 1
5127c0: 1
1513740: 1
91b641: 1
14fc4c5: 1
90b844: 1
1513a05: 1
b73c83: 1
931086: 1
1513807: 1
52a5c0: 1
4ebaf0: 1
f38080: 1
f34a03: 1
ac4544: 1
50acc2: 1
90b81c: 1
927c02: 1
8e7201: 1
4f6d83: 1
924400: 1
92d202: 1
927a43: 1
917306: 1
4f6682: 1
4ecb80: 1
528582: 1
5285c6: 1
528641: 1
528740: 1
932841: 1
5287c0: 1
5180c5: 1
528842: 1
528883: 1
918d42: 1
5288c2: 1
528540: 1
528904: 1
918dc3: 1
50ac40: 1
528941: 1
5289c1: 1
528a06: 1
528a42: 1
4eb884: 1
932b42: 1
528ac1: 1
528b85: 1
528242: 1
528080: 1
932147: 1
5280c6: 1
928cc2: 1
528106: 1
511581: 1
923543: 1
528141: 1
528180: 1
5281c0: 1
4eb002: 1
528201: 1
512000: 1
4f6042: 1
528306: 1
a5f883: 1
5283c2: 1
528400: 1
528441: 1
8efc42: 1
918900: 1
5284c4: 1
528507: 1
50a8b1: 1
5294d1: 1
529202: 1
4db9c5: 1
9196c1: 1
9288c4: 1
529800: 1
528005: 1
4f75c0: 1
529bc0: 1
92b5a1: 1
4f6f47: 1
9332c3: 1
529242: 1
4f6f00: 1
529544: 1
529585: 1
9249c2: 1
5295c5: 1
92a1c1: 1
1515e04: 1
529602: 1
529645: 1
14fc246: 1
924a82: 1
92a241: 1
919140: 1
528bc5: 1
919084: 1
528c02: 1
4eba44: 1
4f69c2: 1
9190c1: 1
932cc3: 1
50af41: 1
528c42: 1
528c81: 1
15156bb: 1
924d47: 1
528043: 1
528cc0: 1
528d08: 1
512183: 1
4f6c40: 1
528fa0: 1
529046: 1
529002: 1
5290c0: 1
529103: 1
529140: 1
4ebf82: 1
f34601: 1
52a540: 1
f341c7: 1
f34200: 1
f34246: 1
927445: 1
f34305: 1
f34345: 1
927544: 1
f343c0: 1
f34500: 1
1626242: 1
f345c3: 1
1626481: 1
92df93: 1
f34640: 1
f34701: 1
4f6843: 1
f34780: 1
f34846: 1
f34901: 1
50abc0: 1
901ac0: 1
928d82: 1
1669e80: 1
50aa06: 1
508b80: 1
924dc2: 1
ac7cac: 1
14fa19b: 1
15157c5: 1
b478c4: 1
52a386: 1
930701: 1
92f587: 1
4ec542: 1
1515903: 1
f34747: 1
51c5c3: 1
b75bf8: 1
9175c2: 1
14f9fc6: 1
b74f48: 1
52a300: 1
1515b86: 1
1515f87: 1
b73c01: 1
4db601: 1
b73c42: 1
f34090: 1
9194c2: 1
4decc0: 1
51a6c2: 1
926ec5: 1
523728: 1
91b941: 1
938780: 1
523742: 1
523782: 1
4f6d01: 1
5237c5: 1
9243c1: 1
523844: 1
91b281: 1
523880: 1
523905: 1
b6a722: 1
51a480: 1
924501: 1
525757: 1
4ec446: 1
51a9c0: 1
924a41: 1
527ffe: 1
927107: 1
931cc0: 1
916082: 1
928dc6: 1
f34980: 1
917442: 1
92feb0: 1
f34c42: 1
51c2c7: 1
f34cc2: 1
f34d02: 1
f34d82: 1
51a4c1: 1
932805: 1
91bd46: 1
51a503: 1
1669e8a: 1
166a0c1: 1
928e01: 1
4f60c2: 1
51a642: 1
926e45: 1
4dec83: 1
51a685: 1
1515297: 1
924043: 1
923ac1: 1
923b40: 1
918bc2: 1
923b80: 1
923c47: 1
9369c4: 1
923c80: 1
923d05: 1
923d43: 1
923d82: 1
923e42: 1
923e83: 1
923a80: 1
924082: 1
9240c1: 1
a97f00: 1
924101: 1
924141: 1
9241c1: 1
924380: 1
924482: 1
9244c5: 1
924547: 1
9245c6: 1
923501: 1
923144: 1
928903: 1
923101: 1
923243: 1
923281: 1
9232c1: 1
51ab9b: 1
923301: 1
508ac5: 1
928ac0: 1
923441: 1
9234c3: 1
924642: 1
923581: 1
9236c1: 1
a97540: 1
923741: 1
923842: 1
f35e02: 1
923941: 1
923910: 1
917080: 1
923a01: 1
923a41: 1
925a04: 1
925481: 1
925502: 1
925582: 1
9255c1: 1
925682: 1
925781: 1
9257c1: 1
925801: 1
8e9ec0: 1
9258c2: 1
925941: 1
9259c4: 1
f351d0: 1
925ac5: 1
8df142: 1
925b01: 1
14fa0d3: 1
930b02: 1
925b45: 1
925c01: 1
925c40: 1
925c82: 1
925d06: 1
925dc4: 1
924cc2: 1
924681: 1
9246c4: 1
924701: 1
929ec0: 1
924801: 1
9248c4: 1
919946: 1
924941: 1
924980: 1
924c02: 1
14fc405: 1
924c41: 1
923081: 1
4ea401: 1
924ec7: 1
9192c0: 1
924f04: 1
924f40: 1
925040: 1
925142: 1
92a901: 1
9252c2: 1
925302: 1
925345: 1
1626370: 1
91ad80: 1
91ae47: 1
91ae81: 1
518c47: 1
91af41: 1
91af80: 1
91b044: 1
91b146: 1
91b181: 1
91b1c4: 1
511181: 1
91b202: 1
91ad41: 1
91b300: 1
91b2c2: 1
91b342: 1
92e105: 1
91b3c1: 1
91b401: 1
91b503: 1
91b540: 1
91b5c4: 1
51c4c1: 1
926542: 1
4db981: 1
508301: 1
508501: 1
925441: 1
1517618: 1
5085c4: 1
15d8100: 1
4f85a5: 1
919ac1: 1
4f81ab: 1
4f9300: 1
529f85: 1
4f9540: 1
91b600: 1
4f9682: 1
4f96c2: 1
f35b85: 1
90cd42: 1
14fa480: 1
f35c41: 1
923681: 1
f35cc6: 1
917dc0: 1
14fa541: 1
f35d02: 1
922c04: 1
91cfb9: 1
509872: 1
923401: 1
91cfc2: 1
91d045: 1
922a81: 1
928240: 1
922ac5: 1
f35ac5: 1
922b40: 1
f35b05: 1
922b80: 1
91bc41: 1
922c85: 1
922d45: 1
922d80: 1
922dc0: 1
922e42: 1
922e86: 1
922f07: 1
922fc0: 1
14fa804: 1
923040: 1
14fa845: 1
511900: 1
91b6c3: 1
939402: 1
91b701: 1
91b741: 1
91b784: 1
91b7c3: 1
92bf00: 1
91b801: 1
91b840: 1
91b880: 1
9395c1: 1
91b8c0: 1
14fa390: 1
91b981: 1
511943: 1
91b9c4: 1
91ba00: 1
91ba40: 1
91bac1: 1
91bb00: 1
91bb80: 1
927787: 1
91bbc6: 1
511bc0: 1
917402: 1
92bee7: 1
f35d82: 1
f35f02: 1
f35f43: 1
f35f82: 1
4f7145: 1
917140: 1
917180: 1
917287: 1
917340: 1
92d341: 1
9173c7: 1
92a9c4: 1
9174c2: 1
14f9cc1: 1
92a284: 1
917540: 1
917582: 1
917601: 1
917642: 1
917682: 1
917747: 1
917801: 1
917840: 1
92a540: 1
928800: 1
928841: 1
9289c4: 1
4eb244: 1
928f40: 1
929616: 1
929cad: 1
f35200: 1
92a002: 1
92a103: 1
92a207: 1
92a4c0: 1
9178c3: 1
92a582: 1
92a602: 1
a5f807: 1
4f7901: 1
92a640: 1
92a6c1: 1
92a7c1: 1
14fa240: 1
92a803: 1
92a980: 1
512750: 1
919742: 1
919345: 1
529e10: 1
4de900: 1
9193c6: 1
4de9c0: 1
f35aad: 1
919486: 1
919501: 1
9195c1: 1
919607: 1
919640: 1
919681: 1
9191c4: 1
14fbf45: 1
924781: 1
9197c4: 1
919840: 1
14fc103: 1
919982: 1
9199c2: 1
919a47: 1
91a003: 1
91a085: 1
91a0c0: 1
918985: 1
917942: 1
9179c0: 1
4f7a46: 1
917a41: 1
917a81: 1
917b00: 1
f35b45: 1
917c03: 1
917cc1: 1
917d03: 1
918490: 1
918501: 1
9287c0: 1
918a03: 1
918a46: 1
923b01: 1
918b44: 1
918b87: 1
918cc2: 1
923ec0: 1
918f03: 1
8f0347: 1
919005: 1
919103: 1
926d04: 1
926784: 1
926801: 1
926881: 1
9268c2: 1
926982: 1
4ebf41: 1
926a07: 1
926a81: 1
91bb43: 1
926b00: 1
926b42: 1
926b82: 1
926701: 1
926d81: 1
926dc1: 1
931dc0: 1
926e03: 1
926e83: 1
926f00: 1
926f41: 1
4f7478: 1
926f81: 1
927006: 1
9270c0: 1
926281: 1
925e02: 1
925e40: 1
925ec4: 1
925f01: 1
925f45: 1
926003: 1
1513780: 1
926042: 1
9260c2: 1
5110c4: 1
926102: 1
926202: 1
927246: 1
51c240: 1
9262c1: 1
9263c3: 1
51c383: 1
5113c6: 1
926404: 1
5114c2: 1
926500: 1
9265c2: 1
51c603: 1
926684: 1
5291c3: 1
927dc4: 1
927e01: 1
927f06: 1
927f43: 1
528f42: 1
928006: 1
928040: 1
917903: 1
928104: 1
928180: 1
1515940: 1
928202: 1
927d80: 1
928287: 1
933281: 1
1515a02: 1
9282c4: 1
1515b02: 1
9283c4: 1
928584: 1
1515d02: 1
9285c4: 1
928607: 1
928742: 1
9328c1: 1
9272c7: 1
927300: 1
927340: 1
15163da: 1
927381: 1
9273c1: 1
927402: 1
9274c2: 1
927506: 1
9276c0: 1
927805: 1
508187: 1
927904: 1
9171c7: 1
927945: 1
927a80: 1
927ac5: 1
927bc2: 1
5183c1: 1
917485: 1
927c40: 1
917503: 1
927d41: 1
9247c5: 1
4eb184: 1
930d07: 1
4eb284: 1
1516640: 1
f34100: 1
501180: 1
4eb2c2: 1
4eb381: 1
4eb3c1: 1
51bf05: 1
4eb4c0: 1
4eb541: 1
4eb106: 1
15137c6: 1
4eb5c2: 1
4eb643: 1
4eb604: 1
4f65c1: 1
4eb703: 1
918d80: 1
4eb786: 1
4f6ac2: 1
4ebb05: 1
4ebb84: 1
4eadc1: 1
4eaa02: 1
4eaa41: 1
930545: 1
4eaac2: 1
4eab01: 1
4eab81: 1
4eabc2: 1
4eac83: 1
4eacc3: 1
4ead01: 1
4ead40: 1
f355d6: 1
4ebbc3: 1
930883: 1
4eae00: 1
4eae45: 1
930903: 1
4eae80: 1
930943: 1
4eaec0: 1
4eaf00: 1
924184: 1
4eaf43: 1
4eb0c1: 1
4ed447: 1
4ec783: 1
92a500: 1
4ec804: 1
4ec843: 1
927d07: 1
4ed241: 1
4ed2c4: 1
4ed342: 1
4ed381: 1
4ed3c2: 1
4ed401: 1
8ef741: 1
4ebfc5: 1
4eb840: 1
4eb9c2: 1
4eba02: 1
92a445: 1
90cc42: 1
4ecc47: 1
f381c7: 1
925242: 1
4eccc6: 1
4ecd81: 1
528282: 1
507781: 1
919240: 1
4ebc41: 1
51c6c7: 1
4ebc82: 1
4ebd00: 1
4ebd82: 1
a97450: 1
4ebdc1: 1
4ebe00: 1
4ec041: 1
4f7083: 1
4ec0c6: 1
4ea984: 1
4ec100: 1
4ec1c2: 1
4ecdf0: 1
15f3cfe: 1
528802: 1
4ece00: 1
4ed4c3: 1
4ebe82: 1
4ebf01: 1
92a944: 1
929cc1: 1
50b346: 1
4ed304: 1
50b005: 1
50b0c1: 1
50b101: 1
50b140: 1
50b200: 1
933003: 1
1515784: 1
50b281: 1
4de800: 1
50b2c1: 1
50b307: 1
927f84: 1
1515884: 1
928146: 1
50b381: 1
50b3c1: 1
ac0e80: 1
92f380: 1
4de940: 1
933183: 1
9281c6: 1
50b401: 1
50b4c3: 1
4de381: 1
15f3c80: 1
50aa83: 1
50ab00: 1
50ab47: 1
50ad40: 1
927c80: 1
932b02: 1
528a81: 1
ac4602: 1
50ad80: 1
927cc0: 1
50ae02: 1
928403: 1
ac46c3: 1
50ae41: 1
a5c240: 1
4de3c0: 1
50af00: 1
14f9e84: 1
917703: 1
50afc0: 1
1515547: 1
50b044: 1
528ec0: 1
4ea680: 1
4e5dc1: 1
931003: 1
4eb580: 1
4ea381: 1
f35bc5: 1
4ea440: 1
4ea480: 1
1516601: 1
f340c1: 1
b75550: 1
928ec3: 1
4ea540: 1
918b00: 1
f35ec4: 1
4ea6c6: 1
922cc1: 1
4ea742: 1
4ea784: 1
4ea841: 1
4ea882: 1
aeab43: 1
508603: 1
4ea902: 1
4ea941: 1
4db5f0: 1
50e843: 1
f353c4: 1
91bd33: 1
f35606: 1
92a483: 1
4f7744: 1
f35681: 1
928880: 1
518700: 1
f35706: 1
f35781: 1
4ec880: 1
4db644: 1
928f03: 1
91ad10: 1
4db6c1: 1
92a841: 1
4db701: 1
4db742: 1
4db783: 1
4db841: 1
4e5ccd: 1
14fb281: 1
928081: 1
4dd4f2: 1
91b241: 1
4dd545: 1
4dd583: 1
4dd5c4: 1
4de213: 1
4de4c1: 1
4de541: 1
4de581: 1
4de5c2: 1
4de6c0: 1
14f93d9: 1
50ad01: 1
4de704: 1
5123c0: 1
4de745: 1
4de7c2: 1
4de843: 1
512500: 1
4de885: 1
ac0ec1: 1
92f3c1: 1
4de981: 1
928342: 1
4f7642: 1
4f7541: 1
14f9e43: 1
4f76c7: 1
4ec746: 1
4f7703: 1
4f77c3: 1
924e40: 1
4f7802: 1
4f7846: 1
4f7882: 1
4f78c2: 1
4f7581: 1
ac0f40: 1
4f79c2: 1
f35941: 1
4f7a04: 1
9250c3: 1
901b41: 1
4f7ac0: 1
4f7b42: 1
4f7bc0: 1
4db940: 1
4db924: 1
4dbf04: 1
8f0384: 1
936782: 1
4e5d42: 1
918a81: 1
504043: 1
5040c1: 1
dea666: 1
504142: 1
926841: 1
504180: 1
504303: 1
507080: 1
923fc0: 1
501300: 1
504004: 1
919042: 1
5070c3: 1
924003: 1
507145: 1
5122c1: 1
507304: 1
924244: 1
927181: 1
507186: 1
508047: 1
92f7c2: 1
4dea00: 1
4dea80: 1
92f501: 1
4deac1: 1
4deb06: 1
4dec00: 1
4dec44: 1
4ded06: 1
9286c7: 1
ae9f41: 1
4ded43: 1
928704: 1
4f7500: 1
4ded82: 1
922f84: 1
4dedc0: 1
4dee00: 1
923002: 1
4dd6af: 1
5188c1: 1
f358c7: 1
14fa1c0: 1
f35981: 1
9233c1: 1
925885: 1
4ec285: 1
919902: 1
4ec304: 1
4ec340: 1
4ec380: 1
931e44: 1
4ec3c1: 1
4ec482: 1
4ec583: 1
4ec5c5: 1
4ec601: 1
930842: 1
924841: 1
4ec680: 1
4ed5c3: 1
4f6011: 1
4f6081: 1
4eb304: 1
4f62c1: 1
4f6301: 1
a62d97: 1
4f6340: 1
4f6380: 1
4f6405: 1
9324c4: 1
4ec8c3: 1
4ec902: 1
4ec941: 1
4ec982: 1
4ec9c1: 1
f35900: 1
4eca06: 1
4f7984: 1
4ea3c0: 1
5080c1: 1
14fc7c5: 1
925001: 1
4f6440: 1
4eca41: 1
930c82: 1
925cc5: 1
4ecb01: 1
925d85: 1
4ecb44: 1
4f7b80: 1
4ecbc3: 1
4ec246: 1
a98640: 1
51a7c0: 1
4f6fc7: 1
4f6bc2: 1
4f6c07: 1
4ebcc6: 1
4f6c83: 1
924300: 1
4f6cc0: 1
4f6dc4: 1
924441: 1
4f6e04: 1
4f6e42: 1
919541: 1
52ac42: 1
4f6b82: 1
4f70c4: 1
924741: 1
929f00: 1
4f7330: 1
4f71c3: 1
4f7240: 1
925546: 1
92a0c1: 1
4f7382: 1
14f9b82: 1
4f7406: 1
4f6883: 1
4f6480: 1
4f64c7: 1
51100f: 1
4f6544: 1
4f6581: 1
4f66c1: 1
4f6782: 1
918e81: 1
4f67c2: 1
918ec1: 1
4f6800: 1
931284: 1
f34800: 1
4f68c3: 1
507000: 1
923f40: 1
4f6901: 1
4f6941: 1
4f6a00: 1
4f6a82: 1
919181: 1
4f6b01: 1
4f6b46: 1
91a880: 1
92a780: 1
91a043: 1
1517681: 1
929d01: 1
1517645: 1
aeb757: 1
15d8007: 1
aeac06: 1
930cc0: 1
5125e0: 1
932c00: 1
1517901: 1
8e9e3b: 1
9308c1: 1
92ce81: 1
923800: 1
924d85: 1
931fc2: 1
932001: 1
927044: 1
ae9f05: 1
930e05: 1
927982: 1
4de302: 1
932ac4: 1
927b46: 1
a97e00: 1
922f44: 1
a97704: 1
a976c4: 1
a97683: 1
14fa702: 1
a97657: 1
52a582: 1
8f02c4: 1
ae9ec7: 1
a975c1: 1
917787: 1
8f0243: 1
4de482: 1
927e43: 1
f35c85: 1
9326c1: 1
b762c5: 1
14fac46: 1
14f9c00: 1
15186c4: 1
4f6181: 1
503fc1: 1
8ef840: 1
4de507: 1
8ef805: 1
8ef782: 1
8ef700: 1
1517862: 1
938883: 1
8ef680: 1
4f9581: 1
4eb203: 1
8ef584: 1
14fa8c1: 1
8ef482: 1
f36044: 1
8ef444: 1
f36003: 1
8ef403: 1
931d80: 1
52a484: 1
14fc041: 1
936442: 1
1516403: 1
931303: 1
509445: 1
ae9df0: 1
1517482: 1
8e6cfb: 1
1517441: 1
924b01: 1
1516906: 1
916100: 1
1516582: 1
1516483: 1
a97ecc: 1
511b01: 1
14fa096: 1
1515f01: 1
9235c1: 1
51c641: 1
925845: 1
931f80: 1
ae9e43: 1
926c42: 1
ae9e01: 1
8ef904: 1
939182: 1
f357c7: 1
939041: 1
16264c1: 1
4ed583: 1
938800: 1
50b183: 1
9280c3: 1
f382c5: 1
938740: 1
4de642: 1
9391c0: 1
14fad43: 1
528681: 1
938684: 1
8df182: 1
930b87: 1
15178c0: 1
924f80: 1
938600: 1
927ec3: 1
9385e0: 1
932fc7: 1
939504: 1
f38100: 1
f380c0: 1
508bc0: 1
939684: 1
4ea504: 1
917b81: 1
939580: 1
1515fc4: 1
939540: 1
923644: 1
a5f777: 1
90cec5: 1
917a01: 1
9394c0: 1
14fa9c2: 1
4eb142: 1
939482: 1
1516b4f: 1
939440: 1
9393c2: 1
939302: 1
9392c3: 1
939781: 1
9364c3: 1
4f7a80: 1
9387c1: 1
14f9d01: 1
14f9c81: 1
14f9c41: 1
511683: 1
f35c05: 1
f36603: 1
9363c2: 1
923604: 1
51c741: 1
4ea601: 1
14f9b42: 1
51c502: 1
4ea5c2: 1
14f9a46: 1
14f9a07: 1
932180: 1
932bc1: 1
8f01c4: 1
a97f81: 1
51c000: 1
936744: 1
90ce80: 1
90cdc3: 1
917d41: 1
90cd83: 1
1515440: 1
90cd01: 1
14fa984: 1
5282c2: 1
14fa400: 1
90ccc2: 1
4e5d04: 1
14faec2: 1
14fc705: 1
f37ec6: 1
925906: 1
1515484: 1
f37e80: 1
14f9f03: 1
917c81: 1
14f9d41: 1
4ea4c1: 1
14f9d81: 1
92f760: 1
917240: 1
92d301: 1
512880: 1
929f82: 1
15164c1: 1
8ef503: 1
919782: 1
92ce20: 1
14fa5c5: 1
4ebe42: 1
933145: 1
92d282: 1
927a06: 1
508b43: 1
91b081: 1
14fa881: 1
14f9a85: 1
930a81: 1
92f902: 1
92a143: 1
1626800: 1
939380: 1
923484: 1
923cc1: 1
928d41: 1
4eb982: 1
529743: 1
f35847: 1
4eb8c2: 1
1513700: 1
924a00: 1
14f9e01: 1
8eae40: 1
51c7c1: 1
5182c6: 1
14fac80: 1
15154c4: 1
1513899: 1
528d40: 1
14fa582: 1
4ed490: 1
16265c0: 1
509884: 1
939082: 1
923186: 1
928945: 1
9315c3: 1
52a986: 1
92e087: 1
926600: 1
919205: 1
b73bf0: 1
8f00c3: 1
92fa80: 1
b768a8: 1
1517145: 1
92d2c2: 1
f384c0: 1
936500: 1
930444: 1
508586: 1
1515843: 1
9266c0: 1
4ea2df: 1
92e242: 1
8ef60a: 1
8eff45: 1
917207: 1
14fa781: 1
9278c0: 1
92f378: 1
8ef184: 1
a97dc2: 1
925400: 1
4f9500: 1
51c701: 1
918f81: 1
931f40: 1
ae9e83: 1
b755c5: 1
930f84: 1
930f44: 1
a97e85: 1
4ec4c1: 1
4dea43: 1
922c45: 1
f37f81: 1
4ead80: 1
508a81: 1
ac0e41: 1
4dcc14: 1
91b001: 1
931f04: 1
8ef287: 1
9307c1: 1
518904: 1
9392b9: 1
918f40: 1
90afc0: 1
4eafc5: 1
518b45: 1
4f7042: 1
918580: 1
14fad83: 1
9386c4: 1
15d65b0: 1
916f40: 1
52abc0: 1
8ef241: 1
8ef141: 1
51c480: 1
1515dc2: 1
928c41: 1
928b81: 1
528984: 1
4eb7c6: 1
923dc1: 1
52a502: 1
8ef3c6: 1
8ef385: 1
939900: 1
50e81e: 1
8ef344: 1
930b40: 1
916983: 1
52a603: 1
508b00: 1
8e8781: 1
931546: 1
8ef540: 1
14fc9c5: 1
925740: 1
939640: 1
8e79ed: 1
1516fc0: 1
4f7003: 1
919702: 1
4f6f83: 1
924600: 1
512601: 1
51c400: 1
f36686: 1
a97500: 1
50aec3: 1
4de442: 1
14fc685: 1
931c90: 1
529fc3: 1
925383: 1
14faace: 1
90ce02: 1
939340: 1
4f7601: 1
928c03: 1
92f9c0: 1
8ef1c1: 1
14fa600: 1
512042: 1
4f6987: 1
9390c0: 1
51c180: 1
928983: 1
15139c1: 1
14f9bc6: 1
504341: 1
926a40: 1
916e80: 1
52ab00: 1
92fa02: 1
4eb800: 1
52aac2: 1
f34d42: 1
52aa80: 1
92ce41: 1
f34483: 1
4ea362: 1
919b00: 1
933344: 1
14fae03: 1
936901: 1
918c00: 1
9398c3: 1
9239c7: 1
91a687: 1
930601: 1
9314c1: 1
518182: 1
92a741: 1
14fc181: 1
14fc0c4: 1
14fc080: 1
14fc002: 1
14fbf84: 1
14fbec7: 1
ac0dc0: 1
14fbe41: 1
14fbe00: 1
14faf81: 1
92ff00: 1
919a07: 1
14faf44: 1
4eb6c4: 1
4f6642: 1
14faf03: 1
4eb683: 1
4f6601: 1
14fbfc3: 1
14fae44: 1
528782: 1
14fadda: 1
14fc585: 1
4f7fc3: 1
925640: 1
14fc885: 1
14fc845: 1
14fc805: 1
508540: 1
14fc6c5: 1
52a003: 1
14fc645: 1
14fc605: 1
14fc5c5: 1
92d1c1: 1
14fc505: 1
529e43: 1
925280: 1
14fc485: 1
925200: 1
14fc3c5: 1
925100: 1
14fc2c6: 1
4db680: 1
14fc207: 1
90b383: 1
8eff06: 1
8efec3: 1
92d002: 1
8efe03: 1
8efcc4: 1
8efc82: 1
8efb06: 1
8efac0: 1
b4aed2: 1
f342c0: 1
8efa82: 1
f347c7: 1
f34282: 1
927481: 1
8ef9c0: 1
8ef945: 1
8ef881: 1
927280: 1
14fbf06: 1
8ef860: 1
14faa01: 1
14fa943: 1
14fa901: 1
8e9e01: 1
50aac2: 1
14fad02: 1
4eb482: 1
14fabd6: 1
9170c1: 1
14fab45: 1
9238c0: 1
14faa94: 1
8f0301: 1
14f9ac4: 1
8e9ee6: 1
14fc8c5: 1
f361c0: 1
8ef5c0: 1
8e9dc0: 1
51b404: 1
4de246: 1
8f0207: 1
8f0104: 1
932a40: 1
f348c3: 1
8effc7: 1
915fc0: 1
f36581: 1
f364f9: 1
f36501: 1
f36541: 1
916382: 1
916333: 1
916344: 1
916140: 1
9160c4: 1
916047: 1
916000: 1
f365c1: 1
915f42: 1
915a4e: 1
9159c1: 1
915981: 1
915942: 1
9158e0: 1
f36283: 1
f36245: 1
f36201: 1
f36181: 1
f36141: 1
90b2d0: 1
90b640: 1
90b602: 1
90b5c0: 1
90b583: 1
90b542: 1
90b4c6: 1
90b481: 1
90b444: 1
90b400: 1
90b3c2: 1
90b345: 1
f36101: 1
90b286: 1
90b240: 1
90b203: 1
90b1c1: 1
90b180: 1
90b102: 1
90b0c2: 1
90b085: 1
90b046: 1
90af50: 1
91a741: 1
9167c3: 1
f360c1: 1
f36085: 1
916766: 1
f35fc3: 1
91acc6: 1
91ac86: 1
91a8c0: 1
91a841: 1
91a801: 1
91a780: 1
916800: 1
91a700: 1
91a640: 1
91a605: 1
91a5c7: 1
91a584: 1
91a505: 1
91a480: 1
91a406: 1
91a3c0: 1
91a386: 1
91a350: 1
916c41: 1
917040: 1
916fc6: 1
916f82: 1
916f01: 1
916ec3: 1
916e41: 1
916dc4: 1
916d86: 1
916d42: 1
916d01: 1
916cc0: 1
4eb081: 1
916bc1: 1
916b43: 1
916b02: 1
916a40: 1
916a01: 1
916941: 1
916901: 1
9168c2: 1
916880: 1
916842: 1
931142: 1
932583: 1
f34406: 1
932540: 1
936582: 1
8efbc3: 1
932502: 1
927584: 1
932480: 1
932301: 1
8ef984: 1
f34184: 1
930285: 1
9322c1: 1
932285: 1
933241: 1
512454: 1
922b04: 1
9320c2: 1
932042: 1
927083: 1
1516fa3: 1
925d42: 1
14fa2d0: 1
932940: 1
932e81: 1
932dc0: 1
14f98c8: 1
932c80: 1
50adc2: 1
932c42: 1
51b3c1: 1
930742: 1
932a07: 1
4f9783: 1
9329c5: 1
931ec1: 1
932900: 1
4f9603: 1
92d082: 1
9304c2: 1
4ec2c0: 1
9327c0: 1
932781: 1
50a8c1: 1
932643: 1
9325c0: 1
936643: 1
936803: 1
9367c0: 1
b6d451: 1
933305: 1
936702: 1
4ecd41: 1
8efd02: 1
9366c1: 1
f38544: 1
925f84: 1
936681: 1
8efe44: 1
936481: 1
930d40: 1
91adc6: 1
9363a0: 1
917ac1: 1
f38187: 1
90af81: 1
915f3e: 1
508c87: 1
931244: 1
f38141: 1
f38204: 1
931e81: 1
8ef4c7: 1
4dd505: 1
4f7101: 1
931e05: 1
931d44: 1
931d01: 1
f38347: 1
529cc1: 1
f38306: 1
14fc342: 1
50b085: 1
936c03: 1
936bc0: 1
936b80: 1
926482: 1
91b4c5: 1
936a00: 1
931205: 1
92ba46: 1
936980: 1
936842: 1
f385c4: 1
14fa200: 1
1516544: 1
14fa042: 1
4ea7c2: 1
917104: 1
929d80: 1
92d100: 1
92d040: 1
14f9f50: 1
8efd40: 1
f38601: 1
918d06: 1
930100: 1
9300c1: 1
b73cc5: 1
92ffc0: 1
931500: 1
926582: 1
931400: 1
9313c6: 1
931342: 1
9312c4: 1
936a83: 1
a5c1c0: 1
4eb041: 1
14fa7c0: 1
512202: 1
14fa747: 1
b67a00: 1
518282: 1
15134c8: 1
14fa6c3: 1
9184c0: 1
a5c2c3: 1
4eb341: 1
93901e: 1
a5c184: 1
a5c104: 1
1515c80: 1
14fa500: 1
8efb43: 1
b74298: 1
b679c1: 1
4f6740: 1
14fa280: 1
a5c0c0: 1
930170: 1
52a4c8: 1
930644: 1
4f73c0: 1
930581: 1
52a1c6: 1
930481: 1
a5f784: 1
a5c204: 1
930241: 1
930200: 1
930181: 1
4ec7c0: 1
f38405: 1
930304: 1
f38380: 1
b74942: 1
92fec4: 1
14fc745: 1
9330c0: 1
933042: 1
932f43: 1
91ac02: 1
8eae00: 1
9311c0: 1
936940: 1
92ff82: 1
931101: 1
92ff42: 1
9310c1: 1
936880: 1
52a042: 1
931043: 1
930e41: 1
936600: 1
14f9443: 1
930d82: 1
f383c4: 1
92b5c3: 1
930c02: 1
f38244: 1
91ac46: 1
930bc0: 1
930ac0: 1
508c02: 1
930a03: 1
1516da5: 1
518a43: 1
14fa450: 1
9331c0: 1
4de601: 1
1515cc5: 1
14f9981: 1
928b44: 1
518b03: 1
4ec082: 1
ac4640: 1
52a945: 1
50b1c0: 1
15156c3: 1
4ebd45: 1
92f880: 1
4f7285: 1
924902: 1
8f0082: 1
932f83: 1
1515bc7: 1
14f9ec5: 1
4de786: 1
508680: 1
930402: 1
8efe85: 1
14fc300: 1
930043: 1
932341: 1
1513582: 1
f36641: 1
8efa41: 1
936400: 1
930c41: 1
91b440: 1
939141: 1
8df541: 1
15135c1: 1
b761ec: 1
926080: 1
14f99c0: 1
923385: 1
92e342: 1
f362c0: 1
15d65c3: 1
926301: 1
92a3c3: 1
14faa42: 1
8f0181: 1
4eb1c2: 1
1626430: 1
4eb742: 1
a5c282: 1
4ecc12: 1
92dfc1: 1
1515983: 1
90ce40: 1
8ef205: 1
5094c3: 1
511404: 1
91b485: 1
9264c1: 1
15174c1: 1
924b81: 1
930986: 1
91b0c2: 1
1626742: 1
14fa644: 1
8df081: 1
4f7b03: 1
925180: 1
928540: 1
92fa40: 1
924ac2: 1
936b40: 1
15155c3: 1
1516500: 1
4e5e06: 1
918c42: 1
90cc10: 1
b47880: 1
932887: 1
4deb81: 1
4f76b1: 1
926640: 1
4ec645: 1
928442: 1
ae9f81: 1
50b482: 1
507fc1: 1
939601: 1
91b900: 1
91afc2: 1
930783: 1
529505: 1
51f4c1: 1
91b587: 1
4de346: 1
b768c2: 1
939700: 1
9321c1: 1
14fc1c0: 1
aeaaed: 1
14f9900: 1
923c01: 1
1513845: 1
917bc0: 1
90b001: 1
1516440: 1
90b500: 1
4eb505: 1
14fa3c0: 1
4eab40: 1
90b306: 1
52a282: 1
915900: 1
1515d82: 1
936541: 1
8efb82: 1
932244: 1
1626220: 1
932100: 1
4de283: 1
dead0e: 1
936a45: 1
14fc904: 1
52a242: 1
518807: 1
ac0c60: 1
92cf00: 1
5116c7: 1
91a7c2: 1
91a902: 1
8eff86: 1
8df340: 1
512986: 1
932981: 1
9242c0: 1
930800: 1
1513641: 1
932401: 1
92e0c1: 1
ac4683: 1
928302: 1
932e06: 1
518a06: 1
932442: 1
8efdc4: 1
932741: 1
9277c3: 1
919fe0: 1
926941: 1
509012: 1
93a436: 1
4db802: 1
16263a0: 1
933100: 1
50b242: 1
8efa07: 1
a97481: 1
1513ac2: 1
933085: 1
9176c1: 1
9309c2: 1
508c40: 1
f34a43: 1
511141: 1
46f700: 1
917d82: 1
528340: 1
9301c4: 1
5118c7: 1
8ef640: 1
166a217: 1
f38001: 1
925a41: 1
1626681: 1
928783: 1
b76200: 1
52aa01: 1
9323c1: 1
4ecd00: 1
9269c1: 1
b76284: 1
92f407: 1
927680: 1
528b01: 1
52a181: 1
f34885: 1
f34686: 1
926183: 1
15138c1: 1
926740: 1
929e02: 1
529f44: 1
9275c0: 1
9306c0: 1
92d243: 1
91a4c2: 1
92f644: 1
932681: 1
528600: 1
930ec5: 1
4eb442: 1
929e85: 1
1517882: 1
f35342: 1
92fb00: 1
91aec0: 1
1513682: 1
930f01: 1
51a9a1: 1
91b380: 1
922bc2: 1
518b80: 1
917c44: 1
928641: 1
4ed210: 1
ac0cc1: 1
92a302: 1
926d40: 1
4db7c1: 1
529f07: 1
926fc0: 1
528701: 1
918540: 1
924e82: 1
dea6c1: 1
f37fc3: 1
b74901: 1
91ae01: 1
92e201: 1
51a604: 1
919882: 1
14facc1: 1
14f9410: 1
4f6283: 1
5286c2: 1
92e2c2: 1
508001: 1
91abf2: 1
92a700: 1
b75602: 1
4f9342: 1
f34dc0: 1
1515a83: 1
51c8c2: 1
931581: 1
932700: 1
92f841: 1
9368c0: 1
4e5e80: 1
529084: 1
8df303: 1
4ebec6: 1
50a983: 1
4ecc82: 1
511801: 1
511707: 1
14fab99: 1
4ebb45: 1
930501: 1
b75581: 1
1515f4d: 1
931440: 1
9302c1: 1
9169c1: 1
1626582: 1
925e82: 1
92d0c2: 1
50a9c3: 1
b76e9c: 1
930e83: 1
91af02: 1
8df500: 1
91a6c1: 1
92d405: 1
1626447: 1
14f95d6: 1
4ea582: 1
14fc142: 1
4f7180: 1
924587: 1
92f547: 1
9189c2: 1
916780: 1
92e1c0: 1
928a01: 1
518880: 1
1517dc6: 1
90cc83: 1
b748c1: 1
dea681: 1
14fab00: 1
929d47: 1
931181: 1
9261c4: 1
1513902: 1
4eb400: 1
1515743: 1
4ec6e6: 1
512300: 1
528b43: 1
507040: 1
923f80: 1
14fa340: 1
1516684: 1
ac45c1: 1
938703: 1
50b503: 1
931482: 1
14fac00: 1
929dc3: 1
939802: 1
46f6e0: 1
91a440: 1
92d184: 1
9279c5: 1
8ef8c4: 1
918fc0: 1
92cf42: 1
512586: 1
4f6242: 1
927142: 1
8df001: 1
4f9644: 1
14fbe80: 1
932ec7: 1
9397c1: 1
14fbdc0: 1
923e02: 1
925701: 1
8efd84: 1
4dee85: 1
92e005: 1
51c881: 1
508342: 1
4ea641: 1
932601: 1
918947: 1
938642: 1
92f802: 1
f38042: 1
925981: 1
91a100: 1
8defc2: 1
1515e81: 1
928d00: 1
9185c3: 1
4eb941: 1
14f9dc1: 1
92a384: 1
14fa010: 1
14fa4c0: 1
1510250: 1
4ea9c0: 1
5086c1: 1
925601: 1
151543a: 1
b75c03: 1
14fae86: 1
b748a0: 1
917981: 1
1513985: 1
ac0d45: 1
926ac5: 1
926341: 1
92a681: 1
f35d0a: 1
924fc1: 1
932e48: 1
8ef7c4: 1
14fc785: 1
f34144: 1
4ec705: 1
f37f46: 1
14f9f90: 1
8df043: 1
917b43: 1
4f95c1: 1
ac0f02: 1
93a441: 1
925a82: 1
1515e40: 1
928481: 1
928bc1: 1
9271c2: 1
1515d42: 1
918ac4: 1
a97587: 1
927201: 1
917001: 1
92ba3e: 1
15159c8: 1
14f9942: 1
8df0c2: 1
ac4585: 1
1515580: 1
936c42: 1
8f0283: 1
528482: 1
4eca80: 1
511dc4: 1
8e6500: 2
8e6d00: 2
8e7284: 2
8eaf42: 2
8e8348: 2
8e71cb: 2
1668901: 2
deb100: 2
8e9c80: 2
8ead40: 2
8e88c0: 2
8e7384: 2
8e7656: 2
8e9502: 2
8e9c42: 2
8e72c0: 2
166bd42: 2
8e9bc4: 2
8e6382: 2
8eaec0: 2
8e94f6: 2
8e9864: 2
8e6440: 2
8e7485: 2
deb0d2: 2
8ea740: 2
1674400: 2
8e9202: 2
8e6484: 2
8e85c2: 2
8e8602: 2
166a35c: 2
8e7540: 2
8e6823: 2
8e7341: 2
8e84c0: 2
8e9f43: 2
8e8483: 2
8e8761: 2
8e91c0: 2
8ea202: 2
deb441: 2
8e9f03: 2
8eac84: 2
1674484: 2
8e9c00: 2
8e74c2: 2
1669c05: 2
8e8882: 2
8e9282: 2
8e63c2: 2
8e87c3: 2
8e86c0: 2
8e7442: 2
8e8841: 2
8e8380: 2
dea5c2: 2
8e8641: 2
8e7405: 2
8e9240: 2
dea5b0: 2
8e8682: 2
8e7582: 2
8ead81: 2
8e7602: 2
8e8541: 2
8e9cc2: 2
8e6402: 2
8e7e98: 2
8ea1f6: 2
8e9d03: 2
8e7242: 2
1669bc0: 2
166a09f: 2
8e75c2: 2
8e8582: 2
8e9d41: 2
8e8800: 2
8e73c2: 2
8e6340: 2
8e9d82: 2
deb437: 2
8e8401: 2
8e8442: 2
8eae9c: 2
8e8703: 2
8eadc1: 2
8e9e43: 2
8ead02: 2
8e83c2: 2
8e9e80: 2
8eacc0: 2
8e8500: 2
8eb396: 2
1669ed0: 2
8e7501: 2
dead81: 2
8eaf02: 2
8e64c7: 2
915886: 3
150dc80: 3
1669e40: 3
150dc00: 3
166a4c0: 3
f2e845: 3
1669dc1: 3
914e00: 3
f2ec41: 3
f2f3c0: 3
915384: 3
f2f7c6: 3
f31981: 3
150e702: 3
150d804: 3
f31b84: 3
f2ed06: 3
150da42: 3
f328d0: 3
f2f2c0: 3
150d8c2: 3
914dc4: 3
915741: 3
150e847: 3
915701: 3
f32dc1: 3
f2e707: 3
f31a05: 3
f33128: 3
f2ea43: 3
f2f206: 3
f31b41: 3
150e982: 3
f2eb05: 3
913f40: 3
9154c2: 3
f32a43: 3
f32cc1: 3
f2f440: 3
150dd80: 3
150dcc0: 3
f31aea: 3
f2e985: 3
150e880: 3
f31c83: 3
f32a84: 3
f2ec82: 3
f31dc1: 3
915400: 3
f31901: 3
f32e40: 3
f2e884: 3
150de90: 3
f2eec4: 3
f2ecc2: 3
150d882: 3
150db80: 3
f2e945: 3
f329c4: 3
f2ea01: 3
f2ef02: 3
f2edc2: 3
f2eb40: 3
f2ed42: 3
915443: 3
914d40: 3
9153c1: 3
f2eb81: 3
150df05: 3
f32ac5: 3
1668830: 3
912440: 3
150d4c0: 3
f2e746: 3
f2f104: 3
f3329b: 3
9124c3: 3
f2ef81: 3
913202: 3
1668880: 3
150ea01: 3
f2ee83: 3
f2f4c2: 3
915100: 3
f31d42: 3
f31c01: 3
150dd10: 3
f2e7c1: 3
f2f400: 3
914ec4: 3
914f40: 3
150e8c4: 3
150dec0: 3
f31c45: 3
f32d80: 3
f32b50: 3
915846: 3
f32984: 3
915283: 3
f2ee41: 3
f32b03: 3
f31d83: 3
150ddd0: 3
9131c2: 3
f2f1c0: 3
9151c2: 3
f2f386: 3
f2ec02: 3
f2f480: 3
f31cc3: 3
914e81: 3
f32d01: 3
150d744: 3
914e42: 3
f2f700: 3
f2ea82: 3
150d982: 3
f31b01: 3
f32a04: 3
915202: 3
f2e8cb: 3
150e9c2: 3
9158c1: 3
1669e0e: 3
915480: 3
150d703: 3
f2f240: 3
f2f742: 3
f32901: 3
914f00: 3
915241: 3
150d902: 3
f32d41: 3
150dac2: 3
16744c0: 3
150da83: 3
f2e901: 3
f31d02: 3
166a748: 3
f31942: 3
150de00: 3
914d01: 3
9152c6: 3
9157c2: 3
f2ebc7: 3
150d942: 3
913f2f: 3
f2e9c7: 3
150d4ab: 3
150e800: 3
915802: 3
1669f04: 3
912487: 3
914d82: 3
f2f286: 3
150de40: 3
914f82: 3
150db40: 3
f2ef43: 3
f319c8: 3
f2ee01: 3
913f86: 3
f32c83: 3
150e7c6: 3
f32944: 3
1674450: 3
150d842: 3
f2eac0: 3
f32e02: 3
150dc5a: 3
f32c50: 3
150dbd0: 3
f332c0: 3
150d9c2: 3
1669cf8: 3
f31a85: 3
f2e801: 3
9123d0: 3
166a25f: 3
913131: 3
150e942: 3
166a481: 3
f31a41: 3
f2ed80: 3
912401: 3
150e902: 3
1669245: 3
150dd40: 3
150d7c0: 3
150ea41: 3
150e744: 3
f31bc5: 3
150da02: 3
503bc5: 4
5038de: 4
8dec83: 4
8df2c2: 4
508244: 4
901b80: 4
507382: 4
f2f880: 4
4f98c2: 4
4f9b82: 4
503f84: 4
503a40: 4
4f9a02: 4
504388: 4
5074c2: 4
f2fc80: 4
508286: 4
507d80: 4
503c81: 4
1668b90: 4
4f92c4: 4
f2f9c0: 4
4f9881: 4
f3188b: 4
4f93c3: 4
f2fb83: 4
503b02: 4
4f7f4e: 4
f2fd40: 4
503e84: 4
4f9a44: 4
501285: 4
1668d45: 4
150ed01: 4
503a02: 4
506e46: 4
507b41: 4
4f9900: 4
507740: 4
f2fb04: 4
4f8882: 4
507980: 4
150ed42: 4
5043c0: 4
506f80: 4
508480: 4
506cc0: 4
4f7cc5: 4
4f9285: 4
504444: 4
f2fdc5: 4
8df282: 4
507e02: 4
507bc5: 4
503b80: 4
507a45: 4
507a02: 4
8dee80: 4
506b10: 4
4f7e45: 4
f2fa04: 4
503d43: 4
508984: 4
4f7dc1: 4
4f9201: 4
507842: 4
150eb04: 4
507803: 4
1669f78: 4
8debc2: 4
503dc2: 4
166884f: 4
507e43: 4
4f9844: 4
8deac0: 4
4f9482: 4
150ecc0: 4
901c87: 4
503f41: 4
1669f83: 4
4f99c1: 4
1668d19: 4
8dea30: 4
4f94c2: 4
5011c0: 4
506d02: 4
50124c: 4
4f88c0: 4
8dec04: 4
8df442: 4
503983: 4
8ded41: 4
f2fa84: 4
508905: 4
508941: 4
8def00: 4
507d00: 4
f2fd01: 4
506ec2: 4
5012c2: 4
5041c1: 4
508805: 4
504201: 4
150ec45: 4
150eb84: 4
f2fbc3: 4
507d42: 4
506e81: 4
4f9380: 4
166a203: 4
f2fc42: 4
f2f944: 4
4f7d80: 4
503c06: 4
f2fc07: 4
503e00: 4
508a07: 4
1668700: 4
4f9443: 4
503f01: 4
4f91de: 4
8df1c2: 4
508443: 4
507ec2: 4
f2fe85: 4
8df401: 4
4f8801: 4
4f8981: 4
4f9983: 4
8deb02: 4
508404: 4
8deb41: 4
8ded82: 4
508383: 4
4f7c46: 4
503d02: 4
4f7c80: 4
508886: 4
901d01: 4
8df101: 4
8deb81: 4
503942: 4
507102: 4
1668743: 4
507200: 4
166c3ca: 4
4f83d5: 4
5088c0: 4
901bc6: 4
8df200: 4
f2fe05: 4
f2f985: 4
8df3c2: 4
5081c0: 4
4f87da: 4
5084c0: 4
507883: 4
8decc0: 4
506f40: 4
507400: 4
501201: 4
901cc0: 4
5079c2: 4
166c390: 4
5078c0: 4
507f02: 4
150ec81: 4
4f7c00: 4
150eac0: 4
8deec2: 4
503cc2: 4
506d82: 4
4f9b40: 4
506e05: 4
507ac0: 4
507f40: 4
4f9240: 4
507c85: 4
8df480: 4
507c06: 4
5074b0: 4
503ac5: 4
507e81: 4
507f80: 4
1669d81: 4
4f9bc3: 4
150ec02: 4
507c40: 4
506dc4: 4
507b82: 4
507cc6: 4
166bd89: 4
5072e9: 4
4f9740: 4
4f9a80: 4
507243: 4
5039c7: 4
f2fb40: 4
4f97c2: 4
507286: 4
8df243: 4
150eb42: 4
f2f900: 4
8dee01: 4
506f00: 4
4f7d44: 4
4f7d04: 4
150ebc5: 4
503e46: 4
4f7f84: 4
504107: 4
f2fe44: 4
8dec41: 4
150ed81: 4
8def82: 4
504400: 4
8dedc0: 4
506b80: 4
f2f842: 4
4f9940: 4
8dee42: 4
503c42: 4
4f8979: 4
4f9700: 4
f2fd81: 4
f2f801: 4
4f9b00: 4
507441: 4
506d41: 4
503a87: 4
503900: 4
506b43: 4
8df382: 4
4f7e07: 4
508702: 4
8dea86: 4
508844: 4
4f9402: 4
1668942: 4
507a81: 4
f2fac0: 4
4f9801: 4
14b0df0: 4
f318c1: 4
506c42: 4
504240: 4
5082c1: 4
5087c7: 4
8dea41: 4
508203: 4
4f8840: 4
5089c7: 4
503ec2: 4
5071c6: 4
5077c0: 4
506bf2: 4
f2f8c2: 4
507942: 4
503d83: 4
503b42: 4
8def41: 4
8ded01: 4
5042c0: 4
507700: 4
f2fcc2: 4
f2fa41: 4
507dc0: 4
150edc2: 4
506c84: 4
901c43: 4
508743: 4
507b03: 4
507902: 4
501496: 4
901c02: 4
5073c1: 4
504282: 4
506c01: 4
4f9ac2: 4
508102: 4
5083c3: 4
8df4c0: 4
4f89c4: 4
166a1ec: 5
166ae8d: 5
166a430: 5
1668983: 5
1668eff: 5
1668f03: 5
1669c79: 5
166a442: 5
1668bc1: 6
166a38c: 6
1668c80: 6
166a2c2: 6
166a3c5: 6
16688f0: 6
1669c80: 6
166a280: 6
1668c68: 6
166ac1f: 6
166acbb: 7
1669d41: 7
166bd10: 7
166acc5: 7
1669d03: 7
166ac40: 7
BTB TOTAL     ACCESS:    8324261  HIT:    8322678  MISS:       1583  HIT %:     99.981  MISS %:  0.0190167   MPKI: 0.007915
BTB Test counter:          0
BTB BRANCH_DIRECT_JUMP	ACCESS:     290669  HIT:     290546  MISS:        123
BTB BRANCH_INDIRECT	ACCESS:         14  HIT:          6  MISS:          8
BTB BRANCH_CONDITIONAL	ACCESS:    7471641  HIT:    7470905  MISS:        736
BTB BRANCH_DIRECT_CALL	ACCESS:     280969  HIT:     280663  MISS:        306
BTB BRANCH_INDIRECT_CALL	ACCESS:          0  HIT:          0  MISS:          0
BTB BRANCH_RETURN	ACCESS:     280968  HIT:     280558  MISS:        410
BTB BRANCH_OTHER ACCESS:          0  HIT:          0  MISS:          0

L2C TOTAL     ACCESS:    3785333  HIT:    1767601  MISS:    2017732  HIT %:    46.6961  MISS %:    53.3039   MPKI: 10.0887
L2C Test counter:          0
L2C LOAD      ACCESS:     324896  HIT:     146992  MISS:     177903  HIT %:    45.2428  MISS %:    54.7572   MPKI: 0.88952
L2C DATA LOAD MPKI: 0.86553
L2C INSTRUCTION LOAD MPKI: 0.02399
L2C RFO       ACCESS:     413874  HIT:      62170  MISS:     351704  HIT %:    15.0215  MISS %:    84.9785   MPKI: 1.75852
L2C PREFETCH  ACCESS:    2149929  HIT:     666723  MISS:    1483206  HIT %:    31.0114  MISS %:    68.9886   MPKI: 7.41603
L2C DATA PREFETCH MPKI: 7.41603
L2C INSTRUCTION PREFETCH MPKI: 0
L2C WRITEBACK ACCESS:     881058  HIT:     878685  MISS:       2373  HIT %:    99.7307  MISS %:   0.269335   MPKI: 0.011865
L2C LOAD TRANSLATION ACCESS:      15573  HIT:      13030  MISS:       2543  HIT %:    83.6705  MISS %:    16.3295   MPKI: 0.012715
L2C TRANSLATION FROM L1D PREFETCHER ACCESS:          3  HIT:          1  MISS:          2  HIT %:    33.3333  MISS %:    66.6667   MPKI: 1e-05
L2C PREFETCH  REQUESTED:          0  ISSUED:          0  USEFUL:      42820  USELESS:    1438181
L2C USEFUL LOAD PREFETCHES:      42820 PREFETCH ISSUED TO LOWER LEVEL:    1483209  ACCURACY: 2.88698
L2C TIMELY PREFETCHES:      42820 LATE PREFETCHES: 0 DROPPED PREFETCHES: 0
L2C COMMIT LATE PREFETCHES: 0 MISSED OPPORTUNITY: 0 LATE IN PQ: 0 UNCOVERED: 0
L2C COMMIT LATE MSHR PREFETCHES: 0
L2C MPKI TOTAL: 0.889515 MSHR LATE: 0 PQ LATE: 0 COMMIT LATE: 0 MISSED OPPORTUNITY: 0 UNCOVERED: 0
L2C PREFETCHES SAME FILL-ORIGIN LEVEL: 0 DIFFERENT FILL-ORIGIN LEVEL: 0
L2C AVERAGE MISS LATENCY: 209.922 cycles
L2C AVERAGE MISS LATENCY LOAD: 247.561 cycles
L2C AVERAGE MISS LATENCY PREFETCH: 178.877 cycles
L2C AVERAGE MSHR OCCUPANCY: 6.2299
L2C MSHR FULL: 0
L2C RQ	ACCESS:     754351	FORWARD:          0	MERGED:          0	TO_CACHE:     754345
L2C WQ	ACCESS:     881059	FORWARD:         39	MERGED:          0	TO_CACHE:     881059
L2C PQ	ACCESS:    2149965	FORWARD:          0	MERGED:          0	TO_CACHE:    2149932

L2C Instructions Evicting Data 4792
L2C Translations Evicting Data 2540
L2C Data Evicting Data 2000702
L2C Instructions Evicting Instructions 0
L2C Translations Evicting Instructions 5
L2C Data Evicting Instructions 4795
L2C Instructions Evicting Translations 6
L2C Translations Evicting Translations 0
L2C Data Evicting Translations 2519
L2C Dense regions hint from L2: 0
529e43: 1
14fc50d: 1
1517882: 1
f35342: 1
91bac1: 1
924101: 1
a97f00: 1
f344b5: 1
51c000: 1
14fc585: 1
1513560: 1
14fc48d: 1
ac0dc0: 1
92d282: 1
14fc505: 1
1669e98: 1
15186d5: 1
529046: 1
4db87f: 1
4eb8c2: 1
91ae96: 1
14fc4c5: 1
14fc485: 1
14fc445: 1
14fc3c5: 1
917903: 1
51a642: 1
91cfeb: 1
f34090: 1
14fc8c5: 1
14fc845: 1
14fac46: 1
14fc7c5: 1
925001: 1
14fc785: 1
f37f46: 1
924fc1: 1
14fc745: 1
14fc705: 1
14fc2ee: 1
14fadea: 1
f37ec6: 1
52a003: 1
14fc6c5: 1
52aac2: 1
51b00e: 1
14fc605: 1
8ef503: 1
f352b9: 1
925941: 1
14fc5c5: 1
92671c: 1
14fbf52: 1
508b43: 1
518601: 1
91b773: 1
14fc002: 1
512100: 1
14fbfd0: 1
14fbfe5: 1
14fbfc3: 1
14fbf84: 1
f38318: 1
529505: 1
4f9808: 1
14fc041: 1
8ef640: 1
512986: 1
932981: 1
92a602: 1
14fbf06: 1
901b34: 1
1516500: 1
14f99ab: 1
4e5e06: 1
16264e0: 1
51202e: 1
f34846: 1
14fc181: 1
931043: 1
14faa9f: 1
4ded43: 1
ae9f41: 1
91ba66: 1
4db680: 1
924003: 1
14fc2c6: 1
14fc283: 1
f36129: 1
51c5e5: 1
14fc1c0: 1
1626481: 1
5284c4: 1
14fc142: 1
14fc0c4: 1
50b101: 1
51b433: 1
15173f3: 1
b761ec: 1
14fc0a2: 1
4eb1c2: 1
923345: 1
92e302: 1
14fc080: 1
f3485f: 1
14f9c00: 1
1517901: 1
1515fe6: 1
4f9682: 1
4db981: 1
f3490c: 1
4dbf04: 1
936643: 1
915900: 1
1515d82: 1
4f75c0: 1
528005: 1
511181: 1
1515484: 1
518a06: 1
f34857: 1
f34791: 1
f34780: 1
f347f8: 1
4ea601: 1
926ec5: 1
4f6843: 1
f3473f: 1
a97e00: 1
f34701: 1
919ac9: 1
4ec6e6: 1
14fa644: 1
8ef205: 1
f34a4b: 1
512a44: 1
f34a2b: 1
9233c1: 1
f349ea: 1
4ebaf0: 1
511102: 1
926140: 1
51c080: 1
511a01: 1
f349fb: 1
14fbe2c: 1
901b18: 1
8df2c6: 1
91ac02: 1
901adb: 1
50b085: 1
92e0c1: 1
1515a83: 1
922c04: 1
14fa3c8: 1
b73bf0: 1
f3429e: 1
4eb683: 1
509884: 1
f3448c: 1
528306: 1
930a6c: 1
f343f1: 1
f381f4: 1
4eca41: 1
9324c4: 1
1626681: 1
f343b8: 1
925f84: 1
f3457d: 1
14fa3f8: 1
f3424a: 1
f341c7: 1
f34100: 1
aeb757: 1
90cc5c: 1
4db6c1: 1
1516640: 1
501180: 1
16267b8: 1
5116c7: 1
52a540: 1
52a945: 1
924a82: 1
14fc246: 1
91ba82: 1
f34671: 1
1515c43: 1
92e281: 1
f34640: 1
528d80: 1
92e087: 1
92df93: 1
f34605: 1
14faa6c: 1
90cc10: 1
15156c3: 1
50b1c0: 1
f34601: 1
16264ff: 1
8df54e: 1
14fab08: 1
f345c3: 1
1626242: 1
529da4: 1
14fa1c0: 1
916c8e: 1
14fc645: 1
52a106: 1
8efe85: 1
91ad95: 1
14fa2e0: 1
529280: 1
927ac5: 1
8efe03: 1
8efd40: 1
528180: 1
1515903: 1
8efcc4: 1
14fa248: 1
8efc82: 1
930644: 1
931e05: 1
a5c184: 1
918900: 1
8efc42: 1
8efc01: 1
f34442: 1
14f98c8: 1
1515501: 1
932d80: 1
916e80: 1
9365c0: 1
52ab00: 1
928841: 1
9288c4: 1
529800: 1
8f0104: 1
506ff8: 1
919982: 1
14fc103: 1
918e00: 1
4ded06: 1
8f013a: 1
8f0075: 1
1513601: 1
1515f7f: 1
518142: 1
14f9dc1: 1
8f0040: 1
511707: 1
8eff45: 1
8efeae: 1
f383c9: 1
939684: 1
932480: 1
508de3: 1
4ea504: 1
8efebb: 1
15134d0: 1
f3442a: 1
f361d2: 1
926fc0: 1
1517934: 1
8ef945: 1
f3454d: 1
8f0301: 1
8ef881: 1
8ef860: 1
91d00c: 1
4ed503: 1
528f05: 1
927f06: 1
919fe0: 1
14f9ec5: 1
922dc0: 1
14faa01: 1
4eb142: 1
14fa9c2: 1
5282c2: 1
14fa984: 1
4eb041: 1
14fa8c1: 1
92d2c2: 1
f384c0: 1
8ef482: 1
4ecc12: 1
8efb82: 1
b76e9c: 1
b75581: 1
936541: 1
8efb43: 1
f346c8: 1
90b27d: 1
8e738f: 1
930f84: 1
f34282: 1
92a99f: 1
a5c282: 1
936b01: 1
90b383: 1
91b3c1: 1
92e105: 1
ae9f81: 1
f34555: 1
8efa82: 1
50b482: 1
8efa07: 1
a97481: 1
1517145: 1
8ef538: 1
91a7c2: 1
f34686: 1
14fad83: 1
4e5d04: 1
936744: 1
52abed: 1
528681: 1
8df340: 1
926183: 1
15138c1: 1
51c4d8: 1
91a4c2: 1
14fad43: 1
92301c: 1
14fae03: 1
919882: 1
8ef904: 1
14fac51: 1
1669eff: 1
9397c1: 1
51c881: 1
508342: 1
4ea641: 1
14fac10: 1
4f69c2: 1
4eb482: 1
f35c97: 1
50b164: 1
14fbefe: 1
8e83cd: 1
931fc2: 1
930384: 1
901ac0: 1
925fc1: 1
8ef110: 1
1518250: 1
9253c7: 1
92a4c0: 1
4eb6c4: 1
14faf44: 1
14fad02: 1
14faf03: 1
14faec2: 1
92fb40: 1
1626551: 1
936442: 1
528782: 1
529f44: 1
917001: 1
92f5cd: 1
14fae44: 1
8f0082: 1
f3859d: 1
8eae70: 1
51c874: 1
8f0384: 1
91596b: 1
14f9a07: 1
504004: 1
14f9fe0: 1
919042: 1
918c86: 1
8f0347: 1
1515ed2: 1
14f9942: 1
919005: 1
14f98e4: 1
8eae00: 1
8f02c4: 1
f34a43: 1
4eca68: 1
8f0243: 1
5120af: 1
8f01c4: 1
8df043: 1
8f0181: 1
936b40: 1
512300: 1
8f0142: 1
14fac00: 1
508b6c: 1
14facc1: 1
92f802: 1
f348a9: 1
918540: 1
4e5e41: 1
4eb400: 1
92a01d: 1
1515e40: 1
ac4585: 1
930e83: 1
14fac80: 1
1517621: 1
14fab6f: 1
51ac45: 1
14fabd6: 1
90b306: 1
14fab67: 1
9173c7: 1
92d341: 1
5290fc: 1
14fa018: 1
508cc5: 1
14fab35: 1
92f547: 1
529401: 1
92ffc0: 1
5293c2: 1
529385: 1
92f902: 1
1513795: 1
529344: 1
1515b46: 1
4ec143: 1
529301: 1
528dc0: 1
933382: 1
4ea401: 1
5292c6: 1
4ebf82: 1
4f9754: 1
5297c0: 1
511e83: 1
529691: 1
5296c0: 1
1515ec2: 1
51c540: 1
528f42: 1
528984: 1
f35ec4: 1
14fbffa: 1
52a402: 1
f346c4: 1
52a3c1: 1
916047: 1
14fa0e3: 1
52a341: 1
1515843: 1
52a2c3: 1
f34585: 1
4ea2df: 1
931f0c: 1
90b085: 1
15138b3: 1
52a0c1: 1
f34383: 1
50e85e: 1
511a82: 1
923081: 1
14fa845: 1
90afc0: 1
4eafc5: 1
529f19: 1
52946e: 1
529484: 1
924ec7: 1
4dee45: 1
529c84: 1
511ac3: 1
938856: 1
92f480: 1
529c43: 1
15170e5: 1
529c00: 1
91a0c0: 1
915f80: 1
512ac0: 1
b478c4: 1
52a386: 1
4db601: 1
529645: 1
52956c: 1
1513a0d: 1
917207: 1
f380c0: 1
508bc0: 1
529602: 1
1515e04: 1
529544: 1
923945: 1
5294d1: 1
8ef805: 1
4f7901: 1
51c0f4: 1
928006: 1
8ef7c4: 1
924a41: 1
51a9c0: 1
4f7f73: 1
528e43: 1
528e06: 1
922fc0: 1
14fab3d: 1
529dc2: 1
92a640: 1
52a442: 1
a5f807: 1
4ded82: 1
92f7c2: 1
93021e: 1
4ec9bb: 1
512483: 1
92d131: 1
927481: 1
4ea841: 1
b73c42: 1
928d9a: 1
529d01: 1
a98640: 1
51abc4: 1
51b3c1: 1
4f6782: 1
15139c9: 1
51ab9b: 1
92fa40: 1
1515f55: 1
923301: 1
51a9be: 1
918b87: 1
51a7c8: 1
51a7c0: 1
51ac06: 1
f38515: 1
918985: 1
924841: 1
52ad42: 1
52ad03: 1
a97683: 1
52ac42: 1
4f6fc7: 1
923f02: 1
52ac01: 1
1517403: 1
52ab84: 1
9185a0: 1
9308c1: 1
b493c4: 1
51c140: 1
ac0d45: 1
51c105: 1
ae9df0: 1
51c045: 1
51134c: 1
51bf8a: 1
f35d5a: 1
51bf3d: 1
1515c48: 1
8ef9c0: 1
4f85a5: 1
15d8100: 1
91b001: 1
919205: 1
51b586: 1
f35807: 1
92a158: 1
51b383: 1
9303c1: 1
51aff1: 1
4f6e84: 1
928b04: 1
1515702: 1
52a7c5: 1
923441: 1
16266c4: 1
52a742: 1
528701: 1
4ed543: 1
90b444: 1
52a701: 1
916a81: 1
52a5cd: 1
f3488f: 1
8ef840: 1
927882: 1
f346f9: 1
f35382: 1
924b40: 1
92a780: 1
52a680: 1
f34942: 1
14faa9c: 1
509216: 1
9171c7: 1
4ebb05: 1
925682: 1
4f6ac2: 1
52a8c2: 1
52a670: 1
517e40: 1
52ab40: 1
52aa42: 1
14fbee9: 1
52a9c0: 1
92f4c1: 1
923385: 1
92e342: 1
f34c82: 1
4f6d45: 1
52a900: 1
f382e4: 1
4de981: 1
ac0ec1: 1
92f3c1: 1
a5c141: 1
9391c0: 1
91b8c0: 1
9395c1: 1
4ebc8a: 1
52a881: 1
52a800: 1
916b80: 1
523905: 1
50b076: 1
508adb: 1
528043: 1
92fe71: 1
1626541: 1
927107: 1
528b43: 1
52a599: 1
51a9a1: 1
527ffe: 1
930dc0: 1
525757: 1
9280c3: 1
523880: 1
f36101: 1
523844: 1
14f9ac4: 1
b679b0: 1
5237bf: 1
928cef: 1
14f9a46: 1
5237c5: 1
523782: 1
926281: 1
924966: 1
511581: 1
a5f883: 1
528282: 1
4f7406: 1
14f9b82: 1
939482: 1
4ec880: 1
528242: 1
f346d3: 1
4eb002: 1
5281c0: 1
ac0d81: 1
528141: 1
5094bc: 1
528106: 1
5280c6: 1
932147: 1
51a5c2: 1
92f600: 1
f352c6: 1
927787: 1
528080: 1
511840: 1
92e005: 1
916c82: 1
1517104: 1
a97540: 1
14fabde: 1
51c701: 1
51a503: 1
51a4c1: 1
9268c2: 1
f34291: 1
51a480: 1
4de2c2: 1
b6a722: 1
924501: 1
f34d82: 1
923741: 1
1626703: 1
f34d02: 1
936500: 1
52a986: 1
f34cc2: 1
51c2c7: 1
528641: 1
f34c42: 1
92feb0: 1
dea6c1: 1
8df001: 1
f34a53: 1
938642: 1
929d11: 1
508cf6: 1
14fc10b: 1
523728: 1
[...]
91a350: 1
91a386: 1
916b43: 1
14fa2e0: 1
917001: 1
916a40: 1
529280: 1
926183: 1
15138c1: 1
916aae: 1
916aa5: 1
51c4d8: 1
916b02: 1
916a01: 1
91a4c2: 1
916b10: 1
916c41: 1
916cc0: 1
92301c: 1
f34686: 1
92e087: 1
916d01: 1
916d42: 1
916842: 1
916766: 1
b76e9c: 1
f35f92: 1
f35f9a: 1
f36085: 1
b75581: 1
f360b6: 1
9167b6: 1
916800: 1
90b05e: 1
4ebd45: 1
9167cd: 1
92e242: 1
8ef60a: 1
916880: 1
9168c2: 1
916901: 1
916941: 1
91ad95: 1
926241: 1
925f01: 1
926003: 1
14f9a85: 1
926080: 1
1517dc6: 1
518880: 1
919205: 1
9260c2: 1
15170e5: 1
926202: 1
925ec4: 1
926301: 1
926341: 1
8f00c3: 1
926383: 1
9263c3: 1
9264c1: 1
926582: 1
9265c2: 1
926600: 1
925c40: 1
925a04: 1
925a41: 1
92a241: 1
925ac5: 1
930601: 1
928681: 1
925b84: 1
aeabc6: 1
925c01: 1
926640: 1
925c82: 1
5295bd: 1
925d06: 1
925d85: 1
925dc4: 1
925e40: 1
925e82: 1
b76243: 1
9396c4: 1
927083: 1
916047: 1
14fa0e3: 1
916c00: 1
16267c1: 1
92f547: 1
926e83: 1
926f00: 1
926f41: 1
924ec7: 1
927006: 1
926e45: 1
4ea401: 1
9270c0: 1
927142: 1
9271c2: 1
927201: 1
92ffc0: 1
927246: 1
927280: 1
927300: 1
926a40: 1
1515843: 1
926740: 1
926784: 1
4ea2df: 1
926801: 1
931f0c: 1
926841: 1
926881: 1
926982: 1
9259c4: 1
926b42: 1
926b82: 1
926c01: 1
926c42: 1
926c81: 1
92a143: 1
926d40: 1
926d81: 1
926dc1: 1
4ec645: 1
924980: 1
9249c2: 1
924a00: 1
924ac2: 1
924b01: 1
4ebe42: 1
924b40: 1
924b81: 1
929616: 1
924c02: 1
924941: 1
924c83: 1
924cc2: 1
91bc41: 1
511bc0: 1
931f40: 1
924d07: 1
924dc2: 1
924e04: 1
924e40: 1
922c04: 1
924482: 1
924547: 1
5237f4: 1
92453f: 1
924537: 1
916344: 1
1515a83: 1
9245c6: 1
92e0c1: 1
924f40: 1
924642: 1
14fa3c8: 1
924681: 1
919702: 1
9247c5: 1
924801: 1
9248c4: 1
924902: 1
511181: 1
a97540: 1
f3539e: 1
925582: 1
9255c1: 1
931f04: 1
925601: 1
936500: 1
923741: 1
925701: 1
925740: 1
925546: 1
928945: 1
925781: 1
52a986: 1
9257c1: 1
507425: 1
92571b: 1
9398c3: 1
925906: 1
91a687: 1
925280: 1
924f80: 1
925040: 1
925080: 1
925100: 1
925142: 1
925180: 1
1515c48: 1
14f9918: 1
925200: 1
926d04: 1
9252c2: 1
925302: 1
f361c0: 1
8ef5c0: 1
925345: 1
8e9e01: 1
925383: 1
925441: 1
925502: 1
51c540: 1
529743: 1
92a780: 1
9287c0: 1
928841: 1
928880: 1
512300: 1
928903: 1
9289c4: 1
928a01: 1
928783: 1
928a43: 1
928a84: 1
528984: 1
8ef7c4: 1
924a41: 1
928b44: 1
928b81: 1
928bc1: 1
51a9c0: 1
928380: 1
927f8c: 1
928040: 1
928104: 1
928180: 1
4ebf82: 1
4f6f00: 1
928240: 1
928302: 1
928342: 1
931d44: 1
928403: 1
928442: 1
9284c0: 1
928491: 1
928503: 1
928540: 1
928607: 1
928641: 1
9286c7: 1
929f08: 1
929d47: 1
929d80: 1
939700: 1
929dc3: 1
4ed583: 1
929e02: 1
929e41: 1
929e85: 1
929ec0: 1
929d01: 1
511ac3: 1
f3824c: 1
929f82: 1
929fc2: 1
4ea801: 1
9171c7: 1
92a047: 1
92a080: 1
92a103: 1
512483: 1
928c03: 1
9308c1: 1
928c41: 1
928cc2: 1
928d00: 1
928d41: 1
932244: 1
931f80: 1
928d82: 1
928704: 1
9288da: 1
9288e6: 1
939440: 1
929cad: 1
4ea841: 1
b73c42: 1
929cc7: 1
4db601: 1
9321c1: 1
92fe71: 1
8f0082: 1
927740: 1
927787: 1
9277c3: 1
927945: 1
9279c5: 1
528dc0: 1
927a06: 1
927700: 1
1626541: 1
f35e3a: 1
927a43: 1
4f6204: 1
927a80: 1
528b43: 1
927ac5: 1
927fa0: 1
9276c0: 1
927641: 1
927600: 1
9275c0: 1
927584: 1
1513795: 1
927544: 1
927506: 1
9274c2: 1
92f902: 1
927445: 1
927402: 1
9273c1: 1
92a576: 1
927340: 1
927fd4: 1
927d41: 1
927d80: 1
927cc0: 1
507040: 1
927e01: 1
927c40: 1
927e43: 1
927e80: 1
927ec3: 1
90b81c: 1
927fc0: 1
927c02: 1
927b46: 1
51a9a1: 1
927bc2: 1
4db644: 2
4de9e8: 2
8e9e80: 2
919440: 2
8eb396: 2
90b597: 2
f35981: 2
8e8841: 2
9275b4: 2
8e8641: 2
92bee7: 2
928930: 2
1669deb: 2
8e6500: 2
8ea1f6: 2
8ea202: 2
1510250: 2
918bbc: 2
8eacc0: 2
8ead02: 2
8eae9c: 2
8e8703: 2
9193c6: 2
9167c3: 2
50b044: 2
8e9d82: 2
4ebf5b: 2
5122c1: 2
8e9e43: 2
91b741: 2
8e7e98: 2
50b350: 2
91b784: 2
918eaa: 2
8e64c7: 2
f360c1: 2
924da8: 2
9246b4: 2
8e9d03: 2
931440: 2
8e7384: 2
924141: 2
928f40: 2
50b205: 2
90b5c5: 2
f35bc5: 2
92673b: 2
8e8602: 2
9256f0: 2
166a35c: 2
8e85c2: 2
9234de: 2
1516b4f: 2
923851: 2
509e55: 2
923806: 2
14fab00: 2
9157e0: 2
14fab45: 2
92672f: 2
918dcb: 2
92382e: 2
917d82: 2
8e72c0: 2
4db940: 2
4f6c6f: 2
dead81: 2
919ac1: 2
917306: 2
917104: 2
50b183: 2
92572d: 2
91a89c: 2
4ec118: 2
deb0d2: 2
1515f01: 2
923c0d: 2
529ec7: 2
1669c05: 2
50b03e: 2
14fa096: 2
15163da: 2
91bb8f: 2
923c34: 2
14fb281: 2
4dd6f5: 2
918962: 2
1669ed0: 2
91896f: 2
51c49f: 2
916ac2: 2
f35744: 2
14fbe80: 2
f35d0a: 2
14fb270: 2
91858e: 2
927590: 2
926941: 2
52a783: 2
1515fc4: 2
1513985: 2
8e83c2: 2
4ec3e7: 2
14f99c0: 2
8e87c3: 2
930986: 2
14f9f90: 2
8ead81: 2
1674484: 2
14fbdc0: 2
1515297: 2
dea5b0: 2
918deb: 2
14f9981: 2
8ead40: 2
14fa147: 2
50b2cf: 2
8e7656: 2
8eaf02: 2
8e8348: 2
8e9f03: 2
deb100: 2
14fab99: 2
166a09f: 2
166bd42: 2
91a0b6: 2
1669bc0: 2
14f9900: 2
1668901: 2
928481: 2
8e94f6: 2
91bb80: 2
8e9cc2: 2
8e8800: 2
1511a76: 2
1515f87: 2
8e8541: 2
8e73c2: 2
931086: 2
15168db: 2
dea5c2: 2
8eaf42: 2
9368c5: 2
9324ee: 2
8e86c0: 2
8e63c2: 2
8e7341: 2
1513a05: 2
8e84c0: 2
8e8401: 2
deb437: 2
14fa400: 2
1513899: 2
8e7242: 2
92a585: 2
8e7485: 2
8e7540: 2
8e71cb: 2
8e8682: 2
8e8582: 2
8e9f43: 2
4ebce8: 2
8eac84: 2
51c72b: 2
151394b: 2
91b440: 2
14faa94: 2
916e14: 2
14fa340: 2
509872: 2
8e9240: 2
8e9282: 2
8e8761: 2
8e9c00: 2
4dec3f: 2
15134c8: 2
8e8500: 2
8e75c2: 2
8e7201: 2
8e8380: 2
8e9c80: 2
92f781: 2
8ea740: 2
8e738c: 2
8e9d41: 2
8eadc1: 2
1674400: 2
8e9864: 2
91b202: 2
8e74c2: 2
16267b0: 2
1516da5: 2
8e7442: 2
14fadda: 2
f38601: 2
8e9502: 2
8e9202: 2
8e7405: 2
14fa0d3: 2
8e6340: 2
8e7284: 2
8e6382: 2
14faa42: 2
8e7501: 2
14fa280: 2
8e6d00: 2
8e6402: 2
508890: 2
8e6440: 2
deb441: 2
8e6484: 2
8e6823: 2
8e7602: 2
14f9f50: 2
508209: 2
8e7582: 2
8e8483: 2
8e9bc4: 2
8e8882: 2
8e9c42: 2
8e8442: 2
8e91c0: 2
91a0ca: 2
1515d42: 2
8eaec0: 2
91608f: 2
14fa010: 2
914f40: 3
f2f2c0: 3
150dc38: 3
f332c0: 3
f2f3c0: 3
150de00: 3
f33133: 3
f31997: 3
f2ed80: 3
914d40: 3
150e800: 3
150dc6a: 3
91576c: 3
f32901: 3
150ea01: 3
f2f286: 3
f2edc2: 3
50b354: 3
914dc4: 3
150dc10: 3
1669e40: 3
150e702: 3
914e81: 3
f2ecc2: 3
506cd3: 3
914e42: 3
506d55: 3
f31d42: 3
915701: 3
150d79d: 3
150d882: 3
914f82: 3
f31d83: 3
915886: 3
91520d: 3
f2e8cb: 3
f31b01: 3
914ec4: 3
914e00: 3
9151c2: 3
150db29: 3
4f928c: 3
150db68: 3
f2e884: 3
150dbd0: 3
f32e58: 3
150dba8: 3
f32e38: 3
150dcb8: 3
f32a04: 3
915283: 3
150dd10: 3
913f40: 3
166a4c0: 3
91252d: 3
915400: 3
f2f440: 3
f2f524: 3
914d01: 3
f32a84: 3
150dc90: 3
f32b61: 3
f2ebc7: 3
f328d0: 3
915100: 3
51c7a0: 3
150d684: 3
150d922: 3
915741: 3
1669ca5: 3
92e1ac: 3
f2e801: 3
529710: 3
150da02: 3
1674450: 3
1669e2f: 3
f2f104: 3
923c19: 3
150ded7: 3
150d902: 3
1669eb3: 3
150e6c5: 3
f2eb05: 3
f32d01: 3
150d8c2: 3
150ddb0: 3
1669ea0: 3
150d703: 3
f2e901: 3
f32cb9: 3
9158c1: 3
5011cd: 3
50742d: 3
914f00: 3
150dbe0: 3
4f7f56: 3
f32b03: 3
9157c2: 3
150dc80: 3
f31a05: 3
f2eb40: 3
150db48: 3
9154c2: 3
932e06: 3
f31901: 3
f2e707: 3
150dbb0: 3
f2ed42: 3
f2f7c6: 3
150de38: 3
913202: 3
150e847: 3
9246bf: 3
f32b0b: 3
915710: 3
f32b58: 3
9131c2: 3
928c8c: 3
92874b: 3
f32944: 3
f2ea43: 3
4f89c7: 3
9153c1: 3
150da83: 3
150e880: 3
150dac2: 3
9266c5: 3
f32ca1: 3
9124c3: 3
150e6dd: 3
f2e746: 3
f2eb81: 3
150e942: 3
150dd20: 3
913f86: 3
150e9c2: 3
150e80b: 3
92383c: 3
f2e7c1: 3
f31993: 3
f2e8d3: 3
f2f240: 3
150d534: 3
f31981: 3
f32c66: 3
92469b: 3
150e81c: 3
f32cc1: 3
928983: 3
f2ef02: 3
f31a41: 3
f32da7: 3
9234cb: 3
913131: 3
f2e945: 3
f2e691: 3
1669cf8: 3
150d753: 3
f32dc1: 3
150dd50: 3
150e6e5: 3
f32e02: 3
16744c0: 3
9123d0: 3
f2f742: 3
150de90: 3
f2f700: 3
915480: 3
150d842: 3
166a481: 3
f2ea82: 3
915202: 3
150dcf0: 3
150ea41: 3
f2ee83: 3
f2ef81: 3
1669f04: 3
91537f: 3
f33128: 3
f2f386: 3
f31bc5: 3
f2f4c2: 3
f31aea: 3
150ddd0: 3
f31d02: 3
f329c4: 3
f2f1c0: 3
150e7cd: 3
9266fd: 3
915241: 3
150db60: 3
150e855: 3
f2e6c5: 3
914d82: 3
150d982: 3
150e982: 3
f32984: 3
1669dc1: 3
150dec0: 3
f32e40: 3
f2ee01: 3
150e6cd: 3
1669c93: 3
f2e845: 3
150d804: 3
912487: 3
f2f400: 3
dea608: 3
f32c93: 3
f32a43: 3
f319c8: 3
150d7c0: 3
150da42: 3
f2f1b1: 3
915341: 3
912401: 3
f31a1c: 3
f32b68: 3
f31b41: 3
1668830: 3
150de30: 3
f2ea01: 3
150d744: 3
f31c45: 3
150db88: 3
f31942: 3
f32ac5: 3
930105: 3
150e833: 3
150e7a1: 3
150ea46: 3
5073e8: 3
150dea0: 3
f2e9c7: 3
f31a85: 3
f3329b: 3
f2e77c: 3
150da54: 3
f332b6: 3
1668880: 3
f2ec02: 3
166a748: 3
150e902: 3
923c75: 3
918580: 3
166a25f: 3
f2ec41: 3
150df05: 3
518e40: 3
915384: 3
f31c83: 3
f31c01: 3
9152c6: 3
f2eec4: 3
f2eac0: 3
90b5e3: 3
150e8c4: 3
f2ed06: 3
1669caa: 3
f31b84: 3
150de10: 3
dea679: 3
150d9c2: 3
f2ef43: 3
f2ee41: 3
150dd40: 3
915846: 3
f2ec82: 3
912440: 3
150e744: 3
f2e985: 3
150de70: 3
9189d0: 3
f2f206: 3
150dde0: 3
f31dc1: 3
150dcc0: 3
913f2f: 3
52a5f5: 3
f31cc3: 3
4f70ad: 4
8df243: 4
f3188b: 4
8df442: 4
507e02: 4
508244: 4
503d02: 4
4f7e69: 4
150ebc5: 4
f2fdc5: 4
503d83: 4
5043c0: 4
518796: 4
503ec2: 4
4f9bc3: 4
4f81b3: 4
51214a: 4
8ded41: 4
150ec02: 4
503e00: 4
150eb55: 4
150ebbe: 4
5011c0: 4
503e46: 4
f2f6ec: 4
150eb49: 4
507a45: 4
4f92c4: 4
503983: 4
5089c7: 4
166c3ca: 4
508702: 4
507902: 4
501496: 4
4ec9b0: 4
f2fe44: 4
507cc6: 4
150eaa6: 4
503900: 4
150eae2: 4
507ac0: 4
8df2c2: 4
507c85: 4
507b82: 4
8deb3f: 4
4f9240: 4
f318cc: 4
8ded82: 4
4f7e45: 4
503b02: 4
506f80: 4
4f89c4: 4
507bc5: 4
506e05: 4
4f83d5: 4
f2fcc2: 4
90b531: 4
8dec04: 4
507a81: 4
512270: 4
507286: 4
507d80: 4
4f9a80: 4
4f9b40: 4
506c01: 4
507200: 4
150eb84: 4
503d43: 4
507e43: 4
8decc0: 4
150ea90: 4
5070cf: 4
506ec2: 4
50124c: 4
507883: 4
8dea41: 4
508102: 4
506f40: 4
901c43: 4
150ed01: 4
506bf2: 4
8dec83: 4
4f9402: 4
9234ba: 4
8df282: 4
508480: 4
507980: 4
150eaae: 4
8df101: 4
4f7c80: 4
f2fd01: 4
901d01: 4
507f40: 4
507942: 4
166a203: 4
504282: 4
506e46: 4
50b04a: 4
8deb66: 4
1668d45: 4
501285: 4
8dee42: 4
150eb26: 4
1668942: 4
507441: 4
508905: 4
501201: 4
f2fb83: 4
8def82: 4
507243: 4
8debc2: 4
8dedc0: 4
4f9201: 4
504107: 4
507102: 4
4f9285: 4
8dee01: 4
f2fa04: 4
503f41: 4
150eafc: 4
508984: 4
8deb41: 4
503942: 4
1668d4d: 4
150ec1e: 4
5077ff: 4
f2f842: 4
4f6c7c: 4
507a02: 4
503b42: 4
150ed42: 4
f2fe05: 4
f2f801: 4
f2fb40: 4
8deb81: 4
5077c0: 4
4f87da: 4
150eb7d: 4
166a28b: 4
90b5fd: 4
4f97f5: 4
8df480: 4
4f7c46: 4
f2fd40: 4
8ded01: 4
507382: 4
91a0a6: 4
507c40: 4
f2f944: 4
150ec3d: 4
901bc6: 4
4f7fde: 4
f2fc3e: 4
507400: 4
507c06: 4
503c81: 4
503c42: 4
4f9b82: 4
1668700: 4
8df401: 4
508886: 4
507842: 4
150ec81: 4
503b80: 4
5038de: 4
166a276: 4
503cc2: 4
5012c2: 4
8deac0: 4
918db6: 4
9191c4: 4
f2f754: 4
91922e: 4
8df200: 4
504388: 4
92a57c: 4
506dc4: 4
5078c0: 4
f2fc07: 4
503f01: 4
f2fbc3: 4
f2fc42: 4
506d82: 4
504240: 4
503f84: 4
150eb9a: 4
901b80: 4
8df382: 4
507dc0: 4
1668d19: 4
92875a: 4
928caf: 4
4ec3e0: 4
5042c0: 4
150ed81: 4
506cc0: 4
150edb1: 4
8df3c2: 4
506e81: 4
f2fd81: 4
507d42: 4
4f97bc: 4
4f9443: 4
5039c7: 4
150eb34: 4
929f6d: 4
4f9801: 4
508a07: 4
4f7dc1: 4
4f7c00: 4
150ec45: 4
4f9881: 4
4f9900: 4
4f8981: 4
901cc0: 4
507ec2: 4
f2fe85: 4
4f9983: 4
4f9740: 4
92384b: 4
4f7d80: 4
8deec2: 4
f2fac0: 4
4f886e: 4
8dea30: 4
4f88c0: 4
5041c1: 4
8dea86: 4
507f80: 4
f2f8c2: 4
507f02: 4
4f9a02: 4
9324f7: 4
507803: 4
f2f900: 4
4f9923: 4
8deb02: 4
4f88c8: 4
4f91de: 4
4f9380: 4
923c8f: 4
504400: 4
50b026: 4
901c02: 4
507700: 4
4f9ac2: 4
5074c2: 4
5071c6: 4
506c84: 4
8def00: 4
4f9940: 4
508443: 4
529560: 4
f2fa41: 4
150eb42: 4
4f7e2b: 4
4f7cc5: 4
4f7f7b: 4
150edd3: 4
5079c2: 4
f2f985: 4
4f9482: 4
924660: 4
4f9700: 4
92381b: 4
4f9916: 4
4f9935: 4
503ac5: 4
923800: 4
1668b90: 4
8dec41: 4
1669d81: 4
8dee80: 4
166bd89: 4
507e81: 4
1669f78: 4
1669f83: 4
503a02: 4
8def41: 4
51215d: 4
4f9b00: 4
506b43: 4
4f8979: 4
1668907: 4
1668743: 4
503c06: 4
508383: 4
4f94c2: 4
5082c1: 4
506b10: 4
5081c0: 4
924d85: 4
8deb1c: 4
503dc2: 4
5083c3: 4
508404: 4
506c42: 4
f2f9fd: 4
507d00: 4
5084c0: 4
506d41: 4
4f8840: 4
f2fb04: 4
f2f9c0: 4
504444: 4
508286: 4
150ecc0: 4
dea61f: 4
5088c0: 4
507b41: 4
8df1c2: 4
503e84: 4
503a40: 4
506d02: 4
f318c1: 4
f2f880: 4
508203: 4
506b80: 4
150eac8: 4
507740: 4
4f99c1: 4
4f7d44: 4
504201: 4
f2fa84: 4
4f8801: 4
508743: 4
508941: 4
150ebb7: 4
5072e9: 4
5087c7: 4
506f00: 4
503a87: 4
5074b0: 4
9275a6: 4
4f7f84: 4
4f9844: 4
4f8882: 4
507b03: 4
4f9a44: 4
4f9930: 4
929f0e: 4
508805: 4
4f98c2: 4
508844: 4
503bc5: 4
92a54f: 5
1668983: 5
9234be: 5
5293a0: 5
92893f: 5
1668eff: 5
9288f2: 5
512140: 5
5290f0: 5
4f7d04: 5
166bd59: 5
5073c1: 5
166bd44: 5
92877f: 5
166a1ec: 5
92890c: 5
928967: 5
50b237: 5
92570f: 5
166a442: 5
166ae8d: 5
4ecd32: 5
918a65: 5
919248: 5
9246ee: 5
1669c79: 5
51c688: 5
166a269: 5
9266c0: 5
1668f03: 5
4f97c8: 5
166a430: 5
512500: 5
4ebcfb: 5
8e63f5: 5
5123f9: 5
150e7c6: 6
8e8720: 6
508258: 6
9192b7: 6
1668935: 6
9234ab: 6
150db40: 6
928ba1: 6
1669dd8: 6
90b5ab: 6
91a8a1: 6
933062: 6
150d4ab: 6
f32d80: 6
150dc5a: 6
916baa: 6
936b64: 6
4f70a4: 6
9286bb: 6
512158: 6
932502: 6
166a3c5: 6
90b5c0: 6
150db80: 6
f32c83: 6
150d942: 6
916025: 6
166ac1f: 6
4deb65: 6
92870a: 6
4ebf50: 6
150dd80: 6
150edc2: 6
16688f0: 6
166a2c2: 6
1669c80: 6
916f73: 6
1669e1b: 6
52957f: 6
150dc00: 6
1668bc1: 6
92878c: 6
916f95: 6
1668c80: 6
f32d41: 6
9286dd: 6
4deb8a: 6
916b8c: 6
f32c50: 6
f32b50: 6
9246a7: 6
150d4c0: 6
4de9d7: 6
150de40: 6
f2f480: 6
1668c68: 6
1669ef6: 6
518970: 6
4ebf77: 7
4f9a90: 7
4f7a56: 7
936b6c: 7
529103: 7
4f7e07: 7
4ebce0: 7
92d0d5: 7
4f93c3: 7
933085: 7
92f913: 7
529108: 7
506f60: 7
901c87: 7
92a5dd: 7
91607a: 7
1669d41: 7
90b524: 7
90cdfe: 7
91a795: 7
91bb8a: 7
923484: 7
506d50: 7
91a801: 7
932eeb: 7
529cd0: 7
918da0: 7
166acbb: 7
1669d03: 7
166acc5: 7
1668bb0: 7
92378a: 7
166bd10: 7
918ddb: 7
90cdf5: 7
916bb6: 7
918eaf: 7
166ac40: 7
916126: 7
92e2da: 8
1669bfe: 8
4f9a10: 8
916f40: 8
1669cb4: 8
1668861: 8
91a7bb: 8
90cdf9: 8
150eb04: 8
9246d2: 8
1669cd1: 8
14b0df0: 8
4dec60: 8
9246ce: 8
4f7f4e: 8
91a7a1: 8
9192a9: 8
91b6b0: 8
150eac0: 8
91bb04: 8
529585: 8
92a2a3: 8
50b359: 8
1669e0e: 8
929f19: 8
91b454: 9
9234f0: 9
91b45e: 9
f2f48f: 9
4ed3f8: 9
918da4: 9
4ebf7d: 9
92a284: 9
1669e8f: 9
928728: 9
91b385: 10
91541b: 10
915443: 10
166a280: 10
929edf: 10
90b5f5: 10
91bb14: 10
156b7fa: 10
512880: 10
4ebd00: 11
936660: 11
91540f: 11
92e210: 11
932f52: 11
4ed360: 11
92a23c: 11
932165: 12
92a90f: 12
932160: 12
91b3a6: 12
93660c: 12
4f97c2: 12
92e220: 12
918e8e: 13
915338: 13
166bd19: 13
9368cd: 13
92a8ef: 13
92fa38: 13
929f4c: 13
91542b: 13
8ded39: 13
512295: 13
90b583: 14
15d7fd0: 14
932180: 14
52ac26: 14
166890f: 14
166bd30: 14
936bc0: 14
166a38c: 14
936920: 14
90cdf0: 15
1668898: 15
915488: 15
4eb9bb: 15
924701: 15
51228f: 15
92d040: 15
1668b99: 15
166888a: 15
1669245: 15
91a0a0: 15
92e22d: 15
166874b: 15
91b397: 15
4f97b6: 15
92f8fd: 16
8defb0: 16
92f90e: 16
9160d3: 16
9246e3: 16
156b807: 16
918e08: 16
923499: 16
918585: 16
92d04d: 17
4f6c4b: 17
166c3a9: 17
92a8a4: 17
9153f9: 18
915322: 18
923c2f: 18
915465: 18
91531d: 18
930100: 18
166884f: 19
166886d: 19
166c390: 20
915459: 20
4f9990: 20
926709: 20
923501: 20
8e9e10: 20
f2f520: 20
5083f0: 21
9286ff: 21
16688fb: 21
9234f5: 21
5078c8: 21
9154da: 22
15d6540: 22
91a7f0: 23
507092: 23
928718: 24
926721: 24
923506: 25
92f8f0: 25
923464: 26
9153ed: 27
92e2d0: 28
15d7f89: 28
90b59e: 28
9313f4: 29
923543: 30
8e88c0: 30
507830: 33
508896: 34
507097: 34
930754: 35
506cda: 35
528e7c: 35
9306db: 36
f2fa24: 37
512918: 37
915783: 38
930d69: 38
9191f2: 39
915802: 39
923c8b: 40
8e8510: 41
f2fa2d: 43
923558: 44
91a846: 45
506cdd: 45
91bb00: 50
92352f: 51
92353e: 51
92352a: 55
916ba2: 57
4de9c5: 60
918e48: 62
9185a6: 64
91a0c4: 65
930dc4: 66
51c650: 66
92351b: 67
50b200: 67
918e65: 68
92a610: 69
15d6534: 71
919266: 72
8e9ec0: 72
918593: 75
916b70: 78
91a0b0: 79
91b380: 80
51c487: 83
919221: 89
f2f486: 89
92a606: 90
f2fa3d: 90
8df4e1: 91
928746: 93
916b86: 93
90b571: 97
51c480: 101
916e97: 105
90b5de: 108
91a86f: 109
511fac: 110
92869d: 112
92f80b: 112
4eb9e3: 120
91a4a6: 123
92877a: 127
528e50: 129
9189d5: 130
918dbe: 132
5073ad: 133
506cd0: 134
506ef0: 136
518790: 138
923860: 141
90b50d: 141
52a5c0: 143
507080: 149
507210: 150
91a81d: 152
91923b: 154
923815: 154
932f11: 158
9286f0: 163
92f808: 169
91a7cf: 170
918ec8: 171
92f9e1: 175
50b020: 177
932f47: 184
4de9c0: 187
91606d: 202
931399: 207
92a5b6: 208
4f6c40: 210
918ec4: 219
930095: 220
f2fd10: 222
9160fb: 224
529cd8: 228
8e9cd0: 241
4ecd37: 251
91a8bb: 251
92348c: 254
4f9962: 262
92a5e3: 264
92d045: 265
91b600: 270
916113: 271
93009e: 275
92f9dd: 280
91bb0c: 283
916e7b: 285
916e60: 310
512886: 320
929f74: 331
936b60: 342
916e92: 343
929f46: 351
930090: 358
91b392: 363
92d056: 364
936600: 370
4eb9b0: 372
92f7fc: 375
92a5cc: 379
915470: 383
9368c0: 384
511f80: 384
91549d: 407
91b39e: 408
91a853: 409
92a5b0: 410
4ed368: 420
f2f6e0: 420
930099: 446
929f40: 454
92f7f0: 482
92e228: 493
929f5c: 516
918dfb: 519
f2f496: 548
91a841: 561
508230: 573
507838: 579
92e21b: 633
91a8b6: 644
91a869: 670
9306c0: 840
4f97b0: 988
930d63: 1155
8e74e0: 1314
931393: 1408
918e81: 1434
f2fc80: 1799
923515: 2372
918e3b: 2444
91a84e: 2602
8df4c0: 2606
528e82: 2678
923552: 3032
918e58: 3074
507390: 3940
8df23e: 5349
4eb9e8: 6633
511fb2: 6736
8e7620: 11257
5073b3: 17198
8e7320: 34611

RAW hits: 251988
Loads Generated: 61049229
Loads sent to L1D: 60797246
Stores Generated: 8497471
Stores sent to L1D: 8497479
Major fault: 0 Minor fault: 8737
Allocated PAGES: 8737
Total Load insts: 76991390
Total Non-spec loads: 6405637
Percentage of speculative loads: 91.6801
L1D response latency: 150.004 cycles
Load retirement latency: 267.99 cycles


stream: 
stream:times selected: 6753575
stream:pref_filled: 2691283
stream:pref_useful: 2299011
stream:pref_late: 53421
stream:misses: 25587
stream:misses_by_poll: 0

CS: 
CS:times selected: 6214299
CS:pref_filled: 241877
CS:pref_useful: 201988
CS:pref_late: 1795
CS:misses: 506687
CS:misses_by_poll: 2091

CPLX: 
CPLX:times selected: 539047
CPLX:pref_filled: 76364
CPLX:pref_useful: 60625
CPLX:pref_late: 974
CPLX:misses: 84680
CPLX:misses_by_poll: 206

NL_L1: 
NL:times selected: 823
NL:pref_filled: 344
NL:pref_useful: 46
NL:pref_late: 9
NL:misses: 466
NL:misses_by_poll: 0

total selections: 13507744
total_filled: 2092041
total_useful: 1840960
total_late: 57547
total_polluted: 2297
total_misses_after_warmup: 556857
conflicts: 32743
Degree Incremented Times: 538895
Degree Decremented Times: 1279

L1 IP Table Write Accesses: 41387759
L1 IP Table Read Accesses: 41355016
L1 RST Write Accesses: 4981376
L1 RST Read Accesses: 9962752
L1 CSPT Write Accesses: 4981376
L1 CSPT Read Accesses: 6141896
L1 RR Filter Tag Write Accesses: 13208799
L1 RR Filter Tag Read Accesses: 1038908441
L1 IP Table Tag Write Accesses: 41437669
L1 IP Table Tag Read Accesses: 41437669
L1 RST Tag Write Accesses: 0
L1 RST Tag Read Accesses: 44943055
L1 RR Filter Write Accesses: 0
L1 RR Filter Read Accesses: 42141403
test: 342509

DRAM Statistics
 CHANNEL 0
 RQ ROW_BUFFER_HIT:     463235  ROW_BUFFER_MISS:    1093097
 DBUS_CONGESTED:       1055
 WQ ROW_BUFFER_HIT:     167846  ROW_BUFFER_MISS:     412618  FULL:          0

 AVG_CONGESTED_CYCLE: 4
 All warmup complete: 2
Channel 0 Bank busy for read cycles: 0
Channel 0 Bank busy for write cycles: 0
Channel 0
Rank 0
0banks busy for read cycles: 127868803
0banks busy for write cycles: 80989
1banks busy for read cycles: 33948685
1banks busy for write cycles: 9761398
2banks busy for read cycles: 14816471
2banks busy for write cycles: 3539358
3banks busy for read cycles: 7710132
3banks busy for write cycles: 1322077
4banks busy for read cycles: 4341694
4banks busy for write cycles: 799791
5banks busy for read cycles: 2864033
5banks busy for write cycles: 594752
6banks busy for read cycles: 2733199
6banks busy for write cycles: 539439
7banks busy for read cycles: 3485530
7banks busy for write cycles: 1140874
8banks busy for read cycles: 3949390
8banks busy for write cycles: 7396297

CPU 0 Branch Prediction Accuracy: 99.8281% MPKI: 0.09468 Average ROB Occupancy at Mispredict: 161.676
Branch types
NOT_BRANCH: 188985986 94.493%
BRANCH_DIRECT_JUMP: 290669 0.145335%
BRANCH_INDIRECT: 14 7e-06%
BRANCH_CONDITIONAL: 10161052 5.08053%
BRANCH_DIRECT_CALL: 280969 0.140485%
BRANCH_INDIRECT_CALL: 0 0%
BRANCH_RETURN: 280968 0.140484%
BRANCH_OTHER: 0 0%

DRAM PAGES: 1048576
Allocated PAGES: 8737
