
*** ChampSim Multicore Out-of-Order Simulator ***

Warmup Instructions: 50000000
Simulation Instructions: 200000000
Number of CPUs: 1
LLC sets: 2048
LLC ways: 16
Secure Berti: OFF
Berti: OFF
Berti Fill: OFF
On commit prefetching: OFF
L2 LLC Bypass speculative loads: OFF
Off-chip DRAM Size: 4096 MB Channels: 1 Width: 64-bit Data Rate: 6400 MT/s
CPU 0 runs /home/sumon/secure_berti/Berti_Baseline/../../traces/spec/621.wrf_s-6673B.champsimtrace.xz
.xz
BTB has LRU replacement policy
ITLB has LRU replacement policy
DTLB has LRU replacement policy
STLB has LRU replacement policy
L1I has LRU replacement policy
IP Table Entries: 1024
CSPT Entries: 128
RR_ENTRIES: 32
RST_ENTRIES: 8
L1D has LRU replacement policy
L2C has LRU replacement policy
LLC has LRU replacement policy
Heartbeat CPU 0 instructions: 10000002 cycles: 3558575 heartbeat IPC: 2.81011 cumulative IPC: 2.81011 (Simulation time: 0 hr 0 min 33 sec) 
Heartbeat CPU 0 instructions: 20000003 cycles: 6463272 heartbeat IPC: 3.4427 cumulative IPC: 3.09441 (Simulation time: 0 hr 0 min 59 sec) 
Heartbeat CPU 0 instructions: 30000000 cycles: 9282999 heartbeat IPC: 3.54644 cumulative IPC: 3.23171 (Simulation time: 0 hr 1 min 22 sec) 
Heartbeat CPU 0 instructions: 40000002 cycles: 12168226 heartbeat IPC: 3.46593 cumulative IPC: 3.28725 (Simulation time: 0 hr 1 min 45 sec) 
Heartbeat CPU 0 instructions: 50000000 cycles: 15070146 heartbeat IPC: 3.44599 cumulative IPC: 3.31782 (Simulation time: 0 hr 2 min 8 sec) 

Warmup complete CPU 0 instructions: 50000004 cycles: 15070147 (Simulation time: 0 hr 2 min 8 sec) 

Heartbeat CPU 0 instructions: 60000000 cycles: 27974940 heartbeat IPC: 0.774906 cumulative IPC: 0.774906 (Simulation time: 0 hr 2 min 34 sec) 
Heartbeat CPU 0 instructions: 70000000 cycles: 43456846 heartbeat IPC: 0.645915 cumulative IPC: 0.704555 (Simulation time: 0 hr 3 min 2 sec) 
Heartbeat CPU 0 instructions: 80000000 cycles: 55271570 heartbeat IPC: 0.846402 cumulative IPC: 0.746242 (Simulation time: 0 hr 3 min 25 sec) 
Heartbeat CPU 0 instructions: 90000003 cycles: 68176477 heartbeat IPC: 0.774899 cumulative IPC: 0.753206 (Simulation time: 0 hr 3 min 50 sec) 
Heartbeat CPU 0 instructions: 100000000 cycles: 85403255 heartbeat IPC: 0.580491 cumulative IPC: 0.710903 (Simulation time: 0 hr 4 min 24 sec) 
Heartbeat CPU 0 instructions: 110000000 cycles: 94144961 heartbeat IPC: 1.14394 cumulative IPC: 0.758775 (Simulation time: 0 hr 4 min 43 sec) 
Heartbeat CPU 0 instructions: 120000003 cycles: 105049210 heartbeat IPC: 0.917074 cumulative IPC: 0.777959 (Simulation time: 0 hr 5 min 4 sec) 
Heartbeat CPU 0 instructions: 130000000 cycles: 114325765 heartbeat IPC: 1.07799 cumulative IPC: 0.806 (Simulation time: 0 hr 5 min 21 sec) 
Heartbeat CPU 0 instructions: 140000002 cycles: 124493374 heartbeat IPC: 0.983516 cumulative IPC: 0.822494 (Simulation time: 0 hr 5 min 43 sec) 
Heartbeat CPU 0 instructions: 150000001 cycles: 134944092 heartbeat IPC: 0.956872 cumulative IPC: 0.83421 (Simulation time: 0 hr 5 min 59 sec) 
Heartbeat CPU 0 instructions: 160000001 cycles: 144298640 heartbeat IPC: 1.069 cumulative IPC: 0.851205 (Simulation time: 0 hr 6 min 20 sec) 
Heartbeat CPU 0 instructions: 170000001 cycles: 155251172 heartbeat IPC: 0.913031 cumulative IPC: 0.856036 (Simulation time: 0 hr 6 min 40 sec) 
Heartbeat CPU 0 instructions: 180000000 cycles: 164366054 heartbeat IPC: 1.09711 cumulative IPC: 0.870754 (Simulation time: 0 hr 6 min 57 sec) 
Heartbeat CPU 0 instructions: 190000000 cycles: 177645888 heartbeat IPC: 0.753021 cumulative IPC: 0.861137 (Simulation time: 0 hr 7 min 23 sec) 
Heartbeat CPU 0 instructions: 200000003 cycles: 191299547 heartbeat IPC: 0.732405 cumulative IPC: 0.851163 (Simulation time: 0 hr 7 min 53 sec) 
Heartbeat CPU 0 instructions: 210000000 cycles: 204979790 heartbeat IPC: 0.730981 cumulative IPC: 0.842506 (Simulation time: 0 hr 8 min 22 sec) 
Heartbeat CPU 0 instructions: 220000000 cycles: 218767798 heartbeat IPC: 0.725268 cumulative IPC: 0.83457 (Simulation time: 0 hr 8 min 53 sec) 
Heartbeat CPU 0 instructions: 230000001 cycles: 233376919 heartbeat IPC: 0.684504 cumulative IPC: 0.824528 (Simulation time: 0 hr 9 min 16 sec) 
Heartbeat CPU 0 instructions: 240000002 cycles: 247773021 heartbeat IPC: 0.694633 cumulative IPC: 0.816492 (Simulation time: 0 hr 9 min 46 sec) 
Heartbeat CPU 0 instructions: 250000000 cycles: 256325321 heartbeat IPC: 1.16928 cumulative IPC: 0.828998 (Simulation time: 0 hr 10 min 5 sec) 
Finished CPU 0 instructions: 200000000 cycles: 241255175 cumulative IPC: 0.828998 (Simulation time: 0 hr 10 min 5 sec) 

ChampSim completed all CPUs

Region of Interest Statistics

CPU 0 cumulative IPC: 0.828998 instructions: 200000000 cycles: 241255175
ITLB TOTAL     ACCESS:   29256650  HIT:   29256459  MISS:        191  HIT %:    99.9993  MISS %: 0.000652843   MPKI: 0.000955
ITLB Test counter:          0
ITLB LOAD TRANSLATION ACCESS:   29256650  HIT:   29256459  MISS:        191  HIT %:    99.9993  MISS %: 0.000652843   MPKI: 0.000955
ITLB PREFETCH  REQUESTED:          0  ISSUED:          0  USEFUL:          0  USELESS:          0
ITLB USEFUL LOAD PREFETCHES:          0 PREFETCH ISSUED TO LOWER LEVEL:          0  ACCURACY: -nan
ITLB TIMELY PREFETCHES:          0 LATE PREFETCHES: 0 DROPPED PREFETCHES: 0
ITLB COMMIT LATE PREFETCHES: 0 MISSED OPPORTUNITY: 0 LATE IN PQ: 0 UNCOVERED: 0
ITLB COMMIT LATE MSHR PREFETCHES: 0
ITLB MPKI TOTAL: 0 MSHR LATE: 0 PQ LATE: 0 COMMIT LATE: 0 MISSED OPPORTUNITY: 0 UNCOVERED: 0
ITLB PREFETCHES SAME FILL-ORIGIN LEVEL: 0 DIFFERENT FILL-ORIGIN LEVEL: 0
ITLB AVERAGE MISS LATENCY: 247.702 cycles
ITLB AVERAGE MISS LATENCY LOAD: -nan cycles
ITLB AVERAGE MISS LATENCY PREFETCH: -nan cycles
ITLB AVERAGE MSHR OCCUPANCY: 2.73441e-06
ITLB MSHR FULL: 0
ITLB RQ	ACCESS:   35351875	FORWARD:          0	MERGED:    6095161	TO_CACHE:   29256714

DTLB TOTAL     ACCESS:   45019362  HIT:   44820900  MISS:     198462  HIT %:    99.5592  MISS %:   0.440837   MPKI: 0.99231
DTLB Test counter:          0
DTLB LOAD TRANSLATION ACCESS:   45019362  HIT:   44820900  MISS:     198462  HIT %:    99.5592  MISS %:   0.440837   MPKI: 0.99231
DTLB PREFETCH  REQUESTED:          0  ISSUED:          0  USEFUL:          0  USELESS:          0
DTLB USEFUL LOAD PREFETCHES:          0 PREFETCH ISSUED TO LOWER LEVEL:          0  ACCURACY: -nan
DTLB TIMELY PREFETCHES:          0 LATE PREFETCHES: 0 DROPPED PREFETCHES: 0
DTLB COMMIT LATE PREFETCHES: 0 MISSED OPPORTUNITY: 0 LATE IN PQ: 0 UNCOVERED: 0
DTLB COMMIT LATE MSHR PREFETCHES: 0
DTLB MPKI TOTAL: 0 MSHR LATE: 0 PQ LATE: 0 COMMIT LATE: 0 MISSED OPPORTUNITY: 0 UNCOVERED: 0
DTLB PREFETCHES SAME FILL-ORIGIN LEVEL: 0 DIFFERENT FILL-ORIGIN LEVEL: 0
DTLB AVERAGE MISS LATENCY: 24.5563 cycles
DTLB AVERAGE MISS LATENCY LOAD: -nan cycles
DTLB AVERAGE MISS LATENCY PREFETCH: -nan cycles
DTLB AVERAGE MSHR OCCUPANCY: 0.0239956
DTLB MSHR FULL: 0.000967648
DTLB RQ	ACCESS:   51510636	FORWARD:          0	MERGED:    6424652	TO_CACHE:   45085984

STLB TOTAL     ACCESS:    4036512  HIT:    4008877  MISS:      27635  HIT %:    99.3154  MISS %:   0.684626   MPKI: 0.138175
STLB Test counter:          0
STLB LOAD TRANSLATION ACCESS:     198653  HIT:     171020  MISS:      27633  HIT %:    86.0898  MISS %:    13.9102   MPKI: 0.138165
STLB TRANSLATION FROM L1D PREFETCHER ACCESS:    3837859  HIT:    3837857  MISS:          2  HIT %:    99.9999  MISS %: 5.21124e-05   MPKI: 1e-05
STLB PREFETCH  REQUESTED:          0  ISSUED:          0  USEFUL:          2  USELESS:          0
STLB USEFUL LOAD PREFETCHES:          2 PREFETCH ISSUED TO LOWER LEVEL:          0  ACCURACY: inf
STLB TIMELY PREFETCHES:          2 LATE PREFETCHES: 0 DROPPED PREFETCHES: 0
STLB COMMIT LATE PREFETCHES: 0 MISSED OPPORTUNITY: 0 LATE IN PQ: 0 UNCOVERED: 0
STLB COMMIT LATE MSHR PREFETCHES: 0
STLB MPKI TOTAL: 0 MSHR LATE: 0 PQ LATE: 0 COMMIT LATE: 0 MISSED OPPORTUNITY: 0 UNCOVERED: 0
STLB PREFETCHES SAME FILL-ORIGIN LEVEL: 0 DIFFERENT FILL-ORIGIN LEVEL: 0
STLB AVERAGE MISS LATENCY: 112.574 cycles
STLB AVERAGE MISS LATENCY LOAD: -nan cycles
STLB AVERAGE MISS LATENCY PREFETCH: -nan cycles
STLB AVERAGE MSHR OCCUPANCY: 0.014348
STLB MSHR FULL: 0
STLB RQ	ACCESS:   12338031	FORWARD:          0	MERGED:    8301516	TO_CACHE:    4036515

STLB Hit, L1D data hit: 0
STLB Hit, L2C data hit: 0
STLB Hit, LLC data hit: 0
STLB Hit, LLC data miss: 0
STLB STLB hints to L2: 0
L1D TOTAL     ACCESS:   61086861  HIT:   57006669  MISS:    4080192  HIT %:    93.3207  MISS %:    6.67933   MPKI: 20.401
L1D Test counter:          0
L1D LOAD      ACCESS:   40405873  HIT:   39842078  MISS:     861812  HIT %:    98.6047  MISS %:    1.39533   MPKI: 2.81898
L1D RFO       ACCESS:    9017757  HIT:    8327882  MISS:     689875  HIT %:    92.3498  MISS %:    7.65018   MPKI: 3.44937
L1D PREFETCH  ACCESS:   11663231  HIT:    8836709  MISS:    2826522  HIT %:    75.7655  MISS %:    24.2345   MPKI: 14.1326
L1D PREFETCH  REQUESTED:   29400827  ISSUED:   24302985  USEFUL:    2375789  USELESS:     450757
L1D USEFUL LOAD PREFETCHES:    2375789 PREFETCH ISSUED TO LOWER LEVEL:    2974672  ACCURACY: 79.8673
L1D TIMELY PREFETCHES:    2375789 LATE PREFETCHES: 143335 DROPPED PREFETCHES: 0
L1D COMMIT LATE PREFETCHES: 0 MISSED OPPORTUNITY: 0 LATE IN PQ: 45999 UNCOVERED: 0
L1D COMMIT LATE MSHR PREFETCHES: 0
L1D MPKI TOTAL: 4.30906 MSHR LATE: 0.716675 PQ LATE: 0.229995 COMMIT LATE: 0 MISSED OPPORTUNITY: 0 UNCOVERED: 0
L1D PREFETCHES SAME FILL-ORIGIN LEVEL: 2974672 DIFFERENT FILL-ORIGIN LEVEL: 0
L1D AVERAGE MISS LATENCY: 178.326 cycles
L1D AVERAGE MISS LATENCY LOAD: 142.486 cycles
L1D AVERAGE MISS LATENCY PREFETCH: 169.624 cycles
L1D AVERAGE MSHR OCCUPANCY: 3.76967
L1D MSHR FULL: 0.137207
L1D RQ	ACCESS:   58942206	FORWARD:          0	MERGED:   18214818	TO_CACHE:   40703892
L1D WQ	ACCESS:   10855295	FORWARD:      27224	MERGED:      48551	TO_CACHE:   10806744
L1D PQ	ACCESS:   12163607	FORWARD:          0	MERGED:      20501	TO_CACHE:   12139378

L1D UNIQUE REGIONS ACCESSED: 0
L1D REGIONS CONFLICTS: 0
L1D Cross Page Prefetch Requests: 0
L1D Same Page Prefetch Requests: 17593364
L1D ROI Sum of L1D PQ occupancy: 306218452
L1D PREFETCHES PUSHED FROM L2C: 0
140e149: 1
1411b36: 1
1411a8a: 1
1411a82: 1
14119f0: 1
1411800: 1
1411794: 1
1411752: 1
8f0018: 1
92d33a: 1
1411375: 1
14fbe95: 1
141136d: 1
15164d8: 1
141133a: 1
f30818: 1
1411321: 1
162643e: 1
166a148: 1
1669eb3: 1
1508b17: 1
8ef5b8: 1
936dac: 1
9321f6: 1
1503785: 1
141262e: 1
1508f10: 1
14faa64: 1
1508ef5: 1
1508e7b: 1
8efff0: 1
f34500: 1
1508e56: 1
939709: 1
1508ea8: 1
1508e25: 1
1412622: 1
15089fa: 1
14fc0e1: 1
15138ef: 1
14125db: 1
1404439: 1
1411e87: 1
1411e77: 1
15071f8: 1
93296d: 1
1411dc0: 1
93245d: 1
93954d: 1
150870f: 1
9379a3: 1
936da4: 1
92f5c5: 1
1506976: 1
4f9810: 1
f381bf: 1
f3454d: 1
b6a72a: 1
93959a: 1
1402f7a: 1
14fa0e3: 1
1508838: 1
f346d3: 1
1402d6e: 1
8f0198: 1
52a670: 1
14f98e4: 1
14fae07: 1
1509260: 1
1411774: 1
140e315: 1
15086b6: 1
140e095: 1
8f6506: 1
931086: 1
1508f88: 1
9392fa: 1
1508967: 1
1404c1e: 1
1508952: 1
f3485f: 1
92fb20: 1
9366e4: 1
529691: 1
1515f7f: 1
1508efd: 1
1508f5d: 1
1508928: 1
15088bf: 1
1515559: 1
1508895: 1
1626551: 1
1508858: 1
51b41c: 1
14f9fb0: 1
937bcd: 1
1515f23: 1
f34291: 1
92d426: 1
930166: 1
92f4dd: 1
92f42d: 1
14faa3a: 1
92f3bc: 1
92f380: 1
9307c8: 1
b3e864: 1
1509e06: 1
14fa3d0: 1
92e0c9: 1
92e0d1: 1
14fc46d: 1
92d2ae: 1
15137cb: 1
1509310: 1
1513795: 1
1513665: 1
151365e: 1
15135b4: 1
1513575: 1
1513560: 1
15134f7: 1
1511a76: 1
16264ff: 1
141177c: 1
14fc8fc: 1
938771: 1
930fae: 1
1508af3: 1
9307b9: 1
14fc52d: 1
1626752: 1
14f996c: 1
16266ec: 1
16267b0: 1
14044db: 1
16264e0: 1
16262ba: 1
93021e: 1
1507aa8: 1
1506620: 1
8ef790: 1
939422: 1
8f0028: 1
92f781: 1
92f791: 1
92f5a5: 1
1403b8b: 1
8efe10: 1
150e855: 1
15091a0: 1
92f5bd: 1
1509149: 1
1509b60: 1
1509089: 1
1509025: 1
8ef7b7: 1
14fac4a: 1
15088aa: 1
1509b71: 1
f344b5: 1
14fc312: 1
92f382: 1
f32b74: 1
b478c9: 1
1411709: 1
14fa1fa: 1
1508ff0: 1
1508fba: 1
1508f6d: 1
1508f20: 1
f3826c: 1
150edf0: 1
15138d5: 1
930a6c: 1
14fbf52: 1
1513ab3: 1
52a5cd: 1
15092c0: 1
f38080: 1
92d12d: 1
1517621: 1
938642: 1
15036c8: 1
1507baa: 1
1516b4f: 1
1509200: 1
1508eb0: 1
f31176: 1
1508cda: 1
15091d0: 1
1402f41: 1
8f00ef: 1
14fadda: 1
15091c8: 1
1508f80: 1
140c2ca: 1
f38112: 1
14f992d: 1
1402f39: 1
1513975: 1
f34a33: 1
51b488: 1
51b018: 1
1513641: 1
1503b1f: 1
939555: 1
14067bd: 1
15134e4: 1
92fee9: 1
14044bf: 1
92f5ad: 1
f3817f: 1
15139c9: 1
150c8f8: 1
930236: 1
1626253: 1
8ef4d6: 1
92e0d8: 1
140d25a: 1
f38630: 1
92d24b: 1
1407473: 1
14096f0: 1
140f1b3: 1
140f31f: 1
140e09d: 1
90cc31: 1
8fa358: 1
140e08c: 1
1503a24: 1
93640c: 1
1402f60: 1
1508b10: 1
1516da5: 1
140d2f6: 1
140d20a: 1
140c2e7: 1
1411ea8: 1
15168db: 1
f343f1: 1
1515fb4: 1
14fbe6b: 1
14fa400: 1
931d8f: 1
14fbfe5: 1
140bddb: 1
1508eb6: 1
1508fe0: 1
51a9c8: 1
141273b: 1
15138bb: 1
140bdc1: 1
1411b6f: 1
15168f3: 1
14faa94: 1
1515ca5: 1
93107e: 1
14fadea: 1
15036dd: 1
14f93e8: 1
f30fad: 1
8e00a5: 1
14fb270: 1
140bdd2: 1
1508880: 1
1508e4e: 1
92d1be: 1
140cd5c: 1
15092f0: 1
901b18: 1
92fb0b: 1
151529f: 1
1513985: 1
1515297: 1
9326d1: 1
f341b2: 1
f34255: 1
1409377: 1
5297f4: 1
f347bf: 1
14fa6e9: 1
92f38a: 1
1503b39: 1
8fa377: 1
1508ff6: 1
1411313: 1
9367a1: 1
1503731: 1
938779: 1
140ae14: 1
140ad5a: 1
51b433: 1
93246f: 1
16267b8: 1
14fa4b0: 1
14076ca: 1
14045e4: 1
1411afd: 1
14045dc: 1
14044ab: 1
1404441: 1
1411b4b: 1
1503a14: 1
f38153: 1
f349fb: 1
1403b93: 1
15134c8: 1
51a7c8: 1
1509117: 1
14041ef: 1
1508adc: 1
140b2c0: 1
92f4f5: 1
1404196: 1
140b267: 1
8efd9c: 1
15164e4: 1
1509230: 1
931d11: 1
1510250: 1
8fa379: 1
1505f5b: 1
9322df: 1
1513929: 1
f38491: 1
1404734: 1
15036f2: 1
15138a1: 1
14f9918: 1
15064c0: 1
1513899: 1
14fbe17: 1
931e74: 1
1513921: 1
92d202: 1
140be8d: 1
f38557: 1
932273: 1
1508ace: 1
140e084: 1
51a9b6: 1
1509170: 1
1403f9e: 1
8f013a: 1
15090b3: 1
15066b0: 1
14f9f37: 1
939485: 1
14faa9f: 1
f32b81: 1
5295a6: 1
1403b31: 1
150388d: 1
15088d4: 1
1403af1: 1
1503a5c: 1
1403ac7: 1
1509290: 1
1402f2a: 1
140ac84: 1
1515f01: 1
1506520: 1
1407ad2: 1
1503acc: 1
529818: 1
931c9d: 1
1515ef9: 1
14fa83e: 1
140418e: 1
1508913: 1
150904f: 1
14040d5: 1
f34791: 1
14040ed: 1
151394b: 1
51c4d8: 1
150371c: 1
1411738: 1
14040ac: 1
14040a4: 1
8f7154: 1
52a894: 1
f38609: 1
14fa042: 1
8ef700: 1
1411ea0: 1
14fbebf: 1
1515f87: 1
14f9f90: 1
f32c26: 1
1509160: 1
14f9fb8: 1
f3464a: 1
14f9f98: 1
14f9f58: 1
8efe70: 1
14f9fbe: 1
14f9fe0: 1
5292b5: 1
8fa36b: 1
f32c2e: 1
14f9ff0: 1
f32c1e: 1
92cf78: 1
92cf70: 1
92ce52: 1
92ce59: 1
92ce43: 1
1515d1a: 1
f38601: 1
f3474c: 1
f385f9: 1
f32bde: 1
14fa250: 1
14fa430: 1
14fa3c8: 1
14fa370: 1
f349f2: 1
8f01f2: 1
14fa340: 1
f38068: 1
14fa310: 1
14fa2e0: 1
14fa2a0: 1
14fa280: 1
529743: 1
14fa220: 1
14fa171: 1
14fa147: 1
14fa115: 1
14fa0a6: 1
14fa0d3: 1
14fa09e: 1
14fa04a: 1
14fa06c: 1
14fa018: 1
14fa01b: 1
93095e: 1
930fa6: 1
f385bc: 1
93023e: 1
5297ed: 1
93941a: 1
932849: 1
92f5b5: 1
15134d0: 1
1669ea0: 1
93098e: 1
930986: 1
f3420a: 1
8f0164: 1
9307c1: 1
9307b1: 1
930299: 1
f38457: 1
8ef558: 1
14fab99: 1
f3846f: 1
1404457: 1
14fc49d: 1
932f34: 1
f38529: 1
51a9be: 1
92ce6c: 1
8efc62: 1
5296d6: 1
140afef: 1
92fee2: 1
92fed3: 1
528eb8: 1
5297cc: 1
92fefc: 1
92fed1: 1
14fa5bd: 1
14f9f70: 1
f384cf: 1
1508cea: 1
f3853c: 1
166894f: 1
f3329b: 1
931440: 1
8ef648: 1
8f01d1: 1
1508ed0: 1
f34330: 1
f346c8: 1
f34605: 1
f3460d: 1
f345cd: 1
f34555: 1
f3448c: 1
f34497: 1
1515c95: 1
f34447: 1
f343c0: 1
f343b8: 1
f34799: 1
f34305: 1
f3424a: 1
5237bf: 1
8eff4a: 1
14f9f50: 1
8ef622: 1
8fa351: 1
14fc955: 1
14fc919: 1
14fc48d: 1
14fc30b: 1
f34a9a: 1
52963d: 1
5295bd: 1
529645: 1
52956c: 1
529544: 1
8ef410: 1
8ef4eb: 1
f332b6: 1
51a6db: 1
51a671: 1
51a5af: 1
14fc2ee: 1
f34a92: 1
f34a4b: 1
f349ea: 1
f349ac: 1
901adb: 1
f3490c: 1
f348a9: 1
f34857: 1
f34812: 1
15090ed: 1
8efeae: 1
5290fc: 1
14fab35: 1
14fab3d: 1
14fab08: 1
14fab00: 1
14faa9c: 1
14faa6c: 1
14faa42: 1
14faa14: 1
8ef3d3: 1
8effb2: 1
14fab72: 1
8efebb: 1
8efd8c: 1
8efd5c: 1
8efd33: 1
8efc52: 1
8ef698: 1
8efbdf: 1
8efb23: 1
14fa81a: 1
528ef5: 1
b679f9: 1
14faf86: 1
14fc2be: 1
14fbffa: 1
14fbfd0: 1
14fbf3d: 1
14fbefe: 1
14fbe80: 1
14fbe56: 1
14fbddc: 1
14fb281: 1
14fbdc8: 1
14fbdc0: 1
1402e54: 1
14fa1ab: 1
14fae24: 1
14fae2b: 1
8e63a0: 1
14fac51: 1
14fac2d: 1
14fac10: 1
14faba9: 1
14fab6f: 1
14fab45: 1
529ebf: 1
14f9900: 1
14f98dc: 1
15186d5: 1
1517934: 1
a9627c: 1
1517209: 1
15170e5: 1
529ec7: 1
1516fbb: 1
f3468b: 1
1516fa6: 1
14f9957: 1
8f008f: 1
14fa1c8: 1
1516fb3: 1
1516b60: 1
51a7c0: 1
15092f6: 1
51b598: 1
1508f26: 1
8ef508: 1
14fa490: 1
1402f71: 1
51b00e: 1
938658: 1
938637: 1
f38521: 1
f38070: 1
f38058: 1
f38001: 1
f37f99: 1
f346f9: 1
90cec6: 1
92f5cd: 1
51a9a9: 1
14fa096: 1
51bf3d: 1
f3488f: 1
90cc5c: 1
90cc55: 1
90cc42: 1
14f9d41: 1
14f9bee: 1
14f9bca: 1
14f9aa7: 1
14f9981: 1
1513a51: 1
140b280: 1
932e21: 1
9315a4: 1
1515d42: 1
1515d3a: 1
1515c48: 1
ac0c9c: 1
1513abb: 1
8efb87: 1
1513a7e: 1
14fadb4: 1
14fc10b: 1
1513a2f: 1
1513a0d: 1
15139eb: 1
15139fd: 1
1402f52: 1
15139db: 1
15139e3: 1
15139a7: 1
14fa2b0: 1
15138f7: 1
14f9f78: 1
15163da: 1
15163eb: 1
15163f3: 1
1515fee: 1
1515fe6: 1
1515fc4: 1
1515f5d: 1
1515f4d: 1
1515f55: 1
14f9be7: 1
1515f2b: 1
8efc1d: 1
8ef7f0: 1
8ef772: 1
8ef60a: 1
8ef3b6: 1
8ef3a1: 1
8ef33c: 1
1513953: 1
8ef2e4: 1
9369ac: 1
14fabde: 1
52a642: 1
932631: 1
14fa1f2: 1
932465: 1
9322b9: 1
f38611: 1
932288: 1
93227b: 1
151554c: 1
9392cc: 1
932dfe: 1
14fbe2c: 1
1508e70: 1
f30e53: 1
14fa074: 1
15036b0: 1
9320f6: 1
9320ee: 1
931d4c: 1
93263b: 1
f3836b: 1
f3834b: 1
f382e4: 1
1509228: 1
f3862b: 1
933210: 1
8efef6: 1
f34901: 1
50742d: 1
529f19: 1
1513536: 1
1513873: 1
f3457d: 1
1508ac6: 1
8fa5a4: 1
f382bd: 1
529f44: 1
52a402: 1
93270f: 1
93268b: 1
932671: 1
8efcce: 1
93264b: 1
8ef463: 1
932639: 1
14fa837: 1
93962f: 1
93645e: 1
9363f2: 1
f3818c: 1
f38172: 1
f342b8: 1
f38165: 1
f38090: 1
93a43b: 1
936428: 1
15174b7: 1
14faad6: 1
1515ed2: 1
9392c3: 1
9392d4: 1
9392df: 1
9392be: 1
140ad48: 1
15138db: 1
8efb33: 1
14fbed4: 1
939023: 1
93901e: 1
901b34: 1
f381f4: 1
936c4d: 1
15138b3: 1
936bc5: 1
936bca: 1
150901d: 1
932290: 1
f34a1b: 1
936a45: 1
14fa3a0: 1
9369cc: 1
92d41d: 1
1508ea0: 1
f34388: 1
936718: 1
14fa010: 1
9302a4: 1
9366ec: 1
8ef2a7: 1
f342fd: 1
1402f1c: 1
1504fc0: 2
8e73bf: 2
1504f12: 2
1504e20: 2
150494a: 2
8f7190: 2
8f718a: 2
8df574: 2
1507eda: 2
8df613: 2
8df6da: 2
1507a70: 2
1503c70: 2
14104b9: 2
150432a: 2
1504878: 2
1503f40: 2
14072af: 2
1507251: 2
15076f8: 2
15078f7: 2
140f86b: 2
8dfd3b: 2
1507873: 2
8f64d9: 2
15076b6: 2
14034a9: 2
1507644: 2
1503c20: 2
1505e26: 2
15063b0: 2
15075aa: 2
141077b: 2
1507eca: 2
8f7230: 2
1506d34: 2
8f7465: 2
1507249: 2
1507d44: 2
1507270: 2
1507f14: 2
150728b: 2
15062e1: 2
15072e2: 2
8f7228: 2
15065f0: 2
15072f8: 2
150697e: 2
1503c4a: 2
1410592: 2
8df5a3: 2
1403795: 2
8df5e0: 2
1410514: 2
8df5ff: 2
8f715f: 2
15072a8: 2
1506b37: 2
15062e8: 2
15057d4: 2
1504843: 2
1504ffd: 2
1506360: 2
15075e0: 2
1504d0d: 2
1504500: 2
1504ad6: 2
1507830: 2
1503fa0: 2
1504aa6: 2
15048cc: 2
140a22b: 2
932e06: 2
1404a10: 2
1402cae: 2
1402cd7: 2
1407b6e: 2
1503fc0: 2
15052c0: 2
140350c: 2
1504510: 2
150630f: 2
1507aa0: 2
15048b7: 2
1408a04: 2
1505d58: 2
1505da8: 2
15063e0: 2
1507223: 2
1503cc0: 2
8dfdc9: 2
1503d50: 2
1507988: 2
1503f10: 2
1506db8: 2
15046d9: 2
150453d: 2
8f6529: 2
15075d0: 2
1504ed0: 2
1504323: 2
15044e5: 2
1508532: 2
1504520: 2
1503ed8: 2
1503ca0: 2
1403ab7: 2
1506e82: 2
1505290: 2
1404d73: 2
150471c: 2
507086: 2
150488d: 2
140611f: 2
1402d1d: 2
140a92f: 2
1504d27: 2
15057b0: 2
140f65e: 2
8f676e: 2
8e739a: 2
939475: 2
1504af3: 2
1505230: 2
1504e80: 2
15064a5: 2
1504714: 2
15051d0: 2
1506e58: 2
150766e: 2
1506f80: 2
1506f50: 2
1506f20: 2
1506ef1: 2
1506eb4: 2
1503c90: 2
1506eac: 2
15080ce: 2
50708c: 2
1506e50: 2
529810: 2
1506e30: 2
140ad70: 2
1506df0: 2
15079f0: 2
8dfd5d: 2
1505303: 2
140a0b6: 2
8f6766: 2
8f64e3: 2
1504fed: 2
1507064: 2
150705d: 2
1506b1a: 2
15075f0: 2
150428a: 2
150701b: 2
1408a2f: 2
1411052: 2
1506ff2: 2
1506fd0: 2
1504e4e: 2
15046e1: 2
1506fb0: 2
1506d50: 2
1507278: 2
15042ab: 2
1504afa: 2
150455a: 2
1410784: 2
1409cfb: 2
8f6627: 2
8f7495: 2
8f7180: 2
1504561: 2
8dfdd1: 2
1506df6: 2
15044b7: 2
15076db: 2
1504e60: 2
1409c29: 2
15080eb: 2
1503c55: 2
1506dc0: 2
1507ef7: 2
15050bd: 2
1506d78: 2
1507f1b: 2
15059b4: 2
1507ea4: 2
15076ff: 2
15052fb: 2
1504282: 2
1506408: 2
140aaf6: 2
8f689b: 2
1504306: 2
1504eb0: 2
1506680: 2
1403774: 2
1503c98: 2
1503df0: 2
1403abf: 2
15048a2: 2
14036ae: 2
14104ca: 2
15063a8: 2
1403464: 2
8dff8d: 2
1669deb: 2
14036a0: 2
1506440: 2
14087ff: 2
14046b7: 2
1506330: 2
14087b3: 2
1505198: 2
1506338: 2
150636b: 2
1410e8b: 2
1506380: 2
15080b1: 2
1506388: 2
1506460: 2
1506410: 2
14036c1: 2
1506530: 2
1503bd7: 2
1505d60: 2
1505d7e: 2
1408937: 2
1505e7a: 2
1505f2e: 2
15061dc: 2
14060f1: 2
14060e8: 2
1505228: 2
1403617: 2
1406100: 2
1503e50: 2
1406310: 2
140472f: 2
1504860: 2
1506d90: 2
1410772: 2
1503d00: 2
14104db: 2
1503dc0: 2
1507919: 2
140e8c8: 2
14036b9: 2
15057cd: 2
15051f8: 2
1412145: 2
8e7424: 2
1506182: 2
1411dd0: 2
140726a: 2
14072ff: 2
150e83e: 2
f30d1c: 2
4f9801: 2
14060f8: 2
1505997: 2
46f705: 2
140610f: 2
1507d20: 2
8e73ca: 2
1404ae5: 2
90ce65: 2
140ac35: 2
93964c: 2
93666b: 2
1504e46: 2
1503c28: 2
1507990: 2
933291: 2
1506d70: 2
1505260: 2
15046ee: 2
1505e50: 2
1403514: 2
1506650: 2
15066d0: 2
150794e: 2
140a5ba: 2
1506b3e: 2
1505061: 2
8f727a: 2
1503d80: 2
166a29c: 2
1504f38: 2
1503d30: 2
140346c: 2
1503ee0: 2
1505200: 2
140376c: 2
1403ab5: 2
1507040: 2
1403995: 2
150572e: 2
1504f5a: 2
1503eb0: 2
150502f: 2
1506d58: 2
15044dd: 2
1506db0: 2
1504ea0: 2
1505110: 2
15078ef: 2
1410e92: 2
1504ea8: 2
1503c78: 2
1503bfd: 2
1507cd1: 2
15064d0: 2
1504e68: 2
b5381a: 2
15052e8: 2
1506d98: 2
528fbb: 2
1406126: 2
1503cf8: 2
1504e88: 2
1506560: 2
b52129: 2
1504002: 2
92e1ac: 2
1503d60: 2
1503cd0: 2
8f651f: 2
150807b: 2
1507d3d: 2
15080a1: 2
1506470: 2
1508288: 2
1505d93: 2
15082a5: 2
140c2db: 2
15082c9: 2
1504ed8: 2
15082c2: 2
1507a20: 2
15086a9: 2
14104fb: 2
1506192: 2
15078c9: 2
1508252: 2
1505170: 2
1503fdb: 2
8df632: 2
1507924: 2
1506307: 2
1508278: 2
1503c05: 2
1404c4b: 2
15051a0: 2
15079b0: 2
15079b8: 2
1503d90: 2
15052e0: 2
1506e7a: 2
14096f5: 2
1506500: 2
1505726: 2
1505763: 2
150593c: 2
51c72b: 2
15059d8: 2
1505961: 2
1505987: 2
15059d1: 2
141081a: 2
1507968: 2
1505d69: 2
1507a80: 2
150783d: 2
1504f6a: 2
1504f90: 2
15080f2: 2
150633e: 2
15076c4: 2
1503e20: 2
1507a50: 2
15079c0: 2
15050e0: 2
1504ff5: 2
1506590: 2
150508b: 2
1507a10: 2
1404720: 2
1503e80: 2
1409fea: 3
1403854: 3
140e8d6: 3
51c688: 3
529710: 3
8e008d: 3
140f325: 3
140cf51: 3
1408444: 3
140be4d: 3
1406c7a: 3
140d1f4: 3
9324ee: 3
508267: 3
140d12d: 3
5293ba: 3
1409a3f: 3
150e80b: 3
932f4d: 3
9321f0: 3
8e7201: 3
150d50a: 3
15164ec: 3
5082cb: 3
939640: 3
14061ab: 3
1406264: 3
8e83d4: 3
1406d88: 3
1408604: 3
14046c3: 3
529729: 3
529724: 3
150ec0a: 4
1407067: 4
5293b5: 4
150ebb7: 4
150eb9a: 4
14085b4: 4
f30e5e: 4
150ec1e: 4
8df528: 4
150e827: 4
f32b61: 4
1668907: 4
507425: 4
150d7de: 4
150ed97: 4
8df2c6: 4
15164c4: 4
939470: 4
f2e691: 4
932175: 4
150edda: 4
150ebbe: 4
166a217: 4
150edc2: 4
150ec3d: 4
8df54a: 4
8df296: 4
8deb66: 4
1406272: 4
8dffe0: 4
529560: 4
8deb3f: 4
529e5b: 4
140a4dd: 4
140cf69: 4
1409765: 4
8e7223: 4
f30ed8: 4
1406a87: 4
150ed81: 4
140e310: 4
150eb7d: 4
f328f5: 4
5084c4: 4
150d5c7: 4
14086f1: 4
8df34c: 4
933281: 4
140c2a9: 4
50827e: 4
150d79d: 4
1403a50: 4
150d77b: 4
8e9222: 4
150ed9f: 4
150d534: 4
f31a1c: 4
150d764: 4
150d922: 4
150d4c0: 4
1516445: 4
8df344: 4
1668935: 5
4f928c: 5
4f97f5: 5
f31c17: 5
f32c50: 5
f32b50: 5
f32b68: 5
f31cb3: 5
4f7e69: 5
150dc00: 5
4f89c7: 5
150dd80: 5
4f886e: 5
4f7f7b: 5
f30e3f: 5
150dc5a: 5
507c2d: 5
140ca43: 5
507a63: 5
507234: 5
150dbb0: 5
5073e8: 5
f32a3b: 5
150e89e: 5
150de10: 5
150e81c: 5
150e7cd: 5
150e6e5: 5
150e6dd: 5
150da54: 5
150e6c5: 5
f31c23: 5
150dec0: 5
150eb49: 5
150ded7: 5
f31da1: 5
8f6d04: 5
150dea0: 5
150db48: 5
150dde0: 5
150dd50: 5
150dc90: 5
507197: 5
f32b58: 5
150db68: 5
150e833: 5
150de70: 5
150dc96: 5
150dc6a: 5
150dc10: 5
150dc38: 5
150dba8: 5
506cd3: 5
f31d83: 5
f31d1b: 5
4f7f56: 5
f31cfc: 5
f31cde: 5
f31c95: 5
150e6cd: 5
f30c54: 5
f31c30: 5
f31c11: 5
f31be9: 5
9324f7: 5
f31bed: 5
f31de0: 5
150d753: 5
150d6f1: 5
f328d0: 5
140947f: 5
150ddb0: 5
150d4c8: 5
f32a55: 5
150db40: 5
f2e77c: 5
150eafc: 5
5070b7: 5
506f65: 5
150eac0: 5
4f7e07: 5
f320c3: 5
1669caa: 5
150ea46: 5
150eb04: 5
4f81b3: 5
8ead60: 5
150ddd8: 5
150dc62: 5
f309ad: 5
506d55: 5
150e800: 5
5011f2: 5
5011cd: 5
4f7fde: 5
1406d7f: 5
f32ad7: 5
f32a21: 5
f31836: 5
1516630: 5
f329bc: 5
f32944: 5
f3290e: 5
150d70e: 5
4f89b9: 5
4f7f67: 5
f328f1: 5
f31993: 5
f30e37: 5
150db29: 5
f2e82d: 5
f2e8d3: 5
f309b4: 5
f309c1: 5
f30a8e: 5
f30ac0: 5
f30b9d: 5
f30beb: 5
f30c06: 5
f30b64: 5
f30c4c: 5
f30e2a: 5
150eb0a: 5
901c87: 5
f30e4b: 5
150dd20: 5
4f7f8c: 5
f3186c: 5
f30e49: 5
f30ecc: 5
f30f04: 5
f30f13: 5
f30f93: 5
f30fd4: 5
f31297: 5
1668d4d: 5
f31cee: 5
150d4ab: 5
f31c01: 5
4f7e2b: 5
150db88: 5
150edd3: 5
140f0d0: 5
150dcf0: 5
5070cf: 5
150d715: 5
150e7a1: 5
f32b0b: 5
150eaa6: 5
5072da: 5
150e7c6: 5
8f68d4: 5
f30b38: 5
f31d02: 5
f30e41: 5
f32934: 5
f309a6: 5
4f7f84: 5
507ab9: 5
4f93c3: 5
150db60: 5
150dbe0: 5
f31cd6: 5
f3104d: 5
141214b: 5
f31d0e: 5
151644d: 5
151646a: 5
151648e: 5
1516628: 5
1516643: 5
90ce60: 5
150d5b2: 5
f332bb: 5
4f88c8: 5
150ea90: 5
f309cb: 5
150eb34: 5
508920: 5
f30dee: 5
140855b: 5
8f6d00: 5
4f7f4e: 5
52a57a: 5
f31997: 5
150dc80: 5
150eb26: 5
150edb1: 5
150eae2: 5
52972f: 5
150eac8: 5
150de40: 5
150eaae: 5
506e2c: 5
1516487: 5
506d62: 5
f32908: 5
f318c8: 5
8e0013: 5
5071c6: 5
93947d: 5
933062: 6
52957f: 6
14b0df0: 6
50828e: 6
8e08e8: 6
52ad22: 6
52a5ea: 6
f31125: 6
8e08e0: 6
166a280: 6
166a28b: 6
933085: 6
140ac9c: 6
1412700: 6
166a276: 6
140f4a7: 6
8e0858: 6
5082a6: 6
8e08d4: 6
93315e: 6
52a599: 6
5083f6: 6
8e0871: 6
8e0a4c: 6
8e0a32: 6
140ef85: 7
1668919: 7
932f43: 7
14081da: 7
932f03: 7
8dfff2: 7
1668bb0: 7
51c5c3: 7
506d50: 7
529735: 7
92fb30: 7
1403850: 7
140ef80: 7
93315b: 7
14083a9: 7
52a62b: 7
1669c93: 7
5082d3: 7
9387dd: 7
140cdb3: 7
8eaf20: 8
9391ba: 8
5079ea: 8
529585: 8
93216d: 8
8f68d0: 8
93313d: 8
9387d0: 8
8fa5a0: 8
9391b0: 8
933145: 8
8e0008: 8
140953e: 8
8e0358: 8
9324e0: 8
1406c70: 8
dea608: 8
8dffeb: 8
8e002c: 8
8e0036: 8
dea679: 8
9324e6: 8
8e0112: 8
901ba5: 9
14043a3: 9
140ac6e: 9
1403e0c: 9
140f429: 9
8dfabe: 9
8e8720: 9
14120da: 9
933153: 9
dea5ca: 9
1669dd8: 9
506b90: 10
932eeb: 10
506b98: 10
8e8380: 10
901c38: 10
1403e47: 10
901beb: 10
166a38c: 10
901bf4: 10
1403e37: 10
901cff: 10
14115fd: 10
1669ca5: 10
dea61f: 11
1404399: 11
140ac40: 11
52ad3a: 11
dea5ba: 11
1411ce1: 11
508211: 11
14115e0: 11
8e83ac: 11
8df88e: 11
9368c5: 11
936604: 11
8e0619: 12
140f199: 12
52ac20: 12
8e838b: 12
8e738f: 12
1409514: 12
506d5d: 12
14065b5: 12
14081c4: 12
1407e04: 12
1668861: 12
4f9a10: 12
1669e2f: 12
936b64: 12
50721c: 12
1411960: 12
166a269: 12
1403e1d: 12
51c5ea: 12
1406ff2: 12
51c5d8: 12
8fa530: 12
51c5cb: 12
1403f60: 13
1411972: 13
14115f2: 13
8e88f6: 13
506efa: 13
1669ef6: 13
50829a: 13
92e210: 13
141197d: 13
8ded39: 13
1669e0e: 14
166bd44: 14
1669cd1: 14
140940c: 14
1411cec: 14
14076e3: 14
166bd59: 14
1669bfe: 14
1411cd0: 15
1409404: 15
507216: 15
14083ca: 15
507210: 15
936b6c: 15
1669245: 15
14120e5: 15
1409357: 15
14049a8: 16
8defb0: 16
14064da: 16
901b9b: 16
1669e1b: 16
140e8f4: 16
1407e00: 16
508a17: 16
1409531: 16
5293a0: 17
92e220: 17
1409a10: 17
1669cb4: 17
9368cd: 17
52a668: 17
1407af5: 17
51c5e5: 17
140e918: 17
8e0350: 18
1409521: 18
8defd6: 18
140948b: 18
140e902: 18
166890f: 18
93660c: 18
1403fb9: 19
166874b: 19
8ded51: 19
1409478: 19
140f195: 19
166884f: 19
166bd30: 19
166bd19: 19
140f490: 19
8e857d: 19
166888a: 19
166c390: 19
1668b99: 19
1668898: 19
1669e8f: 20
14046b0: 20
1409464: 20
156b7fa: 20
8f7427: 20
507080: 20
14108c0: 20
8f7435: 21
14061ee: 21
166886d: 22
1407b63: 22
14081d1: 22
507092: 22
92f8fd: 22
8e83b1: 22
8f7081: 23
507222: 23
8e7532: 23
f30d80: 23
8e7523: 23
8e7564: 23
8e7537: 23
8e73a6: 23
8e9e10: 23
4f990e: 24
8e8375: 24
140c2f9: 24
14094a0: 24
8e7356: 25
8e63f5: 25
8e8385: 25
8e837d: 25
8e765b: 25
8e83bf: 25
8e7656: 25
8e738c: 25
8e735b: 25
4f9b40: 25
1408540: 25
8e7384: 25
8e7369: 25
1409f6a: 25
1411df9: 25
52a5d5: 25
8e835f: 25
140972d: 25
1407a82: 25
8e7394: 25
8e839f: 25
4f9990: 25
1409aec: 26
140aa55: 26
1409778: 26
140e924: 26
933091: 26
1411dc6: 26
140bfa8: 26
8f7126: 26
14108cf: 27
506efd: 27
1407b5e: 27
140f306: 28
93331d: 28
933200: 28
1407ab9: 28
8f7068: 28
508991: 29
14070c7: 29
9390d0: 29
5083f0: 30
140711c: 30
92f913: 30
156b807: 30
16688fb: 30
1407a96: 31
9332e8: 31
9390db: 31
50824b: 32
14046bc: 32
932502: 32
932c13: 32
140f301: 32
140aa5d: 32
1407a78: 32
166c3a9: 33
8f7371: 33
140c306: 34
14108dd: 34
14083bc: 34
1409616: 34
92d0df: 35
1410a2e: 35
1408473: 35
1403355: 35
14084a5: 35
92d0d5: 36
932c87: 36
140f495: 36
1411675: 36
8e0610: 36
92d040: 36
1409a1a: 36
1407083: 37
f30b60: 37
936df5: 37
90cdf9: 37
140845f: 38
1407114: 38
8f6d11: 38
14110f8: 39
92f8f0: 39
14067a3: 39
92f90e: 39
507227: 39
936df0: 39
1411dcb: 40
14067ec: 40
9306db: 40
1407462: 40
14119f5: 41
507097: 41
92e22d: 41
8f6d1c: 42
1408467: 42
5078c8: 42
1408528: 42
140c17a: 44
51c4a5: 45
140c25f: 45
14094c8: 45
508890: 45
930dc8: 46
140d0f5: 46
8f68e1: 47
8f68fa: 47
1409741: 47
14083b4: 49
14037fa: 49
932c0b: 49
52a900: 49
14037f3: 50
5290f0: 50
92fa38: 50
8f6d2a: 51
140976c: 52
1403350: 52
92f61c: 52
140946c: 52
1409711: 53
14085a3: 53
90cdf5: 54
140858d: 54
529ea9: 54
1410a1d: 54
140eab0: 55
f30acf: 55
140d1b5: 55
506ef0: 55
92e2da: 55
f30d84: 55
140d105: 55
528f88: 55
529be1: 56
529108: 56
5078c0: 57
529bf8: 57
529c9d: 57
529da4: 57
140c1de: 57
529c95: 57
529808: 57
529800: 57
140c20f: 57
529be9: 57
52a783: 58
529e10: 58
140c91f: 58
140c589: 58
140c8d5: 58
140c8c5: 58
140c5cc: 58
140857f: 58
140cb34: 58
529e1b: 58
140c51b: 58
140c55e: 58
140ccca: 58
140c5bd: 58
140d165: 58
140bfb0: 58
140c90f: 58
140cfd0: 58
140c57c: 58
140c648: 58
140c5b5: 58
140c551: 58
140c614: 59
931220: 59
52a6cb: 59
9315b4: 59
52a742: 59
52a701: 59
140c998: 59
140c98a: 59
92f5fd: 59
92fb1b: 59
529103: 59
92f5f5: 59
8f68ec: 59
1403c42: 59
1403c3a: 59
140e241: 59
93052a: 59
930bf8: 60
1404940: 60
930909: 60
92faf5: 60
93120d: 60
140ac30: 60
931228: 60
930bf0: 60
1404038: 60
1411e45: 60
f3136b: 60
930f84: 61
930f59: 61
1409506: 61
930bdd: 61
51c487: 61
140cc7a: 62
930754: 62
14067ff: 63
140e4d4: 63
51c480: 64
1410a7c: 65
15d6540: 65
140c271: 66
140c5f0: 66
1409756: 67
14126a8: 68
140cdb8: 68
932160: 69
9313f4: 69
1403365: 69
140c2bb: 69
90cdfe: 70
14037f0: 71
140c010: 72
1411de5: 73
140e94b: 74
51c650: 74
14037f7: 76
140682b: 77
1406877: 77
932180: 77
92d04d: 77
8e88c0: 78
140d013: 79
15d7fd0: 80
14126a4: 81
14094e3: 81
14126ad: 81
508929: 81
140e5f9: 82
140e864: 82
140e382: 82
140e42a: 82
140f3f9: 83
140f47e: 83
140f3b3: 83
140f3ab: 83
140681f: 83
140e9b4: 83
140e249: 83
140e9eb: 83
140f10c: 83
140eb08: 83
140e9d5: 83
140edf8: 83
140f393: 83
140ea86: 83
140ea7a: 83
140f38e: 83
140ea36: 83
140f338: 83
4f9923: 83
140ea8e: 83
140680a: 83
140f040: 83
140e9ac: 83
1403f70: 84
140f648: 84
140f513: 84
140f51b: 84
140f523: 84
140ee85: 84
140f0dd: 84
4f9916: 85
14126a0: 85
140e93f: 85
1406c7f: 87
1406798: 88
f31074: 88
932165: 89
140ead2: 90
140eab6: 92
90cdf0: 94
140ead7: 94
1407079: 95
4f9935: 96
1403f86: 96
1407059: 97
8e8510: 98
529cd0: 100
14119fa: 101
8e05c4: 101
140a680: 102
14110f0: 104
51c49f: 105
1403360: 107
1407045: 109
140702f: 109
140aa6d: 110
140c600: 110
140a52c: 110
1406da8: 111
1408644: 112
140eef5: 112
1408694: 113
140862c: 113
1406d9c: 113
140eef0: 113
14063b7: 114
1406630: 114
140640f: 114
140632b: 114
140a50c: 114
140a4f2: 114
1406887: 114
51c499: 115
1403f98: 115
1409cc6: 116
140814e: 116
1406d28: 116
1406d5e: 116
140811e: 116
14069ed: 116
1406d1b: 116
14098a6: 116
140acf3: 116
14083d2: 116
1406aa5: 116
1406c51: 116
14098f3: 116
1407192: 116
140a468: 116
14087a6: 116
14081a4: 116
14081ac: 116
1408153: 116
14098c0: 116
140986f: 116
140ad24: 116
140acfb: 116
1407c1c: 116
14071a6: 116
1407ce2: 116
1409899: 116
1406af4: 116
1406d46: 116
1406dcd: 116
14083e6: 116
140710b: 116
1406c2b: 116
14073b1: 116
1406f2e: 116
140926f: 116
1409266: 116
140777e: 116
140a7de: 116
1407f22: 116
1407f6b: 116
140634f: 116
1407fe6: 116
1407c2d: 116
140a470: 116
14098aa: 116
14099e5: 116
1407de2: 116
14085fc: 116
1406afc: 116
1407dda: 116
14098e7: 116
141167a: 117
140314d: 118
14031fd: 118
14031e5: 118
1403155: 118
1409371: 118
14033f9: 120
140341f: 120
1410ab4: 120
140f1c1: 120
14039f7: 120
8e05cc: 120
1406909: 120
14039f0: 120
140a5c2: 121
140a697: 121
529cdb: 122
1406f48: 124
140a5cf: 124
508236: 124
92e2d0: 125
930105: 125
140768a: 126
52a5f5: 126
51c4ab: 127
1406a15: 127
140aabc: 127
1406f89: 130
1406f42: 130
1412140: 131
4f9930: 132
528e64: 132
1406f9b: 136
140e290: 136
528e6a: 136
140e945: 137
140a619: 137
528e50: 138
140e29d: 138
f3108d: 140
1411dea: 140
15d7f89: 142
1406f7b: 142
140817a: 142
1407447: 142
1406fe0: 143
140e642: 145
8e0304: 146
f30ac6: 146
1403370: 148
1407071: 148
140cd4a: 148
14076d6: 151
1410a53: 152
140c000: 154
5078cc: 154
14064cf: 159
1406fb2: 159
1407771: 160
14084cc: 161
140eac4: 162
140eabf: 164
1406bf3: 164
141080c: 165
1406fc7: 166
140ee92: 166
140e615: 167
140a953: 170
140e610: 172
936660: 174
14084b4: 174
936920: 174
1403faf: 176
936bc0: 176
14076c6: 176
930dc4: 177
8e030b: 177
140ac4f: 178
140f1c6: 180
140e1d8: 182
14061e0: 189
140f433: 189
1409949: 191
140f190: 193
52a5c0: 195
51c7a0: 197
140e91e: 200
1409940: 200
506cda: 201
140e939: 203
140698c: 203
92f9e1: 204
8e9ec0: 207
140e293: 208
1404943: 209
506cd0: 211
930100: 212
8e0300: 216
140653b: 216
140e624: 219
1407455: 220
8e0307: 224
1406338: 225
15d6534: 226
f31365: 227
1406523: 231
1406916: 232
506cdd: 235
1407710: 240
140e92b: 240
932f47: 245
140c286: 245
140e64e: 245
1406f69: 250
1406f59: 251
5078d0: 251
140c2d6: 251
8e05c0: 251
8fa535: 254
1410a59: 255
932f11: 256
5084d7: 256
1407725: 257
1409c45: 262
1411df4: 263
f3107d: 268
140494d: 268
14076ff: 271
50749d: 275
529cdf: 275
5072fb: 275
50731f: 275
528e76: 277
140d000: 277
1409ff3: 278
50776e: 280
5074bb: 280
507a1d: 282
1409962: 284
5074b0: 285
507757: 285
507708: 285
5077f7: 285
5074d1: 285
507748: 285
5077ff: 285
140c2e3: 287
140cd76: 288
5085b3: 289
508433: 289
507987: 290
1409536: 290
508377: 295
8e05c7: 295
14067cb: 302
1409b00: 303
140ac45: 309
1407769: 312
140952c: 320
1406bfe: 323
4f97bc: 337
140e632: 343
f30d21: 345
1409b0b: 355
1406984: 365
1403e05: 368
1409487: 371
140f420: 376
1407759: 378
92f9dd: 379
932f52: 381
92f80b: 382
1408170: 388
1406980: 388
140e659: 389
140e62d: 391
14076b5: 395
14039f3: 396
1403375: 397
1409519: 408
f30d14: 416
14039fb: 417
140ac78: 442
1406507: 465
92f808: 467
4f97c2: 468
140d003: 469
140c2f4: 478
140e66c: 483
140f1a9: 494
14094bc: 520
529cd8: 525
4f9962: 547
1409499: 547
1407670: 558
1408184: 559
8df254: 560
140f1a4: 566
508258: 567
4f97b6: 572
1403e65: 578
52ac26: 583
140e1d0: 585
1407697: 588
8e9cd0: 600
140774f: 602
140aa50: 614
14094d4: 616
92f7fc: 617
1411d0f: 642
50783b: 645
140ac55: 656
14064c0: 660
1408175: 665
50739c: 669
140a613: 672
140c301: 681
140767d: 687
507396: 709
1409fe0: 740
1411cd5: 752
14064fa: 777
1409be9: 792
140f423: 795
931399: 805
140e693: 812
140e6a6: 836
140651e: 857
8f70bd: 882
508230: 891
8f70b4: 924
1411cdd: 932
140ac60: 972
4f97c8: 982
92f7f0: 989
1406553: 1002
f30ad6: 1080
1406558: 1091
1409bed: 1100
140a610: 1105
1404390: 1110
8f73be: 1113
528e70: 1153
507390: 1185
508896: 1192
8f73b4: 1237
50783e: 1240
140e69a: 1260
f312dc: 1267
140439e: 1297
4f97b0: 1298
1406bf0: 1302
1406533: 1355
507830: 1358
14064b8: 1398
4f9a90: 1399
1411cf9: 1444
140e164: 1447
141107d: 1498
1411074: 1545
14108d8: 1583
930d69: 1614
1403e16: 1676
9306c0: 1732
140e679: 1746
140e16d: 1760
1403e40: 1779
1411965: 1813
140e665: 1819
930095: 1846
140bec4: 1855
14108ca: 1865
14120d0: 1940
140e686: 1957
92d045: 1986
140bece: 2006
1411079: 2025
92e228: 2031
1411070: 2033
14115e5: 2058
930090: 2084
1403290: 2086
140aa62: 2086
528e7c: 2091
1403e5a: 2217
93009e: 2234
f30d10: 2278
1403e30: 2298
140e160: 2323
140bec0: 2359
140e169: 2381
141196d: 2424
507838: 2519
14115ed: 2599
14120d5: 2624
930099: 2642
14108fa: 2655
140bec9: 2665
8dfcf8: 2691
140aa68: 2696
14064e7: 2709
528e82: 2740
1403294: 2761
930d63: 2777
1403634: 2785
1403630: 2792
92e21b: 2794
8dff2a: 2806
1411cfe: 2933
14108ff: 2947
8f70d1: 3005
140329f: 3034
8f7102: 3058
8f73d3: 3061
8f7401: 3085
8f70e4: 3103
8f73e4: 3150
931393: 3197
14084b0: 3261
936b60: 3322
936600: 3402
92d056: 3412
9368c0: 3502
8e74e0: 3612
140aa8e: 3695
14032af: 3979
8df4e1: 4232
1411d0a: 4482
1408204: 4591
1410904: 4784
140aa78: 4932
14032a3: 4981
8df4c0: 5379
8df23e: 5433
1409f72: 6082
140aa7d: 6421
14032b5: 6975
1409f60: 7186
5073a2: 8425
8e09f9: 9126
8e0810: 9148
f312d5: 9154
8e09f0: 9175
8e081a: 9253
5073a8: 11875
5073ad: 14589
5073b3: 26426
8e7620: 41842
8e7320: 46318
L1I TOTAL     ACCESS:   35348855  HIT:   35342692  MISS:       6163  HIT %:    99.9826  MISS %:  0.0174348   MPKI: 0.030815
L1I Test counter:          0
L1I LOAD      ACCESS:   35348855  HIT:   35342692  MISS:       9183  HIT %:    99.9826  MISS %:  0.0174348   MPKI: 0.030815
L1I PREFETCH  REQUESTED:          0  ISSUED:          0  USEFUL:          0  USELESS:          0
L1I USEFUL LOAD PREFETCHES:          0 PREFETCH ISSUED TO LOWER LEVEL:          0  ACCURACY: -nan
L1I TIMELY PREFETCHES:          0 LATE PREFETCHES: 0 DROPPED PREFETCHES: 0
L1I COMMIT LATE PREFETCHES: 0 MISSED OPPORTUNITY: 0 LATE IN PQ: 0 UNCOVERED: 0
L1I COMMIT LATE MSHR PREFETCHES: 0
L1I MPKI TOTAL: 0.045915 MSHR LATE: 0 PQ LATE: 0 COMMIT LATE: 0 MISSED OPPORTUNITY: 0 UNCOVERED: 0
L1I PREFETCHES SAME FILL-ORIGIN LEVEL: 0 DIFFERENT FILL-ORIGIN LEVEL: 0
L1I AVERAGE MISS LATENCY: 223.311 cycles
L1I AVERAGE MISS LATENCY LOAD: 223.311 cycles
L1I AVERAGE MISS LATENCY PREFETCH: -nan cycles
L1I AVERAGE MSHR OCCUPANCY: 0.000231529
L1I MSHR FULL: 0
L1I RQ	ACCESS:   53216825	FORWARD:          0	MERGED:   17864950	TO_CACHE:   35351875

504180: 1
1513582: 1
931400: 1
8f0142: 1
506ff8: 1
936b01: 1
503e00: 1
503e46: 1
504107: 1
504142: 1
f31042: 1
936f00: 1
1503707: 1
51c282: 1
1513a41: 1
504303: 1
504444: 1
a96240: 1
140c982: 1
14fa1c0: 1
50114b: 1
f380c0: 1
1403c02: 1
930bc0: 1
f38284: 1
14fa4c0: 1
1516fa3: 1
92f547: 1
acef03: 1
4f7e07: 1
14fa300: 1
1411fc3: 1
b3e820: 1
14fac46: 1
140b402: 1
f38601: 1
936901: 1
1508906: 1
931142: 1
140ee00: 1
507e02: 1
506e46: 1
506f00: 1
8e9ee6: 1
14faf81: 1
140d802: 1
f2e620: 1
92fa40: 1
140db01: 1
14fbf45: 1
506e05: 1
51ac06: 1
508047: 1
5080c1: 1
508102: 1
508140: 1
930d07: 1
14fc385: 1
140df84: 1
b73cc5: 1
51a604: 1
5074c2: 1
140efc1: 1
140d743: 1
92f880: 1
507000: 1
5070c3: 1
507145: 1
140d502: 1
507781: 1
507fc1: 1
507304: 1
930986: 1
15135c1: 1
f31081: 1
f310c3: 1
507400: 1
507186: 1
f30fc7: 1
52ab00: 1
14125be: 1
f34885: 1
1412643: 1
52a680: 1
f34942: 1
1412700: 1
1508ed0: 1
1508fc0: 1
1509047: 1
f34800: 1
150910f: 1
1509200: 1
1509250: 1
931342: 1
1509280: 1
ac0c60: 1
15092c0: 1
8f0347: 1
1509310: 1
1412084: 1
92ff00: 1
14fc207: 1
1411e87: 1
529e83: 1
1411f03: 1
1411f83: 1
b73c83: 1
1412002: 1
14fc405: 1
1509e06: 1
14120c1: 1
1412102: 1
14fc505: 1
1412140: 1
930ec5: 1
1412180: 1
14121c2: 1
14fc5c5: 1
14125c3: 1
930dc0: 1
b40e89: 1
150d4c0: 1
150d541: 1
1404333: 1
150d606: 1
f38204: 1
150d684: 1
932981: 1
f32bc2: 1
140afc7: 1
140b604: 1
a96447: 1
51a547: 1
f318e0: 1
ac0d45: 1
528b01: 1
51c786: 1
1404806: 1
507e43: 1
aced20: 1
140b3c1: 1
92d3c2: 1
150b3c5: 1
5285c6: 1
150be82: 1
150d276: 1
150d286: 1
930842: 1
150d342: 1
508301: 1
528242: 1
aced80: 1
acedc2: 1
acee50: 1
ad0800: 1
14fa541: 1
b3e842: 1
b3fb45: 1
f31104: 1
15156bb: 1
939900: 1
15f3cfe: 1
528802: 1
14faf44: 1
f30e06: 1
1403c42: 1
f30e41: 1
140eec2: 1
51b586: 1
15136c0: 1
f31180: 1
a5c0c0: 1
140f002: 1
931003: 1
a5c141: 1
523905: 1
15088c7: 1
f31344: 1
930241: 1
f30086: 1
92ffc0: 1
14fa685: 1
140e0c0: 1
9300c1: 1
f30302: 1
140e100: 1
f30342: 1
1515e81: 1
92f4c1: 1
f304c3: 1
f30541: 1
f30603: 1
5086c1: 1
f30684: 1
ac4537: 1
f306c1: 1
14fab45: 1
508783: 1
f384c0: 1
1511a84: 1
1513504: 1
140edc1: 1
1513543: 1
15137c6: 1
9315c3: 1
92d184: 1
92d1c1: 1
92d202: 1
ac0e03: 1
92d2c2: 1
8f0104: 1
92d301: 1
92d380: 1
1626641: 1
f349c2: 1
140bfc0: 1
92dfc1: 1
1515983: 1
8df142: 1
92f8c3: 1
51c502: 1
f31781: 1
1669eff: 1
4f9682: 1
9386c4: 1
8dee01: 1
8def00: 1
8df101: 1
1515b86: 1
8df182: 1
938684: 1
1403cc1: 1
8df303: 1
1403e00: 1
8df442: 1
1511a76: 1
140d302: 1
8ef540: 1
4f9300: 1
4f9500: 1
1503ac4: 1
4f95c1: 1
51b440: 1
f38446: 1
4f9603: 1
932887: 1
14f9410: 1
1503803: 1
8f0207: 1
1503a84: 1
4f9581: 1
8ef680: 1
8df081: 1
932e06: 1
932940: 1
f32b81: 1
f32c05: 1
14fc845: 1
508404: 1
508443: 1
140e241: 1
5084c0: 1
931c90: 1
1508f5d: 1
14fc685: 1
930402: 1
508680: 1
f383c4: 1
508670: 1
930601: 1
14fbe41: 1
4f7fc3: 1
14fc8c5: 1
15d8100: 1
4f85a5: 1
140d483: 1
93a441: 1
166a4c0: 1
1515a47: 1
939842: 1
150e783: 1
a96501: 1
8fa4c0: 1
8ef503: 1
1503a44: 1
f2e681: 1
8ef640: 1
8fa5c2: 1
528701: 1
166a140: 1
14fad43: 1
8ef904: 1
14fa340: 1
507f02: 1
f2ff00: 1
1515ac1: 1
f30047: 1
150d5c7: 1
930d82: 1
528984: 1
f32c46: 1
f38405: 1
8fa330: 1
150d50a: 1
8fa344: 1
8ef3c6: 1
8fa3c2: 1
f30141: 1
8ef444: 1
8fa400: 1
8fa444: 1
51a6c2: 1
8fa480: 1
8fa543: 1
8fa581: 1
931f80: 1
15138c1: 1
15035c7: 1
8ef184: 1
140b801: 1
52ad03: 1
140c505: 1
1508f00: 1
140db43: 1
150be59: 1
1503641: 1
936dc0: 1
1411703: 1
1513740: 1
ae8547: 1
140bf01: 1
140ae42: 1
1513899: 1
528d40: 1
f38100: 1
1404501: 1
930200: 1
4f94c2: 1
140c600: 1
931d01: 1
14fc4c5: 1
140bec0: 1
1517dc6: 1
f34846: 1
a5f784: 1
508342: 1
939182: 1
939440: 1
14f9e84: 1
9397c1: 1
5289c1: 1
90cd83: 1
140ae85: 1
939540: 1
901b41: 1
504081: 1
150d380: 1
508586: 1
930444: 1
1515f01: 1
5296c0: 1
1515ec2: 1
1411740: 1
1411800: 1
14fc805: 1
15090dd: 1
932a80: 1
1404603: 1
1404742: 1
1509081: 1
aced41: 1
932d40: 1
1403b45: 1
90cec5: 1
529f44: 1
936c03: 1
938883: 1
14faa01: 1
1404685: 1
51c701: 1
140d787: 1
528681: 1
8ef287: 1
ac0d04: 1
140b5c1: 1
937c00: 1
529f07: 1
14fb281: 1
92e087: 1
16267b0: 1
1411d87: 1
140de82: 1
92fe83: 1
15037c4: 1
92d243: 1
933085: 1
f37f00: 1
939700: 1
140c0a9: 1
8fa500: 1
92e005: 1
528b43: 1
937724: 1
1503585: 1
52a442: 1
f300c7: 1
508001: 1
140dd02: 1
ac0d81: 1
140b940: 1
52a4c8: 1
14fa702: 1
140ccc6: 1
14f9d01: 1
939601: 1
8df541: 1
507441: 1
140e202: 1
a5f777: 1
140b20a: 1
140edb9: 1
14faace: 1
507040: 1
140b500: 1
1403dc2: 1
51a685: 1
932341: 1
52ac42: 1
939640: 1
a5f843: 1
51a503: 1
52ab84: 1
9329c5: 1
528641: 1
140cf24: 1
46f700: 1
140db81: 1
140ca02: 1
1503785: 1
1402d81: 1
140d6c7: 1
14facc1: 1
140d000: 1
140ad90: 1
a5c184: 1
a5c240: 1
528400: 1
140e341: 1
529dc2: 1
1411e42: 1
140de01: 1
15170d4: 1
508080: 1
90cc42: 1
1503a04: 1
150d404: 1
f30641: 1
b73bf0: 1
529800: 1
1411880: 1
936d81: 1
f30181: 1
92d100: 1
b74298: 1
9392c3: 1
93a436: 1
14fae03: 1
528a42: 1
14f9b03: 1
51c741: 1
14047c1: 1
14f9b42: 1
a96283: 1
140da00: 1
14113c0: 1
4f9443: 1
504400: 1
529ec7: 1
1508dc3: 1
14112c0: 1
a97430: 1
508187: 1
1411303: 1
1411340: 1
1508d02: 1
1411401: 1
1411440: 1
1411482: 1
1515c43: 1
14114c1: 1
1411502: 1
1516fc0: 1
1411541: 1
14115c1: 1
1503845: 1
528e82: 1
932f03: 1
504043: 1
9311c0: 1
1508984: 1
1508a41: 1
1508a86: 1
51c3c0: 1
1508bc2: 1
1515dc2: 1
4f9342: 1
51c400: 1
1404480: 1
1508c02: 1
1508c42: 1
51c480: 1
1508c82: 1
1503905: 1
4f9402: 1
1411c02: 1
1404842: 1
140da81: 1
1411b05: 1
1411b43: 1
1411b87: 1
1517645: 1
1503600: 1
1411bc2: 1
51c8c2: 1
1411ac2: 1
15176c0: 1
529bc0: 1
1411c40: 1
1411cc1: 1
14fc0c4: 1
1411dc0: 1
150c900: 1
f38187: 1
1411e04: 1
1411845: 1
1411640: 1
140cb34: 1
1411685: 1
92f781: 1
529645: 1
14116c5: 1
150a8f3: 1
1411780: 1
14117c2: 1
8defc2: 1
14118c4: 1
92f9c0: 1
1411901: 1
14119c0: 1
1411a04: 1
92fb00: 1
1411a41: 1
1411a82: 1
14f950a: 1
938856: 1
92fec4: 1
140c1c1: 1
140c240: 1
1508f80: 1
92f760: 1
1515547: 1
529e10: 1
51b480: 1
529c84: 1
140d8c1: 1
140e004: 1
14f95d6: 1
931e05: 1
1411f40: 1
b73c01: 1
f34901: 1
ae916d: 1
1403f02: 1
140e182: 1
931fc2: 1
1626220: 1
140cd83: 1
8fa380: 1
1626582: 1
140b4c0: 1
15d6520: 1
14126c0: 1
150d2c0: 1
1513641: 1
b75602: 1
529f85: 1
4f9540: 1
52a042: 1
1503b00: 1
528c42: 1
932cc3: 1
937ac3: 1
15d8007: 1
1411602: 1
1402e46: 1
ae9dd7: 1
1402ec2: 1
8efa07: 1
930943: 1
140af87: 1
14fc9c5: 1
14fa804: 1
504341: 1
8ef205: 1
1508cc2: 1
1404540: 1
930644: 1
14fa943: 1
1404780: 1
1510250: 1
140be45: 1
1508840: 1
932244: 1
51c682: 1
140ca80: 1
140b901: 1
14049c1: 1
1517205: 1
14fa845: 1
1516483: 1
14fb270: 1
930384: 1
1411982: 1
92e105: 1
1404702: 1
1403e80: 1
14fc585: 1
1402dc0: 1
1402e07: 1
51bf45: 1
1403fc5: 1
14fa644: 1
931086: 1
140ef00: 1
1513682: 1
930f01: 1
930f44: 1
930f84: 1
51bf87: 1
930fc5: 1
931043: 1
1513807: 1
930e83: 1
931244: 1
931303: 1
9313c6: 1
931440: 1
140f4c0: 1
9314c1: 1
931500: 1
931581: 1
140b304: 1
1509b60: 1
930783: 1
9307c1: 1
930883: 1
140e8c0: 1
9308c1: 1
140e902: 1
930903: 1
9309c2: 1
930a42: 1
f38503: 1
930a81: 1
930ac0: 1
930b87: 1
930c82: 1
937880: 1
14fc300: 1
930d40: 1
930e05: 1
1403ec5: 1
92d0c2: 1
8efd84: 1
92cf80: 1
14fab99: 1
92cfc0: 1
14f9f50: 1
92d002: 1
936803: 1
8efe44: 1
92d040: 1
92cf42: 1
14f9f34: 1
8df043: 1
14f9f90: 1
14f9fc6: 1
14fa010: 1
930b02: 1
14fa0d3: 1
14fa10d: 1
14fa19b: 1
930100: 1
1517182: 1
92feb0: 1
92ff42: 1
92ff82: 1
930004: 1
140b881: 1
523801: 1
528fc0: 1
930043: 1
14fbdc0: 1
f38583: 1
92ce41: 1
f34483: 1
92ce81: 1
92cec0: 1
9366c1: 1
8efd02: 1
92cf00: 1
1412681: 1
5287c0: 1
932841: 1
140b081: 1
92d082: 1
52a402: 1
f346c4: 1
9328c1: 1
932a40: 1
8f00c3: 1
9327c0: 1
f348c3: 1
932ac4: 1
528ac1: 1
932b42: 1
932b80: 1
f34a03: 1
932bc1: 1
932c80: 1
932e48: 1
932480: 1
9320c2: 1
932100: 1
932180: 1
932285: 1
9322c1: 1
1516684: 1
f34144: 1
932401: 1
932442: 1
932e81: 1
932502: 1
932540: 1
936582: 1
8efbc3: 1
932643: 1
528600: 1
932681: 1
932741: 1
8efdc4: 1
930501: 1
9301c4: 1
930285: 1
f30502: 1
9302c1: 1
930304: 1
930344: 1
51b383: 1
9303c1: 1
9304c2: 1
930181: 1
f30786: 1
930545: 1
9305c1: 1
930680: 1
9306c0: 1
930701: 1
140e741: 1
930742: 1
4f9644: 1
f34f83: 1
932ec7: 1
b75550: 1
1516601: 1
f340c1: 1
933042: 1
f34ec5: 1
9330c0: 1
f34f43: 1
933100: 1
14fa240: 1
933145: 1
9331c0: 1
933200: 1
933241: 1
529301: 1
933382: 1
f38482: 1
930170: 1
f34640: 1
f341c7: 1
f34200: 1
f34246: 1
52a0c1: 1
f34383: 1
f34500: 1
f34541: 1
f34601: 1
92df93: 1
f34100: 1
f34780: 1
901ac0: 1
901b04: 1
f34980: 1
f34e45: 1
f34f05: 1
51a4c1: 1
51a642: 1
523728: 1
14fc6c5: 1
14fc142: 1
14fc181: 1
14fc1c0: 1
14fc246: 1
14fc283: 1
14fc3c5: 1
14fc445: 1
14fc485: 1
14fc545: 1
140b7c2: 1
150901d: 1
14fc745: 1
f37f46: 1
14fc785: 1
14fc7c5: 1
140af02: 1
14fc940: 1
501180: 1
1516640: 1
528cc0: 1
528507: 1
528540: 1
528582: 1
528740: 1
528883: 1
5288c2: 1
528a06: 1
528b85: 1
528c81: 1
5284c4: 1
150d783: 1
528d08: 1
528fa0: 1
529046: 1
529002: 1
150a905: 1
5290c0: 1
529103: 1
529140: 1
932147: 1
938780: 1
523742: 1
523782: 1
5237c5: 1
523844: 1
523880: 1
525757: 1
527ffe: 1
528043: 1
14fc080: 1
5280c6: 1
528106: 1
528141: 1
5281c0: 1
528201: 1
528306: 1
a5f883: 1
5283c2: 1
14fa9c2: 1
14fa781: 1
14fa7c0: 1
14fa881: 1
8ef482: 1
14fa8c1: 1
150d645: 1
14fa901: 1
14fa984: 1
5282c2: 1
14fa747: 1
8ef860: 1
8ef881: 1
8ef945: 1
936400: 1
8efa41: 1
8efa82: 1
1412040: 1
f34282: 1
8efb43: 1
528340: 1
14fa280: 1
14fa2d0: 1
14fa390: 1
14fa450: 1
90cd42: 1
14fa480: 1
14fa582: 1
a5c104: 1
9323c1: 1
936541: 1
a5c282: 1
a5c2c3: 1
8ef1c1: 1
14fa600: 1
14fa6c3: 1
b679c1: 1
b67a00: 1
b6d451: 1
15d65c3: 1
528782: 1
936d43: 1
8f0384: 1
14fab00: 1
14fabd6: 1
14fac00: 1
14fac80: 1
14fad02: 1
14fae44: 1
ae8470: 1
504004: 1
936442: 1
14faec2: 1
14faf03: 1
14fbe00: 1
14fbe80: 1
14fbf06: 1
14fbf84: 1
14fbfc3: 1
14fc041: 1
8efe85: 1
8efb82: 1
9365c0: 1
8efc01: 1
8efc42: 1
f34442: 1
8efc82: 1
8efcc4: 1
8efd40: 1
8efe03: 1
932042: 1
8efec3: 1
8eff45: 1
8eff86: 1
8f0040: 1
8f0082: 1
8f01c4: 1
8f02c4: 1
8f0301: 1
b75581: 1
14fa147: 1
1515843: 1
1515884: 1
b76200: 1
52a200: 1
f344c2: 1
b76284: 1
b762c5: 1
9326c1: 1
1515802: 1
b76e9c: 1
1515903: 1
1515940: 1
15159c8: 1
1403d01: 1
b755c5: 1
140c0c6: 1
b75c03: 1
b75bf8: 1
15157c5: 1
ac4602: 1
ac4640: 1
ac4683: 1
ac46c3: 1
15156c3: 1
1515702: 1
1515743: 1
933003: 1
1515784: 1
b761ec: 1
b47880: 1
51c348: 1
931386: 1
b478c4: 1
b493c4: 1
8ef8c4: 1
b4aed2: 1
8efac0: 1
f342c0: 1
8ef7c4: 1
931d80: 1
8ef4c7: 1
931e44: 1
8ef5c0: 1
8e9e01: 1
8ef6c7: 1
8ef700: 1
8ef741: 1
8ef782: 1
8ef403: 1
8ef805: 1
1515f4d: 1
1515fc4: 1
939580: 1
15163da: 1
140eac4: 1
14fa096: 1
1516403: 1
15164c1: 1
14f9981: 1
14faa42: 1
1411380: 1
1515b02: 1
b748c1: 1
b74f48: 1
b7553c: 1
1515c02: 1
b73c42: 1
1515cc5: 1
932b02: 1
529602: 1
1515e04: 1
1515e40: 1
8ef141: 1
8ef2c7: 1
8ef344: 1
8ef385: 1
507340: 1
140c103: 1
92f947: 1
932805: 1
15f3c80: 1
1515484: 1
1515a02: 1
933281: 1
f345c3: 1
1626242: 1
1626281: 1
92f902: 1
1626430: 1
1626447: 1
52a540: 1
1626481: 1
1412600: 1
16264c1: 1
939041: 1
1626507: 1
16265c0: 1
92f442: 1
92e180: 1
92e1c0: 1
140c2c1: 1
92e2c2: 1
92e342: 1
14f99c0: 1
92f378: 1
ae84c3: 1
92f407: 1
52a6c2: 1
92f480: 1
92f501: 1
92f587: 1
51a5c2: 1
92f600: 1
92f644: 1
92f682: 1
92f7c2: 1
92f802: 1
ac0dc0: 1
1513a85: 1
151543a: 1
14fae86: 1
b748a0: 1
1515580: 1
14f9ec5: 1
15155c3: 1
ac0c81: 1
ac0cc1: 1
1513a05: 1
14fbec7: 1
ac0e41: 1
92f3c1: 1
ac0ec1: 1
92f380: 1
ac0e80: 1
ac0f02: 1
ac0f40: 1
528a81: 1
92fa80: 1
1626603: 1
150de40: 1
1515bc7: 1
1626703: 1
1626742: 1
5085c4: 1
1517618: 1
92f983: 1
92fa02: 1
1516544: 1
b768a8: 1
92fac2: 1
1626800: 1
939380: 1
1626681: 1
92fb40: 1
92fe71: 1
931284: 1
939781: 1
939141: 1
9392b9: 1
939302: 1
939340: 1
9394c0: 1
939504: 1
939684: 1
b76243: 1
9396c4: 1
9390c0: 1
939882: 1
f38141: 1
f381c7: 1
9363c2: 1
930c41: 1
f382c5: 1
936481: 1
9364c3: 1
936500: 1
140ae02: 1
f37ec6: 1
8df401: 1
90cc10: 1
9325c0: 1
90cd01: 1
90ce40: 1
90ce80: 1
b74901: 1
f37fc3: 1
936600: 1
f38001: 1
f38080: 1
140b842: 1
938800: 1
93901e: 1
936a83: 1
140f2c3: 1
9312c4: 1
939082: 1
f38306: 1
936a00: 1
936a45: 1
14fc904: 1
936ac7: 1
936bc0: 1
8f0283: 1
936c42: 1
f38244: 1
930c02: 1
931205: 1
14fc342: 1
f38347: 1
931cc0: 1
931d44: 1
931dc0: 1
931e81: 1
931ec1: 1
931f40: 1
932001: 1
9368c0: 1
930e41: 1
936681: 1
936702: 1
936744: 1
936782: 1
9367c0: 1
936880: 1
f31302: 1
9310c1: 1
14fc705: 1
931101: 1
936940: 1
1508945: 1
1513902: 1
150edb1: 1
931181: 1
936980: 1
9369c4: 1
51a480: 1
ae9286: 1
15174aa: 1
15174c1: 1
1517681: 1
1668cb0: 1
1517703: 1
a962c0: 1
a96380: 1
b6a722: 1
ae9246: 1
a963c2: 1
a964c1: 1
a96bc2: 1
a96c06: 1
a96c41: 1
1503b41: 1
f34345: 1
46f6e0: 1
a96cc4: 1
15171c0: 1
14fa200: 1
1516906: 1
1516b4f: 1
14f9b82: 1
939482: 1
1516da5: 1
1517104: 1
1517145: 1
14fadda: 1
a96cbc: 1
ae8481: 1
14fc2c6: 1
ae8503: 1
15087c1: 1
ae8585: 1
ae85c1: 1
ae8601: 1
ae9182: 1
930cc0: 1
8eae40: 1
932d80: 1
14f9900: 1
14f9942: 1
14f9a07: 1
1517747: 1
14f9a46: 1
14f9a85: 1
14f9ac4: 1
51c7c1: 1
1515501: 1
14f9c00: 1
14f9d41: 1
14f9d81: 1
14f9dc1: 1
14f9e01: 1
14f9e43: 1
14fa400: 1
90ccc2: 1
14f9f03: 1
1517934: 1
f343c0: 1
a96d02: 1
932583: 1
f34406: 1
a96d43: 1
8ef306: 1
a96d80: 1
932601: 1
a97440: 1
51c874: 1
1508742: 1
8ef110: 1
1518250: 1
8ef584: 1
15186c4: 1
14f93d9: 1
14f94db: 1
14f98c8: 1
140bb43: 1
1411ec0: 1
52a603: 1
140c301: 1
938642: 1
140b684: 1
92e302: 1
f31007: 1
b5c003: 1
ad08c1: 1
14fc984: 1
52a242: 1
150db01: 1
1404441: 1
140c907: 1
1508d41: 1
92e144: 1
1503984: 1
14f9c81: 1
150d580: 1
140d2c2: 1
9398c3: 1
1509190: 1
936e6d: 1
b58791: 1
150d301: 1
936b80: 1
140f241: 1
932dc0: 1
932c00: 1
140bcc5: 1
15086c0: 1
1503882: 1
14fa042: 1
932c42: 1
1508e4e: 1
150b3a8: 1
a96307: 1
140f080: 1
1404102: 1
140e802: 1
140cd41: 1
140bbc2: 1
140e7c1: 1
ae91c3: 1
140d5c5: 1
528f05: 1
f30f04: 1
937cc4: 1
140b702: 1
528c02: 1
8ef241: 1
140d647: 1
1503684: 1
f38544: 1
1516582: 1
ae9200: 1
140cf81: 1
1404382: 1
1516500: 1
140d380: 1
f34686: 1
14fad83: 1
f34a43: 1
8f0243: 1
140b101: 1
140f641: 1
140f400: 1
932382: 1
8df4c0: 1
1626370: 1
140b340: 1
92d341: 1
939742: 1
140d942: 1
92e040: 1
a96340: 1
a5f7c2: 1
140e6c3: 1
ad21fa: 1
933344: 1
14fc002: 1
15039c4: 1
16263a0: 1
140cc80: 1
f37f81: 1
1403b83: 1
140d880: 1
938703: 1
528f42: 1
140b742: 1
140bac2: 1
140be82: 1
140ba82: 1
16266c4: 1
140ba47: 1
52a783: 1
140ba05: 1
140dbc1: 1
140b8c3: 1
51c641: 1
140da40: 1
140bb05: 1
140b6c5: 1
528bc5: 1
507080: 1
140b585: 1
140b487: 1
14fa3c0: 1
f34585: 1
140c5c0: 1
52a2c3: 1
140b441: 1
140bd87: 1
1411941: 1
140c141: 1
92d282: 1
8df001: 1
ad07d4: 1
140c000: 1
140d1c5: 1
140bf42: 1
140be04: 1
140bdc1: 1
140b387: 1
140bd40: 1
937001: 1
140bc44: 1
140f140: 1
1404183: 1
936842: 1
140bb85: 1
a5c1c0: 1
5238c6: 1
1508780: 1
140aec4: 1
1404940: 1
92e201: 1
140e2c2: 1
51bf05: 1
1508b47: 1
1508707: 1
931482: 1
140c343: 1
140c640: 1
1508e81: 1
1508e02: 1
14044c7: 1
140adc1: 1
1503b82: 1
140b000: 1
aceec3: 1
acee82: 1
932d04: 1
15038c4: 1
a5f807: 1
931546: 1
932f83: 1
937840: 1
140ee47: 1
932081: 1
140e781: 1
150ea80: 1
140b1c3: 1
1516440: 1
140b182: 1
1513601: 1
92f6c6: 1
528482: 1
140b147: 1
140d285: 1
930b40: 1
140af40: 1
a5c204: 1
ac4544: 1
92f706: 1
14fc645: 1
9387c1: 1
f34e85: 1
1411d41: 1
1515a83: 1
140ee85: 1
8eff06: 1
15139c1: 1
15158c5: 1
140b984: 1
140df03: 1
8f0181: 1
936b40: 1
1404404: 1
529cc1: 1
92e0c1: 1
14fc103: 1
15134c8: 1
b679b0: 1
ac45c1: 1
1503575: 1
140ea02: 1
930a03: 1
8ef60a: 1
92e242: 1
9391c0: 1
1515d82: 1
140dec2: 1
528941: 1
528842: 1
140f605: 1
f30582: 1
14048c0: 1
f30446: 1
14f9c41: 1
a96bad: 1
503fc1: 1
528080: 1
936d00: 1
528005: 1
1411580: 1
1515d02: 1
140e046: 1
92e281: 1
f30002: 1
1626541: 1
b54f42: 1
938600: 1
9363a0: 1
140b042: 1
140f486: 1
4f81ab: 1
140ef80: 1
528904: 1
1402e83: 1
f34e2d: 1
1513ac2: 1
932fc7: 1
f34090: 1
f37e80: 1
140b782: 1
1513780: 1
939802: 1
140eb00: 1
1508802: 1
1404080: 1
51c000: 1
15168db: 1
528180: 1
90cc83: 1
936c60: 1
51c540: 1
529084: 1
51c0c1: 1
1509b81: 1
14fc885: 1
9385e0: 1
1404200: 1
51c180: 1
f2e641: 1
51c446: 1
a62d97: 1
1402f05: 1
140c584: 1
14045c0: 1
140d703: 1
507102: 1
140bc82: 1
932781: 1
92d140: 1
8efb06: 1
938740: 1
140cb85: 1
51bec1: 1
52a842: 1
140b640: 1
1503746: 1
166a217: 1
528282: 1
140d098: 1
1513700: 1
140dc81: 1
140dc42: 1
933305: 1
f31140: 1
140d0c4: 1
150d444: 1
140b280: 1
508501: 1
1403d40: 1
939402: 1
140cd05: 1
1515440: 1
1515d42: 1
9393c2: 1
8eae00: 1
b5bffc: 1
140e402: 1
4f96c2: 1
932900: 1
14040c7: 1
140c8c0: 1
90cdc3: 1
140d246: 1
5286c2: 1
f305c1: 1
9321c1: 1
51c5c3: 1
937980: 1
f2e6c2: 1
acee05: 1
528383: 1
140f442: 1
1411d02: 1
140bd06: 1
140d105: 1
140bf86: 1
92f841: 1
f34747: 1
15154c4: 1
937a43: 1
ac4585: 1
140c940: 1
508540: 1
936643: 1
14fa500: 1
14faa94: 1
9332c3: 1
529242: 1
1508d82: 1
937744: 1
529401: 1
f34a82: 1
140b9c0: 1
14046c0: 1
15165c3: 1
140b246: 1
140bc00: 1
5040c1: 1
15089c3: 1
8f0000: 1
1669e80: 1
f347c7: 1
1404643: 1
8effc7: 1
150d3c3: 1
b768c2: 1
1508b01: 1
528441: 1
1404242: 1
930800: 1
51c881: 1
140c543: 1
f2e785: 1
16262c2: 1
1515c80: 1
ad0884: 1
1403f42: 1
1508b82: 1
930082: 1
ad0840: 1
51c580: 1
937b02: 1
937a01: 1
932f43: 1
140f040: 1
52ad82: 1
140ef46: 1
51a7c0: 1
51a9c0: 1
936e02: 1
1508880: 1
1403d81: 1
937b41: 1
140ea46: 1
937b81: 1
932301: 1
529484: 1
8ef984: 1
8df500: 1
140e5c1: 1
937bc2: 1
14041c7: 1
140f1c1: 1
1503bc7: 1
52ace2: 1
9377c1: 1
937940: 1
15036c0: 1
529fc3: 1
1411c82: 1
9379c0: 1
5293c2: 1
140f184: 1
140f101: 1
140f0c2: 1
52ad42: 1
52946e: 1
9378c0: 1
140e987: 1
1513845: 1
937c83: 1
140e581: 1
937c41: 1
140f301: 1
9324c4: 1
930481: 1
140e542: 1
8e9dc0: 1
5297c0: 1
140e4c3: 1
1509141: 1
8df0c2: 1
4f9783: 1
1508ac6: 1
8dee42: 1
9385c4: 1
140e482: 1
140f5c5: 1
140dd47: 1
5292c6: 1
f34184: 1
937a84: 1
51a9a1: 1
140e945: 1
8ef840: 1
51ab9b: 1
51ac45: 1
140e883: 1
51aff1: 1
52abc0: 1
937901: 1
f34305: 1
140e842: 1
51b006: 1
51b3c1: 1
140e730: 1
937800: 1
140e601: 1
52a742: 1
1404281: 1
1626301: 1
1404142: 1
90ce02: 1
52a642: 1
1404040: 1
1404003: 1
14fa5c5: 1
52a701: 1
1509dfe: 1
936e84: 1
52a282: 1
52a7c5: 1
936ec1: 1
1403f80: 1
1403e40: 1
52a800: 1
52a881: 1
52a502: 1
52a484: 1
f30100: 1
1404982: 1
52a341: 1
14f9cc1: 1
52a300: 1
9395c1: 1
52a386: 1
1404905: 1
52a3c1: 1
936f85: 1
52a582: 1
16267c1: 1
1404586: 1
14043c6: 1
ac7cac: 1
52a5c0: 1
936cc7: 1
1404340: 1
15d65b0: 1
140f500: 1
939103: 1
140d682: 1
52a9c0: 1
f34701: 1
140f387: 1
140f342: 1
52aa01: 1
8fa603: 1
52a986: 1
92ce20: 1
140f282: 1
52aa80: 1
140f200: 1
52a084: 1
52aac2: 1
52a003: 1
52ab40: 1
1403b04: 1
936fc3: 1
932200: 1
52a1c6: 1
933183: 1
52a8c2: 1
1403c85: 1
1403bc1: 1
937783: 1
8df340: 1
932a07: 1
1503944: 1
140ea82: 1
52a900: 1
8ef9c0: 1
140f540: 1
52a181: 1
52a106: 1
52a945: 1
140e9c5: 1
51c240: 1
140e642: 1
140d4c3: 1
52ac01: 1
529c43: 1
b74942: 1
f38380: 1
140cb44: 1
529c00: 1
1404881: 1
140d444: 1
140d3c2: 1
150d6c1: 1
140d341: 1
140d204: 1
151394b: 1
140cbc2: 1
140d581: 1
51c6c7: 1
140d601: 1
92f5c5: 1
51c140: 1
51c1c5: 1
14fc605: 1
529544: 1
529585: 1
140e304: 1
f30407: 1
140ca43: 1
936c81: 1
51c203: 1
140d543: 1
5295c5: 1
140e1c5: 1
930581: 1
528d80: 1
51c4c1: 1
528dc0: 1
1515f87: 1
140cdc0: 1
51c603: 1
51a587: 1
140de45: 1
1412740: 1
140ddc1: 1
140cc42: 1
140cc06: 1
529680: 1
508603: 1
932700: 1
4f7e45: 1
140dcc3: 1
140cfc2: 1
140d185: 1
529703: 1
150d484: 1
140d145: 1
528e06: 1
140b540: 1
f38042: 1
140e141: 1
1668945: 1
b3fb36: 1
51c2c7: 1
529d01: 1
503f01: 1
51c301: 1
140cf42: 1
529d96: 1
1515b46: 1
140c281: 1
14f9bc6: 1
140d400: 1
f2ffc1: 1
f320c0: 1
501300: 1
51bea8: 1
150de00: 1
140f3c0: 1
52aa42: 1
140e084: 1
529344: 1
529385: 1
529e43: 1
140f585: 1
140dfc2: 1
150e6c5: 1
140e446: 1
a96480: 1
140c182: 1
5291c3: 1
140e3c6: 1
140c204: 1
140b2c0: 1
529280: 1
529784: 1
528ec0: 1
140e502: 1
51b404: 1
140e382: 1
529202: 1
140e285: 1
51c383: 1
140e680: 1
140d9c0: 1
51bfc3: 1
51c045: 1
931f04: 1
140d980: 1
51c080: 1
5294d1: 1
140d904: 1
140df45: 1
51c105: 1
1402f22: 1
529505: 1
140d843: 1
140d7c2: 1
f385c4: 1
529743: 1
528e43: 1
140dac2: 1
150c8f8: 1
52a140: 1
15091c0: 1
140dc01: 1
92d405: 1
51abc4: 1
1508a02: 1
140dd86: 1
936f41: 1
1515297: 1
140c9c2: 1
1513985: 1
1410b01: 2
8f6780: 2
1508380: 2
1402fc0: 2
1505e04: 2
8f7102: 2
8f7147: 2
1505d86: 2
8f6f81: 2
1409940: 2
8f6e40: 2
1410846: 2
8f6dc2: 2
1505944: 2
1504480: 2
1406f01: 2
8f6cc1: 2
8df900: 2
8f6ec1: 2
1508443: 2
8f6c42: 2
1508402: 2
8f6bc4: 2
1505bc5: 2
8f68c0: 2
15082c2: 2
8f6fc0: 2
8f6b82: 2
1506500: 2
8f7081: 2
1507e81: 2
8f6b45: 2
8f69c1: 2
1507782: 2
8dfc04: 2
1507742: 2
1410a82: 2
8dfb41: 2
8f6902: 2
1506c85: 2
8df641: 2
1408d01: 2
1507ac3: 2
1403100: 2
140a805: 2
1507200: 2
8e0841: 2
14095c0: 2
140a881: 2
140a984: 2
1507605: 2
8f6f41: 2
8f6e85: 2
8e07c0: 2
1406880: 2
8e0882: 2
8e0440: 2
8f6f02: 2
1407608: 2
1504fc0: 2
1405803: 2
140a901: 2
1404a20: 2
1408780: 2
1405982: 2
1406685: 2
140abc2: 2
1504714: 2
15050c0: 2
140a083: 2
1406203: 2
140a2c3: 2
b53812: 2
1403840: 2
140a443: 2
1507686: 2
14054c1: 2
1409e41: 2
1504981: 2
8e0483: 2
ad4144: 2
140a4c3: 2
140a504: 2
1409341: 2
1504903: 2
1411082: 2
140a340: 2
1403444: 2
1504e80: 2
8e0300: 2
8e0540: 2
1408820: 2
140a580: 2
8f6481: 2
1506ec2: 2
1402d01: 2
1508041: 2
1506f10: 2
8f6843: 2
1506f40: 2
8f66c2: 2
1406d00: 2
8e0703: 2
15070c2: 2
1409bc3: 2
8e7656: 2
14034c2: 2
8f67c0: 2
1505b02: 2
8f64c0: 2
14110c3: 2
1507d44: 2
8f6540: 2
1411143: 2
1403801: 2
1410882: 2
8e0684: 2
8f6580: 2
8f6602: 2
8f6707: 2
1505100: 2
140ac84: 2
14088c0: 2
14107c0: 2
1504ed0: 2
1504f02: 2
1505783: 2
1506a02: 2
15057c2: 2
8e7641: 2
14086c1: 2
1504f80: 2
1406705: 2
8f6744: 2
1505250: 2
1406600: 2
ad23c0: 2
1404fc1: 2
140a001: 2
15052c0: 2
ad2340: 2
1408f03: 2
156ba17: 2
1409041: 2
1506e82: 2
1405283: 2
1507c43: 2
1505903: 2
1505c46: 2
1408247: 2
8dfa83: 2
1406781: 2
1506a80: 2
1409703: 2
8e7405: 2
1508100: 2
140aa40: 2
8e7501: 2
8e6482: 2
1410582: 2
15078c4: 2
8e0342: 2
1405643: 2
1410600: 2
1406f42: 2
8e0601: 2
1507f86: 2
1505059: 2
1507fc7: 2
1507706: 2
8df881: 2
8dfbc1: 2
15081c5: 2
1504741: 2
1409c01: 2
8e0902: 2
156b7e0: 2
1410904: 2
1409183: 2
14091c5: 2
ad22c1: 2
1409206: 2
1403745: 2
8e09c2: 2
1405380: 2
ad2387: 2
8df701: 2
ad4187: 2
1507c02: 2
14032c3: 2
14087c2: 2
1507c84: 2
14071c7: 2
1505726: 2
8e751b: 2
b520e0: 2
1407c44: 2
1508507: 2
1507e02: 2
b54ef1: 2
1507d87: 2
1507dc1: 2
1405402: 2
1407447: 2
1505190: 2
1507b02: 2
1403380: 2
1408982: 2
14033c1: 2
1507b43: 2
8f7343: 2
1404d86: 2
1404e02: 2
1403303: 2
1407783: 2
1507845: 2
1406003: 2
ad2210: 2
8f6a40: 2
1410501: 2
8f6b00: 2
8df803: 2
1410642: 2
15075d0: 2
1411041: 2
1407203: 2
14108c0: 2
1405903: 2
1405a82: 2
1405bc2: 2
8f70c2: 2
8f6802: 2
ad6e04: 2
1508606: 2
150868f: 2
1408b80: 2
ad41c0: 2
15064c0: 2
1409c86: 2
1508482: 2
8dfd41: 2
b54f01: 2
1406146: 2
1508245: 2
8dfe01: 2
ad2241: 2
ad6142: 2
140ab02: 2
1409404: 2
140ab81: 2
1508206: 2
1407080: 2
1407dc2: 2
1505d02: 2
8df601: 2
1407d43: 2
1407cc4: 2
1410941: 2
1507a40: 2
1409e80: 2
8df940: 2
8df983: 2
1409a01: 2
1405845: 2
8df9c1: 2
8f6e01: 2
8dfa02: 2
8dfa40: 2
8dfac3: 2
1503f90: 2
1402f41: 2
1504843: 2
1406ba0: 2
1504942: 2
1407742: 2
15049c0: 2
1505e43: 2
8dfe82: 2
8dfec0: 2
15066c0: 2
ad6080: 2
1409f40: 2
8dff00: 2
15065c0: 2
1407306: 2
1405ac1: 2
1410481: 2
140ad03: 2
1507480: 2
8f7242: 2
8dfd02: 2
1505f06: 2
8f7282: 2
1507a10: 2
14050c0: 2
8f7401: 2
8f7445: 2
8f7483: 2
1507249: 2
15072c5: 2
1503d50: 2
1507307: 2
1409804: 2
8f7301: 2
140a642: 2
14062c3: 2
1507470: 2
1407403: 2
1506f80: 2
1403043: 2
8dffa0: 2
8df581: 2
8df6c1: 2
1504343: 2
8df7c3: 2
1409980: 2
1407f43: 2
14109c7: 2
1410a02: 2
1410a42: 2
14092c3: 2
1410ac4: 2
1406243: 2
1409d81: 2
1409004: 2
14063c3: 2
1410e83: 2
1410ec1: 2
1408a42: 2
1410f85: 2
8e0043: 2
1410fc2: 2
1508583: 2
1406082: 2
8e73c2: 2
1411000: 2
1507946: 2
8e85c2: 2
8e8602: 2
8e8682: 2
15079c0: 2
8e8703: 2
15084c3: 2
1507b84: 2
14106c3: 2
14104c2: 2
14069c3: 2
1409741: 2
15058c2: 2
14055c3: 2
1407905: 2
8f71c1: 2
1409602: 2
1410f41: 2
1409583: 2
14105c1: 2
1406a01: 2
8df8c1: 2
8f7202: 2
1505cc0: 2
1408f84: 2
8df782: 2
1405782: 2
8f6941: 2
1504302: 2
1505a81: 2
1410700: 2
14094c0: 2
15085c0: 2
1408d82: 2
14072c3: 2
1503fc0: 2
1406a40: 2
1506640: 2
1407007: 2
140a6c6: 2
140a484: 2
1406fc2: 2
1404f07: 2
1405d82: 2
1406e07: 2
1406dc0: 2
1406bc2: 2
8f6882: 2
1403701: 2
8dff41: 2
140a242: 2
1405ec4: 2
8dfd84: 2
1406980: 2
1406941: 2
1506182: 2
1406901: 2
1506142: 2
14068c0: 2
1507280: 2
1405d41: 2
15077c2: 2
1406843: 2
1408b41: 2
1504b85: 2
1408ac1: 2
14078c7: 2
14077c1: 2
140a785: 2
14031c5: 2
1507180: 2
1407802: 2
1409b00: 2
1403205: 2
1504c85: 2
1407704: 2
1403344: 2
1407642: 2
1408d40: 2
1407585: 2
14052c5: 2
1407481: 2
1409cc6: 2
1407343: 2
1506550: 2
14073c5: 2
1405004: 2
8f7002: 2
1402d43: 2
1407280: 2
1503dc0: 2
1404c82: 2
1404e42: 2
ad7977: 2
1405f82: 2
140aac0: 2
1409843: 2
1405f00: 2
ad6100: 2
8e0943: 2
1405e46: 2
1405301: 2
14039c0: 2
1405dc1: 2
1405e01: 2
1405fc1: 2
1405b85: 2
1506bc1: 2
1407f01: 2
1409080: 2
1405b00: 2
1403640: 2
8f7385: 2
1405a41: 2
140f840: 2
1405744: 2
8f6d00: 2
14059c2: 2
1405a00: 2
1507102: 2
14067c2: 2
1503c4a: 2
1508301: 2
1505fc2: 2
8f6460: 2
1406741: 2
14066c6: 2
1406647: 2
14080f4: 2
8e0500: 2
1406345: 2
140a941: 2
1504a07: 2
1505b84: 2
1506580: 2
1409b85: 2
1406281: 2
1506c41: 2
1506610: 2
8f6680: 2
1505987: 2
1408444: 2
1406180: 2
1406100: 2
1406040: 2
1504a46: 2
1503f40: 2
1403281: 2
8e0643: 2
1403185: 2
1405483: 2
1410440: 2
1408900: 2
14074c1: 2
1408684: 2
14064c0: 2
1406386: 2
1507644: 2
1506cc0: 2
1406300: 2
1506002: 2
1504f5a: 2
8e0240: 2
1503e80: 2
140a1c1: 2
8e0181: 2
1506d03: 2
140a8c1: 2
1405c84: 2
1506980: 2
1504282: 2
1405601: 2
8e01c0: 2
1504585: 2
1507e43: 2
ad6001: 2
1409b46: 2
15042c9: 2
1506b45: 2
1403a41: 2
1403980: 2
1507040: 2
1404ac0: 2
8e0102: 2
1406d41: 2
1505ec1: 2
1406c02: 2
14036c1: 2
1404a41: 2
1505200: 2
ad2280: 2
14035fc: 2
8dfdc2: 2
1403401: 2
1504683: 2
1403686: 2
1403a82: 2
1408e01: 2
1407c82: 2
8dfb82: 2
1411100: 2
1505083: 2
8f73c4: 2
1407d02: 2
14081c4: 2
140ab42: 2
8dfe40: 2
1409fc2: 2
1505000: 2
1407c02: 2
1407bc5: 2
1408604: 2
1407b84: 2
1506ac5: 2
1407b40: 2
1506b04: 2
1407d86: 2
1407ac1: 2
1407a82: 2
1407983: 2
1403140: 2
15069c3: 2
8f72c1: 2
1506042: 2
1506307: 2
1407105: 2
1407942: 2
1505b40: 2
1504544: 2
1405b40: 2
1508184: 2
1506440: 2
1409a45: 2
1506400: 2
1506346: 2
1504d82: 2
1403a02: 2
15044dd: 2
14083c4: 2
1406542: 2
1408180: 2
8f6506: 2
140a746: 2
1503d00: 2
1406f83: 2
140ac40: 2
14037c0: 2
1407fc2: 2
1408146: 2
1503cc0: 2
1408102: 2
1407e81: 2
1407e44: 2
1403500: 2
14076c6: 2
1402f82: 2
1504ac0: 2
1504802: 2
1506082: 2
14079c0: 2
1503e40: 2
1408c82: 2
1409300: 2
1409e01: 2
8e0200: 2
1507919: 2
1408200: 2
15048c4: 2
1504385: 2
1405e85: 2
8e0a03: 2
14053c1: 2
1408044: 2
1409dc3: 2
8f6c80: 2
1503ed0: 2
1506c01: 2
1408884: 2
1507bc4: 2
1404f40: 2
8f6642: 2
8e0281: 2
1404dc3: 2
1405cc0: 2
140f82e: 2
1405940: 2
14061c2: 2
1504002: 2
140a407: 2
140a680: 2
15051c0: 2
1407880: 2
1408005: 2
1507503: 2
1408540: 2
1409783: 2
1408406: 2
8e0581: 2
1506680: 2
1504c45: 2
1406583: 2
1504c05: 2
1503e10: 2
1403082: 2
1507804: 2
1408841: 2
1508082: 2
1405c40: 2
1504880: 2
1504b45: 2
1504500: 2
1507003: 2
1410686: 2
1409d00: 2
1409ac0: 2
1403601: 2
1504642: 2
8f6ac4: 2
1410741: 2
1508280: 2
8f6d40: 2
8f6a01: 2
1408dc0: 2
1504cc5: 2
8f6c02: 2
ad5ffa: 2
140a307: 2
1504dc3: 2
1504d05: 2
1403483: 2
140a606: 2
1409487: 2
1505e82: 2
1408a04: 2
1403245: 2
1507cc0: 2
1503c05: 2
15059c2: 2
1408c02: 2
ad6180: 2
8dffc0: 2
14084c3: 2
140a7c1: 2
ad7981: 2
1408e46: 2
1504e46: 2
1408587: 2
1507144: 2
1409382: 2
1403540: 2
1503f00: 2
ad6dc4: 2
1505c87: 2
1403580: 2
1405c06: 2
1407506: 2
1504601: 2
8e06c2: 2
8f6a83: 2
140a380: 2
1408082: 2
1408f44: 2
1504b01: 2
1506b81: 2
1507d00: 2
1505c02: 2
14051c7: 2
14097c3: 2
8e0080: 2
1408644: 2
1402c81: 2
1504780: 2
ad4241: 2
15071c1: 2
1404f80: 2
15047c1: 2
1409c40: 2
1409501: 2
b52107: 2
1504a83: 2
1404d05: 2
1404cc2: 2
1507980: 2
1404c43: 2
1404e87: 2
1507544: 2
1407245: 2
1505847: 2
1404bc2: 2
1507880: 2
1408e82: 2
1404b83: 2
1507f43: 2
1405584: 2
1506102: 2
14057c7: 2
1410784: 2
1407b02: 2
14060c2: 2
1405680: 2
140a040: 2
ad61c0: 2
15046c6: 2
1407a44: 2
ad6010: 2
8e0000: 2
1506380: 2
1506fd0: 2
1410541: 2
1407682: 2
1504bc5: 2
1408801: 2
8e6484: 2
1405546: 2
1506a41: 2
1403001: 2
14056c7: 2
1405340: 2
1408ec1: 2
1406480: 2
1406ec4: 2
15080c3: 2
1403941: 2
1505d50: 2
1508000: 2
1406d88: 2
140a205: 2
1506495: 2
1504406: 2
1408942: 2
1504d41: 2
1406cc1: 2
1403904: 2
ad6041: 2
1409100: 2
1503c90: 2
15083d5: 2
1505ac9: 2
1405242: 2
1505a40: 2
8e0381: 2
1404c04: 2
140a3c1: 2
1405701: 2
1505a00: 2
1405040: 2
14093c2: 2
8f7046: 2
1405d02: 2
1404b40: 2
1407ec5: 2
15063d0: 2
14098c0: 2
1406443: 2
1407186: 2
1406e83: 2
1404a82: 2
1503d80: 2
1508542: 2
1407543: 2
1408cc0: 2
1408484: 2
1405101: 2
15061c2: 2
1403ac1: 2
15060c2: 2
1407a00: 2
1505f86: 2
1505881: 2
140ad41: 2
1407144: 2
8df550: 2
1404d43: 2
1505dc5: 2
14070c7: 2
1506d50: 2
1409ec0: 2
15076c4: 2
1410f03: 2
1505803: 2
1405f46: 2
140a847: 2
1402c50: 2
140a183: 2
14090c6: 2
1405504: 2
1505303: 2
8e0783: 2
1507f05: 2
140a286: 2
ad2304: 2
14099c1: 2
1405141: 2
15074c2: 2
140aa03: 2
1506e50: 2
1406507: 2
1404b03: 2
14112a9: 2
ad6d44: 2
1506244: 2
14089c1: 2
1407f81: 2
1505280: 2
1406c83: 2
1409f07: 2
1405885: 2
14038c3: 2
1408c41: 2
1506dc0: 2
8f65cb: 2
15043c5: 2
14075c3: 2
1406400: 2
1409f82: 2
1405440: 2
8df741: 2
1408b04: 2
1409286: 2
140a700: 2
1407040: 2
1409a84: 2
1409441: 2
ad4201: 2
1406c43: 2
8dfc44: 2
1404ec0: 2
14096c2: 2
1407384: 2
1405082: 2
1507eca: 2
ad6d0d: 2
1403884: 2
8e0801: 2
ad60c1: 2
140aa81: 2
1408741: 2
140a102: 2
1403785: 2
1506d90: 2
1407e00: 2
1410801: 2
14083a0: 2
1506280: 2
1507582: 2
14030c4: 2
ad6d80: 2
14058c6: 2
1506203: 2
1507081: 2
8e8641: 2
1507a80: 2
8df842: 2
1405200: 2
8e86c0: 2
1408a82: 2
15045c4: 2
1409682: 2
8f6d82: 2
8e03c1: 2
8e08c2: 2
8df5c1: 2
1408505: 2
1405180: 2
8e74c2: 2
8e00c2: 2
1409140: 2
1508145: 2
8df683: 2
1508344: 2
1504e05: 2
1508646: 2
1504447: 2
8e0402: 2
8e04c0: 2
1409646: 2
15062c6: 2
1409240: 2
1408701: 2
8dfb02: 2
8e0981: 2
140a9c1: 2
140a140: 2
1409880: 2
140a5c2: 2
1406e48: 2
14065c0: 2
8dfc83: 2
1409543: 2
1506976: 2
1409d42: 2
8f7180: 2
8e7485: 2
8e7442: 2
14085c4: 2
8dff84: 2
1408fc2: 2
1505742: 2
8e05c0: 2
140a0c7: 2
1505140: 2
1406805: 2
1505f44: 2
140ac02: 2
1406ac5: 2
1506e06: 2
1406a84: 2
140a541: 2
8f6981: 2
8e0a43: 2
8e02c1: 2
8e0742: 2
1409907: 2
8e0145: 2
1408bc4: 2
8dfcc3: 2
1402cc4: 2
140acc1: 2
1410980: 2
1668700: 3
1669c05: 3
8e79ed: 3
8e9ec0: 3
1669c79: 3
8e9e3b: 3
1669ed0: 3
1669bc0: 3
8e8781: 3
166a35c: 3
1669e40: 3
1669e8a: 3
1669cf8: 3
1669e0e: 3
166884f: 3
166bd42: 3
1668880: 3
1668901: 3
166a09f: 3
1668743: 3
f30ac0: 4
8ded01: 4
8e7582: 4
8deb41: 4
8decc0: 4
8e9f43: 4
f30201: 4
8ded41: 4
8e7284: 4
8e9282: 4
150ed42: 4
8e8500: 4
8e9cc2: 4
8e9502: 4
8e9d41: 4
8dec83: 4
f31aea: 4
f31a85: 4
f311c3: 4
f30f83: 4
8eac84: 4
f30f43: 4
f30ec1: 4
8dec04: 4
f32a43: 4
150dac2: 4
f32ac5: 4
f30a40: 4
8e9f03: 4
150da42: 4
8e72c0: 4
150ecc0: 4
8df1c2: 4
f30482: 4
f31382: 4
f30e81: 4
f30382: 4
8dea86: 4
8e87c3: 4
8e9c42: 4
8debc2: 4
150de90: 4
8e6440: 4
503f84: 4
8ea202: 4
506e81: 4
5071c6: 4
8e63c2: 4
4f91de: 4
4f9201: 4
166c3ca: 4
8dea41: 4
4f9a44: 4
8eae9c: 4
8eaf42: 4
507e81: 4
507ec2: 4
507f80: 4
f30a80: 4
8e9e80: 4
150ebc5: 4
507a81: 4
508203: 4
8deb02: 4
8e9202: 4
8e7e98: 4
507a45: 4
506f80: 4
150ec45: 4
506f40: 4
506ec2: 4
8e9c00: 4
150ec81: 4
dea6c1: 4
503ac5: 4
503a87: 4
8df200: 4
8e8442: 4
150eac0: 4
8eaf02: 4
8ea740: 4
8e6d00: 4
8ded82: 4
f2febc: 4
8e7303: 4
8e64c7: 4
f2fec5: 4
f2ff41: 4
5081c0: 4
f2ff82: 4
503f41: 4
166c390: 4
f31203: 4
150ea41: 4
8e7384: 4
150ec02: 4
8e91c0: 4
504201: 4
5041c1: 4
501201: 4
503ec2: 4
503e84: 4
8df480: 4
1669c80: 4
150ed81: 4
8e8483: 4
150eb84: 4
8e84c0: 4
8ea1f6: 4
8eaec0: 4
8e9d03: 4
8e9c80: 4
8eadc1: 4
8e9bc4: 4
8eb396: 4
8dec41: 4
1674484: 4
8e7341: 4
166a442: 4
503a40: 4
8e88c0: 4
8e8882: 4
8e8761: 4
507f40: 4
1669dc1: 4
8e9d82: 4
166a481: 4
8e7242: 4
166a430: 4
1669f04: 4
150d4ab: 4
f32c50: 4
8e7602: 4
8e8541: 4
f301c2: 4
507ac0: 4
4f9ac2: 4
dea681: 4
8deb81: 4
8def41: 4
4f9a80: 4
8e6500: 4
4f7f84: 4
8e8582: 4
8e8401: 4
8e75c2: 4
8ead81: 4
8e7540: 4
166a0c1: 4
507200: 4
8df382: 4
8e94f6: 4
8e9240: 4
1668830: 4
8dea30: 4
4f7f4e: 4
8deac0: 4
5011c0: 4
8e6382: 4
8e83c2: 4
8e8348: 4
8e9864: 4
166a25f: 4
1668f03: 4
8e6cfb: 4
8e6823: 4
8ead02: 4
8deec2: 4
8e6340: 4
8e6402: 4
8ead40: 4
1674400: 4
8e9e43: 4
f31a41: 4
8e8841: 4
8dedc0: 4
8dee80: 4
8df282: 4
8df2c2: 4
8e71cb: 4
8def82: 4
8df243: 4
150ed01: 4
8e8800: 4
150dec0: 4
8eacc0: 4
8e8380: 4
f32a84: 4
150da83: 4
8df3c2: 4
8e7201: 4
150da02: 5
503dc2: 5
4f98c2: 5
f30d80: 5
4f9900: 5
4f9240: 5
507700: 5
f328d0: 5
4f9a02: 5
5079c2: 5
506c42: 5
5087c7: 5
506dc4: 5
506d82: 5
1668b90: 5
4f9b00: 5
506c84: 5
f303c1: 5
4f7dc1: 5
4f83d5: 5
166a748: 5
f31b41: 5
f30d41: 5
150d703: 5
f31841: 5
150d8c2: 5
506b10: 5
5077c0: 5
507d00: 5
507842: 5
507883: 5
f31901: 5
f31d83: 5
f2e8cb: 5
4f8979: 5
507cc6: 5
506c01: 5
503a02: 5
1668942: 5
f31942: 5
150e902: 5
503bc5: 5
1668d45: 5
508905: 5
504282: 5
f2e845: 5
504240: 5
f31281: 5
f313c3: 5
4f9b40: 5
dea666: 5
4f8981: 5
503c06: 5
150dd40: 5
503d02: 5
f31746: 5
f32b50: 5
f31b01: 5
4f97c2: 5
507b41: 5
4f9bc3: 5
503d43: 5
506bf2: 5
4f9b82: 5
f31a05: 5
f31c01: 5
4f9482: 5
508244: 5
5083c3: 5
150e800: 5
f30883: 5
5088c0: 5
508a07: 5
150d9c2: 5
f32984: 5
507286: 5
150d982: 5
150d942: 5
507243: 5
507740: 5
5073c1: 5
150db40: 5
507803: 5
507d80: 5
5042c0: 5
507d42: 5
507c85: 5
507a02: 5
507b82: 5
f309c1: 5
16744c0: 5
508743: 5
507b03: 5
506cc0: 5
f2e7c1: 5
4f99c1: 5
506d02: 5
f2e801: 5
150e942: 5
4f9983: 5
507902: 5
4f87da: 5
5089c7: 5
4f9881: 5
501496: 5
5078c0: 5
4f8801: 5
4f8840: 5
150e9c2: 5
f318c1: 5
f319c8: 5
4f8882: 5
150dd80: 5
4f88c0: 5
1668d19: 5
4f9285: 5
f317c1: 5
f30b84: 5
507942: 5
f31d42: 5
f31880: 5
5072e9: 5
508941: 5
dea601: 5
1674450: 5
4f93c3: 5
508886: 5
507382: 5
150eb42: 5
508844: 5
508805: 5
f31981: 5
f30282: 5
4f9380: 5
5043c0: 5
508984: 5
50124c: 5
150d744: 5
f30240: 5
f31cc3: 5
506b43: 5
501285: 5
f302c1: 5
150edc2: 5
f312c7: 5
4f9940: 5
f30dc4: 5
f31801: 5
f30c45: 5
4f7d80: 5
f31dc1: 5
5012c2: 5
f31730: 5
5082c1: 5
5038de: 5
150d902: 5
507bc5: 5
503c81: 5
503900: 5
4f89c4: 5
4f9740: 5
150e880: 5
f2e945: 5
506d41: 5
f2e901: 5
f329c4: 5
150eb04: 5
f32a04: 5
f30d00: 5
f30840: 5
f308c6: 5
f30902: 5
508383: 5
f30941: 5
f30805: 5
4f7c46: 5
156b801: 5
f30a00: 5
4f92c4: 5
f32944: 5
f32901: 5
f3329b: 5
4f7c00: 5
f32b03: 5
f307c1: 5
508480: 5
f30b02: 5
f30746: 5
508702: 5
503942: 5
4f7c80: 5
4f7cc5: 5
508286: 5
f31d02: 5
f30c06: 5
503b42: 5
503b80: 5
4f7d44: 5
150dc5a: 5
150e7c6: 5
4f9801: 5
503c42: 5
150d882: 5
503cc2: 5
150e702: 5
150ddd0: 5
f30b40: 5
f31244: 5
4f7d04: 5
150dd10: 5
150e982: 5
150dcc0: 5
150dc80: 5
150d842: 5
f31c83: 5
150dc00: 5
506b80: 5
f31b84: 5
150dbd0: 5
150db80: 5
150d7c0: 5
f332c0: 5
503d83: 5
f30700: 5
507980: 5
504388: 5
150d804: 5
f30987: 5
507dc0: 5
f30cc0: 5
f2e884: 5
f31c45: 5
4f9844: 5
5074b0: 5
f30bc0: 5
f2e746: 5
f2e707: 5
507c06: 5
503983: 5
5039c7: 5
507c40: 5
150ea01: 5
150e744: 5
f31bc5: 5
f30c80: 5
503b02: 5
150e847: 5
150e8c4: 5
4f9700: 5
1668bc1: 6
901bc6: 6
dea5b0: 6
deb100: 6
dea5c2: 6
deb441: 6
dead0e: 6
1669d81: 6
901c43: 6
dead42: 6
166bd89: 6
166ac1f: 6
1669d41: 6
1668c80: 6
901c87: 6
901c02: 6
deb437: 6
deb0d2: 6
1668983: 6
14b0df0: 6
901b80: 6
901cc0: 6
901d01: 6
166a203: 6
dead81: 6
1669245: 6
166a1ec: 7
1668c68: 7
166bd10: 7
1669f78: 7
166acc5: 7
1668eff: 7
166ac40: 7
166ae8d: 7
166acbb: 7
166a2c2: 7
16688f0: 7
166a280: 7
1669f83: 8
166a38c: 8
166a3c5: 8
1669d03: 9
BTB TOTAL     ACCESS:    9141033  HIT:    9133636  MISS:       7397  HIT %:    99.9191  MISS %:  0.0809208   MPKI: 0.036985
BTB Test counter:          0
BTB BRANCH_DIRECT_JUMP	ACCESS:     290387  HIT:     290283  MISS:        104
BTB BRANCH_INDIRECT	ACCESS:         12  HIT:          8  MISS:          4
BTB BRANCH_CONDITIONAL	ACCESS:    8250533  HIT:    8249658  MISS:        875
BTB BRANCH_DIRECT_CALL	ACCESS:     300051  HIT:     299561  MISS:        490
BTB BRANCH_INDIRECT_CALL	ACCESS:          0  HIT:          0  MISS:          0
BTB BRANCH_RETURN	ACCESS:     300050  HIT:     294126  MISS:       5924
BTB BRANCH_OTHER ACCESS:          0  HIT:          0  MISS:          0

L2C TOTAL     ACCESS:    5507143  HIT:    2478071  MISS:    3029072  HIT %:    44.9974  MISS %:    55.0026   MPKI: 15.1454
L2C Test counter:          0
L2C LOAD      ACCESS:     426622  HIT:     148940  MISS:     277682  HIT %:    34.9115  MISS %:    65.0885   MPKI: 1.38841
L2C DATA LOAD MPKI: 1.3576
L2C INSTRUCTION LOAD MPKI: 0.030815
L2C RFO       ACCESS:     685049  HIT:     146757  MISS:     538292  HIT %:    21.4228  MISS %:    78.5772   MPKI: 2.69146
L2C PREFETCH  ACCESS:    2974573  HIT:     768163  MISS:    2206410  HIT %:    25.8243  MISS %:    74.1757   MPKI: 11.032
L2C DATA PREFETCH MPKI: 11.032
L2C INSTRUCTION PREFETCH MPKI: 0
L2C WRITEBACK ACCESS:    1393072  HIT:    1391060  MISS:       2012  HIT %:    99.8556  MISS %:   0.144429   MPKI: 0.01006
L2C LOAD TRANSLATION ACCESS:      27825  HIT:      23149  MISS:       4676  HIT %:     83.195  MISS %:     16.805   MPKI: 0.02338
L2C TRANSLATION FROM L1D PREFETCHER ACCESS:          2  HIT:          2  MISS:          0  HIT %:        100  MISS %:          0   MPKI: 0
L2C PREFETCH  REQUESTED:          0  ISSUED:          0  USEFUL:      71872  USELESS:    2134181
L2C USEFUL LOAD PREFETCHES:      71872 PREFETCH ISSUED TO LOWER LEVEL:    2206411  ACCURACY: 3.25742
L2C TIMELY PREFETCHES:      71872 LATE PREFETCHES: 0 DROPPED PREFETCHES: 0
L2C COMMIT LATE PREFETCHES: 0 MISSED OPPORTUNITY: 0 LATE IN PQ: 0 UNCOVERED: 0
L2C COMMIT LATE MSHR PREFETCHES: 0
L2C MPKI TOTAL: 1.38841 MSHR LATE: 0 PQ LATE: 0 COMMIT LATE: 0 MISSED OPPORTUNITY: 0 UNCOVERED: 0
L2C PREFETCHES SAME FILL-ORIGIN LEVEL: 0 DIFFERENT FILL-ORIGIN LEVEL: 0
L2C AVERAGE MISS LATENCY: 239.749 cycles
L2C AVERAGE MISS LATENCY LOAD: 270.645 cycles
L2C AVERAGE MISS LATENCY PREFETCH: 223.07 cycles
L2C AVERAGE MSHR OCCUPANCY: 7.14336
L2C MSHR FULL: 0
L2C RQ	ACCESS:    1139511	FORWARD:          0	MERGED:          0	TO_CACHE:    1139498
L2C WQ	ACCESS:    1393072	FORWARD:        111	MERGED:          0	TO_CACHE:    1393072
L2C PQ	ACCESS:    2974672	FORWARD:          0	MERGED:          0	TO_CACHE:    2974574

L2C Instructions Evicting Data 6149
L2C Translations Evicting Data 4670
L2C Data Evicting Data 3005401
L2C Instructions Evicting Instructions 4
L2C Translations Evicting Instructions 5
L2C Data Evicting Instructions 6154
L2C Instructions Evicting Translations 10
L2C Translations Evicting Translations 1
L2C Data Evicting Translations 4666
L2C Dense regions hint from L2: 0
140f585: 1
140e341: 1
92f880: 1
92fec4: 1
1515dc2: 1
1411640: 1
f3853c: 1
1515f2b: 1
140f641: 1
140f5c5: 1
1668945: 1
92d341: 1
140b340: 1
f38491: 1
140f500: 1
508586: 1
140f4c0: 1
9314c1: 1
140f400: 1
1505e26: 1
1403b83: 1
1403b45: 1
15066b0: 1
939882: 1
1506460: 1
b47880: 1
1506360: 1
1402f71: 1
f38187: 1
140f387: 1
15059d1: 1
140c182: 1
1411941: 1
140f442: 1
14faa14: 1
8e0858: 1
1504520: 1
930082: 1
937a01: 1
529242: 1
140ea46: 1
937cc4: 1
14fa018: 1
140e9b4: 1
140ea02: 1
930a03: 1
1411b6f: 1
140db01: 1
9332c3: 1
140e987: 1
933344: 1
140e883: 1
15170d4: 1
508080: 1
140de01: 1
8e08d4: 1
140e7c1: 1
140f040: 1
140f342: 1
140f2c3: 1
14fbfc3: 1
9312c4: 1
140f241: 1
140f200: 1
140f140: 1
1404183: 1
140f101: 1
1403bc1: 1
140ef80: 1
a962c0: 1
140ef46: 1
140ee85: 1
f342fd: 1
140ee47: 1
140e08c: 1
528842: 1
140418e: 1
f344c2: 1
1516906: 1
1412145: 1
1404382: 1
1509dfe: 1
1404340: 1
1404281: 1
508342: 1
f384cf: 1
52a200: 1
1626242: 1
f30181: 1
f345c3: 1
1404200: 1
52a042: 1
1503b00: 1
930043: 1
51c180: 1
1404685: 1
938856: 1
1404702: 1
51c682: 1
14046c0: 1
1404457: 1
52a603: 1
1411afd: 1
ac45c1: 1
14045e4: 1
f385f9: 1
14045dc: 1
1402e07: 1
1404603: 1
1404586: 1
1404540: 1
1508cc2: 1
14044bf: 1
529e10: 1
140db43: 1
1403f02: 1
92f5a5: 1
140ea82: 1
1403ec5: 1
930e83: 1
140d581: 1
1403dc2: 1
150be59: 1
14fc5c5: 1
1403f80: 1
1403e00: 1
140e6c3: 1
8df442: 1
1403d81: 1
14fa310: 1
1403d40: 1
1403c02: 1
930bc0: 1
1404080: 1
14041c7: 1
14fa2d0: 1
140f184: 1
15134d0: 1
14040d5: 1
14040ed: 1
1412102: 1
930f44: 1
1404040: 1
14fc585: 1
1508802: 1
f344b5: 1
529dc2: 1
1411e42: 1
51c000: 1
1403fc5: 1
51b00e: 1
51bf45: 1
140d601: 1
5083f6: 1
140bf42: 1
14fc745: 1
92cf42: 1
140d682: 1
930644: 1
140d647: 1
8ef503: 1
8fa4c0: 1
1411b43: 1
140b901: 1
140d5c5: 1
932e48: 1
140d543: 1
140d787: 1
150d3c3: 1
14fa430: 1
140d444: 1
140d880: 1
140dbc1: 1
140db81: 1
1403c85: 1
14119f0: 1
140da00: 1
140b801: 1
140d9c0: 1
8ef7c4: 1
140d980: 1
140d400: 1
140d843: 1
15176c0: 1
140d7c2: 1
f34555: 1
1402e54: 1
f38380: 1
140d703: 1
140d6c7: 1
1412740: 1
150d484: 1
140d185: 1
f349ea: 1
b54f42: 1
528cc0: 1
150d444: 1
140d145: 1
140cf81: 1
150d404: 1
ad07d4: 1
140d105: 1
1411b36: 1
140d000: 1
140cdc0: 1
140cd83: 1
140ccc6: 1
14fc785: 1
f37f46: 1
140d285: 1
150d6c1: 1
15065f0: 1
140d3c2: 1
140d380: 1
14fc805: 1
15090dd: 1
930fae: 1
140d25a: 1
1508d41: 1
529202: 1
140d20a: 1
5286c2: 1
140d246: 1
8fa581: 1
f348a9: 1
140cdb3: 1
51c446: 1
140d1c5: 1
140b7c2: 1
1411738: 1
4f96c2: 1
140e402: 1
140e382: 1
1515d3a: 1
f3834b: 1
1508e81: 1
523742: 1
938780: 1
140e502: 1
140e304: 1
507102: 1
1403f9e: 1
140e285: 1
4f94c2: 1
529f07: 1
932c42: 1
140e202: 1
528340: 1
1402dc0: 1
f2ffc1: 1
b761ec: 1
140e730: 1
51bec1: 1
f31140: 1
529140: 1
1404142: 1
1509141: 1
528b43: 1
9323c1: 1
140e601: 1
140f282: 1
140e5c1: 1
1402ec2: 1
140e581: 1
140e542: 1
8efff0: 1
140dd47: 1
1402f05: 1
930fa6: 1
9328c1: 1
140de82: 1
92fe83: 1
140de45: 1
937bcd: 1
501300: 1
140ddc1: 1
9303c1: 1
1518250: 1
8ef110: 1
1508742: 1
5288c2: 1
140dd02: 1
528eb8: 1
140dc01: 1
51abc4: 1
936a83: 1
140e1c5: 1
f30407: 1
92f378: 1
140e182: 1
14fa1c8: 1
140b9c0: 1
140e095: 1
5297cc: 1
529c84: 1
8efb43: 1
140e09d: 1
140e046: 1
140df03: 1
14fbfd0: 1
1508a02: 1
140dec2: 1
51b383: 1
1411502: 1
51b480: 1
1411ea8: 1
8ef141: 1
1411f03: 1
529e83: 1
1411ea0: 1
901b41: 1
1515cc5: 1
1411e04: 1
1411f83: 1
150c900: 1
1403155: 1
f30818: 1
930842: 1
936f41: 1
14fa0a6: 1
9327c0: 1
f30342: 1
939504: 1
1412700: 1
14faa9c: 1
f34942: 1
52a680: 1
1412681: 1
f348c3: 1
1412643: 1
f34885: 1
14125be: 1
140e100: 1
f34800: 1
14125c3: 1
141214b: 1
14120c1: 1
[...]
1409bc3: 2
1505944: 2
8dfdc2: 2
1507cd1: 2
ad41c0: 2
1504480: 2
8f6460: 2
1408b80: 2
8df900: 2
1407802: 2
1505783: 2
1409100: 2
1408cc0: 2
8f7046: 2
1407a44: 2
1504f12: 2
140a205: 2
1409ec0: 2
1504903: 2
1405402: 2
14057c7: 2
1403580: 2
1407f43: 2
14f9981: 2
1408c02: 2
1408820: 2
ad6010: 2
1507dc1: 2
1409d00: 2
8f6e40: 2
1506b1a: 2
1409a3f: 2
1507d20: 2
140a580: 2
14096f5: 2
1402cd7: 2
1404d86: 2
1504343: 2
1406781: 2
1506a80: 2
15046c6: 2
8df782: 2
1507b43: 2
14033c1: 2
1504302: 2
8f6882: 2
8df701: 2
8f6981: 2
1503ee0: 2
15057d4: 2
1409382: 2
1408e46: 2
8df6c1: 2
1505228: 2
15062c6: 2
1507873: 2
8e0500: 2
14080f4: 2
8df5ff: 2
46f705: 2
1408d01: 2
8f7343: 2
1409d81: 2
1408d82: 2
ad6001: 2
1503d60: 2
8e0981: 2
1507d87: 2
1503fa0: 2
1507fc7: 2
140a9c1: 2
8df601: 2
8dff41: 2
1410f41: 2
8dfac3: 2
8dfa40: 2
15051f8: 2
ad6100: 2
140aac0: 2
14087c2: 2
8dfa02: 2
1402d01: 2
15059c2: 2
1504447: 2
15078c4: 2
15072c5: 2
1504843: 2
1405643: 2
150d70e: 2
1505987: 2
1410600: 2
140a941: 2
1507249: 2
1504a07: 2
9368c5: 2
150d715: 2
15065c0: 2
1406345: 2
1406647: 2
140ab02: 2
1503d30: 2
8df741: 2
8f7483: 2
1505c87: 2
1407b40: 2
1406203: 2
1405440: 2
8df581: 2
1410801: 2
1407e44: 2
140abc2: 2
1503df0: 2
8f65cb: 2
1408801: 2
1404c82: 2
1507782: 2
140a001: 2
15074c2: 2
1504880: 2
1506192: 2
1503e10: 2
1503c28: 2
1405ec4: 2
1507a20: 2
1409341: 2
1507cc0: 2
1409907: 2
140ac40: 2
1408f84: 2
14105c1: 2
14093c2: 2
140f82e: 2
1506330: 2
8e02c1: 2
1504e88: 2
1404a41: 2
8e01c0: 2
1504a83: 2
1410a02: 2
8f7301: 2
14104c2: 2
1505000: 2
140ab42: 2
ad7981: 2
1405242: 2
8e6482: 2
ad6041: 2
140ad03: 2
1409ac0: 2
508890: 2
8e0601: 2
14f9f90: 2
ad5ffa: 2
1507a70: 2
8e0882: 2
1405082: 2
8e0801: 2
14052c5: 2
8e07c0: 2
8df641: 2
15044dd: 2
1410481: 2
1517934: 2
1406542: 2
14106c3: 2
8e03c1: 2
8e08c2: 2
1405701: 2
1505a00: 2
8e0342: 2
1410642: 2
150432a: 2
15042ab: 2
150636b: 2
1403043: 2
8dffa0: 2
150508b: 2
1504b01: 2
1503f00: 2
15050c0: 2
8e0281: 2
140634f: 2
8f6642: 2
1406ba0: 2
1504942: 2
1507a50: 2
150794e: 2
140a1c1: 2
8e0181: 2
ad6180: 2
8dffc0: 2
1409b46: 2
15042c9: 2
1406685: 2
1404d73: 2
8e06c2: 2
1410e92: 2
1507003: 2
1411052: 2
1504714: 2
1504323: 2
1505903: 2
8dff00: 2
1410582: 2
150701b: 2
1504385: 2
14097c3: 2
8f6a83: 2
8dfe82: 2
14099c1: 2
15049c0: 2
1407d43: 2
1404fc1: 2
ad2340: 2
1403601: 2
1504642: 2
1409e80: 2
8e00c2: 2
1404ae5: 2
1505b02: 2
1411143: 2
14fab45: 2
1407080: 2
1505ac9: 2
1504f02: 2
1505a40: 2
1404c04: 2
1507e02: 2
1507980: 2
1405040: 2
1404e87: 2
1406400: 2
140a901: 2
1404b40: 2
8f6c80: 2
14054c1: 2
1504f38: 2
1404bc2: 2
150593c: 2
8f66c2: 2
1407007: 2
92f5c5: 2
1504cc5: 2
1409183: 2
1405d41: 2
1407783: 2
1408082: 2
1505742: 2
1505b40: 2
1407bc5: 2
1404f80: 2
14098a6: 2
1410f85: 2
8f6b45: 2
8f6f02: 2
140610f: 2
15047c1: 2
1404a20: 2
1506d78: 2
14060c2: 2
1515297: 2
1505e50: 2
140ad70: 2
1507144: 2
1507180: 2
8f64d9: 2
1405803: 2
140a785: 2
14107c0: 2
1404cc2: 2
8f6a01: 2
1405b40: 2
8df5c1: 2
140f65e: 2
1405f46: 2
1404ac0: 2
8e0540: 2
1505059: 2
1410f03: 2
8e0402: 2
8e0145: 2
1503cd0: 2
141077b: 2
1409fc2: 2
1405885: 2
8f67c0: 2
8df8c1: 2
8f6780: 2
8df881: 2
14060e8: 2
1503eb0: 2
ad4144: 2
1409843: 2
15057c2: 2
1404a82: 2
1404f07: 2
15062e1: 2
140a484: 2
1505110: 2
1505083: 2
8f676e: 2
1410ec1: 2
1507880: 2
15061c2: 2
1506c01: 2
1503c20: 2
1505763: 2
1404dc3: 2
8f68c0: 2
150630f: 2
1405d02: 2
1408406: 2
1504f80: 2
8f6707: 2
1504f6a: 2
1504e20: 2
8df803: 2
1404b03: 2
1507a40: 2
1407cc4: 2
14fb281: 2
1405101: 2
8f6744: 2
14110c3: 2
8e0102: 2
15051a0: 2
1404d05: 2
1505198: 2
1403ac1: 2
ad2241: 2
1508000: 2
1505d02: 2
1510250: 2
14036c1: 2
8f6bc4: 2
1506002: 2
1505d60: 2
1507e43: 2
ad2280: 2
8f64e3: 2
8f7147: 2
15078f7: 2
14034c2: 2
140a92f: 2
8f6580: 2
1410846: 2
1505cc0: 2
8f6602: 2
1405982: 2
1405d82: 2
140aaf6: 2
8f6d40: 2
ad4241: 2
1410882: 2
156b7e0: 2
1508145: 2
8f6a40: 2
1408200: 2
1403ab5: 2
1410741: 2
8f6b82: 2
15071c1: 2
ad2304: 2
1406e48: 2
150705d: 2
1505d50: 2
1407608: 2
1505c46: 2
1405504: 2
1503e50: 2
140611f: 2
8e0684: 2
1505803: 2
1503ed0: 2
1506d03: 2
8f6dc2: 2
1403344: 2
1503c98: 2
1402cc4: 2
1515d42: 2
1404d43: 2
140ac02: 2
140a7de: 2
1503c70: 2
1505f86: 2
1508542: 2
14051c7: 2
8e9e3b: 3
1668880: 3
1669e8a: 3
166a35c: 3
1669ed0: 3
8e0013: 3
1406264: 3
15076c4: 3
8e8781: 3
8e7223: 3
1668700: 3
529710: 3
166bd42: 3
1668743: 3
1669c05: 3
166a09f: 3
1506976: 3
1403f60: 3
1668901: 3
508258: 3
140e91e: 3
51c688: 3
1669bc0: 3
1669e40: 3
140c2bb: 3
5011cd: 3
150e80b: 3
1669cf8: 3
1669c79: 3
1668907: 3
1409741: 3
14046b0: 3
140c2a9: 3
1409765: 3
932e06: 3
8ead60: 3
140ac84: 3
15064c0: 3
dea5ca: 3
140e93f: 3
8e79ed: 3
140f1c1: 3
8f6506: 3
1674484: 4
8e6cfb: 4
1406100: 4
1507a10: 4
8dea30: 4
1504fc0: 4
15075d0: 4
140a5cf: 4
8deb02: 4
1503d50: 4
8eae9c: 4
8eaf42: 4
4f7e2b: 4
1507d44: 4
8e75c2: 4
150eb9a: 4
1406f48: 4
8e9c80: 4
1406f9b: 4
8e91c0: 4
8e6500: 4
150ec45: 4
8dea41: 4
14094c8: 4
8decc0: 4
507a45: 4
140cdb8: 4
150da83: 4
f32a43: 4
8def41: 4
5011c0: 4
1668f03: 4
f30b60: 4
166c3ca: 4
150ebc5: 4
f2ff41: 4
f301c2: 4
14037f3: 4
8e6440: 4
1406fb2: 4
1506d90: 4
8ded01: 4
1506307: 4
1503d00: 4
150ea41: 4
1503dc0: 4
1506380: 4
506ec2: 4
15052c0: 4
8ea740: 4
14119f5: 4
8e8800: 4
8e9bc4: 4
1506fd0: 4
150d79d: 4
8eacc0: 4
8deb66: 4
150ebb7: 4
8e9202: 4
1406f89: 4
8df3c2: 4
8ea1f6: 4
4f91de: 4
8e9864: 4
506f40: 4
8eadc1: 4
1406909: 4
506e81: 4
f30a80: 4
8e9e80: 4
8e9f03: 4
507200: 4
f2febc: 4
1406916: 4
1505303: 4
8ead40: 4
1674400: 4
4f9a44: 4
8dec04: 4
150ecc0: 4
8e9e43: 4
f31a41: 4
8e9f43: 4
8ea202: 4
f32b61: 4
8e9c00: 4
150ed42: 4
150ed81: 4
1506182: 4
166a481: 4
8deac0: 4
166a0c1: 4
8e9d03: 4
8e9cc2: 4
f30b64: 4
8ead81: 4
150ed01: 4
150d534: 4
8e8348: 4
8deb41: 4
8e8442: 4
8deb3f: 4
1506dc0: 4
8df480: 4
dea681: 4
8dec83: 4
8e002c: 4
8e9d41: 4
8eb396: 4
8e9d82: 4
8e7e98: 4
8e71cb: 4
1503c90: 4
1503fc0: 4
8df1c2: 4
1506f80: 4
8ead02: 4
1668830: 4
1668935: 4
f31a1c: 4
150d922: 4
1507040: 4
506f80: 4
5071c6: 4
8e87c3: 4
f311c3: 4
1504282: 4
8dea86: 4
4f9ac2: 4
8e84c0: 4
8def82: 4
8e7341: 4
503f84: 4
503a87: 4
1503c4a: 4
8ded82: 4
1505726: 4
1669f04: 4
8e7242: 4
1506d50: 4
8e9282: 4
8e9502: 4
8debc2: 4
8dec41: 4
1410784: 4
9324f7: 4
8e7284: 4
8e6340: 4
f30201: 4
503e84: 4
503ec2: 4
1669c80: 4
5081c0: 4
1504f5a: 4
8df200: 4
8eaf02: 4
f2fec5: 4
1503d80: 4
1506500: 4
f30a40: 4
501201: 4
503a40: 4
f2ff82: 4
1409371: 4
1504ed0: 4
150ec02: 4
150e827: 4
1507a80: 4
1506680: 4
508203: 4
8e8483: 4
f31382: 4
1503e80: 4
1504e46: 4
140e94b: 4
8e8841: 4
8e8541: 4
8e8761: 4
8dee80: 4
8e8882: 4
8df2c2: 4
f30382: 4
8e9240: 4
4f7f84: 4
8dfff2: 4
150eb7d: 4
150de90: 4
8e83c2: 4
150ec81: 4
507f40: 4
8e72c0: 4
8e0112: 4
8e63c2: 4
1408467: 4
1507919: 4
f31203: 4
f30f83: 4
8eaec0: 4
f30f43: 4
150ec3d: 4
936df0: 4
507ac0: 4
503f41: 4
8e6823: 4
8e6d00: 4
8e94f6: 4
150ec0a: 4
1503f40: 4
8df243: 4
8e8582: 4
5041c1: 4
8e9c42: 4
504201: 4
1505200: 4
150da42: 4
507425: 4
8e7540: 4
f30e81: 4
8df282: 4
1504002: 4
f30ec1: 4
1669dc1: 4
8ded41: 4
8deb81: 4
8df382: 4
166a25f: 4
14046bc: 4
150ebbe: 4
150dac2: 4
503ac5: 4
166a430: 4
150eb84: 4
8e8500: 4
529560: 4
8e64c7: 4
15079c0: 4
dea6c1: 4
8dedc0: 4
507f80: 4
507ec2: 4
507e81: 4
1503c05: 4
8e6382: 4
8eac84: 4
1503cc0: 4
8deec2: 4
1506e82: 4
8e7582: 4
f32a84: 4
4f9201: 4
166a442: 4
140a953: 4
4f7e07: 4
f32ac5: 4
f31a85: 4
f30482: 4
4f9a80: 4
1506e50: 4
507a81: 4
8e6402: 4
1506440: 4
1504e80: 4
8e7602: 4
8e7303: 4
8e8401: 4
f31aea: 4
8e8380: 4
8e0008: 4
507883: 5
f31730: 5
f329c4: 5
150d942: 5
8f68d4: 5
f30746: 5
dea666: 5
5290f0: 5
f328d0: 5
504282: 5
f31c83: 5
8e8720: 5
506d41: 5
504240: 5
150e847: 5
529108: 5
150d982: 5
f2e884: 5
f31c45: 5
f31993: 5
5089c7: 5
f31a05: 5
150d902: 5
f31997: 5
1409514: 5
f2e8cb: 5
150dc96: 5
4f7fde: 5
506dc4: 5
f31b01: 5
f3329b: 5
508383: 5
507dc0: 5
507c06: 5
f31b84: 5
150d9c2: 5
4f7c46: 5
506d55: 5
506d82: 5
150da54: 5
f319c8: 5
506cd3: 5
f2e901: 5
506c84: 5
506bf2: 5
150e6dd: 5
5079c2: 5
1668d45: 5
506c01: 5
f30240: 5
503900: 5
503d43: 5
150d703: 5
4f9900: 5
507942: 5
4f97f5: 5
501285: 5
5012c2: 5
150d744: 5
f30d80: 5
150db68: 5
4f7dc1: 5
150e8c4: 5
4f98c2: 5
5038de: 5
150dbe0: 5
503942: 5
4f7c00: 5
5078c0: 5
150d5b2: 5
507803: 5
1669caa: 5
f31dc1: 5
4f9916: 5
5073e8: 5
150d4c0: 5
4f89c4: 5
f31281: 5
5070cf: 5
4f7f7b: 5
4f928c: 5
50124c: 5
f2e746: 5
f2e707: 5
504388: 5
4f7d04: 5
150e7cd: 5
f2e8d3: 5
503dc2: 5
f31d02: 5
f30d41: 5
1674450: 5
150d5c7: 5
508984: 5
150d804: 5
4f7cc5: 5
4f7c80: 5
150e902: 5
5077c0: 5
150e89e: 5
150d753: 5
503c06: 5
5039c7: 5
4f7d80: 5
4f7d44: 5
150db48: 5
503b02: 5
f31801: 5
4f9935: 5
4f8979: 5
f32a04: 5
150ea01: 5
503c42: 5
503cc2: 5
503d02: 5
150dc62: 5
4f9a02: 5
150eb26: 5
f303c1: 5
5074b0: 5
f313c3: 5
f32b03: 5
f30d00: 5
150d7c0: 5
150dd10: 5
1668b90: 5
4f9bc3: 5
507842: 5
150eafc: 5
f30a00: 5
1403355: 5
8e7384: 5
4f8882: 5
150ddb0: 5
f30b40: 5
14120da: 5
150d882: 5
140e92b: 5
507d80: 5
f31d42: 5
5083c3: 5
507cc6: 5
4f8981: 5
f30b02: 5
1669e2f: 5
4f9881: 5
4f88c0: 5
f30b84: 5
507d42: 5
f318c8: 5
1668d4d: 5
f318c1: 5
f30902: 5
1668d19: 5
508480: 5
f317c1: 5
4f9285: 5
f308c6: 5
f32901: 5
4f88c8: 5
1668942: 5
f30bc0: 5
f2e945: 5
4f83d5: 5
503a02: 5
4f92c4: 5
150ddd0: 5
4f886e: 5
506b80: 5
f31bc5: 5
507b41: 5
f30c80: 5
f31746: 5
140a619: 5
503b42: 5
f31cc3: 5
150d8c2: 5
150da02: 5
508244: 5
150d842: 5
f31841: 5
5087c7: 5
f31297: 5
f31942: 5
f312c7: 5
f32984: 5
4f81b3: 5
f30dc4: 5
4f7f56: 5
508805: 5
508844: 5
503983: 5
150de70: 5
503d83: 5
f3104d: 5
508905: 5
508886: 5
4f7e69: 5
f302c1: 5
dea601: 5
16744c0: 5
f30c06: 5
150e880: 5
f32b58: 5
503bc5: 5
507740: 5
150dc38: 5
508286: 5
4f8840: 5
1407447: 5
507bc5: 5
90cdf5: 5
150e982: 5
4f8801: 5
150ddd8: 5
5088c0: 5
f30c45: 5
4f9700: 5
f31244: 5
156b801: 5
f32b68: 5
f30282: 5
4f87da: 5
150eb49: 5
150dec0: 5
508743: 5
4f9923: 5
506c42: 5
150db29: 5
150de10: 5
508a07: 5
150dea0: 5
f31b41: 5
4f99c1: 5
150dd50: 5
507d00: 5
f307c1: 5
150dc90: 5
4f9b00: 5
150dde0: 5
f30700: 5
f31880: 5
506b43: 5
5077ff: 5
506b10: 5
507980: 5
150dcf0: 5
508702: 5
f31c01: 5
150ded7: 5
f30805: 5
4f9482: 5
150e942: 5
4f9b40: 5
f30883: 5
150e6e5: 5
506cc0: 5
507902: 5
501496: 5
f2e801: 5
4f9740: 5
5082c1: 5
4f9940: 5
8f6d04: 5
4f89c7: 5
5072e9: 5
150e7a1: 5
507382: 5
150edd3: 5
507c40: 5
507700: 5
5073c1: 5
150e6cd: 5
4f9844: 5
f32b0b: 5
150e702: 5
f30941: 5
4f9983: 5
150e9c2: 5
f31d83: 5
508941: 5
507243: 5
150dbd0: 5
150dc6a: 5
150dc10: 5
150dba8: 5
150eb42: 5
5043c0: 5
f2e7c1: 5
4f9b82: 5
f309c1: 5
150eb0a: 5
f332c0: 5
506d02: 5
150db88: 5
14037fa: 5
150e744: 5
507b03: 5
150eae2: 5
f31901: 5
150eac8: 5
150db60: 5
150db80: 5
150eb34: 5
150dbb0: 5
14126a8: 5
f30cc0: 5
150ea90: 5
f30987: 5
507c85: 5
507286: 5
5042c0: 5
1406338: 5
507b82: 5
4f9930: 5
503b80: 5
f31981: 5
4f9240: 5
8eaf20: 5
f32944: 5
503c81: 5
150eaae: 5
150eaa6: 5
150dd40: 5
4f9380: 5
166a748: 5
f30840: 5
150dd20: 5
150ea46: 5
f2e845: 5
f332bb: 5
150dcc0: 5
507a02: 5
140953e: 6
1409531: 6
150edb1: 6
4f97bc: 6
deb100: 6
150de40: 6
166a203: 6
901c02: 6
1411675: 6
14094e3: 6
140c271: 6
dea5c2: 6
150e6c5: 6
932502: 6
deb437: 6
dead42: 6
901cc0: 6
92d0d5: 6
8f68d0: 6
14110f0: 6
901b80: 6
1669d41: 6
141080c: 6
901c43: 6
8e7201: 6
1406fc7: 6
1668bc1: 6
1668983: 6
150edc2: 6
4f9a90: 6
1668bb0: 6
166a28b: 6
dea5ba: 6
1668919: 6
dead0e: 6
52a5d5: 6
1669d81: 6
4f9801: 6
166ac1f: 6
8f6d00: 6
1668c80: 6
52957f: 6
dea5b0: 6
deb0d2: 6
166a276: 6
140a5c2: 6
933062: 6
901bc6: 6
dead81: 6
deb441: 6
166bd89: 6
901d01: 6
140972d: 6
140c25f: 7
8fa530: 7
8e0610: 7
1409521: 7
1668c68: 7
16688f0: 7
1669f78: 7
140e610: 7
51c4a5: 7
1669cd1: 7
140e632: 7
166a1ec: 7
166bd59: 7
166bd10: 7
166ac40: 7
166ae8d: 7
1668eff: 7
140e290: 7
8e0304: 7
1669bfe: 7
140e615: 7
5293a0: 7
166acc5: 7
14043a3: 7
1404399: 7
166acbb: 7
166bd44: 7
166a2c2: 7
933085: 7
1411cec: 7
1669f83: 8
f30ac0: 8
14126a4: 8
8dfabe: 8
4f97c8: 8
150e800: 8
936b64: 8
dea679: 8
140f1a9: 8
90cdfe: 8
166a3c5: 8
1669dd8: 8
1669e1b: 8
1669ca5: 8
1403e37: 8
dea608: 8
936b6c: 8
8e63f5: 8
8dffeb: 8
14037f0: 8
529585: 8
930105: 8
140c000: 9
166a269: 9
1411cd0: 9
14064da: 9
150d4ab: 9
90cdf9: 9
529cd0: 9
140a613: 9
f32c50: 9
1669d03: 9
150eac0: 9
14115e0: 9
1403e0c: 9
140ac60: 9
92e2da: 9
8e05cc: 9
529103: 9
14120e5: 9
140f1c6: 9
932eeb: 9
4f7f4e: 9
901c87: 9
92e220: 10
1411df9: 10
150eb04: 10
14108c0: 10
1411ce1: 10
14037f7: 10
4f93c3: 10
1403e47: 10
150db40: 10
150e7c6: 10
150dc5a: 10
1669e0e: 10
932160: 10
1410a2e: 10
150dc80: 10
4f9a10: 10
150dc00: 10
51c49f: 10
140c010: 10
1403e1d: 10
14115f2: 10
150dd80: 10
1407e04: 10
f32b50: 10
1403fb9: 11
1407725: 11
14110f8: 11
8f68e1: 11
932165: 11
92fa38: 11
8df88e: 11
14126a0: 11
dea61f: 11
140e642: 11
932f52: 11
92e22d: 11
1411972: 12
1668861: 12
140e624: 12
8e030b: 12
140c2f9: 12
4f97c2: 12
1669ef6: 12
8f6d2a: 12
1411960: 12
14b0df0: 12
4f97b6: 12
8f6d1c: 12
140948b: 12
14119fa: 12
14094d4: 12
8ded39: 13
8f68fa: 13
932180: 13
936bc0: 13
9368cd: 13
936660: 13
92e210: 13
166a280: 13
140e29d: 13
140aa55: 14
1406fe0: 14
14094a0: 14
92d040: 14
52a5f5: 14
8e05c4: 14
8f6d11: 14
93660c: 14
141167a: 15
14061e0: 15
90cdf0: 15
1409f6a: 15
1409778: 15
1669e8f: 15
166886d: 15
507210: 15
14061ee: 15
166890f: 16
8defb0: 16
14108dd: 16
92f8fd: 16
8f68ec: 16
166bd19: 16
1406f42: 16
140e8f4: 16
1669cb4: 17
140946c: 17
51c499: 17
166a38c: 17
14126ad: 17
92d04d: 17
1409962: 17
140e918: 17
51c4ab: 17
1409478: 17
140aa5d: 18
1668898: 18
166888a: 18
156b7fa: 18
5078c8: 18
166874b: 18
930100: 18
140653b: 18
1410a1d: 18
14064cf: 18
166bd30: 18
936920: 18
1668b99: 18
f30ac6: 19
1411dc6: 19
166c3a9: 19
140f495: 20
1409949: 20
140e1d8: 20
140ac55: 20
140c306: 20
507080: 21
140e924: 21
8e9e10: 21
507092: 21
166884f: 21
1669245: 21
92f90e: 21
92f913: 21
506ef0: 22
1412140: 22
140f301: 23
166c390: 23
1411dcb: 23
14108cf: 24
1407b5e: 24
1406507: 24
4f9990: 25
16688fb: 25
1406523: 26
f30acf: 26
1403350: 26
506cd0: 26
1403365: 27
1409940: 27
14067a3: 28
156b807: 28
1407a96: 28
1407ab9: 28
1407a78: 28
15d7fd0: 29
14067ec: 29
1409506: 29
1409ff3: 30
9313f4: 30
5083f0: 30
92f8f0: 31
140e665: 31
140ac30: 31
8e88c0: 32
140976c: 32
f31365: 33
930d69: 33
92e2d0: 34
140e693: 34
1407083: 35
f30d84: 35
1410a7c: 35
140e6a6: 36
51c7a0: 36
930754: 36
1406798: 37
508896: 37
52ac26: 37
507097: 39
1404940: 39
9306db: 40
506cda: 40
140682b: 43
507830: 43
140e679: 44
f31074: 44
8e8510: 45
140681f: 45
14067ff: 46
51c650: 46
1407079: 47
1409c45: 48
1409711: 49
506cdd: 50
1410a53: 51
8e05c0: 51
f3108d: 53
1403360: 53
1403f70: 54
140680a: 55
1409fe0: 55
930dc4: 56
15d6540: 56
51c487: 61
528e7c: 62
8e05c7: 63
f30ad6: 65
1411de5: 65
15d7f89: 65
51c480: 65
8e0307: 68
8e0300: 68
14039f7: 74
f3107d: 75
1406c7f: 75
14039f0: 77
1403f86: 77
140aa78: 79
1403f98: 82
8df4e1: 91
1411074: 94
1403370: 95
1407059: 96
1407045: 97
8f70bd: 98
140aa7d: 98
140e1d0: 98
8f70b4: 98
140ac4f: 104
140702f: 107
140a697: 109
1411dea: 109
1403faf: 110
140e945: 119
1409b00: 120
1410a59: 122
92f80b: 125
528e50: 128
1404943: 129
140c286: 133
1411070: 133
140c2e3: 134
1407071: 136
1406f7b: 137
92f9e1: 141
52a5c0: 143
92f808: 150
15d6534: 153
140494d: 154
140c2d6: 158
932f11: 163
14076ff: 166
932f47: 168
1409536: 173
529cd8: 174
140e939: 176
140bec4: 183
140cd76: 189
14039f3: 192
1407769: 196
14067cb: 198
8e9ec0: 200
1411df4: 207
140ac45: 214
931399: 216
141107d: 218
140952c: 221
140bece: 223
140e164: 225
1409487: 227
140d003: 230
1409be9: 230
930095: 234
1406f69: 247
14039fb: 247
92f7fc: 247
140e66c: 248
1406f59: 249
140e62d: 256
140aa50: 257
5073ad: 262
140e16d: 263
140f1a4: 265
140bec0: 266
1411079: 269
140e659: 271
140f423: 275
1403e05: 277
92f9dd: 287
1411965: 293
1411d0f: 298
140c2f4: 302
92d045: 306
93009e: 317
1403375: 318
140ac78: 319
1409519: 320
4f9962: 322
140e160: 324
14115e5: 329
936b60: 337
1403e65: 339
140bec9: 351
1409499: 359
1409bed: 362
9368c0: 363
14064c0: 364
930090: 365
936600: 367
141196d: 369
1411cd5: 374
140e169: 375
14076b5: 379
14120d0: 382
1408184: 405
92d056: 409
14115ed: 440
14064fa: 444
1404390: 444
930099: 463
1411cdd: 485
92e228: 486
1408175: 494
507838: 510
140767d: 511
1407697: 515
1406553: 533
140c301: 545
14108d8: 552
92f7f0: 557
140774f: 557
140651e: 577
92e21b: 587
8e9cd0: 594
1406bf0: 628
14120d5: 628
14108ca: 677
1406558: 685
1406533: 695
1409f60: 699
508230: 703
140a610: 717
14064b8: 723
140439e: 731
9306c0: 820
1403290: 831
1409f72: 832
1411cf9: 842
140e69a: 858
1403294: 932
1403e40: 994
14108fa: 1064
140aa62: 1071
1403e16: 1100
8dff2a: 1167
507390: 1172
1403634: 1186
930d63: 1189
140329f: 1190
f30d10: 1202
1403630: 1265
4f97b0: 1298
8e74e0: 1302
931393: 1383
140aa68: 1452
1403e5a: 1454
140e686: 1456
14108ff: 1471
f312d5: 1590
1411cfe: 1626
8f73d3: 1689
8f7401: 1695
1403e30: 1701
14064e7: 1727
14032af: 1797
140aa8e: 1870
8f73e4: 1923
14032a3: 2364
8dfcf8: 2567
8df4c0: 2716
528e82: 2741
8f70d1: 2844
1410904: 2906
8f7102: 2922
8f70e4: 2979
1408204: 3289
1411d0a: 3349
8e09f9: 4208
14032b5: 4506
8df23e: 5348
8e09f0: 5602
8e081a: 6309
8e0810: 8390
8e7620: 13967
5073b3: 26383
8e7320: 41834

RAW hits: 173070
Loads Generated: 59115278
Loads sent to L1D: 58942206
Stores Generated: 10855289
Stores sent to L1D: 10855295
Major fault: 0 Minor fault: 10671
Allocated PAGES: 10671
Total Load insts: 73563258
Total Non-spec loads: 5982693
Percentage of speculative loads: 91.8673
L1D response latency: 191.06 cycles
Load retirement latency: 353.6 cycles


stream: 
stream:times selected: 8405641
stream:pref_filled: 3360003
stream:pref_useful: 2861123
stream:pref_late: 136498
stream:misses: 39211
stream:misses_by_poll: 0

CS: 
CS:times selected: 7724455
CS:pref_filled: 320700
CS:pref_useful: 282207
CS:pref_late: 3526
CS:misses: 707940
CS:misses_by_poll: 3201

CPLX: 
CPLX:times selected: 680899
CPLX:pref_filled: 99774
CPLX:pref_useful: 77503
CPLX:pref_late: 2309
CPLX:misses: 153372
CPLX:misses_by_poll: 294

NL_L1: 
NL:times selected: 1230
NL:pref_filled: 345
NL:pref_useful: 26
NL:pref_late: 7
NL:misses: 986
NL:misses_by_poll: 0

total selections: 16812225
total_filled: 2826522
total_useful: 2375789
total_late: 144997
total_polluted: 3495
total_misses_after_warmup: 861812
conflicts: 47480
Degree Incremented Times: 671975
Degree Decremented Times: 134

L1 IP Table Write Accesses: 40634267
L1 IP Table Read Accesses: 40586787
L1 RST Write Accesses: 6205988
L1 RST Read Accesses: 12411976
L1 CSPT Write Accesses: 6205988
L1 CSPT Read Accesses: 7834498
L1 RR Filter Tag Write Accesses: 17261449
L1 RR Filter Tag Read Accesses: 1289655189
L1 IP Table Tag Write Accesses: 40703890
L1 IP Table Tag Read Accesses: 40703890
L1 RST Tag Write Accesses: 0
L1 RST Tag Read Accesses: 57369734
L1 RR Filter Write Accesses: 0
L1 RR Filter Read Accesses: 52388007
test: 392060

DRAM Statistics
 CHANNEL 0
 RQ ROW_BUFFER_HIT:     773785  ROW_BUFFER_MISS:    1738420
 DBUS_CONGESTED:       1034
 WQ ROW_BUFFER_HIT:     244427  ROW_BUFFER_MISS:     668806  FULL:        115

 AVG_CONGESTED_CYCLE: 4
 All warmup complete: 2
Channel 0 Bank busy for read cycles: 0
Channel 0 Bank busy for write cycles: 0
Channel 0
Rank 0
0banks busy for read cycles: 115078242
0banks busy for write cycles: 77424
1banks busy for read cycles: 29248512
1banks busy for write cycles: 8721828
2banks busy for read cycles: 18540892
2banks busy for write cycles: 4685309
3banks busy for read cycles: 9878126
3banks busy for write cycles: 1568051
4banks busy for read cycles: 7004164
4banks busy for write cycles: 918369
5banks busy for read cycles: 6462762
5banks busy for write cycles: 759888
6banks busy for read cycles: 6605722
6banks busy for write cycles: 683222
7banks busy for read cycles: 7689378
7banks busy for write cycles: 1724367
8banks busy for read cycles: 7476935
8banks busy for write cycles: 14131985

CPU 0 Branch Prediction Accuracy: 99.8685% MPKI: 0.079065 Average ROB Occupancy at Mispredict: 124.734
Branch types
NOT_BRANCH: 187976351 93.9882%
BRANCH_DIRECT_JUMP: 290387 0.145194%
BRANCH_INDIRECT: 12 6e-06%
BRANCH_CONDITIONAL: 11132876 5.56644%
BRANCH_DIRECT_CALL: 300051 0.150026%
BRANCH_INDIRECT_CALL: 0 0%
BRANCH_RETURN: 300050 0.150025%
BRANCH_OTHER: 0 0%

DRAM PAGES: 1048576
Allocated PAGES: 10671
