
*** ChampSim Multicore Out-of-Order Simulator ***

Warmup Instructions: 50000000
Simulation Instructions: 200000000
Number of CPUs: 1
LLC sets: 2048
LLC ways: 16
Secure Berti: OFF
Berti: OFF
Berti Fill: OFF
On commit prefetching: OFF
L2 LLC Bypass speculative loads: OFF
Off-chip DRAM Size: 4096 MB Channels: 1 Width: 64-bit Data Rate: 6400 MT/s
CPU 0 runs /home/sumon/secure_berti/Berti_Baseline/../../traces/spec/623.xalancbmk_s-202B.champsimtrace.xz
.xz
BTB has LRU replacement policy
ITLB has LRU replacement policy
DTLB has LRU replacement policy
STLB has LRU replacement policy
L1I has LRU replacement policy
IP Table Entries: 1024
CSPT Entries: 128
RR_ENTRIES: 32
RST_ENTRIES: 8
L1D has LRU replacement policy
L2C has LRU replacement policy
LLC has LRU replacement policy
Heartbeat CPU 0 instructions: 10000001 cycles: 2829568 heartbeat IPC: 3.53411 cumulative IPC: 3.53411 (Simulation time: 0 hr 0 min 25 sec) 
Heartbeat CPU 0 instructions: 20000002 cycles: 5662554 heartbeat IPC: 3.52984 cumulative IPC: 3.53198 (Simulation time: 0 hr 0 min 49 sec) 
Heartbeat CPU 0 instructions: 30000001 cycles: 8495872 heartbeat IPC: 3.52943 cumulative IPC: 3.53113 (Simulation time: 0 hr 1 min 14 sec) 
Heartbeat CPU 0 instructions: 40000001 cycles: 11324479 heartbeat IPC: 3.53531 cumulative IPC: 3.53217 (Simulation time: 0 hr 1 min 39 sec) 
Heartbeat CPU 0 instructions: 50000000 cycles: 14158487 heartbeat IPC: 3.52857 cumulative IPC: 3.53145 (Simulation time: 0 hr 2 min 4 sec) 

Warmup complete CPU 0 instructions: 50000004 cycles: 14158488 (Simulation time: 0 hr 2 min 4 sec) 

Heartbeat CPU 0 instructions: 60000002 cycles: 25172993 heartbeat IPC: 0.907894 cumulative IPC: 0.907894 (Simulation time: 0 hr 2 min 30 sec) 
Heartbeat CPU 0 instructions: 70000000 cycles: 36185077 heartbeat IPC: 0.908093 cumulative IPC: 0.907993 (Simulation time: 0 hr 2 min 55 sec) 
Heartbeat CPU 0 instructions: 80000000 cycles: 47225830 heartbeat IPC: 0.905735 cumulative IPC: 0.907239 (Simulation time: 0 hr 3 min 22 sec) 
Heartbeat CPU 0 instructions: 90000001 cycles: 58170553 heartbeat IPC: 0.913682 cumulative IPC: 0.908842 (Simulation time: 0 hr 3 min 50 sec) 
Heartbeat CPU 0 instructions: 100000000 cycles: 69162418 heartbeat IPC: 0.909764 cumulative IPC: 0.909026 (Simulation time: 0 hr 4 min 19 sec) 
Heartbeat CPU 0 instructions: 110000000 cycles: 80078948 heartbeat IPC: 0.916042 cumulative IPC: 0.910188 (Simulation time: 0 hr 4 min 49 sec) 
Heartbeat CPU 0 instructions: 120000002 cycles: 91033237 heartbeat IPC: 0.912885 cumulative IPC: 0.910572 (Simulation time: 0 hr 5 min 19 sec) 
Heartbeat CPU 0 instructions: 130000002 cycles: 102068089 heartbeat IPC: 0.90622 cumulative IPC: 0.910026 (Simulation time: 0 hr 5 min 49 sec) 
Heartbeat CPU 0 instructions: 140000001 cycles: 113119480 heartbeat IPC: 0.904863 cumulative IPC: 0.909449 (Simulation time: 0 hr 6 min 20 sec) 
Heartbeat CPU 0 instructions: 150000001 cycles: 124162419 heartbeat IPC: 0.905556 cumulative IPC: 0.909058 (Simulation time: 0 hr 6 min 52 sec) 
Heartbeat CPU 0 instructions: 160000000 cycles: 135129871 heartbeat IPC: 0.911789 cumulative IPC: 0.909306 (Simulation time: 0 hr 7 min 23 sec) 
Heartbeat CPU 0 instructions: 170000000 cycles: 146116086 heartbeat IPC: 0.910232 cumulative IPC: 0.909383 (Simulation time: 0 hr 7 min 54 sec) 
Heartbeat CPU 0 instructions: 180000003 cycles: 157209548 heartbeat IPC: 0.901432 cumulative IPC: 0.908766 (Simulation time: 0 hr 8 min 25 sec) 
Heartbeat CPU 0 instructions: 190000000 cycles: 168165969 heartbeat IPC: 0.912707 cumulative IPC: 0.909047 (Simulation time: 0 hr 8 min 56 sec) 
Heartbeat CPU 0 instructions: 200000002 cycles: 179194423 heartbeat IPC: 0.906746 cumulative IPC: 0.908893 (Simulation time: 0 hr 9 min 26 sec) 
Heartbeat CPU 0 instructions: 210000003 cycles: 190132843 heartbeat IPC: 0.914209 cumulative IPC: 0.909223 (Simulation time: 0 hr 9 min 56 sec) 
Heartbeat CPU 0 instructions: 220000000 cycles: 201144672 heartbeat IPC: 0.908114 cumulative IPC: 0.909158 (Simulation time: 0 hr 10 min 24 sec) 
Heartbeat CPU 0 instructions: 230000001 cycles: 212044825 heartbeat IPC: 0.917418 cumulative IPC: 0.909613 (Simulation time: 0 hr 10 min 51 sec) 
Heartbeat CPU 0 instructions: 240000003 cycles: 222949173 heartbeat IPC: 0.917066 cumulative IPC: 0.910002 (Simulation time: 0 hr 11 min 17 sec) 
Heartbeat CPU 0 instructions: 250000001 cycles: 233897847 heartbeat IPC: 0.913352 cumulative IPC: 0.910169 (Simulation time: 0 hr 11 min 43 sec) 
Finished CPU 0 instructions: 200000000 cycles: 219739360 cumulative IPC: 0.910169 (Simulation time: 0 hr 11 min 43 sec) 

ChampSim completed all CPUs

Region of Interest Statistics

CPU 0 cumulative IPC: 0.910169 instructions: 200000000 cycles: 219739360
ITLB TOTAL     ACCESS:   28340689  HIT:   28340689  MISS:          0  HIT %:        100  MISS %:          0   MPKI: 0
ITLB Test counter:          0
ITLB LOAD TRANSLATION ACCESS:   28340689  HIT:   28340689  MISS:          0  HIT %:        100  MISS %:          0   MPKI: 0
ITLB PREFETCH  REQUESTED:          0  ISSUED:          0  USEFUL:          0  USELESS:          0
ITLB USEFUL LOAD PREFETCHES:          0 PREFETCH ISSUED TO LOWER LEVEL:          0  ACCURACY: -nan
ITLB TIMELY PREFETCHES:          0 LATE PREFETCHES: 0 DROPPED PREFETCHES: 0
ITLB COMMIT LATE PREFETCHES: 0 MISSED OPPORTUNITY: 0 LATE IN PQ: 0 UNCOVERED: 0
ITLB COMMIT LATE MSHR PREFETCHES: 0
ITLB MPKI TOTAL: 0 MSHR LATE: 0 PQ LATE: 0 COMMIT LATE: 0 MISSED OPPORTUNITY: 0 UNCOVERED: 0
ITLB PREFETCHES SAME FILL-ORIGIN LEVEL: 0 DIFFERENT FILL-ORIGIN LEVEL: 0
ITLB AVERAGE MISS LATENCY: -nan cycles
ITLB AVERAGE MISS LATENCY LOAD: -nan cycles
ITLB AVERAGE MISS LATENCY PREFETCH: -nan cycles
ITLB AVERAGE MSHR OCCUPANCY: 0
ITLB MSHR FULL: 0
ITLB RQ	ACCESS:   35416318	FORWARD:          0	MERGED:    7075629	TO_CACHE:   28340689

DTLB TOTAL     ACCESS:   31637854  HIT:   31550082  MISS:      87772  HIT %:    99.7226  MISS %:   0.277427   MPKI: 0.43886
DTLB Test counter:          0
DTLB LOAD TRANSLATION ACCESS:   31637854  HIT:   31550082  MISS:      87772  HIT %:    99.7226  MISS %:   0.277427   MPKI: 0.43886
DTLB PREFETCH  REQUESTED:          0  ISSUED:          0  USEFUL:          0  USELESS:          0
DTLB USEFUL LOAD PREFETCHES:          0 PREFETCH ISSUED TO LOWER LEVEL:          0  ACCURACY: -nan
DTLB TIMELY PREFETCHES:          0 LATE PREFETCHES: 0 DROPPED PREFETCHES: 0
DTLB COMMIT LATE PREFETCHES: 0 MISSED OPPORTUNITY: 0 LATE IN PQ: 0 UNCOVERED: 0
DTLB COMMIT LATE MSHR PREFETCHES: 0
DTLB MPKI TOTAL: 0 MSHR LATE: 0 PQ LATE: 0 COMMIT LATE: 0 MISSED OPPORTUNITY: 0 UNCOVERED: 0
DTLB PREFETCHES SAME FILL-ORIGIN LEVEL: 0 DIFFERENT FILL-ORIGIN LEVEL: 0
DTLB AVERAGE MISS LATENCY: 9.51953 cycles
DTLB AVERAGE MISS LATENCY LOAD: -nan cycles
DTLB AVERAGE MISS LATENCY PREFETCH: -nan cycles
DTLB AVERAGE MSHR OCCUPANCY: 0.00116103
DTLB MSHR FULL: 0
DTLB RQ	ACCESS:   35917304	FORWARD:          0	MERGED:    4278934	TO_CACHE:   31638370

STLB TOTAL     ACCESS:    2836912  HIT:    2836730  MISS:        182  HIT %:    99.9936  MISS %: 0.00641543   MPKI: 0.00091
STLB Test counter:          0
STLB LOAD TRANSLATION ACCESS:      87772  HIT:      87590  MISS:        182  HIT %:    99.7926  MISS %:   0.207355   MPKI: 0.00091
STLB TRANSLATION FROM L1D PREFETCHER ACCESS:    2749140  HIT:    2749140  MISS:          0  HIT %:        100  MISS %:          0   MPKI: 0
STLB PREFETCH  REQUESTED:          0  ISSUED:          0  USEFUL:          0  USELESS:          0
STLB USEFUL LOAD PREFETCHES:          0 PREFETCH ISSUED TO LOWER LEVEL:          0  ACCURACY: -nan
STLB TIMELY PREFETCHES:          0 LATE PREFETCHES: 0 DROPPED PREFETCHES: 0
STLB COMMIT LATE PREFETCHES: 0 MISSED OPPORTUNITY: 0 LATE IN PQ: 0 UNCOVERED: 0
STLB COMMIT LATE MSHR PREFETCHES: 0
STLB MPKI TOTAL: 0 MSHR LATE: 0 PQ LATE: 0 COMMIT LATE: 0 MISSED OPPORTUNITY: 0 UNCOVERED: 0
STLB PREFETCHES SAME FILL-ORIGIN LEVEL: 0 DIFFERENT FILL-ORIGIN LEVEL: 0
STLB AVERAGE MISS LATENCY: 248.923 cycles
STLB AVERAGE MISS LATENCY LOAD: -nan cycles
STLB AVERAGE MISS LATENCY PREFETCH: -nan cycles
STLB AVERAGE MSHR OCCUPANCY: 9.90514e-05
STLB MSHR FULL: 0
STLB RQ	ACCESS:    7539823	FORWARD:          0	MERGED:    4702911	TO_CACHE:    2836912

STLB Hit, L1D data hit: 0
STLB Hit, L2C data hit: 0
STLB Hit, LLC data hit: 0
STLB Hit, LLC data miss: 0
STLB STLB hints to L2: 0
L1D TOTAL     ACCESS:   43239341  HIT:   37786951  MISS:    5452390  HIT %:    87.3902  MISS %:    12.6098   MPKI: 27.2619
L1D Test counter:          0
L1D LOAD      ACCESS:   32357367  HIT:   32142690  MISS:     235888  HIT %:    99.3365  MISS %:   0.663456   MPKI: 1.07339
L1D RFO       ACCESS:    3538725  HIT:    3538725  MISS:          0  HIT %:        100  MISS %:          0   MPKI: 0
L1D PREFETCH  ACCESS:    7343249  HIT:    2105536  MISS:    5237713  HIT %:    28.6731  MISS %:    71.3269   MPKI: 26.1886
L1D PREFETCH  REQUESTED:   14919573  ISSUED:   14904102  USEFUL:    4806387  USELESS:     431340
L1D USEFUL LOAD PREFETCHES:    4806387 PREFETCH ISSUED TO LOWER LEVEL:    5264993  ACCURACY: 91.2895
L1D TIMELY PREFETCHES:    4806387 LATE PREFETCHES: 27277 DROPPED PREFETCHES: 0
L1D COMMIT LATE PREFETCHES: 0 MISSED OPPORTUNITY: 0 LATE IN PQ: 56579 UNCOVERED: 0
L1D COMMIT LATE MSHR PREFETCHES: 0
L1D MPKI TOTAL: 1.17944 MSHR LATE: 0.136385 PQ LATE: 0.282895 COMMIT LATE: 0 MISSED OPPORTUNITY: 0 UNCOVERED: 0
L1D PREFETCHES SAME FILL-ORIGIN LEVEL: 5264993 DIFFERENT FILL-ORIGIN LEVEL: 0
L1D AVERAGE MISS LATENCY: 113.841 cycles
L1D AVERAGE MISS LATENCY LOAD: 99.7968 cycles
L1D AVERAGE MISS LATENCY PREFETCH: 114.417 cycles
L1D AVERAGE MSHR OCCUPANCY: 2.32296
L1D MSHR FULL: 0.00141631
L1D RQ	ACCESS:   59778501	FORWARD:          0	MERGED:   27098344	TO_CACHE:   32378579
L1D WQ	ACCESS:    3538725	FORWARD:     301578	MERGED:          0	TO_CACHE:    3538725
L1D PQ	ACCESS:    7452051	FORWARD:          0	MERGED:          0	TO_CACHE:    7452051

L1D UNIQUE REGIONS ACCESSED: 0
L1D REGIONS CONFLICTS: 0
L1D Cross Page Prefetch Requests: 0
L1D Same Page Prefetch Requests: 9318814
L1D ROI Sum of L1D PQ occupancy: 102321129
L1D PREFETCHES PUSHED FROM L2C: 0
59ce14: 28
59ce33: 28
59cdf6: 32
59ce10: 32
59d510: 37
59ce37: 66
59d4f7: 109
59ce04: 124
59ce27: 135
59d6e1: 137
59d6dd: 137
59cec5: 137
59cd53: 138
59d695: 138
59cd46: 138
59cdb0: 890
59cd89: 1887
59cdee: 5409
59d4e0: 7352
59cd8d: 10364
59cdcb: 12309
59d4d1: 14813
59cdcf: 17351
59cd9b: 18153
59cdf2: 19871
59cdbf: 38112
59cde2: 66750
L1I TOTAL     ACCESS:   35416317  HIT:   35416317  MISS:          0  HIT %:        100  MISS %:          0   MPKI: 0
L1I Test counter:          0
L1I LOAD      ACCESS:   35416317  HIT:   35416317  MISS:          0  HIT %:        100  MISS %:          0   MPKI: 0
L1I PREFETCH  REQUESTED:          0  ISSUED:          0  USEFUL:          0  USELESS:          0
L1I USEFUL LOAD PREFETCHES:          0 PREFETCH ISSUED TO LOWER LEVEL:          0  ACCURACY: -nan
L1I TIMELY PREFETCHES:          0 LATE PREFETCHES: 0 DROPPED PREFETCHES: 0
L1I COMMIT LATE PREFETCHES: 0 MISSED OPPORTUNITY: 0 LATE IN PQ: 0 UNCOVERED: 0
L1I COMMIT LATE MSHR PREFETCHES: 0
L1I MPKI TOTAL: 0 MSHR LATE: 0 PQ LATE: 0 COMMIT LATE: 0 MISSED OPPORTUNITY: 0 UNCOVERED: 0
L1I PREFETCHES SAME FILL-ORIGIN LEVEL: 0 DIFFERENT FILL-ORIGIN LEVEL: 0
L1I AVERAGE MISS LATENCY: -nan cycles
L1I AVERAGE MISS LATENCY LOAD: -nan cycles
L1I AVERAGE MISS LATENCY PREFETCH: -nan cycles
L1I AVERAGE MSHR OCCUPANCY: 0
L1I MSHR FULL: 0
L1I RQ	ACCESS:   66006120	FORWARD:          0	MERGED:   30589802	TO_CACHE:   35416318

BTB TOTAL     ACCESS:   34960384  HIT:   34960367  MISS:         17  HIT %:        100  MISS %: 4.86265e-05   MPKI: 8.5e-05
BTB Test counter:          0
BTB BRANCH_DIRECT_JUMP	ACCESS:        138  HIT:        137  MISS:          1
BTB BRANCH_INDIRECT	ACCESS:          0  HIT:          0  MISS:          0
BTB BRANCH_CONDITIONAL	ACCESS:   31422491  HIT:   31422482  MISS:          9
BTB BRANCH_DIRECT_CALL	ACCESS:     884507  HIT:     884505  MISS:          2
BTB BRANCH_INDIRECT_CALL	ACCESS:     884370  HIT:     884369  MISS:          1
BTB BRANCH_RETURN	ACCESS:    1768878  HIT:    1768874  MISS:          4
BTB BRANCH_OTHER ACCESS:          0  HIT:          0  MISS:          0

L2C TOTAL     ACCESS:    5452708  HIT:      84453  MISS:    5368255  HIT %:    1.54883  MISS %:    98.4512   MPKI: 26.8413
L2C Test counter:          0
L2C LOAD      ACCESS:     187400  HIT:       3557  MISS:     183843  HIT %:    1.89808  MISS %:    98.1019   MPKI: 0.919215
L2C DATA LOAD MPKI: 0.919215
L2C INSTRUCTION LOAD MPKI: 0
L2C PREFETCH  ACCESS:    5264989  HIT:      80706  MISS:    5184283  HIT %:    1.53288  MISS %:    98.4671   MPKI: 25.9214
L2C DATA PREFETCH MPKI: 25.9214
L2C INSTRUCTION PREFETCH MPKI: 0
L2C WRITEBACK ACCESS:        137  HIT:        137  MISS:          0  HIT %:        100  MISS %:          0   MPKI: 0
L2C LOAD TRANSLATION ACCESS:        182  HIT:         53  MISS:        129  HIT %:    29.1209  MISS %:    70.8791   MPKI: 0.000645
L2C PREFETCH  REQUESTED:          0  ISSUED:          0  USEFUL:       1406  USELESS:    5182818
L2C USEFUL LOAD PREFETCHES:       1406 PREFETCH ISSUED TO LOWER LEVEL:    5184287  ACCURACY: 0.0271204
L2C TIMELY PREFETCHES:       1406 LATE PREFETCHES: 0 DROPPED PREFETCHES: 0
L2C COMMIT LATE PREFETCHES: 0 MISSED OPPORTUNITY: 0 LATE IN PQ: 0 UNCOVERED: 0
L2C COMMIT LATE MSHR PREFETCHES: 0
L2C MPKI TOTAL: 0.919215 MSHR LATE: 0 PQ LATE: 0 COMMIT LATE: 0 MISSED OPPORTUNITY: 0 UNCOVERED: 0
L2C PREFETCHES SAME FILL-ORIGIN LEVEL: 0 DIFFERENT FILL-ORIGIN LEVEL: 0
L2C AVERAGE MISS LATENCY: 100.617 cycles
L2C AVERAGE MISS LATENCY LOAD: 100.878 cycles
L2C AVERAGE MISS LATENCY PREFETCH: 100.605 cycles
L2C AVERAGE MSHR OCCUPANCY: 0.795306
L2C MSHR FULL: 0
L2C RQ	ACCESS:     187582	FORWARD:          0	MERGED:          0	TO_CACHE:     187582
L2C WQ	ACCESS:        137	FORWARD:          0	MERGED:          0	TO_CACHE:        137
L2C PQ	ACCESS:    5264993	FORWARD:          0	MERGED:          0	TO_CACHE:    5264993

L2C Instructions Evicting Data 0
L2C Translations Evicting Data 129
L2C Data Evicting Data 5367996
L2C Instructions Evicting Instructions 0
L2C Translations Evicting Instructions 0
L2C Data Evicting Instructions 0
L2C Instructions Evicting Translations 0
L2C Translations Evicting Translations 0
L2C Data Evicting Translations 130
L2C Dense regions hint from L2: 0
59ce14: 7
59ce37: 20
59ce33: 28
59ce10: 31
59cdf6: 32
59d510: 34
59ce04: 108
59d4f7: 108
59d695: 125
59d6dd: 126
59cec5: 126
59cd53: 126
59d6e1: 127
59ce27: 132
59cd46: 136
59cdb0: 526
59cd89: 1847
59d4e0: 2969
59cdee: 4851
59cd8d: 8025
59d4d1: 10977
59cdcb: 11896
59cdcf: 13663
59cd9b: 17030
59cdf2: 17690
59cdbf: 32334
59cde2: 60769
PSCL5 TOTAL     ACCESS:        182  HIT:        182  MISS:          0  HIT %:        100  MISS %:          0   MPKI: 0
PSCL5 Test counter:          0
PSCL5 LOAD TRANSLATION ACCESS:        182  HIT:        182  MISS:          0  HIT %:        100  MISS %:          0   MPKI: 0
PSCL5 PREFETCH  REQUESTED:          0  ISSUED:          0  USEFUL:          0  USELESS:          0
PSCL5 USEFUL LOAD PREFETCHES:          0 PREFETCH ISSUED TO LOWER LEVEL:          0  ACCURACY: -nan
PSCL5 TIMELY PREFETCHES:          0 LATE PREFETCHES: 0 DROPPED PREFETCHES: 0
PSCL5 COMMIT LATE PREFETCHES: 0 MISSED OPPORTUNITY: 0 LATE IN PQ: 0 UNCOVERED: 0
PSCL5 COMMIT LATE MSHR PREFETCHES: 0
PSCL5 MPKI TOTAL: 0 MSHR LATE: 0 PQ LATE: 0 COMMIT LATE: 0 MISSED OPPORTUNITY: 0 UNCOVERED: 0
PSCL5 PREFETCHES SAME FILL-ORIGIN LEVEL: 0 DIFFERENT FILL-ORIGIN LEVEL: 0

PSCL4 TOTAL     ACCESS:        182  HIT:        182  MISS:          0  HIT %:        100  MISS %:          0   MPKI: 0
PSCL4 Test counter:          0
PSCL4 LOAD TRANSLATION ACCESS:        182  HIT:        182  MISS:          0  HIT %:        100  MISS %:          0   MPKI: 0
PSCL4 PREFETCH  REQUESTED:          0  ISSUED:          0  USEFUL:          0  USELESS:          0
PSCL4 USEFUL LOAD PREFETCHES:          0 PREFETCH ISSUED TO LOWER LEVEL:          0  ACCURACY: -nan
PSCL4 TIMELY PREFETCHES:          0 LATE PREFETCHES: 0 DROPPED PREFETCHES: 0
PSCL4 COMMIT LATE PREFETCHES: 0 MISSED OPPORTUNITY: 0 LATE IN PQ: 0 UNCOVERED: 0
PSCL4 COMMIT LATE MSHR PREFETCHES: 0
PSCL4 MPKI TOTAL: 0 MSHR LATE: 0 PQ LATE: 0 COMMIT LATE: 0 MISSED OPPORTUNITY: 0 UNCOVERED: 0
PSCL4 PREFETCHES SAME FILL-ORIGIN LEVEL: 0 DIFFERENT FILL-ORIGIN LEVEL: 0

PSCL3 TOTAL     ACCESS:        182  HIT:        182  MISS:          0  HIT %:        100  MISS %:          0   MPKI: 0
PSCL3 Test counter:          0
PSCL3 LOAD TRANSLATION ACCESS:        182  HIT:        182  MISS:          0  HIT %:        100  MISS %:          0   MPKI: 0
PSCL3 PREFETCH  REQUESTED:          0  ISSUED:          0  USEFUL:          0  USELESS:          0
PSCL3 USEFUL LOAD PREFETCHES:          0 PREFETCH ISSUED TO LOWER LEVEL:          0  ACCURACY: -nan
PSCL3 TIMELY PREFETCHES:          0 LATE PREFETCHES: 0 DROPPED PREFETCHES: 0
PSCL3 COMMIT LATE PREFETCHES: 0 MISSED OPPORTUNITY: 0 LATE IN PQ: 0 UNCOVERED: 0
PSCL3 COMMIT LATE MSHR PREFETCHES: 0
PSCL3 MPKI TOTAL: 0 MSHR LATE: 0 PQ LATE: 0 COMMIT LATE: 0 MISSED OPPORTUNITY: 0 UNCOVERED: 0
PSCL3 PREFETCHES SAME FILL-ORIGIN LEVEL: 0 DIFFERENT FILL-ORIGIN LEVEL: 0

PSCL2 TOTAL     ACCESS:        182  HIT:        182  MISS:          0  HIT %:        100  MISS %:          0   MPKI: 0
PSCL2 Test counter:          0
PSCL2 LOAD TRANSLATION ACCESS:        182  HIT:        182  MISS:          0  HIT %:        100  MISS %:          0   MPKI: 0
PSCL2 PREFETCH  REQUESTED:          0  ISSUED:          0  USEFUL:          0  USELESS:          0
PSCL2 USEFUL LOAD PREFETCHES:          0 PREFETCH ISSUED TO LOWER LEVEL:          0  ACCURACY: -nan
PSCL2 TIMELY PREFETCHES:          0 LATE PREFETCHES: 0 DROPPED PREFETCHES: 0
PSCL2 COMMIT LATE PREFETCHES: 0 MISSED OPPORTUNITY: 0 LATE IN PQ: 0 UNCOVERED: 0
PSCL2 COMMIT LATE MSHR PREFETCHES: 0
PSCL2 MPKI TOTAL: 0 MSHR LATE: 0 PQ LATE: 0 COMMIT LATE: 0 MISSED OPPORTUNITY: 0 UNCOVERED: 0
PSCL2 PREFETCHES SAME FILL-ORIGIN LEVEL: 0 DIFFERENT FILL-ORIGIN LEVEL: 0

LLC TOTAL     ACCESS:    5368382  HIT:     843636  MISS:    4524746  HIT %:    15.7149  MISS %:    84.2851   MPKI: 22.6237
LLC Test counter:          0
LLC LOAD      ACCESS:     183843  HIT:      30487  MISS:     153356  HIT %:    16.5832  MISS %:    83.4168   MPKI: 0.76678
LLC PREFETCH  ACCESS:    5184283  HIT:     812996  MISS:    4371287  HIT %:    15.6819  MISS %:    84.3181   MPKI: 21.8564
LLC WRITEBACK ACCESS:        127  HIT:        127  MISS:          0  HIT %:        100  MISS %:          0   MPKI: 0
LLC LOAD TRANSLATION ACCESS:        129  HIT:         26  MISS:        103  HIT %:     20.155  MISS %:     79.845   MPKI: 0.000515
LLC PREFETCH  REQUESTED:          0  ISSUED:          0  USEFUL:       3606  USELESS:    4367549
LLC USEFUL LOAD PREFETCHES:       3606 PREFETCH ISSUED TO LOWER LEVEL:    4371292  ACCURACY: 0.0824928
LLC TIMELY PREFETCHES:       3606 LATE PREFETCHES: 0 DROPPED PREFETCHES: 0
LLC COMMIT LATE PREFETCHES: 0 MISSED OPPORTUNITY: 0 LATE IN PQ: 0 UNCOVERED: 0
LLC COMMIT LATE MSHR PREFETCHES: 0
LLC MPKI TOTAL: 0.76678 MSHR LATE: 0 PQ LATE: 0 COMMIT LATE: 0 MISSED OPPORTUNITY: 0 UNCOVERED: 0
LLC PREFETCHES SAME FILL-ORIGIN LEVEL: 0 DIFFERENT FILL-ORIGIN LEVEL: 0
LLC AVERAGE MISS LATENCY: 83.7753 cycles
LLC AVERAGE MISS LATENCY LOAD: 84.9542 cycles
LLC AVERAGE MISS LATENCY PREFETCH: 83.7313 cycles
LLC AVERAGE MSHR OCCUPANCY: 0.655708
LLC MSHR FULL: 0
LLC RQ	ACCESS:     183972	FORWARD:          0	MERGED:          0	TO_CACHE:     183972
LLC WQ	ACCESS:        127	FORWARD:          0	MERGED:          0	TO_CACHE:        127
LLC PQ	ACCESS:    5184287	FORWARD:          0	MERGED:          0	TO_CACHE:    5184287

LLC Dense regions hint to LLC: 0
59ce14: 7
59ce37: 20
59ce33: 26
59d510: 29
59ce10: 30
59cdf6: 31
59cec5: 79
59d6dd: 85
59d6e1: 86
59d695: 93
59d4f7: 98
59ce04: 107
59ce27: 125
59cd53: 126
59cd46: 135
59cdb0: 350
59cd89: 1503
59d4e0: 2381
59cdee: 3261
59cd8d: 6588
59d4d1: 8266
59cdcf: 10465
59cdcb: 11583
59cd9b: 14572
59cdf2: 15045
59cdbf: 26938
59cde2: 51327

RAW hits: 1402
Loads Generated: 59779901
Loads sent to L1D: 59778501
Stores Generated: 3538724
Stores sent to L1D: 3538725
Major fault: 0 Minor fault: 1485
Allocated PAGES: 1485
Total Load insts: 74567214
Total Non-spec loads: 6626630
Percentage of speculative loads: 91.1132
L1D response latency: 114.323 cycles
Load retirement latency: 139.628 cycles


stream: 
stream:times selected: 12032563
stream:pref_filled: 1469502
stream:pref_useful: 962681
stream:pref_late: 22854
stream:misses: 246010
stream:misses_by_poll: 0

CS: 
CS:times selected: 10328952
CS:pref_filled: 4874908
CS:pref_useful: 4846975
CS:pref_late: 1712
CS:misses: 39614
CS:misses_by_poll: 24762

CPLX: 
CPLX:times selected: 1703405
CPLX:pref_filled: 201876
CPLX:pref_useful: 196505
CPLX:pref_late: 275
CPLX:misses: 12264
CPLX:misses_by_poll: 603

NL_L1: 
NL:times selected: 248
NL:pref_filled: 71
NL:pref_useful: 51
NL:pref_late: 3
NL:misses: 35
NL:misses_by_poll: 0

total selections: 24065168
total_filled: 5237713
total_useful: 4806387
total_late: 34943
total_polluted: 25365
total_misses_after_warmup: 235888
conflicts: 58846
Degree Incremented Times: 327726
Degree Decremented Times: 0

L1 IP Table Write Accesses: 31582584
L1 IP Table Read Accesses: 31523738
L1 RST Write Accesses: 9514436
L1 RST Read Accesses: 19028872
L1 CSPT Write Accesses: 9514436
L1 CSPT Read Accesses: 12910829
L1 RR Filter Tag Write Accesses: 7467522
L1 RR Filter Tag Read Accesses: 1578348310
L1 IP Table Tag Write Accesses: 32378578
L1 IP Table Tag Read Accesses: 32378578
L1 RST Tag Write Accesses: 0
L1 RST Tag Read Accesses: 84725981
L1 RR Filter Write Accesses: 0
L1 RR Filter Read Accesses: 76404718
test: 1188477

DRAM Statistics
 CHANNEL 0
 RQ ROW_BUFFER_HIT:    4308017  ROW_BUFFER_MISS:     216732
 DBUS_CONGESTED:          1
 WQ ROW_BUFFER_HIT:          7  ROW_BUFFER_MISS:         72  FULL:          0

 AVG_CONGESTED_CYCLE: 2
 All warmup complete: 2
Channel 0 Bank busy for read cycles: 0
Channel 0 Bank busy for write cycles: 0
Channel 0
Rank 0
0banks busy for read cycles: 138169530
0banks busy for write cycles: 79
1banks busy for read cycles: 29604766
1banks busy for write cycles: 17665
2banks busy for read cycles: 11488732
2banks busy for write cycles: 0
3banks busy for read cycles: 7722321
3banks busy for write cycles: 0
4banks busy for read cycles: 10919190
4banks busy for write cycles: 0
5banks busy for read cycles: 10119208
5banks busy for write cycles: 0
6banks busy for read cycles: 6411053
6banks busy for write cycles: 0
7banks busy for read cycles: 2869442
7banks busy for write cycles: 0
8banks busy for read cycles: 2417375
8banks busy for write cycles: 0

CPU 0 Branch Prediction Accuracy: 99.9949% MPKI: 0.01412 Average ROB Occupancy at Mispredict: 77.3601
Branch types
NOT_BRANCH: 144641778 72.3209%
BRANCH_DIRECT_JUMP: 138 6.9e-05%
BRANCH_INDIRECT: 0 0%
BRANCH_CONDITIONAL: 51820098 25.91%
BRANCH_DIRECT_CALL: 884507 0.442254%
BRANCH_INDIRECT_CALL: 884370 0.442185%
BRANCH_RETURN: 1768878 0.884439%
BRANCH_OTHER: 0 0%

DRAM PAGES: 1048576
Allocated PAGES: 1485
