
*** ChampSim Multicore Out-of-Order Simulator ***

Warmup Instructions: 50000000
Simulation Instructions: 200000000
Number of CPUs: 1
LLC sets: 2048
LLC ways: 16
Secure Berti: OFF
Berti: OFF
Berti Fill: OFF
On commit prefetching: OFF
L2 LLC Bypass speculative loads: OFF
Off-chip DRAM Size: 4096 MB Channels: 1 Width: 64-bit Data Rate: 6400 MT/s
CPU 0 runs /home/sumon/secure_berti/Berti_Baseline/../../traces/spec/649.fotonik3d_s-7084B.champsimtrace.xz
.xz
BTB has LRU replacement policy
ITLB has LRU replacement policy
DTLB has LRU replacement policy
STLB has LRU replacement policy
L1I has LRU replacement policy
IP Table Entries: 1024
CSPT Entries: 128
RR_ENTRIES: 32
RST_ENTRIES: 8
L1D has LRU replacement policy
L2C has LRU replacement policy
LLC has LRU replacement policy
Heartbeat CPU 0 instructions: 10000001 cycles: 2908382 heartbeat IPC: 3.43834 cumulative IPC: 3.43834 (Simulation time: 0 hr 0 min 28 sec) 
Heartbeat CPU 0 instructions: 20000001 cycles: 5816089 heartbeat IPC: 3.43914 cumulative IPC: 3.43874 (Simulation time: 0 hr 0 min 54 sec) 
Heartbeat CPU 0 instructions: 30000001 cycles: 8726281 heartbeat IPC: 3.4362 cumulative IPC: 3.43789 (Simulation time: 0 hr 1 min 20 sec) 
Heartbeat CPU 0 instructions: 40000003 cycles: 11641298 heartbeat IPC: 3.43051 cumulative IPC: 3.43604 (Simulation time: 0 hr 1 min 46 sec) 
Heartbeat CPU 0 instructions: 50000002 cycles: 14563884 heartbeat IPC: 3.42163 cumulative IPC: 3.43315 (Simulation time: 0 hr 2 min 13 sec) 

Warmup complete CPU 0 instructions: 50000002 cycles: 14563884 (Simulation time: 0 hr 2 min 13 sec) 

Heartbeat CPU 0 instructions: 60000000 cycles: 24730541 heartbeat IPC: 0.983607 cumulative IPC: 0.983607 (Simulation time: 0 hr 2 min 36 sec) 
Heartbeat CPU 0 instructions: 70000002 cycles: 34888478 heartbeat IPC: 0.984452 cumulative IPC: 0.984029 (Simulation time: 0 hr 2 min 59 sec) 
Heartbeat CPU 0 instructions: 80000003 cycles: 45049092 heartbeat IPC: 0.984193 cumulative IPC: 0.984084 (Simulation time: 0 hr 3 min 23 sec) 
Heartbeat CPU 0 instructions: 90000001 cycles: 55219457 heartbeat IPC: 0.983249 cumulative IPC: 0.983875 (Simulation time: 0 hr 3 min 46 sec) 
Heartbeat CPU 0 instructions: 100000001 cycles: 65371104 heartbeat IPC: 0.985062 cumulative IPC: 0.984112 (Simulation time: 0 hr 4 min 10 sec) 
Heartbeat CPU 0 instructions: 110000000 cycles: 75532142 heartbeat IPC: 0.984151 cumulative IPC: 0.984119 (Simulation time: 0 hr 4 min 33 sec) 
Heartbeat CPU 0 instructions: 120000000 cycles: 85687929 heartbeat IPC: 0.98466 cumulative IPC: 0.984196 (Simulation time: 0 hr 4 min 56 sec) 
Heartbeat CPU 0 instructions: 130000003 cycles: 95844239 heartbeat IPC: 0.98461 cumulative IPC: 0.984248 (Simulation time: 0 hr 5 min 20 sec) 
Heartbeat CPU 0 instructions: 140000002 cycles: 106003340 heartbeat IPC: 0.984339 cumulative IPC: 0.984258 (Simulation time: 0 hr 5 min 44 sec) 
Heartbeat CPU 0 instructions: 150000001 cycles: 116161741 heartbeat IPC: 0.984407 cumulative IPC: 0.984273 (Simulation time: 0 hr 6 min 7 sec) 
Heartbeat CPU 0 instructions: 160000001 cycles: 126338890 heartbeat IPC: 0.982593 cumulative IPC: 0.98412 (Simulation time: 0 hr 6 min 31 sec) 
Heartbeat CPU 0 instructions: 170000000 cycles: 136514167 heartbeat IPC: 0.982774 cumulative IPC: 0.984008 (Simulation time: 0 hr 6 min 54 sec) 
Heartbeat CPU 0 instructions: 180000001 cycles: 146672255 heartbeat IPC: 0.984437 cumulative IPC: 0.984041 (Simulation time: 0 hr 7 min 18 sec) 
Heartbeat CPU 0 instructions: 190000001 cycles: 156824349 heartbeat IPC: 0.985018 cumulative IPC: 0.98411 (Simulation time: 0 hr 7 min 41 sec) 
Heartbeat CPU 0 instructions: 200000001 cycles: 166983378 heartbeat IPC: 0.984346 cumulative IPC: 0.984126 (Simulation time: 0 hr 8 min 4 sec) 
Heartbeat CPU 0 instructions: 210000003 cycles: 177152229 heartbeat IPC: 0.983395 cumulative IPC: 0.98408 (Simulation time: 0 hr 8 min 28 sec) 
Heartbeat CPU 0 instructions: 220000000 cycles: 187319348 heartbeat IPC: 0.983563 cumulative IPC: 0.98405 (Simulation time: 0 hr 8 min 51 sec) 
Heartbeat CPU 0 instructions: 230000001 cycles: 197474873 heartbeat IPC: 0.984686 cumulative IPC: 0.984085 (Simulation time: 0 hr 9 min 14 sec) 
Heartbeat CPU 0 instructions: 240000002 cycles: 207636807 heartbeat IPC: 0.984065 cumulative IPC: 0.984084 (Simulation time: 0 hr 9 min 37 sec) 
Heartbeat CPU 0 instructions: 250000002 cycles: 217797978 heartbeat IPC: 0.984139 cumulative IPC: 0.984087 (Simulation time: 0 hr 10 min 1 sec) 
Finished CPU 0 instructions: 200000000 cycles: 203234094 cumulative IPC: 0.984087 (Simulation time: 0 hr 10 min 1 sec) 

ChampSim completed all CPUs

Region of Interest Statistics

CPU 0 cumulative IPC: 0.984087 instructions: 200000000 cycles: 203234094
ITLB TOTAL     ACCESS:   24345600  HIT:   24345600  MISS:          0  HIT %:        100  MISS %:          0   MPKI: 0
ITLB Test counter:          0
ITLB LOAD TRANSLATION ACCESS:   24345600  HIT:   24345600  MISS:          0  HIT %:        100  MISS %:          0   MPKI: 0
ITLB PREFETCH  REQUESTED:          0  ISSUED:          0  USEFUL:          0  USELESS:          0
ITLB USEFUL LOAD PREFETCHES:          0 PREFETCH ISSUED TO LOWER LEVEL:          0  ACCURACY: -nan
ITLB TIMELY PREFETCHES:          0 LATE PREFETCHES: 0 DROPPED PREFETCHES: 0
ITLB COMMIT LATE PREFETCHES: 0 MISSED OPPORTUNITY: 0 LATE IN PQ: 0 UNCOVERED: 0
ITLB COMMIT LATE MSHR PREFETCHES: 0
ITLB MPKI TOTAL: 0 MSHR LATE: 0 PQ LATE: 0 COMMIT LATE: 0 MISSED OPPORTUNITY: 0 UNCOVERED: 0
ITLB PREFETCHES SAME FILL-ORIGIN LEVEL: 0 DIFFERENT FILL-ORIGIN LEVEL: 0
ITLB AVERAGE MISS LATENCY: -nan cycles
ITLB AVERAGE MISS LATENCY LOAD: -nan cycles
ITLB AVERAGE MISS LATENCY PREFETCH: -nan cycles
ITLB AVERAGE MSHR OCCUPANCY: 0
ITLB MSHR FULL: 0
ITLB RQ	ACCESS:   29752501	FORWARD:          0	MERGED:    5406901	TO_CACHE:   24345600

DTLB TOTAL     ACCESS:   53302945  HIT:   53174638  MISS:     128307  HIT %:    99.7593  MISS %:   0.240713   MPKI: 0.641535
DTLB Test counter:          0
DTLB LOAD TRANSLATION ACCESS:   53302945  HIT:   53174638  MISS:     128307  HIT %:    99.7593  MISS %:   0.240713   MPKI: 0.641535
DTLB PREFETCH  REQUESTED:          0  ISSUED:          0  USEFUL:          0  USELESS:          0
DTLB USEFUL LOAD PREFETCHES:          0 PREFETCH ISSUED TO LOWER LEVEL:          0  ACCURACY: -nan
DTLB TIMELY PREFETCHES:          0 LATE PREFETCHES: 0 DROPPED PREFETCHES: 0
DTLB COMMIT LATE PREFETCHES: 0 MISSED OPPORTUNITY: 0 LATE IN PQ: 0 UNCOVERED: 0
DTLB COMMIT LATE MSHR PREFETCHES: 0
DTLB MPKI TOTAL: 0 MSHR LATE: 0 PQ LATE: 0 COMMIT LATE: 0 MISSED OPPORTUNITY: 0 UNCOVERED: 0
DTLB PREFETCHES SAME FILL-ORIGIN LEVEL: 0 DIFFERENT FILL-ORIGIN LEVEL: 0
DTLB AVERAGE MISS LATENCY: 65.9334 cycles
DTLB AVERAGE MISS LATENCY LOAD: -nan cycles
DTLB AVERAGE MISS LATENCY PREFETCH: -nan cycles
DTLB AVERAGE MSHR OCCUPANCY: 0.0127603
DTLB MSHR FULL: 0.000105345
DTLB RQ	ACCESS:   58527060	FORWARD:          0	MERGED:    5221960	TO_CACHE:   53305100

STLB TOTAL     ACCESS:    4954272  HIT:    4899679  MISS:      54593  HIT %:    98.8981  MISS %:    1.10194   MPKI: 0.272965
STLB Test counter:          0
STLB LOAD TRANSLATION ACCESS:     128307  HIT:      73714  MISS:      54593  HIT %:    57.4513  MISS %:    42.5487   MPKI: 0.272965
STLB TRANSLATION FROM L1D PREFETCHER ACCESS:    4825965  HIT:    4825965  MISS:          0  HIT %:        100  MISS %:          0   MPKI: 0
STLB PREFETCH  REQUESTED:          0  ISSUED:          0  USEFUL:          0  USELESS:          0
STLB USEFUL LOAD PREFETCHES:          0 PREFETCH ISSUED TO LOWER LEVEL:          0  ACCURACY: -nan
STLB TIMELY PREFETCHES:          0 LATE PREFETCHES: 0 DROPPED PREFETCHES: 0
STLB COMMIT LATE PREFETCHES: 0 MISSED OPPORTUNITY: 0 LATE IN PQ: 0 UNCOVERED: 0
STLB COMMIT LATE MSHR PREFETCHES: 0
STLB MPKI TOTAL: 0 MSHR LATE: 0 PQ LATE: 0 COMMIT LATE: 0 MISSED OPPORTUNITY: 0 UNCOVERED: 0
STLB PREFETCHES SAME FILL-ORIGIN LEVEL: 0 DIFFERENT FILL-ORIGIN LEVEL: 0
STLB AVERAGE MISS LATENCY: 133.092 cycles
STLB AVERAGE MISS LATENCY LOAD: -nan cycles
STLB AVERAGE MISS LATENCY PREFETCH: -nan cycles
STLB AVERAGE MSHR OCCUPANCY: 0.010579
STLB MSHR FULL: 0
STLB RQ	ACCESS:   25945816	FORWARD:          0	MERGED:   20991544	TO_CACHE:    4954272

STLB Hit, L1D data hit: 0
STLB Hit, L2C data hit: 0
STLB Hit, LLC data hit: 0
STLB Hit, LLC data miss: 0
STLB STLB hints to L2: 0
L1D TOTAL     ACCESS:   84163540  HIT:   80655786  MISS:    3507754  HIT %:    95.8322  MISS %:    4.16778   MPKI: 17.5388
L1D Test counter:          0
L1D LOAD      ACCESS:   48678979  HIT:   48616698  MISS:      75919  HIT %:    99.8721  MISS %:   0.127942   MPKI: 0.311405
L1D RFO       ACCESS:    9834440  HIT:    9834440  MISS:          0  HIT %:        100  MISS %:          0   MPKI: 0
L1D PREFETCH  ACCESS:   25650121  HIT:   22204648  MISS:    3445473  HIT %:    86.5674  MISS %:    13.4326   MPKI: 17.2274
L1D PREFETCH  REQUESTED:   52992632  ISSUED:   51636936  USEFUL:    3215363  USELESS:     230123
L1D USEFUL LOAD PREFETCHES:    3215363 PREFETCH ISSUED TO LOWER LEVEL:    3447459  ACCURACY: 93.2676
L1D TIMELY PREFETCHES:    3215363 LATE PREFETCHES: 1982 DROPPED PREFETCHES: 0
L1D COMMIT LATE PREFETCHES: 0 MISSED OPPORTUNITY: 0 LATE IN PQ: 141 UNCOVERED: 0
L1D COMMIT LATE MSHR PREFETCHES: 0
L1D MPKI TOTAL: 0.379595 MSHR LATE: 0.00991 PQ LATE: 0.000705 COMMIT LATE: 0 MISSED OPPORTUNITY: 0 UNCOVERED: 0
L1D PREFETCHES SAME FILL-ORIGIN LEVEL: 3447459 DIFFERENT FILL-ORIGIN LEVEL: 0
L1D AVERAGE MISS LATENCY: 236.692 cycles
L1D AVERAGE MISS LATENCY LOAD: 223.096 cycles
L1D AVERAGE MISS LATENCY PREFETCH: 236.938 cycles
L1D AVERAGE MSHR OCCUPANCY: 3.83553
L1D MSHR FULL: 0.0149262
L1D RQ	ACCESS:   70363313	FORWARD:          0	MERGED:   21634468	TO_CACHE:   48692618
L1D WQ	ACCESS:    9834442	FORWARD:      36227	MERGED:          0	TO_CACHE:    9834442
L1D PQ	ACCESS:   25819427	FORWARD:          0	MERGED:       1918	TO_CACHE:   25817509

L1D UNIQUE REGIONS ACCESSED: 0
L1D REGIONS CONFLICTS: 0
L1D Cross Page Prefetch Requests: 0
L1D Same Page Prefetch Requests: 32381183
L1D ROI Sum of L1D PQ occupancy: 401885984
L1D PREFETCHES PUSHED FROM L2C: 0
420d6d: 1
421374: 1
421386: 1
421426: 2
42142b: 2
420ca1: 3
421430: 9
42140c: 10
421381: 11
421362: 12
4213d7: 12
420962: 12
421354: 12
420cfb: 13
420c9c: 16
420c8a: 17
420e7e: 21
420dd2: 24
42117e: 44
4210de: 44
4210a1: 45
42112f: 46
421111: 47
421123: 47
4210d0: 48
420d00: 77
420da6: 117
420e41: 167
420f47: 290
420f58: 292
421036: 293
420f21: 293
4211ce: 372
420f77: 374
420c3d: 2642
420dfd: 2672
420d21: 2682
420df7: 6087
420d1b: 6167
420c7c: 6222
420d4c: 6452
420cc0: 6510
420c37: 6515
420cdf: 6658
420d5a: 6899
L1I TOTAL     ACCESS:   29752499  HIT:   29752499  MISS:          0  HIT %:        100  MISS %:          0   MPKI: 0
L1I Test counter:          0
L1I LOAD      ACCESS:   29752499  HIT:   29752499  MISS:          0  HIT %:        100  MISS %:          0   MPKI: 0
L1I PREFETCH  REQUESTED:          0  ISSUED:          0  USEFUL:          0  USELESS:          0
L1I USEFUL LOAD PREFETCHES:          0 PREFETCH ISSUED TO LOWER LEVEL:          0  ACCURACY: -nan
L1I TIMELY PREFETCHES:          0 LATE PREFETCHES: 0 DROPPED PREFETCHES: 0
L1I COMMIT LATE PREFETCHES: 0 MISSED OPPORTUNITY: 0 LATE IN PQ: 0 UNCOVERED: 0
L1I COMMIT LATE MSHR PREFETCHES: 0
L1I MPKI TOTAL: 0 MSHR LATE: 0 PQ LATE: 0 COMMIT LATE: 0 MISSED OPPORTUNITY: 0 UNCOVERED: 0
L1I PREFETCHES SAME FILL-ORIGIN LEVEL: 0 DIFFERENT FILL-ORIGIN LEVEL: 0
L1I AVERAGE MISS LATENCY: -nan cycles
L1I AVERAGE MISS LATENCY LOAD: -nan cycles
L1I AVERAGE MISS LATENCY PREFETCH: -nan cycles
L1I AVERAGE MSHR OCCUPANCY: 0
L1I MSHR FULL: 0
L1I RQ	ACCESS:   43318369	FORWARD:          0	MERGED:   13565868	TO_CACHE:   29752501

BTB TOTAL     ACCESS:    1347104  HIT:    1347101  MISS:          3  HIT %:    99.9998  MISS %:  0.0002227   MPKI: 1.5e-05
BTB Test counter:          0
BTB BRANCH_DIRECT_JUMP	ACCESS:          0  HIT:          0  MISS:          0
BTB BRANCH_INDIRECT	ACCESS:          0  HIT:          0  MISS:          0
BTB BRANCH_CONDITIONAL	ACCESS:    1347104  HIT:    1347101  MISS:          3
BTB BRANCH_DIRECT_CALL	ACCESS:          0  HIT:          0  MISS:          0
BTB BRANCH_INDIRECT_CALL	ACCESS:          0  HIT:          0  MISS:          0
BTB BRANCH_RETURN	ACCESS:          0  HIT:          0  MISS:          0
BTB BRANCH_OTHER ACCESS:          0  HIT:          0  MISS:          0

L2C TOTAL     ACCESS:    4601677  HIT:    1110870  MISS:    3490807  HIT %:    24.1405  MISS %:    75.8595   MPKI: 17.454
L2C Test counter:          0
L2C LOAD      ACCESS:      60297  HIT:       1658  MISS:      58639  HIT %:    2.74972  MISS %:    97.2503   MPKI: 0.293195
L2C DATA LOAD MPKI: 0.293195
L2C INSTRUCTION LOAD MPKI: 0
L2C PREFETCH  ACCESS:    3447455  HIT:      22580  MISS:    3424875  HIT %:   0.654976  MISS %:     99.345   MPKI: 17.1244
L2C DATA PREFETCH MPKI: 17.1244
L2C INSTRUCTION PREFETCH MPKI: 0
L2C WRITEBACK ACCESS:    1039329  HIT:    1039045  MISS:        284  HIT %:    99.9727  MISS %:  0.0273253   MPKI: 0.00142
L2C LOAD TRANSLATION ACCESS:      54596  HIT:      47587  MISS:       7009  HIT %:    87.1621  MISS %:    12.8379   MPKI: 0.035045
L2C PREFETCH  REQUESTED:          0  ISSUED:          0  USEFUL:         10  USELESS:    3424867
L2C USEFUL LOAD PREFETCHES:         10 PREFETCH ISSUED TO LOWER LEVEL:    3424878  ACCURACY: 0.000291981
L2C TIMELY PREFETCHES:         10 LATE PREFETCHES: 0 DROPPED PREFETCHES: 0
L2C COMMIT LATE PREFETCHES: 0 MISSED OPPORTUNITY: 0 LATE IN PQ: 0 UNCOVERED: 0
L2C COMMIT LATE MSHR PREFETCHES: 0
L2C MPKI TOTAL: 0.293195 MSHR LATE: 0 PQ LATE: 0 COMMIT LATE: 0 MISSED OPPORTUNITY: 0 UNCOVERED: 0
L2C PREFETCHES SAME FILL-ORIGIN LEVEL: 0 DIFFERENT FILL-ORIGIN LEVEL: 0
L2C AVERAGE MISS LATENCY: 222.83 cycles
L2C AVERAGE MISS LATENCY LOAD: 219.082 cycles
L2C AVERAGE MISS LATENCY PREFETCH: 222.862 cycles
L2C AVERAGE MSHR OCCUPANCY: 3.37842
L2C MSHR FULL: 0
L2C RQ	ACCESS:     114895	FORWARD:          0	MERGED:          0	TO_CACHE:     114893
L2C WQ	ACCESS:    1039329	FORWARD:          2	MERGED:          0	TO_CACHE:    1039329
L2C PQ	ACCESS:    3447459	FORWARD:          0	MERGED:          0	TO_CACHE:    3447459

L2C Instructions Evicting Data 0
L2C Translations Evicting Data 7005
L2C Data Evicting Data 3476507
L2C Instructions Evicting Instructions 0
L2C Translations Evicting Instructions 0
L2C Data Evicting Instructions 0
L2C Instructions Evicting Translations 0
L2C Translations Evicting Translations 4
L2C Data Evicting Translations 7007
L2C Dense regions hint from L2: 0
421374: 1
421386: 1
421426: 2
42142b: 2
420ca1: 3
420cfb: 5
421430: 9
420d00: 9
42140c: 10
421381: 11
4213d7: 12
421362: 12
420962: 12
421354: 12
420c8a: 16
420c9c: 16
420e7e: 17
420dd2: 23
42117e: 44
4210de: 44
4210a1: 45
42112f: 46
421111: 47
421123: 47
4210d0: 48
420f21: 85
420f77: 92
4211ce: 92
420da6: 114
420e41: 155
420c3d: 2642
420dfd: 2672
420d21: 2678
420df7: 5950
420c7c: 6004
420d1b: 6036
420cdf: 6117
420d4c: 6269
420c37: 6273
420cc0: 6290
420d5a: 6676
PSCL5 TOTAL     ACCESS:      54593  HIT:      54593  MISS:          0  HIT %:        100  MISS %:          0   MPKI: 0
PSCL5 Test counter:          0
PSCL5 LOAD TRANSLATION ACCESS:      54593  HIT:      54593  MISS:          0  HIT %:        100  MISS %:          0   MPKI: 0
PSCL5 PREFETCH  REQUESTED:          0  ISSUED:          0  USEFUL:          0  USELESS:          0
PSCL5 USEFUL LOAD PREFETCHES:          0 PREFETCH ISSUED TO LOWER LEVEL:          0  ACCURACY: -nan
PSCL5 TIMELY PREFETCHES:          0 LATE PREFETCHES: 0 DROPPED PREFETCHES: 0
PSCL5 COMMIT LATE PREFETCHES: 0 MISSED OPPORTUNITY: 0 LATE IN PQ: 0 UNCOVERED: 0
PSCL5 COMMIT LATE MSHR PREFETCHES: 0
PSCL5 MPKI TOTAL: 0 MSHR LATE: 0 PQ LATE: 0 COMMIT LATE: 0 MISSED OPPORTUNITY: 0 UNCOVERED: 0
PSCL5 PREFETCHES SAME FILL-ORIGIN LEVEL: 0 DIFFERENT FILL-ORIGIN LEVEL: 0

PSCL4 TOTAL     ACCESS:      54593  HIT:      54593  MISS:          0  HIT %:        100  MISS %:          0   MPKI: 0
PSCL4 Test counter:          0
PSCL4 LOAD TRANSLATION ACCESS:      54593  HIT:      54593  MISS:          0  HIT %:        100  MISS %:          0   MPKI: 0
PSCL4 PREFETCH  REQUESTED:          0  ISSUED:          0  USEFUL:          0  USELESS:          0
PSCL4 USEFUL LOAD PREFETCHES:          0 PREFETCH ISSUED TO LOWER LEVEL:          0  ACCURACY: -nan
PSCL4 TIMELY PREFETCHES:          0 LATE PREFETCHES: 0 DROPPED PREFETCHES: 0
PSCL4 COMMIT LATE PREFETCHES: 0 MISSED OPPORTUNITY: 0 LATE IN PQ: 0 UNCOVERED: 0
PSCL4 COMMIT LATE MSHR PREFETCHES: 0
PSCL4 MPKI TOTAL: 0 MSHR LATE: 0 PQ LATE: 0 COMMIT LATE: 0 MISSED OPPORTUNITY: 0 UNCOVERED: 0
PSCL4 PREFETCHES SAME FILL-ORIGIN LEVEL: 0 DIFFERENT FILL-ORIGIN LEVEL: 0

PSCL3 TOTAL     ACCESS:      54593  HIT:      54593  MISS:          0  HIT %:        100  MISS %:          0   MPKI: 0
PSCL3 Test counter:          0
PSCL3 LOAD TRANSLATION ACCESS:      54593  HIT:      54593  MISS:          0  HIT %:        100  MISS %:          0   MPKI: 0
PSCL3 PREFETCH  REQUESTED:          0  ISSUED:          0  USEFUL:          0  USELESS:          0
PSCL3 USEFUL LOAD PREFETCHES:          0 PREFETCH ISSUED TO LOWER LEVEL:          0  ACCURACY: -nan
PSCL3 TIMELY PREFETCHES:          0 LATE PREFETCHES: 0 DROPPED PREFETCHES: 0
PSCL3 COMMIT LATE PREFETCHES: 0 MISSED OPPORTUNITY: 0 LATE IN PQ: 0 UNCOVERED: 0
PSCL3 COMMIT LATE MSHR PREFETCHES: 0
PSCL3 MPKI TOTAL: 0 MSHR LATE: 0 PQ LATE: 0 COMMIT LATE: 0 MISSED OPPORTUNITY: 0 UNCOVERED: 0
PSCL3 PREFETCHES SAME FILL-ORIGIN LEVEL: 0 DIFFERENT FILL-ORIGIN LEVEL: 0

PSCL2 TOTAL     ACCESS:      54593  HIT:      54505  MISS:         88  HIT %:    99.8388  MISS %:   0.161193   MPKI: 0.00044
PSCL2 Test counter:          0
PSCL2 LOAD TRANSLATION ACCESS:      54593  HIT:      54505  MISS:         88  HIT %:    99.8388  MISS %:   0.161193   MPKI: 0.00044
PSCL2 PREFETCH  REQUESTED:          0  ISSUED:          0  USEFUL:          0  USELESS:          0
PSCL2 USEFUL LOAD PREFETCHES:          0 PREFETCH ISSUED TO LOWER LEVEL:          0  ACCURACY: -nan
PSCL2 TIMELY PREFETCHES:          0 LATE PREFETCHES: 0 DROPPED PREFETCHES: 0
PSCL2 COMMIT LATE PREFETCHES: 0 MISSED OPPORTUNITY: 0 LATE IN PQ: 0 UNCOVERED: 0
PSCL2 COMMIT LATE MSHR PREFETCHES: 0
PSCL2 MPKI TOTAL: 0 MSHR LATE: 0 PQ LATE: 0 COMMIT LATE: 0 MISSED OPPORTUNITY: 0 UNCOVERED: 0
PSCL2 PREFETCHES SAME FILL-ORIGIN LEVEL: 0 DIFFERENT FILL-ORIGIN LEVEL: 0

LLC TOTAL     ACCESS:    4528985  HIT:    1038981  MISS:    3490004  HIT %:    22.9407  MISS %:    77.0593   MPKI: 17.45
LLC Test counter:          0
LLC LOAD      ACCESS:      58639  HIT:        172  MISS:      58467  HIT %:    0.29332  MISS %:    99.7067   MPKI: 0.292335
LLC PREFETCH  ACCESS:    3424875  HIT:        519  MISS:    3424356  HIT %:  0.0151538  MISS %:    99.9848   MPKI: 17.1218
LLC WRITEBACK ACCESS:    1038462  HIT:    1038290  MISS:        172  HIT %:    99.9834  MISS %:   0.016563   MPKI: 0.00086
LLC LOAD TRANSLATION ACCESS:       7009  HIT:          0  MISS:       7009  HIT %:          0  MISS %:        100   MPKI: 0.035045
LLC PREFETCH  REQUESTED:          0  ISSUED:          0  USEFUL:          2  USELESS:    3424505
LLC USEFUL LOAD PREFETCHES:          2 PREFETCH ISSUED TO LOWER LEVEL:    3424358  ACCURACY: 5.84051e-05
LLC TIMELY PREFETCHES:          2 LATE PREFETCHES: 0 DROPPED PREFETCHES: 0
LLC COMMIT LATE PREFETCHES: 0 MISSED OPPORTUNITY: 0 LATE IN PQ: 0 UNCOVERED: 0
LLC COMMIT LATE MSHR PREFETCHES: 0
LLC MPKI TOTAL: 0.292335 MSHR LATE: 0 PQ LATE: 0 COMMIT LATE: 0 MISSED OPPORTUNITY: 0 UNCOVERED: 0
LLC PREFETCHES SAME FILL-ORIGIN LEVEL: 0 DIFFERENT FILL-ORIGIN LEVEL: 0
LLC AVERAGE MISS LATENCY: 191.856 cycles
LLC AVERAGE MISS LATENCY LOAD: 187.848 cycles
LLC AVERAGE MISS LATENCY PREFETCH: 191.882 cycles
LLC AVERAGE MSHR OCCUPANCY: 2.59691
LLC MSHR FULL: 0
LLC RQ	ACCESS:      65648	FORWARD:          0	MERGED:          0	TO_CACHE:      65648
LLC WQ	ACCESS:    1038462	FORWARD:          0	MERGED:          0	TO_CACHE:    1038462
LLC PQ	ACCESS:    3424878	FORWARD:          0	MERGED:          0	TO_CACHE:    3424878

LLC Dense regions hint to LLC: 0
421374: 1
421386: 1
421426: 2
42142b: 2
420ca1: 2
420cfb: 5
420d00: 6
421430: 9
42140c: 10
421381: 11
421354: 12
420962: 12
421362: 12
4213d7: 12
420c8a: 16
420c9c: 16
420e7e: 17
420dd2: 22
4211ce: 34
420f77: 34
420f21: 34
4210de: 44
42117e: 44
4210a1: 45
42112f: 46
421111: 47
421123: 47
4210d0: 48
420da6: 114
420e41: 155
420c3d: 2642
420dfd: 2672
420d21: 2678
420df7: 5950
420c7c: 6004
420d1b: 6036
420cdf: 6117
420d4c: 6269
420c37: 6273
420cc0: 6290
420d5a: 6676

RAW hits: 382483
Loads Generated: 70745796
Loads sent to L1D: 70363313
Stores Generated: 9834441
Stores sent to L1D: 9834442
Major fault: 0 Minor fault: 54759
Allocated PAGES: 54759
Total Load insts: 87447274
Total Non-spec loads: 5528152
Percentage of speculative loads: 93.6783
L1D response latency: 230.429 cycles
Load retirement latency: 372.675 cycles


stream: 
stream:times selected: 8786107
stream:pref_filled: 4225354
stream:pref_useful: 3957753
stream:pref_late: 1801
stream:misses: 340
stream:misses_by_poll: 0

CS: 
CS:times selected: 7517812
CS:pref_filled: 40765
CS:pref_useful: 38554
CS:pref_late: 106
CS:misses: 85385
CS:misses_by_poll: 88

CPLX: 
CPLX:times selected: 1268175
CPLX:pref_filled: 41531
CPLX:pref_useful: 23723
CPLX:pref_late: 35
CPLX:misses: 968
CPLX:misses_by_poll: 45

NL_L1: 
NL:times selected: 22
NL:pref_filled: 7
NL:pref_useful: 6
NL:pref_late: 0
NL:misses: 0
NL:misses_by_poll: 0

total selections: 17572116
total_filled: 3445473
total_useful: 3215363
total_late: 1993
total_polluted: 133
total_misses_after_warmup: 75919
conflicts: 21
Degree Incremented Times: 476332
Degree Decremented Times: 0

L1 IP Table Write Accesses: 48645376
L1 IP Table Read Accesses: 48645355
L1 RST Write Accesses: 7001774
L1 RST Read Accesses: 14003548
L1 CSPT Write Accesses: 7001774
L1 CSPT Read Accesses: 10019476
L1 RR Filter Tag Write Accesses: 27175123
L1 RR Filter Tag Read Accesses: 1640877519
L1 IP Table Tag Write Accesses: 48692617
L1 IP Table Tag Read Accesses: 48692617
L1 RST Tag Write Accesses: 0
L1 RST Tag Read Accesses: 65086438
L1 RR Filter Write Accesses: 0
L1 RR Filter Read Accesses: 60087023
test: 210331

DRAM Statistics
 CHANNEL 0
 RQ ROW_BUFFER_HIT:     986538  ROW_BUFFER_MISS:    2503295
 DBUS_CONGESTED:       1444
 WQ ROW_BUFFER_HIT:     437003  ROW_BUFFER_MISS:     602121  FULL:          0

 AVG_CONGESTED_CYCLE: 5
 All warmup complete: 2
Channel 0 Bank busy for read cycles: 0
Channel 0 Bank busy for write cycles: 0
Channel 0
Rank 0
0banks busy for read cycles: 751404
0banks busy for write cycles: 2264
1banks busy for read cycles: 46859013
1banks busy for write cycles: 608303
2banks busy for read cycles: 51428441
2banks busy for write cycles: 616760
3banks busy for read cycles: 33564749
3banks busy for write cycles: 629547
4banks busy for read cycles: 15954244
4banks busy for write cycles: 634168
5banks busy for read cycles: 6565127
5banks busy for write cycles: 679977
6banks busy for read cycles: 3822883
6banks busy for write cycles: 861206
7banks busy for read cycles: 6106308
7banks busy for write cycles: 2320091
8banks busy for read cycles: 1911975
8banks busy for write cycles: 29917635

CPU 0 Branch Prediction Accuracy: 99.9985% MPKI: 0.000105 Average ROB Occupancy at Mispredict: 85.5238
Branch types
NOT_BRANCH: 198618953 99.3095%
BRANCH_DIRECT_JUMP: 0 0%
BRANCH_INDIRECT: 0 0%
BRANCH_CONDITIONAL: 1380806 0.690403%
BRANCH_DIRECT_CALL: 0 0%
BRANCH_INDIRECT_CALL: 0 0%
BRANCH_RETURN: 0 0%
BRANCH_OTHER: 0 0%

DRAM PAGES: 1048576
Allocated PAGES: 54759
