
*** ChampSim Multicore Out-of-Order Simulator ***

Warmup Instructions: 50000000
Simulation Instructions: 200000000
Number of CPUs: 1
LLC sets: 2048
LLC ways: 16
L0D sets: 16
L0D ways: 2
ROB size: 352
LQ size: 128
SQ size: 72
Secure Berti: ON
Berti: ON
Berti Fill: ON
On commit prefetching: OFF
Hit-based filter: OFF
Time-guarding: ON
Free-slotting: ON
Leap-frogging: ON
Train prefetcher on L0D bypass: OFF
No translation penalty for prefetchers: OFF
Prefetch to L0D only: OFF
Prefetch to L1D only: OFF
Clean evictions: ON
Commit loads: ON
Commit write: ON
Fill commit loads to L2C, LLC: ON
DRAM IO FREQUENCY: 6400
ROB SIZE: 352
Off-chip DRAM Size: 4096 MB Channels: 1 Width: 64-bit Data Rate: 6400 MT/s
CPU 0 runs /home/sumon/secure_berti/GhostMinion/../../traces/spec/605.mcf_s-782B.champsimtrace.xz
.xz
BTB has LRU replacement policy
ITLB has LRU replacement policy
DTLB has LRU replacement policy
STLB has LRU replacement policy
L1I has LRU replacement policy
L0D has LRU replacement policy
Berti version on_commit
History Sets: 8
History Ways: 16
BERTI Size: 16
BERTI Stride Size: 16
L1D has LRU replacement policy
L2C has LRU replacement policy
LLC has LRU replacement policy
Heartbeat CPU 0 instructions: 10000001 cycles: 4960118 heartbeat IPC: 2.01608 cumulative IPC: 2.01608 (Simulation time: 0 hr 0 min 55 sec) 
Heartbeat CPU 0 instructions: 20000000 cycles: 9715999 heartbeat IPC: 2.10266 cumulative IPC: 2.05846 (Simulation time: 0 hr 2 min 34 sec) 
Heartbeat CPU 0 instructions: 30000000 cycles: 14475613 heartbeat IPC: 2.10101 cumulative IPC: 2.07245 (Simulation time: 0 hr 5 min 1 sec) 
Heartbeat CPU 0 instructions: 40000002 cycles: 19177946 heartbeat IPC: 2.1266 cumulative IPC: 2.08573 (Simulation time: 0 hr 7 min 17 sec) 
Heartbeat CPU 0 instructions: 50000000 cycles: 23995948 heartbeat IPC: 2.07555 cumulative IPC: 2.08369 (Simulation time: 0 hr 9 min 29 sec) 

Warmup complete CPU 0 instructions: 50000001 cycles: 23995949 (Simulation time: 0 hr 9 min 29 sec) 

Heartbeat CPU 0 instructions: 60000000 cycles: 80551631 heartbeat IPC: 0.176817 cumulative IPC: 0.176817 (Simulation time: 0 hr 12 min 57 sec) 
Heartbeat CPU 0 instructions: 70000000 cycles: 136148767 heartbeat IPC: 0.179865 cumulative IPC: 0.178328 (Simulation time: 0 hr 16 min 19 sec) 
Heartbeat CPU 0 instructions: 80000002 cycles: 191758520 heartbeat IPC: 0.179825 cumulative IPC: 0.178824 (Simulation time: 0 hr 19 min 38 sec) 
Heartbeat CPU 0 instructions: 90000000 cycles: 250765232 heartbeat IPC: 0.169472 cumulative IPC: 0.176391 (Simulation time: 0 hr 23 min 9 sec) 
Heartbeat CPU 0 instructions: 100000001 cycles: 311607131 heartbeat IPC: 0.16436 cumulative IPC: 0.173846 (Simulation time: 0 hr 26 min 55 sec) 
Heartbeat CPU 0 instructions: 110000000 cycles: 374346975 heartbeat IPC: 0.159388 cumulative IPC: 0.171257 (Simulation time: 0 hr 30 min 48 sec) 
Heartbeat CPU 0 instructions: 120000000 cycles: 432733192 heartbeat IPC: 0.171273 cumulative IPC: 0.171259 (Simulation time: 0 hr 34 min 39 sec) 
Heartbeat CPU 0 instructions: 130000003 cycles: 491099844 heartbeat IPC: 0.171331 cumulative IPC: 0.171268 (Simulation time: 0 hr 37 min 58 sec) 
Heartbeat CPU 0 instructions: 140000001 cycles: 547797494 heartbeat IPC: 0.176374 cumulative IPC: 0.171821 (Simulation time: 0 hr 40 min 39 sec) 
Heartbeat CPU 0 instructions: 150000000 cycles: 605369686 heartbeat IPC: 0.173695 cumulative IPC: 0.172006 (Simulation time: 0 hr 42 min 4 sec) 
Heartbeat CPU 0 instructions: 160000002 cycles: 663757877 heartbeat IPC: 0.171268 cumulative IPC: 0.171939 (Simulation time: 0 hr 43 min 20 sec) 
Heartbeat CPU 0 instructions: 170000001 cycles: 723389019 heartbeat IPC: 0.167698 cumulative IPC: 0.171577 (Simulation time: 0 hr 44 min 34 sec) 
Heartbeat CPU 0 instructions: 180000002 cycles: 782352102 heartbeat IPC: 0.169598 cumulative IPC: 0.171423 (Simulation time: 0 hr 45 min 47 sec) 
Heartbeat CPU 0 instructions: 190000003 cycles: 847207799 heartbeat IPC: 0.154188 cumulative IPC: 0.170066 (Simulation time: 0 hr 47 min 0 sec) 
Heartbeat CPU 0 instructions: 200000002 cycles: 911940784 heartbeat IPC: 0.154481 cumulative IPC: 0.168929 (Simulation time: 0 hr 48 min 13 sec) 
Heartbeat CPU 0 instructions: 210000003 cycles: 974620717 heartbeat IPC: 0.159541 cumulative IPC: 0.16831 (Simulation time: 0 hr 49 min 27 sec) 
Heartbeat CPU 0 instructions: 220000000 cycles: 1035936181 heartbeat IPC: 0.163091 cumulative IPC: 0.167994 (Simulation time: 0 hr 50 min 36 sec) 
Heartbeat CPU 0 instructions: 230000001 cycles: 1096749244 heartbeat IPC: 0.164438 cumulative IPC: 0.167793 (Simulation time: 0 hr 51 min 46 sec) 
Heartbeat CPU 0 instructions: 240000003 cycles: 1156894496 heartbeat IPC: 0.166264 cumulative IPC: 0.167711 (Simulation time: 0 hr 52 min 54 sec) 
Heartbeat CPU 0 instructions: 250000002 cycles: 1215753368 heartbeat IPC: 0.169898 cumulative IPC: 0.167819 (Simulation time: 0 hr 54 min 3 sec) 
Finished CPU 0 instructions: 200000001 cycles: 1191757419 cumulative IPC: 0.167819 (Simulation time: 0 hr 54 min 3 sec) 
 Instruction ID: 250000129

ChampSim completed all CPUs

Region of Interest Statistics

CPU 0 cumulative IPC: 0.167819 instructions: 200000001 cycles: 1191757419
ITLB SPEC fills:          0  NON-SPEC fills:          0
ITLB Test counter :          0
ITLB Leapfrog:          0
ITLB MSHR merge:          0
ITLB TOTAL     ACCESS:   32645715  HIT:   32645715  MISS:          0  HIT %:        100  MISS %:          0   MPKI: 0
ITLB LOAD TRANSLATION NON_SPEC    ACCESS:   32645715  HIT:   32645715  MISS:          0  HIT %:        100  MISS %:          0   MPKI: 0
ITLB PREFETCH  REQUESTED:          0  ISSUED:          0  USEFUL:          0  USELESS:          0
ITLB USEFUL LOAD PREFETCHES:          0 PREFETCH ISSUED TO LOWER LEVEL:          0  ACCURACY: -nan
ITLB TIMELY PREFETCHES:          0 LATE PREFETCHES: 0 DROPPED PREFETCHES: 0
ITLB COMMIT LATE PREFETCHES: 0 MISSED OPPORTUNITY: 0 LATE IN PQ: 0 UNCOVERED: 0
ITLB COMMIT LATE MSHR PREFETCHES: 0
ITLB MPKI TOTAL: 0 MSHR LATE: 0 PQ LATE: 0 COMMIT LATE: 0 MISSED OPPORTUNITY: 0 UNCOVERED: 0
ITLB PREFETCHES SAME FILL-ORIGIN LEVEL: 0 DIFFERENT FILL-ORIGIN LEVEL: 0
ITLB AVERAGE MISS LATENCY: -nan cycles
ITLB AVERAGE MISS LATENCY LOAD: -nan cycles
ITLB AVERAGE MISS LATENCY PREFETCH: -nan cycles
ITLB AVERAGE MSHR OCCUPANCY: 0
ITLB MSHR FULL: 0
ITLB RQ	ACCESS:   33004846	FORWARD:          0	MERGED:     359131	TO_CACHE:   32645715

DTLB SPEC fills:          0  NON-SPEC fills:          0
DTLB Test counter :          0
DTLB Leapfrog:          0
DTLB MSHR merge:          0
DTLB TOTAL     ACCESS:   46061118  HIT:   28439328  MISS:   17621790  HIT %:    61.7426  MISS %:    38.2574   MPKI: 88.1089
DTLB LOAD TRANSLATION NON_SPEC    ACCESS:   46061118  HIT:   28439328  MISS:   17621790  HIT %:    61.7426  MISS %:    38.2574   MPKI: 88.1089
DTLB PREFETCH  REQUESTED:          0  ISSUED:          0  USEFUL:          0  USELESS:          0
DTLB USEFUL LOAD PREFETCHES:          0 PREFETCH ISSUED TO LOWER LEVEL:          0  ACCURACY: -nan
DTLB TIMELY PREFETCHES:          0 LATE PREFETCHES: 0 DROPPED PREFETCHES: 0
DTLB COMMIT LATE PREFETCHES: 0 MISSED OPPORTUNITY: 0 LATE IN PQ: 0 UNCOVERED: 0
DTLB COMMIT LATE MSHR PREFETCHES: 0
DTLB MPKI TOTAL: 0 MSHR LATE: 0 PQ LATE: 0 COMMIT LATE: 0 MISSED OPPORTUNITY: 0 UNCOVERED: 0
DTLB PREFETCHES SAME FILL-ORIGIN LEVEL: 0 DIFFERENT FILL-ORIGIN LEVEL: 0
DTLB AVERAGE MISS LATENCY: 11.7588 cycles
DTLB AVERAGE MISS LATENCY LOAD: -nan cycles
DTLB AVERAGE MISS LATENCY PREFETCH: -nan cycles
DTLB AVERAGE MSHR OCCUPANCY: 0.279109
DTLB MSHR FULL: 6.87983e-07
DTLB RQ	ACCESS:   51815992	FORWARD:          0	MERGED:    5303273	TO_CACHE:   46512719

STLB SPEC fills:          0  NON-SPEC fills:          0
STLB Test counter :          0
STLB Leapfrog:          0
STLB MSHR merge:          0
STLB TOTAL     ACCESS:   24303497  HIT:   24064646  MISS:     238851  HIT %:    99.0172  MISS %:   0.982784   MPKI: 1.19425
STLB LOAD TRANSLATION NON_SPEC    ACCESS:   17621790  HIT:   17384250  MISS:     237540  HIT %:     98.652  MISS %:    1.34799   MPKI: 1.1877
STLB TRANSLATION FROM L1D PREFETCHER NON_SPEC    ACCESS:    6681707  HIT:    6680396  MISS:       1311  HIT %:    99.9804  MISS %:  0.0196207   MPKI: 0.006555
STLB PREFETCH  REQUESTED:          0  ISSUED:          0  USEFUL:       1115  USELESS:        196
STLB USEFUL LOAD PREFETCHES:       1115 PREFETCH ISSUED TO LOWER LEVEL:          0  ACCURACY: inf
STLB TIMELY PREFETCHES:       1115 LATE PREFETCHES: 102931 DROPPED PREFETCHES: 5380612
STLB COMMIT LATE PREFETCHES: 0 MISSED OPPORTUNITY: 0 LATE IN PQ: 0 UNCOVERED: 0
STLB COMMIT LATE MSHR PREFETCHES: 0
STLB MPKI TOTAL: 0 MSHR LATE: 0.514655 PQ LATE: 0 COMMIT LATE: 0 MISSED OPPORTUNITY: 0 UNCOVERED: 0
STLB PREFETCHES SAME FILL-ORIGIN LEVEL: 0 DIFFERENT FILL-ORIGIN LEVEL: 0
STLB AVERAGE MISS LATENCY: 190.068 cycles
STLB AVERAGE MISS LATENCY LOAD: -nan cycles
STLB AVERAGE MISS LATENCY PREFETCH: -nan cycles
STLB AVERAGE MSHR OCCUPANCY: 0.589917
STLB MSHR FULL: 0
STLB RQ	ACCESS:   97561869	FORWARD:          0	MERGED:   66533489	TO_CACHE:   31028380

STLB Hit, L1D data hit: 0
STLB Hit, L2C data hit: 0
STLB Hit, LLC data hit: 0
STLB Hit, LLC data miss: 0
STLB STLB hints to L2: 0
L0D SPEC fills:   30541721  NON-SPEC fills:          0
L0D TimeGuard Request with older TS:    1195192 Restricted eviction:     720165 read:     127666
L0D Test counter :          0
L0D Leapfrog:          0
L0D MSHR merge:    4112638
L0D TOTAL     ACCESS:   44124912  HIT:    2859635  MISS:   41265277  HIT %:    6.48077  MISS %:    93.5192   MPKI: 206.326
L0D LOAD      TOTAL       ACCESS:   44124912  HIT:    2859635  MISS:   41265277  HIT %:    6.48077  MISS %:    93.5192   MPKI: 206.326
L0D LOAD      NON_SPEC    ACCESS:   10263442  HIT:     260044  MISS:   10003398  HIT %:    2.53369  MISS %:    97.4663   MPKI: 50.017
L0D LOAD      SPEC        ACCESS:   33861470  HIT:    2599591  MISS:   31261879  HIT %:    7.67714  MISS %:    92.3229   MPKI: 156.309
L0D PREFETCH  REQUESTED:          0  ISSUED:          0  USEFUL:          0  USELESS:          0
L0D USEFUL LOAD PREFETCHES:          0 PREFETCH ISSUED TO LOWER LEVEL:          0  ACCURACY: -nan
L0D TIMELY PREFETCHES:          0 LATE PREFETCHES: 0 DROPPED PREFETCHES: 0
L0D COMMIT LATE PREFETCHES: 0 MISSED OPPORTUNITY: 0 LATE IN PQ: 0 UNCOVERED: 0
L0D COMMIT LATE MSHR PREFETCHES: 0
L0D MPKI TOTAL: 226.89 MSHR LATE: 0 PQ LATE: 0 COMMIT LATE: 0 MISSED OPPORTUNITY: 0 UNCOVERED: 0
L0D PREFETCHES SAME FILL-ORIGIN LEVEL: 0 DIFFERENT FILL-ORIGIN LEVEL: 0
L0D AVERAGE MISS LATENCY: 56.4508 cycles
L0D AVERAGE MISS LATENCY LOAD: 56.4508 cycles
L0D AVERAGE MISS LATENCY PREFETCH: -nan cycles
L0D AVERAGE MSHR OCCUPANCY: 3.46751
L0D MSHR FULL: 0.237847
L0D RQ	ACCESS:   71282498	FORWARD:          0	MERGED:   23044955	TO_CACHE:   48237543
L0D WQ	ACCESS:    3578449	FORWARD:          0	MERGED:          0	TO_CACHE:    3578449

L1D SPEC fills:          0  NON-SPEC fills:    6184030
L1D Test counter :   22781286
L1D Leapfrog:          0
L1D MSHR merge:     961055
L1D TOTAL     ACCESS:  143762441  HIT:   96976573  MISS:   46785868  HIT %:    67.4561  MISS %:    32.5439   MPKI: 233.929
L1D LOAD      TOTAL       ACCESS:   41258437  HIT:   19400021  MISS:   21858416  HIT %:    47.0207  MISS %:    52.9793   MPKI: 109.292
L1D LOAD      NON_SPEC    ACCESS:   10002590  HIT:    3818560  MISS:    6184030  HIT %:    38.1757  MISS %:    61.8243   MPKI: 30.9201
L1D LOAD      SPEC        ACCESS:   31255847  HIT:   15581461  MISS:   15674386  HIT %:    49.8513  MISS %:    50.1487   MPKI: 78.3719
L1D RFO       NON_SPEC    ACCESS:    3048970  HIT:    2988462  MISS:      60508  HIT %:    98.0155  MISS %:    1.98454   MPKI: 0.30254
L1D PREFETCH  NON_SPEC    ACCESS:   52240264  HIT:   42538028  MISS:    9702236  HIT %:    81.4277  MISS %:    18.5723   MPKI: 48.5112
L1D COMMIT LOAD NON_SPEC    ACCESS:   17460370  HIT:   16501621  MISS:     958749  HIT %:     94.509  MISS %:      5.491   MPKI: 4.79374
L1D COMMIT WRITE NON_SPEC    ACCESS:   29754400  HIT:   15548441  MISS:   14205959  HIT %:    52.2559  MISS %:    47.7441   MPKI: 71.0298
L1D PREFETCH  REQUESTED:  153643227  ISSUED:   96705308  USEFUL:    9598066  USELESS:     104175
L1D USEFUL LOAD PREFETCHES:    9598066 PREFETCH ISSUED TO LOWER LEVEL:   14966077  ACCURACY: 64.1321
L1D TIMELY PREFETCHES:    9598066 LATE PREFETCHES: 965431 DROPPED PREFETCHES: 18433151
L1D COMMIT LATE PREFETCHES: 0 MISSED OPPORTUNITY: 0 LATE IN PQ: 0 UNCOVERED: 0
L1D COMMIT LATE MSHR PREFETCHES: 0
L1D MPKI TOTAL: 109.326 MSHR LATE: 4.82715 PQ LATE: 0 COMMIT LATE: 0 MISSED OPPORTUNITY: 0 UNCOVERED: 0
L1D PREFETCHES SAME FILL-ORIGIN LEVEL: 10668241 DIFFERENT FILL-ORIGIN LEVEL: 4297836
L1D AVERAGE MISS LATENCY: 87.2678 cycles
L1D AVERAGE MISS LATENCY LOAD: 93.9918 cycles
L1D AVERAGE MISS LATENCY PREFETCH: 202.18 cycles
L1D AVERAGE MSHR OCCUPANCY: 5.04764
L1D MSHR FULL: 0.160519
L1D RQ	ACCESS:   72485918	FORWARD:          0	MERGED:   13600541	TO_CACHE:   58733967
L1D WQ	ACCESS:   33348408	FORWARD:     151410	MERGED:     391553	TO_CACHE:   32956855
L1D PQ	ACCESS:   96705308	FORWARD:          0	MERGED:   16765229	TO_CACHE:   79940079

L1D UNIQUE REGIONS ACCESSED: 0
L1D REGIONS CONFLICTS: 0
L1D Cross Page Prefetch Requests: 29529118
L1D Same Page Prefetch Requests: 95179055
L1D ROI Sum of L1D PQ occupancy: 3849547943
L1D PREFETCHES PUSHED FROM L2C: 0
L1I SPEC fills:          0  NON-SPEC fills:          0
L1I Test counter :          0
L1I Leapfrog:          0
L1I MSHR merge:          0
L1I TOTAL     ACCESS:   33004845  HIT:   33004845  MISS:          0  HIT %:        100  MISS %:          0   MPKI: 0
L1I LOAD      TOTAL       ACCESS:   33004845  HIT:   33004845  MISS:          0  HIT %:        100  MISS %:          0   MPKI: 0
L1I LOAD      NON_SPEC    ACCESS:   33004845  HIT:   33004845  MISS:          0  HIT %:        100  MISS %:          0   MPKI: 0
L1I PREFETCH  REQUESTED:          0  ISSUED:          0  USEFUL:          0  USELESS:          0
L1I USEFUL LOAD PREFETCHES:          0 PREFETCH ISSUED TO LOWER LEVEL:          0  ACCURACY: -nan
L1I TIMELY PREFETCHES:          0 LATE PREFETCHES: 0 DROPPED PREFETCHES: 0
L1I COMMIT LATE PREFETCHES: 0 MISSED OPPORTUNITY: 0 LATE IN PQ: 0 UNCOVERED: 0
L1I COMMIT LATE MSHR PREFETCHES: 0
L1I MPKI TOTAL: 0 MSHR LATE: 0 PQ LATE: 0 COMMIT LATE: 0 MISSED OPPORTUNITY: 0 UNCOVERED: 0
L1I PREFETCHES SAME FILL-ORIGIN LEVEL: 0 DIFFERENT FILL-ORIGIN LEVEL: 0
L1I AVERAGE MISS LATENCY: -nan cycles
L1I AVERAGE MISS LATENCY LOAD: -nan cycles
L1I AVERAGE MISS LATENCY PREFETCH: -nan cycles
L1I AVERAGE MSHR OCCUPANCY: 0
L1I MSHR FULL: 0
L1I RQ	ACCESS:   43420723	FORWARD:          0	MERGED:   10415877	TO_CACHE:   33004846

BTB SPEC fills:          0  NON-SPEC fills:          0
BTB Test counter :          0
BTB Leapfrog:          0
BTB MSHR merge:          0
BTB TOTAL     ACCESS:   60210745  HIT:   60015900  MISS:     194845  HIT %:    99.6764  MISS %:   0.323605   MPKI: 0.974225
BTB BRANCH_DIRECT_JUMP	ACCESS:    7722186  HIT:    7722149  MISS:         37
BTB BRANCH_INDIRECT	ACCESS:          0  HIT:          0  MISS:          0
BTB BRANCH_CONDITIONAL	ACCESS:   51083203  HIT:   51083121  MISS:         82
BTB BRANCH_DIRECT_CALL	ACCESS:     648845  HIT:     648827  MISS:         18
BTB BRANCH_INDIRECT_CALL	ACCESS:      53834  HIT:      53826  MISS:          8
BTB BRANCH_RETURN	ACCESS:     702677  HIT:     507977  MISS:     194700
BTB BRANCH_OTHER ACCESS:          0  HIT:          0  MISS:          0

L2C SPEC fills:          0  NON-SPEC fills:    4998346
L2C Test counter :   21181484
L2C Leapfrog:          0
L2C MSHR merge:      80688
L2C TOTAL     ACCESS:   87926794  HIT:   47325552  MISS:   40601242  HIT %:    53.8238  MISS %:    46.1762   MPKI: 203.006
L2C LOAD      TOTAL       ACCESS:   20903942  HIT:    3790022  MISS:   17113920  HIT %:    18.1307  MISS %:    81.8693   MPKI: 85.5696
L2C LOAD      NON_SPEC    ACCESS:    6168815  HIT:    1170469  MISS:    4998346  HIT %:     18.974  MISS %:     81.026   MPKI: 24.9917
L2C LOAD      SPEC        ACCESS:   14735127  HIT:    2619553  MISS:   12115574  HIT %:    17.7776  MISS %:    82.2224   MPKI: 60.5779
L2C RFO       NON_SPEC    ACCESS:      60508  HIT:       6349  MISS:      54159  HIT %:    10.4928  MISS %:    89.5072   MPKI: 0.270795
L2C PREFETCH  NON_SPEC    ACCESS:   14439014  HIT:    2868245  MISS:   11570769  HIT %:    19.8645  MISS %:    80.1355   MPKI: 57.8538
L2C WRITEBACK NON_SPEC    ACCESS:     190198  HIT:     190198  MISS:          0  HIT %:        100  MISS %:          0   MPKI: 0
L2C CLEAN_EVICTION NON_SPEC    ACCESS:   22781270  HIT:   11731887  MISS:   11049383  HIT %:    51.4979  MISS %:    48.5021   MPKI: 55.2469
L2C COMMIT LOAD NON_SPEC    ACCESS:     947319  HIT:     221767  MISS:     725552  HIT %:      23.41  MISS %:      76.59   MPKI: 3.62776
L2C LOAD TRANSLATION NON_SPEC    ACCESS:    1186667  HIT:    1122028  MISS:      64639  HIT %:    94.5529  MISS %:    5.44711   MPKI: 0.323195
L2C TRANSLATION FROM L1D PREFETCHER NON_SPEC    ACCESS:   27417876  HIT:   27395056  MISS:      22820  HIT %:    99.9168  MISS %:  0.0832304   MPKI: 0.1141
L2C PREFETCH  REQUESTED:          0  ISSUED:          0  USEFUL:     459831  USELESS:   11133593
L2C USEFUL LOAD PREFETCHES:     459831 PREFETCH ISSUED TO LOWER LEVEL:   11657207  ACCURACY: 3.94461
L2C TIMELY PREFETCHES:     459831 LATE PREFETCHES: 86438 DROPPED PREFETCHES: 0
L2C COMMIT LATE PREFETCHES: 0 MISSED OPPORTUNITY: 0 LATE IN PQ: 0 UNCOVERED: 0
L2C COMMIT LATE MSHR PREFETCHES: 0
L2C MPKI TOTAL: 85.5696 MSHR LATE: 0.43219 PQ LATE: 0 COMMIT LATE: 0 MISSED OPPORTUNITY: 0 UNCOVERED: 0
L2C PREFETCHES SAME FILL-ORIGIN LEVEL: 3117541 DIFFERENT FILL-ORIGIN LEVEL: 0
L2C AVERAGE MISS LATENCY: 105.564 cycles
L2C AVERAGE MISS LATENCY LOAD: 92.9652 cycles
L2C AVERAGE MISS LATENCY PREFETCH: 227.262 cycles
L2C AVERAGE MSHR OCCUPANCY: 3.68753
L2C MSHR FULL: 0.00146589
L2C RQ	ACCESS:   50516783	FORWARD:          0	MERGED:          0	TO_CACHE:   50516310
L2C WQ	ACCESS:   22971487	FORWARD:        474	MERGED:         19	TO_CACHE:   22971468
L2C PQ	ACCESS:   14965408	FORWARD:          0	MERGED:       1186	TO_CACHE:   14964221

L2C Instructions Evicting Data 0
L2C Translations Evicting Data 87269
L2C Data Evicting Data 17295360
L2C Instructions Evicting Instructions 0
L2C Translations Evicting Instructions 0
L2C Data Evicting Instructions 0
L2C Instructions Evicting Translations 0
L2C Translations Evicting Translations 190
L2C Data Evicting Translations 53466
L2C Dense regions hint from L2: 0
PSCL5 SPEC fills:          0  NON-SPEC fills:          0
PSCL5 Test counter :          0
PSCL5 Leapfrog:          0
PSCL5 MSHR merge:          0
PSCL5 TOTAL     ACCESS:          0  HIT:          0  MISS:          0  HIT %:       -nan  MISS %:       -nan   MPKI: 0
PSCL5 PREFETCH  REQUESTED:          0  ISSUED:          0  USEFUL:          0  USELESS:          0
PSCL5 USEFUL LOAD PREFETCHES:          0 PREFETCH ISSUED TO LOWER LEVEL:          0  ACCURACY: -nan
PSCL5 TIMELY PREFETCHES:          0 LATE PREFETCHES: 0 DROPPED PREFETCHES: 0
PSCL5 COMMIT LATE PREFETCHES: 0 MISSED OPPORTUNITY: 0 LATE IN PQ: 0 UNCOVERED: 0
PSCL5 COMMIT LATE MSHR PREFETCHES: 0
PSCL5 MPKI TOTAL: 0 MSHR LATE: 0 PQ LATE: 0 COMMIT LATE: 0 MISSED OPPORTUNITY: 0 UNCOVERED: 0
PSCL5 PREFETCHES SAME FILL-ORIGIN LEVEL: 0 DIFFERENT FILL-ORIGIN LEVEL: 0

PSCL4 SPEC fills:          0  NON-SPEC fills:          0
PSCL4 Test counter :          0
PSCL4 Leapfrog:          0
PSCL4 MSHR merge:          0
PSCL4 TOTAL     ACCESS:          0  HIT:          0  MISS:          0  HIT %:       -nan  MISS %:       -nan   MPKI: 0
PSCL4 PREFETCH  REQUESTED:          0  ISSUED:          0  USEFUL:          0  USELESS:          0
PSCL4 USEFUL LOAD PREFETCHES:          0 PREFETCH ISSUED TO LOWER LEVEL:          0  ACCURACY: -nan
PSCL4 TIMELY PREFETCHES:          0 LATE PREFETCHES: 0 DROPPED PREFETCHES: 0
PSCL4 COMMIT LATE PREFETCHES: 0 MISSED OPPORTUNITY: 0 LATE IN PQ: 0 UNCOVERED: 0
PSCL4 COMMIT LATE MSHR PREFETCHES: 0
PSCL4 MPKI TOTAL: 0 MSHR LATE: 0 PQ LATE: 0 COMMIT LATE: 0 MISSED OPPORTUNITY: 0 UNCOVERED: 0
PSCL4 PREFETCHES SAME FILL-ORIGIN LEVEL: 0 DIFFERENT FILL-ORIGIN LEVEL: 0

PSCL3 SPEC fills:          0  NON-SPEC fills:          0
PSCL3 Test counter :          0
PSCL3 Leapfrog:          0
PSCL3 MSHR merge:          0
PSCL3 TOTAL     ACCESS:          0  HIT:          0  MISS:          0  HIT %:       -nan  MISS %:       -nan   MPKI: 0
PSCL3 PREFETCH  REQUESTED:          0  ISSUED:          0  USEFUL:          0  USELESS:          0
PSCL3 USEFUL LOAD PREFETCHES:          0 PREFETCH ISSUED TO LOWER LEVEL:          0  ACCURACY: -nan
PSCL3 TIMELY PREFETCHES:          0 LATE PREFETCHES: 0 DROPPED PREFETCHES: 0
PSCL3 COMMIT LATE PREFETCHES: 0 MISSED OPPORTUNITY: 0 LATE IN PQ: 0 UNCOVERED: 0
PSCL3 COMMIT LATE MSHR PREFETCHES: 0
PSCL3 MPKI TOTAL: 0 MSHR LATE: 0 PQ LATE: 0 COMMIT LATE: 0 MISSED OPPORTUNITY: 0 UNCOVERED: 0
PSCL3 PREFETCHES SAME FILL-ORIGIN LEVEL: 0 DIFFERENT FILL-ORIGIN LEVEL: 0

PSCL2 SPEC fills:          0  NON-SPEC fills:          0
PSCL2 Test counter :          0
PSCL2 Leapfrog:          0
PSCL2 MSHR merge:          0
PSCL2 TOTAL     ACCESS:          0  HIT:          0  MISS:          0  HIT %:       -nan  MISS %:       -nan   MPKI: 0
PSCL2 PREFETCH  REQUESTED:          0  ISSUED:          0  USEFUL:          0  USELESS:          0
PSCL2 USEFUL LOAD PREFETCHES:          0 PREFETCH ISSUED TO LOWER LEVEL:          0  ACCURACY: -nan
PSCL2 TIMELY PREFETCHES:          0 LATE PREFETCHES: 0 DROPPED PREFETCHES: 0
PSCL2 COMMIT LATE PREFETCHES: 0 MISSED OPPORTUNITY: 0 LATE IN PQ: 0 UNCOVERED: 0
PSCL2 COMMIT LATE MSHR PREFETCHES: 0
PSCL2 MPKI TOTAL: 0 MSHR LATE: 0 PQ LATE: 0 COMMIT LATE: 0 MISSED OPPORTUNITY: 0 UNCOVERED: 0
PSCL2 PREFETCHES SAME FILL-ORIGIN LEVEL: 0 DIFFERENT FILL-ORIGIN LEVEL: 0

LLC SPEC fills:          0  NON-SPEC fills:    1279669
LLC Test counter :   13869856
LLC Leapfrog:          0
LLC MSHR merge:          0
LLC TOTAL     ACCESS:   50911521  HIT:   30272348  MISS:   20639173  HIT %:    59.4607  MISS %:    40.5393   MPKI: 103.196
LLC LOAD      TOTAL       ACCESS:   17032909  HIT:   11579070  MISS:    5453839  HIT %:    67.9806  MISS %:    32.0194   MPKI: 27.2692
LLC LOAD      NON_SPEC    ACCESS:    4993671  HIT:    3714002  MISS:    1279669  HIT %:    74.3742  MISS %:    25.6258   MPKI: 6.39834
LLC LOAD      SPEC        ACCESS:   12039238  HIT:    7865068  MISS:    4174170  HIT %:    65.3286  MISS %:    34.6714   MPKI: 20.8708
LLC RFO       NON_SPEC    ACCESS:      54159  HIT:      45463  MISS:       8696  HIT %:    83.9436  MISS %:    16.0564   MPKI: 0.04348
LLC PREFETCH  NON_SPEC    ACCESS:   11657196  HIT:     686505  MISS:   10970691  HIT %:    5.88911  MISS %:    94.1109   MPKI: 54.8535
LLC WRITEBACK NON_SPEC    ACCESS:     178632  HIT:     178444  MISS:        188  HIT %:    99.8948  MISS %:   0.105244   MPKI: 0.00094
LLC CLEAN_EVICTION NON_SPEC    ACCESS:   21181484  HIT:   17122876  MISS:    4058608  HIT %:    80.8389  MISS %:    19.1611   MPKI: 20.293
LLC COMMIT LOAD NON_SPEC    ACCESS:     719682  HIT:     618278  MISS:     101404  HIT %:    85.9099  MISS %:    14.0901   MPKI: 0.50702
LLC LOAD TRANSLATION NON_SPEC    ACCESS:      64639  HIT:      41288  MISS:      23351  HIT %:    63.8748  MISS %:    36.1252   MPKI: 0.116755
LLC TRANSLATION FROM L1D PREFETCHER NON_SPEC    ACCESS:      22820  HIT:        424  MISS:      22396  HIT %:    1.85802  MISS %:     98.142   MPKI: 0.11198
LLC PREFETCH  REQUESTED:          0  ISSUED:          0  USEFUL:      10957  USELESS:   10982513
LLC USEFUL LOAD PREFETCHES:      10957 PREFETCH ISSUED TO LOWER LEVEL:   10970691  ACCURACY: 0.0998752
LLC TIMELY PREFETCHES:      10957 LATE PREFETCHES: 0 DROPPED PREFETCHES: 0
LLC COMMIT LATE PREFETCHES: 0 MISSED OPPORTUNITY: 0 LATE IN PQ: 0 UNCOVERED: 0
LLC COMMIT LATE MSHR PREFETCHES: 0
LLC MPKI TOTAL: 27.2692 MSHR LATE: 0 PQ LATE: 0 COMMIT LATE: 0 MISSED OPPORTUNITY: 0 UNCOVERED: 0
LLC PREFETCHES SAME FILL-ORIGIN LEVEL: 0 DIFFERENT FILL-ORIGIN LEVEL: 0
LLC AVERAGE MISS LATENCY: 169.836 cycles
LLC AVERAGE MISS LATENCY LOAD: 213.655 cycles
LLC AVERAGE MISS LATENCY PREFETCH: 209.786 cycles
LLC AVERAGE MSHR OCCUPANCY: 3.09051
LLC MSHR FULL: 0
LLC RQ	ACCESS:   17894651	FORWARD:          0	MERGED:          0	TO_CACHE:   17894208
LLC WQ	ACCESS:   21360116	FORWARD:        454	MERGED:          0	TO_CACHE:   21360116
LLC PQ	ACCESS:   11657207	FORWARD:          0	MERGED:          0	TO_CACHE:   11657196

LLC Dense regions hint to LLC: 0

RAW hits: 470004
Loads Generated: 71752504
Loads sent to L1D: 71282498
Stores Generated: 3578449
Stores sent to L1D: 3578449
Major fault: 0 Minor fault: 219750
Allocated PAGES: 219750
Total Load insts: 89108320
Total Non-spec loads: 10868190
Percentage of speculative loads: 87.8034

LeapFrogging counter: 13849329
Commit hits: 29769959 miss: 31220648
Commit hit %: 48.8107 miss %: 51.1893
Commits not translated: 0
Loads retired: 21858416
Stores retired: 3578449
Cache fills: 21858416
L1D response latency: 93.9918 cycles
Load retirement latency: 259.096 cycles
OOO test counter: 0
Discarded buffer inserts: 29769959 hits: 44519 hit %: 0.149543
Filter prediction accuracy: -nan
ALL MISSES SIZE: 73438
LATENCY_FILL: 93.252 21833069
LATENCY_FILL_ROB: 231.935 21767043
test counter pref: 282039558
Max ROB Extended: 44

DRAM Statistics
 CHANNEL 0
 RQ ROW_BUFFER_HIT:    5723177  ROW_BUFFER_MISS:   10853548
 DBUS_CONGESTED:      11927
 WQ ROW_BUFFER_HIT:    4254988  ROW_BUFFER_MISS:    9717887  FULL:      86129

 AVG_CONGESTED_CYCLE: 4
 All warmup complete: 2
Channel 0 Bank busy for read cycles: 0
Channel 0 Bank busy for write cycles: 0
Channel 0
Rank 0
0banks busy for read cycles: 77717949
0banks busy for write cycles: 161834
1banks busy for read cycles: 272379748
1banks busy for write cycles: 25957204
2banks busy for read cycles: 149410696
2banks busy for write cycles: 22309578
3banks busy for read cycles: 78540672
3banks busy for write cycles: 20546171
4banks busy for read cycles: 48050577
4banks busy for write cycles: 20228452
5banks busy for read cycles: 39702300
5banks busy for write cycles: 21771858
6banks busy for read cycles: 42883008
6banks busy for write cycles: 26746506
7banks busy for read cycles: 29119617
7banks busy for write cycles: 50434270
8banks busy for read cycles: 37097634
8banks busy for write cycles: 228699346

CPU 0 Branch Prediction Accuracy: 96.9705% MPKI: 9.2675 Average ROB Occupancy at Mispredict: 53.6225
Branch types
NOT_BRANCH: 138818916 69.4095%
BRANCH_DIRECT_JUMP: 7722186 3.86109%
BRANCH_INDIRECT: 0 0%
BRANCH_CONDITIONAL: 52053293 26.0266%
BRANCH_DIRECT_CALL: 648845 0.324422%
BRANCH_INDIRECT_CALL: 53834 0.026917%
BRANCH_RETURN: 702677 0.351338%
BRANCH_OTHER: 0 0%

DRAM PAGES: 1048576
Allocated PAGES: 219750
