
*** ChampSim Multicore Out-of-Order Simulator ***

Warmup Instructions: 50000000
Simulation Instructions: 200000000
Number of CPUs: 1
LLC sets: 2048
LLC ways: 16
L0D sets: 16
L0D ways: 2
ROB size: 352
LQ size: 128
SQ size: 72
Secure Berti: ON
Berti: ON
Berti Fill: ON
On commit prefetching: OFF
Hit-based filter: OFF
Time-guarding: ON
Free-slotting: ON
Leap-frogging: ON
Train prefetcher on L0D bypass: OFF
No translation penalty for prefetchers: OFF
Prefetch to L0D only: OFF
Prefetch to L1D only: OFF
Clean evictions: ON
Commit loads: ON
Commit write: ON
Fill commit loads to L2C, LLC: ON
DRAM IO FREQUENCY: 6400
ROB SIZE: 352
Off-chip DRAM Size: 4096 MB Channels: 1 Width: 64-bit Data Rate: 6400 MT/s
CPU 0 runs /home/sumon/secure_berti/GhostMinion/../../traces/spec/605.mcf_s-1644B.champsimtrace.xz
.xz
BTB has LRU replacement policy
ITLB has LRU replacement policy
DTLB has LRU replacement policy
STLB has LRU replacement policy
L1I has LRU replacement policy
L0D has LRU replacement policy
Berti version on_commit
History Sets: 8
History Ways: 16
BERTI Size: 16
BERTI Stride Size: 16
L1D has LRU replacement policy
L2C has LRU replacement policy
LLC has LRU replacement policy
Heartbeat CPU 0 instructions: 10000003 cycles: 14281477 heartbeat IPC: 0.700208 cumulative IPC: 0.700208 (Simulation time: 0 hr 1 min 17 sec) 
Heartbeat CPU 0 instructions: 20000001 cycles: 28553587 heartbeat IPC: 0.700667 cumulative IPC: 0.700437 (Simulation time: 0 hr 4 min 13 sec) 
Heartbeat CPU 0 instructions: 30000002 cycles: 42834171 heartbeat IPC: 0.700252 cumulative IPC: 0.700375 (Simulation time: 0 hr 7 min 20 sec) 
Heartbeat CPU 0 instructions: 40000001 cycles: 57107287 heartbeat IPC: 0.700618 cumulative IPC: 0.700436 (Simulation time: 0 hr 10 min 11 sec) 
Heartbeat CPU 0 instructions: 50000000 cycles: 71385411 heartbeat IPC: 0.700372 cumulative IPC: 0.700423 (Simulation time: 0 hr 13 min 6 sec) 

Warmup complete CPU 0 instructions: 50000004 cycles: 71385412 (Simulation time: 0 hr 13 min 6 sec) 

Heartbeat CPU 0 instructions: 60000001 cycles: 141978586 heartbeat IPC: 0.141657 cumulative IPC: 0.141657 (Simulation time: 0 hr 17 min 32 sec) 
Heartbeat CPU 0 instructions: 70000003 cycles: 212763952 heartbeat IPC: 0.141272 cumulative IPC: 0.141464 (Simulation time: 0 hr 22 min 0 sec) 
Heartbeat CPU 0 instructions: 80000000 cycles: 283917201 heartbeat IPC: 0.140542 cumulative IPC: 0.141155 (Simulation time: 0 hr 26 min 45 sec) 
Heartbeat CPU 0 instructions: 90000000 cycles: 355000453 heartbeat IPC: 0.14068 cumulative IPC: 0.141036 (Simulation time: 0 hr 31 min 45 sec) 
Heartbeat CPU 0 instructions: 100000003 cycles: 427199254 heartbeat IPC: 0.138507 cumulative IPC: 0.140523 (Simulation time: 0 hr 36 min 14 sec) 
Heartbeat CPU 0 instructions: 110000000 cycles: 499326829 heartbeat IPC: 0.138643 cumulative IPC: 0.140206 (Simulation time: 0 hr 40 min 16 sec) 
Heartbeat CPU 0 instructions: 120000001 cycles: 571619621 heartbeat IPC: 0.138326 cumulative IPC: 0.139934 (Simulation time: 0 hr 42 min 27 sec) 
Heartbeat CPU 0 instructions: 130000001 cycles: 643624443 heartbeat IPC: 0.13888 cumulative IPC: 0.139802 (Simulation time: 0 hr 44 min 11 sec) 
Heartbeat CPU 0 instructions: 140000003 cycles: 714218763 heartbeat IPC: 0.141654 cumulative IPC: 0.140005 (Simulation time: 0 hr 45 min 46 sec) 
Heartbeat CPU 0 instructions: 150000002 cycles: 782096761 heartbeat IPC: 0.147323 cumulative IPC: 0.140704 (Simulation time: 0 hr 47 min 17 sec) 
Heartbeat CPU 0 instructions: 160000002 cycles: 848703230 heartbeat IPC: 0.150136 cumulative IPC: 0.141512 (Simulation time: 0 hr 48 min 48 sec) 
Heartbeat CPU 0 instructions: 170000002 cycles: 917295050 heartbeat IPC: 0.14579 cumulative IPC: 0.141859 (Simulation time: 0 hr 50 min 18 sec) 
Heartbeat CPU 0 instructions: 180000002 cycles: 986131746 heartbeat IPC: 0.145271 cumulative IPC: 0.142116 (Simulation time: 0 hr 51 min 48 sec) 
Heartbeat CPU 0 instructions: 190000002 cycles: 1054675129 heartbeat IPC: 0.145893 cumulative IPC: 0.142379 (Simulation time: 0 hr 53 min 18 sec) 
Heartbeat CPU 0 instructions: 200000001 cycles: 1124315291 heartbeat IPC: 0.143595 cumulative IPC: 0.14246 (Simulation time: 0 hr 54 min 47 sec) 
Heartbeat CPU 0 instructions: 210000003 cycles: 1193940784 heartbeat IPC: 0.143626 cumulative IPC: 0.142532 (Simulation time: 0 hr 56 min 17 sec) 
Heartbeat CPU 0 instructions: 220000000 cycles: 1263276475 heartbeat IPC: 0.144226 cumulative IPC: 0.14263 (Simulation time: 0 hr 57 min 46 sec) 
Heartbeat CPU 0 instructions: 230000003 cycles: 1332709401 heartbeat IPC: 0.144024 cumulative IPC: 0.142707 (Simulation time: 0 hr 59 min 16 sec) 
Heartbeat CPU 0 instructions: 240000000 cycles: 1402481545 heartbeat IPC: 0.143324 cumulative IPC: 0.14274 (Simulation time: 1 hr 0 min 45 sec) 
Heartbeat CPU 0 instructions: 250000000 cycles: 1472441743 heartbeat IPC: 0.142938 cumulative IPC: 0.142749 (Simulation time: 1 hr 2 min 14 sec) 
Finished CPU 0 instructions: 200000000 cycles: 1401056333 cumulative IPC: 0.142749 (Simulation time: 1 hr 2 min 14 sec) 
 Instruction ID: 250000247

ChampSim completed all CPUs

Region of Interest Statistics

CPU 0 cumulative IPC: 0.142749 instructions: 200000000 cycles: 1401056333
ITLB SPEC fills:          0  NON-SPEC fills:          0
ITLB Test counter :          0
ITLB Leapfrog:          0
ITLB MSHR merge:          0
ITLB TOTAL     ACCESS:   33646473  HIT:   33646473  MISS:          0  HIT %:        100  MISS %:          0   MPKI: 0
ITLB LOAD TRANSLATION NON_SPEC    ACCESS:   33646473  HIT:   33646473  MISS:          0  HIT %:        100  MISS %:          0   MPKI: 0
ITLB PREFETCH  REQUESTED:          0  ISSUED:          0  USEFUL:          0  USELESS:          0
ITLB USEFUL LOAD PREFETCHES:          0 PREFETCH ISSUED TO LOWER LEVEL:          0  ACCURACY: -nan
ITLB TIMELY PREFETCHES:          0 LATE PREFETCHES: 0 DROPPED PREFETCHES: 0
ITLB COMMIT LATE PREFETCHES: 0 MISSED OPPORTUNITY: 0 LATE IN PQ: 0 UNCOVERED: 0
ITLB COMMIT LATE MSHR PREFETCHES: 0
ITLB MPKI TOTAL: 0 MSHR LATE: 0 PQ LATE: 0 COMMIT LATE: 0 MISSED OPPORTUNITY: 0 UNCOVERED: 0
ITLB PREFETCHES SAME FILL-ORIGIN LEVEL: 0 DIFFERENT FILL-ORIGIN LEVEL: 0
ITLB AVERAGE MISS LATENCY: -nan cycles
ITLB AVERAGE MISS LATENCY LOAD: -nan cycles
ITLB AVERAGE MISS LATENCY PREFETCH: -nan cycles
ITLB AVERAGE MSHR OCCUPANCY: 0
ITLB MSHR FULL: 0
ITLB RQ	ACCESS:   33648987	FORWARD:          0	MERGED:       2515	TO_CACHE:   33646472

DTLB SPEC fills:          0  NON-SPEC fills:          0
DTLB Test counter :          0
DTLB Leapfrog:          0
DTLB MSHR merge:          0
DTLB TOTAL     ACCESS:   79025281  HIT:   73391443  MISS:    5633838  HIT %:    92.8708  MISS %:    7.12916   MPKI: 28.1692
DTLB LOAD TRANSLATION NON_SPEC    ACCESS:   79025281  HIT:   73391443  MISS:    5633838  HIT %:    92.8708  MISS %:    7.12916   MPKI: 28.1692
DTLB PREFETCH  REQUESTED:          0  ISSUED:          0  USEFUL:          0  USELESS:          0
DTLB USEFUL LOAD PREFETCHES:          0 PREFETCH ISSUED TO LOWER LEVEL:          0  ACCURACY: -nan
DTLB TIMELY PREFETCHES:          0 LATE PREFETCHES: 0 DROPPED PREFETCHES: 0
DTLB COMMIT LATE PREFETCHES: 0 MISSED OPPORTUNITY: 0 LATE IN PQ: 0 UNCOVERED: 0
DTLB COMMIT LATE MSHR PREFETCHES: 0
DTLB MPKI TOTAL: 0 MSHR LATE: 0 PQ LATE: 0 COMMIT LATE: 0 MISSED OPPORTUNITY: 0 UNCOVERED: 0
DTLB PREFETCHES SAME FILL-ORIGIN LEVEL: 0 DIFFERENT FILL-ORIGIN LEVEL: 0
DTLB AVERAGE MISS LATENCY: 884.722 cycles
DTLB AVERAGE MISS LATENCY LOAD: -nan cycles
DTLB AVERAGE MISS LATENCY PREFETCH: -nan cycles
DTLB AVERAGE MSHR OCCUPANCY: 3.16257
DTLB MSHR FULL: 8.77076e-05
DTLB RQ	ACCESS:  125898139	FORWARD:          0	MERGED:   27007066	TO_CACHE:   98891073

STLB SPEC fills:          0  NON-SPEC fills:          0
STLB Test counter :          0
STLB Leapfrog:          0
STLB MSHR merge:          0
STLB TOTAL     ACCESS:    8685951  HIT:    3854115  MISS:    4831836  HIT %:    44.3718  MISS %:    55.6282   MPKI: 24.1592
STLB LOAD TRANSLATION NON_SPEC    ACCESS:    5633838  HIT:     815582  MISS:    4818256  HIT %:    14.4765  MISS %:    85.5235   MPKI: 24.0913
STLB TRANSLATION FROM L1D PREFETCHER NON_SPEC    ACCESS:    3052113  HIT:    3038533  MISS:      13580  HIT %:    99.5551  MISS %:   0.444938   MPKI: 0.0679
STLB PREFETCH  REQUESTED:          0  ISSUED:          0  USEFUL:       8349  USELESS:       5229
STLB USEFUL LOAD PREFETCHES:       8349 PREFETCH ISSUED TO LOWER LEVEL:          0  ACCURACY: inf
STLB TIMELY PREFETCHES:       8349 LATE PREFETCHES: 72218 DROPPED PREFETCHES: 1199113
STLB COMMIT LATE PREFETCHES: 0 MISSED OPPORTUNITY: 0 LATE IN PQ: 0 UNCOVERED: 0
STLB COMMIT LATE MSHR PREFETCHES: 0
STLB MPKI TOTAL: 0 MSHR LATE: 0.36109 PQ LATE: 0 COMMIT LATE: 0 MISSED OPPORTUNITY: 0 UNCOVERED: 0
STLB PREFETCHES SAME FILL-ORIGIN LEVEL: 0 DIFFERENT FILL-ORIGIN LEVEL: 0
STLB AVERAGE MISS LATENCY: 1022.85 cycles
STLB AVERAGE MISS LATENCY LOAD: -nan cycles
STLB AVERAGE MISS LATENCY PREFETCH: -nan cycles
STLB AVERAGE MSHR OCCUPANCY: 3.42081
STLB MSHR FULL: 0
STLB RQ	ACCESS:   39847048	FORWARD:          0	MERGED:   29139284	TO_CACHE:   10707764

STLB Hit, L1D data hit: 0
STLB Hit, L2C data hit: 0
STLB Hit, LLC data hit: 0
STLB Hit, LLC data miss: 0
STLB STLB hints to L2: 0
L0D SPEC fills:   22215913  NON-SPEC fills:          0
L0D TimeGuard Request with older TS:    2779377 Restricted eviction:     550858 read:    5325534
L0D Test counter :          0
L0D Leapfrog:          0
L0D MSHR merge:    1606790
L0D TOTAL     ACCESS:   54318249  HIT:   16943792  MISS:   37374457  HIT %:    31.1936  MISS %:    68.8064   MPKI: 186.872
L0D LOAD      TOTAL       ACCESS:   54318249  HIT:   16943792  MISS:   37374457  HIT %:    31.1936  MISS %:    68.8064   MPKI: 186.872
L0D LOAD      NON_SPEC    ACCESS:   18658623  HIT:    4050083  MISS:   14608540  HIT %:    21.7062  MISS %:    78.2938   MPKI: 73.0427
L0D LOAD      SPEC        ACCESS:   35659626  HIT:   12893709  MISS:   22765917  HIT %:    36.1577  MISS %:    63.8423   MPKI: 113.83
L0D PREFETCH  REQUESTED:          0  ISSUED:          0  USEFUL:          0  USELESS:          0
L0D USEFUL LOAD PREFETCHES:          0 PREFETCH ISSUED TO LOWER LEVEL:          0  ACCURACY: -nan
L0D TIMELY PREFETCHES:          0 LATE PREFETCHES: 0 DROPPED PREFETCHES: 0
L0D COMMIT LATE PREFETCHES: 0 MISSED OPPORTUNITY: 0 LATE IN PQ: 0 UNCOVERED: 0
L0D COMMIT LATE MSHR PREFETCHES: 0
L0D MPKI TOTAL: 194.906 MSHR LATE: 0 PQ LATE: 0 COMMIT LATE: 0 MISSED OPPORTUNITY: 0 UNCOVERED: 0
L0D PREFETCHES SAME FILL-ORIGIN LEVEL: 0 DIFFERENT FILL-ORIGIN LEVEL: 0
L0D AVERAGE MISS LATENCY: 17.0854 cycles
L0D AVERAGE MISS LATENCY LOAD: 17.0854 cycles
L0D AVERAGE MISS LATENCY PREFETCH: -nan cycles
L0D AVERAGE MSHR OCCUPANCY: 0.819388
L0D MSHR FULL: 1.9848e-06
L0D RQ	ACCESS:   69815680	FORWARD:          0	MERGED:   13890643	TO_CACHE:   55925037
L0D WQ	ACCESS:   69973102	FORWARD:          0	MERGED:          0	TO_CACHE:   69973102

L1D SPEC fills:          0  NON-SPEC fills:     168249
L1D Test counter :    8754882
L1D Leapfrog:          0
L1D MSHR merge:     174250
L1D TOTAL     ACCESS:  128390600  HIT:  106050925  MISS:   22339675  HIT %:    82.6002  MISS %:    17.3998   MPKI: 111.698
L1D LOAD      TOTAL       ACCESS:   37373636  HIT:   32837670  MISS:    4535966  HIT %:    87.8632  MISS %:    12.1368   MPKI: 22.6798
L1D LOAD      NON_SPEC    ACCESS:   14607969  HIT:   14439720  MISS:     168249  HIT %:    98.8482  MISS %:    1.15176   MPKI: 0.841245
L1D LOAD      SPEC        ACCESS:   22765667  HIT:   18397950  MISS:    4367717  HIT %:    80.8145  MISS %:    19.1855   MPKI: 21.8386
L1D RFO       NON_SPEC    ACCESS:   29103601  HIT:   20356638  MISS:    8746963  HIT %:    69.9454  MISS %:    30.0546   MPKI: 43.7348
L1D PREFETCH  NON_SPEC    ACCESS:   26203112  HIT:   21468824  MISS:    4734288  HIT %:    81.9323  MISS %:    18.0677   MPKI: 23.6714
L1D COMMIT LOAD NON_SPEC    ACCESS:   15970370  HIT:   15752170  MISS:     218200  HIT %:    98.6337  MISS %:    1.36628   MPKI: 1.091
L1D COMMIT WRITE NON_SPEC    ACCESS:   19739881  HIT:   15635623  MISS:    4104258  HIT %:    79.2083  MISS %:    20.7917   MPKI: 20.5213
L1D PREFETCH  REQUESTED:   81409282  ISSUED:   38696224  USEFUL:    4716693  USELESS:      17583
L1D USEFUL LOAD PREFETCHES:    4716693 PREFETCH ISSUED TO LOWER LEVEL:    6804656  ACCURACY: 69.3157
L1D TIMELY PREFETCHES:    4716693 LATE PREFETCHES: 173922 DROPPED PREFETCHES: 5341309
L1D COMMIT LATE PREFETCHES: 0 MISSED OPPORTUNITY: 0 LATE IN PQ: 0 UNCOVERED: 0
L1D COMMIT LATE MSHR PREFETCHES: 0
L1D MPKI TOTAL: 22.6839 MSHR LATE: 0.86961 PQ LATE: 0 COMMIT LATE: 0 MISSED OPPORTUNITY: 0 UNCOVERED: 0
L1D PREFETCHES SAME FILL-ORIGIN LEVEL: 4908210 DIFFERENT FILL-ORIGIN LEVEL: 1896446
L1D AVERAGE MISS LATENCY: 200.986 cycles
L1D AVERAGE MISS LATENCY LOAD: 96.8874 cycles
L1D AVERAGE MISS LATENCY PREFETCH: 322.941 cycles
L1D AVERAGE MSHR OCCUPANCY: 5.1954
L1D MSHR FULL: 0.126646
L1D RQ	ACCESS:   68747575	FORWARD:          0	MERGED:   15281456	TO_CACHE:   53345283
L1D WQ	ACCESS:   89714785	FORWARD:     120836	MERGED:   10044740	TO_CACHE:   79670045
L1D PQ	ACCESS:   38696224	FORWARD:          0	MERGED:    4483017	TO_CACHE:   34213207

L1D UNIQUE REGIONS ACCESSED: 0
L1D REGIONS CONFLICTS: 0
L1D Cross Page Prefetch Requests: 13536137
L1D Same Page Prefetch Requests: 43858524
L1D ROI Sum of L1D PQ occupancy: 13186522587
L1D PREFETCHES PUSHED FROM L2C: 0
L1I SPEC fills:          0  NON-SPEC fills:          0
L1I Test counter :          0
L1I Leapfrog:          0
L1I MSHR merge:          0
L1I TOTAL     ACCESS:   33648988  HIT:   33648988  MISS:          0  HIT %:        100  MISS %:          0   MPKI: 0
L1I LOAD      TOTAL       ACCESS:   33648988  HIT:   33648988  MISS:          0  HIT %:        100  MISS %:          0   MPKI: 0
L1I LOAD      NON_SPEC    ACCESS:   33648988  HIT:   33648988  MISS:          0  HIT %:        100  MISS %:          0   MPKI: 0
L1I PREFETCH  REQUESTED:          0  ISSUED:          0  USEFUL:          0  USELESS:          0
L1I USEFUL LOAD PREFETCHES:          0 PREFETCH ISSUED TO LOWER LEVEL:          0  ACCURACY: -nan
L1I TIMELY PREFETCHES:          0 LATE PREFETCHES: 0 DROPPED PREFETCHES: 0
L1I COMMIT LATE PREFETCHES: 0 MISSED OPPORTUNITY: 0 LATE IN PQ: 0 UNCOVERED: 0
L1I COMMIT LATE MSHR PREFETCHES: 0
L1I MPKI TOTAL: 0 MSHR LATE: 0 PQ LATE: 0 COMMIT LATE: 0 MISSED OPPORTUNITY: 0 UNCOVERED: 0
L1I PREFETCHES SAME FILL-ORIGIN LEVEL: 0 DIFFERENT FILL-ORIGIN LEVEL: 0
L1I AVERAGE MISS LATENCY: -nan cycles
L1I AVERAGE MISS LATENCY LOAD: -nan cycles
L1I AVERAGE MISS LATENCY PREFETCH: -nan cycles
L1I AVERAGE MSHR OCCUPANCY: 0
L1I MSHR FULL: 0
L1I RQ	ACCESS:   57282916	FORWARD:          0	MERGED:   23633929	TO_CACHE:   33648987

BTB SPEC fills:          0  NON-SPEC fills:          0
BTB Test counter :          0
BTB Leapfrog:          0
BTB MSHR merge:          0
BTB TOTAL     ACCESS:   20480052  HIT:   20480047  MISS:          5  HIT %:        100  MISS %: 2.4414e-05   MPKI: 2.5e-05
BTB BRANCH_DIRECT_JUMP	ACCESS:    2986818  HIT:    2986817  MISS:          1
BTB BRANCH_INDIRECT	ACCESS:          0  HIT:          0  MISS:          0
BTB BRANCH_CONDITIONAL	ACCESS:    8746602  HIT:    8746600  MISS:          2
BTB BRANCH_DIRECT_CALL	ACCESS:    4373316  HIT:    4373315  MISS:          1
BTB BRANCH_INDIRECT_CALL	ACCESS:          0  HIT:          0  MISS:          0
BTB BRANCH_RETURN	ACCESS:    4373316  HIT:    4373315  MISS:          1
BTB BRANCH_OTHER ACCESS:          0  HIT:          0  MISS:          0

L2C SPEC fills:          0  NON-SPEC fills:     120397
L2C Test counter :    7866337
L2C Leapfrog:          0
L2C MSHR merge:      10436
L2C TOTAL     ACCESS:   68099419  HIT:   43598865  MISS:   24500554  HIT %:    64.0224  MISS %:    35.9776   MPKI: 122.503
L2C LOAD      TOTAL       ACCESS:    4362488  HIT:    1212005  MISS:    3150483  HIT %:    27.7824  MISS %:    72.2176   MPKI: 15.7524
L2C LOAD      NON_SPEC    ACCESS:     167690  HIT:      47293  MISS:     120397  HIT %:    28.2026  MISS %:    71.7974   MPKI: 0.601985
L2C LOAD      SPEC        ACCESS:    4194798  HIT:    1164712  MISS:    3030086  HIT %:    27.7656  MISS %:    72.2344   MPKI: 15.1504
L2C RFO       NON_SPEC    ACCESS:    8746963  HIT:       1477  MISS:    8745486  HIT %:  0.0168859  MISS %:    99.9831   MPKI: 43.7274
L2C PREFETCH  NON_SPEC    ACCESS:    6543528  HIT:    1170176  MISS:    5373352  HIT %:     17.883  MISS %:     82.117   MPKI: 26.8668
L2C WRITEBACK NON_SPEC    ACCESS:    8989595  HIT:    8989422  MISS:        173  HIT %:    99.9981  MISS %: 0.00192445   MPKI: 0.000865
L2C CLEAN_EVICTION NON_SPEC    ACCESS:    8754879  HIT:    5812847  MISS:    2942032  HIT %:    66.3955  MISS %:    33.6045   MPKI: 14.7102
L2C COMMIT LOAD NON_SPEC    ACCESS:     217697  HIT:      73624  MISS:     144073  HIT %:    33.8195  MISS %:    66.1805   MPKI: 0.720365
L2C LOAD TRANSLATION NON_SPEC    ACCESS:   24062321  HIT:   19930908  MISS:    4131413  HIT %:    82.8304  MISS %:    17.1696   MPKI: 20.6571
L2C TRANSLATION FROM L1D PREFETCHER NON_SPEC    ACCESS:    6421948  HIT:    6408406  MISS:      13542  HIT %:    99.7891  MISS %:   0.210871   MPKI: 0.06771
L2C PREFETCH  REQUESTED:          0  ISSUED:          0  USEFUL:      98758  USELESS:    5288321
L2C USEFUL LOAD PREFETCHES:      98758 PREFETCH ISSUED TO LOWER LEVEL:    5416779  ACCURACY: 1.82319
L2C TIMELY PREFETCHES:      98758 LATE PREFETCHES: 43427 DROPPED PREFETCHES: 0
L2C COMMIT LATE PREFETCHES: 0 MISSED OPPORTUNITY: 0 LATE IN PQ: 0 UNCOVERED: 0
L2C COMMIT LATE MSHR PREFETCHES: 0
L2C MPKI TOTAL: 15.7524 MSHR LATE: 0.217135 PQ LATE: 0 COMMIT LATE: 0 MISSED OPPORTUNITY: 0 UNCOVERED: 0
L2C PREFETCHES SAME FILL-ORIGIN LEVEL: 1576613 DIFFERENT FILL-ORIGIN LEVEL: 0
L2C AVERAGE MISS LATENCY: 240.772 cycles
L2C AVERAGE MISS LATENCY LOAD: 106.399 cycles
L2C AVERAGE MISS LATENCY PREFETCH: 403.567 cycles
L2C AVERAGE MSHR OCCUPANCY: 3.09074
L2C MSHR FULL: 0.00206083
L2C RQ	ACCESS:   43811477	FORWARD:          0	MERGED:          0	TO_CACHE:   43811418
L2C WQ	ACCESS:   17744486	FORWARD:         60	MERGED:         12	TO_CACHE:   17744474
L2C PQ	ACCESS:    6804656	FORWARD:          0	MERGED:         11	TO_CACHE:    6804644

L2C Instructions Evicting Data 0
L2C Translations Evicting Data 3342727
L2C Data Evicting Data 11604553
L2C Instructions Evicting Instructions 0
L2C Translations Evicting Instructions 0
L2C Data Evicting Instructions 0
L2C Instructions Evicting Translations 0
L2C Translations Evicting Translations 802228
L2C Data Evicting Translations 2778755
L2C Dense regions hint from L2: 0
PSCL5 SPEC fills:          0  NON-SPEC fills:          0
PSCL5 Test counter :          0
PSCL5 Leapfrog:          0
PSCL5 MSHR merge:          0
PSCL5 TOTAL     ACCESS:          0  HIT:          0  MISS:          0  HIT %:       -nan  MISS %:       -nan   MPKI: 0
PSCL5 PREFETCH  REQUESTED:          0  ISSUED:          0  USEFUL:          0  USELESS:          0
PSCL5 USEFUL LOAD PREFETCHES:          0 PREFETCH ISSUED TO LOWER LEVEL:          0  ACCURACY: -nan
PSCL5 TIMELY PREFETCHES:          0 LATE PREFETCHES: 0 DROPPED PREFETCHES: 0
PSCL5 COMMIT LATE PREFETCHES: 0 MISSED OPPORTUNITY: 0 LATE IN PQ: 0 UNCOVERED: 0
PSCL5 COMMIT LATE MSHR PREFETCHES: 0
PSCL5 MPKI TOTAL: 0 MSHR LATE: 0 PQ LATE: 0 COMMIT LATE: 0 MISSED OPPORTUNITY: 0 UNCOVERED: 0
PSCL5 PREFETCHES SAME FILL-ORIGIN LEVEL: 0 DIFFERENT FILL-ORIGIN LEVEL: 0

PSCL4 SPEC fills:          0  NON-SPEC fills:          0
PSCL4 Test counter :          0
PSCL4 Leapfrog:          0
PSCL4 MSHR merge:          0
PSCL4 TOTAL     ACCESS:          0  HIT:          0  MISS:          0  HIT %:       -nan  MISS %:       -nan   MPKI: 0
PSCL4 PREFETCH  REQUESTED:          0  ISSUED:          0  USEFUL:          0  USELESS:          0
PSCL4 USEFUL LOAD PREFETCHES:          0 PREFETCH ISSUED TO LOWER LEVEL:          0  ACCURACY: -nan
PSCL4 TIMELY PREFETCHES:          0 LATE PREFETCHES: 0 DROPPED PREFETCHES: 0
PSCL4 COMMIT LATE PREFETCHES: 0 MISSED OPPORTUNITY: 0 LATE IN PQ: 0 UNCOVERED: 0
PSCL4 COMMIT LATE MSHR PREFETCHES: 0
PSCL4 MPKI TOTAL: 0 MSHR LATE: 0 PQ LATE: 0 COMMIT LATE: 0 MISSED OPPORTUNITY: 0 UNCOVERED: 0
PSCL4 PREFETCHES SAME FILL-ORIGIN LEVEL: 0 DIFFERENT FILL-ORIGIN LEVEL: 0

PSCL3 SPEC fills:          0  NON-SPEC fills:          0
PSCL3 Test counter :          0
PSCL3 Leapfrog:          0
PSCL3 MSHR merge:          0
PSCL3 TOTAL     ACCESS:          0  HIT:          0  MISS:          0  HIT %:       -nan  MISS %:       -nan   MPKI: 0
PSCL3 PREFETCH  REQUESTED:          0  ISSUED:          0  USEFUL:          0  USELESS:          0
PSCL3 USEFUL LOAD PREFETCHES:          0 PREFETCH ISSUED TO LOWER LEVEL:          0  ACCURACY: -nan
PSCL3 TIMELY PREFETCHES:          0 LATE PREFETCHES: 0 DROPPED PREFETCHES: 0
PSCL3 COMMIT LATE PREFETCHES: 0 MISSED OPPORTUNITY: 0 LATE IN PQ: 0 UNCOVERED: 0
PSCL3 COMMIT LATE MSHR PREFETCHES: 0
PSCL3 MPKI TOTAL: 0 MSHR LATE: 0 PQ LATE: 0 COMMIT LATE: 0 MISSED OPPORTUNITY: 0 UNCOVERED: 0
PSCL3 PREFETCHES SAME FILL-ORIGIN LEVEL: 0 DIFFERENT FILL-ORIGIN LEVEL: 0

PSCL2 SPEC fills:          0  NON-SPEC fills:          0
PSCL2 Test counter :          0
PSCL2 Leapfrog:          0
PSCL2 MSHR merge:          0
PSCL2 TOTAL     ACCESS:          0  HIT:          0  MISS:          0  HIT %:       -nan  MISS %:       -nan   MPKI: 0
PSCL2 PREFETCH  REQUESTED:          0  ISSUED:          0  USEFUL:          0  USELESS:          0
PSCL2 USEFUL LOAD PREFETCHES:          0 PREFETCH ISSUED TO LOWER LEVEL:          0  ACCURACY: -nan
PSCL2 TIMELY PREFETCHES:          0 LATE PREFETCHES: 0 DROPPED PREFETCHES: 0
PSCL2 COMMIT LATE PREFETCHES: 0 MISSED OPPORTUNITY: 0 LATE IN PQ: 0 UNCOVERED: 0
PSCL2 COMMIT LATE MSHR PREFETCHES: 0
PSCL2 MPKI TOTAL: 0 MSHR LATE: 0 PQ LATE: 0 COMMIT LATE: 0 MISSED OPPORTUNITY: 0 UNCOVERED: 0
PSCL2 PREFETCHES SAME FILL-ORIGIN LEVEL: 0 DIFFERENT FILL-ORIGIN LEVEL: 0

LLC SPEC fills:          0  NON-SPEC fills:      35077
LLC Test counter :    6069867
LLC Leapfrog:          0
LLC MSHR merge:          0
LLC TOTAL     ACCESS:   38367347  HIT:   18980369  MISS:   19386978  HIT %:    49.4701  MISS %:    50.5299   MPKI: 96.9349
LLC LOAD      TOTAL       ACCESS:    3140013  HIT:    2167507  MISS:     972506  HIT %:    69.0286  MISS %:    30.9714   MPKI: 4.86253
LLC LOAD      NON_SPEC    ACCESS:     120153  HIT:      85076  MISS:      35077  HIT %:    70.8064  MISS %:    29.1936   MPKI: 0.175385
LLC LOAD      SPEC        ACCESS:    3019860  HIT:    2082431  MISS:     937429  HIT %:    68.9579  MISS %:    31.0421   MPKI: 4.68715
LLC RFO       NON_SPEC    ACCESS:    8712713  HIT:      45813  MISS:    8666900  HIT %:   0.525818  MISS %:    99.4742   MPKI: 43.3345
LLC PREFETCH  NON_SPEC    ACCESS:    5416777  HIT:     123753  MISS:    5293024  HIT %:    2.28462  MISS %:    97.7154   MPKI: 26.4651
LLC WRITEBACK NON_SPEC    ACCESS:    8942697  HIT:    8942237  MISS:        460  HIT %:    99.9949  MISS %: 0.00514386   MPKI: 0.0023
LLC CLEAN_EVICTION NON_SPEC    ACCESS:    7866337  HIT:    6669216  MISS:    1197121  HIT %:    84.7817  MISS %:    15.2183   MPKI: 5.9856
LLC COMMIT LOAD NON_SPEC    ACCESS:     143855  HIT:     113224  MISS:      30631  HIT %:     78.707  MISS %:     21.293   MPKI: 0.153155
LLC LOAD TRANSLATION NON_SPEC    ACCESS:    4131413  HIT:     917000  MISS:    3214413  HIT %:    22.1958  MISS %:    77.8042   MPKI: 16.0721
LLC TRANSLATION FROM L1D PREFETCHER NON_SPEC    ACCESS:      13542  HIT:       1619  MISS:      11923  HIT %:    11.9554  MISS %:    88.0446   MPKI: 0.059615
LLC PREFETCH  REQUESTED:          0  ISSUED:          0  USEFUL:      29971  USELESS:    5274927
LLC USEFUL LOAD PREFETCHES:      29971 PREFETCH ISSUED TO LOWER LEVEL:    5293024  ACCURACY: 0.566236
LLC TIMELY PREFETCHES:      29971 LATE PREFETCHES: 0 DROPPED PREFETCHES: 0
LLC COMMIT LATE PREFETCHES: 0 MISSED OPPORTUNITY: 0 LATE IN PQ: 0 UNCOVERED: 0
LLC COMMIT LATE MSHR PREFETCHES: 0
LLC MPKI TOTAL: 4.86253 MSHR LATE: 0 PQ LATE: 0 COMMIT LATE: 0 MISSED OPPORTUNITY: 0 UNCOVERED: 0
LLC PREFETCHES SAME FILL-ORIGIN LEVEL: 0 DIFFERENT FILL-ORIGIN LEVEL: 0
LLC AVERAGE MISS LATENCY: 272.308 cycles
LLC AVERAGE MISS LATENCY LOAD: 273.153 cycles
LLC AVERAGE MISS LATENCY PREFETCH: 381.586 cycles
LLC AVERAGE MSHR OCCUPANCY: 2.73848
LLC MSHR FULL: 0
LLC RQ	ACCESS:   16141569	FORWARD:          0	MERGED:          0	TO_CACHE:   16141535
LLC WQ	ACCESS:   16809034	FORWARD:         36	MERGED:          0	TO_CACHE:   16809034
LLC PQ	ACCESS:    5416779	FORWARD:          0	MERGED:          0	TO_CACHE:    5416777

LLC Dense regions hint to LLC: 0

RAW hits: 13277407
Loads Generated: 83093086
Loads sent to L1D: 69815680
Stores Generated: 69973136
Stores sent to L1D: 69973102
Major fault: 0 Minor fault: 318411
Allocated PAGES: 318411
Total Load insts: 89079740
Total Non-spec loads: 28363448
Percentage of speculative loads: 68.1595

LeapFrogging counter: 1042760
Commit hits: 19741709 miss: 31373119
Commit hit %: 38.6223 miss %: 61.3777
Commits not translated: 0
Loads retired: 4535964
Stores retired: 69973102
Cache fills: 4535966
L1D response latency: 96.8874 cycles
Load retirement latency: 661.994 cycles
OOO test counter: 0
Discarded buffer inserts: 19741709 hits: 2901 hit %: 0.0146948
Filter prediction accuracy: -nan
ALL MISSES SIZE: 32002
LATENCY_FILL: 95.7352 4529540
LATENCY_FILL_ROB: 524.364 4499161
test counter pref: 78269255
Max ROB Extended: 13

DRAM Statistics
 CHANNEL 0
 RQ ROW_BUFFER_HIT:    1405215  ROW_BUFFER_MISS:   16781926
 DBUS_CONGESTED:         86
 WQ ROW_BUFFER_HIT:    4889508  ROW_BUFFER_MISS:    9991619  FULL:      10117

 AVG_CONGESTED_CYCLE: 5
 All warmup complete: 2
Channel 0 Bank busy for read cycles: 0
Channel 0 Bank busy for write cycles: 0
Channel 0
Rank 0
0banks busy for read cycles: 3954387
0banks busy for write cycles: 1347
1banks busy for read cycles: 208424623
1banks busy for write cycles: 3350296
2banks busy for read cycles: 218366712
2banks busy for write cycles: 3317913
3banks busy for read cycles: 261241069
3banks busy for write cycles: 3408155
4banks busy for read cycles: 109815682
4banks busy for write cycles: 5994583
5banks busy for read cycles: 48344228
5banks busy for write cycles: 11595742
6banks busy for read cycles: 29208014
6banks busy for write cycles: 26733730
7banks busy for read cycles: 20252296
7banks busy for write cycles: 97100495
8banks busy for read cycles: 30365351
8banks busy for write cycles: 319581711

CPU 0 Branch Prediction Accuracy: 95.2594% MPKI: 5.89096 Average ROB Occupancy at Mispredict: 144.441
Branch types
NOT_BRANCH: 175146465 87.5732%
BRANCH_DIRECT_JUMP: 2986818 1.49341%
BRANCH_INDIRECT: 0 0%
BRANCH_CONDITIONAL: 13119949 6.55997%
BRANCH_DIRECT_CALL: 4373316 2.18666%
BRANCH_INDIRECT_CALL: 0 0%
BRANCH_RETURN: 4373316 2.18666%
BRANCH_OTHER: 0 0%

DRAM PAGES: 1048576
Allocated PAGES: 318411
