
*** ChampSim Multicore Out-of-Order Simulator ***

Warmup Instructions: 50000000
Simulation Instructions: 200000000
Number of CPUs: 1
LLC sets: 2048
LLC ways: 16
L0D sets: 16
L0D ways: 2
ROB size: 352
LQ size: 128
SQ size: 72
Secure Berti: ON
Berti: ON
Berti Fill: ON
On commit prefetching: OFF
Hit-based filter: OFF
Time-guarding: ON
Free-slotting: ON
Leap-frogging: ON
Train prefetcher on L0D bypass: OFF
No translation penalty for prefetchers: OFF
Prefetch to L0D only: OFF
Prefetch to L1D only: OFF
Clean evictions: ON
Commit loads: ON
Commit write: ON
Fill commit loads to L2C, LLC: ON
DRAM IO FREQUENCY: 6400
ROB SIZE: 352
Off-chip DRAM Size: 4096 MB Channels: 1 Width: 64-bit Data Rate: 6400 MT/s
CPU 0 runs /home/sumon/secure_berti/GhostMinion/../../traces/spec/605.mcf_s-484B.champsimtrace.xz
.xz
BTB has LRU replacement policy
ITLB has LRU replacement policy
DTLB has LRU replacement policy
STLB has LRU replacement policy
L1I has LRU replacement policy
L0D has LRU replacement policy
Berti version on_commit
History Sets: 8
History Ways: 16
BERTI Size: 16
BERTI Stride Size: 16
L1D has LRU replacement policy
L2C has LRU replacement policy
LLC has LRU replacement policy
Heartbeat CPU 0 instructions: 10000001 cycles: 5793045 heartbeat IPC: 1.72621 cumulative IPC: 1.72621 (Simulation time: 0 hr 0 min 43 sec) 
Heartbeat CPU 0 instructions: 20000000 cycles: 11475625 heartbeat IPC: 1.75976 cumulative IPC: 1.74282 (Simulation time: 0 hr 1 min 39 sec) 
Heartbeat CPU 0 instructions: 30000001 cycles: 16925475 heartbeat IPC: 1.83491 cumulative IPC: 1.77248 (Simulation time: 0 hr 3 min 28 sec) 
Heartbeat CPU 0 instructions: 40000000 cycles: 22679895 heartbeat IPC: 1.73779 cumulative IPC: 1.76368 (Simulation time: 0 hr 5 min 18 sec) 
Heartbeat CPU 0 instructions: 50000000 cycles: 28315079 heartbeat IPC: 1.77456 cumulative IPC: 1.76584 (Simulation time: 0 hr 7 min 10 sec) 

Warmup complete CPU 0 instructions: 50000004 cycles: 28315080 (Simulation time: 0 hr 7 min 10 sec) 

Heartbeat CPU 0 instructions: 60000003 cycles: 50879515 heartbeat IPC: 0.443175 cumulative IPC: 0.443175 (Simulation time: 0 hr 9 min 31 sec) 
Heartbeat CPU 0 instructions: 70000003 cycles: 81408148 heartbeat IPC: 0.327561 cumulative IPC: 0.376697 (Simulation time: 0 hr 12 min 21 sec) 
Heartbeat CPU 0 instructions: 80000000 cycles: 111589768 heartbeat IPC: 0.331327 cumulative IPC: 0.360253 (Simulation time: 0 hr 15 min 4 sec) 
Heartbeat CPU 0 instructions: 90000000 cycles: 137562860 heartbeat IPC: 0.385014 cumulative IPC: 0.36614 (Simulation time: 0 hr 17 min 37 sec) 
Heartbeat CPU 0 instructions: 100000000 cycles: 159869103 heartbeat IPC: 0.448305 cumulative IPC: 0.380072 (Simulation time: 0 hr 20 min 0 sec) 
Heartbeat CPU 0 instructions: 110000000 cycles: 182957052 heartbeat IPC: 0.433126 cumulative IPC: 0.387993 (Simulation time: 0 hr 22 min 32 sec) 
Heartbeat CPU 0 instructions: 120000001 cycles: 201757820 heartbeat IPC: 0.531893 cumulative IPC: 0.403591 (Simulation time: 0 hr 24 min 55 sec) 
Heartbeat CPU 0 instructions: 130000000 cycles: 221559563 heartbeat IPC: 0.505006 cumulative IPC: 0.413983 (Simulation time: 0 hr 27 min 24 sec) 
Heartbeat CPU 0 instructions: 140000001 cycles: 244185611 heartbeat IPC: 0.441969 cumulative IPC: 0.416917 (Simulation time: 0 hr 30 min 11 sec) 
Heartbeat CPU 0 instructions: 150000001 cycles: 263521261 heartbeat IPC: 0.517179 cumulative IPC: 0.425159 (Simulation time: 0 hr 32 min 44 sec) 
Heartbeat CPU 0 instructions: 160000000 cycles: 285955474 heartbeat IPC: 0.445748 cumulative IPC: 0.426952 (Simulation time: 0 hr 35 min 13 sec) 
Heartbeat CPU 0 instructions: 170000000 cycles: 310469687 heartbeat IPC: 0.407927 cumulative IPC: 0.425299 (Simulation time: 0 hr 37 min 31 sec) 
Heartbeat CPU 0 instructions: 180000000 cycles: 333013274 heartbeat IPC: 0.443585 cumulative IPC: 0.426652 (Simulation time: 0 hr 39 min 12 sec) 
Heartbeat CPU 0 instructions: 190000000 cycles: 355257637 heartbeat IPC: 0.449552 cumulative IPC: 0.42821 (Simulation time: 0 hr 40 min 31 sec) 
Heartbeat CPU 0 instructions: 200000000 cycles: 384092901 heartbeat IPC: 0.346798 cumulative IPC: 0.421611 (Simulation time: 0 hr 41 min 56 sec) 
Heartbeat CPU 0 instructions: 210000002 cycles: 415576713 heartbeat IPC: 0.317624 cumulative IPC: 0.413157 (Simulation time: 0 hr 43 min 5 sec) 
Heartbeat CPU 0 instructions: 220000000 cycles: 436548806 heartbeat IPC: 0.476824 cumulative IPC: 0.416428 (Simulation time: 0 hr 44 min 0 sec) 
Heartbeat CPU 0 instructions: 230000002 cycles: 458305264 heartbeat IPC: 0.459634 cumulative IPC: 0.418614 (Simulation time: 0 hr 44 min 50 sec) 
Heartbeat CPU 0 instructions: 240000000 cycles: 481098952 heartbeat IPC: 0.438718 cumulative IPC: 0.419626 (Simulation time: 0 hr 45 min 42 sec) 
Heartbeat CPU 0 instructions: 250000001 cycles: 507690621 heartbeat IPC: 0.376058 cumulative IPC: 0.417209 (Simulation time: 0 hr 46 min 38 sec) 
Finished CPU 0 instructions: 200000001 cycles: 479375543 cumulative IPC: 0.417209 (Simulation time: 0 hr 46 min 38 sec) 
 Instruction ID: 250000298

ChampSim completed all CPUs

Region of Interest Statistics

CPU 0 cumulative IPC: 0.417209 instructions: 200000001 cycles: 479375543
ITLB SPEC fills:          0  NON-SPEC fills:          0
ITLB Test counter :          0
ITLB Leapfrog:          0
ITLB MSHR merge:          0
ITLB TOTAL     ACCESS:   31342772  HIT:   31342772  MISS:          0  HIT %:        100  MISS %:          0   MPKI: 0
ITLB LOAD TRANSLATION NON_SPEC    ACCESS:   31342772  HIT:   31342772  MISS:          0  HIT %:        100  MISS %:          0   MPKI: 0
ITLB PREFETCH  REQUESTED:          0  ISSUED:          0  USEFUL:          0  USELESS:          0
ITLB USEFUL LOAD PREFETCHES:          0 PREFETCH ISSUED TO LOWER LEVEL:          0  ACCURACY: -nan
ITLB TIMELY PREFETCHES:          0 LATE PREFETCHES: 0 DROPPED PREFETCHES: 0
ITLB COMMIT LATE PREFETCHES: 0 MISSED OPPORTUNITY: 0 LATE IN PQ: 0 UNCOVERED: 0
ITLB COMMIT LATE MSHR PREFETCHES: 0
ITLB MPKI TOTAL: 0 MSHR LATE: 0 PQ LATE: 0 COMMIT LATE: 0 MISSED OPPORTUNITY: 0 UNCOVERED: 0
ITLB PREFETCHES SAME FILL-ORIGIN LEVEL: 0 DIFFERENT FILL-ORIGIN LEVEL: 0
ITLB AVERAGE MISS LATENCY: -nan cycles
ITLB AVERAGE MISS LATENCY LOAD: -nan cycles
ITLB AVERAGE MISS LATENCY PREFETCH: -nan cycles
ITLB AVERAGE MSHR OCCUPANCY: 0
ITLB MSHR FULL: 0
ITLB RQ	ACCESS:   42176227	FORWARD:          0	MERGED:   10833455	TO_CACHE:   31342772

DTLB SPEC fills:          0  NON-SPEC fills:          0
DTLB Test counter :          0
DTLB Leapfrog:          0
DTLB MSHR merge:          0
DTLB TOTAL     ACCESS:   56676898  HIT:   56199959  MISS:     476939  HIT %:    99.1585  MISS %:   0.841505   MPKI: 2.38469
DTLB LOAD TRANSLATION NON_SPEC    ACCESS:   56676898  HIT:   56199959  MISS:     476939  HIT %:    99.1585  MISS %:   0.841505   MPKI: 2.38469
DTLB PREFETCH  REQUESTED:          0  ISSUED:          0  USEFUL:          0  USELESS:          0
DTLB USEFUL LOAD PREFETCHES:          0 PREFETCH ISSUED TO LOWER LEVEL:          0  ACCURACY: -nan
DTLB TIMELY PREFETCHES:          0 LATE PREFETCHES: 0 DROPPED PREFETCHES: 0
DTLB COMMIT LATE PREFETCHES: 0 MISSED OPPORTUNITY: 0 LATE IN PQ: 0 UNCOVERED: 0
DTLB COMMIT LATE MSHR PREFETCHES: 0
DTLB MPKI TOTAL: 0 MSHR LATE: 0 PQ LATE: 0 COMMIT LATE: 0 MISSED OPPORTUNITY: 0 UNCOVERED: 0
DTLB PREFETCHES SAME FILL-ORIGIN LEVEL: 0 DIFFERENT FILL-ORIGIN LEVEL: 0
DTLB AVERAGE MISS LATENCY: 28.1382 cycles
DTLB AVERAGE MISS LATENCY LOAD: -nan cycles
DTLB AVERAGE MISS LATENCY PREFETCH: -nan cycles
DTLB AVERAGE MSHR OCCUPANCY: 0.0121204
DTLB MSHR FULL: 0
DTLB RQ	ACCESS:   97753390	FORWARD:          0	MERGED:   41050529	TO_CACHE:   56702861

STLB SPEC fills:          0  NON-SPEC fills:          0
STLB Test counter :          0
STLB Leapfrog:          0
STLB MSHR merge:          0
STLB TOTAL     ACCESS:    9367972  HIT:    9222059  MISS:     145913  HIT %:    98.4424  MISS %:    1.55757   MPKI: 0.729565
STLB LOAD TRANSLATION NON_SPEC    ACCESS:     476939  HIT:     429949  MISS:      46990  HIT %:    90.1476  MISS %:    9.85241   MPKI: 0.23495
STLB TRANSLATION FROM L1D PREFETCHER NON_SPEC    ACCESS:    8891033  HIT:    8792110  MISS:      98923  HIT %:    98.8874  MISS %:    1.11262   MPKI: 0.494615
STLB PREFETCH  REQUESTED:          0  ISSUED:          0  USEFUL:      98876  USELESS:         47
STLB USEFUL LOAD PREFETCHES:      98876 PREFETCH ISSUED TO LOWER LEVEL:          0  ACCURACY: inf
STLB TIMELY PREFETCHES:      98876 LATE PREFETCHES: 3267 DROPPED PREFETCHES: 245201
STLB COMMIT LATE PREFETCHES: 0 MISSED OPPORTUNITY: 0 LATE IN PQ: 0 UNCOVERED: 0
STLB COMMIT LATE MSHR PREFETCHES: 0
STLB MPKI TOTAL: 0 MSHR LATE: 0.016335 PQ LATE: 0 COMMIT LATE: 0 MISSED OPPORTUNITY: 0 UNCOVERED: 0
STLB PREFETCHES SAME FILL-ORIGIN LEVEL: 0 DIFFERENT FILL-ORIGIN LEVEL: 0
STLB AVERAGE MISS LATENCY: 151.779 cycles
STLB AVERAGE MISS LATENCY LOAD: -nan cycles
STLB AVERAGE MISS LATENCY PREFETCH: -nan cycles
STLB AVERAGE MSHR OCCUPANCY: 0.109553
STLB MSHR FULL: 2.96657e-05
STLB RQ	ACCESS:   26250965	FORWARD:          0	MERGED:   16610493	TO_CACHE:    9640472

STLB Hit, L1D data hit: 0
STLB Hit, L2C data hit: 0
STLB Hit, LLC data hit: 0
STLB Hit, LLC data miss: 0
STLB STLB hints to L2: 0
L0D SPEC fills:   27224488  NON-SPEC fills:          0
L0D TimeGuard Request with older TS:     524841 Restricted eviction:     163920 read:     759318
L0D Test counter :          0
L0D Leapfrog:          0
L0D MSHR merge:    1746369
L0D TOTAL     ACCESS:   38663831  HIT:    4088698  MISS:   34575133  HIT %:     10.575  MISS %:     89.425   MPKI: 172.876
L0D LOAD      TOTAL       ACCESS:   38663831  HIT:    4088698  MISS:   34575133  HIT %:     10.575  MISS %:     89.425   MPKI: 172.876
L0D LOAD      NON_SPEC    ACCESS:    7601352  HIT:     414627  MISS:    7186725  HIT %:    5.45465  MISS %:    94.5454   MPKI: 35.9336
L0D LOAD      SPEC        ACCESS:   31062479  HIT:    3674071  MISS:   27388408  HIT %:     11.828  MISS %:     88.172   MPKI: 136.942
L0D PREFETCH  REQUESTED:          0  ISSUED:          0  USEFUL:          0  USELESS:          0
L0D USEFUL LOAD PREFETCHES:          0 PREFETCH ISSUED TO LOWER LEVEL:          0  ACCURACY: -nan
L0D TIMELY PREFETCHES:          0 LATE PREFETCHES: 0 DROPPED PREFETCHES: 0
L0D COMMIT LATE PREFETCHES: 0 MISSED OPPORTUNITY: 0 LATE IN PQ: 0 UNCOVERED: 0
L0D COMMIT LATE MSHR PREFETCHES: 0
L0D MPKI TOTAL: 181.608 MSHR LATE: 0 PQ LATE: 0 COMMIT LATE: 0 MISSED OPPORTUNITY: 0 UNCOVERED: 0
L0D PREFETCHES SAME FILL-ORIGIN LEVEL: 0 DIFFERENT FILL-ORIGIN LEVEL: 0
L0D AVERAGE MISS LATENCY: 20.2825 cycles
L0D AVERAGE MISS LATENCY LOAD: 20.2825 cycles
L0D AVERAGE MISS LATENCY PREFETCH: -nan cycles
L0D AVERAGE MSHR OCCUPANCY: 1.3609
L0D MSHR FULL: 0.0252647
L0D RQ	ACCESS:   62777169	FORWARD:          0	MERGED:   22366967	TO_CACHE:   40410202
L0D WQ	ACCESS:   57343188	FORWARD:          0	MERGED:          0	TO_CACHE:   57343188

L1D SPEC fills:          0  NON-SPEC fills:     505884
L1D Test counter :    4130700
L1D Leapfrog:          0
L1D MSHR merge:     441011
L1D TOTAL     ACCESS:  145652521  HIT:  137576874  MISS:    8075647  HIT %:    94.4555  MISS %:    5.54446   MPKI: 40.3782
L1D LOAD      TOTAL       ACCESS:   34574569  HIT:   31963282  MISS:    2611287  HIT %:    92.4474  MISS %:    7.55262   MPKI: 13.0564
L1D LOAD      NON_SPEC    ACCESS:    7186330  HIT:    6680446  MISS:     505884  HIT %:    92.9605  MISS %:    7.03953   MPKI: 2.52942
L1D LOAD      SPEC        ACCESS:   27388239  HIT:   25282836  MISS:    2105403  HIT %:    92.3127  MISS %:    7.68725   MPKI: 10.527
L1D RFO       NON_SPEC    ACCESS:   55855841  HIT:   55536531  MISS:     319310  HIT %:    99.4283  MISS %:   0.571668   MPKI: 1.59655
L1D PREFETCH  NON_SPEC    ACCESS:   14110966  HIT:   10869356  MISS:    3241610  HIT %:    77.0277  MISS %:    22.9723   MPKI: 16.208
L1D COMMIT LOAD NON_SPEC    ACCESS:   14377371  HIT:   14313763  MISS:      63608  HIT %:    99.5576  MISS %:   0.442417   MPKI: 0.31804
L1D COMMIT WRITE NON_SPEC    ACCESS:   26733774  HIT:   24893942  MISS:    1839832  HIT %:    93.1179  MISS %:    6.88205   MPKI: 9.19916
L1D PREFETCH  REQUESTED:   55215538  ISSUED:   27655112  USEFUL:    2503067  USELESS:     738599
L1D USEFUL LOAD PREFETCHES:    2503067 PREFETCH ISSUED TO LOWER LEVEL:   14279059  ACCURACY: 17.5296
L1D TIMELY PREFETCHES:    2503067 LATE PREFETCHES: 446426 DROPPED PREFETCHES: 306404
L1D COMMIT LATE PREFETCHES: 0 MISSED OPPORTUNITY: 0 LATE IN PQ: 0 UNCOVERED: 0
L1D COMMIT LATE MSHR PREFETCHES: 0
L1D MPKI TOTAL: 13.0593 MSHR LATE: 2.23213 PQ LATE: 0 COMMIT LATE: 0 MISSED OPPORTUNITY: 0 UNCOVERED: 0
L1D PREFETCHES SAME FILL-ORIGIN LEVEL: 3820747 DIFFERENT FILL-ORIGIN LEVEL: 10458312
L1D AVERAGE MISS LATENCY: 180.672 cycles
L1D AVERAGE MISS LATENCY LOAD: 196.782 cycles
L1D AVERAGE MISS LATENCY PREFETCH: 242.375 cycles
L1D AVERAGE MSHR OCCUPANCY: 3.75189
L1D MSHR FULL: 0.106335
L1D RQ	ACCESS:   61504218	FORWARD:          0	MERGED:   11119683	TO_CACHE:   48955376
L1D WQ	ACCESS:   84125304	FORWARD:    1429159	MERGED:     593588	TO_CACHE:   83531716
L1D PQ	ACCESS:   27655112	FORWARD:          0	MERGED:    1881086	TO_CACHE:   25774026

L1D UNIQUE REGIONS ACCESSED: 0
L1D REGIONS CONFLICTS: 0
L1D Cross Page Prefetch Requests: 5117771
L1D Same Page Prefetch Requests: 27778392
L1D ROI Sum of L1D PQ occupancy: 705766450
L1D PREFETCHES PUSHED FROM L2C: 0
L1I SPEC fills:          0  NON-SPEC fills:          0
L1I Test counter :          0
L1I Leapfrog:          0
L1I MSHR merge:          0
L1I TOTAL     ACCESS:   42176227  HIT:   42176227  MISS:          0  HIT %:        100  MISS %:          0   MPKI: 0
L1I LOAD      TOTAL       ACCESS:   42176227  HIT:   42176227  MISS:          0  HIT %:        100  MISS %:          0   MPKI: 0
L1I LOAD      NON_SPEC    ACCESS:   42176227  HIT:   42176227  MISS:          0  HIT %:        100  MISS %:          0   MPKI: 0
L1I PREFETCH  REQUESTED:          0  ISSUED:          0  USEFUL:          0  USELESS:          0
L1I USEFUL LOAD PREFETCHES:          0 PREFETCH ISSUED TO LOWER LEVEL:          0  ACCURACY: -nan
L1I TIMELY PREFETCHES:          0 LATE PREFETCHES: 0 DROPPED PREFETCHES: 0
L1I COMMIT LATE PREFETCHES: 0 MISSED OPPORTUNITY: 0 LATE IN PQ: 0 UNCOVERED: 0
L1I COMMIT LATE MSHR PREFETCHES: 0
L1I MPKI TOTAL: 0 MSHR LATE: 0 PQ LATE: 0 COMMIT LATE: 0 MISSED OPPORTUNITY: 0 UNCOVERED: 0
L1I PREFETCHES SAME FILL-ORIGIN LEVEL: 0 DIFFERENT FILL-ORIGIN LEVEL: 0
L1I AVERAGE MISS LATENCY: -nan cycles
L1I AVERAGE MISS LATENCY LOAD: -nan cycles
L1I AVERAGE MISS LATENCY PREFETCH: -nan cycles
L1I AVERAGE MSHR OCCUPANCY: 0
L1I MSHR FULL: 0
L1I RQ	ACCESS:   55962552	FORWARD:          0	MERGED:   13786325	TO_CACHE:   42176227

BTB SPEC fills:          0  NON-SPEC fills:          0
BTB Test counter :          0
BTB Leapfrog:          0
BTB MSHR merge:          0
BTB TOTAL     ACCESS:   19468364  HIT:   19468330  MISS:         34  HIT %:    99.9998  MISS %: 0.000174642   MPKI: 0.00017
BTB BRANCH_DIRECT_JUMP	ACCESS:     976614  HIT:     976608  MISS:          6
BTB BRANCH_INDIRECT	ACCESS:          0  HIT:          0  MISS:          0
BTB BRANCH_CONDITIONAL	ACCESS:   18491562  HIT:   18491538  MISS:         24
BTB BRANCH_DIRECT_CALL	ACCESS:         94  HIT:         92  MISS:          2
BTB BRANCH_INDIRECT_CALL	ACCESS:          0  HIT:          0  MISS:          0
BTB BRANCH_RETURN	ACCESS:         94  HIT:         92  MISS:          2
BTB BRANCH_OTHER ACCESS:          0  HIT:          0  MISS:          0

L2C SPEC fills:          0  NON-SPEC fills:     293021
L2C Test counter :    4034838
L2C Leapfrog:          0
L2C MSHR merge:     249488
L2C TOTAL     ACCESS:   20791840  HIT:   13234044  MISS:    7557796  HIT %:    63.6502  MISS %:    36.3498   MPKI: 37.789
L2C LOAD      TOTAL       ACCESS:    2170803  HIT:     956459  MISS:    1214344  HIT %:    44.0601  MISS %:    55.9399   MPKI: 6.07172
L2C LOAD      NON_SPEC    ACCESS:     489834  HIT:     196813  MISS:     293021  HIT %:    40.1795  MISS %:    59.8205   MPKI: 1.4651
L2C LOAD      SPEC        ACCESS:    1680969  HIT:     759646  MISS:     921323  HIT %:     45.191  MISS %:     54.809   MPKI: 4.60661
L2C RFO       NON_SPEC    ACCESS:     276034  HIT:      23887  MISS:     252147  HIT %:    8.65364  MISS %:    91.3464   MPKI: 1.26073
L2C PREFETCH  NON_SPEC    ACCESS:   11691868  HIT:    6401853  MISS:    5290015  HIT %:    54.7547  MISS %:    45.2453   MPKI: 26.4501
L2C WRITEBACK NON_SPEC    ACCESS:     501399  HIT:     501001  MISS:        398  HIT %:    99.9206  MISS %:  0.0793779   MPKI: 0.00199
L2C CLEAN_EVICTION NON_SPEC    ACCESS:    4130699  HIT:    3367368  MISS:     763331  HIT %:    81.5205  MISS %:    18.4795   MPKI: 3.81665
L2C COMMIT LOAD NON_SPEC    ACCESS:      57628  HIT:      43541  MISS:      14087  HIT %:    75.5553  MISS %:    24.4447   MPKI: 0.070435
L2C LOAD TRANSLATION NON_SPEC    ACCESS:     229613  HIT:     222683  MISS:       6930  HIT %:    96.9819  MISS %:    3.01812   MPKI: 0.03465
L2C TRANSLATION FROM L1D PREFETCHER NON_SPEC    ACCESS:    1733796  HIT:    1717252  MISS:      16544  HIT %:    99.0458  MISS %:   0.954207   MPKI: 0.08272
L2C PREFETCH  REQUESTED:          0  ISSUED:          0  USEFUL:     856310  USELESS:    4451509
L2C USEFUL LOAD PREFETCHES:     856310 PREFETCH ISSUED TO LOWER LEVEL:    5547963  ACCURACY: 15.4347
L2C TIMELY PREFETCHES:     856310 LATE PREFETCHES: 257948 DROPPED PREFETCHES: 0
L2C COMMIT LATE PREFETCHES: 0 MISSED OPPORTUNITY: 0 LATE IN PQ: 0 UNCOVERED: 0
L2C COMMIT LATE MSHR PREFETCHES: 0
L2C MPKI TOTAL: 6.07172 MSHR LATE: 1.28974 PQ LATE: 0 COMMIT LATE: 0 MISSED OPPORTUNITY: 0 UNCOVERED: 0
L2C PREFETCHES SAME FILL-ORIGIN LEVEL: 3425364 DIFFERENT FILL-ORIGIN LEVEL: 0
L2C AVERAGE MISS LATENCY: 377.117 cycles
L2C AVERAGE MISS LATENCY LOAD: 263.209 cycles
L2C AVERAGE MISS LATENCY PREFETCH: 448.05 cycles
L2C AVERAGE MSHR OCCUPANCY: 17.1116
L2C MSHR FULL: 0.40598
L2C RQ	ACCESS:    4467918	FORWARD:          0	MERGED:          0	TO_CACHE:    4467874
L2C WQ	ACCESS:    4632099	FORWARD:         44	MERGED:          1	TO_CACHE:    4632098
L2C PQ	ACCESS:   13040551	FORWARD:          0	MERGED:      13728	TO_CACHE:   13026823

L2C Instructions Evicting Data 0
L2C Translations Evicting Data 23417
L2C Data Evicting Data 5828916
L2C Instructions Evicting Instructions 0
L2C Translations Evicting Instructions 0
L2C Data Evicting Instructions 0
L2C Instructions Evicting Translations 0
L2C Translations Evicting Translations 57
L2C Data Evicting Translations 20354
L2C Dense regions hint from L2: 0
PSCL5 SPEC fills:          0  NON-SPEC fills:          0
PSCL5 Test counter :          0
PSCL5 Leapfrog:          0
PSCL5 MSHR merge:          0
PSCL5 TOTAL     ACCESS:          0  HIT:          0  MISS:          0  HIT %:       -nan  MISS %:       -nan   MPKI: 0
PSCL5 PREFETCH  REQUESTED:          0  ISSUED:          0  USEFUL:          0  USELESS:          0
PSCL5 USEFUL LOAD PREFETCHES:          0 PREFETCH ISSUED TO LOWER LEVEL:          0  ACCURACY: -nan
PSCL5 TIMELY PREFETCHES:          0 LATE PREFETCHES: 0 DROPPED PREFETCHES: 0
PSCL5 COMMIT LATE PREFETCHES: 0 MISSED OPPORTUNITY: 0 LATE IN PQ: 0 UNCOVERED: 0
PSCL5 COMMIT LATE MSHR PREFETCHES: 0
PSCL5 MPKI TOTAL: 0 MSHR LATE: 0 PQ LATE: 0 COMMIT LATE: 0 MISSED OPPORTUNITY: 0 UNCOVERED: 0
PSCL5 PREFETCHES SAME FILL-ORIGIN LEVEL: 0 DIFFERENT FILL-ORIGIN LEVEL: 0

PSCL4 SPEC fills:          0  NON-SPEC fills:          0
PSCL4 Test counter :          0
PSCL4 Leapfrog:          0
PSCL4 MSHR merge:          0
PSCL4 TOTAL     ACCESS:          0  HIT:          0  MISS:          0  HIT %:       -nan  MISS %:       -nan   MPKI: 0
PSCL4 PREFETCH  REQUESTED:          0  ISSUED:          0  USEFUL:          0  USELESS:          0
PSCL4 USEFUL LOAD PREFETCHES:          0 PREFETCH ISSUED TO LOWER LEVEL:          0  ACCURACY: -nan
PSCL4 TIMELY PREFETCHES:          0 LATE PREFETCHES: 0 DROPPED PREFETCHES: 0
PSCL4 COMMIT LATE PREFETCHES: 0 MISSED OPPORTUNITY: 0 LATE IN PQ: 0 UNCOVERED: 0
PSCL4 COMMIT LATE MSHR PREFETCHES: 0
PSCL4 MPKI TOTAL: 0 MSHR LATE: 0 PQ LATE: 0 COMMIT LATE: 0 MISSED OPPORTUNITY: 0 UNCOVERED: 0
PSCL4 PREFETCHES SAME FILL-ORIGIN LEVEL: 0 DIFFERENT FILL-ORIGIN LEVEL: 0

PSCL3 SPEC fills:          0  NON-SPEC fills:          0
PSCL3 Test counter :          0
PSCL3 Leapfrog:          0
PSCL3 MSHR merge:          0
PSCL3 TOTAL     ACCESS:          0  HIT:          0  MISS:          0  HIT %:       -nan  MISS %:       -nan   MPKI: 0
PSCL3 PREFETCH  REQUESTED:          0  ISSUED:          0  USEFUL:          0  USELESS:          0
PSCL3 USEFUL LOAD PREFETCHES:          0 PREFETCH ISSUED TO LOWER LEVEL:          0  ACCURACY: -nan
PSCL3 TIMELY PREFETCHES:          0 LATE PREFETCHES: 0 DROPPED PREFETCHES: 0
PSCL3 COMMIT LATE PREFETCHES: 0 MISSED OPPORTUNITY: 0 LATE IN PQ: 0 UNCOVERED: 0
PSCL3 COMMIT LATE MSHR PREFETCHES: 0
PSCL3 MPKI TOTAL: 0 MSHR LATE: 0 PQ LATE: 0 COMMIT LATE: 0 MISSED OPPORTUNITY: 0 UNCOVERED: 0
PSCL3 PREFETCHES SAME FILL-ORIGIN LEVEL: 0 DIFFERENT FILL-ORIGIN LEVEL: 0

PSCL2 SPEC fills:          0  NON-SPEC fills:          0
PSCL2 Test counter :          0
PSCL2 Leapfrog:          0
PSCL2 MSHR merge:          0
PSCL2 TOTAL     ACCESS:          0  HIT:          0  MISS:          0  HIT %:       -nan  MISS %:       -nan   MPKI: 0
PSCL2 PREFETCH  REQUESTED:          0  ISSUED:          0  USEFUL:          0  USELESS:          0
PSCL2 USEFUL LOAD PREFETCHES:          0 PREFETCH ISSUED TO LOWER LEVEL:          0  ACCURACY: -nan
PSCL2 TIMELY PREFETCHES:          0 LATE PREFETCHES: 0 DROPPED PREFETCHES: 0
PSCL2 COMMIT LATE PREFETCHES: 0 MISSED OPPORTUNITY: 0 LATE IN PQ: 0 UNCOVERED: 0
PSCL2 COMMIT LATE MSHR PREFETCHES: 0
PSCL2 MPKI TOTAL: 0 MSHR LATE: 0 PQ LATE: 0 COMMIT LATE: 0 MISSED OPPORTUNITY: 0 UNCOVERED: 0
PSCL2 PREFETCHES SAME FILL-ORIGIN LEVEL: 0 DIFFERENT FILL-ORIGIN LEVEL: 0

LLC SPEC fills:          0  NON-SPEC fills:     280646
LLC Test counter :    4030011
LLC Leapfrog:          0
LLC MSHR merge:          0
LLC TOTAL     ACCESS:   11325202  HIT:    4046479  MISS:    7278723  HIT %:    35.7299  MISS %:    64.2701   MPKI: 36.3936
LLC LOAD      TOTAL       ACCESS:     964856  HIT:      22991  MISS:     941865  HIT %:    2.38284  MISS %:    97.6172   MPKI: 4.70932
LLC LOAD      NON_SPEC    ACCESS:     283065  HIT:       2419  MISS:     280646  HIT %:   0.854574  MISS %:    99.1454   MPKI: 1.40323
LLC LOAD      SPEC        ACCESS:     681791  HIT:      20572  MISS:     661219  HIT %:    3.01735  MISS %:    96.9827   MPKI: 3.30609
LLC RFO       NON_SPEC    ACCESS:     247020  HIT:        222  MISS:     246798  HIT %:  0.0898713  MISS %:    99.9101   MPKI: 1.23399
LLC PREFETCH  NON_SPEC    ACCESS:    5547963  HIT:      83269  MISS:    5464694  HIT %:    1.50089  MISS %:    98.4991   MPKI: 27.3235
LLC WRITEBACK NON_SPEC    ACCESS:     496297  HIT:     495885  MISS:        412  HIT %:     99.917  MISS %:  0.0830148   MPKI: 0.00206
LLC CLEAN_EVICTION NON_SPEC    ACCESS:    4034838  HIT:    3436918  MISS:     597920  HIT %:    85.1811  MISS %:    14.8189   MPKI: 2.9896
LLC COMMIT LOAD NON_SPEC    ACCESS:      10754  HIT:       5520  MISS:       5234  HIT %:    51.3297  MISS %:    48.6703   MPKI: 0.02617
LLC LOAD TRANSLATION NON_SPEC    ACCESS:       6930  HIT:        637  MISS:       6293  HIT %:    9.19192  MISS %:    90.8081   MPKI: 0.031465
LLC TRANSLATION FROM L1D PREFETCHER NON_SPEC    ACCESS:      16544  HIT:       1037  MISS:      15507  HIT %:    6.26813  MISS %:    93.7319   MPKI: 0.077535
LLC PREFETCH  REQUESTED:          0  ISSUED:          0  USEFUL:      22692  USELESS:    5453874
LLC USEFUL LOAD PREFETCHES:      22692 PREFETCH ISSUED TO LOWER LEVEL:    5464694  ACCURACY: 0.415247
LLC TIMELY PREFETCHES:      22692 LATE PREFETCHES: 0 DROPPED PREFETCHES: 0
LLC COMMIT LATE PREFETCHES: 0 MISSED OPPORTUNITY: 0 LATE IN PQ: 0 UNCOVERED: 0
LLC COMMIT LATE MSHR PREFETCHES: 0
LLC MPKI TOTAL: 4.70932 MSHR LATE: 0 PQ LATE: 0 COMMIT LATE: 0 MISSED OPPORTUNITY: 0 UNCOVERED: 0
LLC PREFETCHES SAME FILL-ORIGIN LEVEL: 0 DIFFERENT FILL-ORIGIN LEVEL: 0
LLC AVERAGE MISS LATENCY: 372.141 cycles
LLC AVERAGE MISS LATENCY LOAD: 205.586 cycles
LLC AVERAGE MISS LATENCY PREFETCH: 432.8 cycles
LLC AVERAGE MSHR OCCUPANCY: 5.6866
LLC MSHR FULL: 0
LLC RQ	ACCESS:    1246104	FORWARD:          0	MERGED:          0	TO_CACHE:    1246104
LLC WQ	ACCESS:    4531135	FORWARD:          0	MERGED:          0	TO_CACHE:    4531135
LLC PQ	ACCESS:    5547963	FORWARD:          0	MERGED:          0	TO_CACHE:    5547963

LLC Dense regions hint to LLC: 0

RAW hits: 1390351
Loads Generated: 64167520
Loads sent to L1D: 62777169
Stores Generated: 57343183
Stores sent to L1D: 57343188
Major fault: 0 Minor fault: 60491
Allocated PAGES: 60491
Total Load insts: 78206639
Total Non-spec loads: 10778056
Percentage of speculative loads: 86.2185

LeapFrogging counter: 2904674
Commit hits: 26782119 miss: 26929082
Commit hit %: 49.8632 miss %: 50.1368
Commits not translated: 0
Loads retired: 2611287
Stores retired: 57343188
Cache fills: 2611287
L1D response latency: 196.782 cycles
Load retirement latency: 383.244 cycles
OOO test counter: 0
Discarded buffer inserts: 26782119 hits: 19012 hit %: 0.0709877
Filter prediction accuracy: -nan
ALL MISSES SIZE: 14252
LATENCY_FILL: 193.549 2603624
LATENCY_FILL_ROB: 361.362 2593897
test counter pref: 38495385
Max ROB Extended: 43

DRAM Statistics
 CHANNEL 0
 RQ ROW_BUFFER_HIT:    2633576  ROW_BUFFER_MISS:    4046810
 DBUS_CONGESTED:        810
 WQ ROW_BUFFER_HIT:     720630  ROW_BUFFER_MISS:    3805232  FULL:       2852

 AVG_CONGESTED_CYCLE: 4
 All warmup complete: 2
Channel 0 Bank busy for read cycles: 0
Channel 0 Bank busy for write cycles: 0
Channel 0
Rank 0
0banks busy for read cycles: 65297270
0banks busy for write cycles: 237869
1banks busy for read cycles: 96524884
1banks busy for write cycles: 32807921
2banks busy for read cycles: 36692882
2banks busy for write cycles: 24514784
3banks busy for read cycles: 18036359
3banks busy for write cycles: 18215197
4banks busy for read cycles: 14070084
4banks busy for write cycles: 13489835
5banks busy for read cycles: 13289511
5banks busy for write cycles: 9972244
6banks busy for read cycles: 13983884
6banks busy for write cycles: 7353486
7banks busy for read cycles: 17738056
7banks busy for write cycles: 9619474
8banks busy for read cycles: 28869430
8banks busy for write cycles: 58662374

CPU 0 Branch Prediction Accuracy: 99.1376% MPKI: 0.85602 Average ROB Occupancy at Mispredict: 189.124
Branch types
NOT_BRANCH: 180147862 90.0739%
BRANCH_DIRECT_JUMP: 976614 0.488307%
BRANCH_INDIRECT: 0 0%
BRANCH_CONDITIONAL: 18875250 9.43762%
BRANCH_DIRECT_CALL: 94 4.7e-05%
BRANCH_INDIRECT_CALL: 0 0%
BRANCH_RETURN: 94 4.7e-05%
BRANCH_OTHER: 0 0%

DRAM PAGES: 1048576
Allocated PAGES: 60491
