
*** ChampSim Multicore Out-of-Order Simulator ***

Warmup Instructions: 50000000
Simulation Instructions: 200000000
Number of CPUs: 1
LLC sets: 2048
LLC ways: 16
L0D sets: 16
L0D ways: 2
ROB size: 352
LQ size: 128
SQ size: 72
Secure Berti: ON
Berti: ON
Berti Fill: ON
On commit prefetching: OFF
Hit-based filter: OFF
Time-guarding: ON
Free-slotting: ON
Leap-frogging: ON
Train prefetcher on L0D bypass: OFF
No translation penalty for prefetchers: OFF
Prefetch to L0D only: OFF
Prefetch to L1D only: OFF
Clean evictions: ON
Commit loads: ON
Commit write: ON
Fill commit loads to L2C, LLC: ON
DRAM IO FREQUENCY: 6400
ROB SIZE: 352
Off-chip DRAM Size: 4096 MB Channels: 1 Width: 64-bit Data Rate: 6400 MT/s
CPU 0 runs /home/sumon/secure_berti/GhostMinion/../../traces/spec/605.mcf_s-1152B.champsimtrace.xz
.xz
BTB has LRU replacement policy
ITLB has LRU replacement policy
DTLB has LRU replacement policy
STLB has LRU replacement policy
L1I has LRU replacement policy
L0D has LRU replacement policy
Berti version on_commit
History Sets: 8
History Ways: 16
BERTI Size: 16
BERTI Stride Size: 16
L1D has LRU replacement policy
L2C has LRU replacement policy
LLC has LRU replacement policy
Heartbeat CPU 0 instructions: 10000001 cycles: 5592438 heartbeat IPC: 1.78813 cumulative IPC: 1.78813 (Simulation time: 0 hr 0 min 50 sec) 
Heartbeat CPU 0 instructions: 20000000 cycles: 11140693 heartbeat IPC: 1.80237 cumulative IPC: 1.79522 (Simulation time: 0 hr 2 min 0 sec) 
Heartbeat CPU 0 instructions: 30000000 cycles: 16707915 heartbeat IPC: 1.79623 cumulative IPC: 1.79556 (Simulation time: 0 hr 3 min 50 sec) 
Heartbeat CPU 0 instructions: 40000001 cycles: 22294002 heartbeat IPC: 1.79016 cumulative IPC: 1.7942 (Simulation time: 0 hr 5 min 40 sec) 
Heartbeat CPU 0 instructions: 50000001 cycles: 27867243 heartbeat IPC: 1.79429 cumulative IPC: 1.79422 (Simulation time: 0 hr 7 min 26 sec) 

Warmup complete CPU 0 instructions: 50000001 cycles: 27867243 (Simulation time: 0 hr 7 min 26 sec) 

Heartbeat CPU 0 instructions: 60000001 cycles: 61956740 heartbeat IPC: 0.293345 cumulative IPC: 0.293345 (Simulation time: 0 hr 9 min 24 sec) 
Heartbeat CPU 0 instructions: 70000000 cycles: 96378790 heartbeat IPC: 0.290511 cumulative IPC: 0.291922 (Simulation time: 0 hr 11 min 19 sec) 
Heartbeat CPU 0 instructions: 80000001 cycles: 130424958 heartbeat IPC: 0.293719 cumulative IPC: 0.292518 (Simulation time: 0 hr 13 min 12 sec) 
Heartbeat CPU 0 instructions: 90000003 cycles: 164717606 heartbeat IPC: 0.291608 cumulative IPC: 0.29229 (Simulation time: 0 hr 15 min 8 sec) 
Heartbeat CPU 0 instructions: 100000001 cycles: 199166961 heartbeat IPC: 0.290281 cumulative IPC: 0.291886 (Simulation time: 0 hr 17 min 5 sec) 
Heartbeat CPU 0 instructions: 110000000 cycles: 233681567 heartbeat IPC: 0.289732 cumulative IPC: 0.291525 (Simulation time: 0 hr 19 min 0 sec) 
Heartbeat CPU 0 instructions: 120000002 cycles: 268315460 heartbeat IPC: 0.288735 cumulative IPC: 0.291123 (Simulation time: 0 hr 20 min 57 sec) 
Heartbeat CPU 0 instructions: 130000002 cycles: 303575372 heartbeat IPC: 0.283608 cumulative IPC: 0.290162 (Simulation time: 0 hr 23 min 6 sec) 
Heartbeat CPU 0 instructions: 140000003 cycles: 339428975 heartbeat IPC: 0.278912 cumulative IPC: 0.288867 (Simulation time: 0 hr 25 min 11 sec) 
Heartbeat CPU 0 instructions: 150000001 cycles: 375664073 heartbeat IPC: 0.275975 cumulative IPC: 0.287524 (Simulation time: 0 hr 27 min 7 sec) 
Heartbeat CPU 0 instructions: 160000000 cycles: 412542473 heartbeat IPC: 0.271161 cumulative IPC: 0.285955 (Simulation time: 0 hr 29 min 2 sec) 
Heartbeat CPU 0 instructions: 170000001 cycles: 450723798 heartbeat IPC: 0.261908 cumulative IPC: 0.283784 (Simulation time: 0 hr 31 min 2 sec) 
Heartbeat CPU 0 instructions: 180000003 cycles: 489186672 heartbeat IPC: 0.259991 cumulative IPC: 0.2818 (Simulation time: 0 hr 33 min 13 sec) 
Heartbeat CPU 0 instructions: 190000002 cycles: 528136039 heartbeat IPC: 0.256744 cumulative IPC: 0.27985 (Simulation time: 0 hr 35 min 2 sec) 
Heartbeat CPU 0 instructions: 200000001 cycles: 567462998 heartbeat IPC: 0.254278 cumulative IPC: 0.277986 (Simulation time: 0 hr 36 min 40 sec) 
Heartbeat CPU 0 instructions: 210000002 cycles: 606345841 heartbeat IPC: 0.257183 cumulative IPC: 0.276588 (Simulation time: 0 hr 38 min 20 sec) 
Heartbeat CPU 0 instructions: 220000000 cycles: 644376608 heartbeat IPC: 0.262945 cumulative IPC: 0.275746 (Simulation time: 0 hr 39 min 25 sec) 
Heartbeat CPU 0 instructions: 230000002 cycles: 682257083 heartbeat IPC: 0.263988 cumulative IPC: 0.275065 (Simulation time: 0 hr 40 min 28 sec) 
Heartbeat CPU 0 instructions: 240000000 cycles: 723988642 heartbeat IPC: 0.239627 cumulative IPC: 0.272941 (Simulation time: 0 hr 41 min 30 sec) 
Heartbeat CPU 0 instructions: 250000001 cycles: 763012488 heartbeat IPC: 0.256254 cumulative IPC: 0.272055 (Simulation time: 0 hr 42 min 26 sec) 
Finished CPU 0 instructions: 200000000 cycles: 735145245 cumulative IPC: 0.272055 (Simulation time: 0 hr 42 min 26 sec) 
 Instruction ID: 250000117

ChampSim completed all CPUs

Region of Interest Statistics

CPU 0 cumulative IPC: 0.272055 instructions: 200000000 cycles: 735145245
ITLB SPEC fills:          0  NON-SPEC fills:          0
ITLB Test counter :          0
ITLB Leapfrog:          0
ITLB MSHR merge:          0
ITLB TOTAL     ACCESS:   34668018  HIT:   34668018  MISS:          0  HIT %:        100  MISS %:          0   MPKI: 0
ITLB LOAD TRANSLATION NON_SPEC    ACCESS:   34668018  HIT:   34668018  MISS:          0  HIT %:        100  MISS %:          0   MPKI: 0
ITLB PREFETCH  REQUESTED:          0  ISSUED:          0  USEFUL:          0  USELESS:          0
ITLB USEFUL LOAD PREFETCHES:          0 PREFETCH ISSUED TO LOWER LEVEL:          0  ACCURACY: -nan
ITLB TIMELY PREFETCHES:          0 LATE PREFETCHES: 0 DROPPED PREFETCHES: 0
ITLB COMMIT LATE PREFETCHES: 0 MISSED OPPORTUNITY: 0 LATE IN PQ: 0 UNCOVERED: 0
ITLB COMMIT LATE MSHR PREFETCHES: 0
ITLB MPKI TOTAL: 0 MSHR LATE: 0 PQ LATE: 0 COMMIT LATE: 0 MISSED OPPORTUNITY: 0 UNCOVERED: 0
ITLB PREFETCHES SAME FILL-ORIGIN LEVEL: 0 DIFFERENT FILL-ORIGIN LEVEL: 0
ITLB AVERAGE MISS LATENCY: -nan cycles
ITLB AVERAGE MISS LATENCY LOAD: -nan cycles
ITLB AVERAGE MISS LATENCY PREFETCH: -nan cycles
ITLB AVERAGE MSHR OCCUPANCY: 0
ITLB MSHR FULL: 0
ITLB RQ	ACCESS:   36130237	FORWARD:          0	MERGED:    1462220	TO_CACHE:   34668017

DTLB SPEC fills:          0  NON-SPEC fills:          0
DTLB Test counter :          0
DTLB Leapfrog:          0
DTLB MSHR merge:          0
DTLB TOTAL     ACCESS:   59679064  HIT:   52370367  MISS:    7308697  HIT %:    87.7533  MISS %:    12.2467   MPKI: 36.5435
DTLB LOAD TRANSLATION NON_SPEC    ACCESS:   59679064  HIT:   52370367  MISS:    7308697  HIT %:    87.7533  MISS %:    12.2467   MPKI: 36.5435
DTLB PREFETCH  REQUESTED:          0  ISSUED:          0  USEFUL:          0  USELESS:          0
DTLB USEFUL LOAD PREFETCHES:          0 PREFETCH ISSUED TO LOWER LEVEL:          0  ACCURACY: -nan
DTLB TIMELY PREFETCHES:          0 LATE PREFETCHES: 0 DROPPED PREFETCHES: 0
DTLB COMMIT LATE PREFETCHES: 0 MISSED OPPORTUNITY: 0 LATE IN PQ: 0 UNCOVERED: 0
DTLB COMMIT LATE MSHR PREFETCHES: 0
DTLB MPKI TOTAL: 0 MSHR LATE: 0 PQ LATE: 0 COMMIT LATE: 0 MISSED OPPORTUNITY: 0 UNCOVERED: 0
DTLB PREFETCHES SAME FILL-ORIGIN LEVEL: 0 DIFFERENT FILL-ORIGIN LEVEL: 0
DTLB AVERAGE MISS LATENCY: 11.5409 cycles
DTLB AVERAGE MISS LATENCY LOAD: -nan cycles
DTLB AVERAGE MISS LATENCY PREFETCH: -nan cycles
DTLB AVERAGE MSHR OCCUPANCY: 0.0916148
DTLB MSHR FULL: 0
DTLB RQ	ACCESS:   72819410	FORWARD:          0	MERGED:   12632482	TO_CACHE:   60186928

STLB SPEC fills:          0  NON-SPEC fills:          0
STLB Test counter :          0
STLB Leapfrog:          0
STLB MSHR merge:          0
STLB TOTAL     ACCESS:   13869459  HIT:   13768191  MISS:     101268  HIT %:    99.2698  MISS %:   0.730151   MPKI: 0.50634
STLB LOAD TRANSLATION NON_SPEC    ACCESS:    7308697  HIT:    7208437  MISS:     100260  HIT %:    98.6282  MISS %:    1.37179   MPKI: 0.5013
STLB TRANSLATION FROM L1D PREFETCHER NON_SPEC    ACCESS:    6560762  HIT:    6559754  MISS:       1008  HIT %:    99.9846  MISS %:  0.0153641   MPKI: 0.00504
STLB PREFETCH  REQUESTED:          0  ISSUED:          0  USEFUL:        537  USELESS:        470
STLB USEFUL LOAD PREFETCHES:        537 PREFETCH ISSUED TO LOWER LEVEL:          0  ACCURACY: inf
STLB TIMELY PREFETCHES:        537 LATE PREFETCHES: 37309 DROPPED PREFETCHES: 2174888
STLB COMMIT LATE PREFETCHES: 0 MISSED OPPORTUNITY: 0 LATE IN PQ: 0 UNCOVERED: 0
STLB COMMIT LATE MSHR PREFETCHES: 0
STLB MPKI TOTAL: 0 MSHR LATE: 0.186545 PQ LATE: 0 COMMIT LATE: 0 MISSED OPPORTUNITY: 0 UNCOVERED: 0
STLB PREFETCHES SAME FILL-ORIGIN LEVEL: 0 DIFFERENT FILL-ORIGIN LEVEL: 0
STLB AVERAGE MISS LATENCY: 176.23 cycles
STLB AVERAGE MISS LATENCY LOAD: -nan cycles
STLB AVERAGE MISS LATENCY PREFETCH: -nan cycles
STLB AVERAGE MSHR OCCUPANCY: 0.428297
STLB MSHR FULL: 1.08959e-06
STLB RQ	ACCESS:   54554423	FORWARD:          0	MERGED:   38034435	TO_CACHE:   16519988

STLB Hit, L1D data hit: 0
STLB Hit, L2C data hit: 0
STLB Hit, LLC data hit: 0
STLB Hit, LLC data miss: 0
STLB STLB hints to L2: 0
L0D SPEC fills:   34038450  NON-SPEC fills:          0
L0D TimeGuard Request with older TS:     485469 Restricted eviction:     279605 read:     227620
L0D Test counter :          0
L0D Leapfrog:          0
L0D MSHR merge:    1891557
L0D TOTAL     ACCESS:   53124919  HIT:    3571413  MISS:   49553506  HIT %:    6.72267  MISS %:    93.2773   MPKI: 247.768
L0D LOAD      TOTAL       ACCESS:   53124919  HIT:    3571413  MISS:   49553506  HIT %:    6.72267  MISS %:    93.2773   MPKI: 247.768
L0D LOAD      NON_SPEC    ACCESS:   15810255  HIT:     574801  MISS:   15235454  HIT %:    3.63562  MISS %:    96.3644   MPKI: 76.1773
L0D LOAD      SPEC        ACCESS:   37314664  HIT:    2996612  MISS:   34318052  HIT %:    8.03066  MISS %:    91.9693   MPKI: 171.59
L0D PREFETCH  REQUESTED:          0  ISSUED:          0  USEFUL:          0  USELESS:          0
L0D USEFUL LOAD PREFETCHES:          0 PREFETCH ISSUED TO LOWER LEVEL:          0  ACCURACY: -nan
L0D TIMELY PREFETCHES:          0 LATE PREFETCHES: 0 DROPPED PREFETCHES: 0
L0D COMMIT LATE PREFETCHES: 0 MISSED OPPORTUNITY: 0 LATE IN PQ: 0 UNCOVERED: 0
L0D COMMIT LATE MSHR PREFETCHES: 0
L0D MPKI TOTAL: 257.225 MSHR LATE: 0 PQ LATE: 0 COMMIT LATE: 0 MISSED OPPORTUNITY: 0 UNCOVERED: 0
L0D PREFETCHES SAME FILL-ORIGIN LEVEL: 0 DIFFERENT FILL-ORIGIN LEVEL: 0
L0D AVERAGE MISS LATENCY: 19.1959 cycles
L0D AVERAGE MISS LATENCY LOAD: 19.1959 cycles
L0D AVERAGE MISS LATENCY PREFETCH: -nan cycles
L0D AVERAGE MSHR OCCUPANCY: 1.36241
L0D MSHR FULL: 0.0506025
L0D RQ	ACCESS:   68382952	FORWARD:          0	MERGED:   13366475	TO_CACHE:   55016477
L0D WQ	ACCESS:   17802933	FORWARD:          0	MERGED:          0	TO_CACHE:   17802933

L1D SPEC fills:          0  NON-SPEC fills:    3195895
L1D Test counter :   10085746
L1D Leapfrog:          0
L1D MSHR merge:     381237
L1D TOTAL     ACCESS:  145444968  HIT:  124754594  MISS:   20690374  HIT %:    85.7744  MISS %:    14.2256   MPKI: 103.452
L1D LOAD      TOTAL       ACCESS:   49550626  HIT:   39716581  MISS:    9834045  HIT %:    80.1535  MISS %:    19.8465   MPKI: 49.1702
L1D LOAD      NON_SPEC    ACCESS:   15235151  HIT:   12039256  MISS:    3195895  HIT %:    79.0229  MISS %:    20.9771   MPKI: 15.9795
L1D LOAD      SPEC        ACCESS:   34315475  HIT:   27677325  MISS:    6638150  HIT %:    80.6555  MISS %:    19.3445   MPKI: 33.1908
L1D RFO       NON_SPEC    ACCESS:   15393926  HIT:   14784925  MISS:     609001  HIT %:    96.0439  MISS %:    3.95611   MPKI: 3.04501
L1D PREFETCH  NON_SPEC    ACCESS:   34394323  HIT:   30636842  MISS:    3757481  HIT %:    89.0753  MISS %:    10.9247   MPKI: 18.7874
L1D COMMIT LOAD NON_SPEC    ACCESS:   12373159  HIT:   12004899  MISS:     368260  HIT %:    97.0237  MISS %:    2.97628   MPKI: 1.8413
L1D COMMIT WRITE NON_SPEC    ACCESS:   33732934  HIT:   27611347  MISS:    6121587  HIT %:    81.8528  MISS %:    18.1472   MPKI: 30.6079
L1D PREFETCH  REQUESTED:   74134851  ISSUED:   54282150  USEFUL:    3699209  USELESS:      58275
L1D USEFUL LOAD PREFETCHES:    3699209 PREFETCH ISSUED TO LOWER LEVEL:    7569621  ACCURACY: 48.8691
L1D TIMELY PREFETCHES:    3699209 LATE PREFETCHES: 381577 DROPPED PREFETCHES: 7414012
L1D COMMIT LATE PREFETCHES: 0 MISSED OPPORTUNITY: 0 LATE IN PQ: 0 UNCOVERED: 0
L1D COMMIT LATE MSHR PREFETCHES: 0
L1D MPKI TOTAL: 49.1846 MSHR LATE: 1.90789 PQ LATE: 0 COMMIT LATE: 0 MISSED OPPORTUNITY: 0 UNCOVERED: 0
L1D PREFETCHES SAME FILL-ORIGIN LEVEL: 4139058 DIFFERENT FILL-ORIGIN LEVEL: 3430563
L1D AVERAGE MISS LATENCY: 68.3409 cycles
L1D AVERAGE MISS LATENCY LOAD: 69.8976 cycles
L1D AVERAGE MISS LATENCY PREFETCH: 183.785 cycles
L1D AVERAGE MSHR OCCUPANCY: 1.91079
L1D MSHR FULL: 0.0530534
L1D RQ	ACCESS:   68295908	FORWARD:          0	MERGED:    5893543	TO_CACHE:   61929900
L1D WQ	ACCESS:   51542161	FORWARD:     472465	MERGED:    1332368	TO_CACHE:   50209793
L1D PQ	ACCESS:   54282150	FORWARD:          0	MERGED:    7036424	TO_CACHE:   47245726

L1D UNIQUE REGIONS ACCESSED: 0
L1D REGIONS CONFLICTS: 0
L1D Cross Page Prefetch Requests: 11535955
L1D Same Page Prefetch Requests: 55290650
L1D ROI Sum of L1D PQ occupancy: 1738180036
L1D PREFETCHES PUSHED FROM L2C: 0
L1I SPEC fills:          0  NON-SPEC fills:          0
L1I Test counter :          0
L1I Leapfrog:          0
L1I MSHR merge:          0
L1I TOTAL     ACCESS:   36130238  HIT:   36130236  MISS:          2  HIT %:        100  MISS %: 5.53553e-06   MPKI: 1e-05
L1I LOAD      TOTAL       ACCESS:   36130238  HIT:   36130236  MISS:          2  HIT %:        100  MISS %: 5.53553e-06   MPKI: 1e-05
L1I LOAD      NON_SPEC    ACCESS:   36130238  HIT:   36130236  MISS:          2  HIT %:        100  MISS %: 5.53553e-06   MPKI: 1e-05
L1I PREFETCH  REQUESTED:          0  ISSUED:          0  USEFUL:          0  USELESS:          0
L1I USEFUL LOAD PREFETCHES:          0 PREFETCH ISSUED TO LOWER LEVEL:          0  ACCURACY: -nan
L1I TIMELY PREFETCHES:          0 LATE PREFETCHES: 0 DROPPED PREFETCHES: 0
L1I COMMIT LATE PREFETCHES: 0 MISSED OPPORTUNITY: 0 LATE IN PQ: 0 UNCOVERED: 0
L1I COMMIT LATE MSHR PREFETCHES: 0
L1I MPKI TOTAL: 1e-05 MSHR LATE: 0 PQ LATE: 0 COMMIT LATE: 0 MISSED OPPORTUNITY: 0 UNCOVERED: 0
L1I PREFETCHES SAME FILL-ORIGIN LEVEL: 0 DIFFERENT FILL-ORIGIN LEVEL: 0
L1I AVERAGE MISS LATENCY: 214 cycles
L1I AVERAGE MISS LATENCY LOAD: 214 cycles
L1I AVERAGE MISS LATENCY PREFETCH: -nan cycles
L1I AVERAGE MSHR OCCUPANCY: 2.76776e-08
L1I MSHR FULL: 0
L1I RQ	ACCESS:   55291006	FORWARD:          0	MERGED:   19160769	TO_CACHE:   36130237

BTB SPEC fills:          0  NON-SPEC fills:          0
BTB Test counter :          0
BTB Leapfrog:          0
BTB MSHR merge:          0
BTB TOTAL     ACCESS:   49743916  HIT:   48131262  MISS:    1612654  HIT %:    96.7581  MISS %:    3.24191   MPKI: 8.06327
BTB BRANCH_DIRECT_JUMP	ACCESS:    5836928  HIT:    5836891  MISS:         37
BTB BRANCH_INDIRECT	ACCESS:          0  HIT:          0  MISS:          0
BTB BRANCH_CONDITIONAL	ACCESS:   36112465  HIT:   36112386  MISS:         79
BTB BRANCH_DIRECT_CALL	ACCESS:    3647058  HIT:    3647040  MISS:         18
BTB BRANCH_INDIRECT_CALL	ACCESS:     250202  HIT:     250194  MISS:          8
BTB BRANCH_RETURN	ACCESS:    3897263  HIT:    2284751  MISS:    1612512
BTB BRANCH_OTHER ACCESS:          0  HIT:          0  MISS:          0

L2C SPEC fills:          0  NON-SPEC fills:    2298301
L2C Test counter :    8725506
L2C Leapfrog:          0
L2C MSHR merge:      32182
L2C TOTAL     ACCESS:   40115135  HIT:   23776440  MISS:   16338695  HIT %:    59.2705  MISS %:    40.7295   MPKI: 81.6935
L2C LOAD      TOTAL       ACCESS:    9455400  HIT:    2349193  MISS:    7106207  HIT %:     24.845  MISS %:     75.155   MPKI: 35.531
L2C LOAD      NON_SPEC    ACCESS:    3191679  HIT:     893376  MISS:    2298303  HIT %:    27.9908  MISS %:    72.0092   MPKI: 11.4915
L2C LOAD      SPEC        ACCESS:    6263721  HIT:    1455817  MISS:    4807904  HIT %:     23.242  MISS %:     76.758   MPKI: 24.0395
L2C RFO       NON_SPEC    ACCESS:     608996  HIT:     339131  MISS:     269865  HIT %:    55.6869  MISS %:    44.3131   MPKI: 1.34933
L2C PREFETCH  NON_SPEC    ACCESS:    7367305  HIT:    3180779  MISS:    4186526  HIT %:    43.1743  MISS %:    56.8257   MPKI: 20.9326
L2C WRITEBACK NON_SPEC    ACCESS:     669790  HIT:     669353  MISS:        437  HIT %:    99.9348  MISS %:  0.0652443   MPKI: 0.002185
L2C CLEAN_EVICTION NON_SPEC    ACCESS:   10085737  HIT:    5599819  MISS:    4485918  HIT %:    55.5222  MISS %:    44.4778   MPKI: 22.4296
L2C COMMIT LOAD NON_SPEC    ACCESS:     364898  HIT:     113853  MISS:     251045  HIT %:    31.2013  MISS %:    68.7987   MPKI: 1.25523
L2C LOAD TRANSLATION NON_SPEC    ACCESS:     500886  HIT:     471829  MISS:      29057  HIT %:    94.1989  MISS %:    5.80112   MPKI: 0.145285
L2C TRANSLATION FROM L1D PREFETCHER NON_SPEC    ACCESS:   11062123  HIT:   11052483  MISS:       9640  HIT %:    99.9129  MISS %:  0.0871442   MPKI: 0.0482
L2C PREFETCH  REQUESTED:          0  ISSUED:          0  USEFUL:     378619  USELESS:    3817874
L2C USEFUL LOAD PREFETCHES:     378619 PREFETCH ISSUED TO LOWER LEVEL:    4220020  ACCURACY: 8.97197
L2C TIMELY PREFETCHES:     378619 LATE PREFETCHES: 33494 DROPPED PREFETCHES: 0
L2C COMMIT LATE PREFETCHES: 0 MISSED OPPORTUNITY: 0 LATE IN PQ: 0 UNCOVERED: 0
L2C COMMIT LATE MSHR PREFETCHES: 0
L2C MPKI TOTAL: 35.531 MSHR LATE: 0.16747 PQ LATE: 0 COMMIT LATE: 0 MISSED OPPORTUNITY: 0 UNCOVERED: 0
L2C PREFETCHES SAME FILL-ORIGIN LEVEL: 1027035 DIFFERENT FILL-ORIGIN LEVEL: 0
L2C AVERAGE MISS LATENCY: 89.6818 cycles
L2C AVERAGE MISS LATENCY LOAD: 68.6931 cycles
L2C AVERAGE MISS LATENCY PREFETCH: 227.081 cycles
L2C AVERAGE MSHR OCCUPANCY: 3.23171
L2C MSHR FULL: 0.00271068
L2C RQ	ACCESS:   21992740	FORWARD:          0	MERGED:          0	TO_CACHE:   21992303
L2C WQ	ACCESS:   10755547	FORWARD:        440	MERGED:         20	TO_CACHE:   10755527
L2C PQ	ACCESS:    7568794	FORWARD:          0	MERGED:       1854	TO_CACHE:    7566937

L2C Instructions Evicting Data 2
L2C Translations Evicting Data 38598
L2C Data Evicting Data 6982016
L2C Instructions Evicting Instructions 0
L2C Translations Evicting Instructions 0
L2C Data Evicting Instructions 1
L2C Instructions Evicting Translations 0
L2C Translations Evicting Translations 99
L2C Data Evicting Translations 23720
L2C Dense regions hint from L2: 0
PSCL5 SPEC fills:          0  NON-SPEC fills:          0
PSCL5 Test counter :          0
PSCL5 Leapfrog:          0
PSCL5 MSHR merge:          0
PSCL5 TOTAL     ACCESS:          0  HIT:          0  MISS:          0  HIT %:       -nan  MISS %:       -nan   MPKI: 0
PSCL5 PREFETCH  REQUESTED:          0  ISSUED:          0  USEFUL:          0  USELESS:          0
PSCL5 USEFUL LOAD PREFETCHES:          0 PREFETCH ISSUED TO LOWER LEVEL:          0  ACCURACY: -nan
PSCL5 TIMELY PREFETCHES:          0 LATE PREFETCHES: 0 DROPPED PREFETCHES: 0
PSCL5 COMMIT LATE PREFETCHES: 0 MISSED OPPORTUNITY: 0 LATE IN PQ: 0 UNCOVERED: 0
PSCL5 COMMIT LATE MSHR PREFETCHES: 0
PSCL5 MPKI TOTAL: 0 MSHR LATE: 0 PQ LATE: 0 COMMIT LATE: 0 MISSED OPPORTUNITY: 0 UNCOVERED: 0
PSCL5 PREFETCHES SAME FILL-ORIGIN LEVEL: 0 DIFFERENT FILL-ORIGIN LEVEL: 0

PSCL4 SPEC fills:          0  NON-SPEC fills:          0
PSCL4 Test counter :          0
PSCL4 Leapfrog:          0
PSCL4 MSHR merge:          0
PSCL4 TOTAL     ACCESS:          0  HIT:          0  MISS:          0  HIT %:       -nan  MISS %:       -nan   MPKI: 0
PSCL4 PREFETCH  REQUESTED:          0  ISSUED:          0  USEFUL:          0  USELESS:          0
PSCL4 USEFUL LOAD PREFETCHES:          0 PREFETCH ISSUED TO LOWER LEVEL:          0  ACCURACY: -nan
PSCL4 TIMELY PREFETCHES:          0 LATE PREFETCHES: 0 DROPPED PREFETCHES: 0
PSCL4 COMMIT LATE PREFETCHES: 0 MISSED OPPORTUNITY: 0 LATE IN PQ: 0 UNCOVERED: 0
PSCL4 COMMIT LATE MSHR PREFETCHES: 0
PSCL4 MPKI TOTAL: 0 MSHR LATE: 0 PQ LATE: 0 COMMIT LATE: 0 MISSED OPPORTUNITY: 0 UNCOVERED: 0
PSCL4 PREFETCHES SAME FILL-ORIGIN LEVEL: 0 DIFFERENT FILL-ORIGIN LEVEL: 0

PSCL3 SPEC fills:          0  NON-SPEC fills:          0
PSCL3 Test counter :          0
PSCL3 Leapfrog:          0
PSCL3 MSHR merge:          0
PSCL3 TOTAL     ACCESS:          0  HIT:          0  MISS:          0  HIT %:       -nan  MISS %:       -nan   MPKI: 0
PSCL3 PREFETCH  REQUESTED:          0  ISSUED:          0  USEFUL:          0  USELESS:          0
PSCL3 USEFUL LOAD PREFETCHES:          0 PREFETCH ISSUED TO LOWER LEVEL:          0  ACCURACY: -nan
PSCL3 TIMELY PREFETCHES:          0 LATE PREFETCHES: 0 DROPPED PREFETCHES: 0
PSCL3 COMMIT LATE PREFETCHES: 0 MISSED OPPORTUNITY: 0 LATE IN PQ: 0 UNCOVERED: 0
PSCL3 COMMIT LATE MSHR PREFETCHES: 0
PSCL3 MPKI TOTAL: 0 MSHR LATE: 0 PQ LATE: 0 COMMIT LATE: 0 MISSED OPPORTUNITY: 0 UNCOVERED: 0
PSCL3 PREFETCHES SAME FILL-ORIGIN LEVEL: 0 DIFFERENT FILL-ORIGIN LEVEL: 0

PSCL2 SPEC fills:          0  NON-SPEC fills:          0
PSCL2 Test counter :          0
PSCL2 Leapfrog:          0
PSCL2 MSHR merge:          0
PSCL2 TOTAL     ACCESS:          0  HIT:          0  MISS:          0  HIT %:       -nan  MISS %:       -nan   MPKI: 0
PSCL2 PREFETCH  REQUESTED:          0  ISSUED:          0  USEFUL:          0  USELESS:          0
PSCL2 USEFUL LOAD PREFETCHES:          0 PREFETCH ISSUED TO LOWER LEVEL:          0  ACCURACY: -nan
PSCL2 TIMELY PREFETCHES:          0 LATE PREFETCHES: 0 DROPPED PREFETCHES: 0
PSCL2 COMMIT LATE PREFETCHES: 0 MISSED OPPORTUNITY: 0 LATE IN PQ: 0 UNCOVERED: 0
PSCL2 COMMIT LATE MSHR PREFETCHES: 0
PSCL2 MPKI TOTAL: 0 MSHR LATE: 0 PQ LATE: 0 COMMIT LATE: 0 MISSED OPPORTUNITY: 0 UNCOVERED: 0
PSCL2 PREFETCHES SAME FILL-ORIGIN LEVEL: 0 DIFFERENT FILL-ORIGIN LEVEL: 0

LLC SPEC fills:          0  NON-SPEC fills:     385540
LLC Test counter :    5108125
LLC Leapfrog:          0
LLC MSHR merge:          0
LLC TOTAL     ACCESS:   20886785  HIT:   13979620  MISS:    6907165  HIT %:    66.9305  MISS %:    33.0695   MPKI: 34.5358
LLC LOAD      TOTAL       ACCESS:    7073881  HIT:    5523575  MISS:    1550306  HIT %:    78.0841  MISS %:    21.9159   MPKI: 7.75153
LLC LOAD      NON_SPEC    ACCESS:    2297361  HIT:    1911819  MISS:     385542  HIT %:     83.218  MISS %:     16.782   MPKI: 1.92771
LLC LOAD      SPEC        ACCESS:    4776520  HIT:    3611756  MISS:    1164764  HIT %:    75.6148  MISS %:    24.3852   MPKI: 5.82382
LLC RFO       NON_SPEC    ACCESS:     269857  HIT:     263456  MISS:       6401  HIT %:     97.628  MISS %:      2.372   MPKI: 0.032005
LLC PREFETCH  NON_SPEC    ACCESS:    4220019  HIT:      67972  MISS:    4152047  HIT %:     1.6107  MISS %:    98.3893   MPKI: 20.7602
LLC WRITEBACK NON_SPEC    ACCESS:     309124  HIT:     302789  MISS:       6335  HIT %:    97.9507  MISS %:    2.04934   MPKI: 0.031675
LLC CLEAN_EVICTION NON_SPEC    ACCESS:    8725506  HIT:    7568023  MISS:    1157483  HIT %:    86.7345  MISS %:    13.2655   MPKI: 5.78742
LLC COMMIT LOAD NON_SPEC    ACCESS:     249701  HIT:     231483  MISS:      18218  HIT %:    92.7041  MISS %:    7.29593   MPKI: 0.09109
LLC LOAD TRANSLATION NON_SPEC    ACCESS:      29057  HIT:      21835  MISS:       7222  HIT %:    75.1454  MISS %:    24.8546   MPKI: 0.03611
LLC TRANSLATION FROM L1D PREFETCHER NON_SPEC    ACCESS:       9640  HIT:        487  MISS:       9153  HIT %:    5.05187  MISS %:    94.9481   MPKI: 0.045765
LLC PREFETCH  REQUESTED:          0  ISSUED:          0  USEFUL:     104352  USELESS:    4056411
LLC USEFUL LOAD PREFETCHES:     104352 PREFETCH ISSUED TO LOWER LEVEL:    4152047  ACCURACY: 2.51327
LLC TIMELY PREFETCHES:     104352 LATE PREFETCHES: 0 DROPPED PREFETCHES: 0
LLC COMMIT LATE PREFETCHES: 0 MISSED OPPORTUNITY: 0 LATE IN PQ: 0 UNCOVERED: 0
LLC COMMIT LATE MSHR PREFETCHES: 0
LLC MPKI TOTAL: 7.75153 MSHR LATE: 0 PQ LATE: 0 COMMIT LATE: 0 MISSED OPPORTUNITY: 0 UNCOVERED: 0
LLC PREFETCHES SAME FILL-ORIGIN LEVEL: 0 DIFFERENT FILL-ORIGIN LEVEL: 0
LLC AVERAGE MISS LATENCY: 166.843 cycles
LLC AVERAGE MISS LATENCY LOAD: 199.316 cycles
LLC AVERAGE MISS LATENCY PREFETCH: 200.881 cycles
LLC AVERAGE MSHR OCCUPANCY: 2.5534
LLC MSHR FULL: 0
LLC RQ	ACCESS:    7632320	FORWARD:          0	MERGED:          0	TO_CACHE:    7632136
LLC WQ	ACCESS:    9034630	FORWARD:        185	MERGED:          0	TO_CACHE:    9034630
LLC PQ	ACCESS:    4220020	FORWARD:          0	MERGED:          0	TO_CACHE:    4220019

LLC Dense regions hint to LLC: 0

RAW hits: 2270029
Loads Generated: 70652983
Loads sent to L1D: 68382952
Stores Generated: 17802933
Stores sent to L1D: 17802933
Major fault: 0 Minor fault: 80635
Allocated PAGES: 80635
Total Load insts: 84736000
Total Non-spec loads: 17458069
Percentage of speculative loads: 79.3971

LeapFrogging counter: 3089813
Commit hits: 33739228 miss: 18742402
Commit hit %: 64.2877 miss %: 35.7123
Commits not translated: 0
Loads retired: 9834045
Stores retired: 17802933
Cache fills: 9834045
L1D response latency: 69.8976 cycles
Load retirement latency: 186.345 cycles
OOO test counter: 0
Discarded buffer inserts: 33739228 hits: 41538 hit %: 0.123115
Filter prediction accuracy: -nan
ALL MISSES SIZE: 21827
LATENCY_FILL: 69.3337 9826051
LATENCY_FILL_ROB: 166.612 9808627
test counter pref: 123837582
Max ROB Extended: 56

DRAM Statistics
 CHANNEL 0
 RQ ROW_BUFFER_HIT:    2187754  ROW_BUFFER_MISS:    3554349
 DBUS_CONGESTED:       5380
 WQ ROW_BUFFER_HIT:    1550342  ROW_BUFFER_MISS:    3595381  FULL:      44024

 AVG_CONGESTED_CYCLE: 4
 All warmup complete: 2
Channel 0 Bank busy for read cycles: 0
Channel 0 Bank busy for write cycles: 0
Channel 0
Rank 0
0banks busy for read cycles: 336798825
0banks busy for write cycles: 168137
1banks busy for read cycles: 100011772
1banks busy for write cycles: 24520476
2banks busy for read cycles: 46914880
2banks busy for write cycles: 12018858
3banks busy for read cycles: 22116254
3banks busy for write cycles: 8630235
4banks busy for read cycles: 13678365
4banks busy for write cycles: 7356360
5banks busy for read cycles: 12709934
5banks busy for write cycles: 7352816
6banks busy for read cycles: 15825131
6banks busy for write cycles: 8518683
7banks busy for read cycles: 9947354
7banks busy for write cycles: 15730375
8banks busy for read cycles: 13703522
8banks busy for write cycles: 79143269

CPU 0 Branch Prediction Accuracy: 94.5902% MPKI: 13.9808 Average ROB Occupancy at Mispredict: 25.587
Branch types
NOT_BRANCH: 148312419 74.1562%
BRANCH_DIRECT_JUMP: 5836928 2.91846%
BRANCH_INDIRECT: 0 0%
BRANCH_CONDITIONAL: 38055866 19.0279%
BRANCH_DIRECT_CALL: 3647058 1.82353%
BRANCH_INDIRECT_CALL: 250202 0.125101%
BRANCH_RETURN: 3897263 1.94863%
BRANCH_OTHER: 0 0%

DRAM PAGES: 1048576
Allocated PAGES: 80635
