
*** ChampSim Multicore Out-of-Order Simulator ***

Warmup Instructions: 50000000
Simulation Instructions: 200000000
Number of CPUs: 1
LLC sets: 2048
LLC ways: 16
L0D sets: 16
L0D ways: 2
ROB size: 352
LQ size: 128
SQ size: 72
Secure Berti: ON
Berti: ON
Berti Fill: ON
On commit prefetching: OFF
Hit-based filter: OFF
Time-guarding: ON
Free-slotting: ON
Leap-frogging: ON
Train prefetcher on L0D bypass: OFF
No translation penalty for prefetchers: OFF
Prefetch to L0D only: OFF
Prefetch to L1D only: OFF
Clean evictions: ON
Commit loads: ON
Commit write: ON
Fill commit loads to L2C, LLC: ON
DRAM IO FREQUENCY: 6400
ROB SIZE: 352
Off-chip DRAM Size: 4096 MB Channels: 1 Width: 64-bit Data Rate: 6400 MT/s
CPU 0 runs /home/sumon/secure_berti/GhostMinion/../../traces/spec/654.roms_s-293B.champsimtrace.xz
.xz
BTB has LRU replacement policy
ITLB has LRU replacement policy
DTLB has LRU replacement policy
STLB has LRU replacement policy
L1I has LRU replacement policy
L0D has LRU replacement policy
Berti version on_commit
History Sets: 8
History Ways: 16
BERTI Size: 16
BERTI Stride Size: 16
L1D has LRU replacement policy
L2C has LRU replacement policy
LLC has LRU replacement policy
Heartbeat CPU 0 instructions: 10000001 cycles: 3396521 heartbeat IPC: 2.94419 cumulative IPC: 2.94419 (Simulation time: 0 hr 0 min 37 sec) 
Heartbeat CPU 0 instructions: 20000003 cycles: 6864473 heartbeat IPC: 2.88355 cumulative IPC: 2.91355 (Simulation time: 0 hr 1 min 13 sec) 
Heartbeat CPU 0 instructions: 30000000 cycles: 10261807 heartbeat IPC: 2.94348 cumulative IPC: 2.92346 (Simulation time: 0 hr 2 min 20 sec) 
Heartbeat CPU 0 instructions: 40000003 cycles: 13729578 heartbeat IPC: 2.8837 cumulative IPC: 2.91342 (Simulation time: 0 hr 3 min 45 sec) 
Heartbeat CPU 0 instructions: 50000003 cycles: 17126089 heartbeat IPC: 2.9442 cumulative IPC: 2.91952 (Simulation time: 0 hr 5 min 9 sec) 

Warmup complete CPU 0 instructions: 50000003 cycles: 17126089 (Simulation time: 0 hr 5 min 9 sec) 

Heartbeat CPU 0 instructions: 60000002 cycles: 26968491 heartbeat IPC: 1.01601 cumulative IPC: 1.01601 (Simulation time: 0 hr 6 min 55 sec) 
Heartbeat CPU 0 instructions: 70000003 cycles: 36492595 heartbeat IPC: 1.04997 cumulative IPC: 1.03271 (Simulation time: 0 hr 8 min 33 sec) 
Heartbeat CPU 0 instructions: 80000002 cycles: 46177267 heartbeat IPC: 1.03256 cumulative IPC: 1.03266 (Simulation time: 0 hr 10 min 16 sec) 
Heartbeat CPU 0 instructions: 90000002 cycles: 55869345 heartbeat IPC: 1.03177 cumulative IPC: 1.03244 (Simulation time: 0 hr 11 min 38 sec) 
Heartbeat CPU 0 instructions: 100000003 cycles: 65514391 heartbeat IPC: 1.0368 cumulative IPC: 1.03331 (Simulation time: 0 hr 13 min 1 sec) 
Heartbeat CPU 0 instructions: 110000000 cycles: 75244268 heartbeat IPC: 1.02776 cumulative IPC: 1.03238 (Simulation time: 0 hr 14 min 24 sec) 
Heartbeat CPU 0 instructions: 120000000 cycles: 84802080 heartbeat IPC: 1.04626 cumulative IPC: 1.03434 (Simulation time: 0 hr 15 min 45 sec) 
Heartbeat CPU 0 instructions: 130000000 cycles: 94818788 heartbeat IPC: 0.998332 cumulative IPC: 1.0297 (Simulation time: 0 hr 17 min 15 sec) 
Heartbeat CPU 0 instructions: 140000003 cycles: 104624066 heartbeat IPC: 1.01986 cumulative IPC: 1.0286 (Simulation time: 0 hr 18 min 50 sec) 
Heartbeat CPU 0 instructions: 150000000 cycles: 114415691 heartbeat IPC: 1.02128 cumulative IPC: 1.02786 (Simulation time: 0 hr 20 min 25 sec) 
Heartbeat CPU 0 instructions: 160000000 cycles: 124220709 heartbeat IPC: 1.01989 cumulative IPC: 1.02713 (Simulation time: 0 hr 22 min 1 sec) 
Heartbeat CPU 0 instructions: 170000003 cycles: 134018312 heartbeat IPC: 1.02066 cumulative IPC: 1.02659 (Simulation time: 0 hr 23 min 34 sec) 
Heartbeat CPU 0 instructions: 180000001 cycles: 143801654 heartbeat IPC: 1.02215 cumulative IPC: 1.02624 (Simulation time: 0 hr 25 min 5 sec) 
Heartbeat CPU 0 instructions: 190000003 cycles: 153585076 heartbeat IPC: 1.02214 cumulative IPC: 1.02595 (Simulation time: 0 hr 26 min 38 sec) 
Heartbeat CPU 0 instructions: 200000001 cycles: 163359623 heartbeat IPC: 1.02307 cumulative IPC: 1.02576 (Simulation time: 0 hr 28 min 10 sec) 
Heartbeat CPU 0 instructions: 210000001 cycles: 173140023 heartbeat IPC: 1.02245 cumulative IPC: 1.02555 (Simulation time: 0 hr 29 min 32 sec) 
Heartbeat CPU 0 instructions: 220000000 cycles: 182927444 heartbeat IPC: 1.02172 cumulative IPC: 1.02532 (Simulation time: 0 hr 30 min 47 sec) 
Heartbeat CPU 0 instructions: 230000000 cycles: 192706577 heartbeat IPC: 1.02259 cumulative IPC: 1.02517 (Simulation time: 0 hr 32 min 11 sec) 
Heartbeat CPU 0 instructions: 240000002 cycles: 202492729 heartbeat IPC: 1.02185 cumulative IPC: 1.025 (Simulation time: 0 hr 33 min 20 sec) 
Heartbeat CPU 0 instructions: 250000002 cycles: 212276365 heartbeat IPC: 1.02211 cumulative IPC: 1.02485 (Simulation time: 0 hr 34 min 43 sec) 
Finished CPU 0 instructions: 200000003 cycles: 195150277 cumulative IPC: 1.02485 (Simulation time: 0 hr 34 min 43 sec) 
 Instruction ID: 250000053

ChampSim completed all CPUs

Region of Interest Statistics

CPU 0 cumulative IPC: 1.02485 instructions: 200000003 cycles: 195150277
ITLB SPEC fills:          0  NON-SPEC fills:          0
ITLB Test counter :          0
ITLB Leapfrog:          0
ITLB MSHR merge:          0
ITLB TOTAL     ACCESS:   27333480  HIT:   27333464  MISS:         16  HIT %:    99.9999  MISS %: 5.85363e-05   MPKI: 8e-05
ITLB LOAD TRANSLATION NON_SPEC    ACCESS:   27333480  HIT:   27333464  MISS:         16  HIT %:    99.9999  MISS %: 5.85363e-05   MPKI: 8e-05
ITLB PREFETCH  REQUESTED:          0  ISSUED:          0  USEFUL:          0  USELESS:          0
ITLB USEFUL LOAD PREFETCHES:          0 PREFETCH ISSUED TO LOWER LEVEL:          0  ACCURACY: -nan
ITLB TIMELY PREFETCHES:          0 LATE PREFETCHES: 0 DROPPED PREFETCHES: 0
ITLB COMMIT LATE PREFETCHES: 0 MISSED OPPORTUNITY: 0 LATE IN PQ: 0 UNCOVERED: 0
ITLB COMMIT LATE MSHR PREFETCHES: 0
ITLB MPKI TOTAL: 0 MSHR LATE: 0 PQ LATE: 0 COMMIT LATE: 0 MISSED OPPORTUNITY: 0 UNCOVERED: 0
ITLB PREFETCHES SAME FILL-ORIGIN LEVEL: 0 DIFFERENT FILL-ORIGIN LEVEL: 0
ITLB AVERAGE MISS LATENCY: 307.375 cycles
ITLB AVERAGE MISS LATENCY LOAD: -nan cycles
ITLB AVERAGE MISS LATENCY PREFETCH: -nan cycles
ITLB AVERAGE MSHR OCCUPANCY: 1.09755e-07
ITLB MSHR FULL: 0
ITLB RQ	ACCESS:   34397300	FORWARD:          0	MERGED:    7063818	TO_CACHE:   27333482

DTLB SPEC fills:          0  NON-SPEC fills:          0
DTLB Test counter :          0
DTLB Leapfrog:          0
DTLB MSHR merge:          0
DTLB TOTAL     ACCESS:   59935809  HIT:   59856569  MISS:      79240  HIT %:    99.8678  MISS %:   0.132208   MPKI: 0.3962
DTLB LOAD TRANSLATION NON_SPEC    ACCESS:   59935809  HIT:   59856569  MISS:      79240  HIT %:    99.8678  MISS %:   0.132208   MPKI: 0.3962
DTLB PREFETCH  REQUESTED:          0  ISSUED:          0  USEFUL:          0  USELESS:          0
DTLB USEFUL LOAD PREFETCHES:          0 PREFETCH ISSUED TO LOWER LEVEL:          0  ACCURACY: -nan
DTLB TIMELY PREFETCHES:          0 LATE PREFETCHES: 0 DROPPED PREFETCHES: 0
DTLB COMMIT LATE PREFETCHES: 0 MISSED OPPORTUNITY: 0 LATE IN PQ: 0 UNCOVERED: 0
DTLB COMMIT LATE MSHR PREFETCHES: 0
DTLB MPKI TOTAL: 0 MSHR LATE: 0 PQ LATE: 0 COMMIT LATE: 0 MISSED OPPORTUNITY: 0 UNCOVERED: 0
DTLB PREFETCHES SAME FILL-ORIGIN LEVEL: 0 DIFFERENT FILL-ORIGIN LEVEL: 0
DTLB AVERAGE MISS LATENCY: 338.853 cycles
DTLB AVERAGE MISS LATENCY LOAD: -nan cycles
DTLB AVERAGE MISS LATENCY PREFETCH: -nan cycles
DTLB AVERAGE MSHR OCCUPANCY: 0.017756
DTLB MSHR FULL: 0
DTLB RQ	ACCESS:   67946772	FORWARD:          0	MERGED:    7964893	TO_CACHE:   59981879

STLB SPEC fills:          0  NON-SPEC fills:          0
STLB Test counter :          0
STLB Leapfrog:          0
STLB MSHR merge:          0
STLB TOTAL     ACCESS:   16252794  HIT:   16204953  MISS:      47841  HIT %:    99.7056  MISS %:   0.294356   MPKI: 0.239205
STLB LOAD TRANSLATION NON_SPEC    ACCESS:      79256  HIT:      31420  MISS:      47836  HIT %:    39.6437  MISS %:    60.3563   MPKI: 0.23918
STLB TRANSLATION FROM L1D PREFETCHER NON_SPEC    ACCESS:   16173538  HIT:   16173533  MISS:          5  HIT %:        100  MISS %: 3.09147e-05   MPKI: 2.5e-05
STLB PREFETCH  REQUESTED:          0  ISSUED:          0  USEFUL:          5  USELESS:          0
STLB USEFUL LOAD PREFETCHES:          5 PREFETCH ISSUED TO LOWER LEVEL:          0  ACCURACY: inf
STLB TIMELY PREFETCHES:          5 LATE PREFETCHES: 9797 DROPPED PREFETCHES: 350275
STLB COMMIT LATE PREFETCHES: 0 MISSED OPPORTUNITY: 0 LATE IN PQ: 0 UNCOVERED: 0
STLB COMMIT LATE MSHR PREFETCHES: 0
STLB MPKI TOTAL: 0 MSHR LATE: 0.048985 PQ LATE: 0 COMMIT LATE: 0 MISSED OPPORTUNITY: 0 UNCOVERED: 0
STLB PREFETCHES SAME FILL-ORIGIN LEVEL: 0 DIFFERENT FILL-ORIGIN LEVEL: 0
STLB AVERAGE MISS LATENCY: 547.441 cycles
STLB AVERAGE MISS LATENCY LOAD: -nan cycles
STLB AVERAGE MISS LATENCY PREFETCH: -nan cycles
STLB AVERAGE MSHR OCCUPANCY: 0.100111
STLB MSHR FULL: 0
STLB RQ	ACCESS:   63652604	FORWARD:          0	MERGED:   47021563	TO_CACHE:   16631041

STLB Hit, L1D data hit: 0
STLB Hit, L2C data hit: 0
STLB Hit, LLC data hit: 0
STLB Hit, LLC data miss: 0
STLB STLB hints to L2: 0
L0D SPEC fills:   32982009  NON-SPEC fills:          0
L0D TimeGuard Request with older TS:    1551465 Restricted eviction:    1414972 read:    2227693
L0D Test counter :          0
L0D Leapfrog:          0
L0D MSHR merge:    3988681
L0D TOTAL     ACCESS:   52549630  HIT:   10625953  MISS:   41923677  HIT %:    20.2208  MISS %:    79.7792   MPKI: 209.618
L0D LOAD      TOTAL       ACCESS:   52549630  HIT:   10625953  MISS:   41923677  HIT %:    20.2208  MISS %:    79.7792   MPKI: 209.618
L0D LOAD      NON_SPEC    ACCESS:    8842361  HIT:    1315664  MISS:    7526697  HIT %:    14.8791  MISS %:    85.1209   MPKI: 37.6335
L0D LOAD      SPEC        ACCESS:   43707269  HIT:    9310289  MISS:   34396980  HIT %:    21.3015  MISS %:    78.6985   MPKI: 171.985
L0D PREFETCH  REQUESTED:          0  ISSUED:          0  USEFUL:          0  USELESS:          0
L0D USEFUL LOAD PREFETCHES:          0 PREFETCH ISSUED TO LOWER LEVEL:          0  ACCURACY: -nan
L0D TIMELY PREFETCHES:          0 LATE PREFETCHES: 0 DROPPED PREFETCHES: 0
L0D COMMIT LATE PREFETCHES: 0 MISSED OPPORTUNITY: 0 LATE IN PQ: 0 UNCOVERED: 0
L0D COMMIT LATE MSHR PREFETCHES: 0
L0D MPKI TOTAL: 229.562 MSHR LATE: 0 PQ LATE: 0 COMMIT LATE: 0 MISSED OPPORTUNITY: 0 UNCOVERED: 0
L0D PREFETCHES SAME FILL-ORIGIN LEVEL: 0 DIFFERENT FILL-ORIGIN LEVEL: 0
L0D AVERAGE MISS LATENCY: 5.55349 cycles
L0D AVERAGE MISS LATENCY LOAD: 5.55349 cycles
L0D AVERAGE MISS LATENCY PREFETCH: -nan cycles
L0D AVERAGE MSHR OCCUPANCY: 1.27759
L0D MSHR FULL: 2.64772e-05
L0D RQ	ACCESS:   73244466	FORWARD:          0	MERGED:   16706155	TO_CACHE:   56538311
L0D WQ	ACCESS:   11408461	FORWARD:          0	MERGED:          0	TO_CACHE:   11408461

L1D SPEC fills:          0  NON-SPEC fills:       6924
L1D Test counter :    2091417
L1D Leapfrog:          0
L1D MSHR merge:      33869
L1D TOTAL     ACCESS:  136279064  HIT:  133509554  MISS:    2769510  HIT %:    97.9678  MISS %:    2.03223   MPKI: 13.8475
L1D LOAD      TOTAL       ACCESS:   41919846  HIT:   41747425  MISS:     172421  HIT %:    99.5887  MISS %:   0.411311   MPKI: 0.862105
L1D LOAD      NON_SPEC    ACCESS:    7526662  HIT:    7519738  MISS:       6924  HIT %:     99.908  MISS %:   0.091993   MPKI: 0.03462
L1D LOAD      SPEC        ACCESS:   34393184  HIT:   34227687  MISS:     165497  HIT %:    99.5188  MISS %:   0.481191   MPKI: 0.827485
L1D RFO       NON_SPEC    ACCESS:    9802989  HIT:    9399684  MISS:     403305  HIT %:    95.8859  MISS %:     4.1141   MPKI: 2.01652
L1D PREFETCH  NON_SPEC    ACCESS:   38860829  HIT:   36823196  MISS:    2037633  HIT %:    94.7566  MISS %:    5.24341   MPKI: 10.1882
L1D COMMIT LOAD NON_SPEC    ACCESS:   13925444  HIT:   13918362  MISS:       7082  HIT %:    99.9491  MISS %:  0.0508565   MPKI: 0.03541
L1D COMMIT WRITE NON_SPEC    ACCESS:   31769956  HIT:   31620887  MISS:     149069  HIT %:    99.5308  MISS %:   0.469214   MPKI: 0.745345
L1D PREFETCH  REQUESTED:  118334639  ISSUED:   67724445  USEFUL:    1954738  USELESS:      82875
L1D USEFUL LOAD PREFETCHES:    1954738 PREFETCH ISSUED TO LOWER LEVEL:   25137639  ACCURACY: 7.77614
L1D TIMELY PREFETCHES:    1954738 LATE PREFETCHES: 30636 DROPPED PREFETCHES: 1063669
L1D COMMIT LATE PREFETCHES: 0 MISSED OPPORTUNITY: 0 LATE IN PQ: 0 UNCOVERED: 0
L1D COMMIT LATE MSHR PREFETCHES: 0
L1D MPKI TOTAL: 0.881255 MSHR LATE: 0.15318 PQ LATE: 0 COMMIT LATE: 0 MISSED OPPORTUNITY: 0 UNCOVERED: 0
L1D PREFETCHES SAME FILL-ORIGIN LEVEL: 2068271 DIFFERENT FILL-ORIGIN LEVEL: 23069368
L1D AVERAGE MISS LATENCY: 87.4182 cycles
L1D AVERAGE MISS LATENCY LOAD: 98.8808 cycles
L1D AVERAGE MISS LATENCY PREFETCH: 69.8205 cycles
L1D AVERAGE MSHR OCCUPANCY: 1.16135
L1D MSHR FULL: 0.000900647
L1D RQ	ACCESS:   74208929	FORWARD:          0	MERGED:   18293554	TO_CACHE:   55852031
L1D WQ	ACCESS:   43175882	FORWARD:      63344	MERGED:     903602	TO_CACHE:   42272280
L1D PQ	ACCESS:   67724445	FORWARD:          0	MERGED:    4151097	TO_CACHE:   63573348

L1D UNIQUE REGIONS ACCESSED: 0
L1D REGIONS CONFLICTS: 0
L1D Cross Page Prefetch Requests: 4139844
L1D Same Page Prefetch Requests: 73362389
L1D ROI Sum of L1D PQ occupancy: 1356784842
L1D PREFETCHES PUSHED FROM L2C: 0
L1I SPEC fills:          0  NON-SPEC fills:          0
L1I Test counter :          0
L1I Leapfrog:          0
L1I MSHR merge:         58
L1I TOTAL     ACCESS:   34397243  HIT:   34397070  MISS:        173  HIT %:    99.9995  MISS %: 0.000502947   MPKI: 0.000865
L1I LOAD      TOTAL       ACCESS:   34397243  HIT:   34397070  MISS:        173  HIT %:    99.9995  MISS %: 0.000502947   MPKI: 0.000865
L1I LOAD      NON_SPEC    ACCESS:   34397243  HIT:   34397070  MISS:        173  HIT %:    99.9995  MISS %: 0.000502947   MPKI: 0.000865
L1I PREFETCH  REQUESTED:          0  ISSUED:          0  USEFUL:          0  USELESS:          0
L1I USEFUL LOAD PREFETCHES:          0 PREFETCH ISSUED TO LOWER LEVEL:          0  ACCURACY: -nan
L1I TIMELY PREFETCHES:          0 LATE PREFETCHES: 0 DROPPED PREFETCHES: 0
L1I COMMIT LATE PREFETCHES: 0 MISSED OPPORTUNITY: 0 LATE IN PQ: 0 UNCOVERED: 0
L1I COMMIT LATE MSHR PREFETCHES: 0
L1I MPKI TOTAL: 0.001155 MSHR LATE: 0 PQ LATE: 0 COMMIT LATE: 0 MISSED OPPORTUNITY: 0 UNCOVERED: 0
L1I PREFETCHES SAME FILL-ORIGIN LEVEL: 0 DIFFERENT FILL-ORIGIN LEVEL: 0
L1I AVERAGE MISS LATENCY: 228.728 cycles
L1I AVERAGE MISS LATENCY LOAD: 228.728 cycles
L1I AVERAGE MISS LATENCY PREFETCH: -nan cycles
L1I AVERAGE MSHR OCCUPANCY: 4.62246e-06
L1I MSHR FULL: 0
L1I RQ	ACCESS:   50606477	FORWARD:          0	MERGED:   16209177	TO_CACHE:   34397300

BTB SPEC fills:          0  NON-SPEC fills:          0
BTB Test counter :          0
BTB Leapfrog:          0
BTB MSHR merge:          0
BTB TOTAL     ACCESS:    7097426  HIT:    7097294  MISS:        132  HIT %:    99.9981  MISS %: 0.00185983   MPKI: 0.00066
BTB BRANCH_DIRECT_JUMP	ACCESS:        147  HIT:        134  MISS:         13
BTB BRANCH_INDIRECT	ACCESS:          0  HIT:          0  MISS:          0
BTB BRANCH_CONDITIONAL	ACCESS:    7097021  HIT:    7096962  MISS:         59
BTB BRANCH_DIRECT_CALL	ACCESS:        129  HIT:         99  MISS:         30
BTB BRANCH_INDIRECT_CALL	ACCESS:          0  HIT:          0  MISS:          0
BTB BRANCH_RETURN	ACCESS:        129  HIT:         99  MISS:         30
BTB BRANCH_OTHER ACCESS:          0  HIT:          0  MISS:          0

L2C SPEC fills:          0  NON-SPEC fills:       1194
L2C Test counter :    1933852
L2C Leapfrog:          0
L2C MSHR merge:       1785
L2C TOTAL     ACCESS:   27920166  HIT:   25298771  MISS:    2621395  HIT %:    90.6111  MISS %:    9.38889   MPKI: 13.107
L2C LOAD      TOTAL       ACCESS:     142449  HIT:      71028  MISS:      71421  HIT %:    49.8621  MISS %:    50.1379   MPKI: 0.357105
L2C LOAD      NON_SPEC    ACCESS:       6718  HIT:       5351  MISS:       1367  HIT %:    79.6517  MISS %:    20.3483   MPKI: 0.006835
L2C LOAD      SPEC        ACCESS:     135731  HIT:      65677  MISS:      70054  HIT %:    48.3876  MISS %:    51.6124   MPKI: 0.35027
L2C RFO       NON_SPEC    ACCESS:     403304  HIT:       1545  MISS:     401759  HIT %:   0.383086  MISS %:    99.6169   MPKI: 2.00879
L2C PREFETCH  NON_SPEC    ACCESS:   22821341  HIT:   20796467  MISS:    2024874  HIT %:    91.1273  MISS %:    8.87272   MPKI: 10.1244
L2C WRITEBACK NON_SPEC    ACCESS:     416581  HIT:     405237  MISS:      11344  HIT %:    97.2769  MISS %:    2.72312   MPKI: 0.05672
L2C CLEAN_EVICTION NON_SPEC    ACCESS:    2091413  HIT:    2021240  MISS:      70173  HIT %:    96.6447  MISS %:    3.35529   MPKI: 0.350865
L2C COMMIT LOAD NON_SPEC    ACCESS:       6482  HIT:       4854  MISS:       1628  HIT %:    74.8843  MISS %:    25.1157   MPKI: 0.00814
L2C LOAD TRANSLATION NON_SPEC    ACCESS:     238910  HIT:     202255  MISS:      36655  HIT %:    84.6574  MISS %:    15.3426   MPKI: 0.183275
L2C TRANSLATION FROM L1D PREFETCHER NON_SPEC    ACCESS:    1799686  HIT:    1796145  MISS:       3541  HIT %:    99.8032  MISS %:   0.196757   MPKI: 0.017705
L2C PREFETCH  REQUESTED:          0  ISSUED:          0  USEFUL:      60649  USELESS:    1962413
L2C USEFUL LOAD PREFETCHES:      60649 PREFETCH ISSUED TO LOWER LEVEL:    2026733  ACCURACY: 2.99245
L2C TIMELY PREFETCHES:      60649 LATE PREFETCHES: 1858 DROPPED PREFETCHES: 0
L2C COMMIT LATE PREFETCHES: 0 MISSED OPPORTUNITY: 0 LATE IN PQ: 0 UNCOVERED: 0
L2C COMMIT LATE MSHR PREFETCHES: 0
L2C MPKI TOTAL: 0.357105 MSHR LATE: 0.00929 PQ LATE: 0 COMMIT LATE: 0 MISSED OPPORTUNITY: 0 UNCOVERED: 0
L2C PREFETCHES SAME FILL-ORIGIN LEVEL: 1442705 DIFFERENT FILL-ORIGIN LEVEL: 0
L2C AVERAGE MISS LATENCY: 170.685 cycles
L2C AVERAGE MISS LATENCY LOAD: 151.672 cycles
L2C AVERAGE MISS LATENCY PREFETCH: 175.292 cycles
L2C AVERAGE MSHR OCCUPANCY: 1.97635
L2C MSHR FULL: 7.71953e-07
L2C RQ	ACCESS:    2590939	FORWARD:          0	MERGED:          0	TO_CACHE:    2590830
L2C WQ	ACCESS:    2507998	FORWARD:        626	MERGED:          4	TO_CACHE:    2507994
L2C PQ	ACCESS:   25137639	FORWARD:          0	MERGED:        500	TO_CACHE:   25136622

L2C Instructions Evicting Data 173
L2C Translations Evicting Data 39510
L2C Data Evicting Data 2391423
L2C Instructions Evicting Instructions 0
L2C Translations Evicting Instructions 7
L2C Data Evicting Instructions 163
L2C Instructions Evicting Translations 0
L2C Translations Evicting Translations 679
L2C Data Evicting Translations 37869
L2C Dense regions hint from L2: 0
PSCL5 SPEC fills:          0  NON-SPEC fills:          0
PSCL5 Test counter :          0
PSCL5 Leapfrog:          0
PSCL5 MSHR merge:          0
PSCL5 TOTAL     ACCESS:          0  HIT:          0  MISS:          0  HIT %:       -nan  MISS %:       -nan   MPKI: 0
PSCL5 PREFETCH  REQUESTED:          0  ISSUED:          0  USEFUL:          0  USELESS:          0
PSCL5 USEFUL LOAD PREFETCHES:          0 PREFETCH ISSUED TO LOWER LEVEL:          0  ACCURACY: -nan
PSCL5 TIMELY PREFETCHES:          0 LATE PREFETCHES: 0 DROPPED PREFETCHES: 0
PSCL5 COMMIT LATE PREFETCHES: 0 MISSED OPPORTUNITY: 0 LATE IN PQ: 0 UNCOVERED: 0
PSCL5 COMMIT LATE MSHR PREFETCHES: 0
PSCL5 MPKI TOTAL: 0 MSHR LATE: 0 PQ LATE: 0 COMMIT LATE: 0 MISSED OPPORTUNITY: 0 UNCOVERED: 0
PSCL5 PREFETCHES SAME FILL-ORIGIN LEVEL: 0 DIFFERENT FILL-ORIGIN LEVEL: 0

PSCL4 SPEC fills:          0  NON-SPEC fills:          0
PSCL4 Test counter :          0
PSCL4 Leapfrog:          0
PSCL4 MSHR merge:          0
PSCL4 TOTAL     ACCESS:          0  HIT:          0  MISS:          0  HIT %:       -nan  MISS %:       -nan   MPKI: 0
PSCL4 PREFETCH  REQUESTED:          0  ISSUED:          0  USEFUL:          0  USELESS:          0
PSCL4 USEFUL LOAD PREFETCHES:          0 PREFETCH ISSUED TO LOWER LEVEL:          0  ACCURACY: -nan
PSCL4 TIMELY PREFETCHES:          0 LATE PREFETCHES: 0 DROPPED PREFETCHES: 0
PSCL4 COMMIT LATE PREFETCHES: 0 MISSED OPPORTUNITY: 0 LATE IN PQ: 0 UNCOVERED: 0
PSCL4 COMMIT LATE MSHR PREFETCHES: 0
PSCL4 MPKI TOTAL: 0 MSHR LATE: 0 PQ LATE: 0 COMMIT LATE: 0 MISSED OPPORTUNITY: 0 UNCOVERED: 0
PSCL4 PREFETCHES SAME FILL-ORIGIN LEVEL: 0 DIFFERENT FILL-ORIGIN LEVEL: 0

PSCL3 SPEC fills:          0  NON-SPEC fills:          0
PSCL3 Test counter :          0
PSCL3 Leapfrog:          0
PSCL3 MSHR merge:          0
PSCL3 TOTAL     ACCESS:          0  HIT:          0  MISS:          0  HIT %:       -nan  MISS %:       -nan   MPKI: 0
PSCL3 PREFETCH  REQUESTED:          0  ISSUED:          0  USEFUL:          0  USELESS:          0
PSCL3 USEFUL LOAD PREFETCHES:          0 PREFETCH ISSUED TO LOWER LEVEL:          0  ACCURACY: -nan
PSCL3 TIMELY PREFETCHES:          0 LATE PREFETCHES: 0 DROPPED PREFETCHES: 0
PSCL3 COMMIT LATE PREFETCHES: 0 MISSED OPPORTUNITY: 0 LATE IN PQ: 0 UNCOVERED: 0
PSCL3 COMMIT LATE MSHR PREFETCHES: 0
PSCL3 MPKI TOTAL: 0 MSHR LATE: 0 PQ LATE: 0 COMMIT LATE: 0 MISSED OPPORTUNITY: 0 UNCOVERED: 0
PSCL3 PREFETCHES SAME FILL-ORIGIN LEVEL: 0 DIFFERENT FILL-ORIGIN LEVEL: 0

PSCL2 SPEC fills:          0  NON-SPEC fills:          0
PSCL2 Test counter :          0
PSCL2 Leapfrog:          0
PSCL2 MSHR merge:          0
PSCL2 TOTAL     ACCESS:          0  HIT:          0  MISS:          0  HIT %:       -nan  MISS %:       -nan   MPKI: 0
PSCL2 PREFETCH  REQUESTED:          0  ISSUED:          0  USEFUL:          0  USELESS:          0
PSCL2 USEFUL LOAD PREFETCHES:          0 PREFETCH ISSUED TO LOWER LEVEL:          0  ACCURACY: -nan
PSCL2 TIMELY PREFETCHES:          0 LATE PREFETCHES: 0 DROPPED PREFETCHES: 0
PSCL2 COMMIT LATE PREFETCHES: 0 MISSED OPPORTUNITY: 0 LATE IN PQ: 0 UNCOVERED: 0
PSCL2 COMMIT LATE MSHR PREFETCHES: 0
PSCL2 MPKI TOTAL: 0 MSHR LATE: 0 PQ LATE: 0 COMMIT LATE: 0 MISSED OPPORTUNITY: 0 UNCOVERED: 0
PSCL2 PREFETCHES SAME FILL-ORIGIN LEVEL: 0 DIFFERENT FILL-ORIGIN LEVEL: 0

LLC SPEC fills:          0  NON-SPEC fills:        838
LLC Test counter :    1491879
LLC Leapfrog:          0
LLC MSHR merge:          0
LLC TOTAL     ACCESS:    4884990  HIT:    2855381  MISS:    2029609  HIT %:    58.4521  MISS %:    41.5479   MPKI: 10.148
LLC LOAD      TOTAL       ACCESS:      69635  HIT:      12501  MISS:      57134  HIT %:    17.9522  MISS %:    82.0478   MPKI: 0.28567
LLC LOAD      NON_SPEC    ACCESS:       1346  HIT:        335  MISS:       1011  HIT %:    24.8886  MISS %:    75.1114   MPKI: 0.005055
LLC LOAD      SPEC        ACCESS:      68289  HIT:      12166  MISS:      56123  HIT %:    17.8155  MISS %:    82.1845   MPKI: 0.280615
LLC RFO       NON_SPEC    ACCESS:     401759  HIT:      99490  MISS:     302269  HIT %:    24.7636  MISS %:    75.2364   MPKI: 1.51134
LLC PREFETCH  NON_SPEC    ACCESS:    2026731  HIT:     434786  MISS:    1591945  HIT %:    21.4526  MISS %:    78.5474   MPKI: 7.95972
LLC WRITEBACK NON_SPEC    ACCESS:     411263  HIT:     405840  MISS:       5423  HIT %:    98.6814  MISS %:    1.31862   MPKI: 0.027115
LLC CLEAN_EVICTION NON_SPEC    ACCESS:    1933851  HIT:    1879416  MISS:      54435  HIT %:    97.1852  MISS %:    2.81485   MPKI: 0.272175
LLC COMMIT LOAD NON_SPEC    ACCESS:       1555  HIT:        640  MISS:        915  HIT %:    41.1576  MISS %:    58.8424   MPKI: 0.004575
LLC LOAD TRANSLATION NON_SPEC    ACCESS:      36655  HIT:      22591  MISS:      14064  HIT %:    61.6314  MISS %:    38.3686   MPKI: 0.07032
LLC TRANSLATION FROM L1D PREFETCHER NON_SPEC    ACCESS:       3541  HIT:        117  MISS:       3424  HIT %:    3.30415  MISS %:    96.6958   MPKI: 0.01712
LLC PREFETCH  REQUESTED:          0  ISSUED:          0  USEFUL:      42167  USELESS:    1530020
LLC USEFUL LOAD PREFETCHES:      42167 PREFETCH ISSUED TO LOWER LEVEL:    1591946  ACCURACY: 2.64877
LLC TIMELY PREFETCHES:      42167 LATE PREFETCHES: 0 DROPPED PREFETCHES: 0
LLC COMMIT LATE PREFETCHES: 0 MISSED OPPORTUNITY: 0 LATE IN PQ: 0 UNCOVERED: 0
LLC COMMIT LATE MSHR PREFETCHES: 0
LLC MPKI TOTAL: 0.28567 MSHR LATE: 0 PQ LATE: 0 COMMIT LATE: 0 MISSED OPPORTUNITY: 0 UNCOVERED: 0
LLC PREFETCHES SAME FILL-ORIGIN LEVEL: 0 DIFFERENT FILL-ORIGIN LEVEL: 0
LLC AVERAGE MISS LATENCY: 181.923 cycles
LLC AVERAGE MISS LATENCY LOAD: 153.834 cycles
LLC AVERAGE MISS LATENCY PREFETCH: 183.572 cycles
LLC AVERAGE MSHR OCCUPANCY: 2.08842
LLC MSHR FULL: 0
LLC RQ	ACCESS:     513145	FORWARD:          0	MERGED:          0	TO_CACHE:     513144
LLC WQ	ACCESS:    2345115	FORWARD:          2	MERGED:          0	TO_CACHE:    2345115
LLC PQ	ACCESS:    2026733	FORWARD:          0	MERGED:          0	TO_CACHE:    2026732

LLC Dense regions hint to LLC: 0

RAW hits: 450818
Loads Generated: 73695285
Loads sent to L1D: 73244466
Stores Generated: 11408451
Stores sent to L1D: 11408461
Major fault: 0 Minor fault: 53394
Allocated PAGES: 53394
Total Load insts: 89167913
Total Non-spec loads: 10365114
Percentage of speculative loads: 88.3757

LeapFrogging counter: 5024
Commit hits: 31771270 miss: 32285255
Commit hit %: 49.5988 miss %: 50.4012
Commits not translated: 0
Loads retired: 172421
Stores retired: 11408461
Cache fills: 172421
L1D response latency: 98.8808 cycles
Load retirement latency: 358.218 cycles
OOO test counter: 0
Discarded buffer inserts: 31771270 hits: 1590 hit %: 0.00500452
Filter prediction accuracy: -nan
ALL MISSES SIZE: 5339
LATENCY_FILL: 97.4279 176004
LATENCY_FILL_ROB: 181.847 175788
test counter pref: 1395513
Max ROB Extended: 18

DRAM Statistics
 CHANNEL 0
 RQ ROW_BUFFER_HIT:     362035  ROW_BUFFER_MISS:    1607447
 DBUS_CONGESTED:       4483
 WQ ROW_BUFFER_HIT:     509940  ROW_BUFFER_MISS:    1305172  FULL:        118

 AVG_CONGESTED_CYCLE: 5
 All warmup complete: 2
Channel 0 Bank busy for read cycles: 0
Channel 0 Bank busy for write cycles: 0
Channel 0
Rank 0
0banks busy for read cycles: 9814255
0banks busy for write cycles: 82601
1banks busy for read cycles: 49879764
1banks busy for write cycles: 8126179
2banks busy for read cycles: 32582501
2banks busy for write cycles: 8340815
3banks busy for read cycles: 17771260
3banks busy for write cycles: 4220939
4banks busy for read cycles: 6132113
4banks busy for write cycles: 3371178
5banks busy for read cycles: 2934238
5banks busy for write cycles: 2882598
6banks busy for read cycles: 2447870
6banks busy for write cycles: 3186073
7banks busy for read cycles: 3258589
7banks busy for write cycles: 6022319
8banks busy for read cycles: 2051968
8banks busy for write cycles: 32045018

CPU 0 Branch Prediction Accuracy: 99.9104% MPKI: 0.03179 Average ROB Occupancy at Mispredict: 55.466
Branch types
NOT_BRANCH: 192900793 96.4504%
BRANCH_DIRECT_JUMP: 147 7.35e-05%
BRANCH_INDIRECT: 0 0%
BRANCH_CONDITIONAL: 7098474 3.54924%
BRANCH_DIRECT_CALL: 129 6.45e-05%
BRANCH_INDIRECT_CALL: 0 0%
BRANCH_RETURN: 129 6.45e-05%
BRANCH_OTHER: 0 0%

DRAM PAGES: 1048576
Allocated PAGES: 53394
