
*** ChampSim Multicore Out-of-Order Simulator ***

Warmup Instructions: 50000000
Simulation Instructions: 200000000
Number of CPUs: 1
LLC sets: 2048
LLC ways: 16
L0D sets: 16
L0D ways: 2
ROB size: 352
LQ size: 128
SQ size: 72
Secure Berti: ON
Berti: ON
Berti Fill: ON
On commit prefetching: OFF
Hit-based filter: OFF
Time-guarding: ON
Free-slotting: ON
Leap-frogging: ON
Train prefetcher on L0D bypass: OFF
No translation penalty for prefetchers: OFF
Prefetch to L0D only: OFF
Prefetch to L1D only: OFF
Clean evictions: ON
Commit loads: ON
Commit write: ON
Fill commit loads to L2C, LLC: ON
DRAM IO FREQUENCY: 6400
ROB SIZE: 352
Off-chip DRAM Size: 4096 MB Channels: 1 Width: 64-bit Data Rate: 6400 MT/s
CPU 0 runs /home/sumon/secure_berti/GhostMinion/../../traces/spec/657.xz_s-2302B.champsimtrace.xz
.xz
BTB has LRU replacement policy
ITLB has LRU replacement policy
DTLB has LRU replacement policy
STLB has LRU replacement policy
L1I has LRU replacement policy
L0D has LRU replacement policy
Berti version on_commit
History Sets: 8
History Ways: 16
BERTI Size: 16
BERTI Stride Size: 16
L1D has LRU replacement policy
L2C has LRU replacement policy
LLC has LRU replacement policy
Heartbeat CPU 0 instructions: 10000001 cycles: 3126665 heartbeat IPC: 3.1983 cumulative IPC: 3.1983 (Simulation time: 0 hr 0 min 30 sec) 
Heartbeat CPU 0 instructions: 20000002 cycles: 6257055 heartbeat IPC: 3.19449 cumulative IPC: 3.19639 (Simulation time: 0 hr 1 min 0 sec) 
Heartbeat CPU 0 instructions: 30000000 cycles: 9504425 heartbeat IPC: 3.07941 cumulative IPC: 3.15642 (Simulation time: 0 hr 1 min 38 sec) 
Heartbeat CPU 0 instructions: 40000003 cycles: 12634318 heartbeat IPC: 3.195 cumulative IPC: 3.16598 (Simulation time: 0 hr 2 min 46 sec) 
Heartbeat CPU 0 instructions: 50000000 cycles: 15785211 heartbeat IPC: 3.1737 cumulative IPC: 3.16752 (Simulation time: 0 hr 3 min 57 sec) 

Warmup complete CPU 0 instructions: 50000004 cycles: 15785212 (Simulation time: 0 hr 3 min 57 sec) 

Heartbeat CPU 0 instructions: 60000002 cycles: 32642179 heartbeat IPC: 0.593227 cumulative IPC: 0.593226 (Simulation time: 0 hr 5 min 24 sec) 
Heartbeat CPU 0 instructions: 70000000 cycles: 48910295 heartbeat IPC: 0.614699 cumulative IPC: 0.603772 (Simulation time: 0 hr 6 min 53 sec) 
Heartbeat CPU 0 instructions: 80000003 cycles: 65565513 heartbeat IPC: 0.600413 cumulative IPC: 0.602648 (Simulation time: 0 hr 8 min 21 sec) 
Heartbeat CPU 0 instructions: 90000002 cycles: 82443884 heartbeat IPC: 0.592474 cumulative IPC: 0.600072 (Simulation time: 0 hr 9 min 46 sec) 
Heartbeat CPU 0 instructions: 100000001 cycles: 98715634 heartbeat IPC: 0.614562 cumulative IPC: 0.602915 (Simulation time: 0 hr 11 min 9 sec) 
Heartbeat CPU 0 instructions: 110000000 cycles: 115600555 heartbeat IPC: 0.592244 cumulative IPC: 0.60111 (Simulation time: 0 hr 12 min 20 sec) 
Heartbeat CPU 0 instructions: 120000003 cycles: 132639395 heartbeat IPC: 0.586895 cumulative IPC: 0.599037 (Simulation time: 0 hr 13 min 30 sec) 
Heartbeat CPU 0 instructions: 130000000 cycles: 149835314 heartbeat IPC: 0.581533 cumulative IPC: 0.596792 (Simulation time: 0 hr 14 min 40 sec) 
Heartbeat CPU 0 instructions: 140000003 cycles: 165801748 heartbeat IPC: 0.626314 cumulative IPC: 0.599934 (Simulation time: 0 hr 15 min 51 sec) 
Heartbeat CPU 0 instructions: 150000003 cycles: 183042326 heartbeat IPC: 0.580027 cumulative IPC: 0.597882 (Simulation time: 0 hr 17 min 2 sec) 
Heartbeat CPU 0 instructions: 160000003 cycles: 200176207 heartbeat IPC: 0.583639 cumulative IPC: 0.596558 (Simulation time: 0 hr 18 min 14 sec) 
Heartbeat CPU 0 instructions: 170000000 cycles: 215095277 heartbeat IPC: 0.670283 cumulative IPC: 0.602077 (Simulation time: 0 hr 19 min 26 sec) 
Heartbeat CPU 0 instructions: 180000001 cycles: 229131406 heartbeat IPC: 0.712447 cumulative IPC: 0.609338 (Simulation time: 0 hr 20 min 36 sec) 
Heartbeat CPU 0 instructions: 190000002 cycles: 243083039 heartbeat IPC: 0.716762 cumulative IPC: 0.615932 (Simulation time: 0 hr 21 min 46 sec) 
Heartbeat CPU 0 instructions: 200000002 cycles: 257048532 heartbeat IPC: 0.716051 cumulative IPC: 0.621727 (Simulation time: 0 hr 22 min 50 sec) 
Heartbeat CPU 0 instructions: 210000000 cycles: 270981779 heartbeat IPC: 0.717708 cumulative IPC: 0.626968 (Simulation time: 0 hr 23 min 55 sec) 
Heartbeat CPU 0 instructions: 220000000 cycles: 284928206 heartbeat IPC: 0.71703 cumulative IPC: 0.631634 (Simulation time: 0 hr 25 min 0 sec) 
Heartbeat CPU 0 instructions: 230000003 cycles: 299001653 heartbeat IPC: 0.710558 cumulative IPC: 0.635556 (Simulation time: 0 hr 26 min 6 sec) 
Heartbeat CPU 0 instructions: 240000001 cycles: 313121965 heartbeat IPC: 0.7082 cumulative IPC: 0.639006 (Simulation time: 0 hr 27 min 10 sec) 
Heartbeat CPU 0 instructions: 250000003 cycles: 327169835 heartbeat IPC: 0.711852 cumulative IPC: 0.642292 (Simulation time: 0 hr 28 min 12 sec) 
Finished CPU 0 instructions: 200000003 cycles: 311384624 cumulative IPC: 0.642292 (Simulation time: 0 hr 28 min 12 sec) 
 Instruction ID: 250000106

ChampSim completed all CPUs

Region of Interest Statistics

CPU 0 cumulative IPC: 0.642292 instructions: 200000003 cycles: 311384624
ITLB SPEC fills:          0  NON-SPEC fills:          0
ITLB Test counter :          0
ITLB Leapfrog:          0
ITLB MSHR merge:          0
ITLB TOTAL     ACCESS:   28831366  HIT:   28831366  MISS:          0  HIT %:        100  MISS %:          0   MPKI: 0
ITLB LOAD TRANSLATION NON_SPEC    ACCESS:   28831366  HIT:   28831366  MISS:          0  HIT %:        100  MISS %:          0   MPKI: 0
ITLB PREFETCH  REQUESTED:          0  ISSUED:          0  USEFUL:          0  USELESS:          0
ITLB USEFUL LOAD PREFETCHES:          0 PREFETCH ISSUED TO LOWER LEVEL:          0  ACCURACY: -nan
ITLB TIMELY PREFETCHES:          0 LATE PREFETCHES: 0 DROPPED PREFETCHES: 0
ITLB COMMIT LATE PREFETCHES: 0 MISSED OPPORTUNITY: 0 LATE IN PQ: 0 UNCOVERED: 0
ITLB COMMIT LATE MSHR PREFETCHES: 0
ITLB MPKI TOTAL: 0 MSHR LATE: 0 PQ LATE: 0 COMMIT LATE: 0 MISSED OPPORTUNITY: 0 UNCOVERED: 0
ITLB PREFETCHES SAME FILL-ORIGIN LEVEL: 0 DIFFERENT FILL-ORIGIN LEVEL: 0
ITLB AVERAGE MISS LATENCY: -nan cycles
ITLB AVERAGE MISS LATENCY LOAD: -nan cycles
ITLB AVERAGE MISS LATENCY PREFETCH: -nan cycles
ITLB AVERAGE MSHR OCCUPANCY: 0
ITLB MSHR FULL: 0
ITLB RQ	ACCESS:   34293060	FORWARD:          0	MERGED:    5461695	TO_CACHE:   28831365

DTLB SPEC fills:          0  NON-SPEC fills:          0
DTLB Test counter :          0
DTLB Leapfrog:          0
DTLB MSHR merge:          0
DTLB TOTAL     ACCESS:   45131187  HIT:   44211267  MISS:     919920  HIT %:    97.9617  MISS %:    2.03832   MPKI: 4.5996
DTLB LOAD TRANSLATION NON_SPEC    ACCESS:   45131187  HIT:   44211267  MISS:     919920  HIT %:    97.9617  MISS %:    2.03832   MPKI: 4.5996
DTLB PREFETCH  REQUESTED:          0  ISSUED:          0  USEFUL:          0  USELESS:          0
DTLB USEFUL LOAD PREFETCHES:          0 PREFETCH ISSUED TO LOWER LEVEL:          0  ACCURACY: -nan
DTLB TIMELY PREFETCHES:          0 LATE PREFETCHES: 0 DROPPED PREFETCHES: 0
DTLB COMMIT LATE PREFETCHES: 0 MISSED OPPORTUNITY: 0 LATE IN PQ: 0 UNCOVERED: 0
DTLB COMMIT LATE MSHR PREFETCHES: 0
DTLB MPKI TOTAL: 0 MSHR LATE: 0 PQ LATE: 0 COMMIT LATE: 0 MISSED OPPORTUNITY: 0 UNCOVERED: 0
DTLB PREFETCHES SAME FILL-ORIGIN LEVEL: 0 DIFFERENT FILL-ORIGIN LEVEL: 0
DTLB AVERAGE MISS LATENCY: 20.7203 cycles
DTLB AVERAGE MISS LATENCY LOAD: -nan cycles
DTLB AVERAGE MISS LATENCY PREFETCH: -nan cycles
DTLB AVERAGE MSHR OCCUPANCY: 0.0563468
DTLB MSHR FULL: 6.64625e-08
DTLB RQ	ACCESS:   55954262	FORWARD:          0	MERGED:   10816007	TO_CACHE:   45138255

STLB SPEC fills:          0  NON-SPEC fills:          0
STLB Test counter :          0
STLB Leapfrog:          0
STLB MSHR merge:          0
STLB TOTAL     ACCESS:    1368184  HIT:    1233836  MISS:     134348  HIT %:    90.1806  MISS %:    9.81944   MPKI: 0.67174
STLB LOAD TRANSLATION NON_SPEC    ACCESS:     919920  HIT:     785826  MISS:     134094  HIT %:    85.4233  MISS %:    14.5767   MPKI: 0.67047
STLB TRANSLATION FROM L1D PREFETCHER NON_SPEC    ACCESS:     448264  HIT:     448010  MISS:        254  HIT %:    99.9433  MISS %:   0.056663   MPKI: 0.00127
STLB PREFETCH  REQUESTED:          0  ISSUED:          0  USEFUL:        177  USELESS:         77
STLB USEFUL LOAD PREFETCHES:        177 PREFETCH ISSUED TO LOWER LEVEL:          0  ACCURACY: inf
STLB TIMELY PREFETCHES:        177 LATE PREFETCHES: 57 DROPPED PREFETCHES: 1009
STLB COMMIT LATE PREFETCHES: 0 MISSED OPPORTUNITY: 0 LATE IN PQ: 0 UNCOVERED: 0
STLB COMMIT LATE MSHR PREFETCHES: 0
STLB MPKI TOTAL: 0 MSHR LATE: 0.000285 PQ LATE: 0 COMMIT LATE: 0 MISSED OPPORTUNITY: 0 UNCOVERED: 0
STLB PREFETCHES SAME FILL-ORIGIN LEVEL: 0 DIFFERENT FILL-ORIGIN LEVEL: 0
STLB AVERAGE MISS LATENCY: 80.3248 cycles
STLB AVERAGE MISS LATENCY LOAD: -nan cycles
STLB AVERAGE MISS LATENCY PREFETCH: -nan cycles
STLB AVERAGE MSHR OCCUPANCY: 0.0606143
STLB MSHR FULL: 0
STLB RQ	ACCESS:    1996433	FORWARD:          0	MERGED:     626559	TO_CACHE:    1369874

STLB Hit, L1D data hit: 0
STLB Hit, L2C data hit: 0
STLB Hit, LLC data hit: 0
STLB Hit, LLC data miss: 0
STLB STLB hints to L2: 0
L0D SPEC fills:   23832706  NON-SPEC fills:          0
L0D TimeGuard Request with older TS:     116797 Restricted eviction:      83145 read:     275604
L0D Test counter :          0
L0D Leapfrog:          0
L0D MSHR merge:     815247
L0D TOTAL     ACCESS:   37941200  HIT:    5421786  MISS:   32519414  HIT %:      14.29  MISS %:      85.71   MPKI: 162.597
L0D LOAD      TOTAL       ACCESS:   37941200  HIT:    5421786  MISS:   32519414  HIT %:      14.29  MISS %:      85.71   MPKI: 162.597
L0D LOAD      NON_SPEC    ACCESS:    9069679  HIT:     466115  MISS:    8603564  HIT %:    5.13927  MISS %:    94.8607   MPKI: 43.0178
L0D LOAD      SPEC        ACCESS:   28871521  HIT:    4955671  MISS:   23915850  HIT %:    17.1646  MISS %:    82.8354   MPKI: 119.579
L0D PREFETCH  REQUESTED:          0  ISSUED:          0  USEFUL:          0  USELESS:          0
L0D USEFUL LOAD PREFETCHES:          0 PREFETCH ISSUED TO LOWER LEVEL:          0  ACCURACY: -nan
L0D TIMELY PREFETCHES:          0 LATE PREFETCHES: 0 DROPPED PREFETCHES: 0
L0D COMMIT LATE PREFETCHES: 0 MISSED OPPORTUNITY: 0 LATE IN PQ: 0 UNCOVERED: 0
L0D COMMIT LATE MSHR PREFETCHES: 0
L0D MPKI TOTAL: 166.673 MSHR LATE: 0 PQ LATE: 0 COMMIT LATE: 0 MISSED OPPORTUNITY: 0 UNCOVERED: 0
L0D PREFETCHES SAME FILL-ORIGIN LEVEL: 0 DIFFERENT FILL-ORIGIN LEVEL: 0
L0D AVERAGE MISS LATENCY: 6.72239 cycles
L0D AVERAGE MISS LATENCY LOAD: 6.72239 cycles
L0D AVERAGE MISS LATENCY PREFETCH: -nan cycles
L0D AVERAGE MSHR OCCUPANCY: 0.618102
L0D MSHR FULL: 1.59973e-06
L0D RQ	ACCESS:   45263489	FORWARD:          0	MERGED:    6507043	TO_CACHE:   38756446
L0D WQ	ACCESS:   17197816	FORWARD:          0	MERGED:          0	TO_CACHE:   17197816

L1D SPEC fills:          0  NON-SPEC fills:     127624
L1D Test counter :     898006
L1D Leapfrog:          0
L1D MSHR merge:        704
L1D TOTAL     ACCESS:   80968827  HIT:   78996089  MISS:    1972738  HIT %:    97.5636  MISS %:    2.43642   MPKI: 9.86369
L1D LOAD      TOTAL       ACCESS:   32518812  HIT:   31537579  MISS:     981233  HIT %:    96.9826  MISS %:    3.01743   MPKI: 4.90616
L1D LOAD      NON_SPEC    ACCESS:    8603284  HIT:    8475660  MISS:     127624  HIT %:    98.5166  MISS %:    1.48343   MPKI: 0.63812
L1D LOAD      SPEC        ACCESS:   23915528  HIT:   23061919  MISS:     853609  HIT %:    96.4307  MISS %:    3.56927   MPKI: 4.26804
L1D RFO       NON_SPEC    ACCESS:   15834919  HIT:   15701591  MISS:     133328  HIT %:     99.158  MISS %:   0.841987   MPKI: 0.66664
L1D PREFETCH  NON_SPEC    ACCESS:     696538  HIT:     686259  MISS:      10279  HIT %:    98.5243  MISS %:    1.47573   MPKI: 0.051395
L1D COMMIT LOAD NON_SPEC    ACCESS:    8188205  HIT:    8162077  MISS:      26128  HIT %:    99.6809  MISS %:   0.319093   MPKI: 0.13064
L1D COMMIT WRITE NON_SPEC    ACCESS:   23730353  HIT:   22908583  MISS:     821770  HIT %:    96.5371  MISS %:    3.46295   MPKI: 4.10885
L1D PREFETCH  REQUESTED:    1349811  ISSUED:    1346686  USEFUL:       6577  USELESS:       3702
L1D USEFUL LOAD PREFETCHES:       6577 PREFETCH ISSUED TO LOWER LEVEL:     381175  ACCURACY: 1.72545
L1D TIMELY PREFETCHES:       6577 LATE PREFETCHES: 102 DROPPED PREFETCHES: 3237
L1D COMMIT LATE PREFETCHES: 0 MISSED OPPORTUNITY: 0 LATE IN PQ: 0 UNCOVERED: 0
L1D COMMIT LATE MSHR PREFETCHES: 0
L1D MPKI TOTAL: 4.90917 MSHR LATE: 0.00051 PQ LATE: 0 COMMIT LATE: 0 MISSED OPPORTUNITY: 0 UNCOVERED: 0
L1D PREFETCHES SAME FILL-ORIGIN LEVEL: 10553 DIFFERENT FILL-ORIGIN LEVEL: 370622
L1D AVERAGE MISS LATENCY: 30.5547 cycles
L1D AVERAGE MISS LATENCY LOAD: 52.2204 cycles
L1D AVERAGE MISS LATENCY PREFETCH: 31.7298 cycles
L1D AVERAGE MSHR OCCUPANCY: 0.0681653
L1D MSHR FULL: 0
L1D RQ	ACCESS:   44799131	FORWARD:          0	MERGED:    3735125	TO_CACHE:   40708138
L1D WQ	ACCESS:   40935591	FORWARD:     355868	MERGED:    1320367	TO_CACHE:   39615224
L1D PQ	ACCESS:    1346686	FORWARD:          0	MERGED:     270173	TO_CACHE:    1076513

L1D UNIQUE REGIONS ACCESSED: 0
L1D REGIONS CONFLICTS: 0
L1D Cross Page Prefetch Requests: 153228
L1D Same Page Prefetch Requests: 1637507
L1D ROI Sum of L1D PQ occupancy: 17221154
L1D PREFETCHES PUSHED FROM L2C: 0
L1I SPEC fills:          0  NON-SPEC fills:          0
L1I Test counter :          0
L1I Leapfrog:          0
L1I MSHR merge:        194
L1I TOTAL     ACCESS:   34292866  HIT:   34292474  MISS:        392  HIT %:    99.9989  MISS %: 0.00114309   MPKI: 0.00196
L1I LOAD      TOTAL       ACCESS:   34292866  HIT:   34292474  MISS:        392  HIT %:    99.9989  MISS %: 0.00114309   MPKI: 0.00196
L1I LOAD      NON_SPEC    ACCESS:   34292866  HIT:   34292474  MISS:        392  HIT %:    99.9989  MISS %: 0.00114309   MPKI: 0.00196
L1I PREFETCH  REQUESTED:          0  ISSUED:          0  USEFUL:          0  USELESS:          0
L1I USEFUL LOAD PREFETCHES:          0 PREFETCH ISSUED TO LOWER LEVEL:          0  ACCURACY: -nan
L1I TIMELY PREFETCHES:          0 LATE PREFETCHES: 0 DROPPED PREFETCHES: 0
L1I COMMIT LATE PREFETCHES: 0 MISSED OPPORTUNITY: 0 LATE IN PQ: 0 UNCOVERED: 0
L1I COMMIT LATE MSHR PREFETCHES: 0
L1I MPKI TOTAL: 0.00293 MSHR LATE: 0 PQ LATE: 0 COMMIT LATE: 0 MISSED OPPORTUNITY: 0 UNCOVERED: 0
L1I PREFETCHES SAME FILL-ORIGIN LEVEL: 0 DIFFERENT FILL-ORIGIN LEVEL: 0
L1I AVERAGE MISS LATENCY: 85.0612 cycles
L1I AVERAGE MISS LATENCY LOAD: 85.0612 cycles
L1I AVERAGE MISS LATENCY PREFETCH: -nan cycles
L1I AVERAGE MSHR OCCUPANCY: 2.02082e-05
L1I MSHR FULL: 0
L1I RQ	ACCESS:   52175588	FORWARD:          0	MERGED:   17882528	TO_CACHE:   34293060

BTB SPEC fills:          0  NON-SPEC fills:          0
BTB Test counter :          0
BTB Leapfrog:          0
BTB MSHR merge:          0
BTB TOTAL     ACCESS:   23485692  HIT:   23238860  MISS:     246832  HIT %:     98.949  MISS %:    1.05099   MPKI: 1.23416
BTB BRANCH_DIRECT_JUMP	ACCESS:    2818425  HIT:    2818347  MISS:         78
BTB BRANCH_INDIRECT	ACCESS:     447403  HIT:     208958  MISS:     238445
BTB BRANCH_CONDITIONAL	ACCESS:   19634890  HIT:   19634641  MISS:        249
BTB BRANCH_DIRECT_CALL	ACCESS:     190457  HIT:     190438  MISS:         19
BTB BRANCH_INDIRECT_CALL	ACCESS:     102031  HIT:     102024  MISS:          7
BTB BRANCH_RETURN	ACCESS:     292486  HIT:     284452  MISS:       8034
BTB BRANCH_OTHER ACCESS:          0  HIT:          0  MISS:          0

L2C SPEC fills:          0  NON-SPEC fills:      38744
L2C Test counter :     441506
L2C Leapfrog:          0
L2C MSHR merge:         57
L2C TOTAL     ACCESS:    3213155  HIT:    2253926  MISS:     959229  HIT %:    70.1468  MISS %:    29.8532   MPKI: 4.79614
L2C LOAD      TOTAL       ACCESS:     981495  HIT:     533239  MISS:     448256  HIT %:    54.3293  MISS %:    45.6707   MPKI: 2.24128
L2C LOAD      NON_SPEC    ACCESS:     127922  HIT:      88790  MISS:      39132  HIT %:    69.4095  MISS %:    30.5905   MPKI: 0.19566
L2C LOAD      SPEC        ACCESS:     853573  HIT:     444449  MISS:     409124  HIT %:    52.0692  MISS %:    47.9308   MPKI: 2.04562
L2C RFO       NON_SPEC    ACCESS:     133106  HIT:      88387  MISS:      44719  HIT %:    66.4035  MISS %:    33.5965   MPKI: 0.223595
L2C PREFETCH  NON_SPEC    ACCESS:     339140  HIT:     312955  MISS:      26185  HIT %:     92.279  MISS %:      7.721   MPKI: 0.130925
L2C WRITEBACK NON_SPEC    ACCESS:     158233  HIT:     157473  MISS:        760  HIT %:    99.5197  MISS %:   0.480304   MPKI: 0.0038
L2C CLEAN_EVICTION NON_SPEC    ACCESS:     898005  HIT:     486590  MISS:     411415  HIT %:    54.1857  MISS %:    45.8143   MPKI: 2.05707
L2C COMMIT LOAD NON_SPEC    ACCESS:      26106  HIT:      21238  MISS:       4868  HIT %:    81.3529  MISS %:    18.6471   MPKI: 0.02434
L2C LOAD TRANSLATION NON_SPEC    ACCESS:     670470  HIT:     647603  MISS:      22867  HIT %:    96.5894  MISS %:    3.41059   MPKI: 0.114335
L2C TRANSLATION FROM L1D PREFETCHER NON_SPEC    ACCESS:       6600  HIT:       6441  MISS:        159  HIT %:    97.5909  MISS %:    2.40909   MPKI: 0.000795
L2C PREFETCH  REQUESTED:          0  ISSUED:          0  USEFUL:       4964  USELESS:      21084
L2C USEFUL LOAD PREFETCHES:       4964 PREFETCH ISSUED TO LOWER LEVEL:      26260  ACCURACY: 18.9033
L2C TIMELY PREFETCHES:       4964 LATE PREFETCHES: 75 DROPPED PREFETCHES: 0
L2C COMMIT LATE PREFETCHES: 0 MISSED OPPORTUNITY: 0 LATE IN PQ: 0 UNCOVERED: 0
L2C COMMIT LATE MSHR PREFETCHES: 0
L2C MPKI TOTAL: 2.24128 MSHR LATE: 0.000375 PQ LATE: 0 COMMIT LATE: 0 MISSED OPPORTUNITY: 0 UNCOVERED: 0
L2C PREFETCHES SAME FILL-ORIGIN LEVEL: 25162 DIFFERENT FILL-ORIGIN LEVEL: 0
L2C AVERAGE MISS LATENCY: 53.5065 cycles
L2C AVERAGE MISS LATENCY LOAD: 89.1012 cycles
L2C AVERAGE MISS LATENCY PREFETCH: 143.878 cycles
L2C AVERAGE MSHR OCCUPANCY: 0.246636
L2C MSHR FULL: 0
L2C RQ	ACCESS:    1817877	FORWARD:          0	MERGED:          0	TO_CACHE:    1817777
L2C WQ	ACCESS:    1056239	FORWARD:        100	MERGED:          1	TO_CACHE:    1056238
L2C PQ	ACCESS:     381153	FORWARD:          0	MERGED:        115	TO_CACHE:     381038

L2C Instructions Evicting Data 378
L2C Translations Evicting Data 22017
L2C Data Evicting Data 109449
L2C Instructions Evicting Instructions 0
L2C Translations Evicting Instructions 21
L2C Data Evicting Instructions 89
L2C Instructions Evicting Translations 10
L2C Translations Evicting Translations 988
L2C Data Evicting Translations 4978
L2C Dense regions hint from L2: 0
PSCL5 SPEC fills:          0  NON-SPEC fills:          0
PSCL5 Test counter :          0
PSCL5 Leapfrog:          0
PSCL5 MSHR merge:          0
PSCL5 TOTAL     ACCESS:          0  HIT:          0  MISS:          0  HIT %:       -nan  MISS %:       -nan   MPKI: 0
PSCL5 PREFETCH  REQUESTED:          0  ISSUED:          0  USEFUL:          0  USELESS:          0
PSCL5 USEFUL LOAD PREFETCHES:          0 PREFETCH ISSUED TO LOWER LEVEL:          0  ACCURACY: -nan
PSCL5 TIMELY PREFETCHES:          0 LATE PREFETCHES: 0 DROPPED PREFETCHES: 0
PSCL5 COMMIT LATE PREFETCHES: 0 MISSED OPPORTUNITY: 0 LATE IN PQ: 0 UNCOVERED: 0
PSCL5 COMMIT LATE MSHR PREFETCHES: 0
PSCL5 MPKI TOTAL: 0 MSHR LATE: 0 PQ LATE: 0 COMMIT LATE: 0 MISSED OPPORTUNITY: 0 UNCOVERED: 0
PSCL5 PREFETCHES SAME FILL-ORIGIN LEVEL: 0 DIFFERENT FILL-ORIGIN LEVEL: 0

PSCL4 SPEC fills:          0  NON-SPEC fills:          0
PSCL4 Test counter :          0
PSCL4 Leapfrog:          0
PSCL4 MSHR merge:          0
PSCL4 TOTAL     ACCESS:          0  HIT:          0  MISS:          0  HIT %:       -nan  MISS %:       -nan   MPKI: 0
PSCL4 PREFETCH  REQUESTED:          0  ISSUED:          0  USEFUL:          0  USELESS:          0
PSCL4 USEFUL LOAD PREFETCHES:          0 PREFETCH ISSUED TO LOWER LEVEL:          0  ACCURACY: -nan
PSCL4 TIMELY PREFETCHES:          0 LATE PREFETCHES: 0 DROPPED PREFETCHES: 0
PSCL4 COMMIT LATE PREFETCHES: 0 MISSED OPPORTUNITY: 0 LATE IN PQ: 0 UNCOVERED: 0
PSCL4 COMMIT LATE MSHR PREFETCHES: 0
PSCL4 MPKI TOTAL: 0 MSHR LATE: 0 PQ LATE: 0 COMMIT LATE: 0 MISSED OPPORTUNITY: 0 UNCOVERED: 0
PSCL4 PREFETCHES SAME FILL-ORIGIN LEVEL: 0 DIFFERENT FILL-ORIGIN LEVEL: 0

PSCL3 SPEC fills:          0  NON-SPEC fills:          0
PSCL3 Test counter :          0
PSCL3 Leapfrog:          0
PSCL3 MSHR merge:          0
PSCL3 TOTAL     ACCESS:          0  HIT:          0  MISS:          0  HIT %:       -nan  MISS %:       -nan   MPKI: 0
PSCL3 PREFETCH  REQUESTED:          0  ISSUED:          0  USEFUL:          0  USELESS:          0
PSCL3 USEFUL LOAD PREFETCHES:          0 PREFETCH ISSUED TO LOWER LEVEL:          0  ACCURACY: -nan
PSCL3 TIMELY PREFETCHES:          0 LATE PREFETCHES: 0 DROPPED PREFETCHES: 0
PSCL3 COMMIT LATE PREFETCHES: 0 MISSED OPPORTUNITY: 0 LATE IN PQ: 0 UNCOVERED: 0
PSCL3 COMMIT LATE MSHR PREFETCHES: 0
PSCL3 MPKI TOTAL: 0 MSHR LATE: 0 PQ LATE: 0 COMMIT LATE: 0 MISSED OPPORTUNITY: 0 UNCOVERED: 0
PSCL3 PREFETCHES SAME FILL-ORIGIN LEVEL: 0 DIFFERENT FILL-ORIGIN LEVEL: 0

PSCL2 SPEC fills:          0  NON-SPEC fills:          0
PSCL2 Test counter :          0
PSCL2 Leapfrog:          0
PSCL2 MSHR merge:          0
PSCL2 TOTAL     ACCESS:          0  HIT:          0  MISS:          0  HIT %:       -nan  MISS %:       -nan   MPKI: 0
PSCL2 PREFETCH  REQUESTED:          0  ISSUED:          0  USEFUL:          0  USELESS:          0
PSCL2 USEFUL LOAD PREFETCHES:          0 PREFETCH ISSUED TO LOWER LEVEL:          0  ACCURACY: -nan
PSCL2 TIMELY PREFETCHES:          0 LATE PREFETCHES: 0 DROPPED PREFETCHES: 0
PSCL2 COMMIT LATE PREFETCHES: 0 MISSED OPPORTUNITY: 0 LATE IN PQ: 0 UNCOVERED: 0
PSCL2 COMMIT LATE MSHR PREFETCHES: 0
PSCL2 MPKI TOTAL: 0 MSHR LATE: 0 PQ LATE: 0 COMMIT LATE: 0 MISSED OPPORTUNITY: 0 UNCOVERED: 0
PSCL2 PREFETCHES SAME FILL-ORIGIN LEVEL: 0 DIFFERENT FILL-ORIGIN LEVEL: 0

LLC SPEC fills:          0  NON-SPEC fills:      14022
LLC Test counter :     216994
LLC Leapfrog:          0
LLC MSHR merge:          0
LLC TOTAL     ACCESS:    1040795  HIT:     598308  MISS:     442487  HIT %:    57.4857  MISS %:    42.5143   MPKI: 2.21243
LLC LOAD      TOTAL       ACCESS:     448198  HIT:     254104  MISS:     194094  HIT %:    56.6946  MISS %:    43.3054   MPKI: 0.97047
LLC LOAD      NON_SPEC    ACCESS:      39125  HIT:      25009  MISS:      14116  HIT %:    63.9208  MISS %:    36.0792   MPKI: 0.07058
LLC LOAD      SPEC        ACCESS:     409073  HIT:     229095  MISS:     179978  HIT %:    56.0035  MISS %:    43.9965   MPKI: 0.89989
LLC RFO       NON_SPEC    ACCESS:      44700  HIT:      16366  MISS:      28334  HIT %:     36.613  MISS %:     63.387   MPKI: 0.14167
LLC PREFETCH  NON_SPEC    ACCESS:      26260  HIT:       9848  MISS:      16412  HIT %:    37.5019  MISS %:    62.4981   MPKI: 0.08206
LLC WRITEBACK NON_SPEC    ACCESS:      52238  HIT:      51417  MISS:        821  HIT %:    98.4283  MISS %:    1.57165   MPKI: 0.004105
LLC CLEAN_EVICTION NON_SPEC    ACCESS:     441506  HIT:     242223  MISS:     199283  HIT %:    54.8629  MISS %:    45.1371   MPKI: 0.996415
LLC COMMIT LOAD NON_SPEC    ACCESS:       4867  HIT:       4795  MISS:         72  HIT %:    98.5206  MISS %:    1.47935   MPKI: 0.00036
LLC LOAD TRANSLATION NON_SPEC    ACCESS:      22867  HIT:      19421  MISS:       3446  HIT %:    84.9302  MISS %:    15.0698   MPKI: 0.01723
LLC TRANSLATION FROM L1D PREFETCHER NON_SPEC    ACCESS:        159  HIT:        134  MISS:         25  HIT %:    84.2767  MISS %:    15.7233   MPKI: 0.000125
LLC PREFETCH  REQUESTED:          0  ISSUED:          0  USEFUL:       3489  USELESS:      12460
LLC USEFUL LOAD PREFETCHES:       3489 PREFETCH ISSUED TO LOWER LEVEL:      16412  ACCURACY: 21.2588
LLC TIMELY PREFETCHES:       3489 LATE PREFETCHES: 0 DROPPED PREFETCHES: 0
LLC COMMIT LATE PREFETCHES: 0 MISSED OPPORTUNITY: 0 LATE IN PQ: 0 UNCOVERED: 0
LLC COMMIT LATE MSHR PREFETCHES: 0
LLC MPKI TOTAL: 0.97047 MSHR LATE: 0 PQ LATE: 0 COMMIT LATE: 0 MISSED OPPORTUNITY: 0 UNCOVERED: 0
LLC PREFETCHES SAME FILL-ORIGIN LEVEL: 0 DIFFERENT FILL-ORIGIN LEVEL: 0
LLC AVERAGE MISS LATENCY: 87.2103 cycles
LLC AVERAGE MISS LATENCY LOAD: 155.415 cycles
LLC AVERAGE MISS LATENCY PREFETCH: 182.128 cycles
LLC AVERAGE MSHR OCCUPANCY: 0.212191
LLC MSHR FULL: 0
LLC RQ	ACCESS:     520794	FORWARD:          0	MERGED:          0	TO_CACHE:     520791
LLC WQ	ACCESS:     493744	FORWARD:          3	MERGED:          0	TO_CACHE:     493744
LLC PQ	ACCESS:      26260	FORWARD:          0	MERGED:          0	TO_CACHE:      26260

LLC Dense regions hint to LLC: 0

RAW hits: 2062671
Loads Generated: 47326161
Loads sent to L1D: 45263489
Stores Generated: 17197827
Stores sent to L1D: 17197816
Major fault: 0 Minor fault: 8202
Allocated PAGES: 8202
Total Load insts: 55954031
Total Non-spec loads: 9923281
Percentage of speculative loads: 82.2653

LeapFrogging counter: 8
Commit hits: 23737775 miss: 12279718
Commit hit %: 65.9062 miss %: 34.0938
Commits not translated: 0
Loads retired: 981231
Stores retired: 17197816
Cache fills: 981233
L1D response latency: 52.2204 cycles
Load retirement latency: 94.3015 cycles
OOO test counter: 0
Discarded buffer inserts: 23737775 hits: 5274 hit %: 0.0222178
Filter prediction accuracy: -nan
ALL MISSES SIZE: 5996
LATENCY_FILL: 52.0383 981052
LATENCY_FILL_ROB: 71.3615 980731
test counter pref: 11051275
Max ROB Extended: 12

DRAM Statistics
 CHANNEL 0
 RQ ROW_BUFFER_HIT:       2816  ROW_BUFFER_MISS:     239564
 DBUS_CONGESTED:         12
 WQ ROW_BUFFER_HIT:      22089  ROW_BUFFER_MISS:     222772  FULL:          6

 AVG_CONGESTED_CYCLE: 4
 All warmup complete: 2
Channel 0 Bank busy for read cycles: 0
Channel 0 Bank busy for write cycles: 0
Channel 0
Rank 0
0banks busy for read cycles: 248248571
0banks busy for write cycles: 167979
1banks busy for read cycles: 27100437
1banks busy for write cycles: 25971596
2banks busy for read cycles: 3460509
2banks busy for write cycles: 4436283
3banks busy for read cycles: 438148
3banks busy for write cycles: 846469
4banks busy for read cycles: 98986
4banks busy for write cycles: 216162
5banks busy for read cycles: 31350
5banks busy for write cycles: 74406
6banks busy for read cycles: 14798
6banks busy for write cycles: 37285
7banks busy for read cycles: 8763
7banks busy for write cycles: 41641
8banks busy for read cycles: 7219
8banks busy for write cycles: 184023

CPU 0 Branch Prediction Accuracy: 92.4682% MPKI: 9.41666 Average ROB Occupancy at Mispredict: 24.4834
Branch types
NOT_BRANCH: 174994601 87.4973%
BRANCH_DIRECT_JUMP: 2818425 1.40921%
BRANCH_INDIRECT: 447403 0.223701%
BRANCH_CONDITIONAL: 21154324 10.5772%
BRANCH_DIRECT_CALL: 190457 0.0952285%
BRANCH_INDIRECT_CALL: 102031 0.0510155%
BRANCH_RETURN: 292486 0.146243%
BRANCH_OTHER: 0 0%

DRAM PAGES: 1048576
Allocated PAGES: 8202
