
*** ChampSim Multicore Out-of-Order Simulator ***

Warmup Instructions: 50000000
Simulation Instructions: 200000000
Number of CPUs: 1
LLC sets: 2048
LLC ways: 16
L0D sets: 16
L0D ways: 2
ROB size: 352
LQ size: 128
SQ size: 72
Secure Berti: OFF
Berti: OFF
Berti Fill: OFF
On commit prefetching: ON
Hit-based filter: ON
Time-guarding: ON
Free-slotting: ON
Leap-frogging: ON
Train prefetcher on L0D bypass: OFF
No translation penalty for prefetchers: OFF
Prefetch to L0D only: OFF
Prefetch to L1D only: OFF
Clean evictions: ON
Commit loads: ON
Commit write: ON
Fill commit loads to L2C, LLC: ON
DRAM IO FREQUENCY: 6400
ROB SIZE: 352
Off-chip DRAM Size: 4096 MB Channels: 1 Width: 64-bit Data Rate: 6400 MT/s
CPU 0 runs /home/sumon/secure_berti/GhostMinion/../../traces/gap/cc-13.trace.gz
.gz
BTB has LRU replacement policy
ITLB has LRU replacement policy
DTLB has LRU replacement policy
STLB has LRU replacement policy
L1I has LRU replacement policy
L0D has LRU replacement policy
History Sets: 8
History Ways: 16
BERTI Size: 16
BERTI Stride Size: 16
L1D has LRU replacement policy
L2C has LRU replacement policy
LLC has LRU replacement policy
Heartbeat CPU 0 instructions: 10000003 cycles: 3248059 heartbeat IPC: 3.07876 cumulative IPC: 3.07876 (Simulation time: 0 hr 0 min 38 sec) 
Heartbeat CPU 0 instructions: 20000000 cycles: 6504730 heartbeat IPC: 3.07062 cumulative IPC: 3.07469 (Simulation time: 0 hr 1 min 21 sec) 
Heartbeat CPU 0 instructions: 30000003 cycles: 9763355 heartbeat IPC: 3.06878 cumulative IPC: 3.07271 (Simulation time: 0 hr 2 min 3 sec) 
Heartbeat CPU 0 instructions: 40000002 cycles: 13020242 heartbeat IPC: 3.07042 cumulative IPC: 3.07214 (Simulation time: 0 hr 2 min 45 sec) 
Heartbeat CPU 0 instructions: 50000001 cycles: 16283995 heartbeat IPC: 3.06396 cumulative IPC: 3.0705 (Simulation time: 0 hr 3 min 27 sec) 

Warmup complete CPU 0 instructions: 50000001 cycles: 16283995 (Simulation time: 0 hr 3 min 27 sec) 

Heartbeat CPU 0 instructions: 60000000 cycles: 62234762 heartbeat IPC: 0.217624 cumulative IPC: 0.217624 (Simulation time: 0 hr 4 min 21 sec) 
Heartbeat CPU 0 instructions: 70000000 cycles: 106154900 heartbeat IPC: 0.227686 cumulative IPC: 0.222541 (Simulation time: 0 hr 5 min 15 sec) 
Heartbeat CPU 0 instructions: 80000002 cycles: 149974818 heartbeat IPC: 0.228207 cumulative IPC: 0.224398 (Simulation time: 0 hr 6 min 7 sec) 
Heartbeat CPU 0 instructions: 90000000 cycles: 194263558 heartbeat IPC: 0.225791 cumulative IPC: 0.224745 (Simulation time: 0 hr 6 min 58 sec) 
Heartbeat CPU 0 instructions: 100000003 cycles: 237219202 heartbeat IPC: 0.232798 cumulative IPC: 0.226311 (Simulation time: 0 hr 7 min 50 sec) 
Heartbeat CPU 0 instructions: 110000000 cycles: 279460065 heartbeat IPC: 0.236738 cumulative IPC: 0.227984 (Simulation time: 0 hr 8 min 41 sec) 
Heartbeat CPU 0 instructions: 120000000 cycles: 321540864 heartbeat IPC: 0.237638 cumulative IPC: 0.229315 (Simulation time: 0 hr 9 min 32 sec) 
Heartbeat CPU 0 instructions: 130000000 cycles: 365273995 heartbeat IPC: 0.22866 cumulative IPC: 0.229233 (Simulation time: 0 hr 10 min 23 sec) 
Heartbeat CPU 0 instructions: 140000002 cycles: 408724835 heartbeat IPC: 0.230145 cumulative IPC: 0.229334 (Simulation time: 0 hr 11 min 13 sec) 
Heartbeat CPU 0 instructions: 150000000 cycles: 449965776 heartbeat IPC: 0.242477 cumulative IPC: 0.230584 (Simulation time: 0 hr 12 min 3 sec) 
Heartbeat CPU 0 instructions: 160000003 cycles: 492625590 heartbeat IPC: 0.234413 cumulative IPC: 0.230927 (Simulation time: 0 hr 12 min 53 sec) 
Heartbeat CPU 0 instructions: 170000000 cycles: 535411350 heartbeat IPC: 0.233723 cumulative IPC: 0.231157 (Simulation time: 0 hr 13 min 42 sec) 
Heartbeat CPU 0 instructions: 180000003 cycles: 578023219 heartbeat IPC: 0.234676 cumulative IPC: 0.231424 (Simulation time: 0 hr 14 min 31 sec) 
Heartbeat CPU 0 instructions: 190000003 cycles: 620536523 heartbeat IPC: 0.23522 cumulative IPC: 0.231691 (Simulation time: 0 hr 15 min 20 sec) 
Heartbeat CPU 0 instructions: 200000000 cycles: 663152318 heartbeat IPC: 0.234655 cumulative IPC: 0.231886 (Simulation time: 0 hr 16 min 9 sec) 
Heartbeat CPU 0 instructions: 210000000 cycles: 704392655 heartbeat IPC: 0.242481 cumulative IPC: 0.232521 (Simulation time: 0 hr 16 min 57 sec) 
Heartbeat CPU 0 instructions: 220000000 cycles: 748063164 heartbeat IPC: 0.228987 cumulative IPC: 0.232311 (Simulation time: 0 hr 17 min 45 sec) 
Heartbeat CPU 0 instructions: 230000000 cycles: 789724907 heartbeat IPC: 0.240028 cumulative IPC: 0.232726 (Simulation time: 0 hr 18 min 33 sec) 
Heartbeat CPU 0 instructions: 240000000 cycles: 832564682 heartbeat IPC: 0.233428 cumulative IPC: 0.232763 (Simulation time: 0 hr 19 min 21 sec) 
Heartbeat CPU 0 instructions: 250000000 cycles: 875010032 heartbeat IPC: 0.235597 cumulative IPC: 0.232903 (Simulation time: 0 hr 20 min 10 sec) 
Finished CPU 0 instructions: 200000003 cycles: 858726038 cumulative IPC: 0.232903 (Simulation time: 0 hr 20 min 10 sec) 
 Instruction ID: 250000047

ChampSim completed all CPUs

Region of Interest Statistics

CPU 0 cumulative IPC: 0.232903 instructions: 200000003 cycles: 858726038
ITLB SPEC fills:          0  NON-SPEC fills:          0
ITLB Test counter :          0
ITLB Leapfrog:          0
ITLB MSHR merge:          0
ITLB TOTAL     ACCESS:   31035392  HIT:   31035392  MISS:          0  HIT %:        100  MISS %:          0   MPKI: 0
ITLB LOAD TRANSLATION NON_SPEC    ACCESS:   31035392  HIT:   31035392  MISS:          0  HIT %:        100  MISS %:          0   MPKI: 0
ITLB PREFETCH  REQUESTED:          0  ISSUED:          0  USEFUL:          0  USELESS:          0
ITLB USEFUL LOAD PREFETCHES:          0 PREFETCH ISSUED TO LOWER LEVEL:          0  ACCURACY: -nan
ITLB TIMELY PREFETCHES:          0 LATE PREFETCHES: 0 DROPPED PREFETCHES: 0
ITLB COMMIT LATE PREFETCHES: 0 MISSED OPPORTUNITY: 0 LATE IN PQ: 0 UNCOVERED: 0
ITLB COMMIT LATE MSHR PREFETCHES: 0
ITLB MPKI TOTAL: 0 MSHR LATE: 0 PQ LATE: 0 COMMIT LATE: 0 MISSED OPPORTUNITY: 0 UNCOVERED: 0
ITLB PREFETCHES SAME FILL-ORIGIN LEVEL: 0 DIFFERENT FILL-ORIGIN LEVEL: 0
ITLB AVERAGE MISS LATENCY: -nan cycles
ITLB AVERAGE MISS LATENCY LOAD: -nan cycles
ITLB AVERAGE MISS LATENCY PREFETCH: -nan cycles
ITLB AVERAGE MSHR OCCUPANCY: 0
ITLB MSHR FULL: 0
ITLB RQ	ACCESS:   31611217	FORWARD:          0	MERGED:     575826	TO_CACHE:   31035391

DTLB SPEC fills:          0  NON-SPEC fills:          0
DTLB Test counter :          0
DTLB Leapfrog:          0
DTLB MSHR merge:          0
DTLB TOTAL     ACCESS:   49225779  HIT:   39184775  MISS:   10041004  HIT %:    79.6021  MISS %:    20.3979   MPKI: 50.205
DTLB LOAD TRANSLATION NON_SPEC    ACCESS:   49225779  HIT:   39184775  MISS:   10041004  HIT %:    79.6021  MISS %:    20.3979   MPKI: 50.205
DTLB PREFETCH  REQUESTED:          0  ISSUED:          0  USEFUL:          0  USELESS:          0
DTLB USEFUL LOAD PREFETCHES:          0 PREFETCH ISSUED TO LOWER LEVEL:          0  ACCURACY: -nan
DTLB TIMELY PREFETCHES:          0 LATE PREFETCHES: 0 DROPPED PREFETCHES: 0
DTLB COMMIT LATE PREFETCHES: 0 MISSED OPPORTUNITY: 0 LATE IN PQ: 0 UNCOVERED: 0
DTLB COMMIT LATE MSHR PREFETCHES: 0
DTLB MPKI TOTAL: 0 MSHR LATE: 0 PQ LATE: 0 COMMIT LATE: 0 MISSED OPPORTUNITY: 0 UNCOVERED: 0
DTLB PREFETCHES SAME FILL-ORIGIN LEVEL: 0 DIFFERENT FILL-ORIGIN LEVEL: 0
DTLB AVERAGE MISS LATENCY: 9.46824 cycles
DTLB AVERAGE MISS LATENCY LOAD: -nan cycles
DTLB AVERAGE MISS LATENCY PREFETCH: -nan cycles
DTLB AVERAGE MSHR OCCUPANCY: 0.324672
DTLB MSHR FULL: 0.00255667
DTLB RQ	ACCESS:   51110884	FORWARD:          0	MERGED:    1581399	TO_CACHE:   49529485

STLB SPEC fills:          0  NON-SPEC fills:          0
STLB Test counter :          0
STLB Leapfrog:          0
STLB MSHR merge:          0
STLB TOTAL     ACCESS:   28932412  HIT:   28917387  MISS:      15025  HIT %:    99.9481  MISS %:  0.0519314   MPKI: 0.075125
STLB LOAD TRANSLATION NON_SPEC    ACCESS:   10041004  HIT:   10025984  MISS:      15020  HIT %:    99.8504  MISS %:   0.149587   MPKI: 0.0751
STLB TRANSLATION FROM L1D PREFETCHER NON_SPEC    ACCESS:   18891408  HIT:   18891403  MISS:          5  HIT %:        100  MISS %: 2.64671e-05   MPKI: 2.5e-05
STLB PREFETCH  REQUESTED:          0  ISSUED:          0  USEFUL:          4  USELESS:          1
STLB USEFUL LOAD PREFETCHES:          4 PREFETCH ISSUED TO LOWER LEVEL:          0  ACCURACY: inf
STLB TIMELY PREFETCHES:          4 LATE PREFETCHES: 8385 DROPPED PREFETCHES: 1301402
STLB COMMIT LATE PREFETCHES: 0 MISSED OPPORTUNITY: 0 LATE IN PQ: 0 UNCOVERED: 0
STLB COMMIT LATE MSHR PREFETCHES: 0
STLB MPKI TOTAL: 0 MSHR LATE: 0.041925 PQ LATE: 0 COMMIT LATE: 0 MISSED OPPORTUNITY: 0 UNCOVERED: 0
STLB PREFETCHES SAME FILL-ORIGIN LEVEL: 0 DIFFERENT FILL-ORIGIN LEVEL: 0
STLB AVERAGE MISS LATENCY: 175.6 cycles
STLB AVERAGE MISS LATENCY LOAD: -nan cycles
STLB AVERAGE MISS LATENCY PREFETCH: -nan cycles
STLB AVERAGE MSHR OCCUPANCY: 0.139296
STLB MSHR FULL: 0
STLB RQ	ACCESS:  136270594	FORWARD:          0	MERGED:  105954547	TO_CACHE:   30316047

STLB Hit, L1D data hit: 0
STLB Hit, L2C data hit: 0
STLB Hit, LLC data hit: 0
STLB Hit, LLC data miss: 0
STLB STLB hints to L2: 0
L0D SPEC fills:   24810035  NON-SPEC fills:          0
L0D TimeGuard Request with older TS:     534846 Restricted eviction:     197105 read:     541782
L0D Test counter :          0
L0D Leapfrog:          0
L0D MSHR merge:     724400
L0D TOTAL     ACCESS:   50139441  HIT:   13033957  MISS:   37105484  HIT %:    25.9954  MISS %:    74.0046   MPKI: 185.527
L0D LOAD      TOTAL       ACCESS:   50139441  HIT:   13033957  MISS:   37105484  HIT %:    25.9954  MISS %:    74.0046   MPKI: 185.527
L0D LOAD      NON_SPEC    ACCESS:   13112122  HIT:    1013778  MISS:   12098344  HIT %:    7.73161  MISS %:    92.2684   MPKI: 60.4917
L0D LOAD      SPEC        ACCESS:   37027319  HIT:   12020179  MISS:   25007140  HIT %:     32.463  MISS %:     67.537   MPKI: 125.036
L0D PREFETCH  REQUESTED:          0  ISSUED:          0  USEFUL:          0  USELESS:          0
L0D USEFUL LOAD PREFETCHES:          0 PREFETCH ISSUED TO LOWER LEVEL:          0  ACCURACY: -nan
L0D TIMELY PREFETCHES:          0 LATE PREFETCHES: 0 DROPPED PREFETCHES: 0
L0D COMMIT LATE PREFETCHES: 0 MISSED OPPORTUNITY: 0 LATE IN PQ: 0 UNCOVERED: 0
L0D COMMIT LATE MSHR PREFETCHES: 0
L0D MPKI TOTAL: 189.149 MSHR LATE: 0 PQ LATE: 0 COMMIT LATE: 0 MISSED OPPORTUNITY: 0 UNCOVERED: 0
L0D PREFETCHES SAME FILL-ORIGIN LEVEL: 0 DIFFERENT FILL-ORIGIN LEVEL: 0
L0D AVERAGE MISS LATENCY: 30.4235 cycles
L0D AVERAGE MISS LATENCY LOAD: 30.4235 cycles
L0D AVERAGE MISS LATENCY PREFETCH: -nan cycles
L0D AVERAGE MSHR OCCUPANCY: 1.69868
L0D MSHR FULL: 0.0292673
L0D RQ	ACCESS:   55706387	FORWARD:          0	MERGED:    4842548	TO_CACHE:   50863839
L0D WQ	ACCESS:     247045	FORWARD:          0	MERGED:          0	TO_CACHE:     247045

L1D SPEC fills:          0  NON-SPEC fills:    4154990
L1D Test counter :          0
L1D Leapfrog:          0
L1D MSHR merge:      12225
L1D TOTAL     ACCESS:  125449093  HIT:   99786897  MISS:   25662196  HIT %:    79.5437  MISS %:    20.4563   MPKI: 128.311
L1D LOAD      TOTAL       ACCESS:   37104964  HIT:   22688881  MISS:   14416083  HIT %:    61.1478  MISS %:    38.8522   MPKI: 72.0804
L1D LOAD      NON_SPEC    ACCESS:   12097930  HIT:    7942940  MISS:    4154990  HIT %:    65.6554  MISS %:    34.3446   MPKI: 20.7749
L1D LOAD      SPEC        ACCESS:   25007034  HIT:   14745941  MISS:   10261093  HIT %:    58.9672  MISS %:    41.0328   MPKI: 51.3055
L1D RFO       NON_SPEC    ACCESS:     246101  HIT:     246091  MISS:         10  HIT %:    99.9959  MISS %: 0.00406337   MPKI: 5e-05
L1D PREFETCH  NON_SPEC    ACCESS:   77644980  HIT:   76653241  MISS:     991739  HIT %:    98.7227  MISS %:    1.27727   MPKI: 4.95869
L1D COMMIT LOAD NON_SPEC    ACCESS:     378972  HIT:     186279  MISS:     192693  HIT %:    49.1538  MISS %:    50.8462   MPKI: 0.963465
L1D COMMIT WRITE NON_SPEC    ACCESS:   10074076  HIT:      12405  MISS:   10061671  HIT %:   0.123138  MISS %:    99.8769   MPKI: 50.3084
L1D PREFETCH  REQUESTED:  221093088  ISSUED:  170812316  USEFUL:     970753  USELESS:      20998
L1D USEFUL LOAD PREFETCHES:     970753 PREFETCH ISSUED TO LOWER LEVEL:   44417564  ACCURACY: 2.18552
L1D TIMELY PREFETCHES:     970753 LATE PREFETCHES: 11708 DROPPED PREFETCHES: 3831054
L1D COMMIT LATE PREFETCHES: 0 MISSED OPPORTUNITY: 0 LATE IN PQ: 0 UNCOVERED: 0
L1D COMMIT LATE MSHR PREFETCHES: 0
L1D MPKI TOTAL: 72.083 MSHR LATE: 0.05854 PQ LATE: 0 COMMIT LATE: 0 MISSED OPPORTUNITY: 0 UNCOVERED: 0
L1D PREFETCHES SAME FILL-ORIGIN LEVEL: 1003447 DIFFERENT FILL-ORIGIN LEVEL: 43414117
L1D AVERAGE MISS LATENCY: 43.0013 cycles
L1D AVERAGE MISS LATENCY LOAD: 65.2488 cycles
L1D AVERAGE MISS LATENCY PREFETCH: 156.487 cycles
L1D AVERAGE MSHR OCCUPANCY: 1.27922
L1D MSHR FULL: 2.1021e-05
L1D RQ	ACCESS:   37516623	FORWARD:          0	MERGED:      26008	TO_CACHE:   37485631
L1D WQ	ACCESS:   10322241	FORWARD:       4984	MERGED:       1120	TO_CACHE:   10321121
L1D PQ	ACCESS:  170812316	FORWARD:          0	MERGED:   44582726	TO_CACHE:  126229590

L1D UNIQUE REGIONS ACCESSED: 0
L1D REGIONS CONFLICTS: 0
L1D Cross Page Prefetch Requests: 15877072
L1D Same Page Prefetch Requests: 201503784
L1D ROI Sum of L1D PQ occupancy: 3004922315
L1D PREFETCHES PUSHED FROM L2C: 0
L1I SPEC fills:          0  NON-SPEC fills:          0
L1I Test counter :          0
L1I Leapfrog:          0
L1I MSHR merge:          0
L1I TOTAL     ACCESS:   31611218  HIT:   31611218  MISS:          0  HIT %:        100  MISS %:          0   MPKI: 0
L1I LOAD      TOTAL       ACCESS:   31611218  HIT:   31611218  MISS:          0  HIT %:        100  MISS %:          0   MPKI: 0
L1I LOAD      NON_SPEC    ACCESS:   31611218  HIT:   31611218  MISS:          0  HIT %:        100  MISS %:          0   MPKI: 0
L1I PREFETCH  REQUESTED:          0  ISSUED:          0  USEFUL:          0  USELESS:          0
L1I USEFUL LOAD PREFETCHES:          0 PREFETCH ISSUED TO LOWER LEVEL:          0  ACCURACY: -nan
L1I TIMELY PREFETCHES:          0 LATE PREFETCHES: 0 DROPPED PREFETCHES: 0
L1I COMMIT LATE PREFETCHES: 0 MISSED OPPORTUNITY: 0 LATE IN PQ: 0 UNCOVERED: 0
L1I COMMIT LATE MSHR PREFETCHES: 0
L1I MPKI TOTAL: 0 MSHR LATE: 0 PQ LATE: 0 COMMIT LATE: 0 MISSED OPPORTUNITY: 0 UNCOVERED: 0
L1I PREFETCHES SAME FILL-ORIGIN LEVEL: 0 DIFFERENT FILL-ORIGIN LEVEL: 0
L1I AVERAGE MISS LATENCY: -nan cycles
L1I AVERAGE MISS LATENCY LOAD: -nan cycles
L1I AVERAGE MISS LATENCY PREFETCH: -nan cycles
L1I AVERAGE MSHR OCCUPANCY: 0
L1I MSHR FULL: 0
L1I RQ	ACCESS:   56801070	FORWARD:          0	MERGED:   25189853	TO_CACHE:   31611217

BTB SPEC fills:          0  NON-SPEC fills:          0
BTB Test counter :          0
BTB Leapfrog:          0
BTB MSHR merge:          0
BTB TOTAL     ACCESS:   40650073  HIT:   40650068  MISS:          5  HIT %:        100  MISS %: 1.23001e-05   MPKI: 2.5e-05
BTB BRANCH_DIRECT_JUMP	ACCESS:          0  HIT:          0  MISS:          0
BTB BRANCH_INDIRECT	ACCESS:          0  HIT:          0  MISS:          0
BTB BRANCH_CONDITIONAL	ACCESS:   40650073  HIT:   40650068  MISS:          5
BTB BRANCH_DIRECT_CALL	ACCESS:          0  HIT:          0  MISS:          0
BTB BRANCH_INDIRECT_CALL	ACCESS:          0  HIT:          0  MISS:          0
BTB BRANCH_RETURN	ACCESS:          0  HIT:          0  MISS:          0
BTB BRANCH_OTHER ACCESS:          0  HIT:          0  MISS:          0

L2C SPEC fills:          0  NON-SPEC fills:    2753134
L2C Test counter :          0
L2C Leapfrog:          0
L2C MSHR merge:      17715
L2C TOTAL     ACCESS:   72203255  HIT:   53979756  MISS:   18223499  HIT %:    74.7608  MISS %:    25.2392   MPKI: 91.1175
L2C LOAD      TOTAL       ACCESS:   14404182  HIT:    4542607  MISS:    9861575  HIT %:    31.5367  MISS %:    68.4633   MPKI: 49.3079
L2C LOAD      NON_SPEC    ACCESS:    4153439  HIT:    1400305  MISS:    2753134  HIT %:    33.7144  MISS %:    66.2856   MPKI: 13.7657
L2C LOAD      SPEC        ACCESS:   10250743  HIT:    3142302  MISS:    7108441  HIT %:    30.6544  MISS %:    69.3456   MPKI: 35.5422
L2C RFO       NON_SPEC    ACCESS:         10  HIT:         10  MISS:          0  HIT %:        100  MISS %:          0   MPKI: 0
L2C PREFETCH  NON_SPEC    ACCESS:   43893106  HIT:   42618339  MISS:    1274767  HIT %:    97.0957  MISS %:    2.90425   MPKI: 6.37383
L2C WRITEBACK NON_SPEC    ACCESS:      68321  HIT:      68043  MISS:        278  HIT %:    99.5931  MISS %:   0.406903   MPKI: 0.00139
L2C CLEAN_EVICTION NON_SPEC    ACCESS:    7023861  HIT:      54286  MISS:    6969575  HIT %:    0.77288  MISS %:    99.2271   MPKI: 34.8479
L2C COMMIT LOAD NON_SPEC    ACCESS:     192690  HIT:      79689  MISS:     113001  HIT %:    41.3561  MISS %:    58.6439   MPKI: 0.565005
L2C LOAD TRANSLATION NON_SPEC    ACCESS:      75070  HIT:      75070  MISS:          0  HIT %:        100  MISS %:          0   MPKI: 0
L2C TRANSLATION FROM L1D PREFETCHER NON_SPEC    ACCESS:    6546015  HIT:    6541712  MISS:       4303  HIT %:    99.9343  MISS %:  0.0657346   MPKI: 0.021515
L2C PREFETCH  REQUESTED:          0  ISSUED:          0  USEFUL:      52002  USELESS:    1227106
L2C USEFUL LOAD PREFETCHES:      52002 PREFETCH ISSUED TO LOWER LEVEL:    1292663  ACCURACY: 4.02286
L2C TIMELY PREFETCHES:      52002 LATE PREFETCHES: 17896 DROPPED PREFETCHES: 0
L2C COMMIT LATE PREFETCHES: 0 MISSED OPPORTUNITY: 0 LATE IN PQ: 0 UNCOVERED: 0
L2C COMMIT LATE MSHR PREFETCHES: 0
L2C MPKI TOTAL: 49.3079 MSHR LATE: 0.08948 PQ LATE: 0 COMMIT LATE: 0 MISSED OPPORTUNITY: 0 UNCOVERED: 0
L2C PREFETCHES SAME FILL-ORIGIN LEVEL: 595335 DIFFERENT FILL-ORIGIN LEVEL: 0
L2C AVERAGE MISS LATENCY: 55.4 cycles
L2C AVERAGE MISS LATENCY LOAD: 77.1708 cycles
L2C AVERAGE MISS LATENCY PREFETCH: 190.837 cycles
L2C AVERAGE MSHR OCCUPANCY: 1.29814
L2C MSHR FULL: 0
L2C RQ	ACCESS:   21218165	FORWARD:          0	MERGED:          0	TO_CACHE:   21217968
L2C WQ	ACCESS:    7092182	FORWARD:        197	MERGED:          0	TO_CACHE:    7092182
L2C PQ	ACCESS:   44417564	FORWARD:          0	MERGED:       4932	TO_CACHE:   44412632

L2C Instructions Evicting Data 0
L2C Translations Evicting Data 4303
L2C Data Evicting Data 4139293
L2C Instructions Evicting Instructions 0
L2C Translations Evicting Instructions 0
L2C Data Evicting Instructions 0
L2C Instructions Evicting Translations 0
L2C Translations Evicting Translations 0
L2C Data Evicting Translations 1609
L2C Dense regions hint from L2: 0
PSCL5 SPEC fills:          0  NON-SPEC fills:          0
PSCL5 Test counter :          0
PSCL5 Leapfrog:          0
PSCL5 MSHR merge:          0
PSCL5 TOTAL     ACCESS:          0  HIT:          0  MISS:          0  HIT %:       -nan  MISS %:       -nan   MPKI: 0
PSCL5 PREFETCH  REQUESTED:          0  ISSUED:          0  USEFUL:          0  USELESS:          0
PSCL5 USEFUL LOAD PREFETCHES:          0 PREFETCH ISSUED TO LOWER LEVEL:          0  ACCURACY: -nan
PSCL5 TIMELY PREFETCHES:          0 LATE PREFETCHES: 0 DROPPED PREFETCHES: 0
PSCL5 COMMIT LATE PREFETCHES: 0 MISSED OPPORTUNITY: 0 LATE IN PQ: 0 UNCOVERED: 0
PSCL5 COMMIT LATE MSHR PREFETCHES: 0
PSCL5 MPKI TOTAL: 0 MSHR LATE: 0 PQ LATE: 0 COMMIT LATE: 0 MISSED OPPORTUNITY: 0 UNCOVERED: 0
PSCL5 PREFETCHES SAME FILL-ORIGIN LEVEL: 0 DIFFERENT FILL-ORIGIN LEVEL: 0

PSCL4 SPEC fills:          0  NON-SPEC fills:          0
PSCL4 Test counter :          0
PSCL4 Leapfrog:          0
PSCL4 MSHR merge:          0
PSCL4 TOTAL     ACCESS:          0  HIT:          0  MISS:          0  HIT %:       -nan  MISS %:       -nan   MPKI: 0
PSCL4 PREFETCH  REQUESTED:          0  ISSUED:          0  USEFUL:          0  USELESS:          0
PSCL4 USEFUL LOAD PREFETCHES:          0 PREFETCH ISSUED TO LOWER LEVEL:          0  ACCURACY: -nan
PSCL4 TIMELY PREFETCHES:          0 LATE PREFETCHES: 0 DROPPED PREFETCHES: 0
PSCL4 COMMIT LATE PREFETCHES: 0 MISSED OPPORTUNITY: 0 LATE IN PQ: 0 UNCOVERED: 0
PSCL4 COMMIT LATE MSHR PREFETCHES: 0
PSCL4 MPKI TOTAL: 0 MSHR LATE: 0 PQ LATE: 0 COMMIT LATE: 0 MISSED OPPORTUNITY: 0 UNCOVERED: 0
PSCL4 PREFETCHES SAME FILL-ORIGIN LEVEL: 0 DIFFERENT FILL-ORIGIN LEVEL: 0

PSCL3 SPEC fills:          0  NON-SPEC fills:          0
PSCL3 Test counter :          0
PSCL3 Leapfrog:          0
PSCL3 MSHR merge:          0
PSCL3 TOTAL     ACCESS:          0  HIT:          0  MISS:          0  HIT %:       -nan  MISS %:       -nan   MPKI: 0
PSCL3 PREFETCH  REQUESTED:          0  ISSUED:          0  USEFUL:          0  USELESS:          0
PSCL3 USEFUL LOAD PREFETCHES:          0 PREFETCH ISSUED TO LOWER LEVEL:          0  ACCURACY: -nan
PSCL3 TIMELY PREFETCHES:          0 LATE PREFETCHES: 0 DROPPED PREFETCHES: 0
PSCL3 COMMIT LATE PREFETCHES: 0 MISSED OPPORTUNITY: 0 LATE IN PQ: 0 UNCOVERED: 0
PSCL3 COMMIT LATE MSHR PREFETCHES: 0
PSCL3 MPKI TOTAL: 0 MSHR LATE: 0 PQ LATE: 0 COMMIT LATE: 0 MISSED OPPORTUNITY: 0 UNCOVERED: 0
PSCL3 PREFETCHES SAME FILL-ORIGIN LEVEL: 0 DIFFERENT FILL-ORIGIN LEVEL: 0

PSCL2 SPEC fills:          0  NON-SPEC fills:          0
PSCL2 Test counter :          0
PSCL2 Leapfrog:          0
PSCL2 MSHR merge:          0
PSCL2 TOTAL     ACCESS:          0  HIT:          0  MISS:          0  HIT %:       -nan  MISS %:       -nan   MPKI: 0
PSCL2 PREFETCH  REQUESTED:          0  ISSUED:          0  USEFUL:          0  USELESS:          0
PSCL2 USEFUL LOAD PREFETCHES:          0 PREFETCH ISSUED TO LOWER LEVEL:          0  ACCURACY: -nan
PSCL2 TIMELY PREFETCHES:          0 LATE PREFETCHES: 0 DROPPED PREFETCHES: 0
PSCL2 COMMIT LATE PREFETCHES: 0 MISSED OPPORTUNITY: 0 LATE IN PQ: 0 UNCOVERED: 0
PSCL2 COMMIT LATE MSHR PREFETCHES: 0
PSCL2 MPKI TOTAL: 0 MSHR LATE: 0 PQ LATE: 0 COMMIT LATE: 0 MISSED OPPORTUNITY: 0 UNCOVERED: 0
PSCL2 PREFETCHES SAME FILL-ORIGIN LEVEL: 0 DIFFERENT FILL-ORIGIN LEVEL: 0

LLC SPEC fills:          0  NON-SPEC fills:     915879
LLC Test counter :          0
LLC Leapfrog:          0
LLC MSHR merge:          0
LLC TOTAL     ACCESS:   18332189  HIT:   11004138  MISS:    7328051  HIT %:    60.0263  MISS %:    39.9737   MPKI: 36.6403
LLC LOAD      TOTAL       ACCESS:    9843775  HIT:    6503034  MISS:    3340741  HIT %:    66.0624  MISS %:    33.9376   MPKI: 16.7037
LLC LOAD      NON_SPEC    ACCESS:    2749536  HIT:    1833657  MISS:     915879  HIT %:    66.6897  MISS %:    33.3103   MPKI: 4.57939
LLC LOAD      SPEC        ACCESS:    7094239  HIT:    4669377  MISS:    2424862  HIT %:    65.8193  MISS %:    34.1807   MPKI: 12.1243
LLC PREFETCH  NON_SPEC    ACCESS:    1292662  HIT:     117216  MISS:    1175446  HIT %:     9.0678  MISS %:    90.9322   MPKI: 5.87723
LLC WRITEBACK NON_SPEC    ACCESS:      63388  HIT:      63355  MISS:         33  HIT %:    99.9479  MISS %:  0.0520603   MPKI: 0.000165
LLC CLEAN_EVICTION NON_SPEC    ACCESS:    7015277  HIT:    4216573  MISS:    2798704  HIT %:    60.1056  MISS %:    39.8944   MPKI: 13.9935
LLC COMMIT LOAD NON_SPEC    ACCESS:     112784  HIT:     101761  MISS:      11023  HIT %:    90.2265  MISS %:    9.77355   MPKI: 0.055115
LLC TRANSLATION FROM L1D PREFETCHER NON_SPEC    ACCESS:       4303  HIT:       2199  MISS:       2104  HIT %:    51.1039  MISS %:    48.8961   MPKI: 0.01052
LLC PREFETCH  REQUESTED:          0  ISSUED:          0  USEFUL:      50199  USELESS:    1127491
LLC USEFUL LOAD PREFETCHES:      50199 PREFETCH ISSUED TO LOWER LEVEL:    1175446  ACCURACY: 4.27063
LLC TIMELY PREFETCHES:      50199 LATE PREFETCHES: 0 DROPPED PREFETCHES: 0
LLC COMMIT LATE PREFETCHES: 0 MISSED OPPORTUNITY: 0 LATE IN PQ: 0 UNCOVERED: 0
LLC COMMIT LATE MSHR PREFETCHES: 0
LLC MPKI TOTAL: 16.7037 MSHR LATE: 0 PQ LATE: 0 COMMIT LATE: 0 MISSED OPPORTUNITY: 0 UNCOVERED: 0
LLC PREFETCHES SAME FILL-ORIGIN LEVEL: 0 DIFFERENT FILL-ORIGIN LEVEL: 0
LLC AVERAGE MISS LATENCY: 100.523 cycles
LLC AVERAGE MISS LATENCY LOAD: 157.568 cycles
LLC AVERAGE MISS LATENCY PREFETCH: 177.381 cycles
LLC AVERAGE MSHR OCCUPANCY: 0.883725
LLC MSHR FULL: 0
LLC RQ	ACCESS:    9960984	FORWARD:          0	MERGED:          0	TO_CACHE:    9960863
LLC WQ	ACCESS:    7078665	FORWARD:        122	MERGED:          0	TO_CACHE:    7078665
LLC PQ	ACCESS:    1292663	FORWARD:          0	MERGED:          0	TO_CACHE:    1292662

LLC Dense regions hint to LLC: 0

RAW hits: 26178
Loads Generated: 55732565
Loads sent to L1D: 55706387
Stores Generated: 247045
Stores sent to L1D: 247045
Major fault: 0 Minor fault: 19633
Allocated PAGES: 19633
Total Load insts: 68639296
Total Non-spec loads: 13660932
Percentage of speculative loads: 80.0975

LeapFrogging counter: 367439
Commit hits: 24381158 miss: 18008529
Commit hit %: 57.5167 miss %: 42.4833
Commits not translated: 0
Loads retired: 14416082
Stores retired: 247045
Cache fills: 14416083
L1D response latency: 65.2488 cycles
Load retirement latency: 138.583 cycles
OOO test counter: 0
Discarded buffer inserts: 24381158 hits: 29915 hit %: 0.122697
Filter prediction accuracy: 99.7794
LATENCY_FILL: 5.72858 10251607

DRAM Statistics
 CHANNEL 0
 RQ ROW_BUFFER_HIT:     509362  ROW_BUFFER_MISS:    4019398
 DBUS_CONGESTED:       2099
 WQ ROW_BUFFER_HIT:    1034084  ROW_BUFFER_MISS:    2134705  FULL:        116

 AVG_CONGESTED_CYCLE: 5
 All warmup complete: 2
Channel 0 Bank busy for read cycles: 0
Channel 0 Bank busy for write cycles: 0
Channel 0
Rank 0
0banks busy for read cycles: 143521616
0banks busy for write cycles: 873997
1banks busy for read cycles: 264180050
1banks busy for write cycles: 148187718
2banks busy for read cycles: 97301925
2banks busy for write cycles: 78481759
3banks busy for read cycles: 31873995
3banks busy for write cycles: 33843017
4banks busy for read cycles: 9214268
4banks busy for write cycles: 14586521
5banks busy for read cycles: 2561168
5banks busy for write cycles: 7830016
6banks busy for read cycles: 877019
6banks busy for write cycles: 6020876
7banks busy for read cycles: 525233
7banks busy for write cycles: 6467786
8banks busy for read cycles: 2025575
8banks busy for write cycles: 10353500

CPU 0 Branch Prediction Accuracy: 90.5062% MPKI: 19.3845 Average ROB Occupancy at Mispredict: 25.2704
Branch types
NOT_BRANCH: 159163481 79.5817%
BRANCH_DIRECT_JUMP: 0 0%
BRANCH_INDIRECT: 0 0%
BRANCH_CONDITIONAL: 40836226 20.4181%
BRANCH_DIRECT_CALL: 0 0%
BRANCH_INDIRECT_CALL: 0 0%
BRANCH_RETURN: 0 0%
BRANCH_OTHER: 0 0%

DRAM PAGES: 1048576
Allocated PAGES: 19633
