
*** ChampSim Multicore Out-of-Order Simulator ***

Warmup Instructions: 50000000
Simulation Instructions: 200000000
Number of CPUs: 1
LLC sets: 2048
LLC ways: 16
L0D sets: 16
L0D ways: 2
ROB size: 352
LQ size: 128
SQ size: 72
Secure Berti: OFF
Berti: OFF
Berti Fill: OFF
On commit prefetching: ON
Hit-based filter: ON
Time-guarding: ON
Free-slotting: ON
Leap-frogging: ON
Train prefetcher on L0D bypass: OFF
No translation penalty for prefetchers: OFF
Prefetch to L0D only: OFF
Prefetch to L1D only: OFF
Clean evictions: ON
Commit loads: ON
Commit write: ON
Fill commit loads to L2C, LLC: ON
DRAM IO FREQUENCY: 6400
ROB SIZE: 352
Off-chip DRAM Size: 4096 MB Channels: 1 Width: 64-bit Data Rate: 6400 MT/s
CPU 0 runs /home/sumon/secure_berti/GhostMinion/../../traces/gap/cc-6.trace.gz
.gz
BTB has LRU replacement policy
ITLB has LRU replacement policy
DTLB has LRU replacement policy
STLB has LRU replacement policy
L1I has LRU replacement policy
L0D has LRU replacement policy
History Sets: 8
History Ways: 16
BERTI Size: 16
BERTI Stride Size: 16
L1D has LRU replacement policy
L2C has LRU replacement policy
LLC has LRU replacement policy
Heartbeat CPU 0 instructions: 10000000 cycles: 3258797 heartbeat IPC: 3.06862 cumulative IPC: 3.06862 (Simulation time: 0 hr 0 min 40 sec) 
Heartbeat CPU 0 instructions: 20000002 cycles: 6532164 heartbeat IPC: 3.05496 cumulative IPC: 3.06177 (Simulation time: 0 hr 1 min 24 sec) 
Heartbeat CPU 0 instructions: 30000001 cycles: 9815108 heartbeat IPC: 3.04605 cumulative IPC: 3.05651 (Simulation time: 0 hr 2 min 8 sec) 
Heartbeat CPU 0 instructions: 40000000 cycles: 13102147 heartbeat IPC: 3.04225 cumulative IPC: 3.05293 (Simulation time: 0 hr 2 min 52 sec) 
Heartbeat CPU 0 instructions: 50000003 cycles: 16393457 heartbeat IPC: 3.0383 cumulative IPC: 3.05 (Simulation time: 0 hr 3 min 35 sec) 

Warmup complete CPU 0 instructions: 50000003 cycles: 16393457 (Simulation time: 0 hr 3 min 35 sec) 

Heartbeat CPU 0 instructions: 60000002 cycles: 63598163 heartbeat IPC: 0.211843 cumulative IPC: 0.211843 (Simulation time: 0 hr 4 min 32 sec) 
Heartbeat CPU 0 instructions: 70000002 cycles: 112587932 heartbeat IPC: 0.204124 cumulative IPC: 0.207912 (Simulation time: 0 hr 5 min 30 sec) 
Heartbeat CPU 0 instructions: 80000000 cycles: 162543427 heartbeat IPC: 0.200178 cumulative IPC: 0.205269 (Simulation time: 0 hr 6 min 25 sec) 
Heartbeat CPU 0 instructions: 90000002 cycles: 210385974 heartbeat IPC: 0.209019 cumulative IPC: 0.206194 (Simulation time: 0 hr 7 min 20 sec) 
Heartbeat CPU 0 instructions: 100000000 cycles: 257762663 heartbeat IPC: 0.211074 cumulative IPC: 0.207152 (Simulation time: 0 hr 8 min 15 sec) 
Heartbeat CPU 0 instructions: 110000000 cycles: 304548758 heartbeat IPC: 0.213739 cumulative IPC: 0.208221 (Simulation time: 0 hr 9 min 9 sec) 
Heartbeat CPU 0 instructions: 120000003 cycles: 353384641 heartbeat IPC: 0.204768 cumulative IPC: 0.207721 (Simulation time: 0 hr 10 min 6 sec) 
Heartbeat CPU 0 instructions: 130000001 cycles: 403943122 heartbeat IPC: 0.197791 cumulative IPC: 0.206425 (Simulation time: 0 hr 11 min 3 sec) 
Heartbeat CPU 0 instructions: 140000002 cycles: 454379077 heartbeat IPC: 0.198271 cumulative IPC: 0.205486 (Simulation time: 0 hr 11 min 58 sec) 
Heartbeat CPU 0 instructions: 150000000 cycles: 501035284 heartbeat IPC: 0.214334 cumulative IPC: 0.206338 (Simulation time: 0 hr 12 min 54 sec) 
Heartbeat CPU 0 instructions: 160000001 cycles: 550544351 heartbeat IPC: 0.201983 cumulative IPC: 0.205934 (Simulation time: 0 hr 13 min 46 sec) 
Heartbeat CPU 0 instructions: 170000002 cycles: 596627994 heartbeat IPC: 0.216997 cumulative IPC: 0.206813 (Simulation time: 0 hr 14 min 38 sec) 
Heartbeat CPU 0 instructions: 180000000 cycles: 645508882 heartbeat IPC: 0.204579 cumulative IPC: 0.206639 (Simulation time: 0 hr 15 min 29 sec) 
Heartbeat CPU 0 instructions: 190000002 cycles: 695150816 heartbeat IPC: 0.201443 cumulative IPC: 0.206259 (Simulation time: 0 hr 16 min 20 sec) 
Heartbeat CPU 0 instructions: 200000003 cycles: 743740779 heartbeat IPC: 0.205804 cumulative IPC: 0.206229 (Simulation time: 0 hr 17 min 12 sec) 
Heartbeat CPU 0 instructions: 210000002 cycles: 791399230 heartbeat IPC: 0.209826 cumulative IPC: 0.20645 (Simulation time: 0 hr 18 min 2 sec) 
Heartbeat CPU 0 instructions: 220000000 cycles: 839671158 heartbeat IPC: 0.20716 cumulative IPC: 0.206492 (Simulation time: 0 hr 18 min 52 sec) 
Heartbeat CPU 0 instructions: 230000000 cycles: 888082054 heartbeat IPC: 0.206565 cumulative IPC: 0.206496 (Simulation time: 0 hr 19 min 42 sec) 
Heartbeat CPU 0 instructions: 240000001 cycles: 939411129 heartbeat IPC: 0.194821 cumulative IPC: 0.205847 (Simulation time: 0 hr 20 min 32 sec) 
Heartbeat CPU 0 instructions: 250000003 cycles: 991734070 heartbeat IPC: 0.191121 cumulative IPC: 0.205057 (Simulation time: 0 hr 21 min 22 sec) 
Finished CPU 0 instructions: 200000000 cycles: 975340613 cumulative IPC: 0.205057 (Simulation time: 0 hr 21 min 22 sec) 
 Instruction ID: 250000031

ChampSim completed all CPUs

Region of Interest Statistics

CPU 0 cumulative IPC: 0.205057 instructions: 200000000 cycles: 975340613
ITLB SPEC fills:          0  NON-SPEC fills:          0
ITLB Test counter :          0
ITLB Leapfrog:          0
ITLB MSHR merge:          0
ITLB TOTAL     ACCESS:   36354182  HIT:   36354182  MISS:          0  HIT %:        100  MISS %:          0   MPKI: 0
ITLB LOAD TRANSLATION NON_SPEC    ACCESS:   36354182  HIT:   36354182  MISS:          0  HIT %:        100  MISS %:          0   MPKI: 0
ITLB PREFETCH  REQUESTED:          0  ISSUED:          0  USEFUL:          0  USELESS:          0
ITLB USEFUL LOAD PREFETCHES:          0 PREFETCH ISSUED TO LOWER LEVEL:          0  ACCURACY: -nan
ITLB TIMELY PREFETCHES:          0 LATE PREFETCHES: 0 DROPPED PREFETCHES: 0
ITLB COMMIT LATE PREFETCHES: 0 MISSED OPPORTUNITY: 0 LATE IN PQ: 0 UNCOVERED: 0
ITLB COMMIT LATE MSHR PREFETCHES: 0
ITLB MPKI TOTAL: 0 MSHR LATE: 0 PQ LATE: 0 COMMIT LATE: 0 MISSED OPPORTUNITY: 0 UNCOVERED: 0
ITLB PREFETCHES SAME FILL-ORIGIN LEVEL: 0 DIFFERENT FILL-ORIGIN LEVEL: 0
ITLB AVERAGE MISS LATENCY: -nan cycles
ITLB AVERAGE MISS LATENCY LOAD: -nan cycles
ITLB AVERAGE MISS LATENCY PREFETCH: -nan cycles
ITLB AVERAGE MSHR OCCUPANCY: 0
ITLB MSHR FULL: 0
ITLB RQ	ACCESS:   36958215	FORWARD:          0	MERGED:     604034	TO_CACHE:   36354181

DTLB SPEC fills:          0  NON-SPEC fills:          0
DTLB Test counter :          0
DTLB Leapfrog:          0
DTLB MSHR merge:          0
DTLB TOTAL     ACCESS:   51522600  HIT:   40946865  MISS:   10575735  HIT %:    79.4736  MISS %:    20.5264   MPKI: 52.8787
DTLB LOAD TRANSLATION NON_SPEC    ACCESS:   51522600  HIT:   40946865  MISS:   10575735  HIT %:    79.4736  MISS %:    20.5264   MPKI: 52.8787
DTLB PREFETCH  REQUESTED:          0  ISSUED:          0  USEFUL:          0  USELESS:          0
DTLB USEFUL LOAD PREFETCHES:          0 PREFETCH ISSUED TO LOWER LEVEL:          0  ACCURACY: -nan
DTLB TIMELY PREFETCHES:          0 LATE PREFETCHES: 0 DROPPED PREFETCHES: 0
DTLB COMMIT LATE PREFETCHES: 0 MISSED OPPORTUNITY: 0 LATE IN PQ: 0 UNCOVERED: 0
DTLB COMMIT LATE MSHR PREFETCHES: 0
DTLB MPKI TOTAL: 0 MSHR LATE: 0 PQ LATE: 0 COMMIT LATE: 0 MISSED OPPORTUNITY: 0 UNCOVERED: 0
DTLB PREFETCHES SAME FILL-ORIGIN LEVEL: 0 DIFFERENT FILL-ORIGIN LEVEL: 0
DTLB AVERAGE MISS LATENCY: 9.48364 cycles
DTLB AVERAGE MISS LATENCY LOAD: -nan cycles
DTLB AVERAGE MISS LATENCY PREFETCH: -nan cycles
DTLB AVERAGE MSHR OCCUPANCY: 0.345193
DTLB MSHR FULL: 0.00321003
DTLB RQ	ACCESS:   53258196	FORWARD:          0	MERGED:    1026635	TO_CACHE:   52231561

STLB SPEC fills:          0  NON-SPEC fills:          0
STLB Test counter :          0
STLB Leapfrog:          0
STLB MSHR merge:          0
STLB TOTAL     ACCESS:   31425243  HIT:   31409115  MISS:      16128  HIT %:    99.9487  MISS %:  0.0513218   MPKI: 0.08064
STLB LOAD TRANSLATION NON_SPEC    ACCESS:   10575734  HIT:   10559610  MISS:      16124  HIT %:    99.8475  MISS %:   0.152462   MPKI: 0.08062
STLB TRANSLATION FROM L1D PREFETCHER NON_SPEC    ACCESS:   20849509  HIT:   20849505  MISS:          4  HIT %:        100  MISS %: 1.91851e-05   MPKI: 2e-05
STLB PREFETCH  REQUESTED:          0  ISSUED:          0  USEFUL:          3  USELESS:          1
STLB USEFUL LOAD PREFETCHES:          3 PREFETCH ISSUED TO LOWER LEVEL:          0  ACCURACY: inf
STLB TIMELY PREFETCHES:          3 LATE PREFETCHES: 7797 DROPPED PREFETCHES: 1435578
STLB COMMIT LATE PREFETCHES: 0 MISSED OPPORTUNITY: 0 LATE IN PQ: 0 UNCOVERED: 0
STLB COMMIT LATE MSHR PREFETCHES: 0
STLB MPKI TOTAL: 0 MSHR LATE: 0.038985 PQ LATE: 0 COMMIT LATE: 0 MISSED OPPORTUNITY: 0 UNCOVERED: 0
STLB PREFETCHES SAME FILL-ORIGIN LEVEL: 0 DIFFERENT FILL-ORIGIN LEVEL: 0
STLB AVERAGE MISS LATENCY: 173.221 cycles
STLB AVERAGE MISS LATENCY LOAD: -nan cycles
STLB AVERAGE MISS LATENCY PREFETCH: -nan cycles
STLB AVERAGE MSHR OCCUPANCY: 0.136059
STLB MSHR FULL: 0
STLB RQ	ACCESS:  148424685	FORWARD:          0	MERGED:  115481042	TO_CACHE:   32943643

STLB Hit, L1D data hit: 0
STLB Hit, L2C data hit: 0
STLB Hit, LLC data hit: 0
STLB Hit, LLC data miss: 0
STLB STLB hints to L2: 0
L0D SPEC fills:   28292190  NON-SPEC fills:          0
L0D TimeGuard Request with older TS:     473318 Restricted eviction:     187816 read:     483079
L0D Test counter :          0
L0D Leapfrog:          0
L0D MSHR merge:     720410
L0D TOTAL     ACCESS:   52291075  HIT:   12493517  MISS:   39797558  HIT %:    23.8923  MISS %:    76.1077   MPKI: 198.988
L0D LOAD      TOTAL       ACCESS:   52291075  HIT:   12493517  MISS:   39797558  HIT %:    23.8923  MISS %:    76.1077   MPKI: 198.988
L0D LOAD      NON_SPEC    ACCESS:   11958930  HIT:     641378  MISS:   11317552  HIT %:    5.36317  MISS %:    94.6368   MPKI: 56.5878
L0D LOAD      SPEC        ACCESS:   40332145  HIT:   11852139  MISS:   28480006  HIT %:    29.3863  MISS %:    70.6137   MPKI: 142.4
L0D PREFETCH  REQUESTED:          0  ISSUED:          0  USEFUL:          0  USELESS:          0
L0D USEFUL LOAD PREFETCHES:          0 PREFETCH ISSUED TO LOWER LEVEL:          0  ACCURACY: -nan
L0D TIMELY PREFETCHES:          0 LATE PREFETCHES: 0 DROPPED PREFETCHES: 0
L0D COMMIT LATE PREFETCHES: 0 MISSED OPPORTUNITY: 0 LATE IN PQ: 0 UNCOVERED: 0
L0D COMMIT LATE MSHR PREFETCHES: 0
L0D MPKI TOTAL: 202.59 MSHR LATE: 0 PQ LATE: 0 COMMIT LATE: 0 MISSED OPPORTUNITY: 0 UNCOVERED: 0
L0D PREFETCHES SAME FILL-ORIGIN LEVEL: 0 DIFFERENT FILL-ORIGIN LEVEL: 0
L0D AVERAGE MISS LATENCY: 30.2956 cycles
L0D AVERAGE MISS LATENCY LOAD: 30.2956 cycles
L0D AVERAGE MISS LATENCY PREFETCH: -nan cycles
L0D AVERAGE MSHR OCCUPANCY: 1.66771
L0D MSHR FULL: 0.0301739
L0D RQ	ACCESS:   57742015	FORWARD:          0	MERGED:    4730536	TO_CACHE:   53011479
L0D WQ	ACCESS:     246717	FORWARD:          0	MERGED:          0	TO_CACHE:     246717

L1D SPEC fills:          0  NON-SPEC fills:    4778715
L1D Test counter :          0
L1D Leapfrog:          0
L1D MSHR merge:      12658
L1D TOTAL     ACCESS:  136441682  HIT:  109233881  MISS:   27207801  HIT %:     80.059  MISS %:     19.941   MPKI: 136.039
L1D LOAD      TOTAL       ACCESS:   39797161  HIT:   24331904  MISS:   15465257  HIT %:    61.1398  MISS %:    38.8602   MPKI: 77.3263
L1D LOAD      NON_SPEC    ACCESS:   11317264  HIT:    6538549  MISS:    4778715  HIT %:     57.775  MISS %:     42.225   MPKI: 23.8936
L1D LOAD      SPEC        ACCESS:   28479897  HIT:   17793355  MISS:   10686542  HIT %:    62.4769  MISS %:    37.5231   MPKI: 53.4327
L1D RFO       NON_SPEC    ACCESS:     246029  HIT:     246027  MISS:          2  HIT %:    99.9992  MISS %: 0.000812912   MPKI: 1e-05
L1D PREFETCH  NON_SPEC    ACCESS:   85526081  HIT:   84464470  MISS:    1061611  HIT %:    98.7587  MISS %:    1.24127   MPKI: 5.30806
L1D COMMIT LOAD NON_SPEC    ACCESS:     350106  HIT:     179700  MISS:     170406  HIT %:    51.3273  MISS %:    48.6727   MPKI: 0.85203
L1D COMMIT WRITE NON_SPEC    ACCESS:   10522305  HIT:      11780  MISS:   10510525  HIT %:   0.111953  MISS %:     99.888   MPKI: 52.5526
L1D PREFETCH  REQUESTED:  234749817  ISSUED:  185129281  USEFUL:    1040555  USELESS:      21066
L1D USEFUL LOAD PREFETCHES:    1040555 PREFETCH ISSUED TO LOWER LEVEL:   47758623  ACCURACY: 2.17878
L1D TIMELY PREFETCHES:    1040555 LATE PREFETCHES: 12262 DROPPED PREFETCHES: 4224941
L1D COMMIT LATE PREFETCHES: 0 MISSED OPPORTUNITY: 0 LATE IN PQ: 0 UNCOVERED: 0
L1D COMMIT LATE MSHR PREFETCHES: 0
L1D MPKI TOTAL: 77.3283 MSHR LATE: 0.06131 PQ LATE: 0 COMMIT LATE: 0 MISSED OPPORTUNITY: 0 UNCOVERED: 0
L1D PREFETCHES SAME FILL-ORIGIN LEVEL: 1073873 DIFFERENT FILL-ORIGIN LEVEL: 46684750
L1D AVERAGE MISS LATENCY: 43.289 cycles
L1D AVERAGE MISS LATENCY LOAD: 64.9539 cycles
L1D AVERAGE MISS LATENCY PREFETCH: 157.114 cycles
L1D AVERAGE MSHR OCCUPANCY: 1.11549
L1D MSHR FULL: 2.05733e-05
L1D RQ	ACCESS:   40177419	FORWARD:          0	MERGED:      24035	TO_CACHE:   40148375
L1D WQ	ACCESS:   10770222	FORWARD:       5009	MERGED:       1198	TO_CACHE:   10769024
L1D PQ	ACCESS:  185129281	FORWARD:          0	MERGED:   47280330	TO_CACHE:  137848951

L1D UNIQUE REGIONS ACCESSED: 0
L1D REGIONS CONFLICTS: 0
L1D Cross Page Prefetch Requests: 17143034
L1D Same Page Prefetch Requests: 216172222
L1D ROI Sum of L1D PQ occupancy: 3253239933
L1D PREFETCHES PUSHED FROM L2C: 0
L1I SPEC fills:          0  NON-SPEC fills:          0
L1I Test counter :          0
L1I Leapfrog:          0
L1I MSHR merge:          0
L1I TOTAL     ACCESS:   36958216  HIT:   36958216  MISS:          0  HIT %:        100  MISS %:          0   MPKI: 0
L1I LOAD      TOTAL       ACCESS:   36958216  HIT:   36958216  MISS:          0  HIT %:        100  MISS %:          0   MPKI: 0
L1I LOAD      NON_SPEC    ACCESS:   36958216  HIT:   36958216  MISS:          0  HIT %:        100  MISS %:          0   MPKI: 0
L1I PREFETCH  REQUESTED:          0  ISSUED:          0  USEFUL:          0  USELESS:          0
L1I USEFUL LOAD PREFETCHES:          0 PREFETCH ISSUED TO LOWER LEVEL:          0  ACCURACY: -nan
L1I TIMELY PREFETCHES:          0 LATE PREFETCHES: 0 DROPPED PREFETCHES: 0
L1I COMMIT LATE PREFETCHES: 0 MISSED OPPORTUNITY: 0 LATE IN PQ: 0 UNCOVERED: 0
L1I COMMIT LATE MSHR PREFETCHES: 0
L1I MPKI TOTAL: 0 MSHR LATE: 0 PQ LATE: 0 COMMIT LATE: 0 MISSED OPPORTUNITY: 0 UNCOVERED: 0
L1I PREFETCHES SAME FILL-ORIGIN LEVEL: 0 DIFFERENT FILL-ORIGIN LEVEL: 0
L1I AVERAGE MISS LATENCY: -nan cycles
L1I AVERAGE MISS LATENCY LOAD: -nan cycles
L1I AVERAGE MISS LATENCY PREFETCH: -nan cycles
L1I AVERAGE MSHR OCCUPANCY: 0
L1I MSHR FULL: 0
L1I RQ	ACCESS:   60531157	FORWARD:          0	MERGED:   23572942	TO_CACHE:   36958215

BTB SPEC fills:          0  NON-SPEC fills:          0
BTB Test counter :          0
BTB Leapfrog:          0
BTB MSHR merge:          0
BTB TOTAL     ACCESS:   41566926  HIT:   41566921  MISS:          5  HIT %:        100  MISS %: 1.20288e-05   MPKI: 2.5e-05
BTB BRANCH_DIRECT_JUMP	ACCESS:          0  HIT:          0  MISS:          0
BTB BRANCH_INDIRECT	ACCESS:          0  HIT:          0  MISS:          0
BTB BRANCH_CONDITIONAL	ACCESS:   41566926  HIT:   41566921  MISS:          5
BTB BRANCH_DIRECT_CALL	ACCESS:          0  HIT:          0  MISS:          0
BTB BRANCH_INDIRECT_CALL	ACCESS:          0  HIT:          0  MISS:          0
BTB BRANCH_RETURN	ACCESS:          0  HIT:          0  MISS:          0
BTB BRANCH_OTHER ACCESS:          0  HIT:          0  MISS:          0

L2C SPEC fills:          0  NON-SPEC fills:    3163357
L2C Test counter :          0
L2C Leapfrog:          0
L2C MSHR merge:      15020
L2C TOTAL     ACCESS:   77585026  HIT:   58176823  MISS:   19408203  HIT %:    74.9846  MISS %:    25.0154   MPKI: 97.041
L2C LOAD      TOTAL       ACCESS:   15452800  HIT:    4853826  MISS:   10598974  HIT %:    31.4107  MISS %:    68.5893   MPKI: 52.9949
L2C LOAD      NON_SPEC    ACCESS:    4778381  HIT:    1615024  MISS:    3163357  HIT %:    33.7986  MISS %:    66.2014   MPKI: 15.8168
L2C LOAD      SPEC        ACCESS:   10674419  HIT:    3238802  MISS:    7435617  HIT %:    30.3417  MISS %:    69.6583   MPKI: 37.1781
L2C RFO       NON_SPEC    ACCESS:          2  HIT:          2  MISS:          0  HIT %:        100  MISS %:          0   MPKI: 0
L2C PREFETCH  NON_SPEC    ACCESS:   47227872  HIT:   45856063  MISS:    1371809  HIT %:    97.0953  MISS %:    2.90466   MPKI: 6.85905
L2C WRITEBACK NON_SPEC    ACCESS:      71030  HIT:      70721  MISS:        309  HIT %:     99.565  MISS %:   0.435027   MPKI: 0.001545
L2C CLEAN_EVICTION NON_SPEC    ACCESS:    7368575  HIT:      34725  MISS:    7333850  HIT %:   0.471258  MISS %:    99.5287   MPKI: 36.6692
L2C COMMIT LOAD NON_SPEC    ACCESS:     170404  HIT:      71840  MISS:      98564  HIT %:    42.1586  MISS %:    57.8414   MPKI: 0.49282
L2C LOAD TRANSLATION NON_SPEC    ACCESS:      80589  HIT:      80586  MISS:          3  HIT %:    99.9963  MISS %: 0.00372259   MPKI: 1.5e-05
L2C TRANSLATION FROM L1D PREFETCHER NON_SPEC    ACCESS:    7213754  HIT:    7209060  MISS:       4694  HIT %:    99.9349  MISS %:  0.0650701   MPKI: 0.02347
L2C PREFETCH  REQUESTED:          0  ISSUED:          0  USEFUL:      95146  USELESS:    1281559
L2C USEFUL LOAD PREFETCHES:      95146 PREFETCH ISSUED TO LOWER LEVEL:    1386851  ACCURACY: 6.86058
L2C TIMELY PREFETCHES:      95146 LATE PREFETCHES: 15042 DROPPED PREFETCHES: 0
L2C COMMIT LATE PREFETCHES: 0 MISSED OPPORTUNITY: 0 LATE IN PQ: 0 UNCOVERED: 0
L2C COMMIT LATE MSHR PREFETCHES: 0
L2C MPKI TOTAL: 52.9949 MSHR LATE: 0.07521 PQ LATE: 0 COMMIT LATE: 0 MISSED OPPORTUNITY: 0 UNCOVERED: 0
L2C PREFETCHES SAME FILL-ORIGIN LEVEL: 628459 DIFFERENT FILL-ORIGIN LEVEL: 0
L2C AVERAGE MISS LATENCY: 55.0464 cycles
L2C AVERAGE MISS LATENCY LOAD: 76.489 cycles
L2C AVERAGE MISS LATENCY PREFETCH: 184.571 cycles
L2C AVERAGE MSHR OCCUPANCY: 1.2095
L2C MSHR FULL: 0
L2C RQ	ACCESS:   22917744	FORWARD:          0	MERGED:          0	TO_CACHE:   22917548
L2C WQ	ACCESS:    7439607	FORWARD:        196	MERGED:          1	TO_CACHE:    7439606
L2C PQ	ACCESS:   47758623	FORWARD:          0	MERGED:       4957	TO_CACHE:   47753666

L2C Instructions Evicting Data 0
L2C Translations Evicting Data 4696
L2C Data Evicting Data 4631931
L2C Instructions Evicting Instructions 0
L2C Translations Evicting Instructions 0
L2C Data Evicting Instructions 0
L2C Instructions Evicting Translations 0
L2C Translations Evicting Translations 1
L2C Data Evicting Translations 1799
L2C Dense regions hint from L2: 0
PSCL5 SPEC fills:          0  NON-SPEC fills:          0
PSCL5 Test counter :          0
PSCL5 Leapfrog:          0
PSCL5 MSHR merge:          0
PSCL5 TOTAL     ACCESS:          0  HIT:          0  MISS:          0  HIT %:       -nan  MISS %:       -nan   MPKI: 0
PSCL5 PREFETCH  REQUESTED:          0  ISSUED:          0  USEFUL:          0  USELESS:          0
PSCL5 USEFUL LOAD PREFETCHES:          0 PREFETCH ISSUED TO LOWER LEVEL:          0  ACCURACY: -nan
PSCL5 TIMELY PREFETCHES:          0 LATE PREFETCHES: 0 DROPPED PREFETCHES: 0
PSCL5 COMMIT LATE PREFETCHES: 0 MISSED OPPORTUNITY: 0 LATE IN PQ: 0 UNCOVERED: 0
PSCL5 COMMIT LATE MSHR PREFETCHES: 0
PSCL5 MPKI TOTAL: 0 MSHR LATE: 0 PQ LATE: 0 COMMIT LATE: 0 MISSED OPPORTUNITY: 0 UNCOVERED: 0
PSCL5 PREFETCHES SAME FILL-ORIGIN LEVEL: 0 DIFFERENT FILL-ORIGIN LEVEL: 0

PSCL4 SPEC fills:          0  NON-SPEC fills:          0
PSCL4 Test counter :          0
PSCL4 Leapfrog:          0
PSCL4 MSHR merge:          0
PSCL4 TOTAL     ACCESS:          0  HIT:          0  MISS:          0  HIT %:       -nan  MISS %:       -nan   MPKI: 0
PSCL4 PREFETCH  REQUESTED:          0  ISSUED:          0  USEFUL:          0  USELESS:          0
PSCL4 USEFUL LOAD PREFETCHES:          0 PREFETCH ISSUED TO LOWER LEVEL:          0  ACCURACY: -nan
PSCL4 TIMELY PREFETCHES:          0 LATE PREFETCHES: 0 DROPPED PREFETCHES: 0
PSCL4 COMMIT LATE PREFETCHES: 0 MISSED OPPORTUNITY: 0 LATE IN PQ: 0 UNCOVERED: 0
PSCL4 COMMIT LATE MSHR PREFETCHES: 0
PSCL4 MPKI TOTAL: 0 MSHR LATE: 0 PQ LATE: 0 COMMIT LATE: 0 MISSED OPPORTUNITY: 0 UNCOVERED: 0
PSCL4 PREFETCHES SAME FILL-ORIGIN LEVEL: 0 DIFFERENT FILL-ORIGIN LEVEL: 0

PSCL3 SPEC fills:          0  NON-SPEC fills:          0
PSCL3 Test counter :          0
PSCL3 Leapfrog:          0
PSCL3 MSHR merge:          0
PSCL3 TOTAL     ACCESS:          0  HIT:          0  MISS:          0  HIT %:       -nan  MISS %:       -nan   MPKI: 0
PSCL3 PREFETCH  REQUESTED:          0  ISSUED:          0  USEFUL:          0  USELESS:          0
PSCL3 USEFUL LOAD PREFETCHES:          0 PREFETCH ISSUED TO LOWER LEVEL:          0  ACCURACY: -nan
PSCL3 TIMELY PREFETCHES:          0 LATE PREFETCHES: 0 DROPPED PREFETCHES: 0
PSCL3 COMMIT LATE PREFETCHES: 0 MISSED OPPORTUNITY: 0 LATE IN PQ: 0 UNCOVERED: 0
PSCL3 COMMIT LATE MSHR PREFETCHES: 0
PSCL3 MPKI TOTAL: 0 MSHR LATE: 0 PQ LATE: 0 COMMIT LATE: 0 MISSED OPPORTUNITY: 0 UNCOVERED: 0
PSCL3 PREFETCHES SAME FILL-ORIGIN LEVEL: 0 DIFFERENT FILL-ORIGIN LEVEL: 0

PSCL2 SPEC fills:          0  NON-SPEC fills:          0
PSCL2 Test counter :          0
PSCL2 Leapfrog:          0
PSCL2 MSHR merge:          0
PSCL2 TOTAL     ACCESS:          0  HIT:          0  MISS:          0  HIT %:       -nan  MISS %:       -nan   MPKI: 0
PSCL2 PREFETCH  REQUESTED:          0  ISSUED:          0  USEFUL:          0  USELESS:          0
PSCL2 USEFUL LOAD PREFETCHES:          0 PREFETCH ISSUED TO LOWER LEVEL:          0  ACCURACY: -nan
PSCL2 TIMELY PREFETCHES:          0 LATE PREFETCHES: 0 DROPPED PREFETCHES: 0
PSCL2 COMMIT LATE PREFETCHES: 0 MISSED OPPORTUNITY: 0 LATE IN PQ: 0 UNCOVERED: 0
PSCL2 COMMIT LATE MSHR PREFETCHES: 0
PSCL2 MPKI TOTAL: 0 MSHR LATE: 0 PQ LATE: 0 COMMIT LATE: 0 MISSED OPPORTUNITY: 0 UNCOVERED: 0
PSCL2 PREFETCHES SAME FILL-ORIGIN LEVEL: 0 DIFFERENT FILL-ORIGIN LEVEL: 0

LLC SPEC fills:          0  NON-SPEC fills:    1078969
LLC Test counter :          0
LLC Leapfrog:          0
LLC MSHR merge:          0
LLC TOTAL     ACCESS:   19500089  HIT:   11667473  MISS:    7832616  HIT %:    59.8329  MISS %:    40.1671   MPKI: 39.1631
LLC LOAD      TOTAL       ACCESS:   10583881  HIT:    6968391  MISS:    3615490  HIT %:    65.8397  MISS %:    34.1603   MPKI: 18.0774
LLC LOAD      NON_SPEC    ACCESS:    3157008  HIT:    2078039  MISS:    1078969  HIT %:    65.8231  MISS %:    34.1769   MPKI: 5.39485
LLC LOAD      SPEC        ACCESS:    7426873  HIT:    4890352  MISS:    2536521  HIT %:    65.8467  MISS %:    34.1533   MPKI: 12.6826
LLC PREFETCH  NON_SPEC    ACCESS:    1386851  HIT:     120955  MISS:    1265896  HIT %:    8.72156  MISS %:    91.2784   MPKI: 6.32948
LLC WRITEBACK NON_SPEC    ACCESS:      66261  HIT:      66215  MISS:         46  HIT %:    99.9306  MISS %:  0.0694224   MPKI: 0.00023
LLC CLEAN_EVICTION NON_SPEC    ACCESS:    7359894  HIT:    4418509  MISS:    2941385  HIT %:     60.035  MISS %:     39.965   MPKI: 14.7069
LLC COMMIT LOAD NON_SPEC    ACCESS:      98505  HIT:      90983  MISS:       7522  HIT %:    92.3638  MISS %:    7.63616   MPKI: 0.03761
LLC LOAD TRANSLATION NON_SPEC    ACCESS:          3  HIT:          3  MISS:          0  HIT %:        100  MISS %:          0   MPKI: 0
LLC TRANSLATION FROM L1D PREFETCHER NON_SPEC    ACCESS:       4694  HIT:       2417  MISS:       2277  HIT %:    51.4913  MISS %:    48.5087   MPKI: 0.011385
LLC PREFETCH  REQUESTED:          0  ISSUED:          0  USEFUL:      54750  USELESS:    1214479
LLC USEFUL LOAD PREFETCHES:      54750 PREFETCH ISSUED TO LOWER LEVEL:    1265896  ACCURACY: 4.325
LLC TIMELY PREFETCHES:      54750 LATE PREFETCHES: 0 DROPPED PREFETCHES: 0
LLC COMMIT LATE PREFETCHES: 0 MISSED OPPORTUNITY: 0 LATE IN PQ: 0 UNCOVERED: 0
LLC COMMIT LATE MSHR PREFETCHES: 0
LLC MPKI TOTAL: 18.0774 MSHR LATE: 0 PQ LATE: 0 COMMIT LATE: 0 MISSED OPPORTUNITY: 0 UNCOVERED: 0
LLC PREFETCHES SAME FILL-ORIGIN LEVEL: 0 DIFFERENT FILL-ORIGIN LEVEL: 0
LLC AVERAGE MISS LATENCY: 98.8201 cycles
LLC AVERAGE MISS LATENCY LOAD: 154.39 cycles
LLC AVERAGE MISS LATENCY PREFETCH: 169.428 cycles
LLC AVERAGE MSHR OCCUPANCY: 0.782973
LLC MSHR FULL: 0
LLC RQ	ACCESS:   10687192	FORWARD:          0	MERGED:          0	TO_CACHE:   10687082
LLC WQ	ACCESS:    7426154	FORWARD:        110	MERGED:          0	TO_CACHE:    7426154
LLC PQ	ACCESS:    1386851	FORWARD:          0	MERGED:          0	TO_CACHE:    1386851

LLC Dense regions hint to LLC: 0

RAW hits: 22189
Loads Generated: 57764200
Loads sent to L1D: 57742015
Stores Generated: 246717
Stores sent to L1D: 246717
Major fault: 0 Minor fault: 20918
Allocated PAGES: 20918
Total Load insts: 70972883
Total Non-spec loads: 12394045
Percentage of speculative loads: 82.5369

LeapFrogging counter: 330983
Commit hits: 27896258 miss: 17791885
Commit hit %: 61.058 miss %: 38.942
Commits not translated: 0
Loads retired: 15465255
Stores retired: 246717
Cache fills: 15465257
L1D response latency: 64.9539 cycles
Load retirement latency: 129.272 cycles
OOO test counter: 0
Discarded buffer inserts: 27896258 hits: 22774 hit %: 0.0816382
Filter prediction accuracy: 99.8777
LATENCY_FILL: 5.59466 10679639

DRAM Statistics
 CHANNEL 0
 RQ ROW_BUFFER_HIT:     560560  ROW_BUFFER_MISS:    4330039
 DBUS_CONGESTED:       2921
 WQ ROW_BUFFER_HIT:    1111539  ROW_BUFFER_MISS:    2232460  FULL:          0

 AVG_CONGESTED_CYCLE: 5
 All warmup complete: 2
Channel 0 Bank busy for read cycles: 0
Channel 0 Bank busy for write cycles: 0
Channel 0
Rank 0
0banks busy for read cycles: 179058623
0banks busy for write cycles: 1002039
1banks busy for read cycles: 307363049
1banks busy for write cycles: 171659921
2banks busy for read cycles: 104251474
2banks busy for write cycles: 83271945
3banks busy for read cycles: 32650722
3banks busy for write cycles: 34782908
4banks busy for read cycles: 8585067
4banks busy for write cycles: 16012044
5banks busy for read cycles: 1795530
5banks busy for write cycles: 9621656
6banks busy for read cycles: 343557
6banks busy for write cycles: 7444621
7banks busy for read cycles: 400421
7banks busy for write cycles: 7064939
8banks busy for read cycles: 1955668
8banks busy for write cycles: 8076430

CPU 0 Branch Prediction Accuracy: 88.1493% MPKI: 24.7463 Average ROB Occupancy at Mispredict: 17.4715
Branch types
NOT_BRANCH: 158236160 79.1181%
BRANCH_DIRECT_JUMP: 0 0%
BRANCH_INDIRECT: 0 0%
BRANCH_CONDITIONAL: 41763493 20.8817%
BRANCH_DIRECT_CALL: 0 0%
BRANCH_INDIRECT_CALL: 0 0%
BRANCH_RETURN: 0 0%
BRANCH_OTHER: 0 0%

DRAM PAGES: 1048576
Allocated PAGES: 20918
