
*** ChampSim Multicore Out-of-Order Simulator ***

Warmup Instructions: 50000000
Simulation Instructions: 200000000
Number of CPUs: 1
LLC sets: 2048
LLC ways: 16
L0D sets: 16
L0D ways: 2
ROB size: 352
LQ size: 128
SQ size: 72
Secure Berti: OFF
Berti: OFF
Berti Fill: OFF
On commit prefetching: ON
Hit-based filter: ON
Time-guarding: ON
Free-slotting: ON
Leap-frogging: ON
Train prefetcher on L0D bypass: OFF
No translation penalty for prefetchers: OFF
Prefetch to L0D only: OFF
Prefetch to L1D only: OFF
Clean evictions: ON
Commit loads: ON
Commit write: ON
Fill commit loads to L2C, LLC: ON
DRAM IO FREQUENCY: 6400
ROB SIZE: 352
Off-chip DRAM Size: 4096 MB Channels: 1 Width: 64-bit Data Rate: 6400 MT/s
CPU 0 runs /home/sumon/secure_berti/GhostMinion/../../traces/gap/sssp-5.trace.gz
.gz
BTB has LRU replacement policy
ITLB has LRU replacement policy
DTLB has LRU replacement policy
STLB has LRU replacement policy
L1I has LRU replacement policy
L0D has LRU replacement policy
History Sets: 8
History Ways: 16
BERTI Size: 16
BERTI Stride Size: 16
L1D has LRU replacement policy
L2C has LRU replacement policy
LLC has LRU replacement policy
Heartbeat CPU 0 instructions: 10000001 cycles: 3955591 heartbeat IPC: 2.52807 cumulative IPC: 2.52807 (Simulation time: 0 hr 0 min 46 sec) 
Heartbeat CPU 0 instructions: 20000000 cycles: 7777356 heartbeat IPC: 2.61659 cumulative IPC: 2.57157 (Simulation time: 0 hr 1 min 24 sec) 
Heartbeat CPU 0 instructions: 30000003 cycles: 11555097 heartbeat IPC: 2.64709 cumulative IPC: 2.59626 (Simulation time: 0 hr 2 min 2 sec) 
Heartbeat CPU 0 instructions: 40000000 cycles: 15309927 heartbeat IPC: 2.66324 cumulative IPC: 2.61268 (Simulation time: 0 hr 2 min 41 sec) 
Heartbeat CPU 0 instructions: 50000003 cycles: 19046289 heartbeat IPC: 2.6764 cumulative IPC: 2.62518 (Simulation time: 0 hr 3 min 19 sec) 

Warmup complete CPU 0 instructions: 50000003 cycles: 19046289 (Simulation time: 0 hr 3 min 19 sec) 

Heartbeat CPU 0 instructions: 60000002 cycles: 46323354 heartbeat IPC: 0.366608 cumulative IPC: 0.366608 (Simulation time: 0 hr 4 min 7 sec) 
Heartbeat CPU 0 instructions: 70000001 cycles: 73419668 heartbeat IPC: 0.369054 cumulative IPC: 0.367827 (Simulation time: 0 hr 4 min 57 sec) 
Heartbeat CPU 0 instructions: 80000000 cycles: 100051364 heartbeat IPC: 0.375492 cumulative IPC: 0.370347 (Simulation time: 0 hr 5 min 45 sec) 
Heartbeat CPU 0 instructions: 90000001 cycles: 126139674 heartbeat IPC: 0.383313 cumulative IPC: 0.373506 (Simulation time: 0 hr 6 min 33 sec) 
Heartbeat CPU 0 instructions: 100000000 cycles: 151887218 heartbeat IPC: 0.388387 cumulative IPC: 0.37639 (Simulation time: 0 hr 7 min 20 sec) 
Heartbeat CPU 0 instructions: 110000000 cycles: 176573480 heartbeat IPC: 0.405084 cumulative IPC: 0.380887 (Simulation time: 0 hr 8 min 9 sec) 
Heartbeat CPU 0 instructions: 120000000 cycles: 200585469 heartbeat IPC: 0.416459 cumulative IPC: 0.385592 (Simulation time: 0 hr 8 min 59 sec) 
Heartbeat CPU 0 instructions: 130000000 cycles: 225595954 heartbeat IPC: 0.399832 cumulative IPC: 0.387316 (Simulation time: 0 hr 9 min 53 sec) 
Heartbeat CPU 0 instructions: 140000000 cycles: 249853639 heartbeat IPC: 0.412241 cumulative IPC: 0.389936 (Simulation time: 0 hr 10 min 48 sec) 
Heartbeat CPU 0 instructions: 150000000 cycles: 273670755 heartbeat IPC: 0.419866 cumulative IPC: 0.392735 (Simulation time: 0 hr 11 min 39 sec) 
Heartbeat CPU 0 instructions: 160000000 cycles: 297130428 heartbeat IPC: 0.426263 cumulative IPC: 0.395564 (Simulation time: 0 hr 12 min 28 sec) 
Heartbeat CPU 0 instructions: 170000002 cycles: 320447971 heartbeat IPC: 0.428862 cumulative IPC: 0.39814 (Simulation time: 0 hr 13 min 17 sec) 
Heartbeat CPU 0 instructions: 180000000 cycles: 344018921 heartbeat IPC: 0.424251 cumulative IPC: 0.400034 (Simulation time: 0 hr 14 min 3 sec) 
Heartbeat CPU 0 instructions: 190000001 cycles: 368004703 heartbeat IPC: 0.416914 cumulative IPC: 0.401194 (Simulation time: 0 hr 14 min 50 sec) 
Heartbeat CPU 0 instructions: 200000001 cycles: 391130755 heartbeat IPC: 0.432413 cumulative IPC: 0.403134 (Simulation time: 0 hr 15 min 36 sec) 
Heartbeat CPU 0 instructions: 210000000 cycles: 413952004 heartbeat IPC: 0.438188 cumulative IPC: 0.40516 (Simulation time: 0 hr 16 min 21 sec) 
Heartbeat CPU 0 instructions: 220000000 cycles: 436992596 heartbeat IPC: 0.434017 cumulative IPC: 0.406751 (Simulation time: 0 hr 17 min 7 sec) 
Heartbeat CPU 0 instructions: 230000002 cycles: 459477157 heartbeat IPC: 0.44475 cumulative IPC: 0.408691 (Simulation time: 0 hr 17 min 52 sec) 
Heartbeat CPU 0 instructions: 240000002 cycles: 482331220 heartbeat IPC: 0.437559 cumulative IPC: 0.410115 (Simulation time: 0 hr 18 min 37 sec) 
Heartbeat CPU 0 instructions: 250000000 cycles: 504987878 heartbeat IPC: 0.441371 cumulative IPC: 0.411572 (Simulation time: 0 hr 19 min 22 sec) 
Finished CPU 0 instructions: 200000001 cycles: 485941590 cumulative IPC: 0.411572 (Simulation time: 0 hr 19 min 22 sec) 
 Instruction ID: 250000379

ChampSim completed all CPUs

Region of Interest Statistics

CPU 0 cumulative IPC: 0.411572 instructions: 200000001 cycles: 485941590
ITLB SPEC fills:          0  NON-SPEC fills:          0
ITLB Test counter :          0
ITLB Leapfrog:          0
ITLB MSHR merge:          0
ITLB TOTAL     ACCESS:   24183381  HIT:   24183381  MISS:          0  HIT %:        100  MISS %:          0   MPKI: 0
ITLB LOAD TRANSLATION NON_SPEC    ACCESS:   24183381  HIT:   24183381  MISS:          0  HIT %:        100  MISS %:          0   MPKI: 0
ITLB PREFETCH  REQUESTED:          0  ISSUED:          0  USEFUL:          0  USELESS:          0
ITLB USEFUL LOAD PREFETCHES:          0 PREFETCH ISSUED TO LOWER LEVEL:          0  ACCURACY: -nan
ITLB TIMELY PREFETCHES:          0 LATE PREFETCHES: 0 DROPPED PREFETCHES: 0
ITLB COMMIT LATE PREFETCHES: 0 MISSED OPPORTUNITY: 0 LATE IN PQ: 0 UNCOVERED: 0
ITLB COMMIT LATE MSHR PREFETCHES: 0
ITLB MPKI TOTAL: 0 MSHR LATE: 0 PQ LATE: 0 COMMIT LATE: 0 MISSED OPPORTUNITY: 0 UNCOVERED: 0
ITLB PREFETCHES SAME FILL-ORIGIN LEVEL: 0 DIFFERENT FILL-ORIGIN LEVEL: 0
ITLB AVERAGE MISS LATENCY: -nan cycles
ITLB AVERAGE MISS LATENCY LOAD: -nan cycles
ITLB AVERAGE MISS LATENCY PREFETCH: -nan cycles
ITLB AVERAGE MSHR OCCUPANCY: 0
ITLB MSHR FULL: 0
ITLB RQ	ACCESS:   24856133	FORWARD:          0	MERGED:     672752	TO_CACHE:   24183381

DTLB SPEC fills:          0  NON-SPEC fills:          0
DTLB Test counter :          0
DTLB Leapfrog:          0
DTLB MSHR merge:          0
DTLB TOTAL     ACCESS:   48369029  HIT:   43847192  MISS:    4521837  HIT %:    90.6514  MISS %:    9.34862   MPKI: 22.6092
DTLB LOAD TRANSLATION NON_SPEC    ACCESS:   48369029  HIT:   43847192  MISS:    4521837  HIT %:    90.6514  MISS %:    9.34862   MPKI: 22.6092
DTLB PREFETCH  REQUESTED:          0  ISSUED:          0  USEFUL:          0  USELESS:          0
DTLB USEFUL LOAD PREFETCHES:          0 PREFETCH ISSUED TO LOWER LEVEL:          0  ACCURACY: -nan
DTLB TIMELY PREFETCHES:          0 LATE PREFETCHES: 0 DROPPED PREFETCHES: 0
DTLB COMMIT LATE PREFETCHES: 0 MISSED OPPORTUNITY: 0 LATE IN PQ: 0 UNCOVERED: 0
DTLB COMMIT LATE MSHR PREFETCHES: 0
DTLB MPKI TOTAL: 0 MSHR LATE: 0 PQ LATE: 0 COMMIT LATE: 0 MISSED OPPORTUNITY: 0 UNCOVERED: 0
DTLB PREFETCHES SAME FILL-ORIGIN LEVEL: 0 DIFFERENT FILL-ORIGIN LEVEL: 0
DTLB AVERAGE MISS LATENCY: 12.4505 cycles
DTLB AVERAGE MISS LATENCY LOAD: -nan cycles
DTLB AVERAGE MISS LATENCY PREFETCH: -nan cycles
DTLB AVERAGE MSHR OCCUPANCY: 0.226577
DTLB MSHR FULL: 1.43561e-07
DTLB RQ	ACCESS:   52801910	FORWARD:          0	MERGED:    4042307	TO_CACHE:   48759603

STLB SPEC fills:          0  NON-SPEC fills:          0
STLB Test counter :          0
STLB Leapfrog:          0
STLB MSHR merge:          0
STLB TOTAL     ACCESS:   10136724  HIT:   10073734  MISS:      62990  HIT %:    99.3786  MISS %:   0.621404   MPKI: 0.31495
STLB LOAD TRANSLATION NON_SPEC    ACCESS:    4521837  HIT:    4463449  MISS:      58388  HIT %:    98.7088  MISS %:    1.29125   MPKI: 0.29194
STLB TRANSLATION FROM L1D PREFETCHER NON_SPEC    ACCESS:    5614887  HIT:    5610285  MISS:       4602  HIT %:     99.918  MISS %:  0.0819607   MPKI: 0.02301
STLB PREFETCH  REQUESTED:          0  ISSUED:          0  USEFUL:       4219  USELESS:        380
STLB USEFUL LOAD PREFETCHES:       4219 PREFETCH ISSUED TO LOWER LEVEL:          0  ACCURACY: inf
STLB TIMELY PREFETCHES:       4219 LATE PREFETCHES: 11371 DROPPED PREFETCHES: 2140760
STLB COMMIT LATE PREFETCHES: 0 MISSED OPPORTUNITY: 0 LATE IN PQ: 0 UNCOVERED: 0
STLB COMMIT LATE MSHR PREFETCHES: 0
STLB MPKI TOTAL: 0 MSHR LATE: 0.056855 PQ LATE: 0 COMMIT LATE: 0 MISSED OPPORTUNITY: 0 UNCOVERED: 0
STLB PREFETCHES SAME FILL-ORIGIN LEVEL: 0 DIFFERENT FILL-ORIGIN LEVEL: 0
STLB AVERAGE MISS LATENCY: 245.244 cycles
STLB AVERAGE MISS LATENCY LOAD: -nan cycles
STLB AVERAGE MISS LATENCY PREFETCH: -nan cycles
STLB AVERAGE MSHR OCCUPANCY: 0.664751
STLB MSHR FULL: 0
STLB RQ	ACCESS:   42391031	FORWARD:          0	MERGED:   29586507	TO_CACHE:   12804524

STLB Hit, L1D data hit: 0
STLB Hit, L2C data hit: 0
STLB Hit, LLC data hit: 0
STLB Hit, LLC data miss: 0
STLB STLB hints to L2: 0
L0D SPEC fills:   26371777  NON-SPEC fills:          0
L0D TimeGuard Request with older TS:    2306957 Restricted eviction:     234506 read:    4324188
L0D Test counter :          0
L0D Leapfrog:          0
L0D MSHR merge:    2009300
L0D TOTAL     ACCESS:   48551258  HIT:   16890852  MISS:   31660406  HIT %:    34.7897  MISS %:    65.2103   MPKI: 158.302
L0D LOAD      TOTAL       ACCESS:   48551258  HIT:   16890852  MISS:   31660406  HIT %:    34.7897  MISS %:    65.2103   MPKI: 158.302
L0D LOAD      NON_SPEC    ACCESS:    5135372  HIT:      81249  MISS:    5054123  HIT %:    1.58214  MISS %:    98.4179   MPKI: 25.2706
L0D LOAD      SPEC        ACCESS:   43415886  HIT:   16809603  MISS:   26606283  HIT %:    38.7176  MISS %:    61.2824   MPKI: 133.031
L0D PREFETCH  REQUESTED:          0  ISSUED:          0  USEFUL:          0  USELESS:          0
L0D USEFUL LOAD PREFETCHES:          0 PREFETCH ISSUED TO LOWER LEVEL:          0  ACCURACY: -nan
L0D TIMELY PREFETCHES:          0 LATE PREFETCHES: 0 DROPPED PREFETCHES: 0
L0D COMMIT LATE PREFETCHES: 0 MISSED OPPORTUNITY: 0 LATE IN PQ: 0 UNCOVERED: 0
L0D COMMIT LATE MSHR PREFETCHES: 0
L0D MPKI TOTAL: 168.349 MSHR LATE: 0 PQ LATE: 0 COMMIT LATE: 0 MISSED OPPORTUNITY: 0 UNCOVERED: 0
L0D PREFETCHES SAME FILL-ORIGIN LEVEL: 0 DIFFERENT FILL-ORIGIN LEVEL: 0
L0D AVERAGE MISS LATENCY: 29.0195 cycles
L0D AVERAGE MISS LATENCY LOAD: 29.0195 cycles
L0D AVERAGE MISS LATENCY PREFETCH: -nan cycles
L0D AVERAGE MSHR OCCUPANCY: 2.01512
L0D MSHR FULL: 0.0293367
L0D RQ	ACCESS:   76702123	FORWARD:          0	MERGED:   26141565	TO_CACHE:   50560558
L0D WQ	ACCESS:    2241352	FORWARD:          0	MERGED:          0	TO_CACHE:    2241352

L1D SPEC fills:          0  NON-SPEC fills:    1736025
L1D Test counter :          0
L1D Leapfrog:          0
L1D MSHR merge:      30081
L1D TOTAL     ACCESS:   71398349  HIT:   52863958  MISS:   18534391  HIT %:    74.0409  MISS %:    25.9591   MPKI: 92.672
L1D LOAD      TOTAL       ACCESS:   31659638  HIT:   22412010  MISS:    9247628  HIT %:    70.7905  MISS %:    29.2095   MPKI: 46.2381
L1D LOAD      NON_SPEC    ACCESS:    5053445  HIT:    3317420  MISS:    1736025  HIT %:    65.6467  MISS %:    34.3533   MPKI: 8.68012
L1D LOAD      SPEC        ACCESS:   26606193  HIT:   19094590  MISS:    7511603  HIT %:    71.7675  MISS %:    28.2325   MPKI: 37.558
L1D RFO       NON_SPEC    ACCESS:    2090948  HIT:    1628408  MISS:     462540  HIT %:    77.8789  MISS %:    22.1211   MPKI: 2.3127
L1D PREFETCH  NON_SPEC    ACCESS:   29710577  HIT:   28401459  MISS:    1309118  HIT %:    95.5938  MISS %:    4.40624   MPKI: 6.54559
L1D COMMIT LOAD NON_SPEC    ACCESS:     504821  HIT:     389003  MISS:     115818  HIT %:    77.0576  MISS %:    22.9424   MPKI: 0.57909
L1D COMMIT WRITE NON_SPEC    ACCESS:    7432365  HIT:      33078  MISS:    7399287  HIT %:   0.445053  MISS %:    99.5549   MPKI: 36.9964
L1D PREFETCH  REQUESTED:   87287080  ISSUED:   79034978  USEFUL:    1140812  USELESS:     168287
L1D USEFUL LOAD PREFETCHES:    1140812 PREFETCH ISSUED TO LOWER LEVEL:    3919831  ACCURACY: 29.1036
L1D TIMELY PREFETCHES:    1140812 LATE PREFETCHES: 42106 DROPPED PREFETCHES: 3864018
L1D COMMIT LATE PREFETCHES: 0 MISSED OPPORTUNITY: 0 LATE IN PQ: 0 UNCOVERED: 0
L1D COMMIT LATE MSHR PREFETCHES: 0
L1D MPKI TOTAL: 46.242 MSHR LATE: 0.21053 PQ LATE: 0 COMMIT LATE: 0 MISSED OPPORTUNITY: 0 UNCOVERED: 0
L1D PREFETCHES SAME FILL-ORIGIN LEVEL: 1370760 DIFFERENT FILL-ORIGIN LEVEL: 2549071
L1D AVERAGE MISS LATENCY: 56.2936 cycles
L1D AVERAGE MISS LATENCY LOAD: 81.9181 cycles
L1D AVERAGE MISS LATENCY PREFETCH: 192.331 cycles
L1D AVERAGE MSHR OCCUPANCY: 2.25129
L1D MSHR FULL: 0.0361153
L1D RQ	ACCESS:   32431427	FORWARD:          0	MERGED:     260843	TO_CACHE:   32165589
L1D WQ	ACCESS:    9673719	FORWARD:       4995	MERGED:       1172	TO_CACHE:    9672547
L1D PQ	ACCESS:   79034978	FORWARD:          0	MERGED:   41165784	TO_CACHE:   37869194

L1D UNIQUE REGIONS ACCESSED: 0
L1D REGIONS CONFLICTS: 0
L1D Cross Page Prefetch Requests: 14685224
L1D Same Page Prefetch Requests: 83502175
L1D ROI Sum of L1D PQ occupancy: 1525638723
L1D PREFETCHES PUSHED FROM L2C: 0
L1I SPEC fills:          0  NON-SPEC fills:          0
L1I Test counter :          0
L1I Leapfrog:          0
L1I MSHR merge:          0
L1I TOTAL     ACCESS:   24856131  HIT:   24856131  MISS:          0  HIT %:        100  MISS %:          0   MPKI: 0
L1I LOAD      TOTAL       ACCESS:   24856131  HIT:   24856131  MISS:          0  HIT %:        100  MISS %:          0   MPKI: 0
L1I LOAD      NON_SPEC    ACCESS:   24856131  HIT:   24856131  MISS:          0  HIT %:        100  MISS %:          0   MPKI: 0
L1I PREFETCH  REQUESTED:          0  ISSUED:          0  USEFUL:          0  USELESS:          0
L1I USEFUL LOAD PREFETCHES:          0 PREFETCH ISSUED TO LOWER LEVEL:          0  ACCURACY: -nan
L1I TIMELY PREFETCHES:          0 LATE PREFETCHES: 0 DROPPED PREFETCHES: 0
L1I COMMIT LATE PREFETCHES: 0 MISSED OPPORTUNITY: 0 LATE IN PQ: 0 UNCOVERED: 0
L1I COMMIT LATE MSHR PREFETCHES: 0
L1I MPKI TOTAL: 0 MSHR LATE: 0 PQ LATE: 0 COMMIT LATE: 0 MISSED OPPORTUNITY: 0 UNCOVERED: 0
L1I PREFETCHES SAME FILL-ORIGIN LEVEL: 0 DIFFERENT FILL-ORIGIN LEVEL: 0
L1I AVERAGE MISS LATENCY: -nan cycles
L1I AVERAGE MISS LATENCY LOAD: -nan cycles
L1I AVERAGE MISS LATENCY PREFETCH: -nan cycles
L1I AVERAGE MSHR OCCUPANCY: 0
L1I MSHR FULL: 0
L1I RQ	ACCESS:   38836555	FORWARD:          0	MERGED:   13980422	TO_CACHE:   24856133

BTB SPEC fills:          0  NON-SPEC fills:          0
BTB Test counter :          0
BTB Leapfrog:          0
BTB MSHR merge:          0
BTB TOTAL     ACCESS:   29044147  HIT:   29044001  MISS:        146  HIT %:    99.9995  MISS %: 0.000502683   MPKI: 0.00073
BTB BRANCH_DIRECT_JUMP	ACCESS:    9217196  HIT:    9217156  MISS:         40
BTB BRANCH_INDIRECT	ACCESS:          0  HIT:          0  MISS:          0
BTB BRANCH_CONDITIONAL	ACCESS:   19824303  HIT:   19824221  MISS:         82
BTB BRANCH_DIRECT_CALL	ACCESS:       1324  HIT:       1315  MISS:          9
BTB BRANCH_INDIRECT_CALL	ACCESS:          0  HIT:          0  MISS:          0
BTB BRANCH_RETURN	ACCESS:       1324  HIT:       1309  MISS:         15
BTB BRANCH_OTHER ACCESS:          0  HIT:          0  MISS:          0

L2C SPEC fills:          0  NON-SPEC fills:    1175093
L2C Test counter :          0
L2C Leapfrog:          0
L2C MSHR merge:      49793
L2C TOTAL     ACCESS:   30890467  HIT:   15613302  MISS:   15277165  HIT %:    50.5441  MISS %:    49.4559   MPKI: 76.3858
L2C LOAD      TOTAL       ACCESS:    9218285  HIT:    2190932  MISS:    7027353  HIT %:    23.7672  MISS %:    76.2328   MPKI: 35.1368
L2C LOAD      NON_SPEC    ACCESS:    1735759  HIT:     560666  MISS:    1175093  HIT %:    32.3009  MISS %:    67.6991   MPKI: 5.87546
L2C LOAD      SPEC        ACCESS:    7482526  HIT:    1630266  MISS:    5852260  HIT %:    21.7876  MISS %:    78.2124   MPKI: 29.2613
L2C RFO       NON_SPEC    ACCESS:     442996  HIT:     308637  MISS:     134359  HIT %:    69.6704  MISS %:    30.3296   MPKI: 0.671795
L2C PREFETCH  NON_SPEC    ACCESS:    3367489  HIT:    1104006  MISS:    2263483  HIT %:    32.7842  MISS %:    67.2158   MPKI: 11.3174
L2C WRITEBACK NON_SPEC    ACCESS:     827011  HIT:     824999  MISS:       2012  HIT %:    99.7567  MISS %:   0.243286   MPKI: 0.01006
L2C CLEAN_EVICTION NON_SPEC    ACCESS:    5858422  HIT:     124183  MISS:    5734239  HIT %:    2.11973  MISS %:    97.8803   MPKI: 28.6712
L2C COMMIT LOAD NON_SPEC    ACCESS:     103026  HIT:      34895  MISS:      68131  HIT %:    33.8701  MISS %:    66.1299   MPKI: 0.340655
L2C LOAD TRANSLATION NON_SPEC    ACCESS:     289573  HIT:     247414  MISS:      42159  HIT %:     85.441  MISS %:     14.559   MPKI: 0.210795
L2C TRANSLATION FROM L1D PREFETCHER NON_SPEC    ACCESS:   10783665  HIT:   10778236  MISS:       5429  HIT %:    99.9497  MISS %:  0.0503447   MPKI: 0.027145
L2C PREFETCH  REQUESTED:          0  ISSUED:          0  USEFUL:      99888  USELESS:    2171997
L2C USEFUL LOAD PREFETCHES:      99888 PREFETCH ISSUED TO LOWER LEVEL:    2326378  ACCURACY: 4.29371
L2C TIMELY PREFETCHES:      99888 LATE PREFETCHES: 62895 DROPPED PREFETCHES: 0
L2C COMMIT LATE PREFETCHES: 0 MISSED OPPORTUNITY: 0 LATE IN PQ: 0 UNCOVERED: 0
L2C COMMIT LATE MSHR PREFETCHES: 0
L2C MPKI TOTAL: 35.1368 MSHR LATE: 0.314475 PQ LATE: 0 COMMIT LATE: 0 MISSED OPPORTUNITY: 0 UNCOVERED: 0
L2C PREFETCHES SAME FILL-ORIGIN LEVEL: 1205641 DIFFERENT FILL-ORIGIN LEVEL: 0
L2C AVERAGE MISS LATENCY: 74.9473 cycles
L2C AVERAGE MISS LATENCY LOAD: 90.8368 cycles
L2C AVERAGE MISS LATENCY PREFETCH: 208.764 cycles
L2C AVERAGE MSHR OCCUPANCY: 2.28849
L2C MSHR FULL: 1.8428e-05
L2C RQ	ACCESS:   20837584	FORWARD:          0	MERGED:          0	TO_CACHE:   20837547
L2C WQ	ACCESS:    6685436	FORWARD:         38	MERGED:          3	TO_CACHE:    6685433
L2C PQ	ACCESS:    3919784	FORWARD:          0	MERGED:        701	TO_CACHE:    3919082

L2C Instructions Evicting Data 0
L2C Translations Evicting Data 47361
L2C Data Evicting Data 3623786
L2C Instructions Evicting Instructions 0
L2C Translations Evicting Instructions 0
L2C Data Evicting Instructions 0
L2C Instructions Evicting Translations 0
L2C Translations Evicting Translations 227
L2C Data Evicting Translations 17280
L2C Dense regions hint from L2: 0
PSCL5 SPEC fills:          0  NON-SPEC fills:          0
PSCL5 Test counter :          0
PSCL5 Leapfrog:          0
PSCL5 MSHR merge:          0
PSCL5 TOTAL     ACCESS:          0  HIT:          0  MISS:          0  HIT %:       -nan  MISS %:       -nan   MPKI: 0
PSCL5 PREFETCH  REQUESTED:          0  ISSUED:          0  USEFUL:          0  USELESS:          0
PSCL5 USEFUL LOAD PREFETCHES:          0 PREFETCH ISSUED TO LOWER LEVEL:          0  ACCURACY: -nan
PSCL5 TIMELY PREFETCHES:          0 LATE PREFETCHES: 0 DROPPED PREFETCHES: 0
PSCL5 COMMIT LATE PREFETCHES: 0 MISSED OPPORTUNITY: 0 LATE IN PQ: 0 UNCOVERED: 0
PSCL5 COMMIT LATE MSHR PREFETCHES: 0
PSCL5 MPKI TOTAL: 0 MSHR LATE: 0 PQ LATE: 0 COMMIT LATE: 0 MISSED OPPORTUNITY: 0 UNCOVERED: 0
PSCL5 PREFETCHES SAME FILL-ORIGIN LEVEL: 0 DIFFERENT FILL-ORIGIN LEVEL: 0

PSCL4 SPEC fills:          0  NON-SPEC fills:          0
PSCL4 Test counter :          0
PSCL4 Leapfrog:          0
PSCL4 MSHR merge:          0
PSCL4 TOTAL     ACCESS:          0  HIT:          0  MISS:          0  HIT %:       -nan  MISS %:       -nan   MPKI: 0
PSCL4 PREFETCH  REQUESTED:          0  ISSUED:          0  USEFUL:          0  USELESS:          0
PSCL4 USEFUL LOAD PREFETCHES:          0 PREFETCH ISSUED TO LOWER LEVEL:          0  ACCURACY: -nan
PSCL4 TIMELY PREFETCHES:          0 LATE PREFETCHES: 0 DROPPED PREFETCHES: 0
PSCL4 COMMIT LATE PREFETCHES: 0 MISSED OPPORTUNITY: 0 LATE IN PQ: 0 UNCOVERED: 0
PSCL4 COMMIT LATE MSHR PREFETCHES: 0
PSCL4 MPKI TOTAL: 0 MSHR LATE: 0 PQ LATE: 0 COMMIT LATE: 0 MISSED OPPORTUNITY: 0 UNCOVERED: 0
PSCL4 PREFETCHES SAME FILL-ORIGIN LEVEL: 0 DIFFERENT FILL-ORIGIN LEVEL: 0

PSCL3 SPEC fills:          0  NON-SPEC fills:          0
PSCL3 Test counter :          0
PSCL3 Leapfrog:          0
PSCL3 MSHR merge:          0
PSCL3 TOTAL     ACCESS:          0  HIT:          0  MISS:          0  HIT %:       -nan  MISS %:       -nan   MPKI: 0
PSCL3 PREFETCH  REQUESTED:          0  ISSUED:          0  USEFUL:          0  USELESS:          0
PSCL3 USEFUL LOAD PREFETCHES:          0 PREFETCH ISSUED TO LOWER LEVEL:          0  ACCURACY: -nan
PSCL3 TIMELY PREFETCHES:          0 LATE PREFETCHES: 0 DROPPED PREFETCHES: 0
PSCL3 COMMIT LATE PREFETCHES: 0 MISSED OPPORTUNITY: 0 LATE IN PQ: 0 UNCOVERED: 0
PSCL3 COMMIT LATE MSHR PREFETCHES: 0
PSCL3 MPKI TOTAL: 0 MSHR LATE: 0 PQ LATE: 0 COMMIT LATE: 0 MISSED OPPORTUNITY: 0 UNCOVERED: 0
PSCL3 PREFETCHES SAME FILL-ORIGIN LEVEL: 0 DIFFERENT FILL-ORIGIN LEVEL: 0

PSCL2 SPEC fills:          0  NON-SPEC fills:          0
PSCL2 Test counter :          0
PSCL2 Leapfrog:          0
PSCL2 MSHR merge:          0
PSCL2 TOTAL     ACCESS:          0  HIT:          0  MISS:          0  HIT %:       -nan  MISS %:       -nan   MPKI: 0
PSCL2 PREFETCH  REQUESTED:          0  ISSUED:          0  USEFUL:          0  USELESS:          0
PSCL2 USEFUL LOAD PREFETCHES:          0 PREFETCH ISSUED TO LOWER LEVEL:          0  ACCURACY: -nan
PSCL2 TIMELY PREFETCHES:          0 LATE PREFETCHES: 0 DROPPED PREFETCHES: 0
PSCL2 COMMIT LATE PREFETCHES: 0 MISSED OPPORTUNITY: 0 LATE IN PQ: 0 UNCOVERED: 0
PSCL2 COMMIT LATE MSHR PREFETCHES: 0
PSCL2 MPKI TOTAL: 0 MSHR LATE: 0 PQ LATE: 0 COMMIT LATE: 0 MISSED OPPORTUNITY: 0 UNCOVERED: 0
PSCL2 PREFETCHES SAME FILL-ORIGIN LEVEL: 0 DIFFERENT FILL-ORIGIN LEVEL: 0

LLC SPEC fills:          0  NON-SPEC fills:     468824
LLC Test counter :          0
LLC Leapfrog:          0
LLC MSHR merge:          0
LLC TOTAL     ACCESS:   15673998  HIT:    7887133  MISS:    7786865  HIT %:    50.3199  MISS %:    49.6801   MPKI: 38.9343
LLC LOAD      TOTAL       ACCESS:    6977498  HIT:    4102581  MISS:    2874917  HIT %:    58.7973  MISS %:    41.2027   MPKI: 14.3746
LLC LOAD      NON_SPEC    ACCESS:    1162227  HIT:     693403  MISS:     468824  HIT %:    59.6616  MISS %:    40.3384   MPKI: 2.34412
LLC LOAD      SPEC        ACCESS:    5815271  HIT:    3409178  MISS:    2406093  HIT %:    58.6246  MISS %:    41.3754   MPKI: 12.0305
LLC RFO       NON_SPEC    ACCESS:     122629  HIT:      64134  MISS:      58495  HIT %:    52.2992  MISS %:    47.7008   MPKI: 0.292475
LLC PREFETCH  NON_SPEC    ACCESS:    2326377  HIT:     259607  MISS:    2066770  HIT %:    11.1593  MISS %:    88.8407   MPKI: 10.3338
LLC WRITEBACK NON_SPEC    ACCESS:     307117  HIT:     300462  MISS:       6655  HIT %:    97.8331  MISS %:    2.16693   MPKI: 0.033275
LLC CLEAN_EVICTION NON_SPEC    ACCESS:    5826046  HIT:    3090843  MISS:    2735203  HIT %:    53.0522  MISS %:    46.9478   MPKI: 13.676
LLC COMMIT LOAD NON_SPEC    ACCESS:      66743  HIT:      58203  MISS:       8540  HIT %:    87.2047  MISS %:    12.7953   MPKI: 0.0427
LLC LOAD TRANSLATION NON_SPEC    ACCESS:      42159  HIT:      11073  MISS:      31086  HIT %:    26.2649  MISS %:    73.7351   MPKI: 0.15543
LLC TRANSLATION FROM L1D PREFETCHER NON_SPEC    ACCESS:       5429  HIT:        230  MISS:       5199  HIT %:    4.23651  MISS %:    95.7635   MPKI: 0.025995
LLC PREFETCH  REQUESTED:          0  ISSUED:          0  USEFUL:     107066  USELESS:    1968819
LLC USEFUL LOAD PREFETCHES:     107066 PREFETCH ISSUED TO LOWER LEVEL:    2066770  ACCURACY: 5.18035
LLC TIMELY PREFETCHES:     107066 LATE PREFETCHES: 0 DROPPED PREFETCHES: 0
LLC COMMIT LATE PREFETCHES: 0 MISSED OPPORTUNITY: 0 LATE IN PQ: 0 UNCOVERED: 0
LLC COMMIT LATE MSHR PREFETCHES: 0
LLC MPKI TOTAL: 14.3746 MSHR LATE: 0 PQ LATE: 0 COMMIT LATE: 0 MISSED OPPORTUNITY: 0 UNCOVERED: 0
LLC PREFETCHES SAME FILL-ORIGIN LEVEL: 0 DIFFERENT FILL-ORIGIN LEVEL: 0
LLC AVERAGE MISS LATENCY: 117.945 cycles
LLC AVERAGE MISS LATENCY LOAD: 163.597 cycles
LLC AVERAGE MISS LATENCY PREFETCH: 206.414 cycles
LLC AVERAGE MSHR OCCUPANCY: 1.72866
LLC MSHR FULL: 0
LLC RQ	ACCESS:    7214537	FORWARD:          0	MERGED:          0	TO_CACHE:    7214459
LLC WQ	ACCESS:    6133163	FORWARD:         79	MERGED:          0	TO_CACHE:    6133163
LLC PQ	ACCESS:    2326378	FORWARD:          0	MERGED:          0	TO_CACHE:    2326377

LLC Dense regions hint to LLC: 0

RAW hits: 62810
Loads Generated: 76764935
Loads sent to L1D: 76702123
Stores Generated: 2241351
Stores sent to L1D: 2241352
Major fault: 0 Minor fault: 36864
Allocated PAGES: 36864
Total Load insts: 93558220
Total Non-spec loads: 6285420
Percentage of speculative loads: 93.2818

LeapFrogging counter: 125938
Commit hits: 24204130 miss: 47251471
Commit hit %: 33.873 miss %: 66.127
Commits not translated: 0
Loads retired: 9247624
Stores retired: 2241352
Cache fills: 9247628
L1D response latency: 81.9181 cycles
Load retirement latency: 161.853 cycles
OOO test counter: 0
Discarded buffer inserts: 24204130 hits: 21865 hit %: 0.0903358
Filter prediction accuracy: 99.9702
LATENCY_FILL: 10.7476 7820444

DRAM Statistics
 CHANNEL 0
 RQ ROW_BUFFER_HIT:     840454  ROW_BUFFER_MISS:    4203049
 DBUS_CONGESTED:       5642
 WQ ROW_BUFFER_HIT:    1257079  ROW_BUFFER_MISS:    1937681  FULL:       1335

 AVG_CONGESTED_CYCLE: 5
 All warmup complete: 2
Channel 0 Bank busy for read cycles: 0
Channel 0 Bank busy for write cycles: 0
Channel 0
Rank 0
0banks busy for read cycles: 6838140
0banks busy for write cycles: 54836
1banks busy for read cycles: 144007125
1banks busy for write cycles: 10590943
2banks busy for read cycles: 99414445
2banks busy for write cycles: 11668489
3banks busy for read cycles: 50516463
3banks busy for write cycles: 12084921
4banks busy for read cycles: 19820186
4banks busy for write cycles: 12839487
5banks busy for read cycles: 6901133
5banks busy for write cycles: 14455279
6banks busy for read cycles: 2872636
6banks busy for write cycles: 17474491
7banks busy for read cycles: 2218869
7banks busy for write cycles: 25461785
8banks busy for read cycles: 4515593
8banks busy for write cycles: 44206770

CPU 0 Branch Prediction Accuracy: 97.7638% MPKI: 3.32603 Average ROB Occupancy at Mispredict: 160.581
Branch types
NOT_BRANCH: 170252779 85.1264%
BRANCH_DIRECT_JUMP: 9217196 4.6086%
BRANCH_INDIRECT: 0 0%
BRANCH_CONDITIONAL: 20527371 10.2637%
BRANCH_DIRECT_CALL: 1324 0.000662%
BRANCH_INDIRECT_CALL: 0 0%
BRANCH_RETURN: 1324 0.000662%
BRANCH_OTHER: 0 0%

DRAM PAGES: 1048576
Allocated PAGES: 36864
