
*** ChampSim Multicore Out-of-Order Simulator ***

Warmup Instructions: 50000000
Simulation Instructions: 200000000
Number of CPUs: 1
LLC sets: 2048
LLC ways: 16
L0D sets: 16
L0D ways: 2
ROB size: 352
LQ size: 128
SQ size: 72
Secure Berti: OFF
Berti: OFF
Berti Fill: OFF
On commit prefetching: ON
Hit-based filter: ON
Time-guarding: ON
Free-slotting: ON
Leap-frogging: ON
Train prefetcher on L0D bypass: OFF
No translation penalty for prefetchers: OFF
Prefetch to L0D only: OFF
Prefetch to L1D only: OFF
Clean evictions: ON
Commit loads: ON
Commit write: ON
Fill commit loads to L2C, LLC: ON
DRAM IO FREQUENCY: 6400
ROB SIZE: 352
Off-chip DRAM Size: 4096 MB Channels: 1 Width: 64-bit Data Rate: 6400 MT/s
CPU 0 runs /home/sumon/secure_berti/GhostMinion/../../traces/gap/sssp-10.trace.gz
.gz
BTB has LRU replacement policy
ITLB has LRU replacement policy
DTLB has LRU replacement policy
STLB has LRU replacement policy
L1I has LRU replacement policy
L0D has LRU replacement policy
History Sets: 8
History Ways: 16
BERTI Size: 16
BERTI Stride Size: 16
L1D has LRU replacement policy
L2C has LRU replacement policy
LLC has LRU replacement policy
Heartbeat CPU 0 instructions: 10000000 cycles: 3955224 heartbeat IPC: 2.5283 cumulative IPC: 2.5283 (Simulation time: 0 hr 0 min 37 sec) 
Heartbeat CPU 0 instructions: 20000001 cycles: 7778128 heartbeat IPC: 2.61581 cumulative IPC: 2.57131 (Simulation time: 0 hr 1 min 16 sec) 
Heartbeat CPU 0 instructions: 30000003 cycles: 11557840 heartbeat IPC: 2.6457 cumulative IPC: 2.59564 (Simulation time: 0 hr 1 min 55 sec) 
Heartbeat CPU 0 instructions: 40000002 cycles: 15311265 heartbeat IPC: 2.66423 cumulative IPC: 2.61246 (Simulation time: 0 hr 2 min 34 sec) 
Heartbeat CPU 0 instructions: 50000001 cycles: 19044311 heartbeat IPC: 2.67878 cumulative IPC: 2.62546 (Simulation time: 0 hr 3 min 13 sec) 

Warmup complete CPU 0 instructions: 50000001 cycles: 19044311 (Simulation time: 0 hr 3 min 13 sec) 

Heartbeat CPU 0 instructions: 60000000 cycles: 46597185 heartbeat IPC: 0.362939 cumulative IPC: 0.362939 (Simulation time: 0 hr 4 min 2 sec) 
Heartbeat CPU 0 instructions: 70000000 cycles: 72831357 heartbeat IPC: 0.381182 cumulative IPC: 0.371837 (Simulation time: 0 hr 4 min 52 sec) 
Heartbeat CPU 0 instructions: 80000001 cycles: 98776999 heartbeat IPC: 0.385421 cumulative IPC: 0.376257 (Simulation time: 0 hr 5 min 41 sec) 
Heartbeat CPU 0 instructions: 90000000 cycles: 124810924 heartbeat IPC: 0.384114 cumulative IPC: 0.378191 (Simulation time: 0 hr 6 min 30 sec) 
Heartbeat CPU 0 instructions: 100000000 cycles: 149747616 heartbeat IPC: 0.401015 cumulative IPC: 0.382546 (Simulation time: 0 hr 7 min 18 sec) 
Heartbeat CPU 0 instructions: 110000000 cycles: 174158873 heartbeat IPC: 0.409647 cumulative IPC: 0.386811 (Simulation time: 0 hr 8 min 6 sec) 
Heartbeat CPU 0 instructions: 120000003 cycles: 198798383 heartbeat IPC: 0.405852 cumulative IPC: 0.389421 (Simulation time: 0 hr 8 min 54 sec) 
Heartbeat CPU 0 instructions: 130000002 cycles: 222666850 heartbeat IPC: 0.418963 cumulative IPC: 0.392884 (Simulation time: 0 hr 9 min 41 sec) 
Heartbeat CPU 0 instructions: 140000002 cycles: 246497289 heartbeat IPC: 0.419631 cumulative IPC: 0.395686 (Simulation time: 0 hr 10 min 29 sec) 
Heartbeat CPU 0 instructions: 150000000 cycles: 270859995 heartbeat IPC: 0.410463 cumulative IPC: 0.397116 (Simulation time: 0 hr 11 min 16 sec) 
Heartbeat CPU 0 instructions: 160000001 cycles: 294397026 heartbeat IPC: 0.424862 cumulative IPC: 0.399488 (Simulation time: 0 hr 12 min 3 sec) 
Heartbeat CPU 0 instructions: 170000002 cycles: 318264746 heartbeat IPC: 0.418976 cumulative IPC: 0.401042 (Simulation time: 0 hr 12 min 50 sec) 
Heartbeat CPU 0 instructions: 180000001 cycles: 342694273 heartbeat IPC: 0.409341 cumulative IPC: 0.401669 (Simulation time: 0 hr 13 min 38 sec) 
Heartbeat CPU 0 instructions: 190000002 cycles: 366936778 heartbeat IPC: 0.412499 cumulative IPC: 0.402423 (Simulation time: 0 hr 14 min 25 sec) 
Heartbeat CPU 0 instructions: 200000003 cycles: 389762456 heartbeat IPC: 0.438103 cumulative IPC: 0.40462 (Simulation time: 0 hr 15 min 10 sec) 
Heartbeat CPU 0 instructions: 210000003 cycles: 412958666 heartbeat IPC: 0.431105 cumulative IPC: 0.40618 (Simulation time: 0 hr 15 min 56 sec) 
Heartbeat CPU 0 instructions: 220000000 cycles: 436177432 heartbeat IPC: 0.430686 cumulative IPC: 0.407544 (Simulation time: 0 hr 16 min 42 sec) 
Heartbeat CPU 0 instructions: 230000001 cycles: 459152625 heartbeat IPC: 0.435252 cumulative IPC: 0.40899 (Simulation time: 0 hr 17 min 27 sec) 
Heartbeat CPU 0 instructions: 240000001 cycles: 481886453 heartbeat IPC: 0.439873 cumulative IPC: 0.410507 (Simulation time: 0 hr 18 min 12 sec) 
Heartbeat CPU 0 instructions: 250000000 cycles: 504807622 heartbeat IPC: 0.436278 cumulative IPC: 0.411723 (Simulation time: 0 hr 18 min 58 sec) 
Finished CPU 0 instructions: 200000003 cycles: 485763312 cumulative IPC: 0.411723 (Simulation time: 0 hr 18 min 58 sec) 
 Instruction ID: 250000054

ChampSim completed all CPUs

Region of Interest Statistics

CPU 0 cumulative IPC: 0.411723 instructions: 200000003 cycles: 485763312
ITLB SPEC fills:          0  NON-SPEC fills:          0
ITLB Test counter :          0
ITLB Leapfrog:          0
ITLB MSHR merge:          0
ITLB TOTAL     ACCESS:   24167341  HIT:   24167341  MISS:          0  HIT %:        100  MISS %:          0   MPKI: 0
ITLB LOAD TRANSLATION NON_SPEC    ACCESS:   24167341  HIT:   24167341  MISS:          0  HIT %:        100  MISS %:          0   MPKI: 0
ITLB PREFETCH  REQUESTED:          0  ISSUED:          0  USEFUL:          0  USELESS:          0
ITLB USEFUL LOAD PREFETCHES:          0 PREFETCH ISSUED TO LOWER LEVEL:          0  ACCURACY: -nan
ITLB TIMELY PREFETCHES:          0 LATE PREFETCHES: 0 DROPPED PREFETCHES: 0
ITLB COMMIT LATE PREFETCHES: 0 MISSED OPPORTUNITY: 0 LATE IN PQ: 0 UNCOVERED: 0
ITLB COMMIT LATE MSHR PREFETCHES: 0
ITLB MPKI TOTAL: 0 MSHR LATE: 0 PQ LATE: 0 COMMIT LATE: 0 MISSED OPPORTUNITY: 0 UNCOVERED: 0
ITLB PREFETCHES SAME FILL-ORIGIN LEVEL: 0 DIFFERENT FILL-ORIGIN LEVEL: 0
ITLB AVERAGE MISS LATENCY: -nan cycles
ITLB AVERAGE MISS LATENCY LOAD: -nan cycles
ITLB AVERAGE MISS LATENCY PREFETCH: -nan cycles
ITLB AVERAGE MSHR OCCUPANCY: 0
ITLB MSHR FULL: 0
ITLB RQ	ACCESS:   24831427	FORWARD:          0	MERGED:     664086	TO_CACHE:   24167341

DTLB SPEC fills:          0  NON-SPEC fills:          0
DTLB Test counter :          0
DTLB Leapfrog:          0
DTLB MSHR merge:          0
DTLB TOTAL     ACCESS:   48355955  HIT:   43681034  MISS:    4674921  HIT %:    90.3323  MISS %:    9.66773   MPKI: 23.3746
DTLB LOAD TRANSLATION NON_SPEC    ACCESS:   48355955  HIT:   43681034  MISS:    4674921  HIT %:    90.3323  MISS %:    9.66773   MPKI: 23.3746
DTLB PREFETCH  REQUESTED:          0  ISSUED:          0  USEFUL:          0  USELESS:          0
DTLB USEFUL LOAD PREFETCHES:          0 PREFETCH ISSUED TO LOWER LEVEL:          0  ACCURACY: -nan
DTLB TIMELY PREFETCHES:          0 LATE PREFETCHES: 0 DROPPED PREFETCHES: 0
DTLB COMMIT LATE PREFETCHES: 0 MISSED OPPORTUNITY: 0 LATE IN PQ: 0 UNCOVERED: 0
DTLB COMMIT LATE MSHR PREFETCHES: 0
DTLB MPKI TOTAL: 0 MSHR LATE: 0 PQ LATE: 0 COMMIT LATE: 0 MISSED OPPORTUNITY: 0 UNCOVERED: 0
DTLB PREFETCHES SAME FILL-ORIGIN LEVEL: 0 DIFFERENT FILL-ORIGIN LEVEL: 0
DTLB AVERAGE MISS LATENCY: 12.3923 cycles
DTLB AVERAGE MISS LATENCY LOAD: -nan cycles
DTLB AVERAGE MISS LATENCY PREFETCH: -nan cycles
DTLB AVERAGE MSHR OCCUPANCY: 0.233217
DTLB MSHR FULL: 3.89758e-07
DTLB RQ	ACCESS:   52760971	FORWARD:          0	MERGED:    4012761	TO_CACHE:   48748210

STLB SPEC fills:          0  NON-SPEC fills:          0
STLB Test counter :          0
STLB Leapfrog:          0
STLB MSHR merge:          0
STLB TOTAL     ACCESS:   10309132  HIT:   10244229  MISS:      64903  HIT %:    99.3704  MISS %:   0.629568   MPKI: 0.324515
STLB LOAD TRANSLATION NON_SPEC    ACCESS:    4674921  HIT:    4614779  MISS:      60142  HIT %:    98.7135  MISS %:    1.28648   MPKI: 0.30071
STLB TRANSLATION FROM L1D PREFETCHER NON_SPEC    ACCESS:    5634211  HIT:    5629450  MISS:       4761  HIT %:    99.9155  MISS %:  0.0845016   MPKI: 0.023805
STLB PREFETCH  REQUESTED:          0  ISSUED:          0  USEFUL:       4422  USELESS:        335
STLB USEFUL LOAD PREFETCHES:       4422 PREFETCH ISSUED TO LOWER LEVEL:          0  ACCURACY: inf
STLB TIMELY PREFETCHES:       4422 LATE PREFETCHES: 11199 DROPPED PREFETCHES: 1986689
STLB COMMIT LATE PREFETCHES: 0 MISSED OPPORTUNITY: 0 LATE IN PQ: 0 UNCOVERED: 0
STLB COMMIT LATE MSHR PREFETCHES: 0
STLB MPKI TOTAL: 0 MSHR LATE: 0.055995 PQ LATE: 0 COMMIT LATE: 0 MISSED OPPORTUNITY: 0 UNCOVERED: 0
STLB PREFETCHES SAME FILL-ORIGIN LEVEL: 0 DIFFERENT FILL-ORIGIN LEVEL: 0
STLB AVERAGE MISS LATENCY: 241.36 cycles
STLB AVERAGE MISS LATENCY LOAD: -nan cycles
STLB AVERAGE MISS LATENCY PREFETCH: -nan cycles
STLB AVERAGE MSHR OCCUPANCY: 0.593825
STLB MSHR FULL: 0
STLB RQ	ACCESS:   42570755	FORWARD:          0	MERGED:   29793713	TO_CACHE:   12777042

STLB Hit, L1D data hit: 0
STLB Hit, L2C data hit: 0
STLB Hit, LLC data hit: 0
STLB Hit, LLC data miss: 0
STLB STLB hints to L2: 0
L0D SPEC fills:   26384085  NON-SPEC fills:          0
L0D TimeGuard Request with older TS:    2318111 Restricted eviction:     237216 read:    4323666
L0D Test counter :          0
L0D Leapfrog:          0
L0D MSHR merge:    2016298
L0D TOTAL     ACCESS:   48527903  HIT:   16899846  MISS:   31628057  HIT %:     34.825  MISS %:     65.175   MPKI: 158.14
L0D LOAD      TOTAL       ACCESS:   48527903  HIT:   16899846  MISS:   31628057  HIT %:     34.825  MISS %:     65.175   MPKI: 158.14
L0D LOAD      NON_SPEC    ACCESS:    5092937  HIT:      86181  MISS:    5006756  HIT %:    1.69217  MISS %:    98.3078   MPKI: 25.0338
L0D LOAD      SPEC        ACCESS:   43434966  HIT:   16813665  MISS:   26621301  HIT %:      38.71  MISS %:      61.29   MPKI: 133.107
L0D PREFETCH  REQUESTED:          0  ISSUED:          0  USEFUL:          0  USELESS:          0
L0D USEFUL LOAD PREFETCHES:          0 PREFETCH ISSUED TO LOWER LEVEL:          0  ACCURACY: -nan
L0D TIMELY PREFETCHES:          0 LATE PREFETCHES: 0 DROPPED PREFETCHES: 0
L0D COMMIT LATE PREFETCHES: 0 MISSED OPPORTUNITY: 0 LATE IN PQ: 0 UNCOVERED: 0
L0D COMMIT LATE MSHR PREFETCHES: 0
L0D MPKI TOTAL: 168.222 MSHR LATE: 0 PQ LATE: 0 COMMIT LATE: 0 MISSED OPPORTUNITY: 0 UNCOVERED: 0
L0D PREFETCHES SAME FILL-ORIGIN LEVEL: 0 DIFFERENT FILL-ORIGIN LEVEL: 0
L0D AVERAGE MISS LATENCY: 29.0202 cycles
L0D AVERAGE MISS LATENCY LOAD: 29.0202 cycles
L0D AVERAGE MISS LATENCY PREFETCH: -nan cycles
L0D AVERAGE MSHR OCCUPANCY: 2.01258
L0D MSHR FULL: 0.0289858
L0D RQ	ACCESS:   76740809	FORWARD:          0	MERGED:   26196610	TO_CACHE:   50544199
L0D WQ	ACCESS:    2216772	FORWARD:          0	MERGED:          0	TO_CACHE:    2216772

L1D SPEC fills:          0  NON-SPEC fills:    1736274
L1D Test counter :          0
L1D Leapfrog:          0
L1D MSHR merge:      30891
L1D TOTAL     ACCESS:   71609079  HIT:   53014253  MISS:   18594826  HIT %:    74.0329  MISS %:    25.9671   MPKI: 92.9741
L1D LOAD      TOTAL       ACCESS:   31627331  HIT:   22352309  MISS:    9275022  HIT %:     70.674  MISS %:     29.326   MPKI: 46.3751
L1D LOAD      NON_SPEC    ACCESS:    5006122  HIT:    3269848  MISS:    1736274  HIT %:     65.317  MISS %:     34.683   MPKI: 8.68137
L1D LOAD      SPEC        ACCESS:   26621209  HIT:   19082461  MISS:    7538748  HIT %:    71.6814  MISS %:    28.3186   MPKI: 37.6937
L1D RFO       NON_SPEC    ACCESS:    2066641  HIT:    1606117  MISS:     460524  HIT %:    77.7163  MISS %:    22.2837   MPKI: 2.30262
L1D PREFETCH  NON_SPEC    ACCESS:   29959886  HIT:   28643707  MISS:    1316179  HIT %:    95.6069  MISS %:    4.39314   MPKI: 6.58089
L1D COMMIT LOAD NON_SPEC    ACCESS:     496315  HIT:     378393  MISS:     117922  HIT %:    76.2405  MISS %:    23.7595   MPKI: 0.58961
L1D COMMIT WRITE NON_SPEC    ACCESS:    7458906  HIT:      33727  MISS:    7425179  HIT %:   0.452171  MISS %:    99.5478   MPKI: 37.1259
L1D PREFETCH  REQUESTED:   86557266  ISSUED:   78601068  USEFUL:    1141882  USELESS:     174299
L1D USEFUL LOAD PREFETCHES:    1141882 PREFETCH ISSUED TO LOWER LEVEL:    3895954  ACCURACY: 29.3094
L1D TIMELY PREFETCHES:    1141882 LATE PREFETCHES: 43734 DROPPED PREFETCHES: 3649584
L1D COMMIT LATE PREFETCHES: 0 MISSED OPPORTUNITY: 0 LATE IN PQ: 0 UNCOVERED: 0
L1D COMMIT LATE MSHR PREFETCHES: 0
L1D MPKI TOTAL: 46.3787 MSHR LATE: 0.21867 PQ LATE: 0 COMMIT LATE: 0 MISSED OPPORTUNITY: 0 UNCOVERED: 0
L1D PREFETCHES SAME FILL-ORIGIN LEVEL: 1378739 DIFFERENT FILL-ORIGIN LEVEL: 2517215
L1D AVERAGE MISS LATENCY: 56.1015 cycles
L1D AVERAGE MISS LATENCY LOAD: 81.5954 cycles
L1D AVERAGE MISS LATENCY PREFETCH: 191.869 cycles
L1D AVERAGE MSHR OCCUPANCY: 2.23788
L1D MSHR FULL: 0.034799
L1D RQ	ACCESS:   32393116	FORWARD:          0	MERGED:     263199	TO_CACHE:   32124742
L1D WQ	ACCESS:    9675672	FORWARD:       5175	MERGED:       1158	TO_CACHE:    9674514
L1D PQ	ACCESS:   78601068	FORWARD:          0	MERGED:   40705234	TO_CACHE:   37895834

L1D UNIQUE REGIONS ACCESSED: 0
L1D REGIONS CONFLICTS: 0
L1D Cross Page Prefetch Requests: 14303440
L1D Same Page Prefetch Requests: 84840830
L1D ROI Sum of L1D PQ occupancy: 1442220793
L1D PREFETCHES PUSHED FROM L2C: 0
L1I SPEC fills:          0  NON-SPEC fills:          0
L1I Test counter :          0
L1I Leapfrog:          0
L1I MSHR merge:          0
L1I TOTAL     ACCESS:   24831427  HIT:   24831427  MISS:          0  HIT %:        100  MISS %:          0   MPKI: 0
L1I LOAD      TOTAL       ACCESS:   24831427  HIT:   24831427  MISS:          0  HIT %:        100  MISS %:          0   MPKI: 0
L1I LOAD      NON_SPEC    ACCESS:   24831427  HIT:   24831427  MISS:          0  HIT %:        100  MISS %:          0   MPKI: 0
L1I PREFETCH  REQUESTED:          0  ISSUED:          0  USEFUL:          0  USELESS:          0
L1I USEFUL LOAD PREFETCHES:          0 PREFETCH ISSUED TO LOWER LEVEL:          0  ACCURACY: -nan
L1I TIMELY PREFETCHES:          0 LATE PREFETCHES: 0 DROPPED PREFETCHES: 0
L1I COMMIT LATE PREFETCHES: 0 MISSED OPPORTUNITY: 0 LATE IN PQ: 0 UNCOVERED: 0
L1I COMMIT LATE MSHR PREFETCHES: 0
L1I MPKI TOTAL: 0 MSHR LATE: 0 PQ LATE: 0 COMMIT LATE: 0 MISSED OPPORTUNITY: 0 UNCOVERED: 0
L1I PREFETCHES SAME FILL-ORIGIN LEVEL: 0 DIFFERENT FILL-ORIGIN LEVEL: 0
L1I AVERAGE MISS LATENCY: -nan cycles
L1I AVERAGE MISS LATENCY LOAD: -nan cycles
L1I AVERAGE MISS LATENCY PREFETCH: -nan cycles
L1I AVERAGE MSHR OCCUPANCY: 0
L1I MSHR FULL: 0
L1I RQ	ACCESS:   38854793	FORWARD:          0	MERGED:   14023366	TO_CACHE:   24831427

BTB SPEC fills:          0  NON-SPEC fills:          0
BTB Test counter :          0
BTB Leapfrog:          0
BTB MSHR merge:          0
BTB TOTAL     ACCESS:   29056031  HIT:   29055886  MISS:        145  HIT %:    99.9995  MISS %: 0.000499036   MPKI: 0.000725
BTB BRANCH_DIRECT_JUMP	ACCESS:    9225403  HIT:    9225362  MISS:         41
BTB BRANCH_INDIRECT	ACCESS:          0  HIT:          0  MISS:          0
BTB BRANCH_CONDITIONAL	ACCESS:   19828000  HIT:   19827919  MISS:         81
BTB BRANCH_DIRECT_CALL	ACCESS:       1314  HIT:       1305  MISS:          9
BTB BRANCH_INDIRECT_CALL	ACCESS:          0  HIT:          0  MISS:          0
BTB BRANCH_RETURN	ACCESS:       1314  HIT:       1300  MISS:         14
BTB BRANCH_OTHER ACCESS:          0  HIT:          0  MISS:          0

L2C SPEC fills:          0  NON-SPEC fills:    1169924
L2C Test counter :          0
L2C Leapfrog:          0
L2C MSHR merge:      42909
L2C TOTAL     ACCESS:   30118059  HIT:   14927053  MISS:   15191006  HIT %:    49.5618  MISS %:    50.4382   MPKI: 75.955
L2C LOAD      TOTAL       ACCESS:    9244830  HIT:    2232120  MISS:    7012710  HIT %:    24.1445  MISS %:    75.8555   MPKI: 35.0635
L2C LOAD      NON_SPEC    ACCESS:    1735998  HIT:     566074  MISS:    1169924  HIT %:     32.608  MISS %:     67.392   MPKI: 5.84962
L2C LOAD      SPEC        ACCESS:    7508832  HIT:    1666046  MISS:    5842786  HIT %:    22.1878  MISS %:    77.8122   MPKI: 29.2139
L2C RFO       NON_SPEC    ACCESS:     441693  HIT:     308602  MISS:     133091  HIT %:     69.868  MISS %:     30.132   MPKI: 0.665455
L2C PREFETCH  NON_SPEC    ACCESS:    3343128  HIT:    1142122  MISS:    2201006  HIT %:    34.1633  MISS %:    65.8367   MPKI: 11.005
L2C WRITEBACK NON_SPEC    ACCESS:     823085  HIT:     821426  MISS:       1659  HIT %:    99.7984  MISS %:   0.201559   MPKI: 0.008295
L2C CLEAN_EVICTION NON_SPEC    ACCESS:    5849345  HIT:     123793  MISS:    5725552  HIT %:    2.11636  MISS %:    97.8836   MPKI: 28.6278
L2C COMMIT LOAD NON_SPEC    ACCESS:     104353  HIT:      35796  MISS:      68557  HIT %:    34.3028  MISS %:    65.6972   MPKI: 0.342785
L2C LOAD TRANSLATION NON_SPEC    ACCESS:     298381  HIT:     255068  MISS:      43313  HIT %:     85.484  MISS %:     14.516   MPKI: 0.216565
L2C TRANSLATION FROM L1D PREFETCHER NON_SPEC    ACCESS:   10013244  HIT:   10008126  MISS:       5118  HIT %:    99.9489  MISS %:  0.0511123   MPKI: 0.02559
L2C PREFETCH  REQUESTED:          0  ISSUED:          0  USEFUL:      90436  USELESS:    2116470
L2C USEFUL LOAD PREFETCHES:      90436 PREFETCH ISSUED TO LOWER LEVEL:    2256926  ACCURACY: 4.00704
L2C TIMELY PREFETCHES:      90436 LATE PREFETCHES: 55919 DROPPED PREFETCHES: 0
L2C COMMIT LATE PREFETCHES: 0 MISSED OPPORTUNITY: 0 LATE IN PQ: 0 UNCOVERED: 0
L2C COMMIT LATE MSHR PREFETCHES: 0
L2C MPKI TOTAL: 35.0636 MSHR LATE: 0.279595 PQ LATE: 0 COMMIT LATE: 0 MISSED OPPORTUNITY: 0 UNCOVERED: 0
L2C PREFETCHES SAME FILL-ORIGIN LEVEL: 1132690 DIFFERENT FILL-ORIGIN LEVEL: 0
L2C AVERAGE MISS LATENCY: 74.7069 cycles
L2C AVERAGE MISS LATENCY LOAD: 90.8516 cycles
L2C AVERAGE MISS LATENCY PREFETCH: 210.652 cycles
L2C AVERAGE MSHR OCCUPANCY: 2.29525
L2C MSHR FULL: 5.3227e-06
L2C RQ	ACCESS:   20102543	FORWARD:          0	MERGED:          0	TO_CACHE:   20102503
L2C WQ	ACCESS:    6672432	FORWARD:         41	MERGED:          1	TO_CACHE:    6672431
L2C PQ	ACCESS:    3895921	FORWARD:          0	MERGED:        671	TO_CACHE:    3895249

L2C Instructions Evicting Data 0
L2C Translations Evicting Data 48124
L2C Data Evicting Data 3555068
L2C Instructions Evicting Instructions 0
L2C Translations Evicting Instructions 0
L2C Data Evicting Instructions 0
L2C Instructions Evicting Translations 0
L2C Translations Evicting Translations 307
L2C Data Evicting Translations 17510
L2C Dense regions hint from L2: 0
PSCL5 SPEC fills:          0  NON-SPEC fills:          0
PSCL5 Test counter :          0
PSCL5 Leapfrog:          0
PSCL5 MSHR merge:          0
PSCL5 TOTAL     ACCESS:          0  HIT:          0  MISS:          0  HIT %:       -nan  MISS %:       -nan   MPKI: 0
PSCL5 PREFETCH  REQUESTED:          0  ISSUED:          0  USEFUL:          0  USELESS:          0
PSCL5 USEFUL LOAD PREFETCHES:          0 PREFETCH ISSUED TO LOWER LEVEL:          0  ACCURACY: -nan
PSCL5 TIMELY PREFETCHES:          0 LATE PREFETCHES: 0 DROPPED PREFETCHES: 0
PSCL5 COMMIT LATE PREFETCHES: 0 MISSED OPPORTUNITY: 0 LATE IN PQ: 0 UNCOVERED: 0
PSCL5 COMMIT LATE MSHR PREFETCHES: 0
PSCL5 MPKI TOTAL: 0 MSHR LATE: 0 PQ LATE: 0 COMMIT LATE: 0 MISSED OPPORTUNITY: 0 UNCOVERED: 0
PSCL5 PREFETCHES SAME FILL-ORIGIN LEVEL: 0 DIFFERENT FILL-ORIGIN LEVEL: 0

PSCL4 SPEC fills:          0  NON-SPEC fills:          0
PSCL4 Test counter :          0
PSCL4 Leapfrog:          0
PSCL4 MSHR merge:          0
PSCL4 TOTAL     ACCESS:          0  HIT:          0  MISS:          0  HIT %:       -nan  MISS %:       -nan   MPKI: 0
PSCL4 PREFETCH  REQUESTED:          0  ISSUED:          0  USEFUL:          0  USELESS:          0
PSCL4 USEFUL LOAD PREFETCHES:          0 PREFETCH ISSUED TO LOWER LEVEL:          0  ACCURACY: -nan
PSCL4 TIMELY PREFETCHES:          0 LATE PREFETCHES: 0 DROPPED PREFETCHES: 0
PSCL4 COMMIT LATE PREFETCHES: 0 MISSED OPPORTUNITY: 0 LATE IN PQ: 0 UNCOVERED: 0
PSCL4 COMMIT LATE MSHR PREFETCHES: 0
PSCL4 MPKI TOTAL: 0 MSHR LATE: 0 PQ LATE: 0 COMMIT LATE: 0 MISSED OPPORTUNITY: 0 UNCOVERED: 0
PSCL4 PREFETCHES SAME FILL-ORIGIN LEVEL: 0 DIFFERENT FILL-ORIGIN LEVEL: 0

PSCL3 SPEC fills:          0  NON-SPEC fills:          0
PSCL3 Test counter :          0
PSCL3 Leapfrog:          0
PSCL3 MSHR merge:          0
PSCL3 TOTAL     ACCESS:          0  HIT:          0  MISS:          0  HIT %:       -nan  MISS %:       -nan   MPKI: 0
PSCL3 PREFETCH  REQUESTED:          0  ISSUED:          0  USEFUL:          0  USELESS:          0
PSCL3 USEFUL LOAD PREFETCHES:          0 PREFETCH ISSUED TO LOWER LEVEL:          0  ACCURACY: -nan
PSCL3 TIMELY PREFETCHES:          0 LATE PREFETCHES: 0 DROPPED PREFETCHES: 0
PSCL3 COMMIT LATE PREFETCHES: 0 MISSED OPPORTUNITY: 0 LATE IN PQ: 0 UNCOVERED: 0
PSCL3 COMMIT LATE MSHR PREFETCHES: 0
PSCL3 MPKI TOTAL: 0 MSHR LATE: 0 PQ LATE: 0 COMMIT LATE: 0 MISSED OPPORTUNITY: 0 UNCOVERED: 0
PSCL3 PREFETCHES SAME FILL-ORIGIN LEVEL: 0 DIFFERENT FILL-ORIGIN LEVEL: 0

PSCL2 SPEC fills:          0  NON-SPEC fills:          0
PSCL2 Test counter :          0
PSCL2 Leapfrog:          0
PSCL2 MSHR merge:          0
PSCL2 TOTAL     ACCESS:          0  HIT:          0  MISS:          0  HIT %:       -nan  MISS %:       -nan   MPKI: 0
PSCL2 PREFETCH  REQUESTED:          0  ISSUED:          0  USEFUL:          0  USELESS:          0
PSCL2 USEFUL LOAD PREFETCHES:          0 PREFETCH ISSUED TO LOWER LEVEL:          0  ACCURACY: -nan
PSCL2 TIMELY PREFETCHES:          0 LATE PREFETCHES: 0 DROPPED PREFETCHES: 0
PSCL2 COMMIT LATE PREFETCHES: 0 MISSED OPPORTUNITY: 0 LATE IN PQ: 0 UNCOVERED: 0
PSCL2 COMMIT LATE MSHR PREFETCHES: 0
PSCL2 MPKI TOTAL: 0 MSHR LATE: 0 PQ LATE: 0 COMMIT LATE: 0 MISSED OPPORTUNITY: 0 UNCOVERED: 0
PSCL2 PREFETCHES SAME FILL-ORIGIN LEVEL: 0 DIFFERENT FILL-ORIGIN LEVEL: 0

LLC SPEC fills:          0  NON-SPEC fills:     467032
LLC Test counter :          0
LLC Leapfrog:          0
LLC MSHR merge:          0
LLC TOTAL     ACCESS:   15585035  HIT:    7867939  MISS:    7717096  HIT %:    50.4839  MISS %:    49.5161   MPKI: 38.5855
LLC LOAD      TOTAL       ACCESS:    6969743  HIT:    4105011  MISS:    2864732  HIT %:    58.8976  MISS %:    41.1024   MPKI: 14.3237
LLC LOAD      NON_SPEC    ACCESS:    1159155  HIT:     692123  MISS:     467032  HIT %:    59.7093  MISS %:    40.2907   MPKI: 2.33516
LLC LOAD      SPEC        ACCESS:    5810588  HIT:    3412888  MISS:    2397700  HIT %:    58.7357  MISS %:    41.2643   MPKI: 11.9885
LLC RFO       NON_SPEC    ACCESS:     121438  HIT:      63125  MISS:      58313  HIT %:    51.9813  MISS %:    48.0187   MPKI: 0.291565
LLC PREFETCH  NON_SPEC    ACCESS:    2256925  HIT:     239702  MISS:    2017223  HIT %:    10.6207  MISS %:    89.3793   MPKI: 10.0861
LLC WRITEBACK NON_SPEC    ACCESS:     302701  HIT:     296447  MISS:       6254  HIT %:    97.9339  MISS %:    2.06607   MPKI: 0.03127
LLC CLEAN_EVICTION NON_SPEC    ACCESS:    5818612  HIT:    3093774  MISS:    2724838  HIT %:    53.1703  MISS %:    46.8297   MPKI: 13.6242
LLC COMMIT LOAD NON_SPEC    ACCESS:      67185  HIT:      58613  MISS:       8572  HIT %:    87.2412  MISS %:    12.7588   MPKI: 0.04286
LLC LOAD TRANSLATION NON_SPEC    ACCESS:      43313  HIT:      11099  MISS:      32214  HIT %:    25.6251  MISS %:    74.3749   MPKI: 0.16107
LLC TRANSLATION FROM L1D PREFETCHER NON_SPEC    ACCESS:       5118  HIT:        168  MISS:       4950  HIT %:    3.28253  MISS %:    96.7175   MPKI: 0.02475
LLC PREFETCH  REQUESTED:          0  ISSUED:          0  USEFUL:      99779  USELESS:    1926484
LLC USEFUL LOAD PREFETCHES:      99779 PREFETCH ISSUED TO LOWER LEVEL:    2017224  ACCURACY: 4.94635
LLC TIMELY PREFETCHES:      99779 LATE PREFETCHES: 0 DROPPED PREFETCHES: 0
LLC COMMIT LATE PREFETCHES: 0 MISSED OPPORTUNITY: 0 LATE IN PQ: 0 UNCOVERED: 0
LLC COMMIT LATE MSHR PREFETCHES: 0
LLC MPKI TOTAL: 14.3237 MSHR LATE: 0 PQ LATE: 0 COMMIT LATE: 0 MISSED OPPORTUNITY: 0 UNCOVERED: 0
LLC PREFETCHES SAME FILL-ORIGIN LEVEL: 0 DIFFERENT FILL-ORIGIN LEVEL: 0
LLC AVERAGE MISS LATENCY: 117.895 cycles
LLC AVERAGE MISS LATENCY LOAD: 164.296 cycles
LLC AVERAGE MISS LATENCY PREFETCH: 206.975 cycles
LLC AVERAGE MSHR OCCUPANCY: 1.72088
LLC MSHR FULL: 0
LLC RQ	ACCESS:    7206872	FORWARD:          0	MERGED:          0	TO_CACHE:    7206799
LLC WQ	ACCESS:    6121313	FORWARD:         73	MERGED:          0	TO_CACHE:    6121313
LLC PQ	ACCESS:    2256926	FORWARD:          0	MERGED:          0	TO_CACHE:    2256926

LLC Dense regions hint to LLC: 0

RAW hits: 64908
Loads Generated: 76805717
Loads sent to L1D: 76740809
Stores Generated: 2216772
Stores sent to L1D: 2216772
Major fault: 0 Minor fault: 37080
Allocated PAGES: 37080
Total Load insts: 93561617
Total Non-spec loads: 6247757
Percentage of speculative loads: 93.3223

LeapFrogging counter: 130335
Commit hits: 24205868 miss: 47329754
Commit hit %: 33.8375 miss %: 66.1625
Commits not translated: 0
Loads retired: 9275021
Stores retired: 2216772
Cache fills: 9275022
L1D response latency: 81.5954 cycles
Load retirement latency: 162.05 cycles
OOO test counter: 0
Discarded buffer inserts: 24205868 hits: 22867 hit %: 0.0944688
Filter prediction accuracy: 99.9715
LATENCY_FILL: 10.6674 7851725

DRAM Statistics
 CHANNEL 0
 RQ ROW_BUFFER_HIT:     804264  ROW_BUFFER_MISS:    4180192
 DBUS_CONGESTED:       5326
 WQ ROW_BUFFER_HIT:    1242914  ROW_BUFFER_MISS:    1928069  FULL:        845

 AVG_CONGESTED_CYCLE: 5
 All warmup complete: 2
Channel 0 Bank busy for read cycles: 0
Channel 0 Bank busy for write cycles: 0
Channel 0
Rank 0
0banks busy for read cycles: 7025354
0banks busy for write cycles: 57303
1banks busy for read cycles: 144635815
1banks busy for write cycles: 11050983
2banks busy for read cycles: 99508101
2banks busy for write cycles: 12105743
3banks busy for read cycles: 50062832
3banks busy for write cycles: 12475406
4banks busy for read cycles: 19391870
4banks busy for write cycles: 13224867
5banks busy for read cycles: 6567777
5banks busy for write cycles: 14595597
6banks busy for read cycles: 2685251
6banks busy for write cycles: 17484485
7banks busy for read cycles: 2172199
7banks busy for write cycles: 25025491
8banks busy for read cycles: 4535390
8banks busy for write cycles: 43158849

CPU 0 Branch Prediction Accuracy: 97.7909% MPKI: 3.2859 Average ROB Occupancy at Mispredict: 162.456
Branch types
NOT_BRANCH: 170250761 85.1254%
BRANCH_DIRECT_JUMP: 9225403 4.6127%
BRANCH_INDIRECT: 0 0%
BRANCH_CONDITIONAL: 20520883 10.2604%
BRANCH_DIRECT_CALL: 1314 0.000657%
BRANCH_INDIRECT_CALL: 0 0%
BRANCH_RETURN: 1314 0.000657%
BRANCH_OTHER: 0 0%

DRAM PAGES: 1048576
Allocated PAGES: 37080
