
*** ChampSim Multicore Out-of-Order Simulator ***

Warmup Instructions: 50000000
Simulation Instructions: 200000000
Number of CPUs: 1
LLC sets: 2048
LLC ways: 16
L0D sets: 16
L0D ways: 2
ROB size: 352
LQ size: 128
SQ size: 72
Secure Berti: OFF
Berti: OFF
Berti Fill: OFF
On commit prefetching: OFF
Hit-based filter: OFF
Time-guarding: ON
Free-slotting: ON
Leap-frogging: ON
Train prefetcher on L0D bypass: OFF
No translation penalty for prefetchers: OFF
Prefetch to L0D only: OFF
Prefetch to L1D only: OFF
Clean evictions: ON
Commit loads: ON
Commit write: ON
Fill commit loads to L2C, LLC: ON
DRAM IO FREQUENCY: 6400
ROB SIZE: 352
Off-chip DRAM Size: 4096 MB Channels: 1 Width: 64-bit Data Rate: 6400 MT/s
CPU 0 runs /home/sumon/secure_berti/GhostMinion/../../traces/gap/bc-0.trace.gz
.gz
BTB has LRU replacement policy
ITLB has LRU replacement policy
DTLB has LRU replacement policy
STLB has LRU replacement policy
L1I has LRU replacement policy
L0D has LRU replacement policy
IP Table Entries: 1024
CSPT Entries: 128
RR_ENTRIES: 32
RST_ENTRIES: 8
L1D has LRU replacement policy
L2C has LRU replacement policy
LLC has LRU replacement policy
Heartbeat CPU 0 instructions: 10000002 cycles: 3798168 heartbeat IPC: 2.63285 cumulative IPC: 2.63285 (Simulation time: 0 hr 1 min 15 sec) 
Heartbeat CPU 0 instructions: 20000000 cycles: 7255814 heartbeat IPC: 2.89214 cumulative IPC: 2.75641 (Simulation time: 0 hr 2 min 21 sec) 
Heartbeat CPU 0 instructions: 30000003 cycles: 10759190 heartbeat IPC: 2.85439 cumulative IPC: 2.78831 (Simulation time: 0 hr 3 min 26 sec) 
Heartbeat CPU 0 instructions: 40000000 cycles: 14248410 heartbeat IPC: 2.86597 cumulative IPC: 2.80733 (Simulation time: 0 hr 4 min 30 sec) 
Heartbeat CPU 0 instructions: 50000002 cycles: 17751111 heartbeat IPC: 2.85494 cumulative IPC: 2.81673 (Simulation time: 0 hr 5 min 33 sec) 

Warmup complete CPU 0 instructions: 50000002 cycles: 17751111 (Simulation time: 0 hr 5 min 33 sec) 

Heartbeat CPU 0 instructions: 60000003 cycles: 89433369 heartbeat IPC: 0.139505 cumulative IPC: 0.139505 (Simulation time: 0 hr 7 min 9 sec) 
Heartbeat CPU 0 instructions: 70000001 cycles: 161705634 heartbeat IPC: 0.138366 cumulative IPC: 0.138933 (Simulation time: 0 hr 8 min 43 sec) 
Heartbeat CPU 0 instructions: 80000000 cycles: 233230122 heartbeat IPC: 0.139812 cumulative IPC: 0.139225 (Simulation time: 0 hr 10 min 15 sec) 
Heartbeat CPU 0 instructions: 90000002 cycles: 305320003 heartbeat IPC: 0.138716 cumulative IPC: 0.139097 (Simulation time: 0 hr 11 min 48 sec) 
Heartbeat CPU 0 instructions: 100000001 cycles: 376682499 heartbeat IPC: 0.14013 cumulative IPC: 0.139302 (Simulation time: 0 hr 13 min 21 sec) 
Heartbeat CPU 0 instructions: 110000000 cycles: 447502244 heartbeat IPC: 0.141204 cumulative IPC: 0.139616 (Simulation time: 0 hr 14 min 46 sec) 
Heartbeat CPU 0 instructions: 120000000 cycles: 517381060 heartbeat IPC: 0.143105 cumulative IPC: 0.140104 (Simulation time: 0 hr 16 min 7 sec) 
Heartbeat CPU 0 instructions: 130000001 cycles: 587535922 heartbeat IPC: 0.142542 cumulative IPC: 0.140404 (Simulation time: 0 hr 17 min 24 sec) 
Heartbeat CPU 0 instructions: 140000000 cycles: 657631171 heartbeat IPC: 0.142663 cumulative IPC: 0.140651 (Simulation time: 0 hr 18 min 34 sec) 
Heartbeat CPU 0 instructions: 150000000 cycles: 727627478 heartbeat IPC: 0.142865 cumulative IPC: 0.14087 (Simulation time: 0 hr 19 min 40 sec) 
Heartbeat CPU 0 instructions: 160000003 cycles: 796245455 heartbeat IPC: 0.145734 cumulative IPC: 0.141298 (Simulation time: 0 hr 20 min 45 sec) 
Heartbeat CPU 0 instructions: 170000001 cycles: 865237573 heartbeat IPC: 0.144944 cumulative IPC: 0.141595 (Simulation time: 0 hr 21 min 49 sec) 
Heartbeat CPU 0 instructions: 180000002 cycles: 934205260 heartbeat IPC: 0.144995 cumulative IPC: 0.141851 (Simulation time: 0 hr 22 min 50 sec) 
Heartbeat CPU 0 instructions: 190000002 cycles: 1003031777 heartbeat IPC: 0.145293 cumulative IPC: 0.142091 (Simulation time: 0 hr 23 min 48 sec) 
Heartbeat CPU 0 instructions: 200000002 cycles: 1072310357 heartbeat IPC: 0.144345 cumulative IPC: 0.14224 (Simulation time: 0 hr 24 min 46 sec) 
Heartbeat CPU 0 instructions: 210000000 cycles: 1141550088 heartbeat IPC: 0.144426 cumulative IPC: 0.142374 (Simulation time: 0 hr 25 min 42 sec) 
Heartbeat CPU 0 instructions: 220000000 cycles: 1210625129 heartbeat IPC: 0.14477 cumulative IPC: 0.142513 (Simulation time: 0 hr 26 min 39 sec) 
Heartbeat CPU 0 instructions: 230000000 cycles: 1279392773 heartbeat IPC: 0.145417 cumulative IPC: 0.142671 (Simulation time: 0 hr 27 min 36 sec) 
Heartbeat CPU 0 instructions: 240000003 cycles: 1348266799 heartbeat IPC: 0.145193 cumulative IPC: 0.142802 (Simulation time: 0 hr 28 min 32 sec) 
Heartbeat CPU 0 instructions: 250000003 cycles: 1416804079 heartbeat IPC: 0.145906 cumulative IPC: 0.142954 (Simulation time: 0 hr 29 min 27 sec) 
Finished CPU 0 instructions: 200000001 cycles: 1399052968 cumulative IPC: 0.142954 (Simulation time: 0 hr 29 min 27 sec) 
 Instruction ID: 250000008

ChampSim completed all CPUs

Region of Interest Statistics

CPU 0 cumulative IPC: 0.142954 instructions: 200000001 cycles: 1399052968
ITLB SPEC fills:          0  NON-SPEC fills:          0
ITLB Test counter :          0
ITLB Leapfrog:          0
ITLB MSHR merge:          0
ITLB TOTAL     ACCESS:   40682857  HIT:   40682857  MISS:          0  HIT %:        100  MISS %:          0   MPKI: 0
ITLB LOAD TRANSLATION NON_SPEC    ACCESS:   40682857  HIT:   40682857  MISS:          0  HIT %:        100  MISS %:          0   MPKI: 0
ITLB PREFETCH  REQUESTED:          0  ISSUED:          0  USEFUL:          0  USELESS:          0
ITLB USEFUL LOAD PREFETCHES:          0 PREFETCH ISSUED TO LOWER LEVEL:          0  ACCURACY: -nan
ITLB TIMELY PREFETCHES:          0 LATE PREFETCHES: 0 DROPPED PREFETCHES: 0
ITLB COMMIT LATE PREFETCHES: 0 NORMAL LATE: 0 MISSED OPPORTUNITY: 0 UNCOVERED: 0
ITLB PREFETCHES SAME FILL-ORIGIN LEVEL: 0 DIFFERENT FILL-ORIGIN LEVEL: 0
ITLB AVERAGE MISS LATENCY: -nan cycles
ITLB AVERAGE MISS LATENCY LOAD: -nan cycles
ITLB AVERAGE MISS LATENCY PREFETCH: -nan cycles
ITLB AVERAGE MSHR OCCUPANCY: 0
ITLB MSHR FULL: 0
ITLB RQ	ACCESS:   40944824	FORWARD:          0	MERGED:     261968	TO_CACHE:   40682856

DTLB SPEC fills:          0  NON-SPEC fills:          0
DTLB Test counter :          0
DTLB Leapfrog:          0
DTLB MSHR merge:          0
DTLB TOTAL     ACCESS:   55199906  HIT:   45780501  MISS:    9419405  HIT %:    82.9358  MISS %:    17.0642   MPKI: 47.097
DTLB LOAD TRANSLATION NON_SPEC    ACCESS:   55199906  HIT:   45780501  MISS:    9419405  HIT %:    82.9358  MISS %:    17.0642   MPKI: 47.097
DTLB PREFETCH  REQUESTED:          0  ISSUED:          0  USEFUL:          0  USELESS:          0
DTLB USEFUL LOAD PREFETCHES:          0 PREFETCH ISSUED TO LOWER LEVEL:          0  ACCURACY: -nan
DTLB TIMELY PREFETCHES:          0 LATE PREFETCHES: 0 DROPPED PREFETCHES: 0
DTLB COMMIT LATE PREFETCHES: 0 NORMAL LATE: 0 MISSED OPPORTUNITY: 0 UNCOVERED: 0
DTLB PREFETCHES SAME FILL-ORIGIN LEVEL: 0 DIFFERENT FILL-ORIGIN LEVEL: 0
DTLB AVERAGE MISS LATENCY: 36.3915 cycles
DTLB AVERAGE MISS LATENCY LOAD: -nan cycles
DTLB AVERAGE MISS LATENCY PREFETCH: -nan cycles
DTLB AVERAGE MSHR OCCUPANCY: 0.364674
DTLB MSHR FULL: 0.0012454
DTLB RQ	ACCESS:   60596262	FORWARD:          0	MERGED:    4597562	TO_CACHE:   55998700

STLB SPEC fills:          0  NON-SPEC fills:          0
STLB Test counter :          0
STLB Leapfrog:          0
STLB MSHR merge:          0
STLB TOTAL     ACCESS:   24448131  HIT:   21424650  MISS:    3023481  HIT %:    87.6331  MISS %:    12.3669   MPKI: 15.1174
STLB LOAD TRANSLATION NON_SPEC    ACCESS:    9419405  HIT:    6396355  MISS:    3023050  HIT %:    67.9061  MISS %:    32.0939   MPKI: 15.1152
STLB TRANSLATION FROM L1D PREFETCHER NON_SPEC    ACCESS:   15028726  HIT:   15028295  MISS:        431  HIT %:    99.9971  MISS %: 0.00286784   MPKI: 0.002155
STLB PREFETCH  REQUESTED:          0  ISSUED:          0  USEFUL:        370  USELESS:         61
STLB USEFUL LOAD PREFETCHES:        370 PREFETCH ISSUED TO LOWER LEVEL:          0  ACCURACY: inf
STLB TIMELY PREFETCHES:        370 LATE PREFETCHES: 0 DROPPED PREFETCHES: 0
STLB COMMIT LATE PREFETCHES: 0 NORMAL LATE: 0 MISSED OPPORTUNITY: 0 UNCOVERED: 0
STLB PREFETCHES SAME FILL-ORIGIN LEVEL: 0 DIFFERENT FILL-ORIGIN LEVEL: 0
STLB AVERAGE MISS LATENCY: 85.2203 cycles
STLB AVERAGE MISS LATENCY LOAD: -nan cycles
STLB AVERAGE MISS LATENCY PREFETCH: -nan cycles
STLB AVERAGE MSHR OCCUPANCY: 0.327511
STLB MSHR FULL: 0
STLB RQ	ACCESS:   27827035	FORWARD:          0	MERGED:    3378900	TO_CACHE:   24448135

STLB Hit, L1D data hit: 0
STLB Hit, L2C data hit: 0
STLB Hit, LLC data hit: 0
STLB Hit, LLC data miss: 0
STLB STLB hints to L2: 0
L0D SPEC fills:   31777344  NON-SPEC fills:          0
L0D TimeGuard Request with older TS:     280600 Restricted eviction:     304471 read:          0
L0D Test counter :          0
L0D Leapfrog:          0
L0D MSHR merge:     232949
L0D TOTAL     ACCESS:   51242260  HIT:   12372793  MISS:   38869467  HIT %:    24.1457  MISS %:    75.8543   MPKI: 194.347
L0D LOAD      TOTAL       ACCESS:   51242260  HIT:   12372793  MISS:   38869467  HIT %:    24.1457  MISS %:    75.8543   MPKI: 194.347
L0D LOAD      NON_SPEC    ACCESS:    6789421  HIT:       1698  MISS:    6787723  HIT %:  0.0250095  MISS %:     99.975   MPKI: 33.9386
L0D LOAD      SPEC        ACCESS:   44452839  HIT:   12371095  MISS:   32081744  HIT %:    27.8297  MISS %:    72.1703   MPKI: 160.409
L0D PREFETCH  REQUESTED:          0  ISSUED:          0  USEFUL:          0  USELESS:          0
L0D USEFUL LOAD PREFETCHES:          0 PREFETCH ISSUED TO LOWER LEVEL:          0  ACCURACY: -nan
L0D TIMELY PREFETCHES:          0 LATE PREFETCHES: 0 DROPPED PREFETCHES: 0
L0D COMMIT LATE PREFETCHES: 0 NORMAL LATE: 0 MISSED OPPORTUNITY: 0 UNCOVERED: 38869467
L0D PREFETCHES SAME FILL-ORIGIN LEVEL: 0 DIFFERENT FILL-ORIGIN LEVEL: 0
L0D AVERAGE MISS LATENCY: 62.0884 cycles
L0D AVERAGE MISS LATENCY LOAD: 62.0884 cycles
L0D AVERAGE MISS LATENCY PREFETCH: -nan cycles
L0D AVERAGE MSHR OCCUPANCY: 1.29592
L0D MSHR FULL: 0.0265131
L0D RQ	ACCESS:   52268078	FORWARD:          0	MERGED:     792877	TO_CACHE:   51475201
L0D WQ	ACCESS:    9121061	FORWARD:          0	MERGED:          0	TO_CACHE:    9121061

L1D SPEC fills:          0  NON-SPEC fills:     606632
L1D Test counter :          0
L1D Leapfrog:          0
L1D MSHR merge:     165452
L1D TOTAL     ACCESS:  102859945  HIT:   53143905  MISS:   49716040  HIT %:    51.6663  MISS %:    48.3337   MPKI: 248.58
L1D LOAD      TOTAL       ACCESS:   38868245  HIT:   22184229  MISS:   16684016  HIT %:    57.0755  MISS %:    42.9245   MPKI: 83.4201
L1D LOAD      NON_SPEC    ACCESS:    6786767  HIT:    6180135  MISS:     606632  HIT %:    91.0615  MISS %:    8.93845   MPKI: 3.03316
L1D LOAD      SPEC        ACCESS:   32081478  HIT:   16004094  MISS:   16077384  HIT %:    49.8858  MISS %:    50.1142   MPKI: 80.3869
L1D RFO       NON_SPEC    ACCESS:    3850152  HIT:    3816239  MISS:      33913  HIT %:    99.1192  MISS %:   0.880822   MPKI: 0.169565
L1D PREFETCH  NON_SPEC    ACCESS:   17994573  HIT:    1057233  MISS:   16937340  HIT %:    5.87529  MISS %:    94.1247   MPKI: 84.6867
L1D COMMIT LOAD NON_SPEC    ACCESS:   10628017  HIT:   10422884  MISS:     205133  HIT %:    98.0699  MISS %:    1.93012   MPKI: 1.02566
L1D COMMIT WRITE NON_SPEC    ACCESS:   31518958  HIT:   15663320  MISS:   15855638  HIT %:    49.6949  MISS %:    50.3051   MPKI: 79.2782
L1D PREFETCH  REQUESTED:   18407631  ISSUED:   18407631  USEFUL:     993015  USELESS:   15944342
L1D USEFUL LOAD PREFETCHES:     993015 PREFETCH ISSUED TO LOWER LEVEL:   17101665  ACCURACY: 5.80654
L1D TIMELY PREFETCHES:     993015 LATE PREFETCHES: 164326 DROPPED PREFETCHES: 0
L1D COMMIT LATE PREFETCHES: 0 NORMAL LATE: 164326 MISSED OPPORTUNITY: 0 UNCOVERED: 16519690
L1D PREFETCHES SAME FILL-ORIGIN LEVEL: 17101665 DIFFERENT FILL-ORIGIN LEVEL: 0
L1D AVERAGE MISS LATENCY: 103.271 cycles
L1D AVERAGE MISS LATENCY LOAD: 132.911 cycles
L1D AVERAGE MISS LATENCY PREFETCH: 170.798 cycles
L1D AVERAGE MSHR OCCUPANCY: 2.48302
L1D MSHR FULL: 0.0138817
L1D RQ	ACCESS:   52828745	FORWARD:          0	MERGED:    3196233	TO_CACHE:   49498105
L1D WQ	ACCESS:   40640457	FORWARD:     134407	MERGED:    5215258	TO_CACHE:   35425199
L1D PQ	ACCESS:   18407631	FORWARD:          0	MERGED:          0	TO_CACHE:   18407631

L1D UNIQUE REGIONS ACCESSED: 0
L1D REGIONS CONFLICTS: 0
L1D Cross Page Prefetch Requests: 0
L1D Same Page Prefetch Requests: 22427806
L1D ROI Sum of L1D PQ occupancy: 239738468
L1D PREFETCHES PUSHED FROM L2C: 0
L1I SPEC fills:          0  NON-SPEC fills:          0
L1I Test counter :          0
L1I Leapfrog:          0
L1I MSHR merge:          0
L1I TOTAL     ACCESS:   40944825  HIT:   40944825  MISS:          0  HIT %:        100  MISS %:          0   MPKI: 0
L1I LOAD      TOTAL       ACCESS:   40944825  HIT:   40944825  MISS:          0  HIT %:        100  MISS %:          0   MPKI: 0
L1I LOAD      NON_SPEC    ACCESS:   40944825  HIT:   40944825  MISS:          0  HIT %:        100  MISS %:          0   MPKI: 0
L1I PREFETCH  REQUESTED:          0  ISSUED:          0  USEFUL:          0  USELESS:          0
L1I USEFUL LOAD PREFETCHES:          0 PREFETCH ISSUED TO LOWER LEVEL:          0  ACCURACY: -nan
L1I TIMELY PREFETCHES:          0 LATE PREFETCHES: 0 DROPPED PREFETCHES: 0
L1I COMMIT LATE PREFETCHES: 0 NORMAL LATE: 0 MISSED OPPORTUNITY: 0 UNCOVERED: 0
L1I PREFETCHES SAME FILL-ORIGIN LEVEL: 0 DIFFERENT FILL-ORIGIN LEVEL: 0
L1I AVERAGE MISS LATENCY: -nan cycles
L1I AVERAGE MISS LATENCY LOAD: -nan cycles
L1I AVERAGE MISS LATENCY PREFETCH: -nan cycles
L1I AVERAGE MSHR OCCUPANCY: 0
L1I MSHR FULL: 0
L1I RQ	ACCESS:   52456470	FORWARD:          0	MERGED:   11511646	TO_CACHE:   40944824

BTB SPEC fills:          0  NON-SPEC fills:          0
BTB Test counter :          0
BTB Leapfrog:          0
BTB MSHR merge:          0
BTB TOTAL     ACCESS:   38946633  HIT:   38946619  MISS:         14  HIT %:        100  MISS %: 3.59466e-05   MPKI: 7e-05
BTB BRANCH_DIRECT_JUMP	ACCESS:     251798  HIT:     251794  MISS:          4
BTB BRANCH_INDIRECT	ACCESS:          0  HIT:          0  MISS:          0
BTB BRANCH_CONDITIONAL	ACCESS:   38694807  HIT:   38694799  MISS:          8
BTB BRANCH_DIRECT_CALL	ACCESS:         14  HIT:         13  MISS:          1
BTB BRANCH_INDIRECT_CALL	ACCESS:          0  HIT:          0  MISS:          0
BTB BRANCH_RETURN	ACCESS:         14  HIT:         13  MISS:          1
BTB BRANCH_OTHER ACCESS:          0  HIT:          0  MISS:          0

L2C SPEC fills:          0  NON-SPEC fills:     527626
L2C Test counter :          0
L2C Leapfrog:          0
L2C MSHR merge:          0
L2C TOTAL     ACCESS:   66100927  HIT:   21576186  MISS:   44524741  HIT %:    32.6413  MISS %:    67.3587   MPKI: 222.624
L2C LOAD      TOTAL       ACCESS:   16519754  HIT:    1992464  MISS:   14527290  HIT %:    12.0611  MISS %:    87.9389   MPKI: 72.6364
L2C LOAD      NON_SPEC    ACCESS:     602565  HIT:      74939  MISS:     527626  HIT %:    12.4367  MISS %:    87.5633   MPKI: 2.63813
L2C LOAD      SPEC        ACCESS:   15917189  HIT:    1917525  MISS:   13999664  HIT %:    12.0469  MISS %:    87.9531   MPKI: 69.9983
L2C RFO       NON_SPEC    ACCESS:      33908  HIT:       5268  MISS:      28640  HIT %:    15.5362  MISS %:    84.4638   MPKI: 0.1432
L2C PREFETCH  NON_SPEC    ACCESS:   17101664  HIT:    1680434  MISS:   15421230  HIT %:    9.82614  MISS %:    90.1739   MPKI: 77.1061
L2C WRITEBACK NON_SPEC    ACCESS:     248730  HIT:     248542  MISS:        188  HIT %:    99.9244  MISS %:   0.075584   MPKI: 0.00094
L2C CLEAN_EVICTION NON_SPEC    ACCESS:   16874479  HIT:    2865456  MISS:   14009023  HIT %:     16.981  MISS %:     83.019   MPKI: 70.0451
L2C COMMIT LOAD NON_SPEC    ACCESS:     205003  HIT:      58328  MISS:     146675  HIT %:    28.4523  MISS %:    71.5477   MPKI: 0.733375
L2C LOAD TRANSLATION NON_SPEC    ACCESS:   15115234  HIT:   14723617  MISS:     391617  HIT %:    97.4091  MISS %:    2.59088   MPKI: 1.95808
L2C TRANSLATION FROM L1D PREFETCHER NON_SPEC    ACCESS:       2155  HIT:       2077  MISS:         78  HIT %:    96.3805  MISS %:    3.61949   MPKI: 0.00039
L2C PREFETCH  REQUESTED:          0  ISSUED:          0  USEFUL:     313929  USELESS:   15107487
L2C USEFUL LOAD PREFETCHES:     313929 PREFETCH ISSUED TO LOWER LEVEL:   15421233  ACCURACY: 2.03569
L2C TIMELY PREFETCHES:     313929 LATE PREFETCHES: 0 DROPPED PREFETCHES: 0
L2C COMMIT LATE PREFETCHES: 0 NORMAL LATE: 0 MISSED OPPORTUNITY: 0 UNCOVERED: 14527290
L2C PREFETCHES SAME FILL-ORIGIN LEVEL: 0 DIFFERENT FILL-ORIGIN LEVEL: 0
L2C AVERAGE MISS LATENCY: 106.029 cycles
L2C AVERAGE MISS LATENCY LOAD: 138.098 cycles
L2C AVERAGE MISS LATENCY PREFETCH: 173.065 cycles
L2C AVERAGE MSHR OCCUPANCY: 2.81712
L2C MSHR FULL: 0
L2C RQ	ACCESS:   31876124	FORWARD:          0	MERGED:          0	TO_CACHE:   31876053
L2C WQ	ACCESS:   17123212	FORWARD:         73	MERGED:          3	TO_CACHE:   17123209
L2C PQ	ACCESS:   17101665	FORWARD:          0	MERGED:          0	TO_CACHE:   17101663

L2C Instructions Evicting Data 0
L2C Translations Evicting Data 391291
L2C Data Evicting Data 15914657
L2C Instructions Evicting Instructions 0
L2C Translations Evicting Instructions 0
L2C Data Evicting Instructions 0
L2C Instructions Evicting Translations 0
L2C Translations Evicting Translations 404
L2C Data Evicting Translations 209514
L2C Dense regions hint from L2: 0
PSCL5 SPEC fills:          0  NON-SPEC fills:          0
PSCL5 Test counter :          0
PSCL5 Leapfrog:          0
PSCL5 MSHR merge:          0
PSCL5 TOTAL     ACCESS:          0  HIT:          0  MISS:          0  HIT %:       -nan  MISS %:       -nan   MPKI: 0
PSCL5 PREFETCH  REQUESTED:          0  ISSUED:          0  USEFUL:          0  USELESS:          0
PSCL5 USEFUL LOAD PREFETCHES:          0 PREFETCH ISSUED TO LOWER LEVEL:          0  ACCURACY: -nan
PSCL5 TIMELY PREFETCHES:          0 LATE PREFETCHES: 0 DROPPED PREFETCHES: 0
PSCL5 COMMIT LATE PREFETCHES: 0 NORMAL LATE: 0 MISSED OPPORTUNITY: 0 UNCOVERED: 0
PSCL5 PREFETCHES SAME FILL-ORIGIN LEVEL: 0 DIFFERENT FILL-ORIGIN LEVEL: 0

PSCL4 SPEC fills:          0  NON-SPEC fills:          0
PSCL4 Test counter :          0
PSCL4 Leapfrog:          0
PSCL4 MSHR merge:          0
PSCL4 TOTAL     ACCESS:          0  HIT:          0  MISS:          0  HIT %:       -nan  MISS %:       -nan   MPKI: 0
PSCL4 PREFETCH  REQUESTED:          0  ISSUED:          0  USEFUL:          0  USELESS:          0
PSCL4 USEFUL LOAD PREFETCHES:          0 PREFETCH ISSUED TO LOWER LEVEL:          0  ACCURACY: -nan
PSCL4 TIMELY PREFETCHES:          0 LATE PREFETCHES: 0 DROPPED PREFETCHES: 0
PSCL4 COMMIT LATE PREFETCHES: 0 NORMAL LATE: 0 MISSED OPPORTUNITY: 0 UNCOVERED: 0
PSCL4 PREFETCHES SAME FILL-ORIGIN LEVEL: 0 DIFFERENT FILL-ORIGIN LEVEL: 0

PSCL3 SPEC fills:          0  NON-SPEC fills:          0
PSCL3 Test counter :          0
PSCL3 Leapfrog:          0
PSCL3 MSHR merge:          0
PSCL3 TOTAL     ACCESS:          0  HIT:          0  MISS:          0  HIT %:       -nan  MISS %:       -nan   MPKI: 0
PSCL3 PREFETCH  REQUESTED:          0  ISSUED:          0  USEFUL:          0  USELESS:          0
PSCL3 USEFUL LOAD PREFETCHES:          0 PREFETCH ISSUED TO LOWER LEVEL:          0  ACCURACY: -nan
PSCL3 TIMELY PREFETCHES:          0 LATE PREFETCHES: 0 DROPPED PREFETCHES: 0
PSCL3 COMMIT LATE PREFETCHES: 0 NORMAL LATE: 0 MISSED OPPORTUNITY: 0 UNCOVERED: 0
PSCL3 PREFETCHES SAME FILL-ORIGIN LEVEL: 0 DIFFERENT FILL-ORIGIN LEVEL: 0

PSCL2 SPEC fills:          0  NON-SPEC fills:          0
PSCL2 Test counter :          0
PSCL2 Leapfrog:          0
PSCL2 MSHR merge:          0
PSCL2 TOTAL     ACCESS:          0  HIT:          0  MISS:          0  HIT %:       -nan  MISS %:       -nan   MPKI: 0
PSCL2 PREFETCH  REQUESTED:          0  ISSUED:          0  USEFUL:          0  USELESS:          0
PSCL2 USEFUL LOAD PREFETCHES:          0 PREFETCH ISSUED TO LOWER LEVEL:          0  ACCURACY: -nan
PSCL2 TIMELY PREFETCHES:          0 LATE PREFETCHES: 0 DROPPED PREFETCHES: 0
PSCL2 COMMIT LATE PREFETCHES: 0 NORMAL LATE: 0 MISSED OPPORTUNITY: 0 UNCOVERED: 0
PSCL2 PREFETCHES SAME FILL-ORIGIN LEVEL: 0 DIFFERENT FILL-ORIGIN LEVEL: 0

LLC SPEC fills:          0  NON-SPEC fills:     349625
LLC Test counter :          0
LLC Leapfrog:          0
LLC MSHR merge:          0
LLC TOTAL     ACCESS:   46195531  HIT:   17185584  MISS:   29009947  HIT %:    37.2018  MISS %:    62.7982   MPKI: 145.05
LLC LOAD      TOTAL       ACCESS:   14527239  HIT:    5593428  MISS:    8933811  HIT %:     38.503  MISS %:     61.497   MPKI: 44.6691
LLC LOAD      NON_SPEC    ACCESS:     527624  HIT:     177999  MISS:     349625  HIT %:     33.736  MISS %:     66.264   MPKI: 1.74812
LLC LOAD      SPEC        ACCESS:   13999615  HIT:    5415429  MISS:    8584186  HIT %:    38.6827  MISS %:    61.3173   MPKI: 42.9209
LLC RFO       NON_SPEC    ACCESS:      28640  HIT:        300  MISS:      28340  HIT %:    1.04749  MISS %:    98.9525   MPKI: 0.1417
LLC PREFETCH  NON_SPEC    ACCESS:   15421214  HIT:    4932644  MISS:   10488570  HIT %:    31.9861  MISS %:    68.0139   MPKI: 52.4428
LLC WRITEBACK NON_SPEC    ACCESS:     240044  HIT:     240032  MISS:         12  HIT %:     99.995  MISS %: 0.00499908   MPKI: 6e-05
LLC CLEAN_EVICTION NON_SPEC    ACCESS:   15440047  HIT:    5975326  MISS:    9464721  HIT %:    38.7002  MISS %:    61.2998   MPKI: 47.3236
LLC COMMIT LOAD NON_SPEC    ACCESS:     146652  HIT:     116873  MISS:      29779  HIT %:    79.6941  MISS %:    20.3059   MPKI: 0.148895
LLC LOAD TRANSLATION NON_SPEC    ACCESS:     391617  HIT:     326919  MISS:      64698  HIT %:    83.4793  MISS %:    16.5207   MPKI: 0.32349
LLC TRANSLATION FROM L1D PREFETCHER NON_SPEC    ACCESS:         78  HIT:         62  MISS:         16  HIT %:    79.4872  MISS %:    20.5128   MPKI: 8e-05
LLC PREFETCH  REQUESTED:          0  ISSUED:          0  USEFUL:     934778  USELESS:    9553954
LLC USEFUL LOAD PREFETCHES:     934778 PREFETCH ISSUED TO LOWER LEVEL:   10488573  ACCURACY: 8.91235
LLC TIMELY PREFETCHES:     934778 LATE PREFETCHES: 0 DROPPED PREFETCHES: 0
LLC COMMIT LATE PREFETCHES: 0 NORMAL LATE: 0 MISSED OPPORTUNITY: 0 UNCOVERED: 8933811
LLC PREFETCHES SAME FILL-ORIGIN LEVEL: 0 DIFFERENT FILL-ORIGIN LEVEL: 0
LLC AVERAGE MISS LATENCY: 135.492 cycles
LLC AVERAGE MISS LATENCY LOAD: 189.859 cycles
LLC AVERAGE MISS LATENCY PREFETCH: 210.29 cycles
LLC AVERAGE MSHR OCCUPANCY: 2.27562
LLC MSHR FULL: 0
LLC RQ	ACCESS:   15094299	FORWARD:          0	MERGED:          0	TO_CACHE:   15094225
LLC WQ	ACCESS:   15680091	FORWARD:         90	MERGED:          0	TO_CACHE:   15680091
LLC PQ	ACCESS:   15421233	FORWARD:          0	MERGED:          0	TO_CACHE:   15421217

LLC Dense regions hint to LLC: 0

RAW hits: 230868
Loads Generated: 52498946
Loads sent to L1D: 52268078
Stores Generated: 9121059
Stores sent to L1D: 9121061
Major fault: 0 Minor fault: 33138
Allocated PAGES: 33138
Total Load insts: 64398061
Total Non-spec loads: 7080134
Percentage of speculative loads: 89.0057

LeapFrogging counter: 307274
Commit hits: 31519397 miss: 13959282
Commit hit %: 69.3059 miss %: 30.6941
Commits not translated: 0
Loads retired: 16684015
Stores retired: 9121061
Cache fills: 16684016
L1D response latency: 132.911 cycles
Load retirement latency: 253.241 cycles
OOO test counter: 0
Discarded buffer inserts: 31519397 hits: 11469 hit %: 0.0363871
Filter prediction accuracy: -nan

stream: 
stream:times selected: 21876088
stream:pref_filled: 18827644
stream:pref_useful: 293844
stream:pref_late: 3538
stream:misses: 4450125
stream:misses_by_poll: 0

CS: 
CS:times selected: 1186037
CS:pref_filled: 1252126
CS:pref_useful: 995945
CS:pref_late: 344
CS:misses: 160655
CS:misses_by_poll: 31473

CPLX: 
CPLX:times selected: 20533746
CPLX:pref_filled: 478052
CPLX:pref_useful: 20655
CPLX:pref_late: 153
CPLX:misses: 15526976
CPLX:misses_by_poll: 42532

NL_L1: 
NL:times selected: 22008
NL:pref_filled: 20653
NL:pref_useful: 174
NL:pref_late: 6
NL:misses: 21661
NL:misses_by_poll: 1

total selections: 43617879
total_filled: 16937340
total_useful: 993015
total_late: 4279
total_polluted: 74006
total_misses_after_warmup: 16685236
conflicts: 2
Degree Incremented Times: 87079
Degree Decremented Times: 376089

L1 IP Table Write Accesses: 38869451
L1 IP Table Read Accesses: 38869449
L1 RST Write Accesses: 18011407
L1 RST Read Accesses: 36022814
L1 CSPT Write Accesses: 18011407
L1 CSPT Read Accesses: 34967162
L1 RR Filter Tag Write Accesses: 18407631
L1 RR Filter Tag Read Accesses: 640100627
L1 IP Table Tag Write Accesses: 38869465
L1 IP Table Tag Read Accesses: 38869465
L1 RST Tag Write Accesses: 0
L1 RST Tag Read Accesses: 162423715
L1 RR Filter Write Accesses: 0
L1 RR Filter Read Accesses: 20782820
test: 9820763

DRAM Statistics
 CHANNEL 0
 RQ ROW_BUFFER_HIT:    2198715  ROW_BUFFER_MISS:   17339409
 DBUS_CONGESTED:       2683
 WQ ROW_BUFFER_HIT:    4424109  ROW_BUFFER_MISS:    7129091  FULL:          0

 AVG_CONGESTED_CYCLE: 5
 All warmup complete: 2
Channel 0 Bank busy for read cycles: 0
Channel 0 Bank busy for write cycles: 0
Channel 0
Rank 0
0banks busy for read cycles: 3813908
0banks busy for write cycles: 493
1banks busy for read cycles: 213745755
1banks busy for write cycles: 3242288
2banks busy for read cycles: 274702740
2banks busy for write cycles: 3224719
3banks busy for read cycles: 202863778
3banks busy for write cycles: 3237369
4banks busy for read cycles: 164557435
4banks busy for write cycles: 3334906
5banks busy for read cycles: 79572518
5banks busy for write cycles: 4411887
6banks busy for read cycles: 34553068
6banks busy for write cycles: 16972857
7banks busy for read cycles: 10882362
7banks busy for write cycles: 98395985
8banks busy for read cycles: 2406626
8banks busy for write cycles: 279134275

CPU 0 Branch Prediction Accuracy: 88.9318% MPKI: 21.5679 Average ROB Occupancy at Mispredict: 32.0417
Branch types
NOT_BRANCH: 161026980 80.5135%
BRANCH_DIRECT_JUMP: 251798 0.125899%
BRANCH_INDIRECT: 0 0%
BRANCH_CONDITIONAL: 38720835 19.3604%
BRANCH_DIRECT_CALL: 14 7e-06%
BRANCH_INDIRECT_CALL: 0 0%
BRANCH_RETURN: 14 7e-06%
BRANCH_OTHER: 0 0%

DRAM PAGES: 1048576
Allocated PAGES: 33138
