
*** ChampSim Multicore Out-of-Order Simulator ***

Warmup Instructions: 50000000
Simulation Instructions: 200000000
Number of CPUs: 1
LLC sets: 2048
LLC ways: 16
L0D sets: 16
L0D ways: 2
ROB size: 352
LQ size: 128
SQ size: 72
Secure Berti: OFF
Berti: OFF
Berti Fill: OFF
On commit prefetching: OFF
Hit-based filter: OFF
Time-guarding: ON
Free-slotting: ON
Leap-frogging: ON
Train prefetcher on L0D bypass: OFF
No translation penalty for prefetchers: OFF
Prefetch to L0D only: OFF
Prefetch to L1D only: OFF
Clean evictions: ON
Commit loads: ON
Commit write: ON
Fill commit loads to L2C, LLC: ON
DRAM IO FREQUENCY: 6400
ROB SIZE: 352
Off-chip DRAM Size: 4096 MB Channels: 1 Width: 64-bit Data Rate: 6400 MT/s
CPU 0 runs /home/sumon/secure_berti/GhostMinion/../../traces/gap/bc-12.trace.gz
.gz
BTB has LRU replacement policy
ITLB has LRU replacement policy
DTLB has LRU replacement policy
STLB has LRU replacement policy
L1I has LRU replacement policy
L0D has LRU replacement policy
IP Table Entries: 1024
CSPT Entries: 128
RR_ENTRIES: 32
RST_ENTRIES: 8
L1D has LRU replacement policy
L2C has LRU replacement policy
LLC has LRU replacement policy
Heartbeat CPU 0 instructions: 10000001 cycles: 3901787 heartbeat IPC: 2.56293 cumulative IPC: 2.56293 (Simulation time: 0 hr 0 min 53 sec) 
Heartbeat CPU 0 instructions: 20000000 cycles: 7474848 heartbeat IPC: 2.79872 cumulative IPC: 2.67564 (Simulation time: 0 hr 1 min 51 sec) 
Heartbeat CPU 0 instructions: 30000002 cycles: 11087539 heartbeat IPC: 2.76802 cumulative IPC: 2.70574 (Simulation time: 0 hr 2 min 49 sec) 
Heartbeat CPU 0 instructions: 40000000 cycles: 14694303 heartbeat IPC: 2.77257 cumulative IPC: 2.72214 (Simulation time: 0 hr 3 min 46 sec) 
Heartbeat CPU 0 instructions: 50000001 cycles: 18264430 heartbeat IPC: 2.80102 cumulative IPC: 2.73756 (Simulation time: 0 hr 4 min 42 sec) 

Warmup complete CPU 0 instructions: 50000001 cycles: 18264430 (Simulation time: 0 hr 4 min 42 sec) 

Heartbeat CPU 0 instructions: 60000001 cycles: 93030404 heartbeat IPC: 0.133751 cumulative IPC: 0.133751 (Simulation time: 0 hr 6 min 5 sec) 
Heartbeat CPU 0 instructions: 70000002 cycles: 169043568 heartbeat IPC: 0.131556 cumulative IPC: 0.132644 (Simulation time: 0 hr 7 min 26 sec) 
Heartbeat CPU 0 instructions: 80000002 cycles: 244795594 heartbeat IPC: 0.13201 cumulative IPC: 0.132432 (Simulation time: 0 hr 8 min 45 sec) 
Heartbeat CPU 0 instructions: 90000002 cycles: 321514915 heartbeat IPC: 0.130345 cumulative IPC: 0.131904 (Simulation time: 0 hr 10 min 4 sec) 
Heartbeat CPU 0 instructions: 100000001 cycles: 397982598 heartbeat IPC: 0.130774 cumulative IPC: 0.131677 (Simulation time: 0 hr 11 min 22 sec) 
Heartbeat CPU 0 instructions: 110000000 cycles: 474864904 heartbeat IPC: 0.130069 cumulative IPC: 0.131406 (Simulation time: 0 hr 12 min 38 sec) 
Heartbeat CPU 0 instructions: 120000001 cycles: 550941897 heartbeat IPC: 0.131446 cumulative IPC: 0.131412 (Simulation time: 0 hr 13 min 48 sec) 
Heartbeat CPU 0 instructions: 130000003 cycles: 627812261 heartbeat IPC: 0.130089 cumulative IPC: 0.131245 (Simulation time: 0 hr 14 min 57 sec) 
Heartbeat CPU 0 instructions: 140000000 cycles: 703683161 heartbeat IPC: 0.131803 cumulative IPC: 0.131307 (Simulation time: 0 hr 16 min 3 sec) 
Heartbeat CPU 0 instructions: 150000000 cycles: 780793559 heartbeat IPC: 0.129684 cumulative IPC: 0.131143 (Simulation time: 0 hr 17 min 7 sec) 
Heartbeat CPU 0 instructions: 160000001 cycles: 856572314 heartbeat IPC: 0.131963 cumulative IPC: 0.131217 (Simulation time: 0 hr 18 min 10 sec) 
Heartbeat CPU 0 instructions: 170000003 cycles: 931872277 heartbeat IPC: 0.132802 cumulative IPC: 0.131347 (Simulation time: 0 hr 19 min 11 sec) 
Heartbeat CPU 0 instructions: 180000001 cycles: 1008378103 heartbeat IPC: 0.130709 cumulative IPC: 0.131298 (Simulation time: 0 hr 20 min 13 sec) 
Heartbeat CPU 0 instructions: 190000000 cycles: 1081121472 heartbeat IPC: 0.13747 cumulative IPC: 0.13172 (Simulation time: 0 hr 21 min 13 sec) 
Heartbeat CPU 0 instructions: 200000000 cycles: 1157765966 heartbeat IPC: 0.130473 cumulative IPC: 0.131637 (Simulation time: 0 hr 22 min 14 sec) 
Heartbeat CPU 0 instructions: 210000002 cycles: 1234140607 heartbeat IPC: 0.130934 cumulative IPC: 0.131592 (Simulation time: 0 hr 23 min 14 sec) 
Heartbeat CPU 0 instructions: 220000000 cycles: 1310650492 heartbeat IPC: 0.130702 cumulative IPC: 0.13154 (Simulation time: 0 hr 24 min 13 sec) 
Heartbeat CPU 0 instructions: 230000001 cycles: 1386928443 heartbeat IPC: 0.131099 cumulative IPC: 0.131515 (Simulation time: 0 hr 25 min 11 sec) 
Heartbeat CPU 0 instructions: 240000001 cycles: 1463573853 heartbeat IPC: 0.130471 cumulative IPC: 0.13146 (Simulation time: 0 hr 26 min 10 sec) 
Heartbeat CPU 0 instructions: 250000003 cycles: 1539467603 heartbeat IPC: 0.131763 cumulative IPC: 0.131475 (Simulation time: 0 hr 27 min 7 sec) 
Finished CPU 0 instructions: 200000002 cycles: 1521203173 cumulative IPC: 0.131475 (Simulation time: 0 hr 27 min 7 sec) 
 Instruction ID: 250000045

ChampSim completed all CPUs

Region of Interest Statistics

CPU 0 cumulative IPC: 0.131475 instructions: 200000002 cycles: 1521203173
ITLB SPEC fills:          0  NON-SPEC fills:          0
ITLB Test counter :          0
ITLB Leapfrog:          0
ITLB MSHR merge:          0
ITLB TOTAL     ACCESS:   36668715  HIT:   36668715  MISS:          0  HIT %:        100  MISS %:          0   MPKI: 0
ITLB LOAD TRANSLATION NON_SPEC    ACCESS:   36668715  HIT:   36668715  MISS:          0  HIT %:        100  MISS %:          0   MPKI: 0
ITLB PREFETCH  REQUESTED:          0  ISSUED:          0  USEFUL:          0  USELESS:          0
ITLB USEFUL LOAD PREFETCHES:          0 PREFETCH ISSUED TO LOWER LEVEL:          0  ACCURACY: -nan
ITLB TIMELY PREFETCHES:          0 LATE PREFETCHES: 0 DROPPED PREFETCHES: 0
ITLB COMMIT LATE PREFETCHES: 0 NORMAL LATE: 0 MISSED OPPORTUNITY: 0 UNCOVERED: 0
ITLB PREFETCHES SAME FILL-ORIGIN LEVEL: 0 DIFFERENT FILL-ORIGIN LEVEL: 0
ITLB AVERAGE MISS LATENCY: -nan cycles
ITLB AVERAGE MISS LATENCY LOAD: -nan cycles
ITLB AVERAGE MISS LATENCY PREFETCH: -nan cycles
ITLB AVERAGE MSHR OCCUPANCY: 0
ITLB MSHR FULL: 0
ITLB RQ	ACCESS:   36968064	FORWARD:          0	MERGED:     299349	TO_CACHE:   36668715

DTLB SPEC fills:          0  NON-SPEC fills:          0
DTLB Test counter :          0
DTLB Leapfrog:          0
DTLB MSHR merge:          0
DTLB TOTAL     ACCESS:   60139177  HIT:   51632874  MISS:    8506303  HIT %:    85.8556  MISS %:    14.1444   MPKI: 42.5315
DTLB LOAD TRANSLATION NON_SPEC    ACCESS:   60139177  HIT:   51632874  MISS:    8506303  HIT %:    85.8556  MISS %:    14.1444   MPKI: 42.5315
DTLB PREFETCH  REQUESTED:          0  ISSUED:          0  USEFUL:          0  USELESS:          0
DTLB USEFUL LOAD PREFETCHES:          0 PREFETCH ISSUED TO LOWER LEVEL:          0  ACCURACY: -nan
DTLB TIMELY PREFETCHES:          0 LATE PREFETCHES: 0 DROPPED PREFETCHES: 0
DTLB COMMIT LATE PREFETCHES: 0 NORMAL LATE: 0 MISSED OPPORTUNITY: 0 UNCOVERED: 0
DTLB PREFETCHES SAME FILL-ORIGIN LEVEL: 0 DIFFERENT FILL-ORIGIN LEVEL: 0
DTLB AVERAGE MISS LATENCY: 42.392 cycles
DTLB AVERAGE MISS LATENCY LOAD: -nan cycles
DTLB AVERAGE MISS LATENCY PREFETCH: -nan cycles
DTLB AVERAGE MSHR OCCUPANCY: 0.252862
DTLB MSHR FULL: 0.000450892
DTLB RQ	ACCESS:   66125970	FORWARD:          0	MERGED:    5222693	TO_CACHE:   60903277

STLB SPEC fills:          0  NON-SPEC fills:          0
STLB Test counter :          0
STLB Leapfrog:          0
STLB MSHR merge:          0
STLB TOTAL     ACCESS:   23502143  HIT:   20148974  MISS:    3353169  HIT %:    85.7325  MISS %:    14.2675   MPKI: 16.7658
STLB LOAD TRANSLATION NON_SPEC    ACCESS:    8506303  HIT:    5153631  MISS:    3352672  HIT %:     60.586  MISS %:     39.414   MPKI: 16.7634
STLB TRANSLATION FROM L1D PREFETCHER NON_SPEC    ACCESS:   14995840  HIT:   14995343  MISS:        497  HIT %:    99.9967  MISS %: 0.00331425   MPKI: 0.002485
STLB PREFETCH  REQUESTED:          0  ISSUED:          0  USEFUL:        454  USELESS:         43
STLB USEFUL LOAD PREFETCHES:        454 PREFETCH ISSUED TO LOWER LEVEL:          0  ACCURACY: inf
STLB TIMELY PREFETCHES:        454 LATE PREFETCHES: 0 DROPPED PREFETCHES: 0
STLB COMMIT LATE PREFETCHES: 0 NORMAL LATE: 0 MISSED OPPORTUNITY: 0 UNCOVERED: 0
STLB PREFETCHES SAME FILL-ORIGIN LEVEL: 0 DIFFERENT FILL-ORIGIN LEVEL: 0
STLB AVERAGE MISS LATENCY: 84.6567 cycles
STLB AVERAGE MISS LATENCY LOAD: -nan cycles
STLB AVERAGE MISS LATENCY PREFETCH: -nan cycles
STLB AVERAGE MSHR OCCUPANCY: 0.298472
STLB MSHR FULL: 0
STLB RQ	ACCESS:   26449262	FORWARD:          0	MERGED:    2947074	TO_CACHE:   23502188

STLB Hit, L1D data hit: 0
STLB Hit, L2C data hit: 0
STLB Hit, LLC data hit: 0
STLB Hit, LLC data miss: 0
STLB STLB hints to L2: 0
L0D SPEC fills:   35516736  NON-SPEC fills:          0
L0D TimeGuard Request with older TS:     376969 Restricted eviction:     349856 read:          1
L0D Test counter :          0
L0D Leapfrog:          0
L0D MSHR merge:     239882
L0D TOTAL     ACCESS:   54641153  HIT:    8786305  MISS:   45854848  HIT %:      16.08  MISS %:      83.92   MPKI: 229.274
L0D LOAD      TOTAL       ACCESS:   54641153  HIT:    8786305  MISS:   45854848  HIT %:      16.08  MISS %:      83.92   MPKI: 229.274
L0D LOAD      NON_SPEC    ACCESS:    9992930  HIT:       4609  MISS:    9988321  HIT %:  0.0461226  MISS %:    99.9539   MPKI: 49.9416
L0D LOAD      SPEC        ACCESS:   44648223  HIT:    8781696  MISS:   35866527  HIT %:    19.6686  MISS %:    80.3314   MPKI: 179.333
L0D PREFETCH  REQUESTED:          0  ISSUED:          0  USEFUL:          0  USELESS:          0
L0D USEFUL LOAD PREFETCHES:          0 PREFETCH ISSUED TO LOWER LEVEL:          0  ACCURACY: -nan
L0D TIMELY PREFETCHES:          0 LATE PREFETCHES: 0 DROPPED PREFETCHES: 0
L0D COMMIT LATE PREFETCHES: 0 NORMAL LATE: 0 MISSED OPPORTUNITY: 0 UNCOVERED: 45854848
L0D PREFETCHES SAME FILL-ORIGIN LEVEL: 0 DIFFERENT FILL-ORIGIN LEVEL: 0
L0D AVERAGE MISS LATENCY: 56.0842 cycles
L0D AVERAGE MISS LATENCY LOAD: 56.0842 cycles
L0D AVERAGE MISS LATENCY PREFETCH: -nan cycles
L0D AVERAGE MSHR OCCUPANCY: 1.64285
L0D MSHR FULL: 0.0719938
L0D RQ	ACCESS:   55564109	FORWARD:          0	MERGED:     683077	TO_CACHE:   54881032
L0D WQ	ACCESS:   11244938	FORWARD:          0	MERGED:          0	TO_CACHE:   11244938

L1D SPEC fills:          0  NON-SPEC fills:    3736636
L1D Test counter :          0
L1D Leapfrog:          0
L1D MSHR merge:     260398
L1D TOTAL     ACCESS:  113267774  HIT:   67935585  MISS:   45332189  HIT %:    59.9779  MISS %:    40.0221   MPKI: 226.661
L1D LOAD      TOTAL       ACCESS:   45853211  HIT:   29562986  MISS:   16290225  HIT %:    64.4731  MISS %:    35.5269   MPKI: 81.4511
L1D LOAD      NON_SPEC    ACCESS:    9987018  HIT:    6250382  MISS:    3736636  HIT %:    62.5851  MISS %:    37.4149   MPKI: 18.6832
L1D LOAD      SPEC        ACCESS:   35866193  HIT:   23312604  MISS:   12553589  HIT %:    64.9988  MISS %:    35.0012   MPKI: 62.7679
L1D RFO       NON_SPEC    ACCESS:    7141501  HIT:    7107855  MISS:      33646  HIT %:    99.5289  MISS %:   0.471133   MPKI: 0.16823
L1D PREFETCH  NON_SPEC    ACCESS:   17419879  HIT:     949094  MISS:   16470785  HIT %:    5.44834  MISS %:    94.5517   MPKI: 82.3539
L1D COMMIT LOAD NON_SPEC    ACCESS:    7548996  HIT:    7379964  MISS:     169032  HIT %:    97.7609  MISS %:    2.23913   MPKI: 0.84516
L1D COMMIT WRITE NON_SPEC    ACCESS:   35304187  HIT:   22935686  MISS:   12368501  HIT %:    64.9659  MISS %:    35.0341   MPKI: 61.8425
L1D PREFETCH  REQUESTED:   17942981  ISSUED:   17942959  USEFUL:     994428  USELESS:   15476351
L1D USEFUL LOAD PREFETCHES:     994428 PREFETCH ISSUED TO LOWER LEVEL:   16729618  ACCURACY: 5.94412
L1D TIMELY PREFETCHES:     994428 LATE PREFETCHES: 258836 DROPPED PREFETCHES: 0
L1D COMMIT LATE PREFETCHES: 0 NORMAL LATE: 258836 MISSED OPPORTUNITY: 0 UNCOVERED: 16031389
L1D PREFETCHES SAME FILL-ORIGIN LEVEL: 16729618 DIFFERENT FILL-ORIGIN LEVEL: 0
L1D AVERAGE MISS LATENCY: 115.427 cycles
L1D AVERAGE MISS LATENCY LOAD: 142.618 cycles
L1D AVERAGE MISS LATENCY PREFETCH: 175.284 cycles
L1D AVERAGE MSHR OCCUPANCY: 2.27678
L1D MSHR FULL: 0.0162474
L1D RQ	ACCESS:   56119328	FORWARD:          0	MERGED:    2122095	TO_CACHE:   53404611
L1D WQ	ACCESS:   46551654	FORWARD:     592622	MERGED:    4036270	TO_CACHE:   42515384
L1D PQ	ACCESS:   17942959	FORWARD:          0	MERGED:          0	TO_CACHE:   17942959

L1D UNIQUE REGIONS ACCESSED: 0
L1D REGIONS CONFLICTS: 0
L1D Cross Page Prefetch Requests: 0
L1D Same Page Prefetch Requests: 21956867
L1D ROI Sum of L1D PQ occupancy: 235806660
L1D PREFETCHES PUSHED FROM L2C: 0
L1I SPEC fills:          0  NON-SPEC fills:          0
L1I Test counter :          0
L1I Leapfrog:          0
L1I MSHR merge:          0
L1I TOTAL     ACCESS:   36968062  HIT:   36968062  MISS:          0  HIT %:        100  MISS %:          0   MPKI: 0
L1I LOAD      TOTAL       ACCESS:   36968062  HIT:   36968062  MISS:          0  HIT %:        100  MISS %:          0   MPKI: 0
L1I LOAD      NON_SPEC    ACCESS:   36968062  HIT:   36968062  MISS:          0  HIT %:        100  MISS %:          0   MPKI: 0
L1I PREFETCH  REQUESTED:          0  ISSUED:          0  USEFUL:          0  USELESS:          0
L1I USEFUL LOAD PREFETCHES:          0 PREFETCH ISSUED TO LOWER LEVEL:          0  ACCURACY: -nan
L1I TIMELY PREFETCHES:          0 LATE PREFETCHES: 0 DROPPED PREFETCHES: 0
L1I COMMIT LATE PREFETCHES: 0 NORMAL LATE: 0 MISSED OPPORTUNITY: 0 UNCOVERED: 0
L1I PREFETCHES SAME FILL-ORIGIN LEVEL: 0 DIFFERENT FILL-ORIGIN LEVEL: 0
L1I AVERAGE MISS LATENCY: -nan cycles
L1I AVERAGE MISS LATENCY LOAD: -nan cycles
L1I AVERAGE MISS LATENCY PREFETCH: -nan cycles
L1I AVERAGE MSHR OCCUPANCY: 0
L1I MSHR FULL: 0
L1I RQ	ACCESS:   48283534	FORWARD:          0	MERGED:   11315470	TO_CACHE:   36968064

BTB SPEC fills:          0  NON-SPEC fills:          0
BTB Test counter :          0
BTB Leapfrog:          0
BTB MSHR merge:          0
BTB TOTAL     ACCESS:   35189020  HIT:   35189006  MISS:         14  HIT %:        100  MISS %: 3.97851e-05   MPKI: 7e-05
BTB BRANCH_DIRECT_JUMP	ACCESS:     253973  HIT:     253969  MISS:          4
BTB BRANCH_INDIRECT	ACCESS:          0  HIT:          0  MISS:          0
BTB BRANCH_CONDITIONAL	ACCESS:   34935019  HIT:   34935011  MISS:          8
BTB BRANCH_DIRECT_CALL	ACCESS:         14  HIT:         13  MISS:          1
BTB BRANCH_INDIRECT_CALL	ACCESS:          0  HIT:          0  MISS:          0
BTB BRANCH_RETURN	ACCESS:         14  HIT:         13  MISS:          1
BTB BRANCH_OTHER ACCESS:          0  HIT:          0  MISS:          0

L2C SPEC fills:          0  NON-SPEC fills:    3579318
L2C Test counter :          0
L2C Leapfrog:          0
L2C MSHR merge:          0
L2C TOTAL     ACCESS:   66149111  HIT:   24864556  MISS:   41284555  HIT %:    37.5886  MISS %:    62.4114   MPKI: 206.423
L2C LOAD      TOTAL       ACCESS:   16031449  HIT:    1562379  MISS:   14469070  HIT %:    9.74571  MISS %:    90.2543   MPKI: 72.3453
L2C LOAD      NON_SPEC    ACCESS:    3701210  HIT:     121892  MISS:    3579318  HIT %:     3.2933  MISS %:    96.7067   MPKI: 17.8966
L2C LOAD      SPEC        ACCESS:   12330239  HIT:    1440487  MISS:   10889752  HIT %:    11.6826  MISS %:    88.3174   MPKI: 54.4488
L2C RFO       NON_SPEC    ACCESS:      33642  HIT:       4523  MISS:      29119  HIT %:    13.4445  MISS %:    86.5555   MPKI: 0.145595
L2C PREFETCH  NON_SPEC    ACCESS:   16729616  HIT:    1316400  MISS:   15413216  HIT %:    7.86868  MISS %:    92.1313   MPKI: 77.0661
L2C WRITEBACK NON_SPEC    ACCESS:    3123883  HIT:    3123759  MISS:        124  HIT %:     99.996  MISS %: 0.00396942   MPKI: 0.00062
L2C CLEAN_EVICTION NON_SPEC    ACCESS:   13295769  HIT:    2416572  MISS:   10879197  HIT %:    18.1755  MISS %:    81.8245   MPKI: 54.396
L2C COMMIT LOAD NON_SPEC    ACCESS:     168944  HIT:      42706  MISS:     126238  HIT %:    25.2782  MISS %:    74.7218   MPKI: 0.63119
L2C LOAD TRANSLATION NON_SPEC    ACCESS:   16763323  HIT:   16395818  MISS:     367505  HIT %:    97.8077  MISS %:    2.19232   MPKI: 1.83752
L2C TRANSLATION FROM L1D PREFETCHER NON_SPEC    ACCESS:       2485  HIT:       2399  MISS:         86  HIT %:    96.5392  MISS %:    3.46076   MPKI: 0.00043
L2C PREFETCH  REQUESTED:          0  ISSUED:          0  USEFUL:     265642  USELESS:   15147676
L2C USEFUL LOAD PREFETCHES:     265642 PREFETCH ISSUED TO LOWER LEVEL:   15413215  ACCURACY: 1.72347
L2C TIMELY PREFETCHES:     265642 LATE PREFETCHES: 0 DROPPED PREFETCHES: 0
L2C COMMIT LATE PREFETCHES: 0 NORMAL LATE: 0 MISSED OPPORTUNITY: 0 UNCOVERED: 14469070
L2C PREFETCHES SAME FILL-ORIGIN LEVEL: 0 DIFFERENT FILL-ORIGIN LEVEL: 0
L2C AVERAGE MISS LATENCY: 116.844 cycles
L2C AVERAGE MISS LATENCY LOAD: 144.024 cycles
L2C AVERAGE MISS LATENCY PREFETCH: 174.937 cycles
L2C AVERAGE MSHR OCCUPANCY: 2.60699
L2C MSHR FULL: 0
L2C RQ	ACCESS:   32999873	FORWARD:          0	MERGED:          0	TO_CACHE:   32999842
L2C WQ	ACCESS:   16419656	FORWARD:         36	MERGED:          2	TO_CACHE:   16419654
L2C PQ	ACCESS:   16729618	FORWARD:          0	MERGED:          0	TO_CACHE:   16729613

L2C Instructions Evicting Data 0
L2C Translations Evicting Data 367359
L2C Data Evicting Data 18914617
L2C Instructions Evicting Instructions 0
L2C Translations Evicting Instructions 0
L2C Data Evicting Instructions 0
L2C Instructions Evicting Translations 0
L2C Translations Evicting Translations 232
L2C Data Evicting Translations 233274
L2C Dense regions hint from L2: 0
PSCL5 SPEC fills:          0  NON-SPEC fills:          0
PSCL5 Test counter :          0
PSCL5 Leapfrog:          0
PSCL5 MSHR merge:          0
PSCL5 TOTAL     ACCESS:          0  HIT:          0  MISS:          0  HIT %:       -nan  MISS %:       -nan   MPKI: 0
PSCL5 PREFETCH  REQUESTED:          0  ISSUED:          0  USEFUL:          0  USELESS:          0
PSCL5 USEFUL LOAD PREFETCHES:          0 PREFETCH ISSUED TO LOWER LEVEL:          0  ACCURACY: -nan
PSCL5 TIMELY PREFETCHES:          0 LATE PREFETCHES: 0 DROPPED PREFETCHES: 0
PSCL5 COMMIT LATE PREFETCHES: 0 NORMAL LATE: 0 MISSED OPPORTUNITY: 0 UNCOVERED: 0
PSCL5 PREFETCHES SAME FILL-ORIGIN LEVEL: 0 DIFFERENT FILL-ORIGIN LEVEL: 0

PSCL4 SPEC fills:          0  NON-SPEC fills:          0
PSCL4 Test counter :          0
PSCL4 Leapfrog:          0
PSCL4 MSHR merge:          0
PSCL4 TOTAL     ACCESS:          0  HIT:          0  MISS:          0  HIT %:       -nan  MISS %:       -nan   MPKI: 0
PSCL4 PREFETCH  REQUESTED:          0  ISSUED:          0  USEFUL:          0  USELESS:          0
PSCL4 USEFUL LOAD PREFETCHES:          0 PREFETCH ISSUED TO LOWER LEVEL:          0  ACCURACY: -nan
PSCL4 TIMELY PREFETCHES:          0 LATE PREFETCHES: 0 DROPPED PREFETCHES: 0
PSCL4 COMMIT LATE PREFETCHES: 0 NORMAL LATE: 0 MISSED OPPORTUNITY: 0 UNCOVERED: 0
PSCL4 PREFETCHES SAME FILL-ORIGIN LEVEL: 0 DIFFERENT FILL-ORIGIN LEVEL: 0

PSCL3 SPEC fills:          0  NON-SPEC fills:          0
PSCL3 Test counter :          0
PSCL3 Leapfrog:          0
PSCL3 MSHR merge:          0
PSCL3 TOTAL     ACCESS:          0  HIT:          0  MISS:          0  HIT %:       -nan  MISS %:       -nan   MPKI: 0
PSCL3 PREFETCH  REQUESTED:          0  ISSUED:          0  USEFUL:          0  USELESS:          0
PSCL3 USEFUL LOAD PREFETCHES:          0 PREFETCH ISSUED TO LOWER LEVEL:          0  ACCURACY: -nan
PSCL3 TIMELY PREFETCHES:          0 LATE PREFETCHES: 0 DROPPED PREFETCHES: 0
PSCL3 COMMIT LATE PREFETCHES: 0 NORMAL LATE: 0 MISSED OPPORTUNITY: 0 UNCOVERED: 0
PSCL3 PREFETCHES SAME FILL-ORIGIN LEVEL: 0 DIFFERENT FILL-ORIGIN LEVEL: 0

PSCL2 SPEC fills:          0  NON-SPEC fills:          0
PSCL2 Test counter :          0
PSCL2 Leapfrog:          0
PSCL2 MSHR merge:          0
PSCL2 TOTAL     ACCESS:          0  HIT:          0  MISS:          0  HIT %:       -nan  MISS %:       -nan   MPKI: 0
PSCL2 PREFETCH  REQUESTED:          0  ISSUED:          0  USEFUL:          0  USELESS:          0
PSCL2 USEFUL LOAD PREFETCHES:          0 PREFETCH ISSUED TO LOWER LEVEL:          0  ACCURACY: -nan
PSCL2 TIMELY PREFETCHES:          0 LATE PREFETCHES: 0 DROPPED PREFETCHES: 0
PSCL2 COMMIT LATE PREFETCHES: 0 NORMAL LATE: 0 MISSED OPPORTUNITY: 0 UNCOVERED: 0
PSCL2 PREFETCHES SAME FILL-ORIGIN LEVEL: 0 DIFFERENT FILL-ORIGIN LEVEL: 0

LLC SPEC fills:          0  NON-SPEC fills:    2918751
LLC Test counter :          0
LLC Leapfrog:          0
LLC MSHR merge:          0
LLC TOTAL     ACCESS:   45703986  HIT:   18000348  MISS:   27703638  HIT %:    39.3846  MISS %:    60.6154   MPKI: 138.518
LLC LOAD      TOTAL       ACCESS:   14469037  HIT:    5073141  MISS:    9395896  HIT %:    35.0621  MISS %:    64.9379   MPKI: 46.9795
LLC LOAD      NON_SPEC    ACCESS:    3579315  HIT:     660564  MISS:    2918751  HIT %:     18.455  MISS %:     81.545   MPKI: 14.5938
LLC LOAD      SPEC        ACCESS:   10889722  HIT:    4412577  MISS:    6477145  HIT %:    40.5206  MISS %:    59.4794   MPKI: 32.3857
LLC RFO       NON_SPEC    ACCESS:      29119  HIT:        315  MISS:      28804  HIT %:    1.08177  MISS %:    98.9182   MPKI: 0.14402
LLC PREFETCH  NON_SPEC    ACCESS:   15413206  HIT:    4448673  MISS:   10964533  HIT %:    28.8627  MISS %:    71.1373   MPKI: 54.8227
LLC WRITEBACK NON_SPEC    ACCESS:    3074739  HIT:    3074731  MISS:          8  HIT %:    99.9997  MISS %: 0.000260185   MPKI: 4e-05
LLC CLEAN_EVICTION NON_SPEC    ACCESS:   12224063  HIT:    5004763  MISS:    7219300  HIT %:    40.9419  MISS %:    59.0581   MPKI: 36.0965
LLC COMMIT LOAD NON_SPEC    ACCESS:     126231  HIT:      94577  MISS:      31654  HIT %:    74.9238  MISS %:    25.0762   MPKI: 0.15827
LLC LOAD TRANSLATION NON_SPEC    ACCESS:     367505  HIT:     304078  MISS:      63427  HIT %:    82.7412  MISS %:    17.2588   MPKI: 0.317135
LLC TRANSLATION FROM L1D PREFETCHER NON_SPEC    ACCESS:         86  HIT:         70  MISS:         16  HIT %:    81.3953  MISS %:    18.6047   MPKI: 8e-05
LLC PREFETCH  REQUESTED:          0  ISSUED:          0  USEFUL:     905680  USELESS:   10059058
LLC USEFUL LOAD PREFETCHES:     905680 PREFETCH ISSUED TO LOWER LEVEL:   10964532  ACCURACY: 8.26009
LLC TIMELY PREFETCHES:     905680 LATE PREFETCHES: 0 DROPPED PREFETCHES: 0
LLC COMMIT LATE PREFETCHES: 0 NORMAL LATE: 0 MISSED OPPORTUNITY: 0 UNCOVERED: 9395896
LLC PREFETCHES SAME FILL-ORIGIN LEVEL: 0 DIFFERENT FILL-ORIGIN LEVEL: 0
LLC AVERAGE MISS LATENCY: 144.709 cycles
LLC AVERAGE MISS LATENCY LOAD: 186.001 cycles
LLC AVERAGE MISS LATENCY PREFETCH: 203.694 cycles
LLC AVERAGE MSHR OCCUPANCY: 2.04331
LLC MSHR FULL: 0
LLC RQ	ACCESS:   14992017	FORWARD:          0	MERGED:          0	TO_CACHE:   14991977
LLC WQ	ACCESS:   15298803	FORWARD:         50	MERGED:          0	TO_CACHE:   15298803
LLC PQ	ACCESS:   15413215	FORWARD:          0	MERGED:          0	TO_CACHE:   15413205

LLC Dense regions hint to LLC: 0

RAW hits: 772667
Loads Generated: 56336775
Loads sent to L1D: 55564109
Stores Generated: 11244937
Stores sent to L1D: 11244938
Major fault: 0 Minor fault: 31004
Allocated PAGES: 31004
Total Load insts: 68097334
Total Non-spec loads: 10374734
Percentage of speculative loads: 84.7648

LeapFrogging counter: 2103551
Commit hits: 35306715 miss: 10264482
Commit hit %: 77.4759 miss %: 22.5241
Commits not translated: 0
Loads retired: 16290224
Stores retired: 11244938
Cache fills: 16290225
L1D response latency: 142.618 cycles
Load retirement latency: 258.682 cycles
OOO test counter: 0
Discarded buffer inserts: 35306715 hits: 10071 hit %: 0.0285243
Filter prediction accuracy: -nan

stream: 
stream:times selected: 21507280
stream:pref_filled: 18522156
stream:pref_useful: 315081
stream:pref_late: 27988
stream:misses: 4296246
stream:misses_by_poll: 0

CS: 
CS:times selected: 1100610
CS:pref_filled: 1153144
CS:pref_useful: 903196
CS:pref_late: 3771
CS:misses: 170508
CS:misses_by_poll: 36228

CPLX: 
CPLX:times selected: 20260008
CPLX:pref_filled: 459507
CPLX:pref_useful: 21012
CPLX:pref_late: 1597
CPLX:misses: 15401068
CPLX:misses_by_poll: 40942

NL_L1: 
NL:times selected: 25737
NL:pref_filled: 24202
NL:pref_useful: 217
NL:pref_late: 41
NL:misses: 25390
NL:misses_by_poll: 0

total selections: 42893635
total_filled: 16470785
total_useful: 994428
total_late: 35772
total_polluted: 77170
total_misses_after_warmup: 16291860
conflicts: 0
Degree Incremented Times: 207734
Degree Decremented Times: 442635

L1 IP Table Write Accesses: 45854832
L1 IP Table Read Accesses: 45854832
L1 RST Write Accesses: 17601710
L1 RST Read Accesses: 35203420
L1 CSPT Write Accesses: 17601710
L1 CSPT Read Accesses: 34184157
L1 RR Filter Tag Write Accesses: 17942981
L1 RR Filter Tag Read Accesses: 626866124
L1 IP Table Tag Write Accesses: 45854846
L1 IP Table Tag Read Accesses: 45854846
L1 RST Tag Write Accesses: 0
L1 RST Tag Read Accesses: 158006292
L1 RR Filter Write Accesses: 0
L1 RR Filter Read Accesses: 20384229
test: 9275210

DRAM Statistics
 CHANNEL 0
 RQ ROW_BUFFER_HIT:    2124859  ROW_BUFFER_MISS:   18353148
 DBUS_CONGESTED:       3818
 WQ ROW_BUFFER_HIT:    4802311  ROW_BUFFER_MISS:    6886990  FULL:          0

 AVG_CONGESTED_CYCLE: 5
 All warmup complete: 2
Channel 0 Bank busy for read cycles: 0
Channel 0 Bank busy for write cycles: 0
Channel 0
Rank 0
0banks busy for read cycles: 6486882
0banks busy for write cycles: 7544
1banks busy for read cycles: 244577475
1banks busy for write cycles: 4544378
2banks busy for read cycles: 327125909
2banks busy for write cycles: 4539587
3banks busy for read cycles: 221291569
3banks busy for write cycles: 4750746
4banks busy for read cycles: 167727371
4banks busy for write cycles: 5456362
5banks busy for read cycles: 69691795
5banks busy for write cycles: 8595069
6banks busy for read cycles: 29561412
6banks busy for write cycles: 28111171
7banks busy for read cycles: 11208068
7banks busy for write cycles: 115766820
8banks busy for read cycles: 4454531
8banks busy for write cycles: 267306485

CPU 0 Branch Prediction Accuracy: 85.1853% MPKI: 26.0899 Average ROB Occupancy at Mispredict: 27.8672
Branch types
NOT_BRANCH: 164778075 82.389%
BRANCH_DIRECT_JUMP: 253973 0.126986%
BRANCH_INDIRECT: 0 0%
BRANCH_CONDITIONAL: 34967586 17.4838%
BRANCH_DIRECT_CALL: 14 7e-06%
BRANCH_INDIRECT_CALL: 0 0%
BRANCH_RETURN: 14 7e-06%
BRANCH_OTHER: 0 0%

DRAM PAGES: 1048576
Allocated PAGES: 31004
