
*** ChampSim Multicore Out-of-Order Simulator ***

Warmup Instructions: 50000000
Simulation Instructions: 200000000
Number of CPUs: 1
LLC sets: 2048
LLC ways: 16
L0D sets: 16
L0D ways: 2
ROB size: 352
LQ size: 128
SQ size: 72
Secure Berti: OFF
Berti: OFF
Berti Fill: OFF
On commit prefetching: OFF
Hit-based filter: OFF
Time-guarding: ON
Free-slotting: ON
Leap-frogging: ON
Train prefetcher on L0D bypass: OFF
No translation penalty for prefetchers: OFF
Prefetch to L0D only: OFF
Prefetch to L1D only: OFF
Clean evictions: ON
Commit loads: ON
Commit write: ON
Fill commit loads to L2C, LLC: ON
DRAM IO FREQUENCY: 6400
ROB SIZE: 352
Off-chip DRAM Size: 4096 MB Channels: 1 Width: 64-bit Data Rate: 6400 MT/s
CPU 0 runs /home/sumon/secure_berti/GhostMinion/../../traces/gap/bc-3.trace.gz
.gz
BTB has LRU replacement policy
ITLB has LRU replacement policy
DTLB has LRU replacement policy
STLB has LRU replacement policy
L1I has LRU replacement policy
L0D has LRU replacement policy
IP Table Entries: 1024
CSPT Entries: 128
RR_ENTRIES: 32
RST_ENTRIES: 8
L1D has LRU replacement policy
L2C has LRU replacement policy
LLC has LRU replacement policy
Heartbeat CPU 0 instructions: 10000002 cycles: 3749445 heartbeat IPC: 2.66706 cumulative IPC: 2.66706 (Simulation time: 0 hr 1 min 18 sec) 
Heartbeat CPU 0 instructions: 20000000 cycles: 7066113 heartbeat IPC: 3.01507 cumulative IPC: 2.83041 (Simulation time: 0 hr 2 min 53 sec) 
Heartbeat CPU 0 instructions: 30000003 cycles: 10450519 heartbeat IPC: 2.95473 cumulative IPC: 2.87067 (Simulation time: 0 hr 4 min 31 sec) 
Heartbeat CPU 0 instructions: 40000003 cycles: 13841797 heartbeat IPC: 2.94874 cumulative IPC: 2.8898 (Simulation time: 0 hr 6 min 9 sec) 
Heartbeat CPU 0 instructions: 50000003 cycles: 17239426 heartbeat IPC: 2.94323 cumulative IPC: 2.90033 (Simulation time: 0 hr 7 min 45 sec) 

Warmup complete CPU 0 instructions: 50000003 cycles: 17239426 (Simulation time: 0 hr 7 min 45 sec) 

Heartbeat CPU 0 instructions: 60000001 cycles: 77979817 heartbeat IPC: 0.164635 cumulative IPC: 0.164635 (Simulation time: 0 hr 9 min 39 sec) 
Heartbeat CPU 0 instructions: 70000000 cycles: 138851265 heartbeat IPC: 0.164281 cumulative IPC: 0.164458 (Simulation time: 0 hr 11 min 8 sec) 
Heartbeat CPU 0 instructions: 80000000 cycles: 199865308 heartbeat IPC: 0.163897 cumulative IPC: 0.16427 (Simulation time: 0 hr 12 min 38 sec) 
Heartbeat CPU 0 instructions: 90000002 cycles: 260971335 heartbeat IPC: 0.16365 cumulative IPC: 0.164115 (Simulation time: 0 hr 14 min 4 sec) 
Heartbeat CPU 0 instructions: 100000003 cycles: 321699470 heartbeat IPC: 0.164668 cumulative IPC: 0.164225 (Simulation time: 0 hr 15 min 23 sec) 
Heartbeat CPU 0 instructions: 110000000 cycles: 382940251 heartbeat IPC: 0.16329 cumulative IPC: 0.164069 (Simulation time: 0 hr 16 min 40 sec) 
Heartbeat CPU 0 instructions: 120000000 cycles: 443357464 heartbeat IPC: 0.165516 cumulative IPC: 0.164274 (Simulation time: 0 hr 17 min 52 sec) 
Heartbeat CPU 0 instructions: 130000001 cycles: 504708768 heartbeat IPC: 0.162996 cumulative IPC: 0.164113 (Simulation time: 0 hr 18 min 58 sec) 
Heartbeat CPU 0 instructions: 140000001 cycles: 565820708 heartbeat IPC: 0.163634 cumulative IPC: 0.16406 (Simulation time: 0 hr 20 min 3 sec) 
Heartbeat CPU 0 instructions: 150000003 cycles: 627095956 heartbeat IPC: 0.163198 cumulative IPC: 0.163973 (Simulation time: 0 hr 21 min 7 sec) 
Heartbeat CPU 0 instructions: 160000001 cycles: 687315768 heartbeat IPC: 0.166058 cumulative IPC: 0.16416 (Simulation time: 0 hr 22 min 9 sec) 
Heartbeat CPU 0 instructions: 170000000 cycles: 746964407 heartbeat IPC: 0.167648 cumulative IPC: 0.164446 (Simulation time: 0 hr 23 min 7 sec) 
Heartbeat CPU 0 instructions: 180000003 cycles: 805873632 heartbeat IPC: 0.169753 cumulative IPC: 0.164842 (Simulation time: 0 hr 24 min 3 sec) 
Heartbeat CPU 0 instructions: 190000001 cycles: 864448126 heartbeat IPC: 0.170723 cumulative IPC: 0.165249 (Simulation time: 0 hr 24 min 59 sec) 
Heartbeat CPU 0 instructions: 200000000 cycles: 923001185 heartbeat IPC: 0.170785 cumulative IPC: 0.165606 (Simulation time: 0 hr 25 min 55 sec) 
Heartbeat CPU 0 instructions: 210000000 cycles: 981592566 heartbeat IPC: 0.170674 cumulative IPC: 0.165914 (Simulation time: 0 hr 26 min 50 sec) 
Heartbeat CPU 0 instructions: 220000000 cycles: 1040227297 heartbeat IPC: 0.170547 cumulative IPC: 0.16618 (Simulation time: 0 hr 27 min 44 sec) 
Heartbeat CPU 0 instructions: 230000000 cycles: 1099018594 heartbeat IPC: 0.170093 cumulative IPC: 0.166393 (Simulation time: 0 hr 28 min 38 sec) 
Heartbeat CPU 0 instructions: 240000000 cycles: 1157717151 heartbeat IPC: 0.170362 cumulative IPC: 0.166597 (Simulation time: 0 hr 29 min 33 sec) 
Heartbeat CPU 0 instructions: 250000002 cycles: 1216357101 heartbeat IPC: 0.170532 cumulative IPC: 0.166789 (Simulation time: 0 hr 30 min 26 sec) 
Finished CPU 0 instructions: 200000000 cycles: 1199117813 cumulative IPC: 0.166789 (Simulation time: 0 hr 30 min 26 sec) 
 Instruction ID: 250000029

ChampSim completed all CPUs

Region of Interest Statistics

CPU 0 cumulative IPC: 0.166789 instructions: 200000000 cycles: 1199117813
ITLB SPEC fills:          0  NON-SPEC fills:          0
ITLB Test counter :          0
ITLB Leapfrog:          0
ITLB MSHR merge:          0
ITLB TOTAL     ACCESS:   42181550  HIT:   42181550  MISS:          0  HIT %:        100  MISS %:          0   MPKI: 0
ITLB LOAD TRANSLATION NON_SPEC    ACCESS:   42181550  HIT:   42181550  MISS:          0  HIT %:        100  MISS %:          0   MPKI: 0
ITLB PREFETCH  REQUESTED:          0  ISSUED:          0  USEFUL:          0  USELESS:          0
ITLB USEFUL LOAD PREFETCHES:          0 PREFETCH ISSUED TO LOWER LEVEL:          0  ACCURACY: -nan
ITLB TIMELY PREFETCHES:          0 LATE PREFETCHES: 0 DROPPED PREFETCHES: 0
ITLB COMMIT LATE PREFETCHES: 0 NORMAL LATE: 0 MISSED OPPORTUNITY: 0 UNCOVERED: 0
ITLB PREFETCHES SAME FILL-ORIGIN LEVEL: 0 DIFFERENT FILL-ORIGIN LEVEL: 0
ITLB AVERAGE MISS LATENCY: -nan cycles
ITLB AVERAGE MISS LATENCY LOAD: -nan cycles
ITLB AVERAGE MISS LATENCY PREFETCH: -nan cycles
ITLB AVERAGE MSHR OCCUPANCY: 0
ITLB MSHR FULL: 0
ITLB RQ	ACCESS:   42460989	FORWARD:          0	MERGED:     279440	TO_CACHE:   42181549

DTLB SPEC fills:          0  NON-SPEC fills:          0
DTLB Test counter :          0
DTLB Leapfrog:          0
DTLB MSHR merge:          0
DTLB TOTAL     ACCESS:   48550182  HIT:   38193608  MISS:   10356574  HIT %:    78.6683  MISS %:    21.3317   MPKI: 51.7829
DTLB LOAD TRANSLATION NON_SPEC    ACCESS:   48550182  HIT:   38193608  MISS:   10356574  HIT %:    78.6683  MISS %:    21.3317   MPKI: 51.7829
DTLB PREFETCH  REQUESTED:          0  ISSUED:          0  USEFUL:          0  USELESS:          0
DTLB USEFUL LOAD PREFETCHES:          0 PREFETCH ISSUED TO LOWER LEVEL:          0  ACCURACY: -nan
DTLB TIMELY PREFETCHES:          0 LATE PREFETCHES: 0 DROPPED PREFETCHES: 0
DTLB COMMIT LATE PREFETCHES: 0 NORMAL LATE: 0 MISSED OPPORTUNITY: 0 UNCOVERED: 0
DTLB PREFETCHES SAME FILL-ORIGIN LEVEL: 0 DIFFERENT FILL-ORIGIN LEVEL: 0
DTLB AVERAGE MISS LATENCY: 26.9194 cycles
DTLB AVERAGE MISS LATENCY LOAD: -nan cycles
DTLB AVERAGE MISS LATENCY PREFETCH: -nan cycles
DTLB AVERAGE MSHR OCCUPANCY: 0.475313
DTLB MSHR FULL: 0.004175
DTLB RQ	ACCESS:   52964843	FORWARD:          0	MERGED:    3702135	TO_CACHE:   49262708

STLB SPEC fills:          0  NON-SPEC fills:          0
STLB Test counter :          0
STLB Leapfrog:          0
STLB MSHR merge:          0
STLB TOTAL     ACCESS:   25409414  HIT:   23229980  MISS:    2179434  HIT %:    91.4227  MISS %:    8.57727   MPKI: 10.8972
STLB LOAD TRANSLATION NON_SPEC    ACCESS:   10356574  HIT:    8177427  MISS:    2179147  HIT %:    78.9588  MISS %:    21.0412   MPKI: 10.8957
STLB TRANSLATION FROM L1D PREFETCHER NON_SPEC    ACCESS:   15052840  HIT:   15052553  MISS:        287  HIT %:    99.9981  MISS %: 0.00190662   MPKI: 0.001435
STLB PREFETCH  REQUESTED:          0  ISSUED:          0  USEFUL:        265  USELESS:         22
STLB USEFUL LOAD PREFETCHES:        265 PREFETCH ISSUED TO LOWER LEVEL:          0  ACCURACY: inf
STLB TIMELY PREFETCHES:        265 LATE PREFETCHES: 0 DROPPED PREFETCHES: 0
STLB COMMIT LATE PREFETCHES: 0 NORMAL LATE: 0 MISSED OPPORTUNITY: 0 UNCOVERED: 0
STLB PREFETCHES SAME FILL-ORIGIN LEVEL: 0 DIFFERENT FILL-ORIGIN LEVEL: 0
STLB AVERAGE MISS LATENCY: 84.7143 cycles
STLB AVERAGE MISS LATENCY LOAD: -nan cycles
STLB AVERAGE MISS LATENCY PREFETCH: -nan cycles
STLB AVERAGE MSHR OCCUPANCY: 0.309635
STLB MSHR FULL: 0
STLB RQ	ACCESS:   29304029	FORWARD:          0	MERGED:    3894612	TO_CACHE:   25409417

STLB Hit, L1D data hit: 0
STLB Hit, L2C data hit: 0
STLB Hit, LLC data hit: 0
STLB Hit, LLC data miss: 0
STLB STLB hints to L2: 0
L0D SPEC fills:   28246084  NON-SPEC fills:          0
L0D TimeGuard Request with older TS:     328521 Restricted eviction:     386969 read:          2
L0D Test counter :          0
L0D Leapfrog:          0
L0D MSHR merge:     377132
L0D TOTAL     ACCESS:   45959206  HIT:   12018020  MISS:   33941186  HIT %:    26.1493  MISS %:    73.8507   MPKI: 169.706
L0D LOAD      TOTAL       ACCESS:   45959206  HIT:   12018020  MISS:   33941186  HIT %:    26.1493  MISS %:    73.8507   MPKI: 169.706
L0D LOAD      NON_SPEC    ACCESS:    5309685  HIT:       1354  MISS:    5308331  HIT %:  0.0255006  MISS %:    99.9745   MPKI: 26.5417
L0D LOAD      SPEC        ACCESS:   40649521  HIT:   12016666  MISS:   28632855  HIT %:    29.5616  MISS %:    70.4384   MPKI: 143.164
L0D PREFETCH  REQUESTED:          0  ISSUED:          0  USEFUL:          0  USELESS:          0
L0D USEFUL LOAD PREFETCHES:          0 PREFETCH ISSUED TO LOWER LEVEL:          0  ACCURACY: -nan
L0D TIMELY PREFETCHES:          0 LATE PREFETCHES: 0 DROPPED PREFETCHES: 0
L0D COMMIT LATE PREFETCHES: 0 NORMAL LATE: 0 MISSED OPPORTUNITY: 0 UNCOVERED: 33941186
L0D PREFETCHES SAME FILL-ORIGIN LEVEL: 0 DIFFERENT FILL-ORIGIN LEVEL: 0
L0D AVERAGE MISS LATENCY: 70.0671 cycles
L0D AVERAGE MISS LATENCY LOAD: 70.0671 cycles
L0D AVERAGE MISS LATENCY PREFETCH: -nan cycles
L0D AVERAGE MSHR OCCUPANCY: 2.08054
L0D MSHR FULL: 0.0900747
L0D RQ	ACCESS:   47849100	FORWARD:          0	MERGED:    1512765	TO_CACHE:   46336335
L0D WQ	ACCESS:    6628508	FORWARD:          0	MERGED:          0	TO_CACHE:    6628508

L1D SPEC fills:          0  NON-SPEC fills:     665799
L1D Test counter :          0
L1D Leapfrog:          0
L1D MSHR merge:     152209
L1D TOTAL     ACCESS:   93503398  HIT:   42981611  MISS:   50521787  HIT %:     45.968  MISS %:     54.032   MPKI: 252.609
L1D LOAD      TOTAL       ACCESS:   33939226  HIT:   16995086  MISS:   16944140  HIT %:    50.0751  MISS %:    49.9249   MPKI: 84.7207
L1D LOAD      NON_SPEC    ACCESS:    5306720  HIT:    4640921  MISS:     665799  HIT %:    87.4537  MISS %:    12.5463   MPKI: 3.32899
L1D LOAD      SPEC        ACCESS:   28632506  HIT:   12354165  MISS:   16278341  HIT %:    43.1473  MISS %:    56.8527   MPKI: 81.3917
L1D RFO       NON_SPEC    ACCESS:    2917214  HIT:    2882825  MISS:      34389  HIT %:    98.8212  MISS %:    1.17883   MPKI: 0.171945
L1D PREFETCH  NON_SPEC    ACCESS:   18510591  HIT:    1224544  MISS:   17286047  HIT %:    6.61537  MISS %:    93.3846   MPKI: 86.4302
L1D COMMIT LOAD NON_SPEC    ACCESS:   10194601  HIT:    9886519  MISS:     308082  HIT %:     96.978  MISS %:    3.02201   MPKI: 1.54041
L1D COMMIT WRITE NON_SPEC    ACCESS:   27941766  HIT:   11992637  MISS:   15949129  HIT %:    42.9201  MISS %:    57.0799   MPKI: 79.7456
L1D PREFETCH  REQUESTED:   18947461  ISSUED:   18947456  USEFUL:    1044508  USELESS:   16241546
L1D USEFUL LOAD PREFETCHES:    1044508 PREFETCH ISSUED TO LOWER LEVEL:   17436377  ACCURACY: 5.9904
L1D TIMELY PREFETCHES:    1044508 LATE PREFETCHES: 150331 DROPPED PREFETCHES: 0
L1D COMMIT LATE PREFETCHES: 0 NORMAL LATE: 150331 MISSED OPPORTUNITY: 0 UNCOVERED: 16793809
L1D PREFETCHES SAME FILL-ORIGIN LEVEL: 17436377 DIFFERENT FILL-ORIGIN LEVEL: 0
L1D AVERAGE MISS LATENCY: 102.034 cycles
L1D AVERAGE MISS LATENCY LOAD: 130.045 cycles
L1D AVERAGE MISS LATENCY PREFETCH: 168.886 cycles
L1D AVERAGE MSHR OCCUPANCY: 3.31867
L1D MSHR FULL: 0.026099
L1D RQ	ACCESS:   48538709	FORWARD:          0	MERGED:    4322189	TO_CACHE:   44136548
L1D WQ	ACCESS:   34570421	FORWARD:      79972	MERGED:    3658873	TO_CACHE:   30911548
L1D PQ	ACCESS:   18947456	FORWARD:          0	MERGED:          0	TO_CACHE:   18947456

L1D UNIQUE REGIONS ACCESSED: 0
L1D REGIONS CONFLICTS: 0
L1D Cross Page Prefetch Requests: 0
L1D Same Page Prefetch Requests: 23050535
L1D ROI Sum of L1D PQ occupancy: 248715182
L1D PREFETCHES PUSHED FROM L2C: 0
L1I SPEC fills:          0  NON-SPEC fills:          0
L1I Test counter :          0
L1I Leapfrog:          0
L1I MSHR merge:          0
L1I TOTAL     ACCESS:   42460990  HIT:   42460990  MISS:          0  HIT %:        100  MISS %:          0   MPKI: 0
L1I LOAD      TOTAL       ACCESS:   42460990  HIT:   42460990  MISS:          0  HIT %:        100  MISS %:          0   MPKI: 0
L1I LOAD      NON_SPEC    ACCESS:   42460990  HIT:   42460990  MISS:          0  HIT %:        100  MISS %:          0   MPKI: 0
L1I PREFETCH  REQUESTED:          0  ISSUED:          0  USEFUL:          0  USELESS:          0
L1I USEFUL LOAD PREFETCHES:          0 PREFETCH ISSUED TO LOWER LEVEL:          0  ACCURACY: -nan
L1I TIMELY PREFETCHES:          0 LATE PREFETCHES: 0 DROPPED PREFETCHES: 0
L1I COMMIT LATE PREFETCHES: 0 NORMAL LATE: 0 MISSED OPPORTUNITY: 0 UNCOVERED: 0
L1I PREFETCHES SAME FILL-ORIGIN LEVEL: 0 DIFFERENT FILL-ORIGIN LEVEL: 0
L1I AVERAGE MISS LATENCY: -nan cycles
L1I AVERAGE MISS LATENCY LOAD: -nan cycles
L1I AVERAGE MISS LATENCY PREFETCH: -nan cycles
L1I AVERAGE MSHR OCCUPANCY: 0
L1I MSHR FULL: 0
L1I RQ	ACCESS:   56789580	FORWARD:          0	MERGED:   14328591	TO_CACHE:   42460989

BTB SPEC fills:          0  NON-SPEC fills:          0
BTB Test counter :          0
BTB Leapfrog:          0
BTB MSHR merge:          0
BTB TOTAL     ACCESS:   43358648  HIT:   43358634  MISS:         14  HIT %:        100  MISS %: 3.22888e-05   MPKI: 7e-05
BTB BRANCH_DIRECT_JUMP	ACCESS:     271551  HIT:     271547  MISS:          4
BTB BRANCH_INDIRECT	ACCESS:          0  HIT:          0  MISS:          0
BTB BRANCH_CONDITIONAL	ACCESS:   43087069  HIT:   43087061  MISS:          8
BTB BRANCH_DIRECT_CALL	ACCESS:         14  HIT:         13  MISS:          1
BTB BRANCH_INDIRECT_CALL	ACCESS:          0  HIT:          0  MISS:          0
BTB BRANCH_RETURN	ACCESS:         14  HIT:         13  MISS:          1
BTB BRANCH_OTHER ACCESS:          0  HIT:          0  MISS:          0

L2C SPEC fills:          0  NON-SPEC fills:     554099
L2C Test counter :          0
L2C Leapfrog:          0
L2C MSHR merge:          0
L2C TOTAL     ACCESS:   62704280  HIT:   18808762  MISS:   43895518  HIT %:     29.996  MISS %:     70.004   MPKI: 219.478
L2C LOAD      TOTAL       ACCESS:   16793821  HIT:    2528406  MISS:   14265415  HIT %:    15.0556  MISS %:    84.9444   MPKI: 71.3271
L2C LOAD      NON_SPEC    ACCESS:     662554  HIT:     108455  MISS:     554099  HIT %:    16.3692  MISS %:    83.6308   MPKI: 2.77049
L2C LOAD      SPEC        ACCESS:   16131267  HIT:    2419951  MISS:   13711316  HIT %:    15.0016  MISS %:    84.9984   MPKI: 68.5566
L2C RFO       NON_SPEC    ACCESS:      34386  HIT:       5608  MISS:      28778  HIT %:     16.309  MISS %:     83.691   MPKI: 0.14389
L2C PREFETCH  NON_SPEC    ACCESS:   17436371  HIT:    2148441  MISS:   15287930  HIT %:    12.3216  MISS %:    87.6784   MPKI: 76.4397
L2C WRITEBACK NON_SPEC    ACCESS:     217051  HIT:     216825  MISS:        226  HIT %:    99.8959  MISS %:   0.104123   MPKI: 0.00113
L2C CLEAN_EVICTION NON_SPEC    ACCESS:   17017543  HIT:    3340371  MISS:   13677172  HIT %:     19.629  MISS %:     80.371   MPKI: 68.3859
L2C COMMIT LOAD NON_SPEC    ACCESS:     307939  HIT:      91372  MISS:     216567  HIT %:    29.6721  MISS %:    70.3279   MPKI: 1.08283
L2C LOAD TRANSLATION NON_SPEC    ACCESS:   10895734  HIT:   10476372  MISS:     419362  HIT %:    96.1511  MISS %:    3.84886   MPKI: 2.09681
L2C TRANSLATION FROM L1D PREFETCHER NON_SPEC    ACCESS:       1435  HIT:       1367  MISS:         68  HIT %:    95.2613  MISS %:    4.73868   MPKI: 0.00034
L2C PREFETCH  REQUESTED:          0  ISSUED:          0  USEFUL:     393967  USELESS:   14894004
L2C USEFUL LOAD PREFETCHES:     393967 PREFETCH ISSUED TO LOWER LEVEL:   15287932  ACCURACY: 2.57698
L2C TIMELY PREFETCHES:     393967 LATE PREFETCHES: 0 DROPPED PREFETCHES: 0
L2C COMMIT LATE PREFETCHES: 0 NORMAL LATE: 0 MISSED OPPORTUNITY: 0 UNCOVERED: 14265415
L2C PREFETCHES SAME FILL-ORIGIN LEVEL: 0 DIFFERENT FILL-ORIGIN LEVEL: 0
L2C AVERAGE MISS LATENCY: 107.624 cycles
L2C AVERAGE MISS LATENCY LOAD: 139.539 cycles
L2C AVERAGE MISS LATENCY PREFETCH: 175.564 cycles
L2C AVERAGE MSHR OCCUPANCY: 3.50508
L2C MSHR FULL: 0
L2C RQ	ACCESS:   28033449	FORWARD:          0	MERGED:          0	TO_CACHE:   28033315
L2C WQ	ACCESS:   17234597	FORWARD:        140	MERGED:          3	TO_CACHE:   17234594
L2C PQ	ACCESS:   17436377	FORWARD:          0	MERGED:          0	TO_CACHE:   17436371

L2C Instructions Evicting Data 0
L2C Translations Evicting Data 418846
L2C Data Evicting Data 15861038
L2C Instructions Evicting Instructions 0
L2C Translations Evicting Instructions 0
L2C Data Evicting Instructions 0
L2C Instructions Evicting Translations 0
L2C Translations Evicting Translations 584
L2C Data Evicting Translations 226336
L2C Dense regions hint from L2: 0
PSCL5 SPEC fills:          0  NON-SPEC fills:          0
PSCL5 Test counter :          0
PSCL5 Leapfrog:          0
PSCL5 MSHR merge:          0
PSCL5 TOTAL     ACCESS:          0  HIT:          0  MISS:          0  HIT %:       -nan  MISS %:       -nan   MPKI: 0
PSCL5 PREFETCH  REQUESTED:          0  ISSUED:          0  USEFUL:          0  USELESS:          0
PSCL5 USEFUL LOAD PREFETCHES:          0 PREFETCH ISSUED TO LOWER LEVEL:          0  ACCURACY: -nan
PSCL5 TIMELY PREFETCHES:          0 LATE PREFETCHES: 0 DROPPED PREFETCHES: 0
PSCL5 COMMIT LATE PREFETCHES: 0 NORMAL LATE: 0 MISSED OPPORTUNITY: 0 UNCOVERED: 0
PSCL5 PREFETCHES SAME FILL-ORIGIN LEVEL: 0 DIFFERENT FILL-ORIGIN LEVEL: 0

PSCL4 SPEC fills:          0  NON-SPEC fills:          0
PSCL4 Test counter :          0
PSCL4 Leapfrog:          0
PSCL4 MSHR merge:          0
PSCL4 TOTAL     ACCESS:          0  HIT:          0  MISS:          0  HIT %:       -nan  MISS %:       -nan   MPKI: 0
PSCL4 PREFETCH  REQUESTED:          0  ISSUED:          0  USEFUL:          0  USELESS:          0
PSCL4 USEFUL LOAD PREFETCHES:          0 PREFETCH ISSUED TO LOWER LEVEL:          0  ACCURACY: -nan
PSCL4 TIMELY PREFETCHES:          0 LATE PREFETCHES: 0 DROPPED PREFETCHES: 0
PSCL4 COMMIT LATE PREFETCHES: 0 NORMAL LATE: 0 MISSED OPPORTUNITY: 0 UNCOVERED: 0
PSCL4 PREFETCHES SAME FILL-ORIGIN LEVEL: 0 DIFFERENT FILL-ORIGIN LEVEL: 0

PSCL3 SPEC fills:          0  NON-SPEC fills:          0
PSCL3 Test counter :          0
PSCL3 Leapfrog:          0
PSCL3 MSHR merge:          0
PSCL3 TOTAL     ACCESS:          0  HIT:          0  MISS:          0  HIT %:       -nan  MISS %:       -nan   MPKI: 0
PSCL3 PREFETCH  REQUESTED:          0  ISSUED:          0  USEFUL:          0  USELESS:          0
PSCL3 USEFUL LOAD PREFETCHES:          0 PREFETCH ISSUED TO LOWER LEVEL:          0  ACCURACY: -nan
PSCL3 TIMELY PREFETCHES:          0 LATE PREFETCHES: 0 DROPPED PREFETCHES: 0
PSCL3 COMMIT LATE PREFETCHES: 0 NORMAL LATE: 0 MISSED OPPORTUNITY: 0 UNCOVERED: 0
PSCL3 PREFETCHES SAME FILL-ORIGIN LEVEL: 0 DIFFERENT FILL-ORIGIN LEVEL: 0

PSCL2 SPEC fills:          0  NON-SPEC fills:          0
PSCL2 Test counter :          0
PSCL2 Leapfrog:          0
PSCL2 MSHR merge:          0
PSCL2 TOTAL     ACCESS:          0  HIT:          0  MISS:          0  HIT %:       -nan  MISS %:       -nan   MPKI: 0
PSCL2 PREFETCH  REQUESTED:          0  ISSUED:          0  USEFUL:          0  USELESS:          0
PSCL2 USEFUL LOAD PREFETCHES:          0 PREFETCH ISSUED TO LOWER LEVEL:          0  ACCURACY: -nan
PSCL2 TIMELY PREFETCHES:          0 LATE PREFETCHES: 0 DROPPED PREFETCHES: 0
PSCL2 COMMIT LATE PREFETCHES: 0 NORMAL LATE: 0 MISSED OPPORTUNITY: 0 UNCOVERED: 0
PSCL2 PREFETCHES SAME FILL-ORIGIN LEVEL: 0 DIFFERENT FILL-ORIGIN LEVEL: 0

LLC SPEC fills:          0  NON-SPEC fills:     344959
LLC Test counter :          0
LLC Leapfrog:          0
LLC MSHR merge:          0
LLC TOTAL     ACCESS:   45640063  HIT:   18816706  MISS:   26823357  HIT %:    41.2285  MISS %:    58.7715   MPKI: 134.117
LLC LOAD      TOTAL       ACCESS:   14265317  HIT:    6078479  MISS:    8186838  HIT %:    42.6102  MISS %:    57.3898   MPKI: 40.9342
LLC LOAD      NON_SPEC    ACCESS:     554092  HIT:     209133  MISS:     344959  HIT %:    37.7434  MISS %:    62.2566   MPKI: 1.7248
LLC LOAD      SPEC        ACCESS:   13711225  HIT:    5869346  MISS:    7841879  HIT %:    42.8069  MISS %:    57.1931   MPKI: 39.2094
LLC RFO       NON_SPEC    ACCESS:      28778  HIT:        344  MISS:      28434  HIT %:    1.19536  MISS %:    98.8046   MPKI: 0.14217
LLC PREFETCH  NON_SPEC    ACCESS:   15287908  HIT:    5460840  MISS:    9827068  HIT %:      35.72  MISS %:      64.28   MPKI: 49.1353
LLC WRITEBACK NON_SPEC    ACCESS:     209029  HIT:     209010  MISS:         19  HIT %:    99.9909  MISS %: 0.00908965   MPKI: 9.5e-05
LLC CLEAN_EVICTION NON_SPEC    ACCESS:   15213070  HIT:    6521744  MISS:    8691326  HIT %:    42.8693  MISS %:    57.1307   MPKI: 43.4566
LLC COMMIT LOAD NON_SPEC    ACCESS:     216531  HIT:     170794  MISS:      45737  HIT %:    78.8774  MISS %:    21.1226   MPKI: 0.228685
LLC LOAD TRANSLATION NON_SPEC    ACCESS:     419362  HIT:     375436  MISS:      43926  HIT %:    89.5255  MISS %:    10.4745   MPKI: 0.21963
LLC TRANSLATION FROM L1D PREFETCHER NON_SPEC    ACCESS:         68  HIT:         59  MISS:          9  HIT %:    86.7647  MISS %:    13.2353   MPKI: 4.5e-05
LLC PREFETCH  REQUESTED:          0  ISSUED:          0  USEFUL:     961013  USELESS:    8866034
LLC USEFUL LOAD PREFETCHES:     961013 PREFETCH ISSUED TO LOWER LEVEL:    9827070  ACCURACY: 9.77924
LLC TIMELY PREFETCHES:     961013 LATE PREFETCHES: 0 DROPPED PREFETCHES: 0
LLC COMMIT LATE PREFETCHES: 0 NORMAL LATE: 0 MISSED OPPORTUNITY: 0 UNCOVERED: 8186838
LLC PREFETCHES SAME FILL-ORIGIN LEVEL: 0 DIFFERENT FILL-ORIGIN LEVEL: 0
LLC AVERAGE MISS LATENCY: 146.887 cycles
LLC AVERAGE MISS LATENCY LOAD: 205.91 cycles
LLC AVERAGE MISS LATENCY PREFETCH: 226.372 cycles
LLC AVERAGE MSHR OCCUPANCY: 2.88385
LLC MSHR FULL: 0
LLC RQ	ACCESS:   14930190	FORWARD:          0	MERGED:          0	TO_CACHE:   14930056
LLC WQ	ACCESS:   15422099	FORWARD:        156	MERGED:          0	TO_CACHE:   15422099
LLC PQ	ACCESS:   15287932	FORWARD:          0	MERGED:          0	TO_CACHE:   15287910

LLC Dense regions hint to LLC: 0

RAW hits: 153838
Loads Generated: 48002938
Loads sent to L1D: 47849100
Stores Generated: 6628504
Stores sent to L1D: 6628508
Major fault: 0 Minor fault: 32429
Allocated PAGES: 32429
Total Load insts: 59413853
Total Non-spec loads: 5576733
Percentage of speculative loads: 90.6137

LeapFrogging counter: 758691
Commit hits: 27941912 miss: 14597524
Commit hit %: 65.6847 miss %: 34.3153
Commits not translated: 0
Loads retired: 16944139
Stores retired: 6628508
Cache fills: 16944140
L1D response latency: 130.045 cycles
Load retirement latency: 276.248 cycles
OOO test counter: 0
Discarded buffer inserts: 27941912 hits: 16741 hit %: 0.0599136
Filter prediction accuracy: -nan

stream: 
stream:times selected: 22274748
stream:pref_filled: 19052707
stream:pref_useful: 249927
stream:pref_late: 2987
stream:misses: 4571865
stream:misses_by_poll: 0

CS: 
CS:times selected: 1342769
CS:pref_filled: 1443518
CS:pref_useful: 1127951
CS:pref_late: 234
CS:misses: 184873
CS:misses_by_poll: 39364

CPLX: 
CPLX:times selected: 20764636
CPLX:pref_filled: 469833
CPLX:pref_useful: 16304
CPLX:pref_late: 128
CPLX:misses: 15639858
CPLX:misses_by_poll: 41410

NL_L1: 
NL:times selected: 22657
NL:pref_filled: 21444
NL:pref_useful: 166
NL:pref_late: 19
NL:misses: 22355
NL:misses_by_poll: 0

total selections: 44404810
total_filled: 17286047
total_useful: 1044508
total_late: 3543
total_polluted: 80774
total_misses_after_warmup: 16946100
conflicts: 0
Degree Incremented Times: 97858
Degree Decremented Times: 333929

L1 IP Table Write Accesses: 33941172
L1 IP Table Read Accesses: 33941172
L1 RST Write Accesses: 18375105
L1 RST Read Accesses: 36750210
L1 CSPT Write Accesses: 18375105
L1 CSPT Read Accesses: 35566742
L1 RR Filter Tag Write Accesses: 18947461
L1 RR Filter Tag Read Accesses: 661013669
L1 IP Table Tag Write Accesses: 33941186
L1 IP Table Tag Read Accesses: 33941186
L1 RST Tag Write Accesses: 0
L1 RST Tag Read Accesses: 165723841
L1 RR Filter Write Accesses: 0
L1 RR Filter Read Accesses: 21462772
test: 10526940

DRAM Statistics
 CHANNEL 0
 RQ ROW_BUFFER_HIT:    2484938  ROW_BUFFER_MISS:   15638143
 DBUS_CONGESTED:       1345
 WQ ROW_BUFFER_HIT:    3600823  ROW_BUFFER_MISS:    7243731  FULL:        113

 AVG_CONGESTED_CYCLE: 5
 All warmup complete: 2
Channel 0 Bank busy for read cycles: 0
Channel 0 Bank busy for write cycles: 0
Channel 0
Rank 0
0banks busy for read cycles: 3149679
0banks busy for write cycles: 1010
1banks busy for read cycles: 172776817
1banks busy for write cycles: 2665929
2banks busy for read cycles: 209349535
2banks busy for write cycles: 2644650
3banks busy for read cycles: 161066305
3banks busy for write cycles: 2654543
4banks busy for read cycles: 141599168
4banks busy for write cycles: 2721155
5banks busy for read cycles: 85168468
5banks busy for write cycles: 3523281
6banks busy for read cycles: 45900522
6banks busy for write cycles: 13790224
7banks busy for read cycles: 17951378
7banks busy for write cycles: 83604987
8banks busy for read cycles: 4498242
8banks busy for write cycles: 246051921

CPU 0 Branch Prediction Accuracy: 92.9184% MPKI: 15.3683 Average ROB Occupancy at Mispredict: 49.2271
Branch types
NOT_BRANCH: 156596208 78.2981%
BRANCH_DIRECT_JUMP: 271551 0.135775%
BRANCH_INDIRECT: 0 0%
BRANCH_CONDITIONAL: 43131869 21.5659%
BRANCH_DIRECT_CALL: 14 7e-06%
BRANCH_INDIRECT_CALL: 0 0%
BRANCH_RETURN: 14 7e-06%
BRANCH_OTHER: 0 0%

DRAM PAGES: 1048576
Allocated PAGES: 32429
