
*** ChampSim Multicore Out-of-Order Simulator ***

Warmup Instructions: 50000000
Simulation Instructions: 200000000
Number of CPUs: 1
LLC sets: 2048
LLC ways: 16
L0D sets: 16
L0D ways: 2
ROB size: 352
LQ size: 128
SQ size: 72
Secure Berti: OFF
Berti: OFF
Berti Fill: OFF
On commit prefetching: OFF
Hit-based filter: OFF
Time-guarding: ON
Free-slotting: ON
Leap-frogging: ON
Train prefetcher on L0D bypass: OFF
No translation penalty for prefetchers: OFF
Prefetch to L0D only: OFF
Prefetch to L1D only: OFF
Clean evictions: ON
Commit loads: ON
Commit write: ON
Fill commit loads to L2C, LLC: ON
DRAM IO FREQUENCY: 6400
ROB SIZE: 352
Off-chip DRAM Size: 4096 MB Channels: 1 Width: 64-bit Data Rate: 6400 MT/s
CPU 0 runs /home/sumon/secure_berti/GhostMinion/../../traces/gap/pr-3.trace.gz
.gz
BTB has LRU replacement policy
ITLB has LRU replacement policy
DTLB has LRU replacement policy
STLB has LRU replacement policy
L1I has LRU replacement policy
L0D has LRU replacement policy
IP Table Entries: 1024
CSPT Entries: 128
RR_ENTRIES: 32
RST_ENTRIES: 8
L1D has LRU replacement policy
L2C has LRU replacement policy
LLC has LRU replacement policy
Heartbeat CPU 0 instructions: 10000002 cycles: 3333772 heartbeat IPC: 2.99961 cumulative IPC: 2.99961 (Simulation time: 0 hr 0 min 45 sec) 
Heartbeat CPU 0 instructions: 20000002 cycles: 18063191 heartbeat IPC: 0.678913 cumulative IPC: 1.10722 (Simulation time: 0 hr 2 min 44 sec) 
Heartbeat CPU 0 instructions: 30000001 cycles: 34785036 heartbeat IPC: 0.59802 cumulative IPC: 0.86244 (Simulation time: 0 hr 4 min 54 sec) 
Heartbeat CPU 0 instructions: 40000000 cycles: 51564069 heartbeat IPC: 0.595982 cumulative IPC: 0.775734 (Simulation time: 0 hr 6 min 36 sec) 
Heartbeat CPU 0 instructions: 50000000 cycles: 68360803 heartbeat IPC: 0.595354 cumulative IPC: 0.731413 (Simulation time: 0 hr 7 min 59 sec) 

Warmup complete CPU 0 instructions: 50000001 cycles: 68360804 (Simulation time: 0 hr 7 min 59 sec) 

Heartbeat CPU 0 instructions: 60000003 cycles: 270604362 heartbeat IPC: 0.0494453 cumulative IPC: 0.0494453 (Simulation time: 0 hr 10 min 42 sec) 
Heartbeat CPU 0 instructions: 70000001 cycles: 475596769 heartbeat IPC: 0.0487823 cumulative IPC: 0.0491116 (Simulation time: 0 hr 14 min 23 sec) 
Heartbeat CPU 0 instructions: 80000003 cycles: 680854275 heartbeat IPC: 0.0487193 cumulative IPC: 0.0489801 (Simulation time: 0 hr 17 min 14 sec) 
Heartbeat CPU 0 instructions: 90000000 cycles: 885335159 heartbeat IPC: 0.0489043 cumulative IPC: 0.0489611 (Simulation time: 0 hr 19 min 48 sec) 
Heartbeat CPU 0 instructions: 100000002 cycles: 1091255532 heartbeat IPC: 0.0485625 cumulative IPC: 0.0488809 (Simulation time: 0 hr 22 min 14 sec) 
Heartbeat CPU 0 instructions: 110000000 cycles: 1296444266 heartbeat IPC: 0.0487356 cumulative IPC: 0.0488566 (Simulation time: 0 hr 24 min 24 sec) 
Heartbeat CPU 0 instructions: 120000001 cycles: 1502381389 heartbeat IPC: 0.0485585 cumulative IPC: 0.0488138 (Simulation time: 0 hr 26 min 33 sec) 
Heartbeat CPU 0 instructions: 130000001 cycles: 1706873446 heartbeat IPC: 0.0489017 cumulative IPC: 0.0488248 (Simulation time: 0 hr 28 min 39 sec) 
Heartbeat CPU 0 instructions: 140000002 cycles: 1912366669 heartbeat IPC: 0.0486634 cumulative IPC: 0.0488068 (Simulation time: 0 hr 30 min 42 sec) 
Heartbeat CPU 0 instructions: 150000000 cycles: 2117221296 heartbeat IPC: 0.0488151 cumulative IPC: 0.0488076 (Simulation time: 0 hr 32 min 43 sec) 
Heartbeat CPU 0 instructions: 160000002 cycles: 2322356606 heartbeat IPC: 0.0487483 cumulative IPC: 0.0488022 (Simulation time: 0 hr 34 min 44 sec) 
Heartbeat CPU 0 instructions: 170000003 cycles: 2527137477 heartbeat IPC: 0.0488327 cumulative IPC: 0.0488048 (Simulation time: 0 hr 36 min 47 sec) 
Heartbeat CPU 0 instructions: 180000002 cycles: 2732646229 heartbeat IPC: 0.0486597 cumulative IPC: 0.0487936 (Simulation time: 0 hr 39 min 33 sec) 
Heartbeat CPU 0 instructions: 190000001 cycles: 2881734542 heartbeat IPC: 0.0670743 cumulative IPC: 0.0497623 (Simulation time: 0 hr 41 min 53 sec) 
Heartbeat CPU 0 instructions: 200000001 cycles: 2925294511 heartbeat IPC: 0.229569 cumulative IPC: 0.0525038 (Simulation time: 0 hr 43 min 1 sec) 
Heartbeat CPU 0 instructions: 210000003 cycles: 3129848662 heartbeat IPC: 0.0488868 cumulative IPC: 0.0522622 (Simulation time: 0 hr 46 min 10 sec) 
Heartbeat CPU 0 instructions: 220000000 cycles: 3334572496 heartbeat IPC: 0.0488463 cumulative IPC: 0.0520481 (Simulation time: 0 hr 49 min 24 sec) 
Heartbeat CPU 0 instructions: 230000000 cycles: 3539556990 heartbeat IPC: 0.0487842 cumulative IPC: 0.0518553 (Simulation time: 0 hr 52 min 39 sec) 
Heartbeat CPU 0 instructions: 240000003 cycles: 3744746677 heartbeat IPC: 0.0487354 cumulative IPC: 0.0516812 (Simulation time: 0 hr 55 min 45 sec) 
Heartbeat CPU 0 instructions: 250000001 cycles: 3946873541 heartbeat IPC: 0.0494739 cumulative IPC: 0.0515662 (Simulation time: 0 hr 58 min 24 sec) 
Finished CPU 0 instructions: 200000000 cycles: 3878512737 cumulative IPC: 0.0515662 (Simulation time: 0 hr 58 min 24 sec) 
 Instruction ID: 250000383

ChampSim completed all CPUs

Region of Interest Statistics

CPU 0 cumulative IPC: 0.0515662 instructions: 200000000 cycles: 3878512737
ITLB SPEC fills:          0  NON-SPEC fills:          0
ITLB Test counter :          0
ITLB Leapfrog:          0
ITLB MSHR merge:          0
ITLB TOTAL     ACCESS:   58458268  HIT:   58458268  MISS:          0  HIT %:        100  MISS %:          0   MPKI: 0
ITLB LOAD TRANSLATION NON_SPEC    ACCESS:   58458268  HIT:   58458268  MISS:          0  HIT %:        100  MISS %:          0   MPKI: 0
ITLB PREFETCH  REQUESTED:          0  ISSUED:          0  USEFUL:          0  USELESS:          0
ITLB USEFUL LOAD PREFETCHES:          0 PREFETCH ISSUED TO LOWER LEVEL:          0  ACCURACY: -nan
ITLB TIMELY PREFETCHES:          0 LATE PREFETCHES: 0 DROPPED PREFETCHES: 0
ITLB COMMIT LATE PREFETCHES: 0 NORMAL LATE: 0 MISSED OPPORTUNITY: 0 UNCOVERED: 0
ITLB PREFETCHES SAME FILL-ORIGIN LEVEL: 0 DIFFERENT FILL-ORIGIN LEVEL: 0
ITLB AVERAGE MISS LATENCY: -nan cycles
ITLB AVERAGE MISS LATENCY LOAD: -nan cycles
ITLB AVERAGE MISS LATENCY PREFETCH: -nan cycles
ITLB AVERAGE MSHR OCCUPANCY: 0
ITLB MSHR FULL: 0
ITLB RQ	ACCESS:   59583589	FORWARD:          0	MERGED:    1125322	TO_CACHE:   58458267

DTLB SPEC fills:          0  NON-SPEC fills:          0
DTLB Test counter :          0
DTLB Leapfrog:          0
DTLB MSHR merge:          0
DTLB TOTAL     ACCESS:   71375881  HIT:   48490298  MISS:   22885583  HIT %:    67.9365  MISS %:    32.0635   MPKI: 114.428
DTLB LOAD TRANSLATION NON_SPEC    ACCESS:   71375881  HIT:   48490298  MISS:   22885583  HIT %:    67.9365  MISS %:    32.0635   MPKI: 114.428
DTLB PREFETCH  REQUESTED:          0  ISSUED:          0  USEFUL:          0  USELESS:          0
DTLB USEFUL LOAD PREFETCHES:          0 PREFETCH ISSUED TO LOWER LEVEL:          0  ACCURACY: -nan
DTLB TIMELY PREFETCHES:          0 LATE PREFETCHES: 0 DROPPED PREFETCHES: 0
DTLB COMMIT LATE PREFETCHES: 0 NORMAL LATE: 0 MISSED OPPORTUNITY: 0 UNCOVERED: 0
DTLB PREFETCHES SAME FILL-ORIGIN LEVEL: 0 DIFFERENT FILL-ORIGIN LEVEL: 0
DTLB AVERAGE MISS LATENCY: 9.31711 cycles
DTLB AVERAGE MISS LATENCY LOAD: -nan cycles
DTLB AVERAGE MISS LATENCY PREFETCH: -nan cycles
DTLB AVERAGE MSHR OCCUPANCY: 0.195504
DTLB MSHR FULL: 0
DTLB RQ	ACCESS:   72253800	FORWARD:          0	MERGED:     869261	TO_CACHE:   71384539

STLB SPEC fills:          0  NON-SPEC fills:          0
STLB Test counter :          0
STLB Leapfrog:          0
STLB MSHR merge:          0
STLB TOTAL     ACCESS:   57130464  HIT:   57089645  MISS:      40819  HIT %:    99.9286  MISS %:  0.0714487   MPKI: 0.204095
STLB LOAD TRANSLATION NON_SPEC    ACCESS:   22885583  HIT:   22844764  MISS:      40819  HIT %:    99.8216  MISS %:   0.178361   MPKI: 0.204095
STLB TRANSLATION FROM L1D PREFETCHER NON_SPEC    ACCESS:   34244881  HIT:   34244881  MISS:          0  HIT %:        100  MISS %:          0   MPKI: 0
STLB PREFETCH  REQUESTED:          0  ISSUED:          0  USEFUL:          0  USELESS:          0
STLB USEFUL LOAD PREFETCHES:          0 PREFETCH ISSUED TO LOWER LEVEL:          0  ACCURACY: -nan
STLB TIMELY PREFETCHES:          0 LATE PREFETCHES: 0 DROPPED PREFETCHES: 0
STLB COMMIT LATE PREFETCHES: 0 NORMAL LATE: 0 MISSED OPPORTUNITY: 0 UNCOVERED: 0
STLB PREFETCHES SAME FILL-ORIGIN LEVEL: 0 DIFFERENT FILL-ORIGIN LEVEL: 0
STLB AVERAGE MISS LATENCY: 169.072 cycles
STLB AVERAGE MISS LATENCY LOAD: -nan cycles
STLB AVERAGE MISS LATENCY PREFETCH: -nan cycles
STLB AVERAGE MSHR OCCUPANCY: 0.00129871
STLB MSHR FULL: 0
STLB RQ	ACCESS:   60120088	FORWARD:          0	MERGED:    2989624	TO_CACHE:   57130464

STLB Hit, L1D data hit: 0
STLB Hit, L2C data hit: 0
STLB Hit, LLC data hit: 0
STLB Hit, LLC data miss: 0
STLB STLB hints to L2: 0
L0D SPEC fills:    5648529  NON-SPEC fills:          0
L0D TimeGuard Request with older TS:      70699 Restricted eviction:      12829 read:      15345
L0D Test counter :          0
L0D Leapfrog:          0
L0D MSHR merge:    1183766
L0D TOTAL     ACCESS:   67769433  HIT:   24499674  MISS:   43269759  HIT %:    36.1515  MISS %:    63.8485   MPKI: 216.349
L0D LOAD      TOTAL       ACCESS:   67769433  HIT:   24499674  MISS:   43269759  HIT %:    36.1515  MISS %:    63.8485   MPKI: 216.349
L0D LOAD      NON_SPEC    ACCESS:   37614502  HIT:       6101  MISS:   37608401  HIT %:  0.0162198  MISS %:    99.9838   MPKI: 188.042
L0D LOAD      SPEC        ACCESS:   30154931  HIT:   24493573  MISS:    5661358  HIT %:    81.2258  MISS %:    18.7742   MPKI: 28.3068
L0D PREFETCH  REQUESTED:          0  ISSUED:          0  USEFUL:          0  USELESS:          0
L0D USEFUL LOAD PREFETCHES:          0 PREFETCH ISSUED TO LOWER LEVEL:          0  ACCURACY: -nan
L0D TIMELY PREFETCHES:          0 LATE PREFETCHES: 0 DROPPED PREFETCHES: 0
L0D COMMIT LATE PREFETCHES: 0 NORMAL LATE: 0 MISSED OPPORTUNITY: 0 UNCOVERED: 43269759
L0D PREFETCHES SAME FILL-ORIGIN LEVEL: 0 DIFFERENT FILL-ORIGIN LEVEL: 0
L0D AVERAGE MISS LATENCY: 77.5525 cycles
L0D AVERAGE MISS LATENCY LOAD: 77.5525 cycles
L0D AVERAGE MISS LATENCY PREFETCH: -nan cycles
L0D AVERAGE MSHR OCCUPANCY: 0.219516
L0D MSHR FULL: 0
L0D RQ	ACCESS:   77353315	FORWARD:          0	MERGED:    8400118	TO_CACHE:   68953197
L0D WQ	ACCESS:    3300603	FORWARD:          0	MERGED:          0	TO_CACHE:    3300603

L1D SPEC fills:          0  NON-SPEC fills:   31930796
L1D Test counter :          0
L1D Leapfrog:          0
L1D MSHR merge:     296040
L1D TOTAL     ACCESS:  121468666  HIT:   55106921  MISS:   66361745  HIT %:    45.3672  MISS %:    54.6328   MPKI: 331.809
L1D LOAD      TOTAL       ACCESS:   43269749  HIT:   11197170  MISS:   32072579  HIT %:    25.8776  MISS %:    74.1224   MPKI: 160.363
L1D LOAD      NON_SPEC    ACCESS:   37608397  HIT:    5677601  MISS:   31930796  HIT %:    15.0966  MISS %:    84.9034   MPKI: 159.654
L1D LOAD      SPEC        ACCESS:    5661352  HIT:    5519569  MISS:     141783  HIT %:    97.4956  MISS %:     2.5044   MPKI: 0.708915
L1D RFO       NON_SPEC    ACCESS:    2486243  HIT:    2420687  MISS:      65556  HIT %:    97.3633  MISS %:    2.63675   MPKI: 0.32778
L1D PREFETCH  NON_SPEC    ACCESS:   36929284  HIT:    2829632  MISS:   34099652  HIT %:     7.6623  MISS %:    92.3377   MPKI: 170.498
L1D COMMIT LOAD NON_SPEC    ACCESS:   33135434  HIT:   33135331  MISS:        103  HIT %:    99.9997  MISS %: 0.000310845   MPKI: 0.000515
L1D COMMIT WRITE NON_SPEC    ACCESS:    5647956  HIT:    5524101  MISS:     123855  HIT %:    97.8071  MISS %:    2.19292   MPKI: 0.619275
L1D PREFETCH  REQUESTED:   37234505  ISSUED:   37234505  USEFUL:    3128958  USELESS:   30970700
L1D USEFUL LOAD PREFETCHES:    3128958 PREFETCH ISSUED TO LOWER LEVEL:   34395684  ACCURACY: 9.09695
L1D TIMELY PREFETCHES:    3128958 LATE PREFETCHES: 296030 DROPPED PREFETCHES: 0
L1D COMMIT LATE PREFETCHES: 0 NORMAL LATE: 296030 MISSED OPPORTUNITY: 0 UNCOVERED: 31776549
L1D PREFETCHES SAME FILL-ORIGIN LEVEL: 34395684 DIFFERENT FILL-ORIGIN LEVEL: 0
L1D AVERAGE MISS LATENCY: 104.988 cycles
L1D AVERAGE MISS LATENCY LOAD: 97.9077 cycles
L1D AVERAGE MISS LATENCY PREFETCH: 111.723 cycles
L1D AVERAGE MSHR OCCUPANCY: 0.851047
L1D MSHR FULL: 0
L1D RQ	ACCESS:   77317427	FORWARD:          0	MERGED:     858267	TO_CACHE:   76405193
L1D WQ	ACCESS:    8948676	FORWARD:      53967	MERGED:       1223	TO_CACHE:    8947453
L1D PQ	ACCESS:   37234505	FORWARD:          0	MERGED:          0	TO_CACHE:   37234505

L1D UNIQUE REGIONS ACCESSED: 0
L1D REGIONS CONFLICTS: 0
L1D Cross Page Prefetch Requests: 0
L1D Same Page Prefetch Requests: 45313442
L1D ROI Sum of L1D PQ occupancy: 485195481
L1D PREFETCHES PUSHED FROM L2C: 0
L1I SPEC fills:          0  NON-SPEC fills:          0
L1I Test counter :          0
L1I Leapfrog:          0
L1I MSHR merge:          1
L1I TOTAL     ACCESS:   59583589  HIT:   59583566  MISS:         23  HIT %:        100  MISS %: 3.86012e-05   MPKI: 0.000115
L1I LOAD      TOTAL       ACCESS:   59583589  HIT:   59583566  MISS:         23  HIT %:        100  MISS %: 3.86012e-05   MPKI: 0.000115
L1I LOAD      NON_SPEC    ACCESS:   59583589  HIT:   59583566  MISS:         23  HIT %:        100  MISS %: 3.86012e-05   MPKI: 0.000115
L1I PREFETCH  REQUESTED:          0  ISSUED:          0  USEFUL:          0  USELESS:          0
L1I USEFUL LOAD PREFETCHES:          0 PREFETCH ISSUED TO LOWER LEVEL:          0  ACCURACY: -nan
L1I TIMELY PREFETCHES:          0 LATE PREFETCHES: 0 DROPPED PREFETCHES: 0
L1I COMMIT LATE PREFETCHES: 0 NORMAL LATE: 0 MISSED OPPORTUNITY: 0 UNCOVERED: 23
L1I PREFETCHES SAME FILL-ORIGIN LEVEL: 0 DIFFERENT FILL-ORIGIN LEVEL: 0
L1I AVERAGE MISS LATENCY: 192.478 cycles
L1I AVERAGE MISS LATENCY LOAD: 192.478 cycles
L1I AVERAGE MISS LATENCY PREFETCH: -nan cycles
L1I AVERAGE MSHR OCCUPANCY: 1.51048e-07
L1I MSHR FULL: 0
L1I RQ	ACCESS:   70676003	FORWARD:          0	MERGED:   11092414	TO_CACHE:   59583589

BTB SPEC fills:          0  NON-SPEC fills:          0
BTB Test counter :          0
BTB Leapfrog:          0
BTB MSHR merge:          0
BTB TOTAL     ACCESS:   37026577  HIT:   37026405  MISS:        172  HIT %:    99.9995  MISS %: 0.000464531   MPKI: 0.00086
BTB BRANCH_DIRECT_JUMP	ACCESS:         66  HIT:         33  MISS:         33
BTB BRANCH_INDIRECT	ACCESS:          4  HIT:          0  MISS:          4
BTB BRANCH_CONDITIONAL	ACCESS:   37026441  HIT:   37026352  MISS:         89
BTB BRANCH_DIRECT_CALL	ACCESS:         28  HIT:         10  MISS:         18
BTB BRANCH_INDIRECT_CALL	ACCESS:          5  HIT:          1  MISS:          4
BTB BRANCH_RETURN	ACCESS:         33  HIT:          9  MISS:         24
BTB BRANCH_OTHER ACCESS:          0  HIT:          0  MISS:          0

L2C SPEC fills:          0  NON-SPEC fills:   24721919
L2C Test counter :          0
L2C Leapfrog:          0
L2C MSHR merge:          0
L2C TOTAL     ACCESS:   69078824  HIT:   16128532  MISS:   52950292  HIT %:     23.348  MISS %:     76.652   MPKI: 264.751
L2C LOAD      TOTAL       ACCESS:   31776554  HIT:    7002133  MISS:   24774421  HIT %:    22.0355  MISS %:    77.9645   MPKI: 123.872
L2C LOAD      NON_SPEC    ACCESS:   31655139  HIT:    6933197  MISS:   24721942  HIT %:    21.9023  MISS %:    78.0977   MPKI: 123.61
L2C LOAD      SPEC        ACCESS:     121415  HIT:      68936  MISS:      52479  HIT %:    56.7772  MISS %:    43.2228   MPKI: 0.262395
L2C RFO       NON_SPEC    ACCESS:      65556  HIT:        146  MISS:      65410  HIT %:    0.22271  MISS %:    99.7773   MPKI: 0.32705
L2C PREFETCH  NON_SPEC    ACCESS:   34395681  HIT:    6338707  MISS:   28056974  HIT %:    18.4288  MISS %:    81.5712   MPKI: 140.285
L2C WRITEBACK NON_SPEC    ACCESS:      82882  HIT:      82294  MISS:        588  HIT %:    99.2906  MISS %:   0.709442   MPKI: 0.00294
L2C CLEAN_EVICTION NON_SPEC    ACCESS:    2554000  HIT:    2515793  MISS:      38207  HIT %:     98.504  MISS %:    1.49597   MPKI: 0.191035
L2C COMMIT LOAD NON_SPEC    ACCESS:        103  HIT:         96  MISS:          7  HIT %:    93.2039  MISS %:    6.79612   MPKI: 3.5e-05
L2C LOAD TRANSLATION NON_SPEC    ACCESS:     204048  HIT:     189363  MISS:      14685  HIT %:    92.8032  MISS %:    7.19684   MPKI: 0.073425
L2C PREFETCH  REQUESTED:          0  ISSUED:          0  USEFUL:    1058357  USELESS:   26998646
L2C USEFUL LOAD PREFETCHES:    1058357 PREFETCH ISSUED TO LOWER LEVEL:   28056976  ACCURACY: 3.77217
L2C TIMELY PREFETCHES:    1058357 LATE PREFETCHES: 0 DROPPED PREFETCHES: 0
L2C COMMIT LATE PREFETCHES: 0 NORMAL LATE: 0 MISSED OPPORTUNITY: 0 UNCOVERED: 24774421
L2C PREFETCHES SAME FILL-ORIGIN LEVEL: 0 DIFFERENT FILL-ORIGIN LEVEL: 0
L2C AVERAGE MISS LATENCY: 113.17 cycles
L2C AVERAGE MISS LATENCY LOAD: 106.304 cycles
L2C AVERAGE MISS LATENCY PREFETCH: 119.057 cycles
L2C AVERAGE MSHR OCCUPANCY: 0.453384
L2C MSHR FULL: 0
L2C RQ	ACCESS:   32046279	FORWARD:          0	MERGED:          0	TO_CACHE:   32046261
L2C WQ	ACCESS:    2636882	FORWARD:         19	MERGED:          0	TO_CACHE:    2636882
L2C PQ	ACCESS:   34395684	FORWARD:          0	MERGED:          0	TO_CACHE:   34395683

L2C Instructions Evicting Data 23
L2C Translations Evicting Data 14684
L2C Data Evicting Data 52829622
L2C Instructions Evicting Instructions 0
L2C Translations Evicting Instructions 0
L2C Data Evicting Instructions 23
L2C Instructions Evicting Translations 0
L2C Translations Evicting Translations 1
L2C Data Evicting Translations 14665
L2C Dense regions hint from L2: 0
PSCL5 SPEC fills:          0  NON-SPEC fills:          0
PSCL5 Test counter :          0
PSCL5 Leapfrog:          0
PSCL5 MSHR merge:          0
PSCL5 TOTAL     ACCESS:          0  HIT:          0  MISS:          0  HIT %:       -nan  MISS %:       -nan   MPKI: 0
PSCL5 PREFETCH  REQUESTED:          0  ISSUED:          0  USEFUL:          0  USELESS:          0
PSCL5 USEFUL LOAD PREFETCHES:          0 PREFETCH ISSUED TO LOWER LEVEL:          0  ACCURACY: -nan
PSCL5 TIMELY PREFETCHES:          0 LATE PREFETCHES: 0 DROPPED PREFETCHES: 0
PSCL5 COMMIT LATE PREFETCHES: 0 NORMAL LATE: 0 MISSED OPPORTUNITY: 0 UNCOVERED: 0
PSCL5 PREFETCHES SAME FILL-ORIGIN LEVEL: 0 DIFFERENT FILL-ORIGIN LEVEL: 0

PSCL4 SPEC fills:          0  NON-SPEC fills:          0
PSCL4 Test counter :          0
PSCL4 Leapfrog:          0
PSCL4 MSHR merge:          0
PSCL4 TOTAL     ACCESS:          0  HIT:          0  MISS:          0  HIT %:       -nan  MISS %:       -nan   MPKI: 0
PSCL4 PREFETCH  REQUESTED:          0  ISSUED:          0  USEFUL:          0  USELESS:          0
PSCL4 USEFUL LOAD PREFETCHES:          0 PREFETCH ISSUED TO LOWER LEVEL:          0  ACCURACY: -nan
PSCL4 TIMELY PREFETCHES:          0 LATE PREFETCHES: 0 DROPPED PREFETCHES: 0
PSCL4 COMMIT LATE PREFETCHES: 0 NORMAL LATE: 0 MISSED OPPORTUNITY: 0 UNCOVERED: 0
PSCL4 PREFETCHES SAME FILL-ORIGIN LEVEL: 0 DIFFERENT FILL-ORIGIN LEVEL: 0

PSCL3 SPEC fills:          0  NON-SPEC fills:          0
PSCL3 Test counter :          0
PSCL3 Leapfrog:          0
PSCL3 MSHR merge:          0
PSCL3 TOTAL     ACCESS:          0  HIT:          0  MISS:          0  HIT %:       -nan  MISS %:       -nan   MPKI: 0
PSCL3 PREFETCH  REQUESTED:          0  ISSUED:          0  USEFUL:          0  USELESS:          0
PSCL3 USEFUL LOAD PREFETCHES:          0 PREFETCH ISSUED TO LOWER LEVEL:          0  ACCURACY: -nan
PSCL3 TIMELY PREFETCHES:          0 LATE PREFETCHES: 0 DROPPED PREFETCHES: 0
PSCL3 COMMIT LATE PREFETCHES: 0 NORMAL LATE: 0 MISSED OPPORTUNITY: 0 UNCOVERED: 0
PSCL3 PREFETCHES SAME FILL-ORIGIN LEVEL: 0 DIFFERENT FILL-ORIGIN LEVEL: 0

PSCL2 SPEC fills:          0  NON-SPEC fills:          0
PSCL2 Test counter :          0
PSCL2 Leapfrog:          0
PSCL2 MSHR merge:          0
PSCL2 TOTAL     ACCESS:          0  HIT:          0  MISS:          0  HIT %:       -nan  MISS %:       -nan   MPKI: 0
PSCL2 PREFETCH  REQUESTED:          0  ISSUED:          0  USEFUL:          0  USELESS:          0
PSCL2 USEFUL LOAD PREFETCHES:          0 PREFETCH ISSUED TO LOWER LEVEL:          0  ACCURACY: -nan
PSCL2 TIMELY PREFETCHES:          0 LATE PREFETCHES: 0 DROPPED PREFETCHES: 0
PSCL2 COMMIT LATE PREFETCHES: 0 NORMAL LATE: 0 MISSED OPPORTUNITY: 0 UNCOVERED: 0
PSCL2 PREFETCHES SAME FILL-ORIGIN LEVEL: 0 DIFFERENT FILL-ORIGIN LEVEL: 0

LLC SPEC fills:          0  NON-SPEC fills:   12165328
LLC Test counter :          0
LLC Leapfrog:          0
LLC MSHR merge:          0
LLC TOTAL     ACCESS:   55498987  HIT:   27302156  MISS:   28196831  HIT %:     49.194  MISS %:     50.806   MPKI: 140.984
LLC LOAD      TOTAL       ACCESS:   24774421  HIT:   12559767  MISS:   12214654  HIT %:    50.6965  MISS %:    49.3035   MPKI: 61.0733
LLC LOAD      NON_SPEC    ACCESS:   24721942  HIT:   12556591  MISS:   12165351  HIT %:    50.7913  MISS %:    49.2087   MPKI: 60.8268
LLC LOAD      SPEC        ACCESS:      52479  HIT:       3176  MISS:      49303  HIT %:    6.05194  MISS %:    93.9481   MPKI: 0.246515
LLC RFO       NON_SPEC    ACCESS:      65410  HIT:       1498  MISS:      63912  HIT %:    2.29017  MISS %:    97.7098   MPKI: 0.31956
LLC PREFETCH  NON_SPEC    ACCESS:   28056974  HIT:   12181152  MISS:   15875822  HIT %:    43.4158  MISS %:    56.5842   MPKI: 79.3791
LLC WRITEBACK NON_SPEC    ACCESS:      67919  HIT:      67548  MISS:        371  HIT %:    99.4538  MISS %:   0.546239   MPKI: 0.001855
LLC CLEAN_EVICTION NON_SPEC    ACCESS:    2519571  HIT:    2486447  MISS:      33124  HIT %:    98.6853  MISS %:    1.31467   MPKI: 0.16562
LLC COMMIT LOAD NON_SPEC    ACCESS:          7  HIT:          5  MISS:          2  HIT %:    71.4286  MISS %:    28.5714   MPKI: 1e-05
LLC LOAD TRANSLATION NON_SPEC    ACCESS:      14685  HIT:       5739  MISS:       8946  HIT %:    39.0807  MISS %:    60.9193   MPKI: 0.04473
LLC PREFETCH  REQUESTED:          0  ISSUED:          0  USEFUL:    2001232  USELESS:   13874851
LLC USEFUL LOAD PREFETCHES:    2001232 PREFETCH ISSUED TO LOWER LEVEL:   15875824  ACCURACY: 12.6055
LLC TIMELY PREFETCHES:    2001232 LATE PREFETCHES: 0 DROPPED PREFETCHES: 0
LLC COMMIT LATE PREFETCHES: 0 NORMAL LATE: 0 MISSED OPPORTUNITY: 0 UNCOVERED: 12214654
LLC PREFETCHES SAME FILL-ORIGIN LEVEL: 0 DIFFERENT FILL-ORIGIN LEVEL: 0
LLC AVERAGE MISS LATENCY: 156.211 cycles
LLC AVERAGE MISS LATENCY LOAD: 154.774 cycles
LLC AVERAGE MISS LATENCY PREFETCH: 157.356 cycles
LLC AVERAGE MSHR OCCUPANCY: 0.353178
LLC MSHR FULL: 0
LLC RQ	ACCESS:   24854523	FORWARD:          0	MERGED:          0	TO_CACHE:   24854523
LLC WQ	ACCESS:    2587491	FORWARD:          0	MERGED:          0	TO_CACHE:    2587491
LLC PQ	ACCESS:   28056976	FORWARD:          0	MERGED:          0	TO_CACHE:   28056976

LLC Dense regions hint to LLC: 0

RAW hits: 20
Loads Generated: 77353336
Loads sent to L1D: 77353315
Stores Generated: 3300603
Stores sent to L1D: 3300603
Major fault: 0 Minor fault: 34900
Allocated PAGES: 34900
Total Load insts: 95642811
Total Non-spec loads: 44936357
Percentage of speculative loads: 53.0165

LeapFrogging counter: 0
Commit hits: 5648073 miss: 34047669
Commit hit %: 14.2284 miss %: 85.7716
Commits not translated: 0
Loads retired: 32072579
Stores retired: 3300603
Cache fills: 32072579
L1D response latency: 97.9077 cycles
Load retirement latency: 118.758 cycles
OOO test counter: 0
Discarded buffer inserts: 5648073 hits: 36641 hit %: 0.648735
Filter prediction accuracy: -nan

stream: 
stream:times selected: 43188928
stream:pref_filled: 37588541
stream:pref_useful: 1053196
stream:pref_late: 227589
stream:misses: 9275867
stream:misses_by_poll: 0

CS: 
CS:times selected: 3761321
CS:pref_filled: 3191403
CS:pref_useful: 2880962
CS:pref_late: 33590
CS:misses: 262708
CS:misses_by_poll: 64919

CPLX: 
CPLX:times selected: 39063695
CPLX:pref_filled: 739173
CPLX:pref_useful: 34337
CPLX:pref_late: 10888
CPLX:misses: 28934502
CPLX:misses_by_poll: 67571

NL_L1: 
NL:times selected: 54308
NL:pref_filled: 53462
NL:pref_useful: 796
NL:pref_late: 0
NL:misses: 53254
NL:misses_by_poll: 9

total selections: 86068252
total_filled: 34099652
total_useful: 3128958
total_late: 275889
total_polluted: 132499
total_misses_after_warmup: 32072589
conflicts: 94
Degree Incremented Times: 208051
Degree Decremented Times: 428706

L1 IP Table Write Accesses: 43269713
L1 IP Table Read Accesses: 43269619
L1 RST Write Accesses: 35645399
L1 RST Read Accesses: 71290798
L1 CSPT Write Accesses: 35645399
L1 CSPT Read Accesses: 68075085
L1 RR Filter Tag Write Accesses: 37234505
L1 RR Filter Tag Read Accesses: 1340461933
L1 IP Table Tag Write Accesses: 43269759
L1 IP Table Tag Read Accesses: 43269759
L1 RST Tag Write Accesses: 0
L1 RST Tag Read Accesses: 320045804
L1 RR Filter Write Accesses: 0
L1 RR Filter Read Accesses: 44090444
test: 23178112

DRAM Statistics
 CHANNEL 0
 RQ ROW_BUFFER_HIT:    4943775  ROW_BUFFER_MISS:   23219560
 DBUS_CONGESTED:      24458
 WQ ROW_BUFFER_HIT:    1061963  ROW_BUFFER_MISS:    1522540  FULL:          0

 AVG_CONGESTED_CYCLE: 2
 All warmup complete: 2
Channel 0 Bank busy for read cycles: 0
Channel 0 Bank busy for write cycles: 0
Channel 0
Rank 0
0banks busy for read cycles: 1117316662
0banks busy for write cycles: 1480074
1banks busy for read cycles: 1034897454
1banks busy for write cycles: 334020820
2banks busy for read cycles: 1044448133
2banks busy for write cycles: 101419030
3banks busy for read cycles: 159624764
3banks busy for write cycles: 29145295
4banks busy for read cycles: 24850428
4banks busy for write cycles: 9340901
5banks busy for read cycles: 4308536
5banks busy for write cycles: 3990614
6banks busy for read cycles: 1246247
6banks busy for write cycles: 2364848
7banks busy for read cycles: 101317
7banks busy for write cycles: 2196142
8banks busy for read cycles: 6094
8banks busy for write cycles: 7755379

CPU 0 Branch Prediction Accuracy: 96.9582% MPKI: 5.63138 Average ROB Occupancy at Mispredict: 138.177
Branch types
NOT_BRANCH: 162973200 81.4866%
BRANCH_DIRECT_JUMP: 66 3.3e-05%
BRANCH_INDIRECT: 4 2e-06%
BRANCH_CONDITIONAL: 37026665 18.5133%
BRANCH_DIRECT_CALL: 28 1.4e-05%
BRANCH_INDIRECT_CALL: 5 2.5e-06%
BRANCH_RETURN: 33 1.65e-05%
BRANCH_OTHER: 0 0%

DRAM PAGES: 1048576
Allocated PAGES: 34900
