
*** ChampSim Multicore Out-of-Order Simulator ***

Warmup Instructions: 50000000
Simulation Instructions: 200000000
Number of CPUs: 1
LLC sets: 2048
LLC ways: 16
L0D sets: 16
L0D ways: 2
ROB size: 352
LQ size: 128
SQ size: 72
Secure Berti: OFF
Berti: OFF
Berti Fill: OFF
On commit prefetching: OFF
Hit-based filter: OFF
Time-guarding: ON
Free-slotting: ON
Leap-frogging: ON
Train prefetcher on L0D bypass: OFF
No translation penalty for prefetchers: OFF
Prefetch to L0D only: OFF
Prefetch to L1D only: OFF
Clean evictions: ON
Commit loads: ON
Commit write: ON
Fill commit loads to L2C, LLC: ON
DRAM IO FREQUENCY: 6400
ROB SIZE: 352
Off-chip DRAM Size: 4096 MB Channels: 1 Width: 64-bit Data Rate: 6400 MT/s
CPU 0 runs /home/sumon/secure_berti/GhostMinion/../../traces/gap/sssp-10.trace.gz
.gz
BTB has LRU replacement policy
ITLB has LRU replacement policy
DTLB has LRU replacement policy
STLB has LRU replacement policy
L1I has LRU replacement policy
L0D has LRU replacement policy
IP Table Entries: 1024
CSPT Entries: 128
RR_ENTRIES: 32
RST_ENTRIES: 8
L1D has LRU replacement policy
L2C has LRU replacement policy
LLC has LRU replacement policy
Heartbeat CPU 0 instructions: 10000000 cycles: 3955456 heartbeat IPC: 2.52815 cumulative IPC: 2.52815 (Simulation time: 0 hr 0 min 45 sec) 
Heartbeat CPU 0 instructions: 20000001 cycles: 7782784 heartbeat IPC: 2.61279 cumulative IPC: 2.56977 (Simulation time: 0 hr 1 min 32 sec) 
Heartbeat CPU 0 instructions: 30000003 cycles: 11569712 heartbeat IPC: 2.64066 cumulative IPC: 2.59298 (Simulation time: 0 hr 2 min 19 sec) 
Heartbeat CPU 0 instructions: 40000002 cycles: 15326786 heartbeat IPC: 2.66165 cumulative IPC: 2.60981 (Simulation time: 0 hr 3 min 6 sec) 
Heartbeat CPU 0 instructions: 50000001 cycles: 19064360 heartbeat IPC: 2.67553 cumulative IPC: 2.62269 (Simulation time: 0 hr 3 min 53 sec) 

Warmup complete CPU 0 instructions: 50000001 cycles: 19064360 (Simulation time: 0 hr 3 min 53 sec) 

Heartbeat CPU 0 instructions: 60000000 cycles: 48316212 heartbeat IPC: 0.341859 cumulative IPC: 0.341859 (Simulation time: 0 hr 4 min 55 sec) 
Heartbeat CPU 0 instructions: 70000000 cycles: 76790945 heartbeat IPC: 0.351189 cumulative IPC: 0.346461 (Simulation time: 0 hr 5 min 54 sec) 
Heartbeat CPU 0 instructions: 80000001 cycles: 104874652 heartbeat IPC: 0.356078 cumulative IPC: 0.349608 (Simulation time: 0 hr 6 min 52 sec) 
Heartbeat CPU 0 instructions: 90000000 cycles: 132672125 heartbeat IPC: 0.359745 cumulative IPC: 0.352089 (Simulation time: 0 hr 8 min 9 sec) 
Heartbeat CPU 0 instructions: 100000000 cycles: 160129757 heartbeat IPC: 0.364197 cumulative IPC: 0.354446 (Simulation time: 0 hr 9 min 6 sec) 
Heartbeat CPU 0 instructions: 110000000 cycles: 187173963 heartbeat IPC: 0.369765 cumulative IPC: 0.35691 (Simulation time: 0 hr 10 min 3 sec) 
Heartbeat CPU 0 instructions: 120000003 cycles: 214405212 heartbeat IPC: 0.367225 cumulative IPC: 0.358348 (Simulation time: 0 hr 10 min 59 sec) 
Heartbeat CPU 0 instructions: 130000002 cycles: 241093088 heartbeat IPC: 0.374702 cumulative IPC: 0.360314 (Simulation time: 0 hr 11 min 56 sec) 
Heartbeat CPU 0 instructions: 140000002 cycles: 267786888 heartbeat IPC: 0.374619 cumulative IPC: 0.361849 (Simulation time: 0 hr 12 min 52 sec) 
Heartbeat CPU 0 instructions: 150000000 cycles: 294656965 heartbeat IPC: 0.372161 cumulative IPC: 0.362854 (Simulation time: 0 hr 13 min 44 sec) 
Heartbeat CPU 0 instructions: 160000001 cycles: 321188111 heartbeat IPC: 0.376916 cumulative IPC: 0.364089 (Simulation time: 0 hr 14 min 35 sec) 
Heartbeat CPU 0 instructions: 170000002 cycles: 347993808 heartbeat IPC: 0.373055 cumulative IPC: 0.36482 (Simulation time: 0 hr 15 min 26 sec) 
Heartbeat CPU 0 instructions: 180000001 cycles: 375034906 heartbeat IPC: 0.369807 cumulative IPC: 0.365199 (Simulation time: 0 hr 16 min 15 sec) 
Heartbeat CPU 0 instructions: 190000002 cycles: 401667185 heartbeat IPC: 0.375484 cumulative IPC: 0.365915 (Simulation time: 0 hr 17 min 4 sec) 
Heartbeat CPU 0 instructions: 200000003 cycles: 427670787 heartbeat IPC: 0.384562 cumulative IPC: 0.367101 (Simulation time: 0 hr 17 min 52 sec) 
Heartbeat CPU 0 instructions: 210000003 cycles: 454054227 heartbeat IPC: 0.379026 cumulative IPC: 0.367825 (Simulation time: 0 hr 18 min 40 sec) 
Heartbeat CPU 0 instructions: 220000000 cycles: 480468517 heartbeat IPC: 0.378583 cumulative IPC: 0.368441 (Simulation time: 0 hr 19 min 29 sec) 
Heartbeat CPU 0 instructions: 230000002 cycles: 506513971 heartbeat IPC: 0.383944 cumulative IPC: 0.369269 (Simulation time: 0 hr 20 min 17 sec) 
Heartbeat CPU 0 instructions: 240000001 cycles: 532596333 heartbeat IPC: 0.383401 cumulative IPC: 0.369987 (Simulation time: 0 hr 21 min 4 sec) 
Heartbeat CPU 0 instructions: 250000000 cycles: 558776491 heartbeat IPC: 0.381969 cumulative IPC: 0.370568 (Simulation time: 0 hr 21 min 51 sec) 
Finished CPU 0 instructions: 200000003 cycles: 539712132 cumulative IPC: 0.370568 (Simulation time: 0 hr 21 min 51 sec) 
 Instruction ID: 250000054

ChampSim completed all CPUs

Region of Interest Statistics

CPU 0 cumulative IPC: 0.370568 instructions: 200000003 cycles: 539712132
ITLB SPEC fills:          0  NON-SPEC fills:          0
ITLB Test counter :          0
ITLB Leapfrog:          0
ITLB MSHR merge:          0
ITLB TOTAL     ACCESS:   24279824  HIT:   24279824  MISS:          0  HIT %:        100  MISS %:          0   MPKI: 0
ITLB LOAD TRANSLATION NON_SPEC    ACCESS:   24279824  HIT:   24279824  MISS:          0  HIT %:        100  MISS %:          0   MPKI: 0
ITLB PREFETCH  REQUESTED:          0  ISSUED:          0  USEFUL:          0  USELESS:          0
ITLB USEFUL LOAD PREFETCHES:          0 PREFETCH ISSUED TO LOWER LEVEL:          0  ACCURACY: -nan
ITLB TIMELY PREFETCHES:          0 LATE PREFETCHES: 0 DROPPED PREFETCHES: 0
ITLB COMMIT LATE PREFETCHES: 0 NORMAL LATE: 0 MISSED OPPORTUNITY: 0 UNCOVERED: 0
ITLB PREFETCHES SAME FILL-ORIGIN LEVEL: 0 DIFFERENT FILL-ORIGIN LEVEL: 0
ITLB AVERAGE MISS LATENCY: -nan cycles
ITLB AVERAGE MISS LATENCY LOAD: -nan cycles
ITLB AVERAGE MISS LATENCY PREFETCH: -nan cycles
ITLB AVERAGE MSHR OCCUPANCY: 0
ITLB MSHR FULL: 0
ITLB RQ	ACCESS:   24943938	FORWARD:          0	MERGED:     664114	TO_CACHE:   24279824

DTLB SPEC fills:          0  NON-SPEC fills:          0
DTLB Test counter :          0
DTLB Leapfrog:          0
DTLB MSHR merge:          0
DTLB TOTAL     ACCESS:   48641918  HIT:   43967021  MISS:    4674897  HIT %:    90.3892  MISS %:    9.61084   MPKI: 23.3745
DTLB LOAD TRANSLATION NON_SPEC    ACCESS:   48641918  HIT:   43967021  MISS:    4674897  HIT %:    90.3892  MISS %:    9.61084   MPKI: 23.3745
DTLB PREFETCH  REQUESTED:          0  ISSUED:          0  USEFUL:          0  USELESS:          0
DTLB USEFUL LOAD PREFETCHES:          0 PREFETCH ISSUED TO LOWER LEVEL:          0  ACCURACY: -nan
DTLB TIMELY PREFETCHES:          0 LATE PREFETCHES: 0 DROPPED PREFETCHES: 0
DTLB COMMIT LATE PREFETCHES: 0 NORMAL LATE: 0 MISSED OPPORTUNITY: 0 UNCOVERED: 0
DTLB PREFETCHES SAME FILL-ORIGIN LEVEL: 0 DIFFERENT FILL-ORIGIN LEVEL: 0
DTLB AVERAGE MISS LATENCY: 12.613 cycles
DTLB AVERAGE MISS LATENCY LOAD: -nan cycles
DTLB AVERAGE MISS LATENCY PREFETCH: -nan cycles
DTLB AVERAGE MSHR OCCUPANCY: 0.23201
DTLB MSHR FULL: 2.6509e-07
DTLB RQ	ACCESS:   53014527	FORWARD:          0	MERGED:    3974616	TO_CACHE:   49039911

STLB SPEC fills:          0  NON-SPEC fills:          0
STLB Test counter :          0
STLB Leapfrog:          0
STLB MSHR merge:          0
STLB TOTAL     ACCESS:   12676596  HIT:   12615853  MISS:      60743  HIT %:    99.5208  MISS %:   0.479174   MPKI: 0.303715
STLB LOAD TRANSLATION NON_SPEC    ACCESS:    4674897  HIT:    4614154  MISS:      60743  HIT %:    98.7007  MISS %:    1.29934   MPKI: 0.303715
STLB TRANSLATION FROM L1D PREFETCHER NON_SPEC    ACCESS:    8001699  HIT:    8001699  MISS:          0  HIT %:        100  MISS %:          0   MPKI: 0
STLB PREFETCH  REQUESTED:          0  ISSUED:          0  USEFUL:          0  USELESS:          0
STLB USEFUL LOAD PREFETCHES:          0 PREFETCH ISSUED TO LOWER LEVEL:          0  ACCURACY: -nan
STLB TIMELY PREFETCHES:          0 LATE PREFETCHES: 0 DROPPED PREFETCHES: 0
STLB COMMIT LATE PREFETCHES: 0 NORMAL LATE: 0 MISSED OPPORTUNITY: 0 UNCOVERED: 0
STLB PREFETCHES SAME FILL-ORIGIN LEVEL: 0 DIFFERENT FILL-ORIGIN LEVEL: 0
STLB AVERAGE MISS LATENCY: 261.132 cycles
STLB AVERAGE MISS LATENCY LOAD: -nan cycles
STLB AVERAGE MISS LATENCY PREFETCH: -nan cycles
STLB AVERAGE MSHR OCCUPANCY: 0.0120496
STLB MSHR FULL: 0
STLB RQ	ACCESS:   15847222	FORWARD:          0	MERGED:    3170626	TO_CACHE:   12676596

STLB Hit, L1D data hit: 0
STLB Hit, L2C data hit: 0
STLB Hit, LLC data hit: 0
STLB Hit, LLC data miss: 0
STLB STLB hints to L2: 0
L0D SPEC fills:   26368539  NON-SPEC fills:          0
L0D TimeGuard Request with older TS:    2339981 Restricted eviction:     240637 read:    4379405
L0D Test counter :          0
L0D Leapfrog:          0
L0D MSHR merge:    2044904
L0D TOTAL     ACCESS:   48752855  HIT:   17120307  MISS:   31632548  HIT %:    35.1165  MISS %:    64.8835   MPKI: 158.163
L0D LOAD      TOTAL       ACCESS:   48752855  HIT:   17120307  MISS:   31632548  HIT %:    35.1165  MISS %:    64.8835   MPKI: 158.163
L0D LOAD      NON_SPEC    ACCESS:    5108750  HIT:      85378  MISS:    5023372  HIT %:    1.67121  MISS %:    98.3288   MPKI: 25.1169
L0D LOAD      SPEC        ACCESS:   43644105  HIT:   17034929  MISS:   26609176  HIT %:    39.0315  MISS %:    60.9685   MPKI: 133.046
L0D PREFETCH  REQUESTED:          0  ISSUED:          0  USEFUL:          0  USELESS:          0
L0D USEFUL LOAD PREFETCHES:          0 PREFETCH ISSUED TO LOWER LEVEL:          0  ACCURACY: -nan
L0D TIMELY PREFETCHES:          0 LATE PREFETCHES: 0 DROPPED PREFETCHES: 0
L0D COMMIT LATE PREFETCHES: 0 NORMAL LATE: 0 MISSED OPPORTUNITY: 0 UNCOVERED: 31632548
L0D PREFETCHES SAME FILL-ORIGIN LEVEL: 0 DIFFERENT FILL-ORIGIN LEVEL: 0
L0D AVERAGE MISS LATENCY: 33.8028 cycles
L0D AVERAGE MISS LATENCY LOAD: 33.8028 cycles
L0D AVERAGE MISS LATENCY PREFETCH: -nan cycles
L0D AVERAGE MSHR OCCUPANCY: 2.13986
L0D MSHR FULL: 0.0461756
L0D RQ	ACCESS:   76738997	FORWARD:          0	MERGED:   25941242	TO_CACHE:   50797755
L0D WQ	ACCESS:    2216772	FORWARD:          0	MERGED:          0	TO_CACHE:    2216772

L1D SPEC fills:          0  NON-SPEC fills:    1644251
L1D Test counter :          0
L1D Leapfrog:          0
L1D MSHR merge:     154904
L1D TOTAL     ACCESS:   87047425  HIT:   59694213  MISS:   27353212  HIT %:    68.5767  MISS %:    31.4233   MPKI: 136.766
L1D LOAD      TOTAL       ACCESS:   31631754  HIT:   22446627  MISS:    9185127  HIT %:    70.9623  MISS %:    29.0377   MPKI: 45.9256
L1D LOAD      NON_SPEC    ACCESS:    5022735  HIT:    3378484  MISS:    1644251  HIT %:    67.2638  MISS %:    32.7362   MPKI: 8.22125
L1D LOAD      SPEC        ACCESS:   26609019  HIT:   19068143  MISS:    7540876  HIT %:    71.6605  MISS %:    28.3395   MPKI: 37.7044
L1D RFO       NON_SPEC    ACCESS:    2022432  HIT:    1479116  MISS:     543316  HIT %:    73.1355  MISS %:    26.8645   MPKI: 2.71658
L1D PREFETCH  NON_SPEC    ACCESS:   10700463  HIT:     605154  MISS:   10095309  HIT %:     5.6554  MISS %:    94.3446   MPKI: 50.4765
L1D COMMIT LOAD NON_SPEC    ACCESS:   18551757  HIT:   18428776  MISS:     122981  HIT %:    99.3371  MISS %:   0.662908   MPKI: 0.614905
L1D COMMIT WRITE NON_SPEC    ACCESS:   24141019  HIT:   16734540  MISS:    7406479  HIT %:    69.3199  MISS %:    30.6801   MPKI: 37.0324
L1D PREFETCH  REQUESTED:   11172326  ISSUED:   11172325  USEFUL:    1320733  USELESS:    8774542
L1D USEFUL LOAD PREFETCHES:    1320733 PREFETCH ISSUED TO LOWER LEVEL:   10249469  ACCURACY: 12.8859
L1D TIMELY PREFETCHES:    1320733 LATE PREFETCHES: 154155 DROPPED PREFETCHES: 0
L1D COMMIT LATE PREFETCHES: 0 NORMAL LATE: 154155 MISSED OPPORTUNITY: 0 UNCOVERED: 9030972
L1D PREFETCHES SAME FILL-ORIGIN LEVEL: 10249469 DIFFERENT FILL-ORIGIN LEVEL: 0
L1D AVERAGE MISS LATENCY: 87.235 cycles
L1D AVERAGE MISS LATENCY LOAD: 98.8047 cycles
L1D AVERAGE MISS LATENCY PREFETCH: 140.79 cycles
L1D AVERAGE MSHR OCCUPANCY: 3.89393
L1D MSHR FULL: 0.0342965
L1D RQ	ACCESS:   78985481	FORWARD:          0	MERGED:   23589375	TO_CACHE:   50185207
L1D WQ	ACCESS:   26383083	FORWARD:    5210899	MERGED:      26963	TO_CACHE:   26356120
L1D PQ	ACCESS:   11172325	FORWARD:          0	MERGED:          0	TO_CACHE:   11172325

L1D UNIQUE REGIONS ACCESSED: 0
L1D REGIONS CONFLICTS: 0
L1D Cross Page Prefetch Requests: 0
L1D Same Page Prefetch Requests: 13727140
L1D ROI Sum of L1D PQ occupancy: 148693802
L1D PREFETCHES PUSHED FROM L2C: 0
L1I SPEC fills:          0  NON-SPEC fills:          0
L1I Test counter :          0
L1I Leapfrog:          0
L1I MSHR merge:          0
L1I TOTAL     ACCESS:   24943938  HIT:   24943938  MISS:          0  HIT %:        100  MISS %:          0   MPKI: 0
L1I LOAD      TOTAL       ACCESS:   24943938  HIT:   24943938  MISS:          0  HIT %:        100  MISS %:          0   MPKI: 0
L1I LOAD      NON_SPEC    ACCESS:   24943938  HIT:   24943938  MISS:          0  HIT %:        100  MISS %:          0   MPKI: 0
L1I PREFETCH  REQUESTED:          0  ISSUED:          0  USEFUL:          0  USELESS:          0
L1I USEFUL LOAD PREFETCHES:          0 PREFETCH ISSUED TO LOWER LEVEL:          0  ACCURACY: -nan
L1I TIMELY PREFETCHES:          0 LATE PREFETCHES: 0 DROPPED PREFETCHES: 0
L1I COMMIT LATE PREFETCHES: 0 NORMAL LATE: 0 MISSED OPPORTUNITY: 0 UNCOVERED: 0
L1I PREFETCHES SAME FILL-ORIGIN LEVEL: 0 DIFFERENT FILL-ORIGIN LEVEL: 0
L1I AVERAGE MISS LATENCY: -nan cycles
L1I AVERAGE MISS LATENCY LOAD: -nan cycles
L1I AVERAGE MISS LATENCY PREFETCH: -nan cycles
L1I AVERAGE MSHR OCCUPANCY: 0
L1I MSHR FULL: 0
L1I RQ	ACCESS:   38861349	FORWARD:          0	MERGED:   13917411	TO_CACHE:   24943938

BTB SPEC fills:          0  NON-SPEC fills:          0
BTB Test counter :          0
BTB Leapfrog:          0
BTB MSHR merge:          0
BTB TOTAL     ACCESS:   29056031  HIT:   29055886  MISS:        145  HIT %:    99.9995  MISS %: 0.000499036   MPKI: 0.000725
BTB BRANCH_DIRECT_JUMP	ACCESS:    9225403  HIT:    9225362  MISS:         41
BTB BRANCH_INDIRECT	ACCESS:          0  HIT:          0  MISS:          0
BTB BRANCH_CONDITIONAL	ACCESS:   19828000  HIT:   19827919  MISS:         81
BTB BRANCH_DIRECT_CALL	ACCESS:       1314  HIT:       1305  MISS:          9
BTB BRANCH_INDIRECT_CALL	ACCESS:          0  HIT:          0  MISS:          0
BTB BRANCH_RETURN	ACCESS:       1314  HIT:       1300  MISS:         14
BTB BRANCH_OTHER ACCESS:          0  HIT:          0  MISS:          0

L2C SPEC fills:          0  NON-SPEC fills:    1174421
L2C Test counter :          0
L2C Leapfrog:          0
L2C MSHR merge:          0
L2C TOTAL     ACCESS:   29795532  HIT:    7213358  MISS:   22582174  HIT %:    24.2095  MISS %:    75.7905   MPKI: 112.911
L2C LOAD      TOTAL       ACCESS:    9030973  HIT:    1722116  MISS:    7308857  HIT %:     19.069  MISS %:     80.931   MPKI: 36.5443
L2C LOAD      NON_SPEC    ACCESS:    1619200  HIT:     444779  MISS:    1174421  HIT %:    27.4691  MISS %:    72.5309   MPKI: 5.8721
L2C LOAD      SPEC        ACCESS:    7411773  HIT:    1277337  MISS:    6134436  HIT %:    17.2339  MISS %:    82.7661   MPKI: 30.6722
L2C RFO       NON_SPEC    ACCESS:     543299  HIT:     318344  MISS:     224955  HIT %:    58.5946  MISS %:    41.4054   MPKI: 1.12477
L2C PREFETCH  NON_SPEC    ACCESS:   10249453  HIT:    1483402  MISS:    8766051  HIT %:     14.473  MISS %:     85.527   MPKI: 43.8303
L2C WRITEBACK NON_SPEC    ACCESS:     942927  HIT:     939937  MISS:       2990  HIT %:    99.6829  MISS %:   0.317098   MPKI: 0.01495
L2C CLEAN_EVICTION NON_SPEC    ACCESS:    8602236  HIT:    2458811  MISS:    6143425  HIT %:    28.5834  MISS %:    71.4166   MPKI: 30.7171
L2C COMMIT LOAD NON_SPEC    ACCESS:     122933  HIT:      35119  MISS:      87814  HIT %:    28.5676  MISS %:    71.4324   MPKI: 0.43907
L2C LOAD TRANSLATION NON_SPEC    ACCESS:     303711  HIT:     255629  MISS:      48082  HIT %:    84.1685  MISS %:    15.8315   MPKI: 0.24041
L2C PREFETCH  REQUESTED:          0  ISSUED:          0  USEFUL:     252887  USELESS:    8513320
L2C USEFUL LOAD PREFETCHES:     252887 PREFETCH ISSUED TO LOWER LEVEL:    8766055  ACCURACY: 2.88484
L2C TIMELY PREFETCHES:     252887 LATE PREFETCHES: 0 DROPPED PREFETCHES: 0
L2C COMMIT LATE PREFETCHES: 0 NORMAL LATE: 0 MISSED OPPORTUNITY: 0 UNCOVERED: 7308857
L2C PREFETCHES SAME FILL-ORIGIN LEVEL: 0 DIFFERENT FILL-ORIGIN LEVEL: 0
L2C AVERAGE MISS LATENCY: 94.0227 cycles
L2C AVERAGE MISS LATENCY LOAD: 106.074 cycles
L2C AVERAGE MISS LATENCY PREFETCH: 147.333 cycles
L2C AVERAGE MSHR OCCUPANCY: 3.71037
L2C MSHR FULL: 0
L2C RQ	ACCESS:   10000980	FORWARD:          0	MERGED:          0	TO_CACHE:   10000917
L2C WQ	ACCESS:    9545166	FORWARD:         75	MERGED:          3	TO_CACHE:    9545163
L2C PQ	ACCESS:   10249469	FORWARD:          0	MERGED:          0	TO_CACHE:   10249457

L2C Instructions Evicting Data 0
L2C Translations Evicting Data 47886
L2C Data Evicting Data 10223528
L2C Instructions Evicting Instructions 0
L2C Translations Evicting Instructions 0
L2C Data Evicting Instructions 0
L2C Instructions Evicting Translations 0
L2C Translations Evicting Translations 196
L2C Data Evicting Translations 29713
L2C Dense regions hint from L2: 0
PSCL5 SPEC fills:          0  NON-SPEC fills:          0
PSCL5 Test counter :          0
PSCL5 Leapfrog:          0
PSCL5 MSHR merge:          0
PSCL5 TOTAL     ACCESS:          0  HIT:          0  MISS:          0  HIT %:       -nan  MISS %:       -nan   MPKI: 0
PSCL5 PREFETCH  REQUESTED:          0  ISSUED:          0  USEFUL:          0  USELESS:          0
PSCL5 USEFUL LOAD PREFETCHES:          0 PREFETCH ISSUED TO LOWER LEVEL:          0  ACCURACY: -nan
PSCL5 TIMELY PREFETCHES:          0 LATE PREFETCHES: 0 DROPPED PREFETCHES: 0
PSCL5 COMMIT LATE PREFETCHES: 0 NORMAL LATE: 0 MISSED OPPORTUNITY: 0 UNCOVERED: 0
PSCL5 PREFETCHES SAME FILL-ORIGIN LEVEL: 0 DIFFERENT FILL-ORIGIN LEVEL: 0

PSCL4 SPEC fills:          0  NON-SPEC fills:          0
PSCL4 Test counter :          0
PSCL4 Leapfrog:          0
PSCL4 MSHR merge:          0
PSCL4 TOTAL     ACCESS:          0  HIT:          0  MISS:          0  HIT %:       -nan  MISS %:       -nan   MPKI: 0
PSCL4 PREFETCH  REQUESTED:          0  ISSUED:          0  USEFUL:          0  USELESS:          0
PSCL4 USEFUL LOAD PREFETCHES:          0 PREFETCH ISSUED TO LOWER LEVEL:          0  ACCURACY: -nan
PSCL4 TIMELY PREFETCHES:          0 LATE PREFETCHES: 0 DROPPED PREFETCHES: 0
PSCL4 COMMIT LATE PREFETCHES: 0 NORMAL LATE: 0 MISSED OPPORTUNITY: 0 UNCOVERED: 0
PSCL4 PREFETCHES SAME FILL-ORIGIN LEVEL: 0 DIFFERENT FILL-ORIGIN LEVEL: 0

PSCL3 SPEC fills:          0  NON-SPEC fills:          0
PSCL3 Test counter :          0
PSCL3 Leapfrog:          0
PSCL3 MSHR merge:          0
PSCL3 TOTAL     ACCESS:          0  HIT:          0  MISS:          0  HIT %:       -nan  MISS %:       -nan   MPKI: 0
PSCL3 PREFETCH  REQUESTED:          0  ISSUED:          0  USEFUL:          0  USELESS:          0
PSCL3 USEFUL LOAD PREFETCHES:          0 PREFETCH ISSUED TO LOWER LEVEL:          0  ACCURACY: -nan
PSCL3 TIMELY PREFETCHES:          0 LATE PREFETCHES: 0 DROPPED PREFETCHES: 0
PSCL3 COMMIT LATE PREFETCHES: 0 NORMAL LATE: 0 MISSED OPPORTUNITY: 0 UNCOVERED: 0
PSCL3 PREFETCHES SAME FILL-ORIGIN LEVEL: 0 DIFFERENT FILL-ORIGIN LEVEL: 0

PSCL2 SPEC fills:          0  NON-SPEC fills:          0
PSCL2 Test counter :          0
PSCL2 Leapfrog:          0
PSCL2 MSHR merge:          0
PSCL2 TOTAL     ACCESS:          0  HIT:          0  MISS:          0  HIT %:       -nan  MISS %:       -nan   MPKI: 0
PSCL2 PREFETCH  REQUESTED:          0  ISSUED:          0  USEFUL:          0  USELESS:          0
PSCL2 USEFUL LOAD PREFETCHES:          0 PREFETCH ISSUED TO LOWER LEVEL:          0  ACCURACY: -nan
PSCL2 TIMELY PREFETCHES:          0 LATE PREFETCHES: 0 DROPPED PREFETCHES: 0
PSCL2 COMMIT LATE PREFETCHES: 0 NORMAL LATE: 0 MISSED OPPORTUNITY: 0 UNCOVERED: 0
PSCL2 PREFETCHES SAME FILL-ORIGIN LEVEL: 0 DIFFERENT FILL-ORIGIN LEVEL: 0

LLC SPEC fills:          0  NON-SPEC fills:     508470
LLC Test counter :          0
LLC Leapfrog:          0
LLC MSHR merge:          0
LLC TOTAL     ACCESS:   24517591  HIT:   13070105  MISS:   11447486  HIT %:    53.3091  MISS %:    46.6909   MPKI: 57.2374
LLC LOAD      TOTAL       ACCESS:    7308806  HIT:    4093110  MISS:    3215696  HIT %:    56.0024  MISS %:    43.9976   MPKI: 16.0785
LLC LOAD      NON_SPEC    ACCESS:    1174415  HIT:     665945  MISS:     508470  HIT %:    56.7044  MISS %:    43.2956   MPKI: 2.54235
LLC LOAD      SPEC        ACCESS:    6134391  HIT:    3427165  MISS:    2707226  HIT %:    55.8681  MISS %:    44.1319   MPKI: 13.5361
LLC RFO       NON_SPEC    ACCESS:     224953  HIT:     107756  MISS:     117197  HIT %:    47.9016  MISS %:    52.0984   MPKI: 0.585985
LLC PREFETCH  NON_SPEC    ACCESS:    8766038  HIT:    3862355  MISS:    4903683  HIT %:    44.0604  MISS %:    55.9396   MPKI: 24.5184
LLC WRITEBACK NON_SPEC    ACCESS:     372064  HIT:     362542  MISS:       9522  HIT %:    97.4408  MISS %:    2.55924   MPKI: 0.04761
LLC CLEAN_EVICTION NON_SPEC    ACCESS:    7709841  HIT:    4571918  MISS:    3137923  HIT %:    59.2998  MISS %:    40.7002   MPKI: 15.6896
LLC COMMIT LOAD NON_SPEC    ACCESS:      87807  HIT:      63969  MISS:      23838  HIT %:    72.8518  MISS %:    27.1482   MPKI: 0.11919
LLC LOAD TRANSLATION NON_SPEC    ACCESS:      48082  HIT:       8455  MISS:      39627  HIT %:    17.5845  MISS %:    82.4155   MPKI: 0.198135
LLC PREFETCH  REQUESTED:          0  ISSUED:          0  USEFUL:     620721  USELESS:    4283103
LLC USEFUL LOAD PREFETCHES:     620721 PREFETCH ISSUED TO LOWER LEVEL:    4903684  ACCURACY: 12.6583
LLC TIMELY PREFETCHES:     620721 LATE PREFETCHES: 0 DROPPED PREFETCHES: 0
LLC COMMIT LATE PREFETCHES: 0 NORMAL LATE: 0 MISSED OPPORTUNITY: 0 UNCOVERED: 3215696
LLC PREFETCHES SAME FILL-ORIGIN LEVEL: 0 DIFFERENT FILL-ORIGIN LEVEL: 0
LLC AVERAGE MISS LATENCY: 147.071 cycles
LLC AVERAGE MISS LATENCY LOAD: 189.848 cycles
LLC AVERAGE MISS LATENCY PREFETCH: 209.55 cycles
LLC AVERAGE MSHR OCCUPANCY: 2.68782
LLC MSHR FULL: 0
LLC RQ	ACCESS:    7669709	FORWARD:          0	MERGED:          0	TO_CACHE:    7669649
LLC WQ	ACCESS:    8081906	FORWARD:         76	MERGED:          0	TO_CACHE:    8081906
LLC PQ	ACCESS:    8766055	FORWARD:          0	MERGED:          0	TO_CACHE:    8766039

LLC Dense regions hint to LLC: 0

RAW hits: 66720
Loads Generated: 76805717
Loads sent to L1D: 76738997
Stores Generated: 2216772
Stores sent to L1D: 2216772
Major fault: 0 Minor fault: 37080
Allocated PAGES: 37080
Total Load insts: 93559797
Total Non-spec loads: 6272651
Percentage of speculative loads: 93.2956

LeapFrogging counter: 374299
Commit hits: 24166312 miss: 47352936
Commit hit %: 33.7899 miss %: 66.2101
Commits not translated: 0
Loads retired: 9185125
Stores retired: 2216772
Cache fills: 9185127
L1D response latency: 98.8047 cycles
Load retirement latency: 194.219 cycles
OOO test counter: 0
Discarded buffer inserts: 24166312 hits: 19862 hit %: 0.0821888
Filter prediction accuracy: -nan

stream: 
stream:times selected: 15469249
stream:pref_filled: 10122443
stream:pref_useful: 290584
stream:pref_late: 20091
stream:misses: 2262160
stream:misses_by_poll: 0

CS: 
CS:times selected: 2923844
CS:pref_filled: 1529164
CS:pref_useful: 1392603
CS:pref_late: 3126
CS:misses: 172958
CS:misses_by_poll: 16277

CPLX: 
CPLX:times selected: 12466211
CPLX:pref_filled: 378225
CPLX:pref_useful: 15470
CPLX:pref_late: 732
CPLX:misses: 8390567
CPLX:misses_by_poll: 34490

NL_L1: 
NL:times selected: 77761
NL:pref_filled: 58340
NL:pref_useful: 2031
NL:pref_late: 36
NL:misses: 60435
NL:misses_by_poll: 5054

total selections: 30937065
total_filled: 10095309
total_useful: 1320733
total_late: 25328
total_polluted: 55821
total_misses_after_warmup: 9185921
conflicts: 98
Degree Incremented Times: 149912
Degree Decremented Times: 459262

L1 IP Table Write Accesses: 31631614
L1 IP Table Read Accesses: 31631516
L1 RST Write Accesses: 12540930
L1 RST Read Accesses: 25081860
L1 CSPT Write Accesses: 12540930
L1 CSPT Read Accesses: 22608369
L1 RR Filter Tag Write Accesses: 11172326
L1 RR Filter Tag Read Accesses: 525734892
L1 IP Table Tag Write Accesses: 31632548
L1 IP Table Tag Read Accesses: 31632548
L1 RST Tag Write Accesses: 0
L1 RST Tag Read Accesses: 112123082
L1 RR Filter Write Accesses: 0
L1 RR Filter Read Accesses: 19926167
test: 5365018

DRAM Statistics
 CHANNEL 0
 RQ ROW_BUFFER_HIT:    1774536  ROW_BUFFER_MISS:    6520705
 DBUS_CONGESTED:       1687
 WQ ROW_BUFFER_HIT:    1746645  ROW_BUFFER_MISS:    3449032  FULL:        101

 AVG_CONGESTED_CYCLE: 5
 All warmup complete: 2
Channel 0 Bank busy for read cycles: 0
Channel 0 Bank busy for write cycles: 0
Channel 0
Rank 0
0banks busy for read cycles: 2188614
0banks busy for write cycles: 914
1banks busy for read cycles: 97167170
1banks busy for write cycles: 1324592
2banks busy for read cycles: 83096657
2banks busy for write cycles: 1326956
3banks busy for read cycles: 65609378
3banks busy for write cycles: 1423635
4banks busy for read cycles: 55236327
4banks busy for write cycles: 1737574
5banks busy for read cycles: 38219571
5banks busy for write cycles: 2901948
6banks busy for read cycles: 20973802
6banks busy for write cycles: 8778291
7banks busy for read cycles: 8126759
7banks busy for write cycles: 38197541
8banks busy for read cycles: 3019076
8banks busy for write cycles: 110383328

CPU 0 Branch Prediction Accuracy: 97.7909% MPKI: 3.2859 Average ROB Occupancy at Mispredict: 163.523
Branch types
NOT_BRANCH: 170250761 85.1254%
BRANCH_DIRECT_JUMP: 9225403 4.6127%
BRANCH_INDIRECT: 0 0%
BRANCH_CONDITIONAL: 20520883 10.2604%
BRANCH_DIRECT_CALL: 1314 0.000657%
BRANCH_INDIRECT_CALL: 0 0%
BRANCH_RETURN: 1314 0.000657%
BRANCH_OTHER: 0 0%

DRAM PAGES: 1048576
Allocated PAGES: 37080
