Initialize SIGNATURE TABLE
ST_SET: 1
ST_WAY: 256
ST_TAG_BIT: 16
ST_TAG_MASK: ffff

Initialize PATTERN TABLE
PT_SET: 512
PT_WAY: 4
SIG_DELTA_BIT: 7
C_SIG_BIT: 4
C_DELTA_BIT: 4

Initialize PREFETCH FILTER
FILTER_SET: 1024

Initialize PERCEPTRON
PERC_ENTRIES: 4096
PERC_FEATURES: 9

*** ChampSim Multicore Out-of-Order Simulator ***

Warmup Instructions: 50000000
Simulation Instructions: 200000000
Number of CPUs: 1
LLC sets: 2048
LLC ways: 16
L0D sets: 16
L0D ways: 2
ROB size: 352
LQ size: 128
SQ size: 72
Secure Berti: OFF
Berti: OFF
Berti Fill: OFF
On commit prefetching: ON
Hit-based filter: ON
Time-guarding: ON
Free-slotting: ON
Leap-frogging: ON
Train prefetcher on L0D bypass: OFF
No translation penalty for prefetchers: OFF
Prefetch to L0D only: OFF
Prefetch to L1D only: OFF
Clean evictions: ON
Commit loads: ON
Commit write: ON
Fill commit loads to L2C, LLC: ON
DRAM IO FREQUENCY: 6400
ROB SIZE: 352
Off-chip DRAM Size: 4096 MB Channels: 1 Width: 64-bit Data Rate: 6400 MT/s
CPU 0 runs /home/sumon/secure_berti/GhostMinion/../../traces/gap/bc-3.trace.gz
.gz
BTB has LRU replacement policy
ITLB has LRU replacement policy
DTLB has LRU replacement policy
STLB has LRU replacement policy
L1I has LRU replacement policy
L0D has LRU replacement policy
L1D has LRU replacement policy
PERC_ENTRIES: 4096
L2C has LRU replacement policy
LLC has LRU replacement policy
Heartbeat CPU 0 instructions: 10000002 cycles: 3750367 heartbeat IPC: 2.66641 cumulative IPC: 2.66641 (Simulation time: 0 hr 0 min 36 sec) 
Heartbeat CPU 0 instructions: 20000000 cycles: 7054772 heartbeat IPC: 3.02626 cumulative IPC: 2.83496 (Simulation time: 0 hr 1 min 12 sec) 
Heartbeat CPU 0 instructions: 30000002 cycles: 10410359 heartbeat IPC: 2.98011 cumulative IPC: 2.88175 (Simulation time: 0 hr 1 min 47 sec) 
Heartbeat CPU 0 instructions: 40000003 cycles: 13767680 heartbeat IPC: 2.97857 cumulative IPC: 2.90536 (Simulation time: 0 hr 2 min 22 sec) 
Heartbeat CPU 0 instructions: 50000003 cycles: 17127851 heartbeat IPC: 2.97604 cumulative IPC: 2.91922 (Simulation time: 0 hr 2 min 56 sec) 

Warmup complete CPU 0 instructions: 50000003 cycles: 17127851 (Simulation time: 0 hr 2 min 56 sec) 

Heartbeat CPU 0 instructions: 60000001 cycles: 73681361 heartbeat IPC: 0.176824 cumulative IPC: 0.176824 (Simulation time: 0 hr 3 min 51 sec) 
Heartbeat CPU 0 instructions: 70000000 cycles: 130117767 heartbeat IPC: 0.177191 cumulative IPC: 0.177007 (Simulation time: 0 hr 4 min 46 sec) 
Heartbeat CPU 0 instructions: 80000000 cycles: 187040192 heartbeat IPC: 0.175678 cumulative IPC: 0.176562 (Simulation time: 0 hr 5 min 41 sec) 
Heartbeat CPU 0 instructions: 90000002 cycles: 243731526 heartbeat IPC: 0.176394 cumulative IPC: 0.17652 (Simulation time: 0 hr 6 min 36 sec) 
Heartbeat CPU 0 instructions: 100000003 cycles: 299933114 heartbeat IPC: 0.177931 cumulative IPC: 0.1768 (Simulation time: 0 hr 7 min 31 sec) 
Heartbeat CPU 0 instructions: 110000000 cycles: 356612894 heartbeat IPC: 0.17643 cumulative IPC: 0.176738 (Simulation time: 0 hr 8 min 25 sec) 
Heartbeat CPU 0 instructions: 120000000 cycles: 411279710 heartbeat IPC: 0.182926 cumulative IPC: 0.177597 (Simulation time: 0 hr 9 min 19 sec) 
Heartbeat CPU 0 instructions: 130000003 cycles: 467749560 heartbeat IPC: 0.177086 cumulative IPC: 0.177533 (Simulation time: 0 hr 10 min 13 sec) 
Heartbeat CPU 0 instructions: 140000001 cycles: 524049636 heartbeat IPC: 0.17762 cumulative IPC: 0.177542 (Simulation time: 0 hr 11 min 8 sec) 
Heartbeat CPU 0 instructions: 150000001 cycles: 580866908 heartbeat IPC: 0.176003 cumulative IPC: 0.177387 (Simulation time: 0 hr 12 min 3 sec) 
Heartbeat CPU 0 instructions: 160000001 cycles: 634906042 heartbeat IPC: 0.185051 cumulative IPC: 0.178057 (Simulation time: 0 hr 12 min 56 sec) 
Heartbeat CPU 0 instructions: 170000000 cycles: 688124428 heartbeat IPC: 0.187905 cumulative IPC: 0.178838 (Simulation time: 0 hr 13 min 49 sec) 
Heartbeat CPU 0 instructions: 180000000 cycles: 739518813 heartbeat IPC: 0.194574 cumulative IPC: 0.179958 (Simulation time: 0 hr 14 min 41 sec) 
Heartbeat CPU 0 instructions: 190000001 cycles: 791016450 heartbeat IPC: 0.194184 cumulative IPC: 0.180905 (Simulation time: 0 hr 15 min 34 sec) 
Heartbeat CPU 0 instructions: 200000000 cycles: 843291519 heartbeat IPC: 0.191296 cumulative IPC: 0.181562 (Simulation time: 0 hr 16 min 27 sec) 
Heartbeat CPU 0 instructions: 210000000 cycles: 894263641 heartbeat IPC: 0.196186 cumulative IPC: 0.182412 (Simulation time: 0 hr 17 min 19 sec) 
Heartbeat CPU 0 instructions: 220000000 cycles: 945945243 heartbeat IPC: 0.193492 cumulative IPC: 0.183028 (Simulation time: 0 hr 18 min 11 sec) 
Heartbeat CPU 0 instructions: 230000000 cycles: 997930766 heartbeat IPC: 0.192361 cumulative IPC: 0.183523 (Simulation time: 0 hr 19 min 3 sec) 
Heartbeat CPU 0 instructions: 240000000 cycles: 1049677506 heartbeat IPC: 0.193249 cumulative IPC: 0.184011 (Simulation time: 0 hr 19 min 53 sec) 
Heartbeat CPU 0 instructions: 250000003 cycles: 1100450272 heartbeat IPC: 0.196956 cumulative IPC: 0.184617 (Simulation time: 0 hr 20 min 43 sec) 
Finished CPU 0 instructions: 200000000 cycles: 1083322421 cumulative IPC: 0.184617 (Simulation time: 0 hr 20 min 43 sec) 
 Instruction ID: 250000107

ChampSim completed all CPUs

Region of Interest Statistics

CPU 0 cumulative IPC: 0.184617 instructions: 200000000 cycles: 1083322421
ITLB SPEC fills:          0  NON-SPEC fills:          0
ITLB Test counter :          0
ITLB Leapfrog:          0
ITLB MSHR merge:          0
ITLB TOTAL     ACCESS:   42182594  HIT:   42182594  MISS:          0  HIT %:        100  MISS %:          0   MPKI: 0
ITLB LOAD TRANSLATION NON_SPEC    ACCESS:   42182594  HIT:   42182594  MISS:          0  HIT %:        100  MISS %:          0   MPKI: 0
ITLB PREFETCH  REQUESTED:          0  ISSUED:          0  USEFUL:          0  USELESS:          0
ITLB USEFUL LOAD PREFETCHES:          0 PREFETCH ISSUED TO LOWER LEVEL:          0  ACCURACY: -nan
ITLB TIMELY PREFETCHES:          0 LATE PREFETCHES: 0 DROPPED PREFETCHES: 0
ITLB COMMIT LATE PREFETCHES: 0 MISSED OPPORTUNITY: 0 LATE IN PQ: 0 UNCOVERED: 0
ITLB COMMIT LATE MSHR PREFETCHES: 0
ITLB MPKI TOTAL: 0 MSHR LATE: 0 PQ LATE: 0 COMMIT LATE: 0 MISSED OPPORTUNITY: 0 UNCOVERED: 0
ITLB PREFETCHES SAME FILL-ORIGIN LEVEL: 0 DIFFERENT FILL-ORIGIN LEVEL: 0
ITLB AVERAGE MISS LATENCY: -nan cycles
ITLB AVERAGE MISS LATENCY LOAD: -nan cycles
ITLB AVERAGE MISS LATENCY PREFETCH: -nan cycles
ITLB AVERAGE MSHR OCCUPANCY: 0
ITLB MSHR FULL: 0
ITLB RQ	ACCESS:   42461218	FORWARD:          0	MERGED:     278625	TO_CACHE:   42182593

DTLB SPEC fills:          0  NON-SPEC fills:          0
DTLB Test counter :          0
DTLB Leapfrog:          0
DTLB MSHR merge:          0
DTLB TOTAL     ACCESS:   48435249  HIT:   38078742  MISS:   10356507  HIT %:    78.6178  MISS %:    21.3822   MPKI: 51.7825
DTLB LOAD TRANSLATION NON_SPEC    ACCESS:   48435249  HIT:   38078742  MISS:   10356507  HIT %:    78.6178  MISS %:    21.3822   MPKI: 51.7825
DTLB PREFETCH  REQUESTED:          0  ISSUED:          0  USEFUL:          0  USELESS:          0
DTLB USEFUL LOAD PREFETCHES:          0 PREFETCH ISSUED TO LOWER LEVEL:          0  ACCURACY: -nan
DTLB TIMELY PREFETCHES:          0 LATE PREFETCHES: 0 DROPPED PREFETCHES: 0
DTLB COMMIT LATE PREFETCHES: 0 MISSED OPPORTUNITY: 0 LATE IN PQ: 0 UNCOVERED: 0
DTLB COMMIT LATE MSHR PREFETCHES: 0
DTLB MPKI TOTAL: 0 MSHR LATE: 0 PQ LATE: 0 COMMIT LATE: 0 MISSED OPPORTUNITY: 0 UNCOVERED: 0
DTLB PREFETCHES SAME FILL-ORIGIN LEVEL: 0 DIFFERENT FILL-ORIGIN LEVEL: 0
DTLB AVERAGE MISS LATENCY: 25.9575 cycles
DTLB AVERAGE MISS LATENCY LOAD: -nan cycles
DTLB AVERAGE MISS LATENCY PREFETCH: -nan cycles
DTLB AVERAGE MSHR OCCUPANCY: 0.458926
DTLB MSHR FULL: 0.00363445
DTLB RQ	ACCESS:   52977246	FORWARD:          0	MERGED:    3902894	TO_CACHE:   49074352

STLB SPEC fills:          0  NON-SPEC fills:          0
STLB Test counter :          0
STLB Leapfrog:          0
STLB MSHR merge:          0
STLB TOTAL     ACCESS:   10356506  HIT:    8187893  MISS:    2168613  HIT %:    79.0604  MISS %:    20.9396   MPKI: 10.8431
STLB LOAD TRANSLATION NON_SPEC    ACCESS:   10356506  HIT:    8187893  MISS:    2168613  HIT %:    79.0604  MISS %:    20.9396   MPKI: 10.8431
STLB PREFETCH  REQUESTED:          0  ISSUED:          0  USEFUL:          0  USELESS:          0
STLB USEFUL LOAD PREFETCHES:          0 PREFETCH ISSUED TO LOWER LEVEL:          0  ACCURACY: -nan
STLB TIMELY PREFETCHES:          0 LATE PREFETCHES: 0 DROPPED PREFETCHES: 0
STLB COMMIT LATE PREFETCHES: 0 MISSED OPPORTUNITY: 0 LATE IN PQ: 0 UNCOVERED: 0
STLB COMMIT LATE MSHR PREFETCHES: 0
STLB MPKI TOTAL: 0 MSHR LATE: 0 PQ LATE: 0 COMMIT LATE: 0 MISSED OPPORTUNITY: 0 UNCOVERED: 0
STLB PREFETCHES SAME FILL-ORIGIN LEVEL: 0 DIFFERENT FILL-ORIGIN LEVEL: 0
STLB AVERAGE MISS LATENCY: 80.4391 cycles
STLB AVERAGE MISS LATENCY LOAD: -nan cycles
STLB AVERAGE MISS LATENCY PREFETCH: -nan cycles
STLB AVERAGE MSHR OCCUPANCY: 0.299055
STLB MSHR FULL: 0
STLB RQ	ACCESS:   10356506	FORWARD:          0	MERGED:          0	TO_CACHE:   10356506

STLB Hit, L1D data hit: 0
STLB Hit, L2C data hit: 0
STLB Hit, LLC data hit: 0
STLB Hit, LLC data miss: 0
STLB STLB hints to L2: 0
L0D SPEC fills:   28867246  NON-SPEC fills:          0
L0D TimeGuard Request with older TS:     325411 Restricted eviction:     373032 read:          8
L0D Test counter :          0
L0D Leapfrog:          0
L0D MSHR merge:     728421
L0D TOTAL     ACCESS:   45620320  HIT:   11709044  MISS:   33911276  HIT %:    25.6663  MISS %:    74.3337   MPKI: 169.556
L0D LOAD      TOTAL       ACCESS:   45620320  HIT:   11709044  MISS:   33911276  HIT %:    25.6663  MISS %:    74.3337   MPKI: 169.556
L0D LOAD      NON_SPEC    ACCESS:    4672650  HIT:       1490  MISS:    4671160  HIT %:  0.0318877  MISS %:    99.9681   MPKI: 23.3558
L0D LOAD      SPEC        ACCESS:   40947670  HIT:   11707554  MISS:   29240116  HIT %:    28.5915  MISS %:    71.4085   MPKI: 146.201
L0D PREFETCH  REQUESTED:          0  ISSUED:          0  USEFUL:          0  USELESS:          0
L0D USEFUL LOAD PREFETCHES:          0 PREFETCH ISSUED TO LOWER LEVEL:          0  ACCURACY: -nan
L0D TIMELY PREFETCHES:          0 LATE PREFETCHES: 0 DROPPED PREFETCHES: 0
L0D COMMIT LATE PREFETCHES: 0 MISSED OPPORTUNITY: 0 LATE IN PQ: 0 UNCOVERED: 0
L0D COMMIT LATE MSHR PREFETCHES: 0
L0D MPKI TOTAL: 173.198 MSHR LATE: 0 PQ LATE: 0 COMMIT LATE: 0 MISSED OPPORTUNITY: 0 UNCOVERED: 0
L0D PREFETCHES SAME FILL-ORIGIN LEVEL: 0 DIFFERENT FILL-ORIGIN LEVEL: 0
L0D AVERAGE MISS LATENCY: 59.6119 cycles
L0D AVERAGE MISS LATENCY LOAD: 59.6119 cycles
L0D AVERAGE MISS LATENCY PREFETCH: -nan cycles
L0D AVERAGE MSHR OCCUPANCY: 1.89068
L0D MSHR FULL: 0.0666767
L0D RQ	ACCESS:   47846474	FORWARD:          0	MERGED:    1497736	TO_CACHE:   46348738
L0D WQ	ACCESS:    6628508	FORWARD:          0	MERGED:          0	TO_CACHE:    6628508

L1D SPEC fills:          0  NON-SPEC fills:     736259
L1D Test counter :          0
L1D Leapfrog:          0
L1D MSHR merge:       9335
L1D TOTAL     ACCESS:   55579890  HIT:   20494120  MISS:   35085770  HIT %:    36.8733  MISS %:    63.1267   MPKI: 175.429
L1D LOAD      TOTAL       ACCESS:   33901941  HIT:   15981355  MISS:   17920586  HIT %:    47.1399  MISS %:    52.8601   MPKI: 89.6029
L1D LOAD      NON_SPEC    ACCESS:    4669584  HIT:    3933325  MISS:     736259  HIT %:    84.2329  MISS %:    15.7671   MPKI: 3.68129
L1D LOAD      SPEC        ACCESS:   29232357  HIT:   12048030  MISS:   17184327  HIT %:    41.2147  MISS %:    58.7853   MPKI: 85.9216
L1D RFO       NON_SPEC    ACCESS:    3638688  HIT:    3609081  MISS:      29607  HIT %:    99.1863  MISS %:   0.813672   MPKI: 0.148035
L1D COMMIT LOAD NON_SPEC    ACCESS:    1212845  HIT:     862647  MISS:     350198  HIT %:    71.1259  MISS %:    28.8741   MPKI: 1.75099
L1D COMMIT WRITE NON_SPEC    ACCESS:   16826416  HIT:      41037  MISS:   16785379  HIT %:   0.243884  MISS %:    99.7561   MPKI: 83.9269
L1D PREFETCH  REQUESTED:          0  ISSUED:          0  USEFUL:          0  USELESS:          0
L1D USEFUL LOAD PREFETCHES:          0 PREFETCH ISSUED TO LOWER LEVEL:          0  ACCURACY: -nan
L1D TIMELY PREFETCHES:          0 LATE PREFETCHES: 0 DROPPED PREFETCHES: 0
L1D COMMIT LATE PREFETCHES: 0 MISSED OPPORTUNITY: 0 LATE IN PQ: 0 UNCOVERED: 0
L1D COMMIT LATE MSHR PREFETCHES: 0
L1D MPKI TOTAL: 89.6496 MSHR LATE: 0 PQ LATE: 0 COMMIT LATE: 0 MISSED OPPORTUNITY: 0 UNCOVERED: 0
L1D PREFETCHES SAME FILL-ORIGIN LEVEL: 0 DIFFERENT FILL-ORIGIN LEVEL: 0
L1D AVERAGE MISS LATENCY: 53.5796 cycles
L1D AVERAGE MISS LATENCY LOAD: 103.136 cycles
L1D AVERAGE MISS LATENCY PREFETCH: -nan cycles
L1D AVERAGE MSHR OCCUPANCY: 1.4365
L1D MSHR FULL: 0.0197741
L1D RQ	ACCESS:   35417332	FORWARD:          0	MERGED:     282076	TO_CACHE:   35135124
L1D WQ	ACCESS:   23454928	FORWARD:        132	MERGED:    2937251	TO_CACHE:   20517677

L1D UNIQUE REGIONS ACCESSED: 0
L1D REGIONS CONFLICTS: 0
L1D Cross Page Prefetch Requests: 0
L1D Same Page Prefetch Requests: 0
L1D ROI Sum of L1D PQ occupancy: 0
L1D PREFETCHES PUSHED FROM L2C: 0
L1I SPEC fills:          0  NON-SPEC fills:          0
L1I Test counter :          0
L1I Leapfrog:          0
L1I MSHR merge:          0
L1I TOTAL     ACCESS:   42461217  HIT:   42461217  MISS:          0  HIT %:        100  MISS %:          0   MPKI: 0
L1I LOAD      TOTAL       ACCESS:   42461217  HIT:   42461217  MISS:          0  HIT %:        100  MISS %:          0   MPKI: 0
L1I LOAD      NON_SPEC    ACCESS:   42461217  HIT:   42461217  MISS:          0  HIT %:        100  MISS %:          0   MPKI: 0
L1I PREFETCH  REQUESTED:          0  ISSUED:          0  USEFUL:          0  USELESS:          0
L1I USEFUL LOAD PREFETCHES:          0 PREFETCH ISSUED TO LOWER LEVEL:          0  ACCURACY: -nan
L1I TIMELY PREFETCHES:          0 LATE PREFETCHES: 0 DROPPED PREFETCHES: 0
L1I COMMIT LATE PREFETCHES: 0 MISSED OPPORTUNITY: 0 LATE IN PQ: 0 UNCOVERED: 0
L1I COMMIT LATE MSHR PREFETCHES: 0
L1I MPKI TOTAL: 0 MSHR LATE: 0 PQ LATE: 0 COMMIT LATE: 0 MISSED OPPORTUNITY: 0 UNCOVERED: 0
L1I PREFETCHES SAME FILL-ORIGIN LEVEL: 0 DIFFERENT FILL-ORIGIN LEVEL: 0
L1I AVERAGE MISS LATENCY: -nan cycles
L1I AVERAGE MISS LATENCY LOAD: -nan cycles
L1I AVERAGE MISS LATENCY PREFETCH: -nan cycles
L1I AVERAGE MSHR OCCUPANCY: 0
L1I MSHR FULL: 0
L1I RQ	ACCESS:   56789621	FORWARD:          0	MERGED:   14328403	TO_CACHE:   42461218

BTB SPEC fills:          0  NON-SPEC fills:          0
BTB Test counter :          0
BTB Leapfrog:          0
BTB MSHR merge:          0
BTB TOTAL     ACCESS:   43358665  HIT:   43358651  MISS:         14  HIT %:        100  MISS %: 3.22888e-05   MPKI: 7e-05
BTB BRANCH_DIRECT_JUMP	ACCESS:     271551  HIT:     271547  MISS:          4
BTB BRANCH_INDIRECT	ACCESS:          0  HIT:          0  MISS:          0
BTB BRANCH_CONDITIONAL	ACCESS:   43087086  HIT:   43087078  MISS:          8
BTB BRANCH_DIRECT_CALL	ACCESS:         14  HIT:         13  MISS:          1
BTB BRANCH_INDIRECT_CALL	ACCESS:          0  HIT:          0  MISS:          0
BTB BRANCH_RETURN	ACCESS:         14  HIT:         13  MISS:          1
BTB BRANCH_OTHER ACCESS:          0  HIT:          0  MISS:          0

L2C SPEC fills:          0  NON-SPEC fills:     568627
L2C Test counter :          0
L2C Leapfrog:          0
L2C MSHR merge:      50424
L2C TOTAL     ACCESS:   46189128  HIT:   16669721  MISS:   29519407  HIT %:    36.0901  MISS %:    63.9099   MPKI: 147.597
L2C LOAD      TOTAL       ACCESS:   17920487  HIT:    4114403  MISS:   13806084  HIT %:    22.9592  MISS %:    77.0408   MPKI: 69.0304
L2C LOAD      NON_SPEC    ACCESS:     736258  HIT:     167631  MISS:     568627  HIT %:     22.768  MISS %:     77.232   MPKI: 2.84314
L2C LOAD      SPEC        ACCESS:   17184229  HIT:    3946772  MISS:   13237457  HIT %:    22.9674  MISS %:    77.0326   MPKI: 66.1873
L2C RFO       NON_SPEC    ACCESS:      29590  HIT:        864  MISS:      28726  HIT %:    2.91991  MISS %:    97.0801   MPKI: 0.14363
L2C PREFETCH  NON_SPEC    ACCESS:    3731538  HIT:    1327584  MISS:    2403954  HIT %:    35.5774  MISS %:    64.4226   MPKI: 12.0198
L2C WRITEBACK NON_SPEC    ACCESS:     236723  HIT:     236693  MISS:         30  HIT %:    99.9873  MISS %:   0.012673   MPKI: 0.00015
L2C CLEAN_EVICTION NON_SPEC    ACCESS:   13077527  HIT:     146303  MISS:   12931224  HIT %:    1.11874  MISS %:    98.8813   MPKI: 64.6561
L2C COMMIT LOAD NON_SPEC    ACCESS:     350198  HIT:     147326  MISS:     202872  HIT %:    42.0693  MISS %:    57.9307   MPKI: 1.01436
L2C LOAD TRANSLATION NON_SPEC    ACCESS:   10843065  HIT:   10696548  MISS:     146517  HIT %:    98.6487  MISS %:    1.35125   MPKI: 0.732585
L2C PREFETCH  REQUESTED:    6932749  ISSUED:    6932737  USEFUL:     991858  USELESS:    1412338
L2C USEFUL LOAD PREFETCHES:     991858 PREFETCH ISSUED TO LOWER LEVEL:    5447798  ACCURACY: 18.2066
L2C TIMELY PREFETCHES:     991858 LATE PREFETCHES: 53362 DROPPED PREFETCHES: 0
L2C COMMIT LATE PREFETCHES: 0 MISSED OPPORTUNITY: 0 LATE IN PQ: 0 UNCOVERED: 0
L2C COMMIT LATE MSHR PREFETCHES: 0
L2C MPKI TOTAL: 69.0304 MSHR LATE: 0.26681 PQ LATE: 0 COMMIT LATE: 0 MISSED OPPORTUNITY: 0 UNCOVERED: 0
L2C PREFETCHES SAME FILL-ORIGIN LEVEL: 2457317 DIFFERENT FILL-ORIGIN LEVEL: 2990481
L2C AVERAGE MISS LATENCY: 75.0437 cycles
L2C AVERAGE MISS LATENCY LOAD: 119.223 cycles
L2C AVERAGE MISS LATENCY PREFETCH: 219.77 cycles
L2C AVERAGE MSHR OCCUPANCY: 1.87167
L2C MSHR FULL: 0
L2C RQ	ACCESS:   29143455	FORWARD:          0	MERGED:          0	TO_CACHE:   29143339
L2C WQ	ACCESS:   13314253	FORWARD:        125	MERGED:          0	TO_CACHE:   13314253
L2C PQ	ACCESS:    6932737	FORWARD:          0	MERGED:      93371	TO_CACHE:    6839357

L2C Instructions Evicting Data 0
L2C Translations Evicting Data 146203
L2C Data Evicting Data 3173168
L2C Instructions Evicting Instructions 0
L2C Translations Evicting Instructions 0
L2C Data Evicting Instructions 0
L2C Instructions Evicting Translations 0
L2C Translations Evicting Translations 314
L2C Data Evicting Translations 31011
L2C Dense regions hint from L2: 0
PSCL5 SPEC fills:          0  NON-SPEC fills:          0
PSCL5 Test counter :          0
PSCL5 Leapfrog:          0
PSCL5 MSHR merge:          0
PSCL5 TOTAL     ACCESS:          0  HIT:          0  MISS:          0  HIT %:       -nan  MISS %:       -nan   MPKI: 0
PSCL5 PREFETCH  REQUESTED:          0  ISSUED:          0  USEFUL:          0  USELESS:          0
PSCL5 USEFUL LOAD PREFETCHES:          0 PREFETCH ISSUED TO LOWER LEVEL:          0  ACCURACY: -nan
PSCL5 TIMELY PREFETCHES:          0 LATE PREFETCHES: 0 DROPPED PREFETCHES: 0
PSCL5 COMMIT LATE PREFETCHES: 0 MISSED OPPORTUNITY: 0 LATE IN PQ: 0 UNCOVERED: 0
PSCL5 COMMIT LATE MSHR PREFETCHES: 0
PSCL5 MPKI TOTAL: 0 MSHR LATE: 0 PQ LATE: 0 COMMIT LATE: 0 MISSED OPPORTUNITY: 0 UNCOVERED: 0
PSCL5 PREFETCHES SAME FILL-ORIGIN LEVEL: 0 DIFFERENT FILL-ORIGIN LEVEL: 0

PSCL4 SPEC fills:          0  NON-SPEC fills:          0
PSCL4 Test counter :          0
PSCL4 Leapfrog:          0
PSCL4 MSHR merge:          0
PSCL4 TOTAL     ACCESS:          0  HIT:          0  MISS:          0  HIT %:       -nan  MISS %:       -nan   MPKI: 0
PSCL4 PREFETCH  REQUESTED:          0  ISSUED:          0  USEFUL:          0  USELESS:          0
PSCL4 USEFUL LOAD PREFETCHES:          0 PREFETCH ISSUED TO LOWER LEVEL:          0  ACCURACY: -nan
PSCL4 TIMELY PREFETCHES:          0 LATE PREFETCHES: 0 DROPPED PREFETCHES: 0
PSCL4 COMMIT LATE PREFETCHES: 0 MISSED OPPORTUNITY: 0 LATE IN PQ: 0 UNCOVERED: 0
PSCL4 COMMIT LATE MSHR PREFETCHES: 0
PSCL4 MPKI TOTAL: 0 MSHR LATE: 0 PQ LATE: 0 COMMIT LATE: 0 MISSED OPPORTUNITY: 0 UNCOVERED: 0
PSCL4 PREFETCHES SAME FILL-ORIGIN LEVEL: 0 DIFFERENT FILL-ORIGIN LEVEL: 0

PSCL3 SPEC fills:          0  NON-SPEC fills:          0
PSCL3 Test counter :          0
PSCL3 Leapfrog:          0
PSCL3 MSHR merge:          0
PSCL3 TOTAL     ACCESS:          0  HIT:          0  MISS:          0  HIT %:       -nan  MISS %:       -nan   MPKI: 0
PSCL3 PREFETCH  REQUESTED:          0  ISSUED:          0  USEFUL:          0  USELESS:          0
PSCL3 USEFUL LOAD PREFETCHES:          0 PREFETCH ISSUED TO LOWER LEVEL:          0  ACCURACY: -nan
PSCL3 TIMELY PREFETCHES:          0 LATE PREFETCHES: 0 DROPPED PREFETCHES: 0
PSCL3 COMMIT LATE PREFETCHES: 0 MISSED OPPORTUNITY: 0 LATE IN PQ: 0 UNCOVERED: 0
PSCL3 COMMIT LATE MSHR PREFETCHES: 0
PSCL3 MPKI TOTAL: 0 MSHR LATE: 0 PQ LATE: 0 COMMIT LATE: 0 MISSED OPPORTUNITY: 0 UNCOVERED: 0
PSCL3 PREFETCHES SAME FILL-ORIGIN LEVEL: 0 DIFFERENT FILL-ORIGIN LEVEL: 0

PSCL2 SPEC fills:          0  NON-SPEC fills:          0
PSCL2 Test counter :          0
PSCL2 Leapfrog:          0
PSCL2 MSHR merge:          0
PSCL2 TOTAL     ACCESS:          0  HIT:          0  MISS:          0  HIT %:       -nan  MISS %:       -nan   MPKI: 0
PSCL2 PREFETCH  REQUESTED:          0  ISSUED:          0  USEFUL:          0  USELESS:          0
PSCL2 USEFUL LOAD PREFETCHES:          0 PREFETCH ISSUED TO LOWER LEVEL:          0  ACCURACY: -nan
PSCL2 TIMELY PREFETCHES:          0 LATE PREFETCHES: 0 DROPPED PREFETCHES: 0
PSCL2 COMMIT LATE PREFETCHES: 0 MISSED OPPORTUNITY: 0 LATE IN PQ: 0 UNCOVERED: 0
PSCL2 COMMIT LATE MSHR PREFETCHES: 0
PSCL2 MPKI TOTAL: 0 MSHR LATE: 0 PQ LATE: 0 COMMIT LATE: 0 MISSED OPPORTUNITY: 0 UNCOVERED: 0
PSCL2 PREFETCHES SAME FILL-ORIGIN LEVEL: 0 DIFFERENT FILL-ORIGIN LEVEL: 0

LLC SPEC fills:          0  NON-SPEC fills:     334686
LLC Test counter :          0
LLC Leapfrog:          0
LLC MSHR merge:      17645
LLC TOTAL     ACCESS:   32834475  HIT:   14043352  MISS:   18791123  HIT %:    42.7701  MISS %:    57.2299   MPKI: 93.9556
LLC LOAD      TOTAL       ACCESS:   13755580  HIT:    6401534  MISS:    7354046  HIT %:    46.5377  MISS %:    53.4623   MPKI: 36.7702
LLC LOAD      NON_SPEC    ACCESS:     564600  HIT:     229914  MISS:     334686  HIT %:    40.7216  MISS %:    59.2784   MPKI: 1.67343
LLC LOAD      SPEC        ACCESS:   13190980  HIT:    6171620  MISS:    7019360  HIT %:    46.7867  MISS %:    53.2133   MPKI: 35.0968
LLC RFO       NON_SPEC    ACCESS:      28726  HIT:        529  MISS:      28197  HIT %:    1.84154  MISS %:    98.1585   MPKI: 0.140985
LLC PREFETCH  NON_SPEC    ACCESS:    5407592  HIT:    1851009  MISS:    3556583  HIT %:    34.2298  MISS %:    65.7702   MPKI: 17.7829
LLC WRITEBACK NON_SPEC    ACCESS:     230232  HIT:     230226  MISS:          6  HIT %:    99.9974  MISS %: 0.00260607   MPKI: 3e-05
LLC CLEAN_EVICTION NON_SPEC    ACCESS:   13066005  HIT:    5292746  MISS:    7773259  HIT %:    40.5078  MISS %:    59.4922   MPKI: 38.8663
LLC COMMIT LOAD NON_SPEC    ACCESS:     199823  HIT:     170322  MISS:      29501  HIT %:    85.2364  MISS %:    14.7636   MPKI: 0.147505
LLC LOAD TRANSLATION NON_SPEC    ACCESS:     146517  HIT:      96986  MISS:      49531  HIT %:    66.1944  MISS %:    33.8056   MPKI: 0.247655
LLC PREFETCH  REQUESTED:          0  ISSUED:          0  USEFUL:     405112  USELESS:    3154351
LLC USEFUL LOAD PREFETCHES:     405112 PREFETCH ISSUED TO LOWER LEVEL:    3574464  ACCURACY: 11.3335
LLC TIMELY PREFETCHES:     405112 LATE PREFETCHES: 17881 DROPPED PREFETCHES: 0
LLC COMMIT LATE PREFETCHES: 0 MISSED OPPORTUNITY: 0 LATE IN PQ: 0 UNCOVERED: 0
LLC COMMIT LATE MSHR PREFETCHES: 0
LLC MPKI TOTAL: 36.7702 MSHR LATE: 0.089405 PQ LATE: 0 COMMIT LATE: 0 MISSED OPPORTUNITY: 0 UNCOVERED: 0
LLC PREFETCHES SAME FILL-ORIGIN LEVEL: 1560708 DIFFERENT FILL-ORIGIN LEVEL: 0
LLC AVERAGE MISS LATENCY: 116.436 cycles
LLC AVERAGE MISS LATENCY LOAD: 182.309 cycles
LLC AVERAGE MISS LATENCY PREFETCH: 230.077 cycles
LLC AVERAGE MSHR OCCUPANCY: 1.85229
LLC MSHR FULL: 0
LLC RQ	ACCESS:   14130836	FORWARD:          0	MERGED:          0	TO_CACHE:   14130645
LLC WQ	ACCESS:   13296239	FORWARD:        222	MERGED:          0	TO_CACHE:   13296239
LLC PQ	ACCESS:    5447798	FORWARD:          0	MERGED:       5692	TO_CACHE:    5442075

LLC Dense regions hint to LLC: 0

RAW hits: 156472
Loads Generated: 48002947
Loads sent to L1D: 47846474
Stores Generated: 6628506
Stores sent to L1D: 6628508
Major fault: 0 Minor fault: 32429
Allocated PAGES: 32429
Total Load insts: 59412250
Total Non-spec loads: 4935685
Percentage of speculative loads: 91.6925

LeapFrogging counter: 422524
Commit hits: 28567166 miss: 14606672
Commit hit %: 66.1678 miss %: 33.8322
Commits not translated: 0
Loads retired: 17920584
Stores retired: 6628508
Cache fills: 17920586
L1D response latency: 103.136 cycles
Load retirement latency: 234.474 cycles
OOO test counter: 0
Discarded buffer inserts: 28567166 hits: 36351 hit %: 0.127247
Filter prediction accuracy: 98.3963
------------------
Depth Distribution
------------------
depth 0: 25542795
depth 1: 29149919
depth 2: 2643613
depth 3: 1996691
depth 4: 914282
depth 5: 221933
depth 6: 13076
depth 7: 9240
depth 8: 6290
depth 9: 2553
depth 10: 176
depth 11: 235
depth 12: 0
depth 13: 0
depth 14: 0
depth 15: 0
depth 16: 0
depth 17: 0
depth 18: 0
depth 19: 0
depth 20: 0
depth 21: 0
depth 22: 0
depth 23: 0
depth 24: 0
depth 25: 0
depth 26: 0
depth 27: 0
depth 28: 0
depth 29: 0
Total: 60500803
------------------
ST read accesses: 38121125
ST write accesses: 9881837
PT read accesses: 409876895
PT write accesses: 17640713
FILTER read accesses: 162456913
FILTER write accesses: 64076111
GHR read accesses: 89754056
GHR write accesses: 1736569
PERC read accesses: 3002282586
PERC write accesses: 49058097
GHR counter read accesses: 96005924
GHR counter write accesses: 53051224
GHR ip read accesses: 232354044
GHR ip write accesses: 192011848
ST tag read accesses: 22387956207
ST tag write accesses: 2749148024

DRAM Statistics
 CHANNEL 0
 RQ ROW_BUFFER_HIT:    1161321  ROW_BUFFER_MISS:    9851008
 DBUS_CONGESTED:       2834
 WQ ROW_BUFFER_HIT:    3495819  ROW_BUFFER_MISS:    4944600  FULL:       5303

 AVG_CONGESTED_CYCLE: 5
 All warmup complete: 2
Channel 0 Bank busy for read cycles: 0
Channel 0 Bank busy for write cycles: 0
Channel 0
Rank 0
0banks busy for read cycles: 3422790
0banks busy for write cycles: 1191
1banks busy for read cycles: 319763944
1banks busy for write cycles: 2965466
2banks busy for read cycles: 252217883
2banks busy for write cycles: 3203069
3banks busy for read cycles: 122792337
3banks busy for write cycles: 3796945
4banks busy for read cycles: 50090225
4banks busy for write cycles: 5146485
5banks busy for read cycles: 18787668
5banks busy for write cycles: 9082041
6banks busy for read cycles: 6976205
6banks busy for write cycles: 23854009
7banks busy for read cycles: 2502920
7banks busy for write cycles: 79402707
8banks busy for read cycles: 1065785
8banks busy for write cycles: 178250752

CPU 0 Branch Prediction Accuracy: 92.9184% MPKI: 15.3683 Average ROB Occupancy at Mispredict: 48.8015
Branch types
NOT_BRANCH: 156596269 78.2981%
BRANCH_DIRECT_JUMP: 271551 0.135775%
BRANCH_INDIRECT: 0 0%
BRANCH_CONDITIONAL: 43131886 21.5659%
BRANCH_DIRECT_CALL: 14 7e-06%
BRANCH_INDIRECT_CALL: 0 0%
BRANCH_RETURN: 14 7e-06%
BRANCH_OTHER: 0 0%

DRAM PAGES: 1048576
Allocated PAGES: 32429
