Initialize SIGNATURE TABLE
ST_SET: 1
ST_WAY: 256
ST_TAG_BIT: 16
ST_TAG_MASK: ffff

Initialize PATTERN TABLE
PT_SET: 512
PT_WAY: 4
SIG_DELTA_BIT: 7
C_SIG_BIT: 4
C_DELTA_BIT: 4

Initialize PREFETCH FILTER
FILTER_SET: 1024

Initialize PERCEPTRON
PERC_ENTRIES: 4096
PERC_FEATURES: 9

*** ChampSim Multicore Out-of-Order Simulator ***

Warmup Instructions: 50000000
Simulation Instructions: 200000000
Number of CPUs: 1
LLC sets: 2048
LLC ways: 16
L0D sets: 16
L0D ways: 2
ROB size: 352
LQ size: 128
SQ size: 72
Secure Berti: OFF
Berti: OFF
Berti Fill: OFF
On commit prefetching: ON
Hit-based filter: ON
Time-guarding: ON
Free-slotting: ON
Leap-frogging: ON
Train prefetcher on L0D bypass: OFF
No translation penalty for prefetchers: OFF
Prefetch to L0D only: OFF
Prefetch to L1D only: OFF
Clean evictions: ON
Commit loads: ON
Commit write: ON
Fill commit loads to L2C, LLC: ON
DRAM IO FREQUENCY: 6400
ROB SIZE: 352
Off-chip DRAM Size: 4096 MB Channels: 1 Width: 64-bit Data Rate: 6400 MT/s
CPU 0 runs /home/sumon/secure_berti/GhostMinion/../../traces/gap/sssp-5.trace.gz
.gz
BTB has LRU replacement policy
ITLB has LRU replacement policy
DTLB has LRU replacement policy
STLB has LRU replacement policy
L1I has LRU replacement policy
L0D has LRU replacement policy
L1D has LRU replacement policy
PERC_ENTRIES: 4096
L2C has LRU replacement policy
LLC has LRU replacement policy
Heartbeat CPU 0 instructions: 10000001 cycles: 3960136 heartbeat IPC: 2.52517 cumulative IPC: 2.52517 (Simulation time: 0 hr 0 min 30 sec) 
Heartbeat CPU 0 instructions: 20000000 cycles: 7793322 heartbeat IPC: 2.6088 cumulative IPC: 2.5663 (Simulation time: 0 hr 1 min 4 sec) 
Heartbeat CPU 0 instructions: 30000003 cycles: 11584038 heartbeat IPC: 2.63802 cumulative IPC: 2.58977 (Simulation time: 0 hr 1 min 37 sec) 
Heartbeat CPU 0 instructions: 40000000 cycles: 15350554 heartbeat IPC: 2.65497 cumulative IPC: 2.60577 (Simulation time: 0 hr 2 min 10 sec) 
Heartbeat CPU 0 instructions: 50000003 cycles: 19099704 heartbeat IPC: 2.66727 cumulative IPC: 2.61784 (Simulation time: 0 hr 2 min 43 sec) 

Warmup complete CPU 0 instructions: 50000003 cycles: 19099704 (Simulation time: 0 hr 2 min 43 sec) 

Heartbeat CPU 0 instructions: 60000002 cycles: 47533406 heartbeat IPC: 0.351695 cumulative IPC: 0.351695 (Simulation time: 0 hr 3 min 28 sec) 
Heartbeat CPU 0 instructions: 70000001 cycles: 75828359 heartbeat IPC: 0.35342 cumulative IPC: 0.352555 (Simulation time: 0 hr 4 min 13 sec) 
Heartbeat CPU 0 instructions: 80000000 cycles: 103396567 heartbeat IPC: 0.362737 cumulative IPC: 0.355885 (Simulation time: 0 hr 4 min 57 sec) 
Heartbeat CPU 0 instructions: 90000001 cycles: 130813174 heartbeat IPC: 0.364742 cumulative IPC: 0.358059 (Simulation time: 0 hr 5 min 43 sec) 
Heartbeat CPU 0 instructions: 100000000 cycles: 158084432 heartbeat IPC: 0.366686 cumulative IPC: 0.359752 (Simulation time: 0 hr 6 min 28 sec) 
Heartbeat CPU 0 instructions: 110000000 cycles: 183984919 heartbeat IPC: 0.386093 cumulative IPC: 0.363889 (Simulation time: 0 hr 7 min 14 sec) 
Heartbeat CPU 0 instructions: 120000000 cycles: 209250029 heartbeat IPC: 0.395803 cumulative IPC: 0.36813 (Simulation time: 0 hr 7 min 59 sec) 
Heartbeat CPU 0 instructions: 130000000 cycles: 235992962 heartbeat IPC: 0.373931 cumulative IPC: 0.368845 (Simulation time: 0 hr 8 min 45 sec) 
Heartbeat CPU 0 instructions: 140000000 cycles: 261580731 heartbeat IPC: 0.390812 cumulative IPC: 0.371163 (Simulation time: 0 hr 9 min 31 sec) 
Heartbeat CPU 0 instructions: 150000000 cycles: 286739197 heartbeat IPC: 0.397481 cumulative IPC: 0.373637 (Simulation time: 0 hr 10 min 17 sec) 
Heartbeat CPU 0 instructions: 160000000 cycles: 311353692 heartbeat IPC: 0.406265 cumulative IPC: 0.376385 (Simulation time: 0 hr 11 min 3 sec) 
Heartbeat CPU 0 instructions: 170000002 cycles: 336001411 heartbeat IPC: 0.405717 cumulative IPC: 0.378666 (Simulation time: 0 hr 11 min 50 sec) 
Heartbeat CPU 0 instructions: 180000000 cycles: 360766467 heartbeat IPC: 0.403795 cumulative IPC: 0.380488 (Simulation time: 0 hr 12 min 36 sec) 
Heartbeat CPU 0 instructions: 190000001 cycles: 386190929 heartbeat IPC: 0.393322 cumulative IPC: 0.381377 (Simulation time: 0 hr 13 min 23 sec) 
Heartbeat CPU 0 instructions: 200000001 cycles: 410493937 heartbeat IPC: 0.411472 cumulative IPC: 0.383245 (Simulation time: 0 hr 14 min 10 sec) 
Heartbeat CPU 0 instructions: 210000000 cycles: 434497747 heartbeat IPC: 0.4166 cumulative IPC: 0.385173 (Simulation time: 0 hr 14 min 56 sec) 
Heartbeat CPU 0 instructions: 220000000 cycles: 458643330 heartbeat IPC: 0.414154 cumulative IPC: 0.386765 (Simulation time: 0 hr 15 min 43 sec) 
Heartbeat CPU 0 instructions: 230000002 cycles: 482025163 heartbeat IPC: 0.427683 cumulative IPC: 0.388831 (Simulation time: 0 hr 16 min 29 sec) 
Heartbeat CPU 0 instructions: 240000002 cycles: 506210528 heartbeat IPC: 0.413473 cumulative IPC: 0.390055 (Simulation time: 0 hr 17 min 15 sec) 
Heartbeat CPU 0 instructions: 250000000 cycles: 529792649 heartbeat IPC: 0.42405 cumulative IPC: 0.391625 (Simulation time: 0 hr 18 min 1 sec) 
Finished CPU 0 instructions: 200000001 cycles: 510692946 cumulative IPC: 0.391625 (Simulation time: 0 hr 18 min 1 sec) 
 Instruction ID: 250000379

ChampSim completed all CPUs

Region of Interest Statistics

CPU 0 cumulative IPC: 0.391625 instructions: 200000001 cycles: 510692946
ITLB SPEC fills:          0  NON-SPEC fills:          0
ITLB Test counter :          0
ITLB Leapfrog:          0
ITLB MSHR merge:          0
ITLB TOTAL     ACCESS:   24214535  HIT:   24214535  MISS:          0  HIT %:        100  MISS %:          0   MPKI: 0
ITLB LOAD TRANSLATION NON_SPEC    ACCESS:   24214535  HIT:   24214535  MISS:          0  HIT %:        100  MISS %:          0   MPKI: 0
ITLB PREFETCH  REQUESTED:          0  ISSUED:          0  USEFUL:          0  USELESS:          0
ITLB USEFUL LOAD PREFETCHES:          0 PREFETCH ISSUED TO LOWER LEVEL:          0  ACCURACY: -nan
ITLB TIMELY PREFETCHES:          0 LATE PREFETCHES: 0 DROPPED PREFETCHES: 0
ITLB COMMIT LATE PREFETCHES: 0 MISSED OPPORTUNITY: 0 LATE IN PQ: 0 UNCOVERED: 0
ITLB COMMIT LATE MSHR PREFETCHES: 0
ITLB MPKI TOTAL: 0 MSHR LATE: 0 PQ LATE: 0 COMMIT LATE: 0 MISSED OPPORTUNITY: 0 UNCOVERED: 0
ITLB PREFETCHES SAME FILL-ORIGIN LEVEL: 0 DIFFERENT FILL-ORIGIN LEVEL: 0
ITLB AVERAGE MISS LATENCY: -nan cycles
ITLB AVERAGE MISS LATENCY LOAD: -nan cycles
ITLB AVERAGE MISS LATENCY PREFETCH: -nan cycles
ITLB AVERAGE MSHR OCCUPANCY: 0
ITLB MSHR FULL: 0
ITLB RQ	ACCESS:   24887135	FORWARD:          0	MERGED:     672600	TO_CACHE:   24214535

DTLB SPEC fills:          0  NON-SPEC fills:          0
DTLB Test counter :          0
DTLB Leapfrog:          0
DTLB MSHR merge:          0
DTLB TOTAL     ACCESS:   48408056  HIT:   43886165  MISS:    4521891  HIT %:    90.6588  MISS %:     9.3412   MPKI: 22.6095
DTLB LOAD TRANSLATION NON_SPEC    ACCESS:   48408056  HIT:   43886165  MISS:    4521891  HIT %:    90.6588  MISS %:     9.3412   MPKI: 22.6095
DTLB PREFETCH  REQUESTED:          0  ISSUED:          0  USEFUL:          0  USELESS:          0
DTLB USEFUL LOAD PREFETCHES:          0 PREFETCH ISSUED TO LOWER LEVEL:          0  ACCURACY: -nan
DTLB TIMELY PREFETCHES:          0 LATE PREFETCHES: 0 DROPPED PREFETCHES: 0
DTLB COMMIT LATE PREFETCHES: 0 MISSED OPPORTUNITY: 0 LATE IN PQ: 0 UNCOVERED: 0
DTLB COMMIT LATE MSHR PREFETCHES: 0
DTLB MPKI TOTAL: 0 MSHR LATE: 0 PQ LATE: 0 COMMIT LATE: 0 MISSED OPPORTUNITY: 0 UNCOVERED: 0
DTLB PREFETCHES SAME FILL-ORIGIN LEVEL: 0 DIFFERENT FILL-ORIGIN LEVEL: 0
DTLB AVERAGE MISS LATENCY: 12.416 cycles
DTLB AVERAGE MISS LATENCY LOAD: -nan cycles
DTLB AVERAGE MISS LATENCY PREFETCH: -nan cycles
DTLB AVERAGE MSHR OCCUPANCY: 0.228392
DTLB MSHR FULL: 8.19817e-08
DTLB RQ	ACCESS:   52856732	FORWARD:          0	MERGED:    4065377	TO_CACHE:   48791355

STLB SPEC fills:          0  NON-SPEC fills:          0
STLB Test counter :          0
STLB Leapfrog:          0
STLB MSHR merge:          0
STLB TOTAL     ACCESS:    4521891  HIT:    4463333  MISS:      58558  HIT %:     98.705  MISS %:    1.29499   MPKI: 0.29279
STLB LOAD TRANSLATION NON_SPEC    ACCESS:    4521891  HIT:    4463333  MISS:      58558  HIT %:     98.705  MISS %:    1.29499   MPKI: 0.29279
STLB PREFETCH  REQUESTED:          0  ISSUED:          0  USEFUL:          0  USELESS:          0
STLB USEFUL LOAD PREFETCHES:          0 PREFETCH ISSUED TO LOWER LEVEL:          0  ACCURACY: -nan
STLB TIMELY PREFETCHES:          0 LATE PREFETCHES: 0 DROPPED PREFETCHES: 0
STLB COMMIT LATE PREFETCHES: 0 MISSED OPPORTUNITY: 0 LATE IN PQ: 0 UNCOVERED: 0
STLB COMMIT LATE MSHR PREFETCHES: 0
STLB MPKI TOTAL: 0 MSHR LATE: 0 PQ LATE: 0 COMMIT LATE: 0 MISSED OPPORTUNITY: 0 UNCOVERED: 0
STLB PREFETCHES SAME FILL-ORIGIN LEVEL: 0 DIFFERENT FILL-ORIGIN LEVEL: 0
STLB AVERAGE MISS LATENCY: 246.285 cycles
STLB AVERAGE MISS LATENCY LOAD: -nan cycles
STLB AVERAGE MISS LATENCY PREFETCH: -nan cycles
STLB AVERAGE MSHR OCCUPANCY: 0.0103333
STLB MSHR FULL: 0
STLB RQ	ACCESS:    4521891	FORWARD:          0	MERGED:          0	TO_CACHE:    4521891

STLB Hit, L1D data hit: 0
STLB Hit, L2C data hit: 0
STLB Hit, LLC data hit: 0
STLB Hit, LLC data miss: 0
STLB STLB hints to L2: 0
L0D SPEC fills:   25870179  NON-SPEC fills:          0
L0D TimeGuard Request with older TS:    1998649 Restricted eviction:     198605 read:    4060218
L0D Test counter :          0
L0D Leapfrog:          0
L0D MSHR merge:    3017232
L0D TOTAL     ACCESS:   47598150  HIT:   16446056  MISS:   31152094  HIT %:    34.5519  MISS %:    65.4481   MPKI: 155.76
L0D LOAD      TOTAL       ACCESS:   47598150  HIT:   16446056  MISS:   31152094  HIT %:    34.5519  MISS %:    65.4481   MPKI: 155.76
L0D LOAD      NON_SPEC    ACCESS:    5160017  HIT:      76707  MISS:    5083310  HIT %:    1.48656  MISS %:    98.5134   MPKI: 25.4165
L0D LOAD      SPEC        ACCESS:   42438133  HIT:   16369349  MISS:   26068784  HIT %:    38.5723  MISS %:    61.4277   MPKI: 130.344
L0D PREFETCH  REQUESTED:          0  ISSUED:          0  USEFUL:          0  USELESS:          0
L0D USEFUL LOAD PREFETCHES:          0 PREFETCH ISSUED TO LOWER LEVEL:          0  ACCURACY: -nan
L0D TIMELY PREFETCHES:          0 LATE PREFETCHES: 0 DROPPED PREFETCHES: 0
L0D COMMIT LATE PREFETCHES: 0 MISSED OPPORTUNITY: 0 LATE IN PQ: 0 UNCOVERED: 0
L0D COMMIT LATE MSHR PREFETCHES: 0
L0D MPKI TOTAL: 170.847 MSHR LATE: 0 PQ LATE: 0 COMMIT LATE: 0 MISSED OPPORTUNITY: 0 UNCOVERED: 0
L0D PREFETCHES SAME FILL-ORIGIN LEVEL: 0 DIFFERENT FILL-ORIGIN LEVEL: 0
L0D AVERAGE MISS LATENCY: 32.0148 cycles
L0D AVERAGE MISS LATENCY LOAD: 32.0148 cycles
L0D AVERAGE MISS LATENCY PREFETCH: -nan cycles
L0D AVERAGE MSHR OCCUPANCY: 2.29803
L0D MSHR FULL: 0.0594599
L0D RQ	ACCESS:   76702359	FORWARD:          0	MERGED:   26086979	TO_CACHE:   50615380
L0D WQ	ACCESS:    2241352	FORWARD:          0	MERGED:          0	TO_CACHE:    2241352

L1D SPEC fills:          0  NON-SPEC fills:    1767511
L1D Test counter :          0
L1D Leapfrog:          0
L1D MSHR merge:       9128
L1D TOTAL     ACCESS:   44350648  HIT:   24308022  MISS:   20042626  HIT %:    54.8087  MISS %:    45.1913   MPKI: 100.213
L1D LOAD      TOTAL       ACCESS:   31142966  HIT:   20189338  MISS:   10953628  HIT %:    64.8279  MISS %:    35.1721   MPKI: 54.7681
L1D LOAD      NON_SPEC    ACCESS:    5081840  HIT:    3314329  MISS:    1767511  HIT %:    65.2191  MISS %:    34.7809   MPKI: 8.83755
L1D LOAD      SPEC        ACCESS:   26061126  HIT:   16875009  MISS:    9186117  HIT %:    64.7516  MISS %:    35.2484   MPKI: 45.9306
L1D RFO       NON_SPEC    ACCESS:    2048848  HIT:    1577646  MISS:     471202  HIT %:    77.0016  MISS %:    22.9984   MPKI: 2.35601
L1D COMMIT LOAD NON_SPEC    ACCESS:    1971562  HIT:    1838413  MISS:     133149  HIT %:    93.2465  MISS %:    6.75348   MPKI: 0.665745
L1D COMMIT WRITE NON_SPEC    ACCESS:    9187272  HIT:     702625  MISS:    8484647  HIT %:    7.64781  MISS %:    92.3522   MPKI: 42.4232
L1D PREFETCH  REQUESTED:          0  ISSUED:          0  USEFUL:          0  USELESS:          0
L1D USEFUL LOAD PREFETCHES:          0 PREFETCH ISSUED TO LOWER LEVEL:          0  ACCURACY: -nan
L1D TIMELY PREFETCHES:          0 LATE PREFETCHES: 0 DROPPED PREFETCHES: 0
L1D COMMIT LATE PREFETCHES: 0 MISSED OPPORTUNITY: 0 LATE IN PQ: 0 UNCOVERED: 0
L1D COMMIT LATE MSHR PREFETCHES: 0
L1D MPKI TOTAL: 54.8138 MSHR LATE: 0 PQ LATE: 0 COMMIT LATE: 0 MISSED OPPORTUNITY: 0 UNCOVERED: 0
L1D PREFETCHES SAME FILL-ORIGIN LEVEL: 0 DIFFERENT FILL-ORIGIN LEVEL: 0
L1D AVERAGE MISS LATENCY: 44.7624 cycles
L1D AVERAGE MISS LATENCY LOAD: 76.3913 cycles
L1D AVERAGE MISS LATENCY PREFETCH: -nan cycles
L1D AVERAGE MSHR OCCUPANCY: 2.21687
L1D MSHR FULL: 0.0624158
L1D RQ	ACCESS:   34286626	FORWARD:          0	MERGED:    1143711	TO_CACHE:   33137957
L1D WQ	ACCESS:   11428627	FORWARD:       4958	MERGED:       1172	TO_CACHE:   11427455

L1D UNIQUE REGIONS ACCESSED: 0
L1D REGIONS CONFLICTS: 0
L1D Cross Page Prefetch Requests: 0
L1D Same Page Prefetch Requests: 0
L1D ROI Sum of L1D PQ occupancy: 0
L1D PREFETCHES PUSHED FROM L2C: 0
L1I SPEC fills:          0  NON-SPEC fills:          0
L1I Test counter :          0
L1I Leapfrog:          0
L1I MSHR merge:          0
L1I TOTAL     ACCESS:   24887133  HIT:   24887133  MISS:          0  HIT %:        100  MISS %:          0   MPKI: 0
L1I LOAD      TOTAL       ACCESS:   24887133  HIT:   24887133  MISS:          0  HIT %:        100  MISS %:          0   MPKI: 0
L1I LOAD      NON_SPEC    ACCESS:   24887133  HIT:   24887133  MISS:          0  HIT %:        100  MISS %:          0   MPKI: 0
L1I PREFETCH  REQUESTED:          0  ISSUED:          0  USEFUL:          0  USELESS:          0
L1I USEFUL LOAD PREFETCHES:          0 PREFETCH ISSUED TO LOWER LEVEL:          0  ACCURACY: -nan
L1I TIMELY PREFETCHES:          0 LATE PREFETCHES: 0 DROPPED PREFETCHES: 0
L1I COMMIT LATE PREFETCHES: 0 MISSED OPPORTUNITY: 0 LATE IN PQ: 0 UNCOVERED: 0
L1I COMMIT LATE MSHR PREFETCHES: 0
L1I MPKI TOTAL: 0 MSHR LATE: 0 PQ LATE: 0 COMMIT LATE: 0 MISSED OPPORTUNITY: 0 UNCOVERED: 0
L1I PREFETCHES SAME FILL-ORIGIN LEVEL: 0 DIFFERENT FILL-ORIGIN LEVEL: 0
L1I AVERAGE MISS LATENCY: -nan cycles
L1I AVERAGE MISS LATENCY LOAD: -nan cycles
L1I AVERAGE MISS LATENCY PREFETCH: -nan cycles
L1I AVERAGE MSHR OCCUPANCY: 0
L1I MSHR FULL: 0
L1I RQ	ACCESS:   38845161	FORWARD:          0	MERGED:   13958026	TO_CACHE:   24887135

BTB SPEC fills:          0  NON-SPEC fills:          0
BTB Test counter :          0
BTB Leapfrog:          0
BTB MSHR merge:          0
BTB TOTAL     ACCESS:   29044147  HIT:   29044001  MISS:        146  HIT %:    99.9995  MISS %: 0.000502683   MPKI: 0.00073
BTB BRANCH_DIRECT_JUMP	ACCESS:    9217196  HIT:    9217156  MISS:         40
BTB BRANCH_INDIRECT	ACCESS:          0  HIT:          0  MISS:          0
BTB BRANCH_CONDITIONAL	ACCESS:   19824303  HIT:   19824221  MISS:         82
BTB BRANCH_DIRECT_CALL	ACCESS:       1324  HIT:       1315  MISS:          9
BTB BRANCH_INDIRECT_CALL	ACCESS:          0  HIT:          0  MISS:          0
BTB BRANCH_RETURN	ACCESS:       1324  HIT:       1309  MISS:         15
BTB BRANCH_OTHER ACCESS:          0  HIT:          0  MISS:          0

L2C SPEC fills:          0  NON-SPEC fills:    1185801
L2C Test counter :          0
L2C Leapfrog:          0
L2C MSHR merge:     107558
L2C TOTAL     ACCESS:   22631720  HIT:    7076104  MISS:   15555616  HIT %:    31.2663  MISS %:    68.7337   MPKI: 77.7781
L2C LOAD      TOTAL       ACCESS:   10953618  HIT:    3837075  MISS:    7116543  HIT %:    35.0302  MISS %:    64.9698   MPKI: 35.5827
L2C LOAD      NON_SPEC    ACCESS:    1767509  HIT:     581708  MISS:    1185801  HIT %:    32.9112  MISS %:    67.0888   MPKI: 5.929
L2C LOAD      SPEC        ACCESS:    9186109  HIT:    3255367  MISS:    5930742  HIT %:    35.4379  MISS %:    64.5621   MPKI: 29.6537
L2C RFO       NON_SPEC    ACCESS:     471165  HIT:     295267  MISS:     175898  HIT %:    62.6674  MISS %:    37.3326   MPKI: 0.87949
L2C PREFETCH  NON_SPEC    ACCESS:    3595474  HIT:    1165397  MISS:    2430077  HIT %:    32.4129  MISS %:    67.5871   MPKI: 12.1504
L2C WRITEBACK NON_SPEC    ACCESS:     820375  HIT:     819849  MISS:        526  HIT %:    99.9359  MISS %:   0.064117   MPKI: 0.00263
L2C CLEAN_EVICTION NON_SPEC    ACCESS:    6365151  HIT:     657801  MISS:    5707350  HIT %:    10.3344  MISS %:    89.6656   MPKI: 28.5367
L2C COMMIT LOAD NON_SPEC    ACCESS:     133149  HIT:      51955  MISS:      81194  HIT %:    39.0202  MISS %:    60.9798   MPKI: 0.40597
L2C LOAD TRANSLATION NON_SPEC    ACCESS:     292788  HIT:     248760  MISS:      44028  HIT %:    84.9625  MISS %:    15.0375   MPKI: 0.22014
L2C PREFETCH  REQUESTED:    5956164  ISSUED:    5956163  USEFUL:    1182045  USELESS:    1252205
L2C USEFUL LOAD PREFETCHES:    1182045 PREFETCH ISSUED TO LOWER LEVEL:    4100910  ACCURACY: 28.824
L2C TIMELY PREFETCHES:    1182045 LATE PREFETCHES: 118127 DROPPED PREFETCHES: 0
L2C COMMIT LATE PREFETCHES: 0 MISSED OPPORTUNITY: 0 LATE IN PQ: 0 UNCOVERED: 0
L2C COMMIT LATE MSHR PREFETCHES: 0
L2C MPKI TOTAL: 35.5827 MSHR LATE: 0.590635 PQ LATE: 0 COMMIT LATE: 0 MISSED OPPORTUNITY: 0 UNCOVERED: 0
L2C PREFETCHES SAME FILL-ORIGIN LEVEL: 2548204 DIFFERENT FILL-ORIGIN LEVEL: 1552706
L2C AVERAGE MISS LATENCY: 80.5575 cycles
L2C AVERAGE MISS LATENCY LOAD: 99.043 cycles
L2C AVERAGE MISS LATENCY PREFETCH: 201.217 cycles
L2C AVERAGE MSHR OCCUPANCY: 2.5648
L2C MSHR FULL: 4.13475e-06
L2C RQ	ACCESS:   11850766	FORWARD:          0	MERGED:          0	TO_CACHE:   11850720
L2C WQ	ACCESS:    7185530	FORWARD:         52	MERGED:          4	TO_CACHE:    7185526
L2C PQ	ACCESS:    5956163	FORWARD:          0	MERGED:     587204	TO_CACHE:    5368953

L2C Instructions Evicting Data 0
L2C Translations Evicting Data 43831
L2C Data Evicting Data 3856445
L2C Instructions Evicting Instructions 0
L2C Translations Evicting Instructions 0
L2C Data Evicting Instructions 0
L2C Instructions Evicting Translations 0
L2C Translations Evicting Translations 197
L2C Data Evicting Translations 16525
L2C Dense regions hint from L2: 0
PSCL5 SPEC fills:          0  NON-SPEC fills:          0
PSCL5 Test counter :          0
PSCL5 Leapfrog:          0
PSCL5 MSHR merge:          0
PSCL5 TOTAL     ACCESS:          0  HIT:          0  MISS:          0  HIT %:       -nan  MISS %:       -nan   MPKI: 0
PSCL5 PREFETCH  REQUESTED:          0  ISSUED:          0  USEFUL:          0  USELESS:          0
PSCL5 USEFUL LOAD PREFETCHES:          0 PREFETCH ISSUED TO LOWER LEVEL:          0  ACCURACY: -nan
PSCL5 TIMELY PREFETCHES:          0 LATE PREFETCHES: 0 DROPPED PREFETCHES: 0
PSCL5 COMMIT LATE PREFETCHES: 0 MISSED OPPORTUNITY: 0 LATE IN PQ: 0 UNCOVERED: 0
PSCL5 COMMIT LATE MSHR PREFETCHES: 0
PSCL5 MPKI TOTAL: 0 MSHR LATE: 0 PQ LATE: 0 COMMIT LATE: 0 MISSED OPPORTUNITY: 0 UNCOVERED: 0
PSCL5 PREFETCHES SAME FILL-ORIGIN LEVEL: 0 DIFFERENT FILL-ORIGIN LEVEL: 0

PSCL4 SPEC fills:          0  NON-SPEC fills:          0
PSCL4 Test counter :          0
PSCL4 Leapfrog:          0
PSCL4 MSHR merge:          0
PSCL4 TOTAL     ACCESS:          0  HIT:          0  MISS:          0  HIT %:       -nan  MISS %:       -nan   MPKI: 0
PSCL4 PREFETCH  REQUESTED:          0  ISSUED:          0  USEFUL:          0  USELESS:          0
PSCL4 USEFUL LOAD PREFETCHES:          0 PREFETCH ISSUED TO LOWER LEVEL:          0  ACCURACY: -nan
PSCL4 TIMELY PREFETCHES:          0 LATE PREFETCHES: 0 DROPPED PREFETCHES: 0
PSCL4 COMMIT LATE PREFETCHES: 0 MISSED OPPORTUNITY: 0 LATE IN PQ: 0 UNCOVERED: 0
PSCL4 COMMIT LATE MSHR PREFETCHES: 0
PSCL4 MPKI TOTAL: 0 MSHR LATE: 0 PQ LATE: 0 COMMIT LATE: 0 MISSED OPPORTUNITY: 0 UNCOVERED: 0
PSCL4 PREFETCHES SAME FILL-ORIGIN LEVEL: 0 DIFFERENT FILL-ORIGIN LEVEL: 0

PSCL3 SPEC fills:          0  NON-SPEC fills:          0
PSCL3 Test counter :          0
PSCL3 Leapfrog:          0
PSCL3 MSHR merge:          0
PSCL3 TOTAL     ACCESS:          0  HIT:          0  MISS:          0  HIT %:       -nan  MISS %:       -nan   MPKI: 0
PSCL3 PREFETCH  REQUESTED:          0  ISSUED:          0  USEFUL:          0  USELESS:          0
PSCL3 USEFUL LOAD PREFETCHES:          0 PREFETCH ISSUED TO LOWER LEVEL:          0  ACCURACY: -nan
PSCL3 TIMELY PREFETCHES:          0 LATE PREFETCHES: 0 DROPPED PREFETCHES: 0
PSCL3 COMMIT LATE PREFETCHES: 0 MISSED OPPORTUNITY: 0 LATE IN PQ: 0 UNCOVERED: 0
PSCL3 COMMIT LATE MSHR PREFETCHES: 0
PSCL3 MPKI TOTAL: 0 MSHR LATE: 0 PQ LATE: 0 COMMIT LATE: 0 MISSED OPPORTUNITY: 0 UNCOVERED: 0
PSCL3 PREFETCHES SAME FILL-ORIGIN LEVEL: 0 DIFFERENT FILL-ORIGIN LEVEL: 0

PSCL2 SPEC fills:          0  NON-SPEC fills:          0
PSCL2 Test counter :          0
PSCL2 Leapfrog:          0
PSCL2 MSHR merge:          0
PSCL2 TOTAL     ACCESS:          0  HIT:          0  MISS:          0  HIT %:       -nan  MISS %:       -nan   MPKI: 0
PSCL2 PREFETCH  REQUESTED:          0  ISSUED:          0  USEFUL:          0  USELESS:          0
PSCL2 USEFUL LOAD PREFETCHES:          0 PREFETCH ISSUED TO LOWER LEVEL:          0  ACCURACY: -nan
PSCL2 TIMELY PREFETCHES:          0 LATE PREFETCHES: 0 DROPPED PREFETCHES: 0
PSCL2 COMMIT LATE PREFETCHES: 0 MISSED OPPORTUNITY: 0 LATE IN PQ: 0 UNCOVERED: 0
PSCL2 COMMIT LATE MSHR PREFETCHES: 0
PSCL2 MPKI TOTAL: 0 MSHR LATE: 0 PQ LATE: 0 COMMIT LATE: 0 MISSED OPPORTUNITY: 0 UNCOVERED: 0
PSCL2 PREFETCHES SAME FILL-ORIGIN LEVEL: 0 DIFFERENT FILL-ORIGIN LEVEL: 0

LLC SPEC fills:          0  NON-SPEC fills:     474896
LLC Test counter :          0
LLC Leapfrog:          0
LLC MSHR merge:       9577
LLC TOTAL     ACCESS:   17968320  HIT:    9122159  MISS:    8846161  HIT %:     50.768  MISS %:     49.232   MPKI: 44.2308
LLC LOAD      TOTAL       ACCESS:    7008942  HIT:    4022671  MISS:    2986271  HIT %:    57.3934  MISS %:    42.6066   MPKI: 14.9314
LLC LOAD      NON_SPEC    ACCESS:    1149751  HIT:     674855  MISS:     474896  HIT %:    58.6958  MISS %:    41.3042   MPKI: 2.37448
LLC LOAD      SPEC        ACCESS:    5859191  HIT:    3347816  MISS:    2511375  HIT %:    57.1379  MISS %:    42.8621   MPKI: 12.5569
LLC RFO       NON_SPEC    ACCESS:     175888  HIT:      67184  MISS:     108704  HIT %:     38.197  MISS %:     61.803   MPKI: 0.54352
LLC PREFETCH  NON_SPEC    ACCESS:    4034837  HIT:    1175787  MISS:    2859050  HIT %:    29.1409  MISS %:    70.8591   MPKI: 14.2952
LLC WRITEBACK NON_SPEC    ACCESS:     299740  HIT:     291966  MISS:       7774  HIT %:    97.4064  MISS %:    2.59358   MPKI: 0.03887
LLC CLEAN_EVICTION NON_SPEC    ACCESS:    6334266  HIT:    3497836  MISS:    2836430  HIT %:    55.2209  MISS %:    44.7791   MPKI: 14.1821
LLC COMMIT LOAD NON_SPEC    ACCESS:      70619  HIT:      57475  MISS:      13144  HIT %:    81.3874  MISS %:    18.6126   MPKI: 0.06572
LLC LOAD TRANSLATION NON_SPEC    ACCESS:      44028  HIT:       9240  MISS:      34788  HIT %:    20.9866  MISS %:    79.0134   MPKI: 0.17394
LLC PREFETCH  REQUESTED:          0  ISSUED:          0  USEFUL:     321292  USELESS:    2546921
LLC USEFUL LOAD PREFETCHES:     321292 PREFETCH ISSUED TO LOWER LEVEL:    2868780  ACCURACY: 11.1996
LLC TIMELY PREFETCHES:     321292 LATE PREFETCHES: 9729 DROPPED PREFETCHES: 0
LLC COMMIT LATE PREFETCHES: 0 MISSED OPPORTUNITY: 0 LATE IN PQ: 0 UNCOVERED: 0
LLC COMMIT LATE MSHR PREFETCHES: 0
LLC MPKI TOTAL: 14.9314 MSHR LATE: 0.048645 PQ LATE: 0 COMMIT LATE: 0 MISSED OPPORTUNITY: 0 UNCOVERED: 0
LLC PREFETCHES SAME FILL-ORIGIN LEVEL: 766504 DIFFERENT FILL-ORIGIN LEVEL: 0
LLC AVERAGE MISS LATENCY: 132.035 cycles
LLC AVERAGE MISS LATENCY LOAD: 176.367 cycles
LLC AVERAGE MISS LATENCY PREFETCH: 207.747 cycles
LLC AVERAGE MSHR OCCUPANCY: 2.3514
LLC MSHR FULL: 0
LLC RQ	ACCESS:    7299536	FORWARD:          0	MERGED:          0	TO_CACHE:    7299477
LLC WQ	ACCESS:    6634006	FORWARD:         92	MERGED:          0	TO_CACHE:    6634006
LLC PQ	ACCESS:    4100910	FORWARD:          0	MERGED:      47997	TO_CACHE:    4052880

LLC Dense regions hint to LLC: 0

RAW hits: 62573
Loads Generated: 76764935
Loads sent to L1D: 76702359
Stores Generated: 2241351
Stores sent to L1D: 2241352
Major fault: 0 Minor fault: 36864
Allocated PAGES: 36864
Total Load insts: 93558363
Total Non-spec loads: 6331715
Percentage of speculative loads: 93.2323

LeapFrogging counter: 263646
Commit hits: 24003712 miss: 47419984
Commit hit %: 33.6075 miss %: 66.3925
Commits not translated: 0
Loads retired: 10953620
Stores retired: 2241352
Cache fills: 10953628
L1D response latency: 76.3913 cycles
Load retirement latency: 171.03 cycles
OOO test counter: 0
Discarded buffer inserts: 24003712 hits: 111693 hit %: 0.465316
Filter prediction accuracy: 97.904
------------------
Depth Distribution
------------------
depth 0: 33858131
depth 1: 33315775
depth 2: 7200616
depth 3: 7021458
depth 4: 7500029
depth 5: 3981392
depth 6: 660783
depth 7: 89191
depth 8: 15458
depth 9: 8115
depth 10: 1118
depth 11: 2180
depth 12: 1060
depth 13: 262
depth 14: 808
depth 15: 18
depth 16: 3
depth 17: 0
depth 18: 0
depth 19: 0
depth 20: 0
depth 21: 0
depth 22: 0
depth 23: 0
depth 24: 0
depth 25: 0
depth 26: 0
depth 27: 0
depth 28: 0
depth 29: 0
Total: 93656397
------------------
ST read accesses: 72957033
ST write accesses: 3807888
PT read accesses: 867583594
PT write accesses: 38085267
FILTER read accesses: 251325903
FILTER write accesses: 45144531
GHR read accesses: 39451520
GHR write accesses: 1624581
PERC read accesses: 6440646204
PERC write accesses: 46361045
GHR counter read accesses: 153529842
GHR counter write accesses: 82838325
GHR ip read accesses: 301287840
GHR ip write accesses: 307059684
ST tag read accesses: 26732135396
ST tag write accesses: 1182888072

DRAM Statistics
 CHANNEL 0
 RQ ROW_BUFFER_HIT:    1116112  ROW_BUFFER_MISS:    4883312
 DBUS_CONGESTED:       3489
 WQ ROW_BUFFER_HIT:    1334451  ROW_BUFFER_MISS:    2624558  FULL:       1621

 AVG_CONGESTED_CYCLE: 5
 All warmup complete: 2
Channel 0 Bank busy for read cycles: 0
Channel 0 Bank busy for write cycles: 0
Channel 0
Rank 0
0banks busy for read cycles: 2627481
0banks busy for write cycles: 10588
1banks busy for read cycles: 139610018
1banks busy for write cycles: 3034701
2banks busy for read cycles: 105020123
2banks busy for write cycles: 3954936
3banks busy for read cycles: 62718262
3banks busy for write cycles: 4911998
4banks busy for read cycles: 30816109
4banks busy for write cycles: 6114963
5banks busy for read cycles: 13384183
5banks busy for write cycles: 8081804
6banks busy for read cycles: 5604615
6banks busy for write cycles: 12850853
7banks busy for read cycles: 2516304
7banks busy for write cycles: 30156013
8banks busy for read cycles: 2307336
8banks busy for write cycles: 76972660

CPU 0 Branch Prediction Accuracy: 97.7638% MPKI: 3.32603 Average ROB Occupancy at Mispredict: 160.936
Branch types
NOT_BRANCH: 170252779 85.1264%
BRANCH_DIRECT_JUMP: 9217196 4.6086%
BRANCH_INDIRECT: 0 0%
BRANCH_CONDITIONAL: 20527371 10.2637%
BRANCH_DIRECT_CALL: 1324 0.000662%
BRANCH_INDIRECT_CALL: 0 0%
BRANCH_RETURN: 1324 0.000662%
BRANCH_OTHER: 0 0%

DRAM PAGES: 1048576
Allocated PAGES: 36864
