Initialize SIGNATURE TABLE
ST_SET: 1
ST_WAY: 256
ST_TAG_BIT: 16
ST_TAG_MASK: ffff

Initialize PATTERN TABLE
PT_SET: 512
PT_WAY: 4
SIG_DELTA_BIT: 7
C_SIG_BIT: 4
C_DELTA_BIT: 4

Initialize PREFETCH FILTER
FILTER_SET: 1024

Initialize PERCEPTRON
PERC_ENTRIES: 4096
PERC_FEATURES: 9
Initialize SIGNATURE TABLE
ST_SET: 1
ST_WAY: 256
ST_TAG_BIT: 16
ST_TAG_MASK: ffff

Initialize PATTERN TABLE
PT_SET: 512
PT_WAY: 4
SIG_DELTA_BIT: 7
C_SIG_BIT: 4
C_DELTA_BIT: 4

Initialize PREFETCH FILTER
FILTER_SET: 1024

Initialize PERCEPTRON
PERC_ENTRIES: 4096
PERC_FEATURES: 9

*** ChampSim Multicore Out-of-Order Simulator ***

Warmup Instructions: 50000000
Simulation Instructions: 200000000
Number of CPUs: 1
LLC sets: 2048
LLC ways: 16
L0D sets: 16
L0D ways: 2
ROB size: 352
LQ size: 128
SQ size: 72
Secure Berti: OFF
Berti: OFF
Berti Fill: OFF
On commit prefetching: OFF
Hit-based filter: OFF
Time-guarding: ON
Free-slotting: ON
Leap-frogging: ON
Train prefetcher on L0D bypass: OFF
No translation penalty for prefetchers: OFF
Prefetch to L0D only: OFF
Prefetch to L1D only: OFF
Clean evictions: ON
Commit loads: ON
Commit write: ON
Fill commit loads to L2C, LLC: ON
DRAM IO FREQUENCY: 6400
ROB SIZE: 352
Off-chip DRAM Size: 4096 MB Channels: 1 Width: 64-bit Data Rate: 6400 MT/s
CPU 0 runs /home/sumon/secure_berti/GhostMinion/../../traces/spec/607.cactuBSSN_s-2421B.champsimtrace.xz
.xz
BTB has LRU replacement policy
ITLB has LRU replacement policy
DTLB has LRU replacement policy
STLB has LRU replacement policy
L1I has LRU replacement policy
L0D has LRU replacement policy
L1D has LRU replacement policy
PERC_ENTRIES: 4096
L2C has LRU replacement policy
LLC has LRU replacement policy
Heartbeat CPU 0 instructions: 10000002 cycles: 4548619 heartbeat IPC: 2.19847 cumulative IPC: 2.19847 (Simulation time: 0 hr 2 min 6 sec) 
Heartbeat CPU 0 instructions: 20000001 cycles: 9089737 heartbeat IPC: 2.2021 cumulative IPC: 2.20028 (Simulation time: 0 hr 4 min 42 sec) 
Heartbeat CPU 0 instructions: 30000002 cycles: 13638359 heartbeat IPC: 2.19847 cumulative IPC: 2.19968 (Simulation time: 0 hr 7 min 17 sec) 
Heartbeat CPU 0 instructions: 40000001 cycles: 18186795 heartbeat IPC: 2.19856 cumulative IPC: 2.1994 (Simulation time: 0 hr 9 min 52 sec) 
Heartbeat CPU 0 instructions: 50000003 cycles: 22737711 heartbeat IPC: 2.19736 cumulative IPC: 2.19899 (Simulation time: 0 hr 12 min 26 sec) 

Warmup complete CPU 0 instructions: 50000003 cycles: 22737711 (Simulation time: 0 hr 12 min 26 sec) 

Heartbeat CPU 0 instructions: 60000002 cycles: 35398999 heartbeat IPC: 0.789809 cumulative IPC: 0.789809 (Simulation time: 0 hr 15 min 14 sec) 
Heartbeat CPU 0 instructions: 70000000 cycles: 47126394 heartbeat IPC: 0.852704 cumulative IPC: 0.820052 (Simulation time: 0 hr 17 min 47 sec) 
Heartbeat CPU 0 instructions: 80000001 cycles: 58351535 heartbeat IPC: 0.890858 cumulative IPC: 0.842369 (Simulation time: 0 hr 20 min 19 sec) 
Heartbeat CPU 0 instructions: 90000000 cycles: 69958116 heartbeat IPC: 0.86158 cumulative IPC: 0.847091 (Simulation time: 0 hr 22 min 53 sec) 
Heartbeat CPU 0 instructions: 100000000 cycles: 81359469 heartbeat IPC: 0.877089 cumulative IPC: 0.852926 (Simulation time: 0 hr 25 min 26 sec) 
Heartbeat CPU 0 instructions: 110000000 cycles: 92797729 heartbeat IPC: 0.874259 cumulative IPC: 0.856409 (Simulation time: 0 hr 27 min 59 sec) 
Heartbeat CPU 0 instructions: 120000000 cycles: 104500298 heartbeat IPC: 0.854513 cumulative IPC: 0.856137 (Simulation time: 0 hr 30 min 33 sec) 
Heartbeat CPU 0 instructions: 130000002 cycles: 116176501 heartbeat IPC: 0.856443 cumulative IPC: 0.856175 (Simulation time: 0 hr 33 min 8 sec) 
Heartbeat CPU 0 instructions: 140000000 cycles: 127858307 heartbeat IPC: 0.856032 cumulative IPC: 0.85616 (Simulation time: 0 hr 35 min 42 sec) 
Heartbeat CPU 0 instructions: 150000001 cycles: 139373466 heartbeat IPC: 0.868421 cumulative IPC: 0.85737 (Simulation time: 0 hr 38 min 15 sec) 
Heartbeat CPU 0 instructions: 160000002 cycles: 150530949 heartbeat IPC: 0.89626 cumulative IPC: 0.860765 (Simulation time: 0 hr 40 min 1 sec) 
Heartbeat CPU 0 instructions: 170000002 cycles: 162143470 heartbeat IPC: 0.861139 cumulative IPC: 0.860797 (Simulation time: 0 hr 41 min 40 sec) 
Heartbeat CPU 0 instructions: 180000001 cycles: 173874462 heartbeat IPC: 0.852443 cumulative IPC: 0.860148 (Simulation time: 0 hr 43 min 20 sec) 
Heartbeat CPU 0 instructions: 190000000 cycles: 185621073 heartbeat IPC: 0.851309 cumulative IPC: 0.859511 (Simulation time: 0 hr 44 min 59 sec) 
Heartbeat CPU 0 instructions: 200000001 cycles: 197270995 heartbeat IPC: 0.858375 cumulative IPC: 0.859435 (Simulation time: 0 hr 46 min 39 sec) 
Heartbeat CPU 0 instructions: 210000003 cycles: 208963259 heartbeat IPC: 0.855267 cumulative IPC: 0.859173 (Simulation time: 0 hr 48 min 17 sec) 
Heartbeat CPU 0 instructions: 220000000 cycles: 220293099 heartbeat IPC: 0.882625 cumulative IPC: 0.860518 (Simulation time: 0 hr 49 min 55 sec) 
Heartbeat CPU 0 instructions: 230000003 cycles: 231877572 heartbeat IPC: 0.863225 cumulative IPC: 0.860668 (Simulation time: 0 hr 51 min 32 sec) 
Heartbeat CPU 0 instructions: 240000000 cycles: 243503534 heartbeat IPC: 0.860144 cumulative IPC: 0.86064 (Simulation time: 0 hr 53 min 10 sec) 
Heartbeat CPU 0 instructions: 250000002 cycles: 255062093 heartbeat IPC: 0.86516 cumulative IPC: 0.860865 (Simulation time: 0 hr 54 min 46 sec) 
Finished CPU 0 instructions: 200000003 cycles: 232324383 cumulative IPC: 0.860865 (Simulation time: 0 hr 54 min 46 sec) 
 Instruction ID: 250000065

ChampSim completed all CPUs

Region of Interest Statistics

CPU 0 cumulative IPC: 0.860865 instructions: 200000003 cycles: 232324383
ITLB SPEC fills:          0  NON-SPEC fills:          0
ITLB Test counter :          0
ITLB Leapfrog:          0
ITLB MSHR merge:          0
ITLB TOTAL     ACCESS:   26485161  HIT:   26485111  MISS:         50  HIT %:    99.9998  MISS %: 0.000188785   MPKI: 0.00025
ITLB LOAD TRANSLATION NON_SPEC    ACCESS:   26485161  HIT:   26485111  MISS:         50  HIT %:    99.9998  MISS %: 0.000188785   MPKI: 0.00025
ITLB PREFETCH  REQUESTED:          0  ISSUED:          0  USEFUL:          0  USELESS:          0
ITLB USEFUL LOAD PREFETCHES:          0 PREFETCH ISSUED TO LOWER LEVEL:          0  ACCURACY: -nan
ITLB TIMELY PREFETCHES:          0 LATE PREFETCHES: 0 DROPPED PREFETCHES: 0
ITLB COMMIT LATE PREFETCHES: 0 NORMAL LATE: 0 MISSED OPPORTUNITY: 0 UNCOVERED: 0
ITLB PREFETCHES SAME FILL-ORIGIN LEVEL: 0 DIFFERENT FILL-ORIGIN LEVEL: 0
ITLB AVERAGE MISS LATENCY: 438.68 cycles
ITLB AVERAGE MISS LATENCY LOAD: -nan cycles
ITLB AVERAGE MISS LATENCY PREFETCH: -nan cycles
ITLB AVERAGE MSHR OCCUPANCY: 3.39813e-07
ITLB MSHR FULL: 0
ITLB RQ	ACCESS:   34833298	FORWARD:          0	MERGED:    8348129	TO_CACHE:   26485169

DTLB SPEC fills:          0  NON-SPEC fills:          0
DTLB Test counter :          0
DTLB Leapfrog:          0
DTLB MSHR merge:          0
DTLB TOTAL     ACCESS:   44746621  HIT:   29739215  MISS:   15007406  HIT %:    66.4614  MISS %:    33.5386   MPKI: 75.037
DTLB LOAD TRANSLATION NON_SPEC    ACCESS:   44746621  HIT:   29739215  MISS:   15007406  HIT %:    66.4614  MISS %:    33.5386   MPKI: 75.037
DTLB PREFETCH  REQUESTED:          0  ISSUED:          0  USEFUL:          0  USELESS:          0
DTLB USEFUL LOAD PREFETCHES:          0 PREFETCH ISSUED TO LOWER LEVEL:          0  ACCURACY: -nan
DTLB TIMELY PREFETCHES:          0 LATE PREFETCHES: 0 DROPPED PREFETCHES: 0
DTLB COMMIT LATE PREFETCHES: 0 NORMAL LATE: 0 MISSED OPPORTUNITY: 0 UNCOVERED: 0
DTLB PREFETCHES SAME FILL-ORIGIN LEVEL: 0 DIFFERENT FILL-ORIGIN LEVEL: 0
DTLB AVERAGE MISS LATENCY: 10.0875 cycles
DTLB AVERAGE MISS LATENCY LOAD: -nan cycles
DTLB AVERAGE MISS LATENCY PREFETCH: -nan cycles
DTLB AVERAGE MSHR OCCUPANCY: 1.10519
DTLB MSHR FULL: 0.0382131
DTLB RQ	ACCESS:   63280654	FORWARD:          0	MERGED:   17496152	TO_CACHE:   45784502

STLB SPEC fills:          0  NON-SPEC fills:          0
STLB Test counter :          0
STLB Leapfrog:          0
STLB MSHR merge:          0
STLB TOTAL     ACCESS:   15007456  HIT:   14982904  MISS:      24552  HIT %:    99.8364  MISS %:   0.163599   MPKI: 0.12276
STLB LOAD TRANSLATION NON_SPEC    ACCESS:   15007456  HIT:   14982904  MISS:      24552  HIT %:    99.8364  MISS %:   0.163599   MPKI: 0.12276
STLB PREFETCH  REQUESTED:          0  ISSUED:          0  USEFUL:          0  USELESS:          0
STLB USEFUL LOAD PREFETCHES:          0 PREFETCH ISSUED TO LOWER LEVEL:          0  ACCURACY: -nan
STLB TIMELY PREFETCHES:          0 LATE PREFETCHES: 0 DROPPED PREFETCHES: 0
STLB COMMIT LATE PREFETCHES: 0 NORMAL LATE: 0 MISSED OPPORTUNITY: 0 UNCOVERED: 0
STLB PREFETCHES SAME FILL-ORIGIN LEVEL: 0 DIFFERENT FILL-ORIGIN LEVEL: 0
STLB AVERAGE MISS LATENCY: 473.458 cycles
STLB AVERAGE MISS LATENCY LOAD: -nan cycles
STLB AVERAGE MISS LATENCY PREFETCH: -nan cycles
STLB AVERAGE MSHR OCCUPANCY: 0.0117272
STLB MSHR FULL: 0
STLB RQ	ACCESS:   15007457	FORWARD:          0	MERGED:          0	TO_CACHE:   15007457

STLB Hit, L1D data hit: 0
STLB Hit, L2C data hit: 0
STLB Hit, LLC data hit: 0
STLB Hit, LLC data miss: 0
STLB STLB hints to L2: 0
L0D SPEC fills:   31856557  NON-SPEC fills:          0
L0D TimeGuard Request with older TS:     423491 Restricted eviction:    1018443 read:     125266
L0D Test counter :          0
L0D Leapfrog:          0
L0D MSHR merge:    2735050
L0D TOTAL     ACCESS:   37760498  HIT:    3828145  MISS:   33932353  HIT %:     10.138  MISS %:     89.862   MPKI: 169.662
L0D LOAD      TOTAL       ACCESS:   37760498  HIT:    3828145  MISS:   33932353  HIT %:     10.138  MISS %:     89.862   MPKI: 169.662
L0D LOAD      NON_SPEC    ACCESS:    1115642  HIT:      58287  MISS:    1057355  HIT %:    5.22453  MISS %:    94.7755   MPKI: 5.28677
L0D LOAD      SPEC        ACCESS:   36644856  HIT:    3769858  MISS:   32874998  HIT %:    10.2876  MISS %:    89.7124   MPKI: 164.375
L0D PREFETCH  REQUESTED:          0  ISSUED:          0  USEFUL:          0  USELESS:          0
L0D USEFUL LOAD PREFETCHES:          0 PREFETCH ISSUED TO LOWER LEVEL:          0  ACCURACY: -nan
L0D TIMELY PREFETCHES:          0 LATE PREFETCHES: 0 DROPPED PREFETCHES: 0
L0D COMMIT LATE PREFETCHES: 0 NORMAL LATE: 0 MISSED OPPORTUNITY: 0 UNCOVERED: 33932353
L0D PREFETCHES SAME FILL-ORIGIN LEVEL: 0 DIFFERENT FILL-ORIGIN LEVEL: 0
L0D AVERAGE MISS LATENCY: 14.9232 cycles
L0D AVERAGE MISS LATENCY LOAD: 14.9232 cycles
L0D AVERAGE MISS LATENCY PREFETCH: -nan cycles
L0D AVERAGE MSHR OCCUPANCY: 3.22649
L0D MSHR FULL: 0.187097
L0D RQ	ACCESS:   57218520	FORWARD:          0	MERGED:   16722980	TO_CACHE:   40495540
L0D WQ	ACCESS:   22785114	FORWARD:          0	MERGED:          0	TO_CACHE:   22785114

L1D SPEC fills:          0  NON-SPEC fills:     392579
L1D Test counter :          0
L1D Leapfrog:          0
L1D MSHR merge:      61060
L1D TOTAL     ACCESS:   97276356  HIT:   52458626  MISS:   44817730  HIT %:    53.9274  MISS %:    46.0726   MPKI: 224.089
L1D LOAD      TOTAL       ACCESS:   33871291  HIT:   12396741  MISS:   21474550  HIT %:    36.5996  MISS %:    63.4004   MPKI: 107.373
L1D LOAD      NON_SPEC    ACCESS:    1054343  HIT:     661764  MISS:     392579  HIT %:    62.7655  MISS %:    37.2345   MPKI: 1.96289
L1D LOAD      SPEC        ACCESS:   32816948  HIT:   11734977  MISS:   21081971  HIT %:    35.7589  MISS %:    64.2411   MPKI: 105.41
L1D RFO       NON_SPEC    ACCESS:   21293450  HIT:   19686159  MISS:    1607291  HIT %:    92.4517  MISS %:    7.54829   MPKI: 8.03645
L1D COMMIT LOAD NON_SPEC    ACCESS:   10636235  HIT:    9369615  MISS:    1266620  HIT %:    88.0915  MISS %:    11.9085   MPKI: 6.3331
L1D COMMIT WRITE NON_SPEC    ACCESS:   31475380  HIT:   11006111  MISS:   20469269  HIT %:    34.9674  MISS %:    65.0326   MPKI: 102.346
L1D PREFETCH  REQUESTED:          0  ISSUED:          0  USEFUL:          0  USELESS:          0
L1D USEFUL LOAD PREFETCHES:          0 PREFETCH ISSUED TO LOWER LEVEL:          0  ACCURACY: -nan
L1D TIMELY PREFETCHES:          0 LATE PREFETCHES: 0 DROPPED PREFETCHES: 0
L1D COMMIT LATE PREFETCHES: 0 NORMAL LATE: 0 MISSED OPPORTUNITY: 0 UNCOVERED: 21474550
L1D PREFETCHES SAME FILL-ORIGIN LEVEL: 0 DIFFERENT FILL-ORIGIN LEVEL: 0
L1D AVERAGE MISS LATENCY: 7.87961 cycles
L1D AVERAGE MISS LATENCY LOAD: 14.218 cycles
L1D AVERAGE MISS LATENCY PREFETCH: -nan cycles
L1D AVERAGE MSHR OCCUPANCY: 1.66763
L1D MSHR FULL: 0.00217485
L1D RQ	ACCESS:   58487627	FORWARD:          0	MERGED:   13899146	TO_CACHE:   44587247
L1D WQ	ACCESS:   54260964	FORWARD:       1234	MERGED:    1375349	TO_CACHE:   52885615

L1D UNIQUE REGIONS ACCESSED: 0
L1D REGIONS CONFLICTS: 0
L1D Cross Page Prefetch Requests: 0
L1D Same Page Prefetch Requests: 0
L1D ROI Sum of L1D PQ occupancy: 0
L1D PREFETCHES PUSHED FROM L2C: 0
L1I SPEC fills:          0  NON-SPEC fills:          0
L1I Test counter :          0
L1I Leapfrog:          0
L1I MSHR merge:      24706
L1I TOTAL     ACCESS:   34808593  HIT:   34758936  MISS:      49657  HIT %:    99.8573  MISS %:   0.142657   MPKI: 0.248285
L1I LOAD      TOTAL       ACCESS:   34808593  HIT:   34758936  MISS:      49657  HIT %:    99.8573  MISS %:   0.142657   MPKI: 0.248285
L1I LOAD      NON_SPEC    ACCESS:   34808593  HIT:   34758936  MISS:      49657  HIT %:    99.8573  MISS %:   0.142657   MPKI: 0.248285
L1I PREFETCH  REQUESTED:          0  ISSUED:          0  USEFUL:          0  USELESS:          0
L1I USEFUL LOAD PREFETCHES:          0 PREFETCH ISSUED TO LOWER LEVEL:          0  ACCURACY: -nan
L1I TIMELY PREFETCHES:          0 LATE PREFETCHES: 0 DROPPED PREFETCHES: 0
L1I COMMIT LATE PREFETCHES: 0 NORMAL LATE: 0 MISSED OPPORTUNITY: 0 UNCOVERED: 49657
L1I PREFETCHES SAME FILL-ORIGIN LEVEL: 0 DIFFERENT FILL-ORIGIN LEVEL: 0
L1I AVERAGE MISS LATENCY: 17.6417 cycles
L1I AVERAGE MISS LATENCY LOAD: 17.6417 cycles
L1I AVERAGE MISS LATENCY PREFETCH: -nan cycles
L1I AVERAGE MSHR OCCUPANCY: 0.00193361
L1I MSHR FULL: 0
L1I RQ	ACCESS:   51227008	FORWARD:          0	MERGED:   16393710	TO_CACHE:   34833298

BTB SPEC fills:          0  NON-SPEC fills:          0
BTB Test counter :          0
BTB Leapfrog:          0
BTB MSHR merge:          0
BTB TOTAL     ACCESS:     207305  HIT:     204093  MISS:       3212  HIT %:    98.4506  MISS %:    1.54941   MPKI: 0.01606
BTB BRANCH_DIRECT_JUMP	ACCESS:      61458  HIT:      61423  MISS:         35
BTB BRANCH_INDIRECT	ACCESS:      58898  HIT:      58820  MISS:         78
BTB BRANCH_CONDITIONAL	ACCESS:      74915  HIT:      74516  MISS:        399
BTB BRANCH_DIRECT_CALL	ACCESS:       6013  HIT:       5388  MISS:        625
BTB BRANCH_INDIRECT_CALL	ACCESS:          3  HIT:          0  MISS:          3
BTB BRANCH_RETURN	ACCESS:       6018  HIT:       3946  MISS:       2072
BTB BRANCH_OTHER ACCESS:          0  HIT:          0  MISS:          0

L2C SPEC fills:          0  NON-SPEC fills:       4234
L2C Test counter :          0
L2C Leapfrog:          0
L2C MSHR merge:       6727
L2C TOTAL     ACCESS:   56106014  HIT:   52951260  MISS:    3154754  HIT %:    94.3772  MISS %:    5.62284   MPKI: 15.7738
L2C LOAD      TOTAL       ACCESS:   21155597  HIT:   20934218  MISS:     221379  HIT %:    98.9536  MISS %:    1.04643   MPKI: 1.10689
L2C LOAD      NON_SPEC    ACCESS:     423291  HIT:     418181  MISS:       5110  HIT %:    98.7928  MISS %:    1.20721   MPKI: 0.02555
L2C LOAD      SPEC        ACCESS:   20732306  HIT:   20516037  MISS:     216269  HIT %:    98.9569  MISS %:    1.04315   MPKI: 1.08134
L2C RFO       NON_SPEC    ACCESS:    1602962  HIT:    1599014  MISS:       3948  HIT %:    99.7537  MISS %:   0.246294   MPKI: 0.01974
L2C PREFETCH  NON_SPEC    ACCESS:    9945106  HIT:    7284629  MISS:    2660477  HIT %:    73.2484  MISS %:    26.7516   MPKI: 13.3024
L2C WRITEBACK NON_SPEC    ACCESS:    1611945  HIT:    1611759  MISS:        186  HIT %:    99.9885  MISS %:  0.0115389   MPKI: 0.00093
L2C CLEAN_EVICTION NON_SPEC    ACCESS:   20479550  HIT:   20259256  MISS:     220294  HIT %:    98.9243  MISS %:    1.07568   MPKI: 1.10147
L2C COMMIT LOAD NON_SPEC    ACCESS:    1188167  HIT:    1173394  MISS:      14773  HIT %:    98.7567  MISS %:    1.24334   MPKI: 0.073865
L2C LOAD TRANSLATION NON_SPEC    ACCESS:     122687  HIT:      88990  MISS:      33697  HIT %:    72.5342  MISS %:    27.4658   MPKI: 0.168485
L2C PREFETCH  REQUESTED:   11479110  ISSUED:   11470744  USEFUL:    2053111  USELESS:     608042
L2C USEFUL LOAD PREFETCHES:    2053111 PREFETCH ISSUED TO LOWER LEVEL:    4056438  ACCURACY: 50.6136
L2C TIMELY PREFETCHES:    2053111 LATE PREFETCHES: 6805 DROPPED PREFETCHES: 0
L2C COMMIT LATE PREFETCHES: 0 NORMAL LATE: 6805 MISSED OPPORTUNITY: 0 UNCOVERED: 214574
L2C PREFETCHES SAME FILL-ORIGIN LEVEL: 2667282 DIFFERENT FILL-ORIGIN LEVEL: 1389156
L2C AVERAGE MISS LATENCY: 278.966 cycles
L2C AVERAGE MISS LATENCY LOAD: 285.534 cycles
L2C AVERAGE MISS LATENCY PREFETCH: 304.847 cycles
L2C AVERAGE MSHR OCCUPANCY: 3.54454
L2C MSHR FULL: 0.0379004
L2C RQ	ACCESS:   24520806	FORWARD:          0	MERGED:          0	TO_CACHE:   24069413
L2C WQ	ACCESS:   22092612	FORWARD:     451892	MERGED:       1117	TO_CACHE:   22091495
L2C PQ	ACCESS:   11470744	FORWARD:          0	MERGED:      80385	TO_CACHE:   11389860

L2C Instructions Evicting Data 867
L2C Translations Evicting Data 32779
L2C Data Evicting Data 2652483
L2C Instructions Evicting Instructions 2
L2C Translations Evicting Instructions 1
L2C Data Evicting Instructions 894
L2C Instructions Evicting Translations 7
L2C Translations Evicting Translations 917
L2C Data Evicting Translations 30055
L2C Dense regions hint from L2: 0
PSCL5 SPEC fills:          0  NON-SPEC fills:          0
PSCL5 Test counter :          0
PSCL5 Leapfrog:          0
PSCL5 MSHR merge:          0
PSCL5 TOTAL     ACCESS:          0  HIT:          0  MISS:          0  HIT %:       -nan  MISS %:       -nan   MPKI: 0
PSCL5 PREFETCH  REQUESTED:          0  ISSUED:          0  USEFUL:          0  USELESS:          0
PSCL5 USEFUL LOAD PREFETCHES:          0 PREFETCH ISSUED TO LOWER LEVEL:          0  ACCURACY: -nan
PSCL5 TIMELY PREFETCHES:          0 LATE PREFETCHES: 0 DROPPED PREFETCHES: 0
PSCL5 COMMIT LATE PREFETCHES: 0 NORMAL LATE: 0 MISSED OPPORTUNITY: 0 UNCOVERED: 0
PSCL5 PREFETCHES SAME FILL-ORIGIN LEVEL: 0 DIFFERENT FILL-ORIGIN LEVEL: 0

PSCL4 SPEC fills:          0  NON-SPEC fills:          0
PSCL4 Test counter :          0
PSCL4 Leapfrog:          0
PSCL4 MSHR merge:          0
PSCL4 TOTAL     ACCESS:          0  HIT:          0  MISS:          0  HIT %:       -nan  MISS %:       -nan   MPKI: 0
PSCL4 PREFETCH  REQUESTED:          0  ISSUED:          0  USEFUL:          0  USELESS:          0
PSCL4 USEFUL LOAD PREFETCHES:          0 PREFETCH ISSUED TO LOWER LEVEL:          0  ACCURACY: -nan
PSCL4 TIMELY PREFETCHES:          0 LATE PREFETCHES: 0 DROPPED PREFETCHES: 0
PSCL4 COMMIT LATE PREFETCHES: 0 NORMAL LATE: 0 MISSED OPPORTUNITY: 0 UNCOVERED: 0
PSCL4 PREFETCHES SAME FILL-ORIGIN LEVEL: 0 DIFFERENT FILL-ORIGIN LEVEL: 0

PSCL3 SPEC fills:          0  NON-SPEC fills:          0
PSCL3 Test counter :          0
PSCL3 Leapfrog:          0
PSCL3 MSHR merge:          0
PSCL3 TOTAL     ACCESS:          0  HIT:          0  MISS:          0  HIT %:       -nan  MISS %:       -nan   MPKI: 0
PSCL3 PREFETCH  REQUESTED:          0  ISSUED:          0  USEFUL:          0  USELESS:          0
PSCL3 USEFUL LOAD PREFETCHES:          0 PREFETCH ISSUED TO LOWER LEVEL:          0  ACCURACY: -nan
PSCL3 TIMELY PREFETCHES:          0 LATE PREFETCHES: 0 DROPPED PREFETCHES: 0
PSCL3 COMMIT LATE PREFETCHES: 0 NORMAL LATE: 0 MISSED OPPORTUNITY: 0 UNCOVERED: 0
PSCL3 PREFETCHES SAME FILL-ORIGIN LEVEL: 0 DIFFERENT FILL-ORIGIN LEVEL: 0

PSCL2 SPEC fills:          0  NON-SPEC fills:          0
PSCL2 Test counter :          0
PSCL2 Leapfrog:          0
PSCL2 MSHR merge:          0
PSCL2 TOTAL     ACCESS:          0  HIT:          0  MISS:          0  HIT %:       -nan  MISS %:       -nan   MPKI: 0
PSCL2 PREFETCH  REQUESTED:          0  ISSUED:          0  USEFUL:          0  USELESS:          0
PSCL2 USEFUL LOAD PREFETCHES:          0 PREFETCH ISSUED TO LOWER LEVEL:          0  ACCURACY: -nan
PSCL2 TIMELY PREFETCHES:          0 LATE PREFETCHES: 0 DROPPED PREFETCHES: 0
PSCL2 COMMIT LATE PREFETCHES: 0 NORMAL LATE: 0 MISSED OPPORTUNITY: 0 UNCOVERED: 0
PSCL2 PREFETCHES SAME FILL-ORIGIN LEVEL: 0 DIFFERENT FILL-ORIGIN LEVEL: 0

LLC SPEC fills:          0  NON-SPEC fills:       1977
LLC Test counter :          0
LLC Leapfrog:          0
LLC MSHR merge:          0
LLC TOTAL     ACCESS:    6614456  HIT:    4941419  MISS:    1673037  HIT %:    74.7064  MISS %:    25.2936   MPKI: 8.36518
LLC LOAD      TOTAL       ACCESS:     214547  HIT:      87277  MISS:     127270  HIT %:    40.6797  MISS %:    59.3203   MPKI: 0.63635
LLC LOAD      NON_SPEC    ACCESS:       4881  HIT:       2067  MISS:       2814  HIT %:    42.3479  MISS %:    57.6521   MPKI: 0.01407
LLC LOAD      SPEC        ACCESS:     209666  HIT:      85210  MISS:     124456  HIT %:    40.6408  MISS %:    59.3592   MPKI: 0.62228
LLC RFO       NON_SPEC    ACCESS:       2798  HIT:       1695  MISS:       1103  HIT %:     60.579  MISS %:     39.421   MPKI: 0.005515
LLC PREFETCH  NON_SPEC    ACCESS:    4055690  HIT:    2644800  MISS:    1410890  HIT %:    65.2121  MISS %:    34.7879   MPKI: 7.05445
LLC WRITEBACK NON_SPEC    ACCESS:     136745  HIT:     136562  MISS:        183  HIT %:    99.8662  MISS %:   0.133826   MPKI: 0.000915
LLC CLEAN_EVICTION NON_SPEC    ACCESS:    2156287  HIT:    2033055  MISS:     123232  HIT %:     94.285  MISS %:    5.71501   MPKI: 0.61616
LLC COMMIT LOAD NON_SPEC    ACCESS:      14692  HIT:       7900  MISS:       6792  HIT %:    53.7708  MISS %:    46.2292   MPKI: 0.03396
LLC LOAD TRANSLATION NON_SPEC    ACCESS:      33697  HIT:      30130  MISS:       3567  HIT %:    89.4145  MISS %:    10.5855   MPKI: 0.017835
LLC PREFETCH  REQUESTED:          0  ISSUED:          0  USEFUL:      63729  USELESS:    1340051
LLC USEFUL LOAD PREFETCHES:      63729 PREFETCH ISSUED TO LOWER LEVEL:    1419399  ACCURACY: 4.48986
LLC TIMELY PREFETCHES:      63729 LATE PREFETCHES: 0 DROPPED PREFETCHES: 0
LLC COMMIT LATE PREFETCHES: 0 NORMAL LATE: 0 MISSED OPPORTUNITY: 0 UNCOVERED: 127270
LLC PREFETCHES SAME FILL-ORIGIN LEVEL: 305220 DIFFERENT FILL-ORIGIN LEVEL: 0
LLC AVERAGE MISS LATENCY: 594.97 cycles
LLC AVERAGE MISS LATENCY LOAD: 457.34 cycles
LLC AVERAGE MISS LATENCY PREFETCH: 661.244 cycles
LLC AVERAGE MSHR OCCUPANCY: 10.1369
LLC MSHR FULL: 0
LLC RQ	ACCESS:     266992	FORWARD:          0	MERGED:          0	TO_CACHE:     265734
LLC WQ	ACCESS:    2293032	FORWARD:       1607	MERGED:          0	TO_CACHE:    2293032
LLC PQ	ACCESS:    4056438	FORWARD:          0	MERGED:         13	TO_CACHE:    4056076

LLC Dense regions hint to LLC: 0

RAW hits: 73235
Loads Generated: 57291759
Loads sent to L1D: 57218520
Stores Generated: 22785115
Stores sent to L1D: 22785114
Major fault: 0 Minor fault: 17275
Allocated PAGES: 17275
Total Load insts: 85999111
Total Non-spec loads: 2212131
Percentage of speculative loads: 97.4277

LeapFrogging counter: 3340890
Commit hits: 31475851 miss: 24555281
Commit hit %: 56.1756 miss %: 43.8244
Commits not translated: 0
Loads retired: 21474549
Stores retired: 22785114
Cache fills: 21474550
L1D response latency: 14.218 cycles
Load retirement latency: 63.1203 cycles
OOO test counter: 0
Discarded buffer inserts: 31475851 hits: 1064322 hit %: 3.38139
Filter prediction accuracy: -nan
------------------
Depth Distribution
------------------
depth 0: 4333516
depth 1: 929425
depth 2: 5868510
depth 3: 9698312
depth 4: 3758202
depth 5: 147795
depth 6: 18
depth 7: 0
depth 8: 0
depth 9: 0
depth 10: 0
depth 11: 0
depth 12: 0
depth 13: 0
depth 14: 0
depth 15: 0
depth 16: 0
depth 17: 0
depth 18: 0
depth 19: 0
depth 20: 0
depth 21: 0
depth 22: 0
depth 23: 0
depth 24: 0
depth 25: 0
depth 26: 0
depth 27: 0
depth 28: 0
depth 29: 0
Total: 24735778
------------------
ST read accesses: 21005126
ST write accesses: 100814
PT read accesses: 364827094
PT write accesses: 17987966
FILTER read accesses: 92917047
FILTER write accesses: 27642906
GHR read accesses: 111597350
GHR write accesses: 16244793
PERC read accesses: 2577636495
PERC write accesses: 64281770
GHR counter read accesses: 42211880
GHR counter write accesses: 35532457
GHR ip read accesses: 117060786
GHR ip write accesses: 84423760
ST tag read accesses: 8165103583
ST tag write accesses: 3213599393

DRAM Statistics
 CHANNEL 0
 RQ ROW_BUFFER_HIT:     627941  ROW_BUFFER_MISS:     921681
 DBUS_CONGESTED:        539
 WQ ROW_BUFFER_HIT:     474001  ROW_BUFFER_MISS:    1057259  FULL:        259

 AVG_CONGESTED_CYCLE: 5
 All warmup complete: 2
Channel 0 Bank busy for read cycles: 0
Channel 0 Bank busy for write cycles: 0
Channel 0
Rank 0
0banks busy for read cycles: 127429218
0banks busy for write cycles: 106388
1banks busy for read cycles: 13144997
1banks busy for write cycles: 13033717
2banks busy for read cycles: 7604391
2banks busy for write cycles: 6056814
3banks busy for read cycles: 6971099
3banks busy for write cycles: 4543162
4banks busy for read cycles: 6182383
4banks busy for write cycles: 4358718
5banks busy for read cycles: 6045822
5banks busy for write cycles: 4559159
6banks busy for read cycles: 5760274
6banks busy for write cycles: 5546702
7banks busy for read cycles: 4516193
7banks busy for write cycles: 6976583
8banks busy for read cycles: 1972713
8banks busy for write cycles: 7516051

CPU 0 Branch Prediction Accuracy: 99.5304% MPKI: 0.00654 Average ROB Occupancy at Mispredict: 30.8234
Branch types
NOT_BRANCH: 199721154 99.8606%
BRANCH_DIRECT_JUMP: 61458 0.030729%
BRANCH_INDIRECT: 58898 0.029449%
BRANCH_CONDITIONAL: 146150 0.073075%
BRANCH_DIRECT_CALL: 6013 0.0030065%
BRANCH_INDIRECT_CALL: 3 1.5e-06%
BRANCH_RETURN: 6018 0.003009%
BRANCH_OTHER: 0 0%

DRAM PAGES: 1048576
Allocated PAGES: 17275
