Initialize SIGNATURE TABLE
ST_SET: 1
ST_WAY: 256
ST_TAG_BIT: 16
ST_TAG_MASK: ffff

Initialize PATTERN TABLE
PT_SET: 512
PT_WAY: 4
SIG_DELTA_BIT: 7
C_SIG_BIT: 4
C_DELTA_BIT: 4

Initialize PREFETCH FILTER
FILTER_SET: 1024

Initialize PERCEPTRON
PERC_ENTRIES: 4096
PERC_FEATURES: 9
Initialize SIGNATURE TABLE
ST_SET: 1
ST_WAY: 256
ST_TAG_BIT: 16
ST_TAG_MASK: ffff

Initialize PATTERN TABLE
PT_SET: 512
PT_WAY: 4
SIG_DELTA_BIT: 7
C_SIG_BIT: 4
C_DELTA_BIT: 4

Initialize PREFETCH FILTER
FILTER_SET: 1024

Initialize PERCEPTRON
PERC_ENTRIES: 4096
PERC_FEATURES: 9

*** ChampSim Multicore Out-of-Order Simulator ***

Warmup Instructions: 50000000
Simulation Instructions: 200000000
Number of CPUs: 1
LLC sets: 2048
LLC ways: 16
L0D sets: 16
L0D ways: 2
ROB size: 352
LQ size: 128
SQ size: 72
Secure Berti: OFF
Berti: OFF
Berti Fill: OFF
On commit prefetching: OFF
Hit-based filter: OFF
Time-guarding: ON
Free-slotting: ON
Leap-frogging: ON
Train prefetcher on L0D bypass: OFF
No translation penalty for prefetchers: OFF
Prefetch to L0D only: OFF
Prefetch to L1D only: OFF
Clean evictions: ON
Commit loads: ON
Commit write: ON
Fill commit loads to L2C, LLC: ON
DRAM IO FREQUENCY: 6400
ROB SIZE: 352
Off-chip DRAM Size: 4096 MB Channels: 1 Width: 64-bit Data Rate: 6400 MT/s
CPU 0 runs /home/sumon/secure_berti/GhostMinion/../../traces/spec/619.lbm_s-3766B.champsimtrace.xz
.xz
BTB has LRU replacement policy
ITLB has LRU replacement policy
DTLB has LRU replacement policy
STLB has LRU replacement policy
L1I has LRU replacement policy
L0D has LRU replacement policy
L1D has LRU replacement policy
PERC_ENTRIES: 4096
L2C has LRU replacement policy
LLC has LRU replacement policy
Heartbeat CPU 0 instructions: 10000000 cycles: 2863544 heartbeat IPC: 3.49218 cumulative IPC: 3.49218 (Simulation time: 0 hr 1 min 15 sec) 
Heartbeat CPU 0 instructions: 20000002 cycles: 5729964 heartbeat IPC: 3.48867 cumulative IPC: 3.49042 (Simulation time: 0 hr 2 min 57 sec) 
Heartbeat CPU 0 instructions: 30000000 cycles: 8593519 heartbeat IPC: 3.49216 cumulative IPC: 3.491 (Simulation time: 0 hr 4 min 45 sec) 
Heartbeat CPU 0 instructions: 40000003 cycles: 11460026 heartbeat IPC: 3.48857 cumulative IPC: 3.49039 (Simulation time: 0 hr 6 min 37 sec) 
Heartbeat CPU 0 instructions: 50000000 cycles: 14326507 heartbeat IPC: 3.4886 cumulative IPC: 3.49003 (Simulation time: 0 hr 8 min 30 sec) 

Warmup complete CPU 0 instructions: 50000004 cycles: 14326508 (Simulation time: 0 hr 8 min 30 sec) 

Heartbeat CPU 0 instructions: 60000000 cycles: 24639290 heartbeat IPC: 0.96967 cumulative IPC: 0.96967 (Simulation time: 0 hr 11 min 22 sec) 
Heartbeat CPU 0 instructions: 70000001 cycles: 35132799 heartbeat IPC: 0.95297 cumulative IPC: 0.961248 (Simulation time: 0 hr 14 min 16 sec) 
Heartbeat CPU 0 instructions: 80000001 cycles: 45393554 heartbeat IPC: 0.974587 cumulative IPC: 0.965653 (Simulation time: 0 hr 17 min 6 sec) 
Heartbeat CPU 0 instructions: 90000001 cycles: 55906651 heartbeat IPC: 0.951195 cumulative IPC: 0.961998 (Simulation time: 0 hr 20 min 1 sec) 
Heartbeat CPU 0 instructions: 100000000 cycles: 66188239 heartbeat IPC: 0.972612 cumulative IPC: 0.964102 (Simulation time: 0 hr 22 min 52 sec) 
Heartbeat CPU 0 instructions: 110000000 cycles: 77393235 heartbeat IPC: 0.892459 cumulative IPC: 0.951373 (Simulation time: 0 hr 26 min 0 sec) 
Heartbeat CPU 0 instructions: 120000003 cycles: 89015802 heartbeat IPC: 0.860395 cumulative IPC: 0.937216 (Simulation time: 0 hr 28 min 11 sec) 
Heartbeat CPU 0 instructions: 130000000 cycles: 103487910 heartbeat IPC: 0.690984 cumulative IPC: 0.897249 (Simulation time: 0 hr 30 min 41 sec) 
Heartbeat CPU 0 instructions: 140000002 cycles: 119912834 heartbeat IPC: 0.608831 cumulative IPC: 0.852383 (Simulation time: 0 hr 33 min 32 sec) 
Heartbeat CPU 0 instructions: 150000000 cycles: 139626724 heartbeat IPC: 0.507256 cumulative IPC: 0.798083 (Simulation time: 0 hr 36 min 56 sec) 
Heartbeat CPU 0 instructions: 160000002 cycles: 164428416 heartbeat IPC: 0.403198 cumulative IPC: 0.732835 (Simulation time: 0 hr 41 min 14 sec) 
Heartbeat CPU 0 instructions: 170000003 cycles: 195288326 heartbeat IPC: 0.324045 cumulative IPC: 0.663123 (Simulation time: 0 hr 46 min 27 sec) 
Heartbeat CPU 0 instructions: 180000003 cycles: 228728167 heartbeat IPC: 0.299044 cumulative IPC: 0.606339 (Simulation time: 0 hr 51 min 54 sec) 
Heartbeat CPU 0 instructions: 190000001 cycles: 264008189 heartbeat IPC: 0.283446 cumulative IPC: 0.560714 (Simulation time: 0 hr 56 min 57 sec) 
Heartbeat CPU 0 instructions: 200000000 cycles: 296047519 heartbeat IPC: 0.312116 cumulative IPC: 0.532442 (Simulation time: 1 hr 1 min 20 sec) 
Heartbeat CPU 0 instructions: 210000003 cycles: 325888803 heartbeat IPC: 0.335106 cumulative IPC: 0.513541 (Simulation time: 1 hr 5 min 26 sec) 
Heartbeat CPU 0 instructions: 220000000 cycles: 353039324 heartbeat IPC: 0.368317 cumulative IPC: 0.5019 (Simulation time: 1 hr 9 min 5 sec) 
Heartbeat CPU 0 instructions: 230000000 cycles: 379538100 heartbeat IPC: 0.377376 cumulative IPC: 0.492865 (Simulation time: 1 hr 12 min 42 sec) 
Heartbeat CPU 0 instructions: 240000002 cycles: 404524320 heartbeat IPC: 0.400221 cumulative IPC: 0.486933 (Simulation time: 1 hr 16 min 7 sec) 
Heartbeat CPU 0 instructions: 250000000 cycles: 429969259 heartbeat IPC: 0.393005 cumulative IPC: 0.481182 (Simulation time: 1 hr 19 min 32 sec) 
Finished CPU 0 instructions: 200000000 cycles: 415642752 cumulative IPC: 0.481182 (Simulation time: 1 hr 19 min 32 sec) 
 Instruction ID: 250000075

ChampSim completed all CPUs

Region of Interest Statistics

CPU 0 cumulative IPC: 0.481182 instructions: 200000000 cycles: 415642752
ITLB SPEC fills:          0  NON-SPEC fills:          0
ITLB Test counter :          0
ITLB Leapfrog:          0
ITLB MSHR merge:          0
ITLB TOTAL     ACCESS:   26549651  HIT:   26549651  MISS:          0  HIT %:        100  MISS %:          0   MPKI: 0
ITLB LOAD TRANSLATION NON_SPEC    ACCESS:   26549651  HIT:   26549651  MISS:          0  HIT %:        100  MISS %:          0   MPKI: 0
ITLB PREFETCH  REQUESTED:          0  ISSUED:          0  USEFUL:          0  USELESS:          0
ITLB USEFUL LOAD PREFETCHES:          0 PREFETCH ISSUED TO LOWER LEVEL:          0  ACCURACY: -nan
ITLB TIMELY PREFETCHES:          0 LATE PREFETCHES: 0 DROPPED PREFETCHES: 0
ITLB COMMIT LATE PREFETCHES: 0 NORMAL LATE: 0 MISSED OPPORTUNITY: 0 UNCOVERED: 0
ITLB PREFETCHES SAME FILL-ORIGIN LEVEL: 0 DIFFERENT FILL-ORIGIN LEVEL: 0
ITLB AVERAGE MISS LATENCY: -nan cycles
ITLB AVERAGE MISS LATENCY LOAD: -nan cycles
ITLB AVERAGE MISS LATENCY PREFETCH: -nan cycles
ITLB AVERAGE MSHR OCCUPANCY: 0
ITLB MSHR FULL: 0
ITLB RQ	ACCESS:   34440609	FORWARD:          0	MERGED:    7890958	TO_CACHE:   26549651

DTLB SPEC fills:          0  NON-SPEC fills:          0
DTLB Test counter :          0
DTLB Leapfrog:          0
DTLB MSHR merge:          0
DTLB TOTAL     ACCESS:   44825976  HIT:   44600263  MISS:     225713  HIT %:    99.4965  MISS %:   0.503532   MPKI: 1.12857
DTLB LOAD TRANSLATION NON_SPEC    ACCESS:   44825976  HIT:   44600263  MISS:     225713  HIT %:    99.4965  MISS %:   0.503532   MPKI: 1.12857
DTLB PREFETCH  REQUESTED:          0  ISSUED:          0  USEFUL:          0  USELESS:          0
DTLB USEFUL LOAD PREFETCHES:          0 PREFETCH ISSUED TO LOWER LEVEL:          0  ACCURACY: -nan
DTLB TIMELY PREFETCHES:          0 LATE PREFETCHES: 0 DROPPED PREFETCHES: 0
DTLB COMMIT LATE PREFETCHES: 0 NORMAL LATE: 0 MISSED OPPORTUNITY: 0 UNCOVERED: 0
DTLB PREFETCHES SAME FILL-ORIGIN LEVEL: 0 DIFFERENT FILL-ORIGIN LEVEL: 0
DTLB AVERAGE MISS LATENCY: 152.139 cycles
DTLB AVERAGE MISS LATENCY LOAD: -nan cycles
DTLB AVERAGE MISS LATENCY PREFETCH: -nan cycles
DTLB AVERAGE MSHR OCCUPANCY: 0.091891
DTLB MSHR FULL: 0
DTLB RQ	ACCESS:   65780228	FORWARD:          0	MERGED:   20840780	TO_CACHE:   44939448

STLB SPEC fills:          0  NON-SPEC fills:          0
STLB Test counter :          0
STLB Leapfrog:          0
STLB MSHR merge:          0
STLB TOTAL     ACCESS:     225713  HIT:     103243  MISS:     122470  HIT %:    45.7408  MISS %:    54.2592   MPKI: 0.61235
STLB LOAD TRANSLATION NON_SPEC    ACCESS:     225713  HIT:     103243  MISS:     122470  HIT %:    45.7408  MISS %:    54.2592   MPKI: 0.61235
STLB PREFETCH  REQUESTED:          0  ISSUED:          0  USEFUL:          0  USELESS:          0
STLB USEFUL LOAD PREFETCHES:          0 PREFETCH ISSUED TO LOWER LEVEL:          0  ACCURACY: -nan
STLB TIMELY PREFETCHES:          0 LATE PREFETCHES: 0 DROPPED PREFETCHES: 0
STLB COMMIT LATE PREFETCHES: 0 NORMAL LATE: 0 MISSED OPPORTUNITY: 0 UNCOVERED: 0
STLB PREFETCHES SAME FILL-ORIGIN LEVEL: 0 DIFFERENT FILL-ORIGIN LEVEL: 0
STLB AVERAGE MISS LATENCY: 263.764 cycles
STLB AVERAGE MISS LATENCY LOAD: -nan cycles
STLB AVERAGE MISS LATENCY PREFETCH: -nan cycles
STLB AVERAGE MSHR OCCUPANCY: 0.155126
STLB MSHR FULL: 0
STLB RQ	ACCESS:     225713	FORWARD:          0	MERGED:          0	TO_CACHE:     225713

STLB Hit, L1D data hit: 0
STLB Hit, L2C data hit: 0
STLB Hit, LLC data hit: 0
STLB Hit, LLC data miss: 0
STLB STLB hints to L2: 0
L0D SPEC fills:   19088624  NON-SPEC fills:          0
L0D TimeGuard Request with older TS:      34771 Restricted eviction:       5017 read:     616751
L0D Test counter :          0
L0D Leapfrog:          0
L0D MSHR merge:    3462420
L0D TOTAL     ACCESS:   27753950  HIT:    6807474  MISS:   20946476  HIT %:    24.5279  MISS %:    75.4721   MPKI: 104.732
L0D LOAD      TOTAL       ACCESS:   27753950  HIT:    6807474  MISS:   20946476  HIT %:    24.5279  MISS %:    75.4721   MPKI: 104.732
L0D LOAD      NON_SPEC    ACCESS:    2837437  HIT:     984602  MISS:    1852835  HIT %:    34.7004  MISS %:    65.2996   MPKI: 9.26417
L0D LOAD      SPEC        ACCESS:   24916513  HIT:    5822872  MISS:   19093641  HIT %:    23.3695  MISS %:    76.6305   MPKI: 95.4682
L0D PREFETCH  REQUESTED:          0  ISSUED:          0  USEFUL:          0  USELESS:          0
L0D USEFUL LOAD PREFETCHES:          0 PREFETCH ISSUED TO LOWER LEVEL:          0  ACCURACY: -nan
L0D TIMELY PREFETCHES:          0 LATE PREFETCHES: 0 DROPPED PREFETCHES: 0
L0D COMMIT LATE PREFETCHES: 0 NORMAL LATE: 0 MISSED OPPORTUNITY: 0 UNCOVERED: 20946476
L0D PREFETCHES SAME FILL-ORIGIN LEVEL: 0 DIFFERENT FILL-ORIGIN LEVEL: 0
L0D AVERAGE MISS LATENCY: 48.831 cycles
L0D AVERAGE MISS LATENCY LOAD: 48.831 cycles
L0D AVERAGE MISS LATENCY PREFETCH: -nan cycles
L0D AVERAGE MSHR OCCUPANCY: 2.2707
L0D MSHR FULL: 0.18238
L0D RQ	ACCESS:   48104763	FORWARD:          0	MERGED:   16888395	TO_CACHE:   31216368
L0D WQ	ACCESS:   34563860	FORWARD:          0	MERGED:          0	TO_CACHE:   34563860

L1D SPEC fills:          0  NON-SPEC fills:     253873
L1D Test counter :          0
L1D Leapfrog:          0
L1D MSHR merge:      17919
L1D TOTAL     ACCESS:   84612718  HIT:   69857700  MISS:   14755018  HIT %:    82.5617  MISS %:    17.4383   MPKI: 73.7751
L1D LOAD      TOTAL       ACCESS:   20928557  HIT:   18948697  MISS:    1979860  HIT %:    90.5399  MISS %:    9.46009   MPKI: 9.8993
L1D LOAD      NON_SPEC    ACCESS:    1845156  HIT:    1591283  MISS:     253873  HIT %:    86.2411  MISS %:    13.7589   MPKI: 1.26937
L1D LOAD      SPEC        ACCESS:   19083401  HIT:   17357414  MISS:    1725987  HIT %:    90.9556  MISS %:    9.04444   MPKI: 8.62993
L1D RFO       NON_SPEC    ACCESS:   33322897  HIT:   22375734  MISS:   10947163  HIT %:    67.1482  MISS %:    32.8518   MPKI: 54.7358
L1D COMMIT LOAD NON_SPEC    ACCESS:   11590892  HIT:   11353751  MISS:     237141  HIT %:    97.9541  MISS %:    2.04593   MPKI: 1.18571
L1D COMMIT WRITE NON_SPEC    ACCESS:   18770372  HIT:   17179518  MISS:    1590854  HIT %:    91.5247  MISS %:    8.47535   MPKI: 7.95427
L1D PREFETCH  REQUESTED:          0  ISSUED:          0  USEFUL:          0  USELESS:          0
L1D USEFUL LOAD PREFETCHES:          0 PREFETCH ISSUED TO LOWER LEVEL:          0  ACCURACY: -nan
L1D TIMELY PREFETCHES:          0 LATE PREFETCHES: 0 DROPPED PREFETCHES: 0
L1D COMMIT LATE PREFETCHES: 0 NORMAL LATE: 0 MISSED OPPORTUNITY: 0 UNCOVERED: 1979860
L1D PREFETCHES SAME FILL-ORIGIN LEVEL: 0 DIFFERENT FILL-ORIGIN LEVEL: 0
L1D AVERAGE MISS LATENCY: 307.68 cycles
L1D AVERAGE MISS LATENCY LOAD: 103.931 cycles
L1D AVERAGE MISS LATENCY PREFETCH: -nan cycles
L1D AVERAGE MSHR OCCUPANCY: 15.4537
L1D MSHR FULL: 0.912678
L1D RQ	ACCESS:   46720026	FORWARD:          0	MERGED:   13777249	TO_CACHE:   32543400
L1D WQ	ACCESS:   53560440	FORWARD:     399377	MERGED:    1293415	TO_CACHE:   52267025

L1D UNIQUE REGIONS ACCESSED: 0
L1D REGIONS CONFLICTS: 0
L1D Cross Page Prefetch Requests: 0
L1D Same Page Prefetch Requests: 0
L1D ROI Sum of L1D PQ occupancy: 0
L1D PREFETCHES PUSHED FROM L2C: 0
L1I SPEC fills:          0  NON-SPEC fills:          0
L1I Test counter :          0
L1I Leapfrog:          0
L1I MSHR merge:          0
L1I TOTAL     ACCESS:   34440607  HIT:   34440607  MISS:          0  HIT %:        100  MISS %:          0   MPKI: 0
L1I LOAD      TOTAL       ACCESS:   34440607  HIT:   34440607  MISS:          0  HIT %:        100  MISS %:          0   MPKI: 0
L1I LOAD      NON_SPEC    ACCESS:   34440607  HIT:   34440607  MISS:          0  HIT %:        100  MISS %:          0   MPKI: 0
L1I PREFETCH  REQUESTED:          0  ISSUED:          0  USEFUL:          0  USELESS:          0
L1I USEFUL LOAD PREFETCHES:          0 PREFETCH ISSUED TO LOWER LEVEL:          0  ACCURACY: -nan
L1I TIMELY PREFETCHES:          0 LATE PREFETCHES: 0 DROPPED PREFETCHES: 0
L1I COMMIT LATE PREFETCHES: 0 NORMAL LATE: 0 MISSED OPPORTUNITY: 0 UNCOVERED: 0
L1I PREFETCHES SAME FILL-ORIGIN LEVEL: 0 DIFFERENT FILL-ORIGIN LEVEL: 0
L1I AVERAGE MISS LATENCY: -nan cycles
L1I AVERAGE MISS LATENCY LOAD: -nan cycles
L1I AVERAGE MISS LATENCY PREFETCH: -nan cycles
L1I AVERAGE MSHR OCCUPANCY: 0
L1I MSHR FULL: 0
L1I RQ	ACCESS:   49265861	FORWARD:          0	MERGED:   14825252	TO_CACHE:   34440609

BTB SPEC fills:          0  NON-SPEC fills:          0
BTB Test counter :          0
BTB Leapfrog:          0
BTB MSHR merge:          0
BTB TOTAL     ACCESS:    3122106  HIT:    3122100  MISS:          6  HIT %:    99.9998  MISS %: 0.000192178   MPKI: 3e-05
BTB BRANCH_DIRECT_JUMP	ACCESS:     397756  HIT:     397755  MISS:          1
BTB BRANCH_INDIRECT	ACCESS:          0  HIT:          0  MISS:          0
BTB BRANCH_CONDITIONAL	ACCESS:    2724350  HIT:    2724345  MISS:          5
BTB BRANCH_DIRECT_CALL	ACCESS:          0  HIT:          0  MISS:          0
BTB BRANCH_INDIRECT_CALL	ACCESS:          0  HIT:          0  MISS:          0
BTB BRANCH_RETURN	ACCESS:          0  HIT:          0  MISS:          0
BTB BRANCH_OTHER ACCESS:          0  HIT:          0  MISS:          0

L2C SPEC fills:          0  NON-SPEC fills:      12000
L2C Test counter :          0
L2C Leapfrog:          0
L2C MSHR merge:      89922
L2C TOTAL     ACCESS:   28640104  HIT:   20555969  MISS:    8084135  HIT %:    71.7734  MISS %:    28.2266   MPKI: 40.4207
L2C LOAD      TOTAL       ACCESS:    1979858  HIT:    1817950  MISS:     161908  HIT %:    91.8222  MISS %:    8.17776   MPKI: 0.80954
L2C LOAD      NON_SPEC    ACCESS:     253873  HIT:     241873  MISS:      12000  HIT %:    95.2732  MISS %:    4.72677   MPKI: 0.06
L2C LOAD      SPEC        ACCESS:    1725985  HIT:    1576077  MISS:     149908  HIT %:    91.3146  MISS %:    8.68536   MPKI: 0.74954
L2C RFO       NON_SPEC    ACCESS:   10947157  HIT:    4988608  MISS:    5958549  HIT %:    45.5699  MISS %:    54.4301   MPKI: 29.7927
L2C PREFETCH  NON_SPEC    ACCESS:    1948921  HIT:     146917  MISS:    1802004  HIT %:    7.53838  MISS %:    92.4616   MPKI: 9.01002
L2C WRITEBACK NON_SPEC    ACCESS:   10947171  HIT:   10946743  MISS:        428  HIT %:    99.9961  MISS %: 0.00390969   MPKI: 0.00214
L2C CLEAN_EVICTION NON_SPEC    ACCESS:    1967628  HIT:    1846112  MISS:     121516  HIT %:    93.8242  MISS %:    6.17576   MPKI: 0.60758
L2C COMMIT LOAD NON_SPEC    ACCESS:     237140  HIT:     212862  MISS:      24278  HIT %:    89.7622  MISS %:    10.2378   MPKI: 0.12139
L2C LOAD TRANSLATION NON_SPEC    ACCESS:     612229  HIT:     596777  MISS:      15452  HIT %:    97.4761  MISS %:    2.52389   MPKI: 0.07726
L2C PREFETCH  REQUESTED:    2194031  ISSUED:    2194030  USEFUL:    1797408  USELESS:       4620
L2C USEFUL LOAD PREFETCHES:    1797408 PREFETCH ISSUED TO LOWER LEVEL:    1894352  ACCURACY: 94.8825
L2C TIMELY PREFETCHES:    1797408 LATE PREFETCHES: 89926 DROPPED PREFETCHES: 0
L2C COMMIT LATE PREFETCHES: 0 NORMAL LATE: 89926 MISSED OPPORTUNITY: 0 UNCOVERED: 71982
L2C PREFETCHES SAME FILL-ORIGIN LEVEL: 1891930 DIFFERENT FILL-ORIGIN LEVEL: 2422
L2C AVERAGE MISS LATENCY: 673.248 cycles
L2C AVERAGE MISS LATENCY LOAD: 534.485 cycles
L2C AVERAGE MISS LATENCY PREFETCH: 655.993 cycles
L2C AVERAGE MSHR OCCUPANCY: 13.9614
L2C MSHR FULL: 7.2588e-08
L2C RQ	ACCESS:   13776400	FORWARD:          0	MERGED:          0	TO_CACHE:   13776390
L2C WQ	ACCESS:   12914806	FORWARD:         12	MERGED:          7	TO_CACHE:   12914799
L2C PQ	ACCESS:    2194030	FORWARD:          0	MERGED:      69812	TO_CACHE:    2124216

L2C Instructions Evicting Data 0
L2C Translations Evicting Data 15388
L2C Data Evicting Data 7781695
L2C Instructions Evicting Instructions 0
L2C Translations Evicting Instructions 0
L2C Data Evicting Instructions 0
L2C Instructions Evicting Translations 0
L2C Translations Evicting Translations 64
L2C Data Evicting Translations 15136
L2C Dense regions hint from L2: 0
PSCL5 SPEC fills:          0  NON-SPEC fills:          0
PSCL5 Test counter :          0
PSCL5 Leapfrog:          0
PSCL5 MSHR merge:          0
PSCL5 TOTAL     ACCESS:          0  HIT:          0  MISS:          0  HIT %:       -nan  MISS %:       -nan   MPKI: 0
PSCL5 PREFETCH  REQUESTED:          0  ISSUED:          0  USEFUL:          0  USELESS:          0
PSCL5 USEFUL LOAD PREFETCHES:          0 PREFETCH ISSUED TO LOWER LEVEL:          0  ACCURACY: -nan
PSCL5 TIMELY PREFETCHES:          0 LATE PREFETCHES: 0 DROPPED PREFETCHES: 0
PSCL5 COMMIT LATE PREFETCHES: 0 NORMAL LATE: 0 MISSED OPPORTUNITY: 0 UNCOVERED: 0
PSCL5 PREFETCHES SAME FILL-ORIGIN LEVEL: 0 DIFFERENT FILL-ORIGIN LEVEL: 0

PSCL4 SPEC fills:          0  NON-SPEC fills:          0
PSCL4 Test counter :          0
PSCL4 Leapfrog:          0
PSCL4 MSHR merge:          0
PSCL4 TOTAL     ACCESS:          0  HIT:          0  MISS:          0  HIT %:       -nan  MISS %:       -nan   MPKI: 0
PSCL4 PREFETCH  REQUESTED:          0  ISSUED:          0  USEFUL:          0  USELESS:          0
PSCL4 USEFUL LOAD PREFETCHES:          0 PREFETCH ISSUED TO LOWER LEVEL:          0  ACCURACY: -nan
PSCL4 TIMELY PREFETCHES:          0 LATE PREFETCHES: 0 DROPPED PREFETCHES: 0
PSCL4 COMMIT LATE PREFETCHES: 0 NORMAL LATE: 0 MISSED OPPORTUNITY: 0 UNCOVERED: 0
PSCL4 PREFETCHES SAME FILL-ORIGIN LEVEL: 0 DIFFERENT FILL-ORIGIN LEVEL: 0

PSCL3 SPEC fills:          0  NON-SPEC fills:          0
PSCL3 Test counter :          0
PSCL3 Leapfrog:          0
PSCL3 MSHR merge:          0
PSCL3 TOTAL     ACCESS:          0  HIT:          0  MISS:          0  HIT %:       -nan  MISS %:       -nan   MPKI: 0
PSCL3 PREFETCH  REQUESTED:          0  ISSUED:          0  USEFUL:          0  USELESS:          0
PSCL3 USEFUL LOAD PREFETCHES:          0 PREFETCH ISSUED TO LOWER LEVEL:          0  ACCURACY: -nan
PSCL3 TIMELY PREFETCHES:          0 LATE PREFETCHES: 0 DROPPED PREFETCHES: 0
PSCL3 COMMIT LATE PREFETCHES: 0 NORMAL LATE: 0 MISSED OPPORTUNITY: 0 UNCOVERED: 0
PSCL3 PREFETCHES SAME FILL-ORIGIN LEVEL: 0 DIFFERENT FILL-ORIGIN LEVEL: 0

PSCL2 SPEC fills:          0  NON-SPEC fills:          0
PSCL2 Test counter :          0
PSCL2 Leapfrog:          0
PSCL2 MSHR merge:          0
PSCL2 TOTAL     ACCESS:          0  HIT:          0  MISS:          0  HIT %:       -nan  MISS %:       -nan   MPKI: 0
PSCL2 PREFETCH  REQUESTED:          0  ISSUED:          0  USEFUL:          0  USELESS:          0
PSCL2 USEFUL LOAD PREFETCHES:          0 PREFETCH ISSUED TO LOWER LEVEL:          0  ACCURACY: -nan
PSCL2 TIMELY PREFETCHES:          0 LATE PREFETCHES: 0 DROPPED PREFETCHES: 0
PSCL2 COMMIT LATE PREFETCHES: 0 NORMAL LATE: 0 MISSED OPPORTUNITY: 0 UNCOVERED: 0
PSCL2 PREFETCHES SAME FILL-ORIGIN LEVEL: 0 DIFFERENT FILL-ORIGIN LEVEL: 0

LLC SPEC fills:          0  NON-SPEC fills:      11431
LLC Test counter :          0
LLC Leapfrog:          0
LLC MSHR merge:          0
LLC TOTAL     ACCESS:   15872478  HIT:    7965659  MISS:    7906819  HIT %:    50.1854  MISS %:    49.8146   MPKI: 39.5341
LLC LOAD      TOTAL       ACCESS:      71986  HIT:        281  MISS:      71705  HIT %:   0.390354  MISS %:    99.6096   MPKI: 0.358525
LLC LOAD      NON_SPEC    ACCESS:      11464  HIT:         33  MISS:      11431  HIT %:   0.287858  MISS %:    99.7121   MPKI: 0.057155
LLC LOAD      SPEC        ACCESS:      60522  HIT:        248  MISS:      60274  HIT %:   0.409768  MISS %:    99.5902   MPKI: 0.30137
LLC RFO       NON_SPEC    ACCESS:    5958458  HIT:      87231  MISS:    5871227  HIT %:    1.46399  MISS %:     98.536   MPKI: 29.3561
LLC PREFETCH  NON_SPEC    ACCESS:    1894133  HIT:       1401  MISS:    1892732  HIT %:  0.0739652  MISS %:     99.926   MPKI: 9.46366
LLC WRITEBACK NON_SPEC    ACCESS:    5958244  HIT:    5957936  MISS:        308  HIT %:    99.9948  MISS %: 0.00516931   MPKI: 0.00154
LLC CLEAN_EVICTION NON_SPEC    ACCESS:    1949931  HIT:    1899550  MISS:      50381  HIT %:    97.4163  MISS %:    2.58373   MPKI: 0.251905
LLC COMMIT LOAD NON_SPEC    ACCESS:      24274  HIT:      19260  MISS:       5014  HIT %:    79.3442  MISS %:    20.6558   MPKI: 0.02507
LLC LOAD TRANSLATION NON_SPEC    ACCESS:      15452  HIT:          0  MISS:      15452  HIT %:          0  MISS %:        100   MPKI: 0.07726
LLC PREFETCH  REQUESTED:          0  ISSUED:          0  USEFUL:      19531  USELESS:    1875954
LLC USEFUL LOAD PREFETCHES:      19531 PREFETCH ISSUED TO LOWER LEVEL:    1892732  ACCURACY: 1.03189
LLC TIMELY PREFETCHES:      19531 LATE PREFETCHES: 0 DROPPED PREFETCHES: 0
LLC COMMIT LATE PREFETCHES: 0 NORMAL LATE: 0 MISSED OPPORTUNITY: 0 UNCOVERED: 71705
LLC PREFETCHES SAME FILL-ORIGIN LEVEL: 1701 DIFFERENT FILL-ORIGIN LEVEL: 0
LLC AVERAGE MISS LATENCY: 668.086 cycles
LLC AVERAGE MISS LATENCY LOAD: 560.37 cycles
LLC AVERAGE MISS LATENCY PREFETCH: 662.611 cycles
LLC AVERAGE MSHR OCCUPANCY: 13.2841
LLC MSHR FULL: 0
LLC RQ	ACCESS:    6070263	FORWARD:          0	MERGED:          0	TO_CACHE:    6070172
LLC WQ	ACCESS:    7908175	FORWARD:         91	MERGED:          0	TO_CACHE:    7908175
LLC PQ	ACCESS:    1894352	FORWARD:          0	MERGED:        177	TO_CACHE:    1894175

LLC Dense regions hint to LLC: 0

RAW hits: 2289129
Loads Generated: 50393892
Loads sent to L1D: 48104763
Stores Generated: 34563858
Stores sent to L1D: 34563860
Major fault: 0 Minor fault: 72955
Allocated PAGES: 72955
Total Load insts: 58077825
Total Non-spec loads: 3692444
Percentage of speculative loads: 93.6423

LeapFrogging counter: 13687767
Commit hits: 19053866 miss: 25773551
Commit hit %: 42.5049 miss %: 57.4951
Commits not translated: 0
Loads retired: 1979860
Stores retired: 34563860
Cache fills: 1979860
L1D response latency: 103.931 cycles
Load retirement latency: 626.615 cycles
OOO test counter: 0
Discarded buffer inserts: 19053866 hits: 280993 hit %: 1.47473
Filter prediction accuracy: -nan
------------------
Depth Distribution
------------------
depth 0: 10773
depth 1: 2493
depth 2: 2548
depth 3: 4999
depth 4: 12330
depth 5: 22520
depth 6: 14123
depth 7: 8069
depth 8: 14311
depth 9: 22665
depth 10: 87814
depth 11: 480457
depth 12: 842971
depth 13: 478251
depth 14: 221981
depth 15: 19009
depth 16: 4369
depth 17: 639
depth 18: 217
depth 19: 77
depth 20: 16
depth 21: 1
depth 22: 0
depth 23: 0
depth 24: 0
depth 25: 0
depth 26: 0
depth 27: 0
depth 28: 0
depth 29: 0
Total: 2250633
------------------
ST read accesses: 1949260
ST write accesses: 30598
PT read accesses: 126907334
PT write accesses: 2916300
FILTER read accesses: 32283466
FILTER write accesses: 19956818
GHR read accesses: 14756801
GHR write accesses: 2528826
PERC read accesses: 914334426
PERC write accesses: 19612536
GHR counter read accesses: 3959716
GHR counter write accesses: 6160235
GHR ip read accesses: 12525492
GHR ip write accesses: 7919432
ST tag read accesses: 777092812
ST tag write accesses: 9803267

DRAM Statistics
 CHANNEL 0
 RQ ROW_BUFFER_HIT:     800733  ROW_BUFFER_MISS:    7055396
 DBUS_CONGESTED:          2
 WQ ROW_BUFFER_HIT:    1807314  ROW_BUFFER_MISS:    6013290  FULL:        932

 AVG_CONGESTED_CYCLE: 4
 All warmup complete: 2
Channel 0 Bank busy for read cycles: 0
Channel 0 Bank busy for write cycles: 0
Channel 0
Rank 0
0banks busy for read cycles: 45653251
0banks busy for write cycles: 19904
1banks busy for read cycles: 4624840
1banks busy for write cycles: 2396505
2banks busy for read cycles: 5113786
2banks busy for write cycles: 2213204
3banks busy for read cycles: 7152009
3banks busy for write cycles: 2037699
4banks busy for read cycles: 12749437
4banks busy for write cycles: 1963506
5banks busy for read cycles: 25118317
5banks busy for write cycles: 1981618
6banks busy for read cycles: 35031758
6banks busy for write cycles: 2171572
7banks busy for read cycles: 51053402
7banks busy for write cycles: 9976724
8banks busy for read cycles: 62942084
8banks busy for write cycles: 143443137

CPU 0 Branch Prediction Accuracy: 97.656% MPKI: 0.36593 Average ROB Occupancy at Mispredict: 174.925
Branch types
NOT_BRANCH: 196877389 98.4387%
BRANCH_DIRECT_JUMP: 397756 0.198878%
BRANCH_INDIRECT: 0 0%
BRANCH_CONDITIONAL: 2724544 1.36227%
BRANCH_DIRECT_CALL: 0 0%
BRANCH_INDIRECT_CALL: 0 0%
BRANCH_RETURN: 0 0%
BRANCH_OTHER: 0 0%

DRAM PAGES: 1048576
Allocated PAGES: 72955
