Initialize SIGNATURE TABLE
ST_SET: 1
ST_WAY: 256
ST_TAG_BIT: 16
ST_TAG_MASK: ffff

Initialize PATTERN TABLE
PT_SET: 512
PT_WAY: 4
SIG_DELTA_BIT: 7
C_SIG_BIT: 4
C_DELTA_BIT: 4

Initialize PREFETCH FILTER
FILTER_SET: 1024

Initialize PERCEPTRON
PERC_ENTRIES: 4096
PERC_FEATURES: 9
Initialize SIGNATURE TABLE
ST_SET: 1
ST_WAY: 256
ST_TAG_BIT: 16
ST_TAG_MASK: ffff

Initialize PATTERN TABLE
PT_SET: 512
PT_WAY: 4
SIG_DELTA_BIT: 7
C_SIG_BIT: 4
C_DELTA_BIT: 4

Initialize PREFETCH FILTER
FILTER_SET: 1024

Initialize PERCEPTRON
PERC_ENTRIES: 4096
PERC_FEATURES: 9

*** ChampSim Multicore Out-of-Order Simulator ***

Warmup Instructions: 50000000
Simulation Instructions: 200000000
Number of CPUs: 1
LLC sets: 2048
LLC ways: 16
L0D sets: 16
L0D ways: 2
ROB size: 352
LQ size: 128
SQ size: 72
Secure Berti: OFF
Berti: OFF
Berti Fill: OFF
On commit prefetching: OFF
Hit-based filter: OFF
Time-guarding: ON
Free-slotting: ON
Leap-frogging: ON
Train prefetcher on L0D bypass: OFF
No translation penalty for prefetchers: OFF
Prefetch to L0D only: OFF
Prefetch to L1D only: OFF
Clean evictions: ON
Commit loads: ON
Commit write: ON
Fill commit loads to L2C, LLC: ON
DRAM IO FREQUENCY: 6400
ROB SIZE: 352
Off-chip DRAM Size: 4096 MB Channels: 1 Width: 64-bit Data Rate: 6400 MT/s
CPU 0 runs /home/sumon/secure_berti/GhostMinion/../../traces/spec/620.omnetpp_s-874B.champsimtrace.xz
.xz
BTB has LRU replacement policy
ITLB has LRU replacement policy
DTLB has LRU replacement policy
STLB has LRU replacement policy
L1I has LRU replacement policy
L0D has LRU replacement policy
L1D has LRU replacement policy
PERC_ENTRIES: 4096
L2C has LRU replacement policy
LLC has LRU replacement policy
Heartbeat CPU 0 instructions: 10000001 cycles: 8118891 heartbeat IPC: 1.2317 cumulative IPC: 1.2317 (Simulation time: 0 hr 1 min 45 sec) 
Heartbeat CPU 0 instructions: 20000000 cycles: 16239806 heartbeat IPC: 1.23139 cumulative IPC: 1.23154 (Simulation time: 0 hr 3 min 25 sec) 
Heartbeat CPU 0 instructions: 30000003 cycles: 24338178 heartbeat IPC: 1.23482 cumulative IPC: 1.23263 (Simulation time: 0 hr 5 min 4 sec) 
Heartbeat CPU 0 instructions: 40000000 cycles: 32461784 heartbeat IPC: 1.23098 cumulative IPC: 1.23222 (Simulation time: 0 hr 6 min 42 sec) 
Heartbeat CPU 0 instructions: 50000000 cycles: 40593477 heartbeat IPC: 1.22976 cumulative IPC: 1.23172 (Simulation time: 0 hr 8 min 19 sec) 

Warmup complete CPU 0 instructions: 50000004 cycles: 40593478 (Simulation time: 0 hr 8 min 19 sec) 

Heartbeat CPU 0 instructions: 60000001 cycles: 80879465 heartbeat IPC: 0.248225 cumulative IPC: 0.248225 (Simulation time: 0 hr 10 min 19 sec) 
Heartbeat CPU 0 instructions: 70000001 cycles: 120674110 heartbeat IPC: 0.25129 cumulative IPC: 0.249748 (Simulation time: 0 hr 12 min 18 sec) 
Heartbeat CPU 0 instructions: 80000002 cycles: 160740419 heartbeat IPC: 0.249586 cumulative IPC: 0.249694 (Simulation time: 0 hr 14 min 17 sec) 
Heartbeat CPU 0 instructions: 90000002 cycles: 200359247 heartbeat IPC: 0.252405 cumulative IPC: 0.250367 (Simulation time: 0 hr 16 min 15 sec) 
Heartbeat CPU 0 instructions: 100000000 cycles: 240886947 heartbeat IPC: 0.246745 cumulative IPC: 0.249634 (Simulation time: 0 hr 18 min 14 sec) 
Heartbeat CPU 0 instructions: 110000000 cycles: 280722077 heartbeat IPC: 0.251035 cumulative IPC: 0.249866 (Simulation time: 0 hr 20 min 12 sec) 
Heartbeat CPU 0 instructions: 120000000 cycles: 320740288 heartbeat IPC: 0.249886 cumulative IPC: 0.249869 (Simulation time: 0 hr 22 min 10 sec) 
Heartbeat CPU 0 instructions: 130000000 cycles: 360974109 heartbeat IPC: 0.248547 cumulative IPC: 0.249703 (Simulation time: 0 hr 24 min 8 sec) 
Heartbeat CPU 0 instructions: 140000001 cycles: 400921318 heartbeat IPC: 0.25033 cumulative IPC: 0.249773 (Simulation time: 0 hr 26 min 7 sec) 
Heartbeat CPU 0 instructions: 150000002 cycles: 441134700 heartbeat IPC: 0.248673 cumulative IPC: 0.249662 (Simulation time: 0 hr 28 min 5 sec) 
Heartbeat CPU 0 instructions: 160000000 cycles: 481596749 heartbeat IPC: 0.247145 cumulative IPC: 0.249431 (Simulation time: 0 hr 30 min 4 sec) 
Heartbeat CPU 0 instructions: 170000000 cycles: 521306522 heartbeat IPC: 0.251827 cumulative IPC: 0.249629 (Simulation time: 0 hr 32 min 3 sec) 
Heartbeat CPU 0 instructions: 180000000 cycles: 561359523 heartbeat IPC: 0.249669 cumulative IPC: 0.249632 (Simulation time: 0 hr 34 min 1 sec) 
Heartbeat CPU 0 instructions: 190000003 cycles: 601502301 heartbeat IPC: 0.249111 cumulative IPC: 0.249595 (Simulation time: 0 hr 35 min 58 sec) 
Heartbeat CPU 0 instructions: 200000000 cycles: 641468005 heartbeat IPC: 0.250214 cumulative IPC: 0.249636 (Simulation time: 0 hr 37 min 56 sec) 
Heartbeat CPU 0 instructions: 210000000 cycles: 681646692 heartbeat IPC: 0.248888 cumulative IPC: 0.249589 (Simulation time: 0 hr 39 min 53 sec) 
Heartbeat CPU 0 instructions: 220000000 cycles: 721588869 heartbeat IPC: 0.250362 cumulative IPC: 0.249635 (Simulation time: 0 hr 41 min 51 sec) 
Heartbeat CPU 0 instructions: 230000002 cycles: 761339191 heartbeat IPC: 0.25157 cumulative IPC: 0.249741 (Simulation time: 0 hr 43 min 47 sec) 
Heartbeat CPU 0 instructions: 240000001 cycles: 801576456 heartbeat IPC: 0.248526 cumulative IPC: 0.249677 (Simulation time: 0 hr 45 min 43 sec) 
Heartbeat CPU 0 instructions: 250000000 cycles: 841652836 heartbeat IPC: 0.249524 cumulative IPC: 0.249669 (Simulation time: 0 hr 47 min 38 sec) 
Finished CPU 0 instructions: 200000000 cycles: 801059359 cumulative IPC: 0.249669 (Simulation time: 0 hr 47 min 38 sec) 
 Instruction ID: 250000019

ChampSim completed all CPUs

Region of Interest Statistics

CPU 0 cumulative IPC: 0.249669 instructions: 200000000 cycles: 801059359
ITLB SPEC fills:          0  NON-SPEC fills:          0
ITLB Test counter :          0
ITLB Leapfrog:          0
ITLB MSHR merge:          0
ITLB TOTAL     ACCESS:   32902953  HIT:   32585592  MISS:     317361  HIT %:    99.0355  MISS %:   0.964537   MPKI: 1.58681
ITLB LOAD TRANSLATION NON_SPEC    ACCESS:   32902953  HIT:   32585592  MISS:     317361  HIT %:    99.0355  MISS %:   0.964537   MPKI: 1.58681
ITLB PREFETCH  REQUESTED:          0  ISSUED:          0  USEFUL:          0  USELESS:          0
ITLB USEFUL LOAD PREFETCHES:          0 PREFETCH ISSUED TO LOWER LEVEL:          0  ACCURACY: -nan
ITLB TIMELY PREFETCHES:          0 LATE PREFETCHES: 0 DROPPED PREFETCHES: 0
ITLB COMMIT LATE PREFETCHES: 0 NORMAL LATE: 0 MISSED OPPORTUNITY: 0 UNCOVERED: 0
ITLB PREFETCHES SAME FILL-ORIGIN LEVEL: 0 DIFFERENT FILL-ORIGIN LEVEL: 0
ITLB AVERAGE MISS LATENCY: 10.6366 cycles
ITLB AVERAGE MISS LATENCY LOAD: -nan cycles
ITLB AVERAGE MISS LATENCY PREFETCH: -nan cycles
ITLB AVERAGE MSHR OCCUPANCY: 0.00937865
ITLB MSHR FULL: 0
ITLB RQ	ACCESS:   37061944	FORWARD:          0	MERGED:    4062420	TO_CACHE:   32999524

DTLB SPEC fills:          0  NON-SPEC fills:          0
DTLB Test counter :          0
DTLB Leapfrog:          0
DTLB MSHR merge:          0
DTLB TOTAL     ACCESS:   81916487  HIT:   78104357  MISS:    3812130  HIT %:    95.3463  MISS %:    4.65368   MPKI: 19.0606
DTLB LOAD TRANSLATION NON_SPEC    ACCESS:   81916487  HIT:   78104357  MISS:    3812130  HIT %:    95.3463  MISS %:    4.65368   MPKI: 19.0606
DTLB PREFETCH  REQUESTED:          0  ISSUED:          0  USEFUL:          0  USELESS:          0
DTLB USEFUL LOAD PREFETCHES:          0 PREFETCH ISSUED TO LOWER LEVEL:          0  ACCURACY: -nan
DTLB TIMELY PREFETCHES:          0 LATE PREFETCHES: 0 DROPPED PREFETCHES: 0
DTLB COMMIT LATE PREFETCHES: 0 NORMAL LATE: 0 MISSED OPPORTUNITY: 0 UNCOVERED: 0
DTLB PREFETCHES SAME FILL-ORIGIN LEVEL: 0 DIFFERENT FILL-ORIGIN LEVEL: 0
DTLB AVERAGE MISS LATENCY: 41.5253 cycles
DTLB AVERAGE MISS LATENCY LOAD: -nan cycles
DTLB AVERAGE MISS LATENCY PREFETCH: -nan cycles
DTLB AVERAGE MSHR OCCUPANCY: 0.118355
DTLB MSHR FULL: 5.53524e-05
DTLB RQ	ACCESS:   92382245	FORWARD:          0	MERGED:   10384787	TO_CACHE:   81997458

STLB SPEC fills:          0  NON-SPEC fills:          0
STLB Test counter :          0
STLB Leapfrog:          0
STLB MSHR merge:          0
STLB TOTAL     ACCESS:    4129491  HIT:    3275225  MISS:     854266  HIT %:     79.313  MISS %:     20.687   MPKI: 4.27133
STLB LOAD TRANSLATION NON_SPEC    ACCESS:    4129491  HIT:    3275225  MISS:     854266  HIT %:     79.313  MISS %:     20.687   MPKI: 4.27133
STLB PREFETCH  REQUESTED:          0  ISSUED:          0  USEFUL:          0  USELESS:          0
STLB USEFUL LOAD PREFETCHES:          0 PREFETCH ISSUED TO LOWER LEVEL:          0  ACCURACY: -nan
STLB TIMELY PREFETCHES:          0 LATE PREFETCHES: 0 DROPPED PREFETCHES: 0
STLB COMMIT LATE PREFETCHES: 0 NORMAL LATE: 0 MISSED OPPORTUNITY: 0 UNCOVERED: 0
STLB PREFETCHES SAME FILL-ORIGIN LEVEL: 0 DIFFERENT FILL-ORIGIN LEVEL: 0
STLB AVERAGE MISS LATENCY: 145.634 cycles
STLB AVERAGE MISS LATENCY LOAD: -nan cycles
STLB AVERAGE MISS LATENCY PREFETCH: -nan cycles
STLB AVERAGE MSHR OCCUPANCY: 0.113143
STLB MSHR FULL: 0
STLB RQ	ACCESS:    4129491	FORWARD:          0	MERGED:          0	TO_CACHE:    4129491

STLB Hit, L1D data hit: 0
STLB Hit, L2C data hit: 0
STLB Hit, LLC data hit: 0
STLB Hit, LLC data miss: 0
STLB STLB hints to L2: 0
L0D SPEC fills:   23727641  NON-SPEC fills:          0
L0D TimeGuard Request with older TS:     296199 Restricted eviction:     147146 read:     287373
L0D Test counter :          0
L0D Leapfrog:          0
L0D MSHR merge:     930130
L0D TOTAL     ACCESS:   54333787  HIT:    6558088  MISS:   47775699  HIT %:      12.07  MISS %:      87.93   MPKI: 238.878
L0D LOAD      TOTAL       ACCESS:   54333787  HIT:    6558088  MISS:   47775699  HIT %:      12.07  MISS %:      87.93   MPKI: 238.878
L0D LOAD      NON_SPEC    ACCESS:   24112643  HIT:     211721  MISS:   23900922  HIT %:    0.87805  MISS %:     99.122   MPKI: 119.505
L0D LOAD      SPEC        ACCESS:   30221144  HIT:    6346367  MISS:   23874777  HIT %:    20.9998  MISS %:    79.0002   MPKI: 119.374
L0D PREFETCH  REQUESTED:          0  ISSUED:          0  USEFUL:          0  USELESS:          0
L0D USEFUL LOAD PREFETCHES:          0 PREFETCH ISSUED TO LOWER LEVEL:          0  ACCURACY: -nan
L0D TIMELY PREFETCHES:          0 LATE PREFETCHES: 0 DROPPED PREFETCHES: 0
L0D COMMIT LATE PREFETCHES: 0 NORMAL LATE: 0 MISSED OPPORTUNITY: 0 UNCOVERED: 47775699
L0D PREFETCHES SAME FILL-ORIGIN LEVEL: 0 DIFFERENT FILL-ORIGIN LEVEL: 0
L0D AVERAGE MISS LATENCY: 10.6928 cycles
L0D AVERAGE MISS LATENCY LOAD: 10.6928 cycles
L0D AVERAGE MISS LATENCY PREFETCH: -nan cycles
L0D AVERAGE MSHR OCCUPANCY: 0.519065
L0D MSHR FULL: 5.60372e-05
L0D RQ	ACCESS:   64383611	FORWARD:          0	MERGED:    9119696	TO_CACHE:   55263915
L0D WQ	ACCESS:   37118330	FORWARD:          0	MERGED:          0	TO_CACHE:   37118330

L1D SPEC fills:          0  NON-SPEC fills:     582107
L1D Test counter :          0
L1D Leapfrog:          0
L1D MSHR merge:      13793
L1D TOTAL     ACCESS:  116480327  HIT:  110214764  MISS:    6265563  HIT %:    94.6209  MISS %:    5.37907   MPKI: 31.3278
L1D LOAD      TOTAL       ACCESS:   47761906  HIT:   44561974  MISS:    3199932  HIT %:    93.3002  MISS %:    6.69976   MPKI: 15.9997
L1D LOAD      NON_SPEC    ACCESS:   23893491  HIT:   23311384  MISS:     582107  HIT %:    97.5637  MISS %:    2.43626   MPKI: 2.91053
L1D LOAD      SPEC        ACCESS:   23868415  HIT:   21250590  MISS:    2617825  HIT %:    89.0323  MISS %:    10.9677   MPKI: 13.0891
L1D RFO       NON_SPEC    ACCESS:   34695030  HIT:   34216048  MISS:     478982  HIT %:    98.6195  MISS %:    1.38055   MPKI: 2.39491
L1D COMMIT LOAD NON_SPEC    ACCESS:   10575812  HIT:   10557278  MISS:      18534  HIT %:    99.8248  MISS %:   0.175249   MPKI: 0.09267
L1D COMMIT WRITE NON_SPEC    ACCESS:   23447579  HIT:   20879464  MISS:    2568115  HIT %:    89.0474  MISS %:    10.9526   MPKI: 12.8406
L1D PREFETCH  REQUESTED:          0  ISSUED:          0  USEFUL:          0  USELESS:          0
L1D USEFUL LOAD PREFETCHES:          0 PREFETCH ISSUED TO LOWER LEVEL:          0  ACCURACY: -nan
L1D TIMELY PREFETCHES:          0 LATE PREFETCHES: 0 DROPPED PREFETCHES: 0
L1D COMMIT LATE PREFETCHES: 0 NORMAL LATE: 0 MISSED OPPORTUNITY: 0 UNCOVERED: 3199932
L1D PREFETCHES SAME FILL-ORIGIN LEVEL: 0 DIFFERENT FILL-ORIGIN LEVEL: 0
L1D AVERAGE MISS LATENCY: 49.8865 cycles
L1D AVERAGE MISS LATENCY LOAD: 83.8965 cycles
L1D AVERAGE MISS LATENCY PREFETCH: -nan cycles
L1D AVERAGE MSHR OCCUPANCY: 0.187197
L1D MSHR FULL: 0
L1D RQ	ACCESS:   64451242	FORWARD:          0	MERGED:    4628282	TO_CACHE:   58353009
L1D WQ	ACCESS:   60660531	FORWARD:    1469951	MERGED:    1796154	TO_CACHE:   58864377

L1D UNIQUE REGIONS ACCESSED: 0
L1D REGIONS CONFLICTS: 0
L1D Cross Page Prefetch Requests: 0
L1D Same Page Prefetch Requests: 0
L1D ROI Sum of L1D PQ occupancy: 0
L1D PREFETCHES PUSHED FROM L2C: 0
L1I SPEC fills:          0  NON-SPEC fills:          0
L1I Test counter :          0
L1I Leapfrog:          0
L1I MSHR merge:      30197
L1I TOTAL     ACCESS:   37031748  HIT:   36952740  MISS:      79008  HIT %:    99.7866  MISS %:   0.213352   MPKI: 0.39504
L1I LOAD      TOTAL       ACCESS:   37031748  HIT:   36952740  MISS:      79008  HIT %:    99.7866  MISS %:   0.213352   MPKI: 0.39504
L1I LOAD      NON_SPEC    ACCESS:   37031748  HIT:   36952740  MISS:      79008  HIT %:    99.7866  MISS %:   0.213352   MPKI: 0.39504
L1I PREFETCH  REQUESTED:          0  ISSUED:          0  USEFUL:          0  USELESS:          0
L1I USEFUL LOAD PREFETCHES:          0 PREFETCH ISSUED TO LOWER LEVEL:          0  ACCURACY: -nan
L1I TIMELY PREFETCHES:          0 LATE PREFETCHES: 0 DROPPED PREFETCHES: 0
L1I COMMIT LATE PREFETCHES: 0 NORMAL LATE: 0 MISSED OPPORTUNITY: 0 UNCOVERED: 79008
L1I PREFETCHES SAME FILL-ORIGIN LEVEL: 0 DIFFERENT FILL-ORIGIN LEVEL: 0
L1I AVERAGE MISS LATENCY: 30.0822 cycles
L1I AVERAGE MISS LATENCY LOAD: 30.0822 cycles
L1I AVERAGE MISS LATENCY PREFETCH: -nan cycles
L1I AVERAGE MSHR OCCUPANCY: 0.00329616
L1I MSHR FULL: 0
L1I RQ	ACCESS:   56949003	FORWARD:          0	MERGED:   19887059	TO_CACHE:   37061944

BTB SPEC fills:          0  NON-SPEC fills:          0
BTB Test counter :          0
BTB Leapfrog:          0
BTB MSHR merge:          0
BTB TOTAL     ACCESS:   32188164  HIT:   30296058  MISS:    1892106  HIT %:    94.1217  MISS %:    5.87827   MPKI: 9.46053
BTB BRANCH_DIRECT_JUMP	ACCESS:    2276304  HIT:    2276179  MISS:        125
BTB BRANCH_INDIRECT	ACCESS:     671328  HIT:     585871  MISS:      85457
BTB BRANCH_CONDITIONAL	ACCESS:   17350102  HIT:   17349618  MISS:        484
BTB BRANCH_DIRECT_CALL	ACCESS:    3559126  HIT:    3558870  MISS:        256
BTB BRANCH_INDIRECT_CALL	ACCESS:    2386088  HIT:    2378106  MISS:       7982
BTB BRANCH_RETURN	ACCESS:    5945216  HIT:    4147414  MISS:    1797802
BTB BRANCH_OTHER ACCESS:          0  HIT:          0  MISS:          0

L2C SPEC fills:          0  NON-SPEC fills:     333823
L2C Test counter :          0
L2C Leapfrog:          0
L2C MSHR merge:      90365
L2C TOTAL     ACCESS:   13387695  HIT:    7881926  MISS:    5505769  HIT %:    58.8744  MISS %:    41.1256   MPKI: 27.5288
L2C LOAD      TOTAL       ACCESS:    3278851  HIT:    1474022  MISS:    1804829  HIT %:    44.9554  MISS %:    55.0446   MPKI: 9.02415
L2C LOAD      NON_SPEC    ACCESS:     661096  HIT:     309906  MISS:     351190  HIT %:    46.8776  MISS %:    53.1224   MPKI: 1.75595
L2C LOAD      SPEC        ACCESS:    2617755  HIT:    1164116  MISS:    1453639  HIT %:      44.47  MISS %:      55.53   MPKI: 7.2682
L2C RFO       NON_SPEC    ACCESS:     478966  HIT:     154536  MISS:     324430  HIT %:    32.2645  MISS %:    67.7355   MPKI: 1.62215
L2C PREFETCH  NON_SPEC    ACCESS:    1955506  HIT:     508522  MISS:    1446984  HIT %:    26.0046  MISS %:    73.9954   MPKI: 7.23492
L2C WRITEBACK NON_SPEC    ACCESS:     613470  HIT:     612180  MISS:       1290  HIT %:    99.7897  MISS %:   0.210279   MPKI: 0.00645
L2C CLEAN_EVICTION NON_SPEC    ACCESS:    2771055  HIT:    1355852  MISS:    1415203  HIT %:    48.9291  MISS %:    51.0709   MPKI: 7.07601
L2C COMMIT LOAD NON_SPEC    ACCESS:      18517  HIT:      11593  MISS:       6924  HIT %:    62.6073  MISS %:    37.3927   MPKI: 0.03462
L2C LOAD TRANSLATION NON_SPEC    ACCESS:    4271330  HIT:    3765221  MISS:     506109  HIT %:     88.151  MISS %:     11.849   MPKI: 2.53055
L2C PREFETCH  REQUESTED:    2689324  ISSUED:    2689324  USEFUL:     536838  USELESS:     910442
L2C USEFUL LOAD PREFETCHES:     536838 PREFETCH ISSUED TO LOWER LEVEL:    1925770  ACCURACY: 27.8765
L2C TIMELY PREFETCHES:     536838 LATE PREFETCHES: 93986 DROPPED PREFETCHES: 0
L2C COMMIT LATE PREFETCHES: 0 NORMAL LATE: 93986 MISSED OPPORTUNITY: 0 UNCOVERED: 1710843
L2C PREFETCHES SAME FILL-ORIGIN LEVEL: 1540973 DIFFERENT FILL-ORIGIN LEVEL: 384797
L2C AVERAGE MISS LATENCY: 101.942 cycles
L2C AVERAGE MISS LATENCY LOAD: 128.973 cycles
L2C AVERAGE MISS LATENCY PREFETCH: 165.999 cycles
L2C AVERAGE MSHR OCCUPANCY: 0.560926
L2C MSHR FULL: 0
L2C RQ	ACCESS:    8047786	FORWARD:          0	MERGED:          0	TO_CACHE:    8047664
L2C WQ	ACCESS:    3384527	FORWARD:        127	MERGED:          1	TO_CACHE:    3384526
L2C PQ	ACCESS:    2689324	FORWARD:          0	MERGED:       8978	TO_CACHE:    2680341

L2C Instructions Evicting Data 14589
L2C Translations Evicting Data 439916
L2C Data Evicting Data 1840974
L2C Instructions Evicting Instructions 894
L2C Translations Evicting Instructions 1835
L2C Data Evicting Instructions 8663
L2C Instructions Evicting Translations 1884
L2C Translations Evicting Translations 64358
L2C Data Evicting Translations 262524
L2C Dense regions hint from L2: 0
PSCL5 SPEC fills:          0  NON-SPEC fills:          0
PSCL5 Test counter :          0
PSCL5 Leapfrog:          0
PSCL5 MSHR merge:          0
PSCL5 TOTAL     ACCESS:          0  HIT:          0  MISS:          0  HIT %:       -nan  MISS %:       -nan   MPKI: 0
PSCL5 PREFETCH  REQUESTED:          0  ISSUED:          0  USEFUL:          0  USELESS:          0
PSCL5 USEFUL LOAD PREFETCHES:          0 PREFETCH ISSUED TO LOWER LEVEL:          0  ACCURACY: -nan
PSCL5 TIMELY PREFETCHES:          0 LATE PREFETCHES: 0 DROPPED PREFETCHES: 0
PSCL5 COMMIT LATE PREFETCHES: 0 NORMAL LATE: 0 MISSED OPPORTUNITY: 0 UNCOVERED: 0
PSCL5 PREFETCHES SAME FILL-ORIGIN LEVEL: 0 DIFFERENT FILL-ORIGIN LEVEL: 0

PSCL4 SPEC fills:          0  NON-SPEC fills:          0
PSCL4 Test counter :          0
PSCL4 Leapfrog:          0
PSCL4 MSHR merge:          0
PSCL4 TOTAL     ACCESS:          0  HIT:          0  MISS:          0  HIT %:       -nan  MISS %:       -nan   MPKI: 0
PSCL4 PREFETCH  REQUESTED:          0  ISSUED:          0  USEFUL:          0  USELESS:          0
PSCL4 USEFUL LOAD PREFETCHES:          0 PREFETCH ISSUED TO LOWER LEVEL:          0  ACCURACY: -nan
PSCL4 TIMELY PREFETCHES:          0 LATE PREFETCHES: 0 DROPPED PREFETCHES: 0
PSCL4 COMMIT LATE PREFETCHES: 0 NORMAL LATE: 0 MISSED OPPORTUNITY: 0 UNCOVERED: 0
PSCL4 PREFETCHES SAME FILL-ORIGIN LEVEL: 0 DIFFERENT FILL-ORIGIN LEVEL: 0

PSCL3 SPEC fills:          0  NON-SPEC fills:          0
PSCL3 Test counter :          0
PSCL3 Leapfrog:          0
PSCL3 MSHR merge:          0
PSCL3 TOTAL     ACCESS:          0  HIT:          0  MISS:          0  HIT %:       -nan  MISS %:       -nan   MPKI: 0
PSCL3 PREFETCH  REQUESTED:          0  ISSUED:          0  USEFUL:          0  USELESS:          0
PSCL3 USEFUL LOAD PREFETCHES:          0 PREFETCH ISSUED TO LOWER LEVEL:          0  ACCURACY: -nan
PSCL3 TIMELY PREFETCHES:          0 LATE PREFETCHES: 0 DROPPED PREFETCHES: 0
PSCL3 COMMIT LATE PREFETCHES: 0 NORMAL LATE: 0 MISSED OPPORTUNITY: 0 UNCOVERED: 0
PSCL3 PREFETCHES SAME FILL-ORIGIN LEVEL: 0 DIFFERENT FILL-ORIGIN LEVEL: 0

PSCL2 SPEC fills:          0  NON-SPEC fills:          0
PSCL2 Test counter :          0
PSCL2 Leapfrog:          0
PSCL2 MSHR merge:          0
PSCL2 TOTAL     ACCESS:          0  HIT:          0  MISS:          0  HIT %:       -nan  MISS %:       -nan   MPKI: 0
PSCL2 PREFETCH  REQUESTED:          0  ISSUED:          0  USEFUL:          0  USELESS:          0
PSCL2 USEFUL LOAD PREFETCHES:          0 PREFETCH ISSUED TO LOWER LEVEL:          0  ACCURACY: -nan
PSCL2 TIMELY PREFETCHES:          0 LATE PREFETCHES: 0 DROPPED PREFETCHES: 0
PSCL2 COMMIT LATE PREFETCHES: 0 NORMAL LATE: 0 MISSED OPPORTUNITY: 0 UNCOVERED: 0
PSCL2 PREFETCHES SAME FILL-ORIGIN LEVEL: 0 DIFFERENT FILL-ORIGIN LEVEL: 0

LLC SPEC fills:          0  NON-SPEC fills:     221152
LLC Test counter :          0
LLC Leapfrog:          0
LLC MSHR merge:       1316
LLC TOTAL     ACCESS:    6982575  HIT:    2897719  MISS:    4084856  HIT %:    41.4993  MISS %:    58.5007   MPKI: 20.4243
LLC LOAD      TOTAL       ACCESS:    1714459  HIT:     513870  MISS:    1200589  HIT %:    29.9727  MISS %:    70.0273   MPKI: 6.00295
LLC LOAD      NON_SPEC    ACCESS:     346918  HIT:     121419  MISS:     225499  HIT %:    34.9993  MISS %:    65.0007   MPKI: 1.12749
LLC LOAD      SPEC        ACCESS:    1367541  HIT:     392451  MISS:     975090  HIT %:    28.6976  MISS %:    71.3024   MPKI: 4.87545
LLC RFO       NON_SPEC    ACCESS:     320812  HIT:     166907  MISS:     153905  HIT %:    52.0264  MISS %:    47.9736   MPKI: 0.769525
LLC PREFETCH  NON_SPEC    ACCESS:    1919552  HIT:     369960  MISS:    1549592  HIT %:    19.2732  MISS %:    80.7268   MPKI: 7.74796
LLC WRITEBACK NON_SPEC    ACCESS:     452674  HIT:     450429  MISS:       2245  HIT %:    99.5041  MISS %:   0.495942   MPKI: 0.011225
LLC CLEAN_EVICTION NON_SPEC    ACCESS:    2062051  HIT:    1094815  MISS:     967236  HIT %:    53.0935  MISS %:    46.9065   MPKI: 4.83618
LLC COMMIT LOAD NON_SPEC    ACCESS:       6918  HIT:       3483  MISS:       3435  HIT %:    50.3469  MISS %:    49.6531   MPKI: 0.017175
LLC LOAD TRANSLATION NON_SPEC    ACCESS:     506109  HIT:     298255  MISS:     207854  HIT %:     58.931  MISS %:     41.069   MPKI: 1.03927
LLC PREFETCH  REQUESTED:          0  ISSUED:          0  USEFUL:     144966  USELESS:    1405161
LLC USEFUL LOAD PREFETCHES:     144966 PREFETCH ISSUED TO LOWER LEVEL:    1552194  ACCURACY: 9.33943
LLC TIMELY PREFETCHES:     144966 LATE PREFETCHES: 2598 DROPPED PREFETCHES: 0
LLC COMMIT LATE PREFETCHES: 0 NORMAL LATE: 2598 MISSED OPPORTUNITY: 0 UNCOVERED: 1197991
LLC PREFETCHES SAME FILL-ORIGIN LEVEL: 295764 DIFFERENT FILL-ORIGIN LEVEL: 0
LLC AVERAGE MISS LATENCY: 124.098 cycles
LLC AVERAGE MISS LATENCY LOAD: 152.033 cycles
LLC AVERAGE MISS LATENCY PREFETCH: 168.643 cycles
LLC AVERAGE MSHR OCCUPANCY: 0.5026
LLC MSHR FULL: 0
LLC RQ	ACCESS:    2548306	FORWARD:          0	MERGED:          0	TO_CACHE:    2548298
LLC WQ	ACCESS:    2514726	FORWARD:         13	MERGED:          0	TO_CACHE:    2514726
LLC PQ	ACCESS:    1925770	FORWARD:          0	MERGED:        868	TO_CACHE:    1924897

LLC Dense regions hint to LLC: 0

RAW hits: 3065138
Loads Generated: 67448749
Loads sent to L1D: 64383611
Stores Generated: 37118330
Stores sent to L1D: 37118330
Major fault: 0 Minor fault: 47401
Allocated PAGES: 47401
Total Load insts: 79709021
Total Non-spec loads: 27641205
Percentage of speculative loads: 65.3224

LeapFrogging counter: 1257
Commit hits: 23542204 miss: 16675544
Commit hit %: 58.5369 miss %: 41.4631
Commits not translated: 0
Loads retired: 3199930
Stores retired: 37118330
Cache fills: 3199932
L1D response latency: 83.8965 cycles
Load retirement latency: 174.564 cycles
OOO test counter: 0
Discarded buffer inserts: 23542204 hits: 8138 hit %: 0.0345677
Filter prediction accuracy: -nan
------------------
Depth Distribution
------------------
depth 0: 1364443
depth 1: 2404542
depth 2: 255597
depth 3: 162
depth 4: 0
depth 5: 0
depth 6: 0
depth 7: 0
depth 8: 0
depth 9: 0
depth 10: 0
depth 11: 0
depth 12: 0
depth 13: 0
depth 14: 0
depth 15: 0
depth 16: 0
depth 17: 0
depth 18: 0
depth 19: 0
depth 20: 0
depth 21: 0
depth 22: 0
depth 23: 0
depth 24: 0
depth 25: 0
depth 26: 0
depth 27: 0
depth 28: 0
depth 29: 0
Total: 4024744
------------------
ST read accesses: 1950683
ST write accesses: 1249160
PT read accesses: 31309420
PT write accesses: 2251542
FILTER read accesses: 15543111
FILTER write accesses: 13695720
GHR read accesses: 11665082
GHR write accesses: 215170
PERC read accesses: 214005798
PERC write accesses: 29625258
GHR counter read accesses: 6399686
GHR counter write accesses: 7070683
GHR ip read accesses: 23396541
GHR ip write accesses: 12799372
ST tag read accesses: 1869909585
ST tag write accesses: 359839215

DRAM Statistics
 CHANNEL 0
 RQ ROW_BUFFER_HIT:     320759  ROW_BUFFER_MISS:    2794602
 DBUS_CONGESTED:        903
 WQ ROW_BUFFER_HIT:     317013  ROW_BUFFER_MISS:    1550932  FULL:          0

 AVG_CONGESTED_CYCLE: 4
 All warmup complete: 2
Channel 0 Bank busy for read cycles: 0
Channel 0 Bank busy for write cycles: 0
Channel 0
Rank 0
0banks busy for read cycles: 374790654
0banks busy for write cycles: 604362
1banks busy for read cycles: 135924875
1banks busy for write cycles: 85334132
2banks busy for read cycles: 62251067
2banks busy for write cycles: 44735465
3banks busy for read cycles: 26972662
3banks busy for write cycles: 25150362
4banks busy for read cycles: 12442407
4banks busy for write cycles: 13755261
5banks busy for read cycles: 5467735
5banks busy for write cycles: 6845004
6banks busy for read cycles: 2121310
6banks busy for write cycles: 2904712
7banks busy for read cycles: 524292
7banks busy for write cycles: 968319
8banks busy for read cycles: 47795
8banks busy for write cycles: 218946

CPU 0 Branch Prediction Accuracy: 98.2082% MPKI: 3.72743 Average ROB Occupancy at Mispredict: 33.7698
Branch types
NOT_BRANCH: 158393545 79.1968%
BRANCH_DIRECT_JUMP: 2276304 1.13815%
BRANCH_INDIRECT: 671328 0.335664%
BRANCH_CONDITIONAL: 26768026 13.384%
BRANCH_DIRECT_CALL: 3559126 1.77956%
BRANCH_INDIRECT_CALL: 2386088 1.19304%
BRANCH_RETURN: 5945216 2.97261%
BRANCH_OTHER: 0 0%

DRAM PAGES: 1048576
Allocated PAGES: 47401
