Initialize SIGNATURE TABLE
ST_SET: 1
ST_WAY: 256
ST_TAG_BIT: 16
ST_TAG_MASK: ffff

Initialize PATTERN TABLE
PT_SET: 512
PT_WAY: 4
SIG_DELTA_BIT: 7
C_SIG_BIT: 4
C_DELTA_BIT: 4

Initialize PREFETCH FILTER
FILTER_SET: 1024

Initialize PERCEPTRON
PERC_ENTRIES: 4096
PERC_FEATURES: 9
Initialize SIGNATURE TABLE
ST_SET: 1
ST_WAY: 256
ST_TAG_BIT: 16
ST_TAG_MASK: ffff

Initialize PATTERN TABLE
PT_SET: 512
PT_WAY: 4
SIG_DELTA_BIT: 7
C_SIG_BIT: 4
C_DELTA_BIT: 4

Initialize PREFETCH FILTER
FILTER_SET: 1024

Initialize PERCEPTRON
PERC_ENTRIES: 4096
PERC_FEATURES: 9

*** ChampSim Multicore Out-of-Order Simulator ***

Warmup Instructions: 50000000
Simulation Instructions: 200000000
Number of CPUs: 1
LLC sets: 2048
LLC ways: 16
L0D sets: 16
L0D ways: 2
ROB size: 352
LQ size: 128
SQ size: 72
Secure Berti: OFF
Berti: OFF
Berti Fill: OFF
On commit prefetching: OFF
Hit-based filter: OFF
Time-guarding: ON
Free-slotting: ON
Leap-frogging: ON
Train prefetcher on L0D bypass: OFF
No translation penalty for prefetchers: OFF
Prefetch to L0D only: OFF
Prefetch to L1D only: OFF
Clean evictions: ON
Commit loads: ON
Commit write: ON
Fill commit loads to L2C, LLC: ON
DRAM IO FREQUENCY: 6400
ROB SIZE: 352
Off-chip DRAM Size: 4096 MB Channels: 1 Width: 64-bit Data Rate: 6400 MT/s
CPU 0 runs /home/sumon/secure_berti/GhostMinion/../../traces/spec/621.wrf_s-6673B.champsimtrace.xz
.xz
BTB has LRU replacement policy
ITLB has LRU replacement policy
DTLB has LRU replacement policy
STLB has LRU replacement policy
L1I has LRU replacement policy
L0D has LRU replacement policy
L1D has LRU replacement policy
PERC_ENTRIES: 4096
L2C has LRU replacement policy
LLC has LRU replacement policy
Heartbeat CPU 0 instructions: 10000002 cycles: 5240629 heartbeat IPC: 1.90817 cumulative IPC: 1.90817 (Simulation time: 0 hr 1 min 23 sec) 
Heartbeat CPU 0 instructions: 20000002 cycles: 8454546 heartbeat IPC: 3.11147 cumulative IPC: 2.36559 (Simulation time: 0 hr 2 min 34 sec) 
Heartbeat CPU 0 instructions: 30000001 cycles: 11569550 heartbeat IPC: 3.21027 cumulative IPC: 2.59301 (Simulation time: 0 hr 3 min 40 sec) 
Heartbeat CPU 0 instructions: 40000002 cycles: 14647693 heartbeat IPC: 3.24871 cumulative IPC: 2.73081 (Simulation time: 0 hr 5 min 0 sec) 
Heartbeat CPU 0 instructions: 50000001 cycles: 17749712 heartbeat IPC: 3.22371 cumulative IPC: 2.81695 (Simulation time: 0 hr 6 min 19 sec) 

Warmup complete CPU 0 instructions: 50000001 cycles: 17749712 (Simulation time: 0 hr 6 min 19 sec) 

Heartbeat CPU 0 instructions: 60000001 cycles: 32601581 heartbeat IPC: 0.673316 cumulative IPC: 0.673316 (Simulation time: 0 hr 8 min 23 sec) 
Heartbeat CPU 0 instructions: 70000000 cycles: 49767450 heartbeat IPC: 0.582551 cumulative IPC: 0.624654 (Simulation time: 0 hr 10 min 42 sec) 
Heartbeat CPU 0 instructions: 80000000 cycles: 63263298 heartbeat IPC: 0.740969 cumulative IPC: 0.659144 (Simulation time: 0 hr 12 min 35 sec) 
Heartbeat CPU 0 instructions: 90000003 cycles: 77375714 heartbeat IPC: 0.708596 cumulative IPC: 0.670848 (Simulation time: 0 hr 14 min 35 sec) 
Heartbeat CPU 0 instructions: 100000000 cycles: 96652772 heartbeat IPC: 0.518751 cumulative IPC: 0.633689 (Simulation time: 0 hr 17 min 4 sec) 
Heartbeat CPU 0 instructions: 110000000 cycles: 104998113 heartbeat IPC: 1.19827 cumulative IPC: 0.687692 (Simulation time: 0 hr 18 min 32 sec) 
Heartbeat CPU 0 instructions: 120000003 cycles: 115475782 heartbeat IPC: 0.954411 cumulative IPC: 0.716288 (Simulation time: 0 hr 20 min 14 sec) 
Heartbeat CPU 0 instructions: 130000001 cycles: 124594086 heartbeat IPC: 1.09669 cumulative IPC: 0.748753 (Simulation time: 0 hr 21 min 40 sec) 
Heartbeat CPU 0 instructions: 140000001 cycles: 134162592 heartbeat IPC: 1.0451 cumulative IPC: 0.77311 (Simulation time: 0 hr 23 min 22 sec) 
Heartbeat CPU 0 instructions: 150000001 cycles: 144620915 heartbeat IPC: 0.956176 cumulative IPC: 0.788201 (Simulation time: 0 hr 24 min 51 sec) 
Heartbeat CPU 0 instructions: 160000001 cycles: 153362514 heartbeat IPC: 1.14396 cumulative IPC: 0.811133 (Simulation time: 0 hr 26 min 23 sec) 
Heartbeat CPU 0 instructions: 170000001 cycles: 163891830 heartbeat IPC: 0.949729 cumulative IPC: 0.821119 (Simulation time: 0 hr 28 min 0 sec) 
Heartbeat CPU 0 instructions: 180000000 cycles: 172831381 heartbeat IPC: 1.11862 cumulative IPC: 0.838268 (Simulation time: 0 hr 29 min 24 sec) 
Heartbeat CPU 0 instructions: 190000000 cycles: 185436089 heartbeat IPC: 0.793354 cumulative IPC: 0.834892 (Simulation time: 0 hr 31 min 5 sec) 
Heartbeat CPU 0 instructions: 200000003 cycles: 197464265 heartbeat IPC: 0.831381 cumulative IPC: 0.834657 (Simulation time: 0 hr 32 min 42 sec) 
Heartbeat CPU 0 instructions: 210000000 cycles: 209512079 heartbeat IPC: 0.830026 cumulative IPC: 0.834366 (Simulation time: 0 hr 34 min 18 sec) 
Heartbeat CPU 0 instructions: 220000000 cycles: 221742325 heartbeat IPC: 0.817645 cumulative IPC: 0.833364 (Simulation time: 0 hr 35 min 56 sec) 
Heartbeat CPU 0 instructions: 230000003 cycles: 236591251 heartbeat IPC: 0.67345 cumulative IPC: 0.822513 (Simulation time: 0 hr 37 min 41 sec) 
Heartbeat CPU 0 instructions: 240000000 cycles: 250278753 heartbeat IPC: 0.730593 cumulative IPC: 0.817102 (Simulation time: 0 hr 39 min 48 sec) 
Heartbeat CPU 0 instructions: 250000000 cycles: 258804088 heartbeat IPC: 1.17297 cumulative IPC: 0.829688 (Simulation time: 0 hr 41 min 12 sec) 
Finished CPU 0 instructions: 200000003 cycles: 241054377 cumulative IPC: 0.829688 (Simulation time: 0 hr 41 min 12 sec) 
 Instruction ID: 250000109

ChampSim completed all CPUs

Region of Interest Statistics

CPU 0 cumulative IPC: 0.829688 instructions: 200000003 cycles: 241054377
ITLB SPEC fills:          0  NON-SPEC fills:          0
ITLB Test counter :          0
ITLB Leapfrog:          0
ITLB MSHR merge:          0
ITLB TOTAL     ACCESS:   28979539  HIT:   28979368  MISS:        171  HIT %:    99.9994  MISS %: 0.000590071   MPKI: 0.000855
ITLB LOAD TRANSLATION NON_SPEC    ACCESS:   28979539  HIT:   28979368  MISS:        171  HIT %:    99.9994  MISS %: 0.000590071   MPKI: 0.000855
ITLB PREFETCH  REQUESTED:          0  ISSUED:          0  USEFUL:          0  USELESS:          0
ITLB USEFUL LOAD PREFETCHES:          0 PREFETCH ISSUED TO LOWER LEVEL:          0  ACCURACY: -nan
ITLB TIMELY PREFETCHES:          0 LATE PREFETCHES: 0 DROPPED PREFETCHES: 0
ITLB COMMIT LATE PREFETCHES: 0 NORMAL LATE: 0 MISSED OPPORTUNITY: 0 UNCOVERED: 0
ITLB PREFETCHES SAME FILL-ORIGIN LEVEL: 0 DIFFERENT FILL-ORIGIN LEVEL: 0
ITLB AVERAGE MISS LATENCY: 368.637 cycles
ITLB AVERAGE MISS LATENCY LOAD: -nan cycles
ITLB AVERAGE MISS LATENCY PREFETCH: -nan cycles
ITLB AVERAGE MSHR OCCUPANCY: 2.34648e-06
ITLB MSHR FULL: 0
ITLB RQ	ACCESS:   35149043	FORWARD:          0	MERGED:    6169447	TO_CACHE:   28979596

DTLB SPEC fills:          0  NON-SPEC fills:          0
DTLB Test counter :          0
DTLB Leapfrog:          0
DTLB MSHR merge:          0
DTLB TOTAL     ACCESS:   51321565  HIT:   51119636  MISS:     201929  HIT %:    99.6065  MISS %:   0.393458   MPKI: 1.00964
DTLB LOAD TRANSLATION NON_SPEC    ACCESS:   51321565  HIT:   51119636  MISS:     201929  HIT %:    99.6065  MISS %:   0.393458   MPKI: 1.00964
DTLB PREFETCH  REQUESTED:          0  ISSUED:          0  USEFUL:          0  USELESS:          0
DTLB USEFUL LOAD PREFETCHES:          0 PREFETCH ISSUED TO LOWER LEVEL:          0  ACCURACY: -nan
DTLB TIMELY PREFETCHES:          0 LATE PREFETCHES: 0 DROPPED PREFETCHES: 0
DTLB COMMIT LATE PREFETCHES: 0 NORMAL LATE: 0 MISSED OPPORTUNITY: 0 UNCOVERED: 0
DTLB PREFETCHES SAME FILL-ORIGIN LEVEL: 0 DIFFERENT FILL-ORIGIN LEVEL: 0
DTLB AVERAGE MISS LATENCY: 35.9295 cycles
DTLB AVERAGE MISS LATENCY LOAD: -nan cycles
DTLB AVERAGE MISS LATENCY PREFETCH: -nan cycles
DTLB AVERAGE MSHR OCCUPANCY: 0.0338621
DTLB MSHR FULL: 0.00186172
DTLB RQ	ACCESS:   58859746	FORWARD:          0	MERGED:    7461521	TO_CACHE:   51398225

STLB SPEC fills:          0  NON-SPEC fills:          0
STLB Test counter :          0
STLB Leapfrog:          0
STLB MSHR merge:          0
STLB TOTAL     ACCESS:     202100  HIT:     174493  MISS:      27607  HIT %:    86.3399  MISS %:    13.6601   MPKI: 0.138035
STLB LOAD TRANSLATION NON_SPEC    ACCESS:     202100  HIT:     174493  MISS:      27607  HIT %:    86.3399  MISS %:    13.6601   MPKI: 0.138035
STLB PREFETCH  REQUESTED:          0  ISSUED:          0  USEFUL:          0  USELESS:          0
STLB USEFUL LOAD PREFETCHES:          0 PREFETCH ISSUED TO LOWER LEVEL:          0  ACCURACY: -nan
STLB TIMELY PREFETCHES:          0 LATE PREFETCHES: 0 DROPPED PREFETCHES: 0
STLB COMMIT LATE PREFETCHES: 0 NORMAL LATE: 0 MISSED OPPORTUNITY: 0 UNCOVERED: 0
STLB PREFETCHES SAME FILL-ORIGIN LEVEL: 0 DIFFERENT FILL-ORIGIN LEVEL: 0
STLB AVERAGE MISS LATENCY: 198.508 cycles
STLB AVERAGE MISS LATENCY LOAD: -nan cycles
STLB AVERAGE MISS LATENCY PREFETCH: -nan cycles
STLB AVERAGE MSHR OCCUPANCY: 0.0845176
STLB MSHR FULL: 0
STLB RQ	ACCESS:     202100	FORWARD:          0	MERGED:          0	TO_CACHE:     202100

STLB Hit, L1D data hit: 0
STLB Hit, L2C data hit: 0
STLB Hit, LLC data hit: 0
STLB Hit, LLC data miss: 0
STLB STLB hints to L2: 0
L0D SPEC fills:   33050910  NON-SPEC fills:          0
L0D TimeGuard Request with older TS:     587648 Restricted eviction:     500176 read:    1273969
L0D Test counter :          0
L0D Leapfrog:          0
L0D MSHR merge:    2417034
L0D TOTAL     ACCESS:   45587419  HIT:    6498827  MISS:   39088592  HIT %:    14.2557  MISS %:    85.7443   MPKI: 195.443
L0D LOAD      TOTAL       ACCESS:   45587419  HIT:    6498827  MISS:   39088592  HIT %:    14.2557  MISS %:    85.7443   MPKI: 195.443
L0D LOAD      NON_SPEC    ACCESS:    6406756  HIT:     869136  MISS:    5537620  HIT %:    13.5659  MISS %:    86.4341   MPKI: 27.6881
L0D LOAD      SPEC        ACCESS:   39180663  HIT:    5629691  MISS:   33550972  HIT %:    14.3685  MISS %:    85.6315   MPKI: 167.755
L0D PREFETCH  REQUESTED:          0  ISSUED:          0  USEFUL:          0  USELESS:          0
L0D USEFUL LOAD PREFETCHES:          0 PREFETCH ISSUED TO LOWER LEVEL:          0  ACCURACY: -nan
L0D TIMELY PREFETCHES:          0 LATE PREFETCHES: 0 DROPPED PREFETCHES: 0
L0D COMMIT LATE PREFETCHES: 0 NORMAL LATE: 0 MISSED OPPORTUNITY: 0 UNCOVERED: 39088592
L0D PREFETCHES SAME FILL-ORIGIN LEVEL: 0 DIFFERENT FILL-ORIGIN LEVEL: 0
L0D AVERAGE MISS LATENCY: 8.46297 cycles
L0D AVERAGE MISS LATENCY LOAD: 8.46297 cycles
L0D AVERAGE MISS LATENCY PREFETCH: -nan cycles
L0D AVERAGE MSHR OCCUPANCY: 2.03779
L0D MSHR FULL: 0.0721313
L0D RQ	ACCESS:   58957888	FORWARD:          0	MERGED:   10953437	TO_CACHE:   48004451
L0D WQ	ACCESS:   10855295	FORWARD:          0	MERGED:          0	TO_CACHE:   10855295

L1D SPEC fills:          0  NON-SPEC fills:     150568
L1D Test counter :          0
L1D Leapfrog:          0
L1D MSHR merge:      35623
L1D TOTAL     ACCESS:   92658190  HIT:   86327794  MISS:    6330396  HIT %:     93.168  MISS %:    6.83199   MPKI: 31.652
L1D LOAD      TOTAL       ACCESS:   39052969  HIT:   36007510  MISS:    3045459  HIT %:    92.2017  MISS %:    7.79828   MPKI: 15.2273
L1D LOAD      NON_SPEC    ACCESS:    5536156  HIT:    5385588  MISS:     150568  HIT %:    97.2803  MISS %:    2.71972   MPKI: 0.75284
L1D LOAD      SPEC        ACCESS:   33516813  HIT:   30621922  MISS:    2894891  HIT %:    91.3629  MISS %:    8.63713   MPKI: 14.4745
L1D RFO       NON_SPEC    ACCESS:    7909059  HIT:    7389819  MISS:     519240  HIT %:    93.4349  MISS %:    6.56513   MPKI: 2.5962
L1D COMMIT LOAD NON_SPEC    ACCESS:   13221811  HIT:   13032458  MISS:     189353  HIT %:    98.5679  MISS %:    1.43213   MPKI: 0.946765
L1D COMMIT WRITE NON_SPEC    ACCESS:   32474351  HIT:   29898007  MISS:    2576344  HIT %:    92.0665  MISS %:    7.93347   MPKI: 12.8817
L1D PREFETCH  REQUESTED:          0  ISSUED:          0  USEFUL:          0  USELESS:          0
L1D USEFUL LOAD PREFETCHES:          0 PREFETCH ISSUED TO LOWER LEVEL:          0  ACCURACY: -nan
L1D TIMELY PREFETCHES:          0 LATE PREFETCHES: 0 DROPPED PREFETCHES: 0
L1D COMMIT LATE PREFETCHES: 0 NORMAL LATE: 0 MISSED OPPORTUNITY: 0 UNCOVERED: 3045459
L1D PREFETCHES SAME FILL-ORIGIN LEVEL: 0 DIFFERENT FILL-ORIGIN LEVEL: 0
L1D AVERAGE MISS LATENCY: 49.0315 cycles
L1D AVERAGE MISS LATENCY LOAD: 38.8831 cycles
L1D AVERAGE MISS LATENCY PREFETCH: -nan cycles
L1D AVERAGE MSHR OCCUPANCY: 0.952597
L1D MSHR FULL: 0.0197645
L1D RQ	ACCESS:   58605601	FORWARD:          0	MERGED:    6023389	TO_CACHE:   52404371
L1D WQ	ACCESS:   42503535	FORWARD:     177841	MERGED:     522115	TO_CACHE:   41981420

L1D UNIQUE REGIONS ACCESSED: 0
L1D REGIONS CONFLICTS: 0
L1D Cross Page Prefetch Requests: 0
L1D Same Page Prefetch Requests: 0
L1D ROI Sum of L1D PQ occupancy: 0
L1D PREFETCHES PUSHED FROM L2C: 0
L1I SPEC fills:          0  NON-SPEC fills:          0
L1I Test counter :          0
L1I Leapfrog:          0
L1I MSHR merge:       2961
L1I TOTAL     ACCESS:   35146081  HIT:   35139918  MISS:       6163  HIT %:    99.9825  MISS %:  0.0175354   MPKI: 0.030815
L1I LOAD      TOTAL       ACCESS:   35146081  HIT:   35139918  MISS:       6163  HIT %:    99.9825  MISS %:  0.0175354   MPKI: 0.030815
L1I LOAD      NON_SPEC    ACCESS:   35146081  HIT:   35139918  MISS:       6163  HIT %:    99.9825  MISS %:  0.0175354   MPKI: 0.030815
L1I PREFETCH  REQUESTED:          0  ISSUED:          0  USEFUL:          0  USELESS:          0
L1I USEFUL LOAD PREFETCHES:          0 PREFETCH ISSUED TO LOWER LEVEL:          0  ACCURACY: -nan
L1I TIMELY PREFETCHES:          0 LATE PREFETCHES: 0 DROPPED PREFETCHES: 0
L1I COMMIT LATE PREFETCHES: 0 NORMAL LATE: 0 MISSED OPPORTUNITY: 0 UNCOVERED: 6163
L1I PREFETCHES SAME FILL-ORIGIN LEVEL: 0 DIFFERENT FILL-ORIGIN LEVEL: 0
L1I AVERAGE MISS LATENCY: 270.159 cycles
L1I AVERAGE MISS LATENCY LOAD: 270.159 cycles
L1I AVERAGE MISS LATENCY PREFETCH: -nan cycles
L1I AVERAGE MSHR OCCUPANCY: 0.000230533
L1I MSHR FULL: 0
L1I RQ	ACCESS:   51914685	FORWARD:          0	MERGED:   16765642	TO_CACHE:   35149043

BTB SPEC fills:          0  NON-SPEC fills:          0
BTB Test counter :          0
BTB Leapfrog:          0
BTB MSHR merge:          0
BTB TOTAL     ACCESS:    9141034  HIT:    9133637  MISS:       7397  HIT %:    99.9191  MISS %:  0.0809208   MPKI: 0.036985
BTB BRANCH_DIRECT_JUMP	ACCESS:     290387  HIT:     290283  MISS:        104
BTB BRANCH_INDIRECT	ACCESS:         12  HIT:          8  MISS:          4
BTB BRANCH_CONDITIONAL	ACCESS:    8250534  HIT:    8249659  MISS:        875
BTB BRANCH_DIRECT_CALL	ACCESS:     300051  HIT:     299561  MISS:        490
BTB BRANCH_INDIRECT_CALL	ACCESS:          0  HIT:          0  MISS:          0
BTB BRANCH_RETURN	ACCESS:     300050  HIT:     294126  MISS:       5924
BTB BRANCH_OTHER ACCESS:          0  HIT:          0  MISS:          0

L2C SPEC fills:          0  NON-SPEC fills:       7827
L2C Test counter :          0
L2C Leapfrog:          0
L2C MSHR merge:     130508
L2C TOTAL     ACCESS:   10524731  HIT:    7600814  MISS:    2923917  HIT %:    72.2186  MISS %:    27.7814   MPKI: 14.6196
L2C LOAD      TOTAL       ACCESS:    3050799  HIT:    2793766  MISS:     257033  HIT %:    91.5749  MISS %:     8.4251   MPKI: 1.28516
L2C LOAD      NON_SPEC    ACCESS:     156727  HIT:     142737  MISS:      13990  HIT %:    91.0737  MISS %:    8.92635   MPKI: 0.06995
L2C LOAD      SPEC        ACCESS:    2894072  HIT:    2651029  MISS:     243043  HIT %:     91.602  MISS %:    8.39796   MPKI: 1.21521
L2C RFO       NON_SPEC    ACCESS:     519212  HIT:     143987  MISS:     375225  HIT %:    27.7318  MISS %:    72.2682   MPKI: 1.87612
L2C PREFETCH  NON_SPEC    ACCESS:    3304016  HIT:    1250610  MISS:    2053406  HIT %:    37.8512  MISS %:    62.1488   MPKI: 10.267
L2C WRITEBACK NON_SPEC    ACCESS:     586606  HIT:     584922  MISS:       1684  HIT %:    99.7129  MISS %:   0.287075   MPKI: 0.00842
L2C CLEAN_EVICTION NON_SPEC    ACCESS:    2737251  HIT:    2520185  MISS:     217066  HIT %:    92.0699  MISS %:    7.93007   MPKI: 1.08533
L2C COMMIT LOAD NON_SPEC    ACCESS:     188821  HIT:     174354  MISS:      14467  HIT %:    92.3382  MISS %:    7.66175   MPKI: 0.072335
L2C LOAD TRANSLATION NON_SPEC    ACCESS:     138026  HIT:     132990  MISS:       5036  HIT %:    96.3514  MISS %:    3.64859   MPKI: 0.02518
L2C PREFETCH  REQUESTED:    3571145  ISSUED:    3570210  USEFUL:    1917505  USELESS:     135872
L2C USEFUL LOAD PREFETCHES:    1917505 PREFETCH ISSUED TO LOWER LEVEL:    2188176  ACCURACY: 87.6303
L2C TIMELY PREFETCHES:    1917505 LATE PREFETCHES: 131415 DROPPED PREFETCHES: 0
L2C COMMIT LATE PREFETCHES: 0 NORMAL LATE: 131415 MISSED OPPORTUNITY: 0 UNCOVERED: 125618
L2C PREFETCHES SAME FILL-ORIGIN LEVEL: 2184822 DIFFERENT FILL-ORIGIN LEVEL: 3354
L2C AVERAGE MISS LATENCY: 351.075 cycles
L2C AVERAGE MISS LATENCY LOAD: 328.656 cycles
L2C AVERAGE MISS LATENCY PREFETCH: 370.373 cycles
L2C AVERAGE MSHR OCCUPANCY: 13.0424
L2C MSHR FULL: 0.239454
L2C RQ	ACCESS:    3898241	FORWARD:          0	MERGED:          0	TO_CACHE:    3896858
L2C WQ	ACCESS:    3324297	FORWARD:       1444	MERGED:        440	TO_CACHE:    3323857
L2C PQ	ACCESS:    3570210	FORWARD:          0	MERGED:      12261	TO_CACHE:    3557888

L2C Instructions Evicting Data 6143
L2C Translations Evicting Data 5024
L2C Data Evicting Data 2440925
L2C Instructions Evicting Instructions 14
L2C Translations Evicting Instructions 7
L2C Data Evicting Instructions 5560
L2C Instructions Evicting Translations 6
L2C Translations Evicting Translations 5
L2C Data Evicting Translations 4440
L2C Dense regions hint from L2: 0
PSCL5 SPEC fills:          0  NON-SPEC fills:          0
PSCL5 Test counter :          0
PSCL5 Leapfrog:          0
PSCL5 MSHR merge:          0
PSCL5 TOTAL     ACCESS:          0  HIT:          0  MISS:          0  HIT %:       -nan  MISS %:       -nan   MPKI: 0
PSCL5 PREFETCH  REQUESTED:          0  ISSUED:          0  USEFUL:          0  USELESS:          0
PSCL5 USEFUL LOAD PREFETCHES:          0 PREFETCH ISSUED TO LOWER LEVEL:          0  ACCURACY: -nan
PSCL5 TIMELY PREFETCHES:          0 LATE PREFETCHES: 0 DROPPED PREFETCHES: 0
PSCL5 COMMIT LATE PREFETCHES: 0 NORMAL LATE: 0 MISSED OPPORTUNITY: 0 UNCOVERED: 0
PSCL5 PREFETCHES SAME FILL-ORIGIN LEVEL: 0 DIFFERENT FILL-ORIGIN LEVEL: 0

PSCL4 SPEC fills:          0  NON-SPEC fills:          0
PSCL4 Test counter :          0
PSCL4 Leapfrog:          0
PSCL4 MSHR merge:          0
PSCL4 TOTAL     ACCESS:          0  HIT:          0  MISS:          0  HIT %:       -nan  MISS %:       -nan   MPKI: 0
PSCL4 PREFETCH  REQUESTED:          0  ISSUED:          0  USEFUL:          0  USELESS:          0
PSCL4 USEFUL LOAD PREFETCHES:          0 PREFETCH ISSUED TO LOWER LEVEL:          0  ACCURACY: -nan
PSCL4 TIMELY PREFETCHES:          0 LATE PREFETCHES: 0 DROPPED PREFETCHES: 0
PSCL4 COMMIT LATE PREFETCHES: 0 NORMAL LATE: 0 MISSED OPPORTUNITY: 0 UNCOVERED: 0
PSCL4 PREFETCHES SAME FILL-ORIGIN LEVEL: 0 DIFFERENT FILL-ORIGIN LEVEL: 0

PSCL3 SPEC fills:          0  NON-SPEC fills:          0
PSCL3 Test counter :          0
PSCL3 Leapfrog:          0
PSCL3 MSHR merge:          0
PSCL3 TOTAL     ACCESS:          0  HIT:          0  MISS:          0  HIT %:       -nan  MISS %:       -nan   MPKI: 0
PSCL3 PREFETCH  REQUESTED:          0  ISSUED:          0  USEFUL:          0  USELESS:          0
PSCL3 USEFUL LOAD PREFETCHES:          0 PREFETCH ISSUED TO LOWER LEVEL:          0  ACCURACY: -nan
PSCL3 TIMELY PREFETCHES:          0 LATE PREFETCHES: 0 DROPPED PREFETCHES: 0
PSCL3 COMMIT LATE PREFETCHES: 0 NORMAL LATE: 0 MISSED OPPORTUNITY: 0 UNCOVERED: 0
PSCL3 PREFETCHES SAME FILL-ORIGIN LEVEL: 0 DIFFERENT FILL-ORIGIN LEVEL: 0

PSCL2 SPEC fills:          0  NON-SPEC fills:          0
PSCL2 Test counter :          0
PSCL2 Leapfrog:          0
PSCL2 MSHR merge:          0
PSCL2 TOTAL     ACCESS:          0  HIT:          0  MISS:          0  HIT %:       -nan  MISS %:       -nan   MPKI: 0
PSCL2 PREFETCH  REQUESTED:          0  ISSUED:          0  USEFUL:          0  USELESS:          0
PSCL2 USEFUL LOAD PREFETCHES:          0 PREFETCH ISSUED TO LOWER LEVEL:          0  ACCURACY: -nan
PSCL2 TIMELY PREFETCHES:          0 LATE PREFETCHES: 0 DROPPED PREFETCHES: 0
PSCL2 COMMIT LATE PREFETCHES: 0 NORMAL LATE: 0 MISSED OPPORTUNITY: 0 UNCOVERED: 0
PSCL2 PREFETCHES SAME FILL-ORIGIN LEVEL: 0 DIFFERENT FILL-ORIGIN LEVEL: 0

LLC SPEC fills:          0  NON-SPEC fills:       4022
LLC Test counter :          0
LLC Leapfrog:          0
LLC MSHR merge:          7
LLC TOTAL     ACCESS:    5189611  HIT:    2851734  MISS:    2337877  HIT %:    54.9508  MISS %:    45.0492   MPKI: 11.6894
LLC LOAD      TOTAL       ACCESS:     126524  HIT:      22429  MISS:     104095  HIT %:    17.7271  MISS %:    82.2729   MPKI: 0.520475
LLC LOAD      NON_SPEC    ACCESS:      11796  HIT:       1611  MISS:      10185  HIT %:    13.6572  MISS %:    86.3428   MPKI: 0.050925
LLC LOAD      SPEC        ACCESS:     114728  HIT:      20818  MISS:      93910  HIT %:    18.1455  MISS %:    81.8545   MPKI: 0.46955
LLC RFO       NON_SPEC    ACCESS:     374324  HIT:      16330  MISS:     357994  HIT %:    4.36253  MISS %:    95.6375   MPKI: 1.78997
LLC PREFETCH  NON_SPEC    ACCESS:    2187930  HIT:     410975  MISS:    1776955  HIT %:    18.7837  MISS %:    81.2163   MPKI: 8.88477
LLC WRITEBACK NON_SPEC    ACCESS:     437908  HIT:     434953  MISS:       2955  HIT %:    99.3252  MISS %:   0.674799   MPKI: 0.014775
LLC CLEAN_EVICTION NON_SPEC    ACCESS:    2043430  HIT:    1955991  MISS:      87439  HIT %:     95.721  MISS %:    4.27903   MPKI: 0.437195
LLC COMMIT LOAD NON_SPEC    ACCESS:      14459  HIT:      10684  MISS:       3775  HIT %:    73.8917  MISS %:    26.1083   MPKI: 0.018875
LLC LOAD TRANSLATION NON_SPEC    ACCESS:       5036  HIT:        372  MISS:       4664  HIT %:    7.38681  MISS %:    92.6132   MPKI: 0.02332
LLC PREFETCH  REQUESTED:          0  ISSUED:          0  USEFUL:      21169  USELESS:    1756790
LLC USEFUL LOAD PREFETCHES:      21169 PREFETCH ISSUED TO LOWER LEVEL:    1776976  ACCURACY: 1.19129
LLC TIMELY PREFETCHES:      21169 LATE PREFETCHES: 20 DROPPED PREFETCHES: 0
LLC COMMIT LATE PREFETCHES: 0 NORMAL LATE: 20 MISSED OPPORTUNITY: 0 UNCOVERED: 104075
LLC PREFETCHES SAME FILL-ORIGIN LEVEL: 2339 DIFFERENT FILL-ORIGIN LEVEL: 0
LLC AVERAGE MISS LATENCY: 429.436 cycles
LLC AVERAGE MISS LATENCY LOAD: 345.941 cycles
LLC AVERAGE MISS LATENCY PREFETCH: 449.468 cycles
LLC AVERAGE MSHR OCCUPANCY: 7.94202
LLC MSHR FULL: 0
LLC RQ	ACCESS:     520346	FORWARD:          0	MERGED:          0	TO_CACHE:     520343
LLC WQ	ACCESS:    2481338	FORWARD:         13	MERGED:          0	TO_CACHE:    2481338
LLC PQ	ACCESS:    2188176	FORWARD:          0	MERGED:         15	TO_CACHE:    2188151

LLC Dense regions hint to LLC: 0

RAW hits: 157390
Loads Generated: 59115281
Loads sent to L1D: 58957888
Stores Generated: 10855290
Stores sent to L1D: 10855295
Major fault: 0 Minor fault: 10671
Allocated PAGES: 10671
Total Load insts: 73603997
Total Non-spec loads: 7553400
Percentage of speculative loads: 89.7378

LeapFrogging counter: 1252194
Commit hits: 32531486 miss: 19517011
Commit hit %: 62.5023 miss %: 37.4977
Commits not translated: 0
Loads retired: 3045459
Stores retired: 10855295
Cache fills: 3045459
L1D response latency: 38.8831 cycles
Load retirement latency: 135.942 cycles
OOO test counter: 0
Discarded buffer inserts: 32531486 hits: 109451 hit %: 0.336446
Filter prediction accuracy: -nan
------------------
Depth Distribution
------------------
depth 0: 92195
depth 1: 13541
depth 2: 56642
depth 3: 75535
depth 4: 106039
depth 5: 168486
depth 6: 205584
depth 7: 510950
depth 8: 1277014
depth 9: 883348
depth 10: 124111
depth 11: 412231
depth 12: 74248
depth 13: 9728
depth 14: 11809
depth 15: 726
depth 16: 433
depth 17: 173
depth 18: 90
depth 19: 10
depth 20: 0
depth 21: 0
depth 22: 0
depth 23: 0
depth 24: 0
depth 25: 0
depth 26: 0
depth 27: 0
depth 28: 0
depth 29: 0
Total: 4022893
------------------
ST read accesses: 2998666
ST write accesses: 45970
PT read accesses: 134140469
PT write accesses: 4242898
FILTER read accesses: 27931328
FILTER write accesses: 11506544
GHR read accesses: 14054601
GHR write accesses: 2233555
PERC read accesses: 967324914
PERC write accesses: 29061461
GHR counter read accesses: 6089272
GHR counter write accesses: 9402942
GHR ip read accesses: 19870086
GHR ip write accesses: 12178544
ST tag read accesses: 1193574278
ST tag write accesses: 34037820

DRAM Statistics
 CHANNEL 0
 RQ ROW_BUFFER_HIT:     415991  ROW_BUFFER_MISS:    1831384
 DBUS_CONGESTED:        853
 WQ ROW_BUFFER_HIT:     503434  ROW_BUFFER_MISS:    1572815  FULL:       8347

 AVG_CONGESTED_CYCLE: 5
 All warmup complete: 2
Channel 0 Bank busy for read cycles: 0
Channel 0 Bank busy for write cycles: 0
Channel 0
Rank 0
0banks busy for read cycles: 88121702
0banks busy for write cycles: 104959
1banks busy for read cycles: 25670887
1banks busy for write cycles: 11055982
2banks busy for read cycles: 17687084
2banks busy for write cycles: 6197063
3banks busy for read cycles: 10712856
3banks busy for write cycles: 3092422
4banks busy for read cycles: 6589808
4banks busy for write cycles: 1694290
5banks busy for read cycles: 5336714
5banks busy for write cycles: 1434394
6banks busy for read cycles: 5082114
6banks busy for write cycles: 1230064
7banks busy for read cycles: 5475758
7banks busy for write cycles: 3408058
8banks busy for read cycles: 13164873
8banks busy for write cycles: 34995350

CPU 0 Branch Prediction Accuracy: 99.8685% MPKI: 0.079065 Average ROB Occupancy at Mispredict: 110.089
Branch types
NOT_BRANCH: 187976359 93.9882%
BRANCH_DIRECT_JUMP: 290387 0.145193%
BRANCH_INDIRECT: 12 6e-06%
BRANCH_CONDITIONAL: 11132877 5.56644%
BRANCH_DIRECT_CALL: 300051 0.150025%
BRANCH_INDIRECT_CALL: 0 0%
BRANCH_RETURN: 300050 0.150025%
BRANCH_OTHER: 0 0%

DRAM PAGES: 1048576
Allocated PAGES: 10671
