Initialize SIGNATURE TABLE
ST_SET: 1
ST_WAY: 256
ST_TAG_BIT: 16
ST_TAG_MASK: ffff

Initialize PATTERN TABLE
PT_SET: 512
PT_WAY: 4
SIG_DELTA_BIT: 7
C_SIG_BIT: 4
C_DELTA_BIT: 4

Initialize PREFETCH FILTER
FILTER_SET: 1024

Initialize PERCEPTRON
PERC_ENTRIES: 4096
PERC_FEATURES: 9
Initialize SIGNATURE TABLE
ST_SET: 1
ST_WAY: 256
ST_TAG_BIT: 16
ST_TAG_MASK: ffff

Initialize PATTERN TABLE
PT_SET: 512
PT_WAY: 4
SIG_DELTA_BIT: 7
C_SIG_BIT: 4
C_DELTA_BIT: 4

Initialize PREFETCH FILTER
FILTER_SET: 1024

Initialize PERCEPTRON
PERC_ENTRIES: 4096
PERC_FEATURES: 9

*** ChampSim Multicore Out-of-Order Simulator ***

Warmup Instructions: 50000000
Simulation Instructions: 200000000
Number of CPUs: 1
LLC sets: 2048
LLC ways: 16
L0D sets: 16
L0D ways: 2
ROB size: 352
LQ size: 128
SQ size: 72
Secure Berti: OFF
Berti: OFF
Berti Fill: OFF
On commit prefetching: OFF
Hit-based filter: OFF
Time-guarding: ON
Free-slotting: ON
Leap-frogging: ON
Train prefetcher on L0D bypass: OFF
No translation penalty for prefetchers: OFF
Prefetch to L0D only: OFF
Prefetch to L1D only: OFF
Clean evictions: ON
Commit loads: ON
Commit write: ON
Fill commit loads to L2C, LLC: ON
DRAM IO FREQUENCY: 6400
ROB SIZE: 352
Off-chip DRAM Size: 4096 MB Channels: 1 Width: 64-bit Data Rate: 6400 MT/s
CPU 0 runs /home/sumon/secure_berti/GhostMinion/../../traces/spec/649.fotonik3d_s-7084B.champsimtrace.xz
.xz
BTB has LRU replacement policy
ITLB has LRU replacement policy
DTLB has LRU replacement policy
STLB has LRU replacement policy
L1I has LRU replacement policy
L0D has LRU replacement policy
L1D has LRU replacement policy
PERC_ENTRIES: 4096
L2C has LRU replacement policy
LLC has LRU replacement policy
Heartbeat CPU 0 instructions: 10000001 cycles: 3127509 heartbeat IPC: 3.19743 cumulative IPC: 3.19743 (Simulation time: 0 hr 1 min 28 sec) 
Heartbeat CPU 0 instructions: 20000001 cycles: 6255881 heartbeat IPC: 3.19655 cumulative IPC: 3.19699 (Simulation time: 0 hr 3 min 28 sec) 
Heartbeat CPU 0 instructions: 30000001 cycles: 9386140 heartbeat IPC: 3.19462 cumulative IPC: 3.1962 (Simulation time: 0 hr 5 min 46 sec) 
Heartbeat CPU 0 instructions: 40000003 cycles: 12515491 heartbeat IPC: 3.19555 cumulative IPC: 3.19604 (Simulation time: 0 hr 8 min 6 sec) 
Heartbeat CPU 0 instructions: 50000002 cycles: 15647320 heartbeat IPC: 3.19302 cumulative IPC: 3.19544 (Simulation time: 0 hr 10 min 25 sec) 

Warmup complete CPU 0 instructions: 50000002 cycles: 15647320 (Simulation time: 0 hr 10 min 25 sec) 

Heartbeat CPU 0 instructions: 60000001 cycles: 26126019 heartbeat IPC: 0.954317 cumulative IPC: 0.954317 (Simulation time: 0 hr 13 min 36 sec) 
Heartbeat CPU 0 instructions: 70000002 cycles: 36584358 heartbeat IPC: 0.956175 cumulative IPC: 0.955245 (Simulation time: 0 hr 16 min 44 sec) 
Heartbeat CPU 0 instructions: 80000001 cycles: 47044317 heartbeat IPC: 0.956027 cumulative IPC: 0.955505 (Simulation time: 0 hr 19 min 50 sec) 
Heartbeat CPU 0 instructions: 90000002 cycles: 57527158 heartbeat IPC: 0.95394 cumulative IPC: 0.955114 (Simulation time: 0 hr 22 min 56 sec) 
Heartbeat CPU 0 instructions: 100000000 cycles: 67982505 heartbeat IPC: 0.956448 cumulative IPC: 0.95538 (Simulation time: 0 hr 25 min 42 sec) 
Heartbeat CPU 0 instructions: 110000000 cycles: 78461596 heartbeat IPC: 0.954281 cumulative IPC: 0.955197 (Simulation time: 0 hr 27 min 34 sec) 
Heartbeat CPU 0 instructions: 120000000 cycles: 88921299 heartbeat IPC: 0.95605 cumulative IPC: 0.955319 (Simulation time: 0 hr 29 min 26 sec) 
Heartbeat CPU 0 instructions: 130000002 cycles: 99370007 heartbeat IPC: 0.957056 cumulative IPC: 0.955536 (Simulation time: 0 hr 31 min 18 sec) 
Heartbeat CPU 0 instructions: 140000002 cycles: 109841697 heartbeat IPC: 0.954956 cumulative IPC: 0.955471 (Simulation time: 0 hr 33 min 10 sec) 
Heartbeat CPU 0 instructions: 150000001 cycles: 120291394 heartbeat IPC: 0.956965 cumulative IPC: 0.95562 (Simulation time: 0 hr 35 min 2 sec) 
Heartbeat CPU 0 instructions: 160000001 cycles: 130773956 heartbeat IPC: 0.953965 cumulative IPC: 0.95547 (Simulation time: 0 hr 36 min 55 sec) 
Heartbeat CPU 0 instructions: 170000000 cycles: 141244769 heartbeat IPC: 0.955036 cumulative IPC: 0.955433 (Simulation time: 0 hr 38 min 47 sec) 
Heartbeat CPU 0 instructions: 180000001 cycles: 151712767 heartbeat IPC: 0.955293 cumulative IPC: 0.955423 (Simulation time: 0 hr 40 min 38 sec) 
Heartbeat CPU 0 instructions: 190000001 cycles: 162182234 heartbeat IPC: 0.955158 cumulative IPC: 0.955404 (Simulation time: 0 hr 42 min 28 sec) 
Heartbeat CPU 0 instructions: 200000001 cycles: 172648022 heartbeat IPC: 0.955494 cumulative IPC: 0.95541 (Simulation time: 0 hr 44 min 18 sec) 
Heartbeat CPU 0 instructions: 210000003 cycles: 183118837 heartbeat IPC: 0.955036 cumulative IPC: 0.955386 (Simulation time: 0 hr 46 min 8 sec) 
Heartbeat CPU 0 instructions: 220000000 cycles: 193607558 heartbeat IPC: 0.953405 cumulative IPC: 0.95527 (Simulation time: 0 hr 48 min 0 sec) 
Heartbeat CPU 0 instructions: 230000001 cycles: 204089201 heartbeat IPC: 0.954049 cumulative IPC: 0.955202 (Simulation time: 0 hr 50 min 11 sec) 
Heartbeat CPU 0 instructions: 240000002 cycles: 214552679 heartbeat IPC: 0.955705 cumulative IPC: 0.955228 (Simulation time: 0 hr 51 min 50 sec) 
Heartbeat CPU 0 instructions: 250000001 cycles: 225017810 heartbeat IPC: 0.955554 cumulative IPC: 0.955244 (Simulation time: 0 hr 53 min 20 sec) 
Finished CPU 0 instructions: 200000003 cycles: 209370491 cumulative IPC: 0.955244 (Simulation time: 0 hr 53 min 20 sec) 
 Instruction ID: 250000131

ChampSim completed all CPUs

Region of Interest Statistics

CPU 0 cumulative IPC: 0.955244 instructions: 200000003 cycles: 209370491
ITLB SPEC fills:          0  NON-SPEC fills:          0
ITLB Test counter :          0
ITLB Leapfrog:          0
ITLB MSHR merge:          0
ITLB TOTAL     ACCESS:   24354874  HIT:   24354874  MISS:          0  HIT %:        100  MISS %:          0   MPKI: 0
ITLB LOAD TRANSLATION NON_SPEC    ACCESS:   24354874  HIT:   24354874  MISS:          0  HIT %:        100  MISS %:          0   MPKI: 0
ITLB PREFETCH  REQUESTED:          0  ISSUED:          0  USEFUL:          0  USELESS:          0
ITLB USEFUL LOAD PREFETCHES:          0 PREFETCH ISSUED TO LOWER LEVEL:          0  ACCURACY: -nan
ITLB TIMELY PREFETCHES:          0 LATE PREFETCHES: 0 DROPPED PREFETCHES: 0
ITLB COMMIT LATE PREFETCHES: 0 NORMAL LATE: 0 MISSED OPPORTUNITY: 0 UNCOVERED: 0
ITLB PREFETCHES SAME FILL-ORIGIN LEVEL: 0 DIFFERENT FILL-ORIGIN LEVEL: 0
ITLB AVERAGE MISS LATENCY: -nan cycles
ITLB AVERAGE MISS LATENCY LOAD: -nan cycles
ITLB AVERAGE MISS LATENCY PREFETCH: -nan cycles
ITLB AVERAGE MSHR OCCUPANCY: 0
ITLB MSHR FULL: 0
ITLB RQ	ACCESS:   29762116	FORWARD:          0	MERGED:    5407242	TO_CACHE:   24354874

DTLB SPEC fills:          0  NON-SPEC fills:          0
DTLB Test counter :          0
DTLB Leapfrog:          0
DTLB MSHR merge:          0
DTLB TOTAL     ACCESS:   62281009  HIT:   62157054  MISS:     123955  HIT %:     99.801  MISS %:   0.199025   MPKI: 0.619775
DTLB LOAD TRANSLATION NON_SPEC    ACCESS:   62281009  HIT:   62157054  MISS:     123955  HIT %:     99.801  MISS %:   0.199025   MPKI: 0.619775
DTLB PREFETCH  REQUESTED:          0  ISSUED:          0  USEFUL:          0  USELESS:          0
DTLB USEFUL LOAD PREFETCHES:          0 PREFETCH ISSUED TO LOWER LEVEL:          0  ACCURACY: -nan
DTLB TIMELY PREFETCHES:          0 LATE PREFETCHES: 0 DROPPED PREFETCHES: 0
DTLB COMMIT LATE PREFETCHES: 0 NORMAL LATE: 0 MISSED OPPORTUNITY: 0 UNCOVERED: 0
DTLB PREFETCHES SAME FILL-ORIGIN LEVEL: 0 DIFFERENT FILL-ORIGIN LEVEL: 0
DTLB AVERAGE MISS LATENCY: 98.4887 cycles
DTLB AVERAGE MISS LATENCY LOAD: -nan cycles
DTLB AVERAGE MISS LATENCY PREFETCH: -nan cycles
DTLB AVERAGE MSHR OCCUPANCY: 0.0213264
DTLB MSHR FULL: 0.000157258
DTLB RQ	ACCESS:   70461738	FORWARD:          0	MERGED:    8178743	TO_CACHE:   62282995

STLB SPEC fills:          0  NON-SPEC fills:          0
STLB Test counter :          0
STLB Leapfrog:          0
STLB MSHR merge:          0
STLB TOTAL     ACCESS:     123955  HIT:      69348  MISS:      54607  HIT %:    55.9461  MISS %:    44.0539   MPKI: 0.273035
STLB LOAD TRANSLATION NON_SPEC    ACCESS:     123955  HIT:      69348  MISS:      54607  HIT %:    55.9461  MISS %:    44.0539   MPKI: 0.273035
STLB PREFETCH  REQUESTED:          0  ISSUED:          0  USEFUL:          0  USELESS:          0
STLB USEFUL LOAD PREFETCHES:          0 PREFETCH ISSUED TO LOWER LEVEL:          0  ACCURACY: -nan
STLB TIMELY PREFETCHES:          0 LATE PREFETCHES: 0 DROPPED PREFETCHES: 0
STLB COMMIT LATE PREFETCHES: 0 NORMAL LATE: 0 MISSED OPPORTUNITY: 0 UNCOVERED: 0
STLB PREFETCHES SAME FILL-ORIGIN LEVEL: 0 DIFFERENT FILL-ORIGIN LEVEL: 0
STLB AVERAGE MISS LATENCY: 202.814 cycles
STLB AVERAGE MISS LATENCY LOAD: -nan cycles
STLB AVERAGE MISS LATENCY PREFETCH: -nan cycles
STLB AVERAGE MSHR OCCUPANCY: 0.0640636
STLB MSHR FULL: 0
STLB RQ	ACCESS:     123955	FORWARD:          0	MERGED:          0	TO_CACHE:     123955

STLB Hit, L1D data hit: 0
STLB Hit, L2C data hit: 0
STLB Hit, LLC data hit: 0
STLB Hit, LLC data miss: 0
STLB STLB hints to L2: 0
L0D SPEC fills:   39826194  NON-SPEC fills:          0
L0D TimeGuard Request with older TS:     482337 Restricted eviction:     514912 read:     274270
L0D Test counter :          0
L0D Leapfrog:          0
L0D MSHR merge:    1009233
L0D TOTAL     ACCESS:   59618064  HIT:   14005843  MISS:   45612221  HIT %:    23.4926  MISS %:    76.5074   MPKI: 228.061
L0D LOAD      TOTAL       ACCESS:   59618064  HIT:   14005843  MISS:   45612221  HIT %:    23.4926  MISS %:    76.5074   MPKI: 228.061
L0D LOAD      NON_SPEC    ACCESS:    5537528  HIT:     266329  MISS:    5271199  HIT %:    4.80953  MISS %:    95.1905   MPKI: 26.356
L0D LOAD      SPEC        ACCESS:   54080536  HIT:   13739514  MISS:   40341022  HIT %:    25.4057  MISS %:    74.5943   MPKI: 201.705
L0D PREFETCH  REQUESTED:          0  ISSUED:          0  USEFUL:          0  USELESS:          0
L0D USEFUL LOAD PREFETCHES:          0 PREFETCH ISSUED TO LOWER LEVEL:          0  ACCURACY: -nan
L0D TIMELY PREFETCHES:          0 LATE PREFETCHES: 0 DROPPED PREFETCHES: 0
L0D COMMIT LATE PREFETCHES: 0 NORMAL LATE: 0 MISSED OPPORTUNITY: 0 UNCOVERED: 45612221
L0D PREFETCHES SAME FILL-ORIGIN LEVEL: 0 DIFFERENT FILL-ORIGIN LEVEL: 0
L0D AVERAGE MISS LATENCY: 6.53961 cycles
L0D AVERAGE MISS LATENCY LOAD: 6.53961 cycles
L0D AVERAGE MISS LATENCY PREFETCH: -nan cycles
L0D AVERAGE MSHR OCCUPANCY: 1.36221
L0D MSHR FULL: 0.000746578
L0D RQ	ACCESS:   70269494	FORWARD:          0	MERGED:    9642198	TO_CACHE:   60627296
L0D WQ	ACCESS:    9834442	FORWARD:          0	MERGED:          0	TO_CACHE:    9834442

L1D SPEC fills:          0  NON-SPEC fills:     718863
L1D Test counter :          0
L1D Leapfrog:          0
L1D MSHR merge:       1504
L1D TOTAL     ACCESS:  110017749  HIT:  104176158  MISS:    5841591  HIT %:    94.6903  MISS %:    5.30968   MPKI: 29.208
L1D LOAD      TOTAL       ACCESS:   45610717  HIT:   42325262  MISS:    3285455  HIT %:    92.7967  MISS %:    7.20325   MPKI: 16.4273
L1D LOAD      NON_SPEC    ACCESS:    5271192  HIT:    4552329  MISS:     718863  HIT %:    86.3624  MISS %:    13.6376   MPKI: 3.59431
L1D LOAD      SPEC        ACCESS:   40339525  HIT:   37772933  MISS:    2566592  HIT %:    93.6375  MISS %:    6.36247   MPKI: 12.833
L1D RFO       NON_SPEC    ACCESS:    9766556  HIT:    9766555  MISS:          1  HIT %:        100  MISS %: 1.0239e-05   MPKI: 5e-06
L1D COMMIT LOAD NON_SPEC    ACCESS:   15255679  HIT:   15220099  MISS:      35580  HIT %:    99.7668  MISS %:   0.233225   MPKI: 0.1779
L1D COMMIT WRITE NON_SPEC    ACCESS:   39384797  HIT:   36864242  MISS:    2520555  HIT %:    93.6002  MISS %:    6.39982   MPKI: 12.6028
L1D PREFETCH  REQUESTED:          0  ISSUED:          0  USEFUL:          0  USELESS:          0
L1D USEFUL LOAD PREFETCHES:          0 PREFETCH ISSUED TO LOWER LEVEL:          0  ACCURACY: -nan
L1D TIMELY PREFETCHES:          0 LATE PREFETCHES: 0 DROPPED PREFETCHES: 0
L1D COMMIT LATE PREFETCHES: 0 NORMAL LATE: 0 MISSED OPPORTUNITY: 0 UNCOVERED: 3285455
L1D PREFETCHES SAME FILL-ORIGIN LEVEL: 0 DIFFERENT FILL-ORIGIN LEVEL: 0
L1D AVERAGE MISS LATENCY: 11.0859 cycles
L1D AVERAGE MISS LATENCY LOAD: 19.5331 cycles
L1D AVERAGE MISS LATENCY PREFETCH: -nan cycles
L1D AVERAGE MSHR OCCUPANCY: 0.216501
L1D MSHR FULL: 0
L1D RQ	ACCESS:   70929528	FORWARD:          0	MERGED:    3564334	TO_CACHE:   60870557
L1D WQ	ACCESS:   49227844	FORWARD:    6494637	MERGED:      72610	TO_CACHE:   49155234

L1D UNIQUE REGIONS ACCESSED: 0
L1D REGIONS CONFLICTS: 0
L1D Cross Page Prefetch Requests: 0
L1D Same Page Prefetch Requests: 0
L1D ROI Sum of L1D PQ occupancy: 0
L1D PREFETCHES PUSHED FROM L2C: 0
L1I SPEC fills:          0  NON-SPEC fills:          0
L1I Test counter :          0
L1I Leapfrog:          0
L1I MSHR merge:          0
L1I TOTAL     ACCESS:   29762115  HIT:   29762115  MISS:          0  HIT %:        100  MISS %:          0   MPKI: 0
L1I LOAD      TOTAL       ACCESS:   29762115  HIT:   29762115  MISS:          0  HIT %:        100  MISS %:          0   MPKI: 0
L1I LOAD      NON_SPEC    ACCESS:   29762115  HIT:   29762115  MISS:          0  HIT %:        100  MISS %:          0   MPKI: 0
L1I PREFETCH  REQUESTED:          0  ISSUED:          0  USEFUL:          0  USELESS:          0
L1I USEFUL LOAD PREFETCHES:          0 PREFETCH ISSUED TO LOWER LEVEL:          0  ACCURACY: -nan
L1I TIMELY PREFETCHES:          0 LATE PREFETCHES: 0 DROPPED PREFETCHES: 0
L1I COMMIT LATE PREFETCHES: 0 NORMAL LATE: 0 MISSED OPPORTUNITY: 0 UNCOVERED: 0
L1I PREFETCHES SAME FILL-ORIGIN LEVEL: 0 DIFFERENT FILL-ORIGIN LEVEL: 0
L1I AVERAGE MISS LATENCY: -nan cycles
L1I AVERAGE MISS LATENCY LOAD: -nan cycles
L1I AVERAGE MISS LATENCY PREFETCH: -nan cycles
L1I AVERAGE MSHR OCCUPANCY: 0
L1I MSHR FULL: 0
L1I RQ	ACCESS:   43374217	FORWARD:          0	MERGED:   13612101	TO_CACHE:   29762116

BTB SPEC fills:          0  NON-SPEC fills:          0
BTB Test counter :          0
BTB Leapfrog:          0
BTB MSHR merge:          0
BTB TOTAL     ACCESS:    1347104  HIT:    1347101  MISS:          3  HIT %:    99.9998  MISS %:  0.0002227   MPKI: 1.5e-05
BTB BRANCH_DIRECT_JUMP	ACCESS:          0  HIT:          0  MISS:          0
BTB BRANCH_INDIRECT	ACCESS:          0  HIT:          0  MISS:          0
BTB BRANCH_CONDITIONAL	ACCESS:    1347104  HIT:    1347101  MISS:          3
BTB BRANCH_DIRECT_CALL	ACCESS:          0  HIT:          0  MISS:          0
BTB BRANCH_INDIRECT_CALL	ACCESS:          0  HIT:          0  MISS:          0
BTB BRANCH_RETURN	ACCESS:          0  HIT:          0  MISS:          0
BTB BRANCH_OTHER ACCESS:          0  HIT:          0  MISS:          0

L2C SPEC fills:          0  NON-SPEC fills:      18642
L2C Test counter :          0
L2C Leapfrog:          0
L2C MSHR merge:       7883
L2C TOTAL     ACCESS:   11288214  HIT:    7730671  MISS:    3557543  HIT %:    68.4844  MISS %:    31.5156   MPKI: 17.7877
L2C LOAD      TOTAL       ACCESS:    3285453  HIT:    3196293  MISS:      89160  HIT %:    97.2862  MISS %:    2.71378   MPKI: 0.4458
L2C LOAD      NON_SPEC    ACCESS:     718861  HIT:     700219  MISS:      18642  HIT %:    97.4067  MISS %:    2.59327   MPKI: 0.09321
L2C LOAD      SPEC        ACCESS:    2566592  HIT:    2496074  MISS:      70518  HIT %:    97.2525  MISS %:    2.74753   MPKI: 0.35259
L2C RFO       NON_SPEC    ACCESS:          1  HIT:          1  MISS:          0  HIT %:        100  MISS %:          0   MPKI: 0
L2C PREFETCH  NON_SPEC    ACCESS:    4420554  HIT:    1029658  MISS:    3390896  HIT %:    23.2925  MISS %:    76.7075   MPKI: 16.9545
L2C WRITEBACK NON_SPEC    ACCESS:     284148  HIT:     284148  MISS:          0  HIT %:        100  MISS %:          0   MPKI: 0
L2C CLEAN_EVICTION NON_SPEC    ACCESS:    2989528  HIT:    2919301  MISS:      70227  HIT %:    97.6509  MISS %:     2.3491   MPKI: 0.351135
L2C COMMIT LOAD NON_SPEC    ACCESS:      35580  HIT:      35351  MISS:        229  HIT %:    99.3564  MISS %:    0.64362   MPKI: 0.001145
L2C LOAD TRANSLATION NON_SPEC    ACCESS:     272950  HIT:     265919  MISS:       7031  HIT %:    97.4241  MISS %:    2.57593   MPKI: 0.035155
L2C PREFETCH  REQUESTED:    4447179  ISSUED:    4447152  USEFUL:    3185491  USELESS:     205406
L2C USEFUL LOAD PREFETCHES:    3185491 PREFETCH ISSUED TO LOWER LEVEL:    3398786  ACCURACY: 93.7244
L2C TIMELY PREFETCHES:    3185491 LATE PREFETCHES: 7883 DROPPED PREFETCHES: 0
L2C COMMIT LATE PREFETCHES: 0 NORMAL LATE: 7883 MISSED OPPORTUNITY: 0 UNCOVERED: 81277
L2C PREFETCHES SAME FILL-ORIGIN LEVEL: 3398785 DIFFERENT FILL-ORIGIN LEVEL: 1
L2C AVERAGE MISS LATENCY: 327.743 cycles
L2C AVERAGE MISS LATENCY LOAD: 278.302 cycles
L2C AVERAGE MISS LATENCY PREFETCH: 335.81 cycles
L2C AVERAGE MSHR OCCUPANCY: 5.16132
L2C MSHR FULL: 7.67919e-05
L2C RQ	ACCESS:    3593986	FORWARD:          0	MERGED:          0	TO_CACHE:    3593984
L2C WQ	ACCESS:    3273678	FORWARD:          2	MERGED:          0	TO_CACHE:    3273678
L2C PQ	ACCESS:    4447152	FORWARD:          0	MERGED:         33	TO_CACHE:    4447119

L2C Instructions Evicting Data 0
L2C Translations Evicting Data 7027
L2C Data Evicting Data 3402918
L2C Instructions Evicting Instructions 0
L2C Translations Evicting Instructions 0
L2C Data Evicting Instructions 0
L2C Instructions Evicting Translations 0
L2C Translations Evicting Translations 4
L2C Data Evicting Translations 6849
L2C Dense regions hint from L2: 0
PSCL5 SPEC fills:          0  NON-SPEC fills:          0
PSCL5 Test counter :          0
PSCL5 Leapfrog:          0
PSCL5 MSHR merge:          0
PSCL5 TOTAL     ACCESS:          0  HIT:          0  MISS:          0  HIT %:       -nan  MISS %:       -nan   MPKI: 0
PSCL5 PREFETCH  REQUESTED:          0  ISSUED:          0  USEFUL:          0  USELESS:          0
PSCL5 USEFUL LOAD PREFETCHES:          0 PREFETCH ISSUED TO LOWER LEVEL:          0  ACCURACY: -nan
PSCL5 TIMELY PREFETCHES:          0 LATE PREFETCHES: 0 DROPPED PREFETCHES: 0
PSCL5 COMMIT LATE PREFETCHES: 0 NORMAL LATE: 0 MISSED OPPORTUNITY: 0 UNCOVERED: 0
PSCL5 PREFETCHES SAME FILL-ORIGIN LEVEL: 0 DIFFERENT FILL-ORIGIN LEVEL: 0

PSCL4 SPEC fills:          0  NON-SPEC fills:          0
PSCL4 Test counter :          0
PSCL4 Leapfrog:          0
PSCL4 MSHR merge:          0
PSCL4 TOTAL     ACCESS:          0  HIT:          0  MISS:          0  HIT %:       -nan  MISS %:       -nan   MPKI: 0
PSCL4 PREFETCH  REQUESTED:          0  ISSUED:          0  USEFUL:          0  USELESS:          0
PSCL4 USEFUL LOAD PREFETCHES:          0 PREFETCH ISSUED TO LOWER LEVEL:          0  ACCURACY: -nan
PSCL4 TIMELY PREFETCHES:          0 LATE PREFETCHES: 0 DROPPED PREFETCHES: 0
PSCL4 COMMIT LATE PREFETCHES: 0 NORMAL LATE: 0 MISSED OPPORTUNITY: 0 UNCOVERED: 0
PSCL4 PREFETCHES SAME FILL-ORIGIN LEVEL: 0 DIFFERENT FILL-ORIGIN LEVEL: 0

PSCL3 SPEC fills:          0  NON-SPEC fills:          0
PSCL3 Test counter :          0
PSCL3 Leapfrog:          0
PSCL3 MSHR merge:          0
PSCL3 TOTAL     ACCESS:          0  HIT:          0  MISS:          0  HIT %:       -nan  MISS %:       -nan   MPKI: 0
PSCL3 PREFETCH  REQUESTED:          0  ISSUED:          0  USEFUL:          0  USELESS:          0
PSCL3 USEFUL LOAD PREFETCHES:          0 PREFETCH ISSUED TO LOWER LEVEL:          0  ACCURACY: -nan
PSCL3 TIMELY PREFETCHES:          0 LATE PREFETCHES: 0 DROPPED PREFETCHES: 0
PSCL3 COMMIT LATE PREFETCHES: 0 NORMAL LATE: 0 MISSED OPPORTUNITY: 0 UNCOVERED: 0
PSCL3 PREFETCHES SAME FILL-ORIGIN LEVEL: 0 DIFFERENT FILL-ORIGIN LEVEL: 0

PSCL2 SPEC fills:          0  NON-SPEC fills:          0
PSCL2 Test counter :          0
PSCL2 Leapfrog:          0
PSCL2 MSHR merge:          0
PSCL2 TOTAL     ACCESS:          0  HIT:          0  MISS:          0  HIT %:       -nan  MISS %:       -nan   MPKI: 0
PSCL2 PREFETCH  REQUESTED:          0  ISSUED:          0  USEFUL:          0  USELESS:          0
PSCL2 USEFUL LOAD PREFETCHES:          0 PREFETCH ISSUED TO LOWER LEVEL:          0  ACCURACY: -nan
PSCL2 TIMELY PREFETCHES:          0 LATE PREFETCHES: 0 DROPPED PREFETCHES: 0
PSCL2 COMMIT LATE PREFETCHES: 0 NORMAL LATE: 0 MISSED OPPORTUNITY: 0 UNCOVERED: 0
PSCL2 PREFETCHES SAME FILL-ORIGIN LEVEL: 0 DIFFERENT FILL-ORIGIN LEVEL: 0

LLC SPEC fills:          0  NON-SPEC fills:      17032
LLC Test counter :          0
LLC Leapfrog:          0
LLC MSHR merge:          0
LLC TOTAL     ACCESS:    6760722  HIT:    3209563  MISS:    3551159  HIT %:    47.4737  MISS %:    52.5263   MPKI: 17.7558
LLC LOAD      TOTAL       ACCESS:      81277  HIT:         36  MISS:      81241  HIT %:   0.044293  MISS %:    99.9557   MPKI: 0.406205
LLC LOAD      NON_SPEC    ACCESS:      17032  HIT:          0  MISS:      17032  HIT %:          0  MISS %:        100   MPKI: 0.08516
LLC LOAD      SPEC        ACCESS:      64245  HIT:         36  MISS:      64209  HIT %:  0.0560355  MISS %:     99.944   MPKI: 0.321045
LLC PREFETCH  NON_SPEC    ACCESS:    3398780  HIT:         66  MISS:    3398714  HIT %: 0.00194187  MISS %:    99.9981   MPKI: 16.9936
LLC WRITEBACK NON_SPEC    ACCESS:     283561  HIT:     283561  MISS:          0  HIT %:        100  MISS %:          0   MPKI: 0
LLC CLEAN_EVICTION NON_SPEC    ACCESS:    2989844  HIT:    2925822  MISS:      64022  HIT %:    97.8587  MISS %:    2.14132   MPKI: 0.32011
LLC COMMIT LOAD NON_SPEC    ACCESS:        229  HIT:         57  MISS:        172  HIT %:    24.8908  MISS %:    75.1092   MPKI: 0.00086
LLC LOAD TRANSLATION NON_SPEC    ACCESS:       7031  HIT:         21  MISS:       7010  HIT %:   0.298677  MISS %:    99.7013   MPKI: 0.03505
LLC PREFETCH  REQUESTED:          0  ISSUED:          0  USEFUL:         92  USELESS:    3398649
LLC USEFUL LOAD PREFETCHES:         92 PREFETCH ISSUED TO LOWER LEVEL:    3398716  ACCURACY: 0.0027069
LLC TIMELY PREFETCHES:         92 LATE PREFETCHES: 0 DROPPED PREFETCHES: 0
LLC COMMIT LATE PREFETCHES: 0 NORMAL LATE: 0 MISSED OPPORTUNITY: 0 UNCOVERED: 81241
LLC PREFETCHES SAME FILL-ORIGIN LEVEL: 1 DIFFERENT FILL-ORIGIN LEVEL: 0
LLC AVERAGE MISS LATENCY: 299.292 cycles
LLC AVERAGE MISS LATENCY LOAD: 257.129 cycles
LLC AVERAGE MISS LATENCY PREFETCH: 305.913 cycles
LLC AVERAGE MSHR OCCUPANCY: 4.07312
LLC MSHR FULL: 0
LLC RQ	ACCESS:      88537	FORWARD:          0	MERGED:          0	TO_CACHE:      88537
LLC WQ	ACCESS:    3273405	FORWARD:          0	MERGED:          0	TO_CACHE:    3273405
LLC PQ	ACCESS:    3398786	FORWARD:          0	MERGED:          0	TO_CACHE:    3398786

LLC Dense regions hint to LLC: 0

RAW hits: 476308
Loads Generated: 70745803
Loads sent to L1D: 70269494
Stores Generated: 9834442
Stores sent to L1D: 9834442
Major fault: 0 Minor fault: 54759
Allocated PAGES: 54759
Total Load insts: 87353449
Total Non-spec loads: 5925596
Percentage of speculative loads: 93.2165

LeapFrogging counter: 23440
Commit hits: 39393403 miss: 25317309
Commit hit %: 60.8762 miss %: 39.1238
Commits not translated: 0
Loads retired: 3285453
Stores retired: 9834442
Cache fills: 3285455
L1D response latency: 19.5331 cycles
Load retirement latency: 52.2815 cycles
OOO test counter: 0
Discarded buffer inserts: 39393403 hits: 5804 hit %: 0.0147334
Filter prediction accuracy: -nan
------------------
Depth Distribution
------------------
depth 0: 23377
depth 1: 88
depth 2: 58
depth 3: 10320
depth 4: 172057
depth 5: 424844
depth 6: 223961
depth 7: 2574544
depth 8: 684850
depth 9: 2160
depth 10: 13
depth 11: 1
depth 12: 0
depth 13: 0
depth 14: 0
depth 15: 0
depth 16: 0
depth 17: 0
depth 18: 0
depth 19: 0
depth 20: 0
depth 21: 0
depth 22: 0
depth 23: 0
depth 24: 0
depth 25: 0
depth 26: 0
depth 27: 0
depth 28: 0
depth 29: 0
Total: 4116273
------------------
ST read accesses: 3231042
ST write accesses: 54411
PT read accesses: 127348072
PT write accesses: 4830382
FILTER read accesses: 27539025
FILTER write accesses: 14409140
GHR read accesses: 9323836
GHR write accesses: 1549933
PERC read accesses: 922011138
PERC write accesses: 35372266
GHR counter read accesses: 6570906
GHR counter write accesses: 11041469
GHR ip read accesses: 23197830
GHR ip write accesses: 13141812
ST tag read accesses: 1291304104
ST tag write accesses: 44907151

DRAM Statistics
 CHANNEL 0
 RQ ROW_BUFFER_HIT:     842569  ROW_BUFFER_MISS:    2644568
 DBUS_CONGESTED:        360
 WQ ROW_BUFFER_HIT:     751937  ROW_BUFFER_MISS:    2521445  FULL:          0

 AVG_CONGESTED_CYCLE: 5
 All warmup complete: 2
Channel 0 Bank busy for read cycles: 0
Channel 0 Bank busy for write cycles: 0
Channel 0
Rank 0
0banks busy for read cycles: 222501
0banks busy for write cycles: 4
1banks busy for read cycles: 17528791
1banks busy for write cycles: 399020
2banks busy for read cycles: 25509592
2banks busy for write cycles: 398906
3banks busy for read cycles: 30336728
3banks busy for write cycles: 399835
4banks busy for read cycles: 25558521
4banks busy for write cycles: 401757
5banks busy for read cycles: 17920501
5banks busy for write cycles: 410592
6banks busy for read cycles: 10490620
6banks busy for write cycles: 433234
7banks busy for read cycles: 5441438
7banks busy for write cycles: 3930505
8banks busy for read cycles: 2897554
8banks busy for write cycles: 67090393

CPU 0 Branch Prediction Accuracy: 99.9985% MPKI: 0.000105 Average ROB Occupancy at Mispredict: 83.9048
Branch types
NOT_BRANCH: 198618941 99.3095%
BRANCH_DIRECT_JUMP: 0 0%
BRANCH_INDIRECT: 0 0%
BRANCH_CONDITIONAL: 1380806 0.690403%
BRANCH_DIRECT_CALL: 0 0%
BRANCH_INDIRECT_CALL: 0 0%
BRANCH_RETURN: 0 0%
BRANCH_OTHER: 0 0%

DRAM PAGES: 1048576
Allocated PAGES: 54759
