Initialize SIGNATURE TABLE
ST_SET: 1
ST_WAY: 256
ST_TAG_BIT: 16
ST_TAG_MASK: ffff

Initialize PATTERN TABLE
PT_SET: 512
PT_WAY: 4
SIG_DELTA_BIT: 7
C_SIG_BIT: 4
C_DELTA_BIT: 4

Initialize PREFETCH FILTER
FILTER_SET: 1024

Initialize PERCEPTRON
PERC_ENTRIES: 4096
PERC_FEATURES: 9
Initialize SIGNATURE TABLE
ST_SET: 1
ST_WAY: 256
ST_TAG_BIT: 16
ST_TAG_MASK: ffff

Initialize PATTERN TABLE
PT_SET: 512
PT_WAY: 4
SIG_DELTA_BIT: 7
C_SIG_BIT: 4
C_DELTA_BIT: 4

Initialize PREFETCH FILTER
FILTER_SET: 1024

Initialize PERCEPTRON
PERC_ENTRIES: 4096
PERC_FEATURES: 9

*** ChampSim Multicore Out-of-Order Simulator ***

Warmup Instructions: 50000000
Simulation Instructions: 200000000
Number of CPUs: 1
LLC sets: 2048
LLC ways: 16
L0D sets: 16
L0D ways: 2
ROB size: 352
LQ size: 128
SQ size: 72
Secure Berti: OFF
Berti: OFF
Berti Fill: OFF
On commit prefetching: OFF
Hit-based filter: OFF
Time-guarding: ON
Free-slotting: ON
Leap-frogging: ON
Train prefetcher on L0D bypass: OFF
No translation penalty for prefetchers: OFF
Prefetch to L0D only: OFF
Prefetch to L1D only: OFF
Clean evictions: ON
Commit loads: ON
Commit write: ON
Fill commit loads to L2C, LLC: ON
DRAM IO FREQUENCY: 6400
ROB SIZE: 352
Off-chip DRAM Size: 4096 MB Channels: 1 Width: 64-bit Data Rate: 6400 MT/s
CPU 0 runs /home/sumon/secure_berti/GhostMinion/../../traces/spec/649.fotonik3d_s-8225B.champsimtrace.xz
.xz
BTB has LRU replacement policy
ITLB has LRU replacement policy
DTLB has LRU replacement policy
STLB has LRU replacement policy
L1I has LRU replacement policy
L0D has LRU replacement policy
L1D has LRU replacement policy
PERC_ENTRIES: 4096
L2C has LRU replacement policy
LLC has LRU replacement policy
Heartbeat CPU 0 instructions: 10000000 cycles: 3146045 heartbeat IPC: 3.17859 cumulative IPC: 3.17859 (Simulation time: 0 hr 1 min 6 sec) 
Heartbeat CPU 0 instructions: 20000001 cycles: 6291992 heartbeat IPC: 3.17869 cumulative IPC: 3.17864 (Simulation time: 0 hr 2 min 9 sec) 
Heartbeat CPU 0 instructions: 30000000 cycles: 9437845 heartbeat IPC: 3.17879 cumulative IPC: 3.17869 (Simulation time: 0 hr 3 min 16 sec) 
Heartbeat CPU 0 instructions: 40000002 cycles: 12583734 heartbeat IPC: 3.17875 cumulative IPC: 3.17871 (Simulation time: 0 hr 4 min 28 sec) 
Heartbeat CPU 0 instructions: 50000001 cycles: 15729545 heartbeat IPC: 3.17883 cumulative IPC: 3.17873 (Simulation time: 0 hr 6 min 11 sec) 

Warmup complete CPU 0 instructions: 50000001 cycles: 15729545 (Simulation time: 0 hr 6 min 11 sec) 

Heartbeat CPU 0 instructions: 60000000 cycles: 25717423 heartbeat IPC: 1.00121 cumulative IPC: 1.00121 (Simulation time: 0 hr 8 min 35 sec) 
Heartbeat CPU 0 instructions: 70000001 cycles: 35706221 heartbeat IPC: 1.00112 cumulative IPC: 1.00117 (Simulation time: 0 hr 11 min 0 sec) 
Heartbeat CPU 0 instructions: 80000002 cycles: 45692707 heartbeat IPC: 1.00135 cumulative IPC: 1.00123 (Simulation time: 0 hr 13 min 24 sec) 
Heartbeat CPU 0 instructions: 90000003 cycles: 55680264 heartbeat IPC: 1.00125 cumulative IPC: 1.00123 (Simulation time: 0 hr 15 min 49 sec) 
Heartbeat CPU 0 instructions: 100000000 cycles: 65667030 heartbeat IPC: 1.00132 cumulative IPC: 1.00125 (Simulation time: 0 hr 18 min 15 sec) 
Heartbeat CPU 0 instructions: 110000000 cycles: 75655397 heartbeat IPC: 1.00116 cumulative IPC: 1.00124 (Simulation time: 0 hr 20 min 40 sec) 
Heartbeat CPU 0 instructions: 120000002 cycles: 85644148 heartbeat IPC: 1.00113 cumulative IPC: 1.00122 (Simulation time: 0 hr 23 min 4 sec) 
Heartbeat CPU 0 instructions: 130000003 cycles: 95634094 heartbeat IPC: 1.00101 cumulative IPC: 1.00119 (Simulation time: 0 hr 25 min 28 sec) 
Heartbeat CPU 0 instructions: 140000000 cycles: 105620926 heartbeat IPC: 1.00132 cumulative IPC: 1.00121 (Simulation time: 0 hr 27 min 50 sec) 
Heartbeat CPU 0 instructions: 150000003 cycles: 115610053 heartbeat IPC: 1.00109 cumulative IPC: 1.0012 (Simulation time: 0 hr 30 min 13 sec) 
Heartbeat CPU 0 instructions: 160000003 cycles: 125596611 heartbeat IPC: 1.00135 cumulative IPC: 1.00121 (Simulation time: 0 hr 32 min 36 sec) 
Heartbeat CPU 0 instructions: 170000001 cycles: 135584922 heartbeat IPC: 1.00117 cumulative IPC: 1.00121 (Simulation time: 0 hr 35 min 0 sec) 
Heartbeat CPU 0 instructions: 180000000 cycles: 145572283 heartbeat IPC: 1.00127 cumulative IPC: 1.00121 (Simulation time: 0 hr 37 min 23 sec) 
Heartbeat CPU 0 instructions: 190000002 cycles: 155560857 heartbeat IPC: 1.00114 cumulative IPC: 1.00121 (Simulation time: 0 hr 39 min 30 sec) 
Heartbeat CPU 0 instructions: 200000003 cycles: 165550209 heartbeat IPC: 1.00107 cumulative IPC: 1.0012 (Simulation time: 0 hr 41 min 4 sec) 
Heartbeat CPU 0 instructions: 210000000 cycles: 175538439 heartbeat IPC: 1.00118 cumulative IPC: 1.0012 (Simulation time: 0 hr 43 min 1 sec) 
Heartbeat CPU 0 instructions: 220000000 cycles: 185527005 heartbeat IPC: 1.00114 cumulative IPC: 1.00119 (Simulation time: 0 hr 44 min 57 sec) 
Heartbeat CPU 0 instructions: 230000000 cycles: 195515359 heartbeat IPC: 1.00117 cumulative IPC: 1.00119 (Simulation time: 0 hr 46 min 54 sec) 
Heartbeat CPU 0 instructions: 240000003 cycles: 205504415 heartbeat IPC: 1.0011 cumulative IPC: 1.00119 (Simulation time: 0 hr 48 min 23 sec) 
Heartbeat CPU 0 instructions: 250000000 cycles: 215491803 heartbeat IPC: 1.00126 cumulative IPC: 1.00119 (Simulation time: 0 hr 49 min 34 sec) 
Finished CPU 0 instructions: 200000003 cycles: 199762259 cumulative IPC: 1.00119 (Simulation time: 0 hr 49 min 34 sec) 
 Instruction ID: 250000059

ChampSim completed all CPUs

Region of Interest Statistics

CPU 0 cumulative IPC: 1.00119 instructions: 200000003 cycles: 199762259
ITLB SPEC fills:          0  NON-SPEC fills:          0
ITLB Test counter :          0
ITLB Leapfrog:          0
ITLB MSHR merge:          0
ITLB TOTAL     ACCESS:   28070128  HIT:   28070128  MISS:          0  HIT %:        100  MISS %:          0   MPKI: 0
ITLB LOAD TRANSLATION NON_SPEC    ACCESS:   28070128  HIT:   28070128  MISS:          0  HIT %:        100  MISS %:          0   MPKI: 0
ITLB PREFETCH  REQUESTED:          0  ISSUED:          0  USEFUL:          0  USELESS:          0
ITLB USEFUL LOAD PREFETCHES:          0 PREFETCH ISSUED TO LOWER LEVEL:          0  ACCURACY: -nan
ITLB TIMELY PREFETCHES:          0 LATE PREFETCHES: 0 DROPPED PREFETCHES: 0
ITLB COMMIT LATE PREFETCHES: 0 NORMAL LATE: 0 MISSED OPPORTUNITY: 0 UNCOVERED: 0
ITLB PREFETCHES SAME FILL-ORIGIN LEVEL: 0 DIFFERENT FILL-ORIGIN LEVEL: 0
ITLB AVERAGE MISS LATENCY: -nan cycles
ITLB AVERAGE MISS LATENCY LOAD: -nan cycles
ITLB AVERAGE MISS LATENCY PREFETCH: -nan cycles
ITLB AVERAGE MSHR OCCUPANCY: 0
ITLB MSHR FULL: 0
ITLB RQ	ACCESS:   35090225	FORWARD:          0	MERGED:    7020096	TO_CACHE:   28070129

DTLB SPEC fills:          0  NON-SPEC fills:          0
DTLB Test counter :          0
DTLB Leapfrog:          0
DTLB MSHR merge:          0
DTLB TOTAL     ACCESS:   36911297  HIT:   36864436  MISS:      46861  HIT %:     99.873  MISS %:   0.126956   MPKI: 0.234305
DTLB LOAD TRANSLATION NON_SPEC    ACCESS:   36911297  HIT:   36864436  MISS:      46861  HIT %:     99.873  MISS %:   0.126956   MPKI: 0.234305
DTLB PREFETCH  REQUESTED:          0  ISSUED:          0  USEFUL:          0  USELESS:          0
DTLB USEFUL LOAD PREFETCHES:          0 PREFETCH ISSUED TO LOWER LEVEL:          0  ACCURACY: -nan
DTLB TIMELY PREFETCHES:          0 LATE PREFETCHES: 0 DROPPED PREFETCHES: 0
DTLB COMMIT LATE PREFETCHES: 0 NORMAL LATE: 0 MISSED OPPORTUNITY: 0 UNCOVERED: 0
DTLB PREFETCHES SAME FILL-ORIGIN LEVEL: 0 DIFFERENT FILL-ORIGIN LEVEL: 0
DTLB AVERAGE MISS LATENCY: 114.943 cycles
DTLB AVERAGE MISS LATENCY LOAD: -nan cycles
DTLB AVERAGE MISS LATENCY PREFETCH: -nan cycles
DTLB AVERAGE MSHR OCCUPANCY: 0.00710958
DTLB MSHR FULL: 0
DTLB RQ	ACCESS:   57751616	FORWARD:          0	MERGED:   20837064	TO_CACHE:   36914552

STLB SPEC fills:          0  NON-SPEC fills:          0
STLB Test counter :          0
STLB Leapfrog:          0
STLB MSHR merge:          0
STLB TOTAL     ACCESS:      46861  HIT:      19407  MISS:      27454  HIT %:     41.414  MISS %:     58.586   MPKI: 0.13727
STLB LOAD TRANSLATION NON_SPEC    ACCESS:      46861  HIT:      19407  MISS:      27454  HIT %:     41.414  MISS %:     58.586   MPKI: 0.13727
STLB PREFETCH  REQUESTED:          0  ISSUED:          0  USEFUL:          0  USELESS:          0
STLB USEFUL LOAD PREFETCHES:          0 PREFETCH ISSUED TO LOWER LEVEL:          0  ACCURACY: -nan
STLB TIMELY PREFETCHES:          0 LATE PREFETCHES: 0 DROPPED PREFETCHES: 0
STLB COMMIT LATE PREFETCHES: 0 NORMAL LATE: 0 MISSED OPPORTUNITY: 0 UNCOVERED: 0
STLB PREFETCHES SAME FILL-ORIGIN LEVEL: 0 DIFFERENT FILL-ORIGIN LEVEL: 0
STLB AVERAGE MISS LATENCY: 180.789 cycles
STLB AVERAGE MISS LATENCY LOAD: -nan cycles
STLB AVERAGE MISS LATENCY PREFETCH: -nan cycles
STLB AVERAGE MSHR OCCUPANCY: 0.00409722
STLB MSHR FULL: 0
STLB RQ	ACCESS:      46861	FORWARD:          0	MERGED:          0	TO_CACHE:      46861

STLB Hit, L1D data hit: 0
STLB Hit, L2C data hit: 0
STLB Hit, LLC data hit: 0
STLB Hit, LLC data miss: 0
STLB STLB hints to L2: 0
L0D SPEC fills:   26048241  NON-SPEC fills:          0
L0D TimeGuard Request with older TS:      13379 Restricted eviction:        366 read:     191615
L0D Test counter :          0
L0D Leapfrog:          0
L0D MSHR merge:    4152887
L0D TOTAL     ACCESS:   39557637  HIT:    9936536  MISS:   29621101  HIT %:    25.1191  MISS %:    74.8809   MPKI: 148.106
L0D LOAD      TOTAL       ACCESS:   39557637  HIT:    9936536  MISS:   29621101  HIT %:    25.1191  MISS %:    74.8809   MPKI: 148.106
L0D LOAD      NON_SPEC    ACCESS:    3573839  HIT:       1345  MISS:    3572494  HIT %:  0.0376346  MISS %:    99.9624   MPKI: 17.8625
L0D LOAD      SPEC        ACCESS:   35983798  HIT:    9935191  MISS:   26048607  HIT %:    27.6102  MISS %:    72.3898   MPKI: 130.243
L0D PREFETCH  REQUESTED:          0  ISSUED:          0  USEFUL:          0  USELESS:          0
L0D USEFUL LOAD PREFETCHES:          0 PREFETCH ISSUED TO LOWER LEVEL:          0  ACCURACY: -nan
L0D TIMELY PREFETCHES:          0 LATE PREFETCHES: 0 DROPPED PREFETCHES: 0
L0D COMMIT LATE PREFETCHES: 0 NORMAL LATE: 0 MISSED OPPORTUNITY: 0 UNCOVERED: 29621101
L0D PREFETCHES SAME FILL-ORIGIN LEVEL: 0 DIFFERENT FILL-ORIGIN LEVEL: 0
L0D AVERAGE MISS LATENCY: 6.81957 cycles
L0D AVERAGE MISS LATENCY LOAD: 6.81957 cycles
L0D AVERAGE MISS LATENCY PREFETCH: -nan cycles
L0D AVERAGE MSHR OCCUPANCY: 1.11195
L0D MSHR FULL: 2.28778e-07
L0D RQ	ACCESS:   70166214	FORWARD:          0	MERGED:   26455694	TO_CACHE:   43710520
L0D WQ	ACCESS:   14041096	FORWARD:          0	MERGED:          0	TO_CACHE:   14041096

L1D SPEC fills:          0  NON-SPEC fills:    1166140
L1D Test counter :          0
L1D Leapfrog:          0
L1D MSHR merge:      10277
L1D TOTAL     ACCESS:   99314559  HIT:   94774846  MISS:    4539713  HIT %:     95.429  MISS %:    4.57104   MPKI: 22.6986
L1D LOAD      TOTAL       ACCESS:   29610823  HIT:   26673618  MISS:    2937205  HIT %:    90.0806  MISS %:    9.91936   MPKI: 14.686
L1D LOAD      NON_SPEC    ACCESS:    3572458  HIT:    2406318  MISS:    1166140  HIT %:    67.3575  MISS %:    32.6425   MPKI: 5.8307
L1D LOAD      SPEC        ACCESS:   26038365  HIT:   24267300  MISS:    1771065  HIT %:    93.1982  MISS %:    6.80175   MPKI: 8.85532
L1D RFO       NON_SPEC    ACCESS:   13793731  HIT:   13790775  MISS:       2956  HIT %:    99.9786  MISS %:    0.02143   MPKI: 0.01478
L1D COMMIT LOAD NON_SPEC    ACCESS:   29872467  HIT:   29755446  MISS:     117021  HIT %:    99.6083  MISS %:   0.391735   MPKI: 0.585105
L1D COMMIT WRITE NON_SPEC    ACCESS:   26037538  HIT:   24555007  MISS:    1482531  HIT %:    94.3062  MISS %:    5.69382   MPKI: 7.41265
L1D PREFETCH  REQUESTED:          0  ISSUED:          0  USEFUL:          0  USELESS:          0
L1D USEFUL LOAD PREFETCHES:          0 PREFETCH ISSUED TO LOWER LEVEL:          0  ACCURACY: -nan
L1D TIMELY PREFETCHES:          0 LATE PREFETCHES: 0 DROPPED PREFETCHES: 0
L1D COMMIT LATE PREFETCHES: 0 NORMAL LATE: 0 MISSED OPPORTUNITY: 0 UNCOVERED: 2937205
L1D PREFETCHES SAME FILL-ORIGIN LEVEL: 0 DIFFERENT FILL-ORIGIN LEVEL: 0
L1D AVERAGE MISS LATENCY: 10.9326 cycles
L1D AVERAGE MISS LATENCY LOAD: 16.274 cycles
L1D AVERAGE MISS LATENCY PREFETCH: -nan cycles
L1D AVERAGE MSHR OCCUPANCY: 0.147174
L1D MSHR FULL: 0
L1D RQ	ACCESS:   66495029	FORWARD:          0	MERGED:    6726320	TO_CACHE:   59497418
L1D WQ	ACCESS:   40079092	FORWARD:     271291	MERGED:     240780	TO_CACHE:   39838312

L1D UNIQUE REGIONS ACCESSED: 0
L1D REGIONS CONFLICTS: 0
L1D Cross Page Prefetch Requests: 0
L1D Same Page Prefetch Requests: 0
L1D ROI Sum of L1D PQ occupancy: 0
L1D PREFETCHES PUSHED FROM L2C: 0
L1I SPEC fills:          0  NON-SPEC fills:          0
L1I Test counter :          0
L1I Leapfrog:          0
L1I MSHR merge:          0
L1I TOTAL     ACCESS:   35090224  HIT:   35090224  MISS:          0  HIT %:        100  MISS %:          0   MPKI: 0
L1I LOAD      TOTAL       ACCESS:   35090224  HIT:   35090224  MISS:          0  HIT %:        100  MISS %:          0   MPKI: 0
L1I LOAD      NON_SPEC    ACCESS:   35090224  HIT:   35090224  MISS:          0  HIT %:        100  MISS %:          0   MPKI: 0
L1I PREFETCH  REQUESTED:          0  ISSUED:          0  USEFUL:          0  USELESS:          0
L1I USEFUL LOAD PREFETCHES:          0 PREFETCH ISSUED TO LOWER LEVEL:          0  ACCURACY: -nan
L1I TIMELY PREFETCHES:          0 LATE PREFETCHES: 0 DROPPED PREFETCHES: 0
L1I COMMIT LATE PREFETCHES: 0 NORMAL LATE: 0 MISSED OPPORTUNITY: 0 UNCOVERED: 0
L1I PREFETCHES SAME FILL-ORIGIN LEVEL: 0 DIFFERENT FILL-ORIGIN LEVEL: 0
L1I AVERAGE MISS LATENCY: -nan cycles
L1I AVERAGE MISS LATENCY LOAD: -nan cycles
L1I AVERAGE MISS LATENCY PREFETCH: -nan cycles
L1I AVERAGE MSHR OCCUPANCY: 0
L1I MSHR FULL: 0
L1I RQ	ACCESS:   45629253	FORWARD:          0	MERGED:   10539028	TO_CACHE:   35090225

BTB SPEC fills:          0  NON-SPEC fills:          0
BTB Test counter :          0
BTB Leapfrog:          0
BTB MSHR merge:          0
BTB TOTAL     ACCESS:    3509173  HIT:    3509164  MISS:          9  HIT %:    99.9997  MISS %: 0.000256471   MPKI: 4.5e-05
BTB BRANCH_DIRECT_JUMP	ACCESS:        876  HIT:        874  MISS:          2
BTB BRANCH_INDIRECT	ACCESS:          0  HIT:          0  MISS:          0
BTB BRANCH_CONDITIONAL	ACCESS:    3506545  HIT:    3506542  MISS:          3
BTB BRANCH_DIRECT_CALL	ACCESS:        876  HIT:        874  MISS:          2
BTB BRANCH_INDIRECT_CALL	ACCESS:          0  HIT:          0  MISS:          0
BTB BRANCH_RETURN	ACCESS:        876  HIT:        874  MISS:          2
BTB BRANCH_OTHER ACCESS:          0  HIT:          0  MISS:          0

L2C SPEC fills:          0  NON-SPEC fills:      20768
L2C Test counter :          0
L2C Leapfrog:          0
L2C MSHR merge:      14992
L2C TOTAL     ACCESS:    8937993  HIT:    7117045  MISS:    1820948  HIT %:    79.6269  MISS %:    20.3731   MPKI: 9.10474
L2C LOAD      TOTAL       ACCESS:    2937205  HIT:    2874213  MISS:      62992  HIT %:    97.8554  MISS %:    2.14462   MPKI: 0.31496
L2C LOAD      NON_SPEC    ACCESS:    1166140  HIT:    1145372  MISS:      20768  HIT %:    98.2191  MISS %:    1.78092   MPKI: 0.10384
L2C LOAD      SPEC        ACCESS:    1771065  HIT:    1728841  MISS:      42224  HIT %:    97.6159  MISS %:     2.3841   MPKI: 0.21112
L2C RFO       NON_SPEC    ACCESS:       2956  HIT:       2138  MISS:        818  HIT %:    72.3275  MISS %:    27.6725   MPKI: 0.00409
L2C PREFETCH  NON_SPEC    ACCESS:    3025330  HIT:    1313626  MISS:    1711704  HIT %:    43.4209  MISS %:    56.5791   MPKI: 8.55852
L2C WRITEBACK NON_SPEC    ACCESS:     802153  HIT:     802153  MISS:          0  HIT %:        100  MISS %:          0   MPKI: 0
L2C CLEAN_EVICTION NON_SPEC    ACCESS:    1916147  HIT:    1874258  MISS:      41889  HIT %:    97.8139  MISS %:    2.18611   MPKI: 0.209445
L2C COMMIT LOAD NON_SPEC    ACCESS:     117021  HIT:     117015  MISS:          6  HIT %:    99.9949  MISS %: 0.00512728   MPKI: 3e-05
L2C LOAD TRANSLATION NON_SPEC    ACCESS:     137181  HIT:     133642  MISS:       3539  HIT %:    97.4202  MISS %:     2.5798   MPKI: 0.017695
L2C PREFETCH  REQUESTED:    3072975  ISSUED:    3072975  USEFUL:    1708468  USELESS:       3225
L2C USEFUL LOAD PREFETCHES:    1708468 PREFETCH ISSUED TO LOWER LEVEL:    1727441  ACCURACY: 98.9017
L2C TIMELY PREFETCHES:    1708468 LATE PREFETCHES: 14992 DROPPED PREFETCHES: 0
L2C COMMIT LATE PREFETCHES: 0 NORMAL LATE: 14992 MISSED OPPORTUNITY: 0 UNCOVERED: 48000
L2C PREFETCHES SAME FILL-ORIGIN LEVEL: 1726698 DIFFERENT FILL-ORIGIN LEVEL: 743
L2C AVERAGE MISS LATENCY: 191.119 cycles
L2C AVERAGE MISS LATENCY LOAD: 173.432 cycles
L2C AVERAGE MISS LATENCY PREFETCH: 196.508 cycles
L2C AVERAGE MSHR OCCUPANCY: 1.37844
L2C MSHR FULL: 0
L2C RQ	ACCESS:    3194363	FORWARD:          0	MERGED:          0	TO_CACHE:    3194363
L2C WQ	ACCESS:    2718317	FORWARD:          0	MERGED:         17	TO_CACHE:    2718300
L2C PQ	ACCESS:    3072975	FORWARD:          0	MERGED:       2146	TO_CACHE:    3070829

L2C Instructions Evicting Data 0
L2C Translations Evicting Data 3539
L2C Data Evicting Data 1729850
L2C Instructions Evicting Instructions 0
L2C Translations Evicting Instructions 0
L2C Data Evicting Instructions 0
L2C Instructions Evicting Translations 0
L2C Translations Evicting Translations 0
L2C Data Evicting Translations 3446
L2C Dense regions hint from L2: 0
PSCL5 SPEC fills:          0  NON-SPEC fills:          0
PSCL5 Test counter :          0
PSCL5 Leapfrog:          0
PSCL5 MSHR merge:          0
PSCL5 TOTAL     ACCESS:          0  HIT:          0  MISS:          0  HIT %:       -nan  MISS %:       -nan   MPKI: 0
PSCL5 PREFETCH  REQUESTED:          0  ISSUED:          0  USEFUL:          0  USELESS:          0
PSCL5 USEFUL LOAD PREFETCHES:          0 PREFETCH ISSUED TO LOWER LEVEL:          0  ACCURACY: -nan
PSCL5 TIMELY PREFETCHES:          0 LATE PREFETCHES: 0 DROPPED PREFETCHES: 0
PSCL5 COMMIT LATE PREFETCHES: 0 NORMAL LATE: 0 MISSED OPPORTUNITY: 0 UNCOVERED: 0
PSCL5 PREFETCHES SAME FILL-ORIGIN LEVEL: 0 DIFFERENT FILL-ORIGIN LEVEL: 0

PSCL4 SPEC fills:          0  NON-SPEC fills:          0
PSCL4 Test counter :          0
PSCL4 Leapfrog:          0
PSCL4 MSHR merge:          0
PSCL4 TOTAL     ACCESS:          0  HIT:          0  MISS:          0  HIT %:       -nan  MISS %:       -nan   MPKI: 0
PSCL4 PREFETCH  REQUESTED:          0  ISSUED:          0  USEFUL:          0  USELESS:          0
PSCL4 USEFUL LOAD PREFETCHES:          0 PREFETCH ISSUED TO LOWER LEVEL:          0  ACCURACY: -nan
PSCL4 TIMELY PREFETCHES:          0 LATE PREFETCHES: 0 DROPPED PREFETCHES: 0
PSCL4 COMMIT LATE PREFETCHES: 0 NORMAL LATE: 0 MISSED OPPORTUNITY: 0 UNCOVERED: 0
PSCL4 PREFETCHES SAME FILL-ORIGIN LEVEL: 0 DIFFERENT FILL-ORIGIN LEVEL: 0

PSCL3 SPEC fills:          0  NON-SPEC fills:          0
PSCL3 Test counter :          0
PSCL3 Leapfrog:          0
PSCL3 MSHR merge:          0
PSCL3 TOTAL     ACCESS:          0  HIT:          0  MISS:          0  HIT %:       -nan  MISS %:       -nan   MPKI: 0
PSCL3 PREFETCH  REQUESTED:          0  ISSUED:          0  USEFUL:          0  USELESS:          0
PSCL3 USEFUL LOAD PREFETCHES:          0 PREFETCH ISSUED TO LOWER LEVEL:          0  ACCURACY: -nan
PSCL3 TIMELY PREFETCHES:          0 LATE PREFETCHES: 0 DROPPED PREFETCHES: 0
PSCL3 COMMIT LATE PREFETCHES: 0 NORMAL LATE: 0 MISSED OPPORTUNITY: 0 UNCOVERED: 0
PSCL3 PREFETCHES SAME FILL-ORIGIN LEVEL: 0 DIFFERENT FILL-ORIGIN LEVEL: 0

PSCL2 SPEC fills:          0  NON-SPEC fills:          0
PSCL2 Test counter :          0
PSCL2 Leapfrog:          0
PSCL2 MSHR merge:          0
PSCL2 TOTAL     ACCESS:          0  HIT:          0  MISS:          0  HIT %:       -nan  MISS %:       -nan   MPKI: 0
PSCL2 PREFETCH  REQUESTED:          0  ISSUED:          0  USEFUL:          0  USELESS:          0
PSCL2 USEFUL LOAD PREFETCHES:          0 PREFETCH ISSUED TO LOWER LEVEL:          0  ACCURACY: -nan
PSCL2 TIMELY PREFETCHES:          0 LATE PREFETCHES: 0 DROPPED PREFETCHES: 0
PSCL2 COMMIT LATE PREFETCHES: 0 NORMAL LATE: 0 MISSED OPPORTUNITY: 0 UNCOVERED: 0
PSCL2 PREFETCHES SAME FILL-ORIGIN LEVEL: 0 DIFFERENT FILL-ORIGIN LEVEL: 0

LLC SPEC fills:          0  NON-SPEC fills:      20401
LLC Test counter :          0
LLC Leapfrog:          0
LLC MSHR merge:          0
LLC TOTAL     ACCESS:    3552079  HIT:    1760784  MISS:    1791295  HIT %:    49.5705  MISS %:    50.4295   MPKI: 8.95647
LLC LOAD      TOTAL       ACCESS:      48000  HIT:        868  MISS:      47132  HIT %:    1.80833  MISS %:    98.1917   MPKI: 0.23566
LLC LOAD      NON_SPEC    ACCESS:      20728  HIT:        327  MISS:      20401  HIT %:    1.57758  MISS %:    98.4224   MPKI: 0.102005
LLC LOAD      SPEC        ACCESS:      27272  HIT:        541  MISS:      26731  HIT %:    1.98372  MISS %:    98.0163   MPKI: 0.133655
LLC RFO       NON_SPEC    ACCESS:        818  HIT:        818  MISS:          0  HIT %:        100  MISS %:          0   MPKI: 0
LLC PREFETCH  NON_SPEC    ACCESS:    1727429  HIT:      18880  MISS:    1708549  HIT %:    1.09295  MISS %:     98.907   MPKI: 8.54274
LLC WRITEBACK NON_SPEC    ACCESS:     796236  HIT:     796231  MISS:          5  HIT %:    99.9994  MISS %: 0.000627955   MPKI: 2.5e-05
LLC CLEAN_EVICTION NON_SPEC    ACCESS:     976051  HIT:     943982  MISS:      32069  HIT %:    96.7144  MISS %:    3.28559   MPKI: 0.160345
LLC COMMIT LOAD NON_SPEC    ACCESS:          6  HIT:          4  MISS:          2  HIT %:    66.6667  MISS %:    33.3333   MPKI: 1e-05
LLC LOAD TRANSLATION NON_SPEC    ACCESS:       3539  HIT:          1  MISS:       3538  HIT %:  0.0282566  MISS %:    99.9717   MPKI: 0.01769
LLC PREFETCH  REQUESTED:          0  ISSUED:          0  USEFUL:        249  USELESS:    1708390
LLC USEFUL LOAD PREFETCHES:        249 PREFETCH ISSUED TO LOWER LEVEL:    1708551  ACCURACY: 0.0145738
LLC TIMELY PREFETCHES:        249 LATE PREFETCHES: 0 DROPPED PREFETCHES: 0
LLC COMMIT LATE PREFETCHES: 0 NORMAL LATE: 0 MISSED OPPORTUNITY: 0 UNCOVERED: 47132
LLC PREFETCHES SAME FILL-ORIGIN LEVEL: 173 DIFFERENT FILL-ORIGIN LEVEL: 0
LLC AVERAGE MISS LATENCY: 164.858 cycles
LLC AVERAGE MISS LATENCY LOAD: 151.558 cycles
LLC AVERAGE MISS LATENCY PREFETCH: 168.312 cycles
LLC AVERAGE MSHR OCCUPANCY: 0.404255
LLC MSHR FULL: 0
LLC RQ	ACCESS:      52363	FORWARD:          0	MERGED:          0	TO_CACHE:      52363
LLC WQ	ACCESS:    1772288	FORWARD:          5	MERGED:          0	TO_CACHE:    1772288
LLC PQ	ACCESS:    1727441	FORWARD:          0	MERGED:          0	TO_CACHE:    1727436

LLC Dense regions hint to LLC: 0

RAW hits: 2883
Loads Generated: 70169100
Loads sent to L1D: 70166214
Stores Generated: 14041094
Stores sent to L1D: 14041096
Major fault: 0 Minor fault: 34487
Allocated PAGES: 34487
Total Load insts: 87707364
Total Non-spec loads: 8530366
Percentage of speculative loads: 90.2741

LeapFrogging counter: 0
Commit hits: 26037994 miss: 36873931
Commit hit %: 41.388 miss %: 58.612
Commits not translated: 0
Loads retired: 2937205
Stores retired: 14041096
Cache fills: 2937205
L1D response latency: 16.274 cycles
Load retirement latency: 30.139 cycles
OOO test counter: 0
Discarded buffer inserts: 26037994 hits: 422993 hit %: 1.62452
Filter prediction accuracy: -nan
------------------
Depth Distribution
------------------
depth 0: 308628
depth 1: 1229
depth 2: 1503
depth 3: 597
depth 4: 182
depth 5: 227
depth 6: 417
depth 7: 952
depth 8: 4081
depth 9: 71266
depth 10: 87786
depth 11: 1081108
depth 12: 1129861
depth 13: 270035
depth 14: 621147
depth 15: 18012
depth 16: 6826
depth 17: 1932
depth 18: 597
depth 19: 54
depth 20: 13
depth 21: 1
depth 22: 0
depth 23: 0
depth 24: 0
depth 25: 0
depth 26: 0
depth 27: 0
depth 28: 0
depth 29: 0
Total: 3606454
------------------
ST read accesses: 2909883
ST write accesses: 27322
PT read accesses: 172664658
PT write accesses: 3917218
FILTER read accesses: 32855626
FILTER write accesses: 9155488
GHR read accesses: 21559720
GHR write accesses: 3603772
PERC read accesses: 1245613356
PERC write accesses: 23972029
GHR counter read accesses: 5874410
GHR counter write accesses: 8577768
GHR ip read accesses: 18045642
GHR ip write accesses: 11748820
ST tag read accesses: 1082411626
ST tag write accesses: 13802171

DRAM Statistics
 CHANNEL 0
 RQ ROW_BUFFER_HIT:     124034  ROW_BUFFER_MISS:    1635187
 DBUS_CONGESTED:        634
 WQ ROW_BUFFER_HIT:     507721  ROW_BUFFER_MISS:    1251839  FULL:          0

 AVG_CONGESTED_CYCLE: 6
 All warmup complete: 2
Channel 0 Bank busy for read cycles: 0
Channel 0 Bank busy for write cycles: 0
Channel 0
Rank 0
0banks busy for read cycles: 24560973
0banks busy for write cycles: 40164
1banks busy for read cycles: 59791476
1banks busy for write cycles: 2995057
2banks busy for read cycles: 35141123
2banks busy for write cycles: 1653420
3banks busy for read cycles: 17626997
3banks busy for write cycles: 1481684
4banks busy for read cycles: 4512309
4banks busy for write cycles: 1566395
5banks busy for read cycles: 1991555
5banks busy for write cycles: 2551708
6banks busy for read cycles: 2152166
6banks busy for write cycles: 3446021
7banks busy for read cycles: 799892
7banks busy for write cycles: 5172878
8banks busy for read cycles: 2754636
8banks busy for write cycles: 31523806

CPU 0 Branch Prediction Accuracy: 99.9751% MPKI: 0.00438 Average ROB Occupancy at Mispredict: 52.4155
Branch types
NOT_BRANCH: 196487440 98.2437%
BRANCH_DIRECT_JUMP: 876 0.000438%
BRANCH_INDIRECT: 0 0%
BRANCH_CONDITIONAL: 3509611 1.75481%
BRANCH_DIRECT_CALL: 876 0.000438%
BRANCH_INDIRECT_CALL: 0 0%
BRANCH_RETURN: 876 0.000438%
BRANCH_OTHER: 0 0%

DRAM PAGES: 1048576
Allocated PAGES: 34487
