Initialize SIGNATURE TABLE
ST_SET: 1
ST_WAY: 256
ST_TAG_BIT: 16
ST_TAG_MASK: ffff

Initialize PATTERN TABLE
PT_SET: 512
PT_WAY: 4
SIG_DELTA_BIT: 7
C_SIG_BIT: 4
C_DELTA_BIT: 4

Initialize PREFETCH FILTER
FILTER_SET: 1024

Initialize PERCEPTRON
PERC_ENTRIES: 4096
PERC_FEATURES: 9
Initialize SIGNATURE TABLE
ST_SET: 1
ST_WAY: 256
ST_TAG_BIT: 16
ST_TAG_MASK: ffff

Initialize PATTERN TABLE
PT_SET: 512
PT_WAY: 4
SIG_DELTA_BIT: 7
C_SIG_BIT: 4
C_DELTA_BIT: 4

Initialize PREFETCH FILTER
FILTER_SET: 1024

Initialize PERCEPTRON
PERC_ENTRIES: 4096
PERC_FEATURES: 9

*** ChampSim Multicore Out-of-Order Simulator ***

Warmup Instructions: 50000000
Simulation Instructions: 200000000
Number of CPUs: 1
LLC sets: 2048
LLC ways: 16
L0D sets: 16
L0D ways: 2
ROB size: 352
LQ size: 128
SQ size: 72
Secure Berti: OFF
Berti: OFF
Berti Fill: OFF
On commit prefetching: OFF
Hit-based filter: OFF
Time-guarding: ON
Free-slotting: ON
Leap-frogging: ON
Train prefetcher on L0D bypass: OFF
No translation penalty for prefetchers: OFF
Prefetch to L0D only: OFF
Prefetch to L1D only: OFF
Clean evictions: ON
Commit loads: ON
Commit write: ON
Fill commit loads to L2C, LLC: ON
DRAM IO FREQUENCY: 6400
ROB SIZE: 352
Off-chip DRAM Size: 4096 MB Channels: 1 Width: 64-bit Data Rate: 6400 MT/s
CPU 0 runs /home/sumon/secure_berti/GhostMinion/../../traces/spec/657.xz_s-2302B.champsimtrace.xz
.xz
BTB has LRU replacement policy
ITLB has LRU replacement policy
DTLB has LRU replacement policy
STLB has LRU replacement policy
L1I has LRU replacement policy
L0D has LRU replacement policy
L1D has LRU replacement policy
PERC_ENTRIES: 4096
L2C has LRU replacement policy
LLC has LRU replacement policy
Heartbeat CPU 0 instructions: 10000001 cycles: 3126878 heartbeat IPC: 3.19808 cumulative IPC: 3.19808 (Simulation time: 0 hr 1 min 13 sec) 
Heartbeat CPU 0 instructions: 20000002 cycles: 6257503 heartbeat IPC: 3.19425 cumulative IPC: 3.19616 (Simulation time: 0 hr 2 min 53 sec) 
Heartbeat CPU 0 instructions: 30000000 cycles: 9506051 heartbeat IPC: 3.0783 cumulative IPC: 3.15588 (Simulation time: 0 hr 4 min 43 sec) 
Heartbeat CPU 0 instructions: 40000003 cycles: 12636119 heartbeat IPC: 3.19482 cumulative IPC: 3.16553 (Simulation time: 0 hr 6 min 38 sec) 
Heartbeat CPU 0 instructions: 50000000 cycles: 15787248 heartbeat IPC: 3.17346 cumulative IPC: 3.16711 (Simulation time: 0 hr 8 min 36 sec) 

Warmup complete CPU 0 instructions: 50000004 cycles: 15787249 (Simulation time: 0 hr 8 min 36 sec) 

Heartbeat CPU 0 instructions: 60000002 cycles: 32647667 heartbeat IPC: 0.593105 cumulative IPC: 0.593105 (Simulation time: 0 hr 11 min 10 sec) 
Heartbeat CPU 0 instructions: 70000000 cycles: 48928840 heartbeat IPC: 0.614206 cumulative IPC: 0.603471 (Simulation time: 0 hr 13 min 42 sec) 
Heartbeat CPU 0 instructions: 80000003 cycles: 65592212 heartbeat IPC: 0.600119 cumulative IPC: 0.60235 (Simulation time: 0 hr 16 min 15 sec) 
Heartbeat CPU 0 instructions: 90000002 cycles: 82464433 heartbeat IPC: 0.59269 cumulative IPC: 0.599905 (Simulation time: 0 hr 18 min 49 sec) 
Heartbeat CPU 0 instructions: 100000001 cycles: 98744810 heartbeat IPC: 0.614236 cumulative IPC: 0.602718 (Simulation time: 0 hr 21 min 22 sec) 
Heartbeat CPU 0 instructions: 110000000 cycles: 115610158 heartbeat IPC: 0.592932 cumulative IPC: 0.601064 (Simulation time: 0 hr 23 min 56 sec) 
Heartbeat CPU 0 instructions: 120000003 cycles: 132647513 heartbeat IPC: 0.586946 cumulative IPC: 0.599006 (Simulation time: 0 hr 26 min 27 sec) 
Heartbeat CPU 0 instructions: 130000000 cycles: 149852391 heartbeat IPC: 0.58123 cumulative IPC: 0.596725 (Simulation time: 0 hr 28 min 57 sec) 
Heartbeat CPU 0 instructions: 140000003 cycles: 165799879 heartbeat IPC: 0.627058 cumulative IPC: 0.599949 (Simulation time: 0 hr 31 min 25 sec) 
Heartbeat CPU 0 instructions: 150000003 cycles: 182994554 heartbeat IPC: 0.581575 cumulative IPC: 0.59806 (Simulation time: 0 hr 33 min 56 sec) 
Heartbeat CPU 0 instructions: 160000003 cycles: 200140024 heartbeat IPC: 0.583244 cumulative IPC: 0.596682 (Simulation time: 0 hr 36 min 28 sec) 
Heartbeat CPU 0 instructions: 170000000 cycles: 215058236 heartbeat IPC: 0.670321 cumulative IPC: 0.602195 (Simulation time: 0 hr 38 min 58 sec) 
Heartbeat CPU 0 instructions: 180000001 cycles: 229093482 heartbeat IPC: 0.712492 cumulative IPC: 0.609452 (Simulation time: 0 hr 41 min 7 sec) 
Heartbeat CPU 0 instructions: 190000002 cycles: 243046070 heartbeat IPC: 0.716713 cumulative IPC: 0.616038 (Simulation time: 0 hr 42 min 35 sec) 
Heartbeat CPU 0 instructions: 200000002 cycles: 257010145 heartbeat IPC: 0.716123 cumulative IPC: 0.621832 (Simulation time: 0 hr 44 min 2 sec) 
Heartbeat CPU 0 instructions: 210000000 cycles: 270946926 heartbeat IPC: 0.717526 cumulative IPC: 0.627058 (Simulation time: 0 hr 45 min 29 sec) 
Heartbeat CPU 0 instructions: 220000000 cycles: 284899264 heartbeat IPC: 0.716726 cumulative IPC: 0.631707 (Simulation time: 0 hr 46 min 56 sec) 
Heartbeat CPU 0 instructions: 230000003 cycles: 298978491 heartbeat IPC: 0.710266 cumulative IPC: 0.635613 (Simulation time: 0 hr 48 min 22 sec) 
Heartbeat CPU 0 instructions: 240000001 cycles: 313108390 heartbeat IPC: 0.707719 cumulative IPC: 0.63904 (Simulation time: 0 hr 50 min 11 sec) 
Heartbeat CPU 0 instructions: 250000003 cycles: 327164513 heartbeat IPC: 0.711434 cumulative IPC: 0.642308 (Simulation time: 0 hr 51 min 35 sec) 
Finished CPU 0 instructions: 200000003 cycles: 311377265 cumulative IPC: 0.642308 (Simulation time: 0 hr 51 min 35 sec) 
 Instruction ID: 250000106

ChampSim completed all CPUs

Region of Interest Statistics

CPU 0 cumulative IPC: 0.642308 instructions: 200000003 cycles: 311377265
ITLB SPEC fills:          0  NON-SPEC fills:          0
ITLB Test counter :          0
ITLB Leapfrog:          0
ITLB MSHR merge:          0
ITLB TOTAL     ACCESS:   28831437  HIT:   28831437  MISS:          0  HIT %:        100  MISS %:          0   MPKI: 0
ITLB LOAD TRANSLATION NON_SPEC    ACCESS:   28831437  HIT:   28831437  MISS:          0  HIT %:        100  MISS %:          0   MPKI: 0
ITLB PREFETCH  REQUESTED:          0  ISSUED:          0  USEFUL:          0  USELESS:          0
ITLB USEFUL LOAD PREFETCHES:          0 PREFETCH ISSUED TO LOWER LEVEL:          0  ACCURACY: -nan
ITLB TIMELY PREFETCHES:          0 LATE PREFETCHES: 0 DROPPED PREFETCHES: 0
ITLB COMMIT LATE PREFETCHES: 0 NORMAL LATE: 0 MISSED OPPORTUNITY: 0 UNCOVERED: 0
ITLB PREFETCHES SAME FILL-ORIGIN LEVEL: 0 DIFFERENT FILL-ORIGIN LEVEL: 0
ITLB AVERAGE MISS LATENCY: -nan cycles
ITLB AVERAGE MISS LATENCY LOAD: -nan cycles
ITLB AVERAGE MISS LATENCY PREFETCH: -nan cycles
ITLB AVERAGE MSHR OCCUPANCY: 0
ITLB MSHR FULL: 0
ITLB RQ	ACCESS:   34293171	FORWARD:          0	MERGED:    5461735	TO_CACHE:   28831436

DTLB SPEC fills:          0  NON-SPEC fills:          0
DTLB Test counter :          0
DTLB Leapfrog:          0
DTLB MSHR merge:          0
DTLB TOTAL     ACCESS:   45128526  HIT:   44208597  MISS:     919929  HIT %:    97.9615  MISS %:    2.03846   MPKI: 4.59964
DTLB LOAD TRANSLATION NON_SPEC    ACCESS:   45128526  HIT:   44208597  MISS:     919929  HIT %:    97.9615  MISS %:    2.03846   MPKI: 4.59964
DTLB PREFETCH  REQUESTED:          0  ISSUED:          0  USEFUL:          0  USELESS:          0
DTLB USEFUL LOAD PREFETCHES:          0 PREFETCH ISSUED TO LOWER LEVEL:          0  ACCURACY: -nan
DTLB TIMELY PREFETCHES:          0 LATE PREFETCHES: 0 DROPPED PREFETCHES: 0
DTLB COMMIT LATE PREFETCHES: 0 NORMAL LATE: 0 MISSED OPPORTUNITY: 0 UNCOVERED: 0
DTLB PREFETCHES SAME FILL-ORIGIN LEVEL: 0 DIFFERENT FILL-ORIGIN LEVEL: 0
DTLB AVERAGE MISS LATENCY: 20.875 cycles
DTLB AVERAGE MISS LATENCY LOAD: -nan cycles
DTLB AVERAGE MISS LATENCY PREFETCH: -nan cycles
DTLB AVERAGE MSHR OCCUPANCY: 0.0564301
DTLB MSHR FULL: 6.64663e-08
DTLB RQ	ACCESS:   55952069	FORWARD:          0	MERGED:   10816385	TO_CACHE:   45135684

STLB SPEC fills:          0  NON-SPEC fills:          0
STLB Test counter :          0
STLB Leapfrog:          0
STLB MSHR merge:          0
STLB TOTAL     ACCESS:     919929  HIT:     785828  MISS:     134101  HIT %:    85.4227  MISS %:    14.5773   MPKI: 0.670505
STLB LOAD TRANSLATION NON_SPEC    ACCESS:     919929  HIT:     785828  MISS:     134101  HIT %:    85.4227  MISS %:    14.5773   MPKI: 0.670505
STLB PREFETCH  REQUESTED:          0  ISSUED:          0  USEFUL:          0  USELESS:          0
STLB USEFUL LOAD PREFETCHES:          0 PREFETCH ISSUED TO LOWER LEVEL:          0  ACCURACY: -nan
STLB TIMELY PREFETCHES:          0 LATE PREFETCHES: 0 DROPPED PREFETCHES: 0
STLB COMMIT LATE PREFETCHES: 0 NORMAL LATE: 0 MISSED OPPORTUNITY: 0 UNCOVERED: 0
STLB PREFETCHES SAME FILL-ORIGIN LEVEL: 0 DIFFERENT FILL-ORIGIN LEVEL: 0
STLB AVERAGE MISS LATENCY: 81.4249 cycles
STLB AVERAGE MISS LATENCY LOAD: -nan cycles
STLB AVERAGE MISS LATENCY PREFETCH: -nan cycles
STLB AVERAGE MSHR OCCUPANCY: 0.07923
STLB MSHR FULL: 0
STLB RQ	ACCESS:     919929	FORWARD:          0	MERGED:          0	TO_CACHE:     919929

STLB Hit, L1D data hit: 0
STLB Hit, L2C data hit: 0
STLB Hit, LLC data hit: 0
STLB Hit, LLC data miss: 0
STLB STLB hints to L2: 0
L0D SPEC fills:   24295126  NON-SPEC fills:          0
L0D TimeGuard Request with older TS:     116697 Restricted eviction:      82882 read:     274591
L0D Test counter :          0
L0D Leapfrog:          0
L0D MSHR merge:     811370
L0D TOTAL     ACCESS:   37942884  HIT:    5415857  MISS:   32527027  HIT %:    14.2737  MISS %:    85.7263   MPKI: 162.635
L0D LOAD      TOTAL       ACCESS:   37942884  HIT:    5415857  MISS:   32527027  HIT %:    14.2737  MISS %:    85.7263   MPKI: 162.635
L0D LOAD      NON_SPEC    ACCESS:    8614787  HIT:     465767  MISS:    8149020  HIT %:     5.4066  MISS %:    94.5934   MPKI: 40.7451
L0D LOAD      SPEC        ACCESS:   29328097  HIT:    4950090  MISS:   24378007  HIT %:    16.8783  MISS %:    83.1217   MPKI: 121.89
L0D PREFETCH  REQUESTED:          0  ISSUED:          0  USEFUL:          0  USELESS:          0
L0D USEFUL LOAD PREFETCHES:          0 PREFETCH ISSUED TO LOWER LEVEL:          0  ACCURACY: -nan
L0D TIMELY PREFETCHES:          0 LATE PREFETCHES: 0 DROPPED PREFETCHES: 0
L0D COMMIT LATE PREFETCHES: 0 NORMAL LATE: 0 MISSED OPPORTUNITY: 0 UNCOVERED: 32527027
L0D PREFETCHES SAME FILL-ORIGIN LEVEL: 0 DIFFERENT FILL-ORIGIN LEVEL: 0
L0D AVERAGE MISS LATENCY: 6.71556 cycles
L0D AVERAGE MISS LATENCY LOAD: 6.71556 cycles
L0D AVERAGE MISS LATENCY PREFETCH: -nan cycles
L0D AVERAGE MSHR OCCUPANCY: 0.617736
L0D MSHR FULL: 7.74108e-07
L0D RQ	ACCESS:   45262684	FORWARD:          0	MERGED:    6508431	TO_CACHE:   38754253
L0D WQ	ACCESS:   17197816	FORWARD:          0	MERGED:          0	TO_CACHE:   17197816

L1D SPEC fills:          0  NON-SPEC fills:     125919
L1D Test counter :          0
L1D Leapfrog:          0
L1D MSHR merge:        613
L1D TOTAL     ACCESS:   80690062  HIT:   78708886  MISS:    1981176  HIT %:    97.5447  MISS %:    2.45529   MPKI: 9.90588
L1D LOAD      TOTAL       ACCESS:   32526414  HIT:   31538270  MISS:     988144  HIT %:     96.962  MISS %:    3.03797   MPKI: 4.94072
L1D LOAD      NON_SPEC    ACCESS:    8148747  HIT:    8022828  MISS:     125919  HIT %:    98.4547  MISS %:    1.54526   MPKI: 0.629595
L1D LOAD      SPEC        ACCESS:   24377667  HIT:   23515442  MISS:     862225  HIT %:    96.4631  MISS %:    3.53695   MPKI: 4.31112
L1D RFO       NON_SPEC    ACCESS:   15783750  HIT:   15647305  MISS:     136445  HIT %:    99.1355  MISS %:   0.864465   MPKI: 0.682225
L1D COMMIT LOAD NON_SPEC    ACCESS:    8187278  HIT:    8161183  MISS:      26095  HIT %:    99.6813  MISS %:   0.318726   MPKI: 0.130475
L1D COMMIT WRITE NON_SPEC    ACCESS:   24192620  HIT:   23362128  MISS:     830492  HIT %:    96.5672  MISS %:    3.43283   MPKI: 4.15246
L1D PREFETCH  REQUESTED:          0  ISSUED:          0  USEFUL:          0  USELESS:          0
L1D USEFUL LOAD PREFETCHES:          0 PREFETCH ISSUED TO LOWER LEVEL:          0  ACCURACY: -nan
L1D TIMELY PREFETCHES:          0 LATE PREFETCHES: 0 DROPPED PREFETCHES: 0
L1D COMMIT LATE PREFETCHES: 0 NORMAL LATE: 0 MISSED OPPORTUNITY: 0 UNCOVERED: 988144
L1D PREFETCHES SAME FILL-ORIGIN LEVEL: 0 DIFFERENT FILL-ORIGIN LEVEL: 0
L1D AVERAGE MISS LATENCY: 30.6353 cycles
L1D AVERAGE MISS LATENCY LOAD: 51.6405 cycles
L1D AVERAGE MISS LATENCY PREFETCH: -nan cycles
L1D AVERAGE MSHR OCCUPANCY: 0.0691126
L1D MSHR FULL: 0
L1D RQ	ACCESS:   44799915	FORWARD:          0	MERGED:    3729485	TO_CACHE:   40714836
L1D WQ	ACCESS:   41397945	FORWARD:     355594	MERGED:    1351985	TO_CACHE:   40045960

L1D UNIQUE REGIONS ACCESSED: 0
L1D REGIONS CONFLICTS: 0
L1D Cross Page Prefetch Requests: 0
L1D Same Page Prefetch Requests: 0
L1D ROI Sum of L1D PQ occupancy: 0
L1D PREFETCHES PUSHED FROM L2C: 0
L1I SPEC fills:          0  NON-SPEC fills:          0
L1I Test counter :          0
L1I Leapfrog:          0
L1I MSHR merge:        195
L1I TOTAL     ACCESS:   34292976  HIT:   34292584  MISS:        392  HIT %:    99.9989  MISS %: 0.00114309   MPKI: 0.00196
L1I LOAD      TOTAL       ACCESS:   34292976  HIT:   34292584  MISS:        392  HIT %:    99.9989  MISS %: 0.00114309   MPKI: 0.00196
L1I LOAD      NON_SPEC    ACCESS:   34292976  HIT:   34292584  MISS:        392  HIT %:    99.9989  MISS %: 0.00114309   MPKI: 0.00196
L1I PREFETCH  REQUESTED:          0  ISSUED:          0  USEFUL:          0  USELESS:          0
L1I USEFUL LOAD PREFETCHES:          0 PREFETCH ISSUED TO LOWER LEVEL:          0  ACCURACY: -nan
L1I TIMELY PREFETCHES:          0 LATE PREFETCHES: 0 DROPPED PREFETCHES: 0
L1I COMMIT LATE PREFETCHES: 0 NORMAL LATE: 0 MISSED OPPORTUNITY: 0 UNCOVERED: 392
L1I PREFETCHES SAME FILL-ORIGIN LEVEL: 0 DIFFERENT FILL-ORIGIN LEVEL: 0
L1I AVERAGE MISS LATENCY: 95.7653 cycles
L1I AVERAGE MISS LATENCY LOAD: 95.7653 cycles
L1I AVERAGE MISS LATENCY PREFETCH: -nan cycles
L1I AVERAGE MSHR OCCUPANCY: 2.02956e-05
L1I MSHR FULL: 0
L1I RQ	ACCESS:   52175760	FORWARD:          0	MERGED:   17882589	TO_CACHE:   34293171

BTB SPEC fills:          0  NON-SPEC fills:          0
BTB Test counter :          0
BTB Leapfrog:          0
BTB MSHR merge:          0
BTB TOTAL     ACCESS:   23485692  HIT:   23238860  MISS:     246832  HIT %:     98.949  MISS %:    1.05099   MPKI: 1.23416
BTB BRANCH_DIRECT_JUMP	ACCESS:    2818425  HIT:    2818347  MISS:         78
BTB BRANCH_INDIRECT	ACCESS:     447403  HIT:     208958  MISS:     238445
BTB BRANCH_CONDITIONAL	ACCESS:   19634890  HIT:   19634641  MISS:        249
BTB BRANCH_DIRECT_CALL	ACCESS:     190457  HIT:     190438  MISS:         19
BTB BRANCH_INDIRECT_CALL	ACCESS:     102031  HIT:     102024  MISS:          7
BTB BRANCH_RETURN	ACCESS:     292486  HIT:     284452  MISS:       8034
BTB BRANCH_OTHER ACCESS:          0  HIT:          0  MISS:          0

L2C SPEC fills:          0  NON-SPEC fills:      36589
L2C Test counter :          0
L2C Leapfrog:          0
L2C MSHR merge:        216
L2C TOTAL     ACCESS:    3009210  HIT:    2028623  MISS:     980587  HIT %:    67.4138  MISS %:    32.5862   MPKI: 4.90293
L2C LOAD      TOTAL       ACCESS:     988509  HIT:     545125  MISS:     443384  HIT %:    55.1462  MISS %:    44.8538   MPKI: 2.21692
L2C LOAD      NON_SPEC    ACCESS:     126302  HIT:      89323  MISS:      36979  HIT %:    70.7218  MISS %:    29.2782   MPKI: 0.184895
L2C LOAD      SPEC        ACCESS:     862207  HIT:     455802  MISS:     406405  HIT %:    52.8646  MISS %:    47.1354   MPKI: 2.03202
L2C RFO       NON_SPEC    ACCESS:     136395  HIT:      87168  MISS:      49227  HIT %:    63.9085  MISS %:    36.0915   MPKI: 0.246135
L2C PREFETCH  NON_SPEC    ACCESS:     125538  HIT:      75192  MISS:      50346  HIT %:    59.8958  MISS %:    40.1042   MPKI: 0.25173
L2C WRITEBACK NON_SPEC    ACCESS:     158366  HIT:     157674  MISS:        692  HIT %:     99.563  MISS %:   0.436962   MPKI: 0.00346
L2C CLEAN_EVICTION NON_SPEC    ACCESS:     903824  HIT:     496142  MISS:     407682  HIT %:    54.8937  MISS %:    45.1063   MPKI: 2.03841
L2C COMMIT LOAD NON_SPEC    ACCESS:      26073  HIT:      21106  MISS:       4967  HIT %:    80.9496  MISS %:    19.0504   MPKI: 0.024835
L2C LOAD TRANSLATION NON_SPEC    ACCESS:     670505  HIT:     646216  MISS:      24289  HIT %:    96.3775  MISS %:    3.62249   MPKI: 0.121445
L2C PREFETCH  REQUESTED:     168744  ISSUED:     168744  USEFUL:      18774  USELESS:      31449
L2C USEFUL LOAD PREFETCHES:      18774 PREFETCH ISSUED TO LOWER LEVEL:      93326  ACCURACY: 20.1166
L2C TIMELY PREFETCHES:      18774 LATE PREFETCHES: 216 DROPPED PREFETCHES: 0
L2C COMMIT LATE PREFETCHES: 0 NORMAL LATE: 216 MISSED OPPORTUNITY: 0 UNCOVERED: 443168
L2C PREFETCHES SAME FILL-ORIGIN LEVEL: 50562 DIFFERENT FILL-ORIGIN LEVEL: 42764
L2C AVERAGE MISS LATENCY: 55.0629 cycles
L2C AVERAGE MISS LATENCY LOAD: 89.4823 cycles
L2C AVERAGE MISS LATENCY PREFETCH: 112.68 cycles
L2C AVERAGE MSHR OCCUPANCY: 0.265258
L2C MSHR FULL: 0
L2C RQ	ACCESS:    1821581	FORWARD:          0	MERGED:          0	TO_CACHE:    1821482
L2C WQ	ACCESS:    1062190	FORWARD:        101	MERGED:          0	TO_CACHE:    1062190
L2C PQ	ACCESS:     168744	FORWARD:          0	MERGED:          4	TO_CACHE:     168738

L2C Instructions Evicting Data 378
L2C Translations Evicting Data 23258
L2C Data Evicting Data 134824
L2C Instructions Evicting Instructions 1
L2C Translations Evicting Instructions 18
L2C Data Evicting Instructions 93
L2C Instructions Evicting Translations 11
L2C Translations Evicting Translations 1013
L2C Data Evicting Translations 6212
L2C Dense regions hint from L2: 0
PSCL5 SPEC fills:          0  NON-SPEC fills:          0
PSCL5 Test counter :          0
PSCL5 Leapfrog:          0
PSCL5 MSHR merge:          0
PSCL5 TOTAL     ACCESS:          0  HIT:          0  MISS:          0  HIT %:       -nan  MISS %:       -nan   MPKI: 0
PSCL5 PREFETCH  REQUESTED:          0  ISSUED:          0  USEFUL:          0  USELESS:          0
PSCL5 USEFUL LOAD PREFETCHES:          0 PREFETCH ISSUED TO LOWER LEVEL:          0  ACCURACY: -nan
PSCL5 TIMELY PREFETCHES:          0 LATE PREFETCHES: 0 DROPPED PREFETCHES: 0
PSCL5 COMMIT LATE PREFETCHES: 0 NORMAL LATE: 0 MISSED OPPORTUNITY: 0 UNCOVERED: 0
PSCL5 PREFETCHES SAME FILL-ORIGIN LEVEL: 0 DIFFERENT FILL-ORIGIN LEVEL: 0

PSCL4 SPEC fills:          0  NON-SPEC fills:          0
PSCL4 Test counter :          0
PSCL4 Leapfrog:          0
PSCL4 MSHR merge:          0
PSCL4 TOTAL     ACCESS:          0  HIT:          0  MISS:          0  HIT %:       -nan  MISS %:       -nan   MPKI: 0
PSCL4 PREFETCH  REQUESTED:          0  ISSUED:          0  USEFUL:          0  USELESS:          0
PSCL4 USEFUL LOAD PREFETCHES:          0 PREFETCH ISSUED TO LOWER LEVEL:          0  ACCURACY: -nan
PSCL4 TIMELY PREFETCHES:          0 LATE PREFETCHES: 0 DROPPED PREFETCHES: 0
PSCL4 COMMIT LATE PREFETCHES: 0 NORMAL LATE: 0 MISSED OPPORTUNITY: 0 UNCOVERED: 0
PSCL4 PREFETCHES SAME FILL-ORIGIN LEVEL: 0 DIFFERENT FILL-ORIGIN LEVEL: 0

PSCL3 SPEC fills:          0  NON-SPEC fills:          0
PSCL3 Test counter :          0
PSCL3 Leapfrog:          0
PSCL3 MSHR merge:          0
PSCL3 TOTAL     ACCESS:          0  HIT:          0  MISS:          0  HIT %:       -nan  MISS %:       -nan   MPKI: 0
PSCL3 PREFETCH  REQUESTED:          0  ISSUED:          0  USEFUL:          0  USELESS:          0
PSCL3 USEFUL LOAD PREFETCHES:          0 PREFETCH ISSUED TO LOWER LEVEL:          0  ACCURACY: -nan
PSCL3 TIMELY PREFETCHES:          0 LATE PREFETCHES: 0 DROPPED PREFETCHES: 0
PSCL3 COMMIT LATE PREFETCHES: 0 NORMAL LATE: 0 MISSED OPPORTUNITY: 0 UNCOVERED: 0
PSCL3 PREFETCHES SAME FILL-ORIGIN LEVEL: 0 DIFFERENT FILL-ORIGIN LEVEL: 0

PSCL2 SPEC fills:          0  NON-SPEC fills:          0
PSCL2 Test counter :          0
PSCL2 Leapfrog:          0
PSCL2 MSHR merge:          0
PSCL2 TOTAL     ACCESS:          0  HIT:          0  MISS:          0  HIT %:       -nan  MISS %:       -nan   MPKI: 0
PSCL2 PREFETCH  REQUESTED:          0  ISSUED:          0  USEFUL:          0  USELESS:          0
PSCL2 USEFUL LOAD PREFETCHES:          0 PREFETCH ISSUED TO LOWER LEVEL:          0  ACCURACY: -nan
PSCL2 TIMELY PREFETCHES:          0 LATE PREFETCHES: 0 DROPPED PREFETCHES: 0
PSCL2 COMMIT LATE PREFETCHES: 0 NORMAL LATE: 0 MISSED OPPORTUNITY: 0 UNCOVERED: 0
PSCL2 PREFETCHES SAME FILL-ORIGIN LEVEL: 0 DIFFERENT FILL-ORIGIN LEVEL: 0

LLC SPEC fills:          0  NON-SPEC fills:      13019
LLC Test counter :          0
LLC Leapfrog:          0
LLC MSHR merge:         45
LLC TOTAL     ACCESS:    1115547  HIT:     639777  MISS:     475770  HIT %:     57.351  MISS %:     42.649   MPKI: 2.37885
LLC LOAD      TOTAL       ACCESS:     443168  HIT:     250560  MISS:     192608  HIT %:    56.5384  MISS %:    43.4616   MPKI: 0.96304
LLC LOAD      NON_SPEC    ACCESS:      36869  HIT:      23733  MISS:      13136  HIT %:    64.3712  MISS %:    35.6288   MPKI: 0.06568
LLC LOAD      SPEC        ACCESS:     406299  HIT:     226827  MISS:     179472  HIT %:    55.8276  MISS %:    44.1724   MPKI: 0.89736
LLC RFO       NON_SPEC    ACCESS:      49226  HIT:      17149  MISS:      32077  HIT %:    34.8373  MISS %:    65.1627   MPKI: 0.160385
LLC PREFETCH  NON_SPEC    ACCESS:      93265  HIT:      47451  MISS:      45814  HIT %:    50.8776  MISS %:    49.1224   MPKI: 0.22907
LLC WRITEBACK NON_SPEC    ACCESS:      53310  HIT:      52292  MISS:       1018  HIT %:    98.0904  MISS %:    1.90959   MPKI: 0.00509
LLC CLEAN_EVICTION NON_SPEC    ACCESS:     447322  HIT:     247076  MISS:     200246  HIT %:    55.2345  MISS %:    44.7655   MPKI: 1.00123
LLC COMMIT LOAD NON_SPEC    ACCESS:       4967  HIT:       4895  MISS:         72  HIT %:    98.5504  MISS %:    1.44957   MPKI: 0.00036
LLC LOAD TRANSLATION NON_SPEC    ACCESS:      24289  HIT:      20354  MISS:       3935  HIT %:    83.7993  MISS %:    16.2007   MPKI: 0.019675
LLC PREFETCH  REQUESTED:          0  ISSUED:          0  USEFUL:       8316  USELESS:      35251
LLC USEFUL LOAD PREFETCHES:       8316 PREFETCH ISSUED TO LOWER LEVEL:      45859  ACCURACY: 18.1338
LLC TIMELY PREFETCHES:       8316 LATE PREFETCHES: 45 DROPPED PREFETCHES: 0
LLC COMMIT LATE PREFETCHES: 0 NORMAL LATE: 45 MISSED OPPORTUNITY: 0 UNCOVERED: 192563
LLC PREFETCHES SAME FILL-ORIGIN LEVEL: 21670 DIFFERENT FILL-ORIGIN LEVEL: 0
LLC AVERAGE MISS LATENCY: 93.0271 cycles
LLC AVERAGE MISS LATENCY LOAD: 155.815 cycles
LLC AVERAGE MISS LATENCY PREFETCH: 173.732 cycles
LLC AVERAGE MSHR OCCUPANCY: 0.257038
LLC MSHR FULL: 0
LLC RQ	ACCESS:     521651	FORWARD:          0	MERGED:          0	TO_CACHE:     521650
LLC WQ	ACCESS:     500632	FORWARD:          1	MERGED:          0	TO_CACHE:     500632
LLC PQ	ACCESS:      93326	FORWARD:          0	MERGED:          5	TO_CACHE:      93321

LLC Dense regions hint to LLC: 0

RAW hits: 2063476
Loads Generated: 47326161
Loads sent to L1D: 45262684
Stores Generated: 17197827
Stores sent to L1D: 17197816
Major fault: 0 Minor fault: 8202
Allocated PAGES: 8202
Total Load insts: 55953252
Total Non-spec loads: 9467023
Percentage of speculative loads: 83.0805

LeapFrogging counter: 8
Commit hits: 24200129 miss: 12272889
Commit hit %: 66.3508 miss %: 33.6492
Commits not translated: 0
Loads retired: 988142
Stores retired: 17197816
Cache fills: 988144
L1D response latency: 51.6405 cycles
Load retirement latency: 94.7131 cycles
OOO test counter: 0
Discarded buffer inserts: 24200129 hits: 5188 hit %: 0.0214379
Filter prediction accuracy: -nan
------------------
Depth Distribution
------------------
depth 0: 1076734
depth 1: 202467
depth 2: 3299
depth 3: 4025
depth 4: 271
depth 5: 167
depth 6: 143
depth 7: 146
depth 8: 165
depth 9: 233
depth 10: 3
depth 11: 0
depth 12: 0
depth 13: 0
depth 14: 0
depth 15: 0
depth 16: 0
depth 17: 0
depth 18: 0
depth 19: 0
depth 20: 0
depth 21: 0
depth 22: 0
depth 23: 0
depth 24: 0
depth 25: 0
depth 26: 0
depth 27: 0
depth 28: 0
depth 29: 0
Total: 1287653
------------------
ST read accesses: 564783
ST write accesses: 423334
PT read accesses: 8255250
PT write accesses: 682963
FILTER read accesses: 2998032
FILTER write accesses: 1629017
GHR read accesses: 3511969
GHR write accesses: 10430
PERC read accesses: 43244784
PERC write accesses: 2036238
GHR counter read accesses: 1976234
GHR counter write accesses: 1157800
GHR ip read accesses: 4191894
GHR ip write accesses: 3952468
ST tag read accesses: 595650191
ST tag write accesses: 145853323

DRAM Statistics
 CHANNEL 0
 RQ ROW_BUFFER_HIT:       3344  ROW_BUFFER_MISS:     271159
 DBUS_CONGESTED:         11
 WQ ROW_BUFFER_HIT:      25629  ROW_BUFFER_MISS:     230860  FULL:          0

 AVG_CONGESTED_CYCLE: 4
 All warmup complete: 2
Channel 0 Bank busy for read cycles: 0
Channel 0 Bank busy for write cycles: 0
Channel 0
Rank 0
0banks busy for read cycles: 245928568
0banks busy for write cycles: 166091
1banks busy for read cycles: 26511649
1banks busy for write cycles: 25179395
2banks busy for read cycles: 5348741
2banks busy for write cycles: 5122127
3banks busy for read cycles: 873587
3banks busy for write cycles: 1283275
4banks busy for read cycles: 194818
4banks busy for write cycles: 357206
5banks busy for read cycles: 40840
5banks busy for write cycles: 114740
6banks busy for read cycles: 6131
6banks busy for write cycles: 41655
7banks busy for read cycles: 1142
7banks busy for write cycles: 31240
8banks busy for read cycles: 201
8banks busy for write cycles: 175860

CPU 0 Branch Prediction Accuracy: 92.4682% MPKI: 9.41666 Average ROB Occupancy at Mispredict: 24.481
Branch types
NOT_BRANCH: 174994601 87.4973%
BRANCH_DIRECT_JUMP: 2818425 1.40921%
BRANCH_INDIRECT: 447403 0.223701%
BRANCH_CONDITIONAL: 21154324 10.5772%
BRANCH_DIRECT_CALL: 190457 0.0952285%
BRANCH_INDIRECT_CALL: 102031 0.0510155%
BRANCH_RETURN: 292486 0.146243%
BRANCH_OTHER: 0 0%

DRAM PAGES: 1048576
Allocated PAGES: 8202
