
*** ChampSim Multicore Out-of-Order Simulator ***

Warmup Instructions: 50000000
Simulation Instructions: 200000000
Number of CPUs: 1
LLC sets: 2048
LLC ways: 16
Secure Berti: OFF
Berti: OFF
Berti Fill: OFF
On commit prefetching: OFF
L2 LLC Bypass speculative loads: OFF
Off-chip DRAM Size: 4096 MB Channels: 1 Width: 64-bit Data Rate: 6400 MT/s
CPU 0 runs /home/sumon/secure_berti/Berti_Baseline/../../traces/gap/bc-0.trace.gz
.gz
BTB has LRU replacement policy
ITLB has LRU replacement policy
DTLB has LRU replacement policy
STLB has LRU replacement policy
L1I has LRU replacement policy
L1D has LRU replacement policy
Bingo PHT WAYS: 16 and PHT_SIZE: 16384
L2C has LRU replacement policy
LLC has LRU replacement policy
Heartbeat CPU 0 instructions: 10000002 cycles: 3480153 heartbeat IPC: 2.87344 cumulative IPC: 2.87344 (Simulation time: 0 hr 0 min 26 sec) 
Heartbeat CPU 0 instructions: 20000000 cycles: 6406721 heartbeat IPC: 3.41697 cumulative IPC: 3.12172 (Simulation time: 0 hr 0 min 50 sec) 
Heartbeat CPU 0 instructions: 30000003 cycles: 9325001 heartbeat IPC: 3.42668 cumulative IPC: 3.21716 (Simulation time: 0 hr 1 min 15 sec) 
Heartbeat CPU 0 instructions: 40000001 cycles: 12238347 heartbeat IPC: 3.43248 cumulative IPC: 3.26842 (Simulation time: 0 hr 1 min 40 sec) 
Heartbeat CPU 0 instructions: 50000001 cycles: 15149779 heartbeat IPC: 3.43474 cumulative IPC: 3.30038 (Simulation time: 0 hr 2 min 4 sec) 

Warmup complete CPU 0 instructions: 50000001 cycles: 15149779 (Simulation time: 0 hr 2 min 4 sec) 

Heartbeat CPU 0 instructions: 60000003 cycles: 80372953 heartbeat IPC: 0.15332 cumulative IPC: 0.15332 (Simulation time: 0 hr 2 min 47 sec) 
Heartbeat CPU 0 instructions: 70000001 cycles: 146032772 heartbeat IPC: 0.1523 cumulative IPC: 0.152808 (Simulation time: 0 hr 3 min 30 sec) 
Heartbeat CPU 0 instructions: 80000000 cycles: 211984474 heartbeat IPC: 0.151626 cumulative IPC: 0.152412 (Simulation time: 0 hr 4 min 14 sec) 
Heartbeat CPU 0 instructions: 90000002 cycles: 279033033 heartbeat IPC: 0.149146 cumulative IPC: 0.151582 (Simulation time: 0 hr 4 min 57 sec) 
Heartbeat CPU 0 instructions: 100000001 cycles: 344826187 heartbeat IPC: 0.151991 cumulative IPC: 0.151664 (Simulation time: 0 hr 5 min 39 sec) 
Heartbeat CPU 0 instructions: 110000000 cycles: 411901834 heartbeat IPC: 0.149085 cumulative IPC: 0.151228 (Simulation time: 0 hr 6 min 21 sec) 
Heartbeat CPU 0 instructions: 120000000 cycles: 478539420 heartbeat IPC: 0.150065 cumulative IPC: 0.151061 (Simulation time: 0 hr 7 min 4 sec) 
Heartbeat CPU 0 instructions: 130000002 cycles: 545376692 heartbeat IPC: 0.149617 cumulative IPC: 0.150879 (Simulation time: 0 hr 7 min 47 sec) 
Heartbeat CPU 0 instructions: 140000000 cycles: 612379137 heartbeat IPC: 0.149248 cumulative IPC: 0.150696 (Simulation time: 0 hr 8 min 31 sec) 
Heartbeat CPU 0 instructions: 150000000 cycles: 679176350 heartbeat IPC: 0.149707 cumulative IPC: 0.150596 (Simulation time: 0 hr 9 min 13 sec) 
Heartbeat CPU 0 instructions: 160000001 cycles: 745606262 heartbeat IPC: 0.150535 cumulative IPC: 0.150591 (Simulation time: 0 hr 9 min 55 sec) 
Heartbeat CPU 0 instructions: 170000001 cycles: 812331256 heartbeat IPC: 0.149869 cumulative IPC: 0.15053 (Simulation time: 0 hr 10 min 37 sec) 
Heartbeat CPU 0 instructions: 180000002 cycles: 879115036 heartbeat IPC: 0.149737 cumulative IPC: 0.150469 (Simulation time: 0 hr 11 min 19 sec) 
Heartbeat CPU 0 instructions: 190000002 cycles: 945813579 heartbeat IPC: 0.149928 cumulative IPC: 0.15043 (Simulation time: 0 hr 12 min 1 sec) 
Heartbeat CPU 0 instructions: 200000000 cycles: 1012793128 heartbeat IPC: 0.149299 cumulative IPC: 0.150354 (Simulation time: 0 hr 12 min 44 sec) 
Heartbeat CPU 0 instructions: 210000000 cycles: 1079587976 heartbeat IPC: 0.149712 cumulative IPC: 0.150314 (Simulation time: 0 hr 13 min 26 sec) 
Heartbeat CPU 0 instructions: 220000000 cycles: 1146707763 heartbeat IPC: 0.148987 cumulative IPC: 0.150235 (Simulation time: 0 hr 14 min 8 sec) 
Heartbeat CPU 0 instructions: 230000000 cycles: 1214058861 heartbeat IPC: 0.148476 cumulative IPC: 0.150136 (Simulation time: 0 hr 14 min 51 sec) 
Heartbeat CPU 0 instructions: 240000003 cycles: 1281813151 heartbeat IPC: 0.147592 cumulative IPC: 0.15 (Simulation time: 0 hr 15 min 34 sec) 
Heartbeat CPU 0 instructions: 250000003 cycles: 1349503219 heartbeat IPC: 0.147732 cumulative IPC: 0.149885 (Simulation time: 0 hr 16 min 17 sec) 
Finished CPU 0 instructions: 200000002 cycles: 1334353440 cumulative IPC: 0.149885 (Simulation time: 0 hr 16 min 17 sec) 

ChampSim completed all CPUs

Region of Interest Statistics

CPU 0 cumulative IPC: 0.149885 instructions: 200000002 cycles: 1334353440
ITLB TOTAL     ACCESS:   40678157  HIT:   40678157  MISS:          0  HIT %:        100  MISS %:          0   MPKI: 0
ITLB Test counter:          0
ITLB LOAD TRANSLATION ACCESS:   40678157  HIT:   40678157  MISS:          0  HIT %:        100  MISS %:          0   MPKI: 0
ITLB PREFETCH  REQUESTED:          0  ISSUED:          0  USEFUL:          0  USELESS:          0
ITLB USEFUL LOAD PREFETCHES:          0 PREFETCH ISSUED TO LOWER LEVEL:          0  ACCURACY: -nan
ITLB TIMELY PREFETCHES:          0 LATE PREFETCHES: 0 DROPPED PREFETCHES: 0
ITLB COMMIT LATE PREFETCHES: 0 MISSED OPPORTUNITY: 0 LATE IN PQ: 0 UNCOVERED: 0
ITLB COMMIT LATE MSHR PREFETCHES: 0
ITLB MPKI TOTAL: 0 MSHR LATE: 0 PQ LATE: 0 COMMIT LATE: 0 MISSED OPPORTUNITY: 0 UNCOVERED: 0
ITLB PREFETCHES SAME FILL-ORIGIN LEVEL: 0 DIFFERENT FILL-ORIGIN LEVEL: 0
ITLB AVERAGE MISS LATENCY: -nan cycles
ITLB AVERAGE MISS LATENCY LOAD: -nan cycles
ITLB AVERAGE MISS LATENCY PREFETCH: -nan cycles
ITLB AVERAGE MSHR OCCUPANCY: 0
ITLB MSHR FULL: 0
ITLB RQ	ACCESS:   40943041	FORWARD:          0	MERGED:     264885	TO_CACHE:   40678156

DTLB TOTAL     ACCESS:   54354982  HIT:   44935414  MISS:    9419568  HIT %:    82.6703  MISS %:    17.3297   MPKI: 47.0978
DTLB Test counter:          0
DTLB LOAD TRANSLATION ACCESS:   54354982  HIT:   44935414  MISS:    9419568  HIT %:    82.6703  MISS %:    17.3297   MPKI: 47.0978
DTLB PREFETCH  REQUESTED:          0  ISSUED:          0  USEFUL:          0  USELESS:          0
DTLB USEFUL LOAD PREFETCHES:          0 PREFETCH ISSUED TO LOWER LEVEL:          0  ACCURACY: -nan
DTLB TIMELY PREFETCHES:          0 LATE PREFETCHES: 0 DROPPED PREFETCHES: 0
DTLB COMMIT LATE PREFETCHES: 0 MISSED OPPORTUNITY: 0 LATE IN PQ: 0 UNCOVERED: 0
DTLB COMMIT LATE MSHR PREFETCHES: 0
DTLB MPKI TOTAL: 0 MSHR LATE: 0 PQ LATE: 0 COMMIT LATE: 0 MISSED OPPORTUNITY: 0 UNCOVERED: 0
DTLB PREFETCHES SAME FILL-ORIGIN LEVEL: 0 DIFFERENT FILL-ORIGIN LEVEL: 0
DTLB AVERAGE MISS LATENCY: 18.2751 cycles
DTLB AVERAGE MISS LATENCY LOAD: -nan cycles
DTLB AVERAGE MISS LATENCY PREFETCH: -nan cycles
DTLB AVERAGE MSHR OCCUPANCY: 0.23918
DTLB MSHR FULL: 0.000826308
DTLB RQ	ACCESS:   55625466	FORWARD:          0	MERGED:     792742	TO_CACHE:   54832724

STLB TOTAL     ACCESS:    9419568  HIT:    6409390  MISS:    3010178  HIT %:    68.0434  MISS %:    31.9566   MPKI: 15.0509
STLB Test counter:          0
STLB LOAD TRANSLATION ACCESS:    9419568  HIT:    6409390  MISS:    3010178  HIT %:    68.0434  MISS %:    31.9566   MPKI: 15.0509
STLB PREFETCH  REQUESTED:          0  ISSUED:          0  USEFUL:          0  USELESS:          0
STLB USEFUL LOAD PREFETCHES:          0 PREFETCH ISSUED TO LOWER LEVEL:          0  ACCURACY: -nan
STLB TIMELY PREFETCHES:          0 LATE PREFETCHES: 0 DROPPED PREFETCHES: 0
STLB COMMIT LATE PREFETCHES: 0 MISSED OPPORTUNITY: 0 LATE IN PQ: 0 UNCOVERED: 0
STLB COMMIT LATE MSHR PREFETCHES: 0
STLB MPKI TOTAL: 0 MSHR LATE: 0 PQ LATE: 0 COMMIT LATE: 0 MISSED OPPORTUNITY: 0 UNCOVERED: 0
STLB PREFETCHES SAME FILL-ORIGIN LEVEL: 0 DIFFERENT FILL-ORIGIN LEVEL: 0
STLB AVERAGE MISS LATENCY: 28.7468 cycles
STLB AVERAGE MISS LATENCY LOAD: -nan cycles
STLB AVERAGE MISS LATENCY PREFETCH: -nan cycles
STLB AVERAGE MSHR OCCUPANCY: 0.14661
STLB MSHR FULL: 0
STLB RQ	ACCESS:    9419568	FORWARD:          0	MERGED:          0	TO_CACHE:    9419568

STLB Hit, L1D data hit: 0
STLB Hit, L2C data hit: 0
STLB Hit, LLC data hit: 0
STLB Hit, LLC data miss: 0
STLB STLB hints to L2: 0
L1D TOTAL     ACCESS:   55292252  HIT:   37706075  MISS:   17586177  HIT %:    68.1941  MISS %:    31.8059   MPKI: 87.9309
L1D Test counter:          0
L1D LOAD      ACCESS:   46255875  HIT:   28699029  MISS:   17847042  HIT %:    62.0441  MISS %:    37.9559   MPKI: 87.7842
L1D RFO       ACCESS:    9036377  HIT:    9007046  MISS:      29331  HIT %:    99.6754  MISS %:   0.324588   MPKI: 0.146655
L1D PREFETCH  REQUESTED:          0  ISSUED:          0  USEFUL:          0  USELESS:          0
L1D USEFUL LOAD PREFETCHES:          0 PREFETCH ISSUED TO LOWER LEVEL:          0  ACCURACY: -nan
L1D TIMELY PREFETCHES:          0 LATE PREFETCHES: 0 DROPPED PREFETCHES: 0
L1D COMMIT LATE PREFETCHES: 0 MISSED OPPORTUNITY: 0 LATE IN PQ: 0 UNCOVERED: 0
L1D COMMIT LATE MSHR PREFETCHES: 0
L1D MPKI TOTAL: 89.2352 MSHR LATE: 0 PQ LATE: 0 COMMIT LATE: 0 MISSED OPPORTUNITY: 0 UNCOVERED: 0
L1D PREFETCHES SAME FILL-ORIGIN LEVEL: 0 DIFFERENT FILL-ORIGIN LEVEL: 0
L1D AVERAGE MISS LATENCY: 126.039 cycles
L1D AVERAGE MISS LATENCY LOAD: 125.726 cycles
L1D AVERAGE MISS LATENCY PREFETCH: -nan cycles
L1D AVERAGE MSHR OCCUPANCY: 1.20918
L1D MSHR FULL: 0.0115275
L1D RQ	ACCESS:   52324675	FORWARD:          0	MERGED:    5770261	TO_CACHE:   46546070
L1D WQ	ACCESS:    9121061	FORWARD:       8344	MERGED:      41665	TO_CACHE:    9079396

L1D UNIQUE REGIONS ACCESSED: 0
L1D REGIONS CONFLICTS: 0
L1D Cross Page Prefetch Requests: 0
L1D Same Page Prefetch Requests: 0
L1D ROI Sum of L1D PQ occupancy: 0
L1D PREFETCHES PUSHED FROM L2C: 0
560e8c841ff8: 10
560e8c841f0a: 14
14ce07da7672: 14
14ce07da763e: 14
14ce07da76c3: 14
560e8c840770: 14
560e8c841ea5: 14
560e8c84203f: 14
560e8c841f15: 14
560e8c841f20: 46
560e8c841efb: 281
560e8c841e7b: 2749
560e8c841f25: 5487
560e8c841e73: 5773
560e8c841e70: 6651
14ce07da767f: 14308
560e8c841ec6: 20737
560e8c841e77: 21743
560e8c841ebf: 44567
560e8c841ed6: 821061
560e8c841eca: 4242573
560e8c841ee2: 12370748
L1I TOTAL     ACCESS:   40943042  HIT:   40943042  MISS:          0  HIT %:        100  MISS %:          0   MPKI: 0
L1I Test counter:          0
L1I LOAD      ACCESS:   40943042  HIT:   40943042  MISS:          0  HIT %:        100  MISS %:          0   MPKI: 0
L1I PREFETCH  REQUESTED:          0  ISSUED:          0  USEFUL:          0  USELESS:          0
L1I USEFUL LOAD PREFETCHES:          0 PREFETCH ISSUED TO LOWER LEVEL:          0  ACCURACY: -nan
L1I TIMELY PREFETCHES:          0 LATE PREFETCHES: 0 DROPPED PREFETCHES: 0
L1I COMMIT LATE PREFETCHES: 0 MISSED OPPORTUNITY: 0 LATE IN PQ: 0 UNCOVERED: 0
L1I COMMIT LATE MSHR PREFETCHES: 0
L1I MPKI TOTAL: 0 MSHR LATE: 0 PQ LATE: 0 COMMIT LATE: 0 MISSED OPPORTUNITY: 0 UNCOVERED: 0
L1I PREFETCHES SAME FILL-ORIGIN LEVEL: 0 DIFFERENT FILL-ORIGIN LEVEL: 0
L1I AVERAGE MISS LATENCY: -nan cycles
L1I AVERAGE MISS LATENCY LOAD: -nan cycles
L1I AVERAGE MISS LATENCY PREFETCH: -nan cycles
L1I AVERAGE MSHR OCCUPANCY: 0
L1I MSHR FULL: 0
L1I RQ	ACCESS:   52456491	FORWARD:          0	MERGED:   11513450	TO_CACHE:   40943041

BTB TOTAL     ACCESS:   38946633  HIT:   38946619  MISS:         14  HIT %:        100  MISS %: 3.59466e-05   MPKI: 7e-05
BTB Test counter:          0
BTB BRANCH_DIRECT_JUMP	ACCESS:     251798  HIT:     251794  MISS:          4
BTB BRANCH_INDIRECT	ACCESS:          0  HIT:          0  MISS:          0
BTB BRANCH_CONDITIONAL	ACCESS:   38694807  HIT:   38694799  MISS:          8
BTB BRANCH_DIRECT_CALL	ACCESS:         14  HIT:         13  MISS:          1
BTB BRANCH_INDIRECT_CALL	ACCESS:          0  HIT:          0  MISS:          0
BTB BRANCH_RETURN	ACCESS:         14  HIT:         13  MISS:          1
BTB BRANCH_OTHER ACCESS:          0  HIT:          0  MISS:          0

L2C TOTAL     ACCESS:   35275654  HIT:   11425437  MISS:   23850217  HIT %:     32.389  MISS %:     67.611   MPKI: 119.251
L2C Test counter:          0
L2C LOAD      ACCESS:   17556846  HIT:    3462216  MISS:   14094630  HIT %:      19.72  MISS %:      80.28   MPKI: 70.4731
L2C DATA LOAD MPKI: 70.4731
L2C INSTRUCTION LOAD MPKI: 0
L2C RFO       ACCESS:      29330  HIT:        717  MISS:      28613  HIT %:     2.4446  MISS %:    97.5554   MPKI: 0.143065
L2C PREFETCH  ACCESS:   10132034  HIT:     675116  MISS:    9456918  HIT %:    6.66318  MISS %:    93.3368   MPKI: 47.2846
L2C DATA PREFETCH MPKI: 47.2846
L2C INSTRUCTION PREFETCH MPKI: 0
L2C WRITEBACK ACCESS:    4546323  HIT:    4541243  MISS:       5080  HIT %:    99.8883  MISS %:   0.111739   MPKI: 0.0254
L2C LOAD TRANSLATION ACCESS:    3011121  HIT:    2746145  MISS:     264976  HIT %:    91.2001  MISS %:    8.79991   MPKI: 1.32488
L2C PREFETCH  REQUESTED:   10276280  ISSUED:   10276280  USEFUL:    1328604  USELESS:    8128161
L2C USEFUL LOAD PREFETCHES:    1328604 PREFETCH ISSUED TO LOWER LEVEL:    9554570  ACCURACY: 13.9054
L2C TIMELY PREFETCHES:    1328604 LATE PREFETCHES: 97650 DROPPED PREFETCHES: 0
L2C COMMIT LATE PREFETCHES: 0 MISSED OPPORTUNITY: 0 LATE IN PQ: 0 UNCOVERED: 0
L2C COMMIT LATE MSHR PREFETCHES: 0
L2C MPKI TOTAL: 70.4731 MSHR LATE: 0.48825 PQ LATE: 0 COMMIT LATE: 0 MISSED OPPORTUNITY: 0 UNCOVERED: 0
L2C PREFETCHES SAME FILL-ORIGIN LEVEL: 9554570 DIFFERENT FILL-ORIGIN LEVEL: 0
L2C AVERAGE MISS LATENCY: 154.78 cycles
L2C AVERAGE MISS LATENCY LOAD: 137.877 cycles
L2C AVERAGE MISS LATENCY PREFETCH: 181.88 cycles
L2C AVERAGE MSHR OCCUPANCY: 2.41287
L2C MSHR FULL: 0.00165797
L2C RQ	ACCESS:   20597298	FORWARD:          0	MERGED:          0	TO_CACHE:   20597297
L2C WQ	ACCESS:    4546323	FORWARD:          1	MERGED:          0	TO_CACHE:    4546323
L2C PQ	ACCESS:   10276280	FORWARD:          0	MERGED:          0	TO_CACHE:   10276280

L2C Instructions Evicting Data 0
L2C Translations Evicting Data 260142
L2C Data Evicting Data 23320133
L2C Instructions Evicting Instructions 0
L2C Translations Evicting Instructions 0
L2C Data Evicting Instructions 0
L2C Instructions Evicting Translations 0
L2C Translations Evicting Translations 4834
L2C Data Evicting Translations 260028
L2C Dense regions hint from L2: 0
560e8c841efb: 3
560e8c841ea5: 4
560e8c841ff8: 5
14ce07da7672: 14
14ce07da763e: 14
560e8c840770: 14
560e8c841f25: 556
560e8c841e73: 791
560e8c841e70: 1055
560e8c841e7b: 2665
14ce07da767f: 5726
560e8c841ec6: 19080
560e8c841e77: 20987
560e8c841ebf: 21258
560e8c841ed6: 52502
560e8c841eca: 4063363
560e8c841ee2: 9906593
PSCL5 TOTAL     ACCESS:    3010178  HIT:    3010178  MISS:          0  HIT %:        100  MISS %:          0   MPKI: 0
PSCL5 Test counter:          0
PSCL5 LOAD TRANSLATION ACCESS:    3010178  HIT:    3010178  MISS:          0  HIT %:        100  MISS %:          0   MPKI: 0
PSCL5 PREFETCH  REQUESTED:          0  ISSUED:          0  USEFUL:          0  USELESS:          0
PSCL5 USEFUL LOAD PREFETCHES:          0 PREFETCH ISSUED TO LOWER LEVEL:          0  ACCURACY: -nan
PSCL5 TIMELY PREFETCHES:          0 LATE PREFETCHES: 0 DROPPED PREFETCHES: 0
PSCL5 COMMIT LATE PREFETCHES: 0 MISSED OPPORTUNITY: 0 LATE IN PQ: 0 UNCOVERED: 0
PSCL5 COMMIT LATE MSHR PREFETCHES: 0
PSCL5 MPKI TOTAL: 0 MSHR LATE: 0 PQ LATE: 0 COMMIT LATE: 0 MISSED OPPORTUNITY: 0 UNCOVERED: 0
PSCL5 PREFETCHES SAME FILL-ORIGIN LEVEL: 0 DIFFERENT FILL-ORIGIN LEVEL: 0

PSCL4 TOTAL     ACCESS:    3010178  HIT:    3010178  MISS:          0  HIT %:        100  MISS %:          0   MPKI: 0
PSCL4 Test counter:          0
PSCL4 LOAD TRANSLATION ACCESS:    3010178  HIT:    3010178  MISS:          0  HIT %:        100  MISS %:          0   MPKI: 0
PSCL4 PREFETCH  REQUESTED:          0  ISSUED:          0  USEFUL:          0  USELESS:          0
PSCL4 USEFUL LOAD PREFETCHES:          0 PREFETCH ISSUED TO LOWER LEVEL:          0  ACCURACY: -nan
PSCL4 TIMELY PREFETCHES:          0 LATE PREFETCHES: 0 DROPPED PREFETCHES: 0
PSCL4 COMMIT LATE PREFETCHES: 0 MISSED OPPORTUNITY: 0 LATE IN PQ: 0 UNCOVERED: 0
PSCL4 COMMIT LATE MSHR PREFETCHES: 0
PSCL4 MPKI TOTAL: 0 MSHR LATE: 0 PQ LATE: 0 COMMIT LATE: 0 MISSED OPPORTUNITY: 0 UNCOVERED: 0
PSCL4 PREFETCHES SAME FILL-ORIGIN LEVEL: 0 DIFFERENT FILL-ORIGIN LEVEL: 0

PSCL3 TOTAL     ACCESS:    3010178  HIT:    3010178  MISS:          0  HIT %:        100  MISS %:          0   MPKI: 0
PSCL3 Test counter:          0
PSCL3 LOAD TRANSLATION ACCESS:    3010178  HIT:    3010178  MISS:          0  HIT %:        100  MISS %:          0   MPKI: 0
PSCL3 PREFETCH  REQUESTED:          0  ISSUED:          0  USEFUL:          0  USELESS:          0
PSCL3 USEFUL LOAD PREFETCHES:          0 PREFETCH ISSUED TO LOWER LEVEL:          0  ACCURACY: -nan
PSCL3 TIMELY PREFETCHES:          0 LATE PREFETCHES: 0 DROPPED PREFETCHES: 0
PSCL3 COMMIT LATE PREFETCHES: 0 MISSED OPPORTUNITY: 0 LATE IN PQ: 0 UNCOVERED: 0
PSCL3 COMMIT LATE MSHR PREFETCHES: 0
PSCL3 MPKI TOTAL: 0 MSHR LATE: 0 PQ LATE: 0 COMMIT LATE: 0 MISSED OPPORTUNITY: 0 UNCOVERED: 0
PSCL3 PREFETCHES SAME FILL-ORIGIN LEVEL: 0 DIFFERENT FILL-ORIGIN LEVEL: 0

PSCL2 TOTAL     ACCESS:    3010178  HIT:    3009224  MISS:        954  HIT %:    99.9683  MISS %:  0.0316925   MPKI: 0.00477
PSCL2 Test counter:          0
PSCL2 LOAD TRANSLATION ACCESS:    3010178  HIT:    3009224  MISS:        954  HIT %:    99.9683  MISS %:  0.0316925   MPKI: 0.00477
PSCL2 PREFETCH  REQUESTED:          0  ISSUED:          0  USEFUL:          0  USELESS:          0
PSCL2 USEFUL LOAD PREFETCHES:          0 PREFETCH ISSUED TO LOWER LEVEL:          0  ACCURACY: -nan
PSCL2 TIMELY PREFETCHES:          0 LATE PREFETCHES: 0 DROPPED PREFETCHES: 0
PSCL2 COMMIT LATE PREFETCHES: 0 MISSED OPPORTUNITY: 0 LATE IN PQ: 0 UNCOVERED: 0
PSCL2 COMMIT LATE MSHR PREFETCHES: 0
PSCL2 MPKI TOTAL: 0 MSHR LATE: 0 PQ LATE: 0 COMMIT LATE: 0 MISSED OPPORTUNITY: 0 UNCOVERED: 0
PSCL2 PREFETCHES SAME FILL-ORIGIN LEVEL: 0 DIFFERENT FILL-ORIGIN LEVEL: 0

LLC TOTAL     ACCESS:   28280770  HIT:   11510269  MISS:   16770501  HIT %:       40.7  MISS %:       59.3   MPKI: 83.8525
LLC Test counter:          0
LLC LOAD      ACCESS:   13996979  HIT:    5029247  MISS:    8967732  HIT %:    35.9309  MISS %:    64.0691   MPKI: 44.8387
LLC RFO       ACCESS:      28613  HIT:        301  MISS:      28312  HIT %:    1.05197  MISS %:     98.948   MPKI: 0.14156
LLC PREFETCH  ACCESS:    9554566  HIT:    1843314  MISS:    7711252  HIT %:    19.2925  MISS %:    80.7075   MPKI: 38.5563
LLC WRITEBACK ACCESS:    4435636  HIT:    4435300  MISS:        336  HIT %:    99.9924  MISS %: 0.00757501   MPKI: 0.00168
LLC LOAD TRANSLATION ACCESS:     264976  HIT:     202107  MISS:      62869  HIT %:    76.2737  MISS %:    23.7263   MPKI: 0.314345
LLC PREFETCH  REQUESTED:          0  ISSUED:          0  USEFUL:     584863  USELESS:    7128217
LLC USEFUL LOAD PREFETCHES:     584863 PREFETCH ISSUED TO LOWER LEVEL:    7711254  ACCURACY: 7.58454
LLC TIMELY PREFETCHES:     584863 LATE PREFETCHES: 0 DROPPED PREFETCHES: 0
LLC COMMIT LATE PREFETCHES: 0 MISSED OPPORTUNITY: 0 LATE IN PQ: 0 UNCOVERED: 0
LLC COMMIT LATE MSHR PREFETCHES: 0
LLC MPKI TOTAL: 44.8387 MSHR LATE: 0 PQ LATE: 0 COMMIT LATE: 0 MISSED OPPORTUNITY: 0 UNCOVERED: 0
LLC PREFETCHES SAME FILL-ORIGIN LEVEL: 0 DIFFERENT FILL-ORIGIN LEVEL: 0
LLC AVERAGE MISS LATENCY: 177.849 cycles
LLC AVERAGE MISS LATENCY LOAD: 168.373 cycles
LLC AVERAGE MISS LATENCY PREFETCH: 188.47 cycles
LLC AVERAGE MSHR OCCUPANCY: 1.81482
LLC MSHR FULL: 0
LLC RQ	ACCESS:   14290569	FORWARD:          0	MERGED:          0	TO_CACHE:   14290568
LLC WQ	ACCESS:    4435636	FORWARD:          3	MERGED:          0	TO_CACHE:    4435636
LLC PQ	ACCESS:    9554570	FORWARD:          0	MERGED:          0	TO_CACHE:    9554568

LLC Dense regions hint to LLC: 0
560e8c841ff8: 1
560e8c841ea5: 2
14ce07da763e: 13
14ce07da7672: 14
560e8c840770: 14
560e8c841f25: 162
560e8c841e73: 169
560e8c841e70: 307
14ce07da767f: 1605
560e8c841e7b: 2663
560e8c841ec6: 16872
560e8c841e77: 20956
560e8c841ebf: 21136
560e8c841ed6: 52483
560e8c841eca: 3395918
560e8c841ee2: 5455417

RAW hits: 174271
Loads Generated: 52498946
Loads sent to L1D: 52324675
Stores Generated: 9121059
Stores sent to L1D: 9121061
Major fault: 0 Minor fault: 33138
Allocated PAGES: 33138
Total Load insts: 64457112
Total Non-spec loads: 5654628
Percentage of speculative loads: 91.2273
L1D response latency: 125.726 cycles
Load retirement latency: 221.343 cycles

[Bingo] PHT Access: 11403792
[Bingo] PHT Hit PC+Addr: 349634
[Bingo] PHT Hit PC+Offs: 11051410
[Bingo] PHT Miss: 2748
[Bingo] Prefetch PC+Addr: 0
[Bingo] Prefetch PC+Offs: 0
[Bingo] Useful PC+Addr: 0
[Bingo] Useful PC+Offs: 0
[Bingo] Useless PC+Addr: 0
[Bingo] Useless PC+Offs: 0
[Bingo] L1 Prefetch per Region: 0
[Bingo] L2 Prefetch per Region: 1.90661
[Bingo] L3 Prefetch per Region: 0
[Bingo] No Prefetch per Region: 30.0934
[Bingo] Number of Voters Mean: 15.9886
[Bingo] Number of Voters SD: 6.41236
PHT read accesses: 179743716
PHT write accesses: 3022841
AT read accesses: 6757352
AT write accesses: 9175877
FT read accesses: 9321939
FT write accesses: 11403792
PS read accesses: 22880631
PS write accesses: 11401044
PHT tag read accesses: 275358771
PHT tag write accesses: 3372475
AT tag read accesses: 803029862
AT tag write accesses: 9780185
FT tag read accesses: 1000810027
FT tag write accesses: 17702888
PS tag read accesses: 720960603
PS tag write accesses: 34274480

DRAM Statistics
 CHANNEL 0
 RQ ROW_BUFFER_HIT:    4364128  ROW_BUFFER_MISS:   12405592
 DBUS_CONGESTED:      15182
 WQ ROW_BUFFER_HIT:    2453394  ROW_BUFFER_MISS:    1421931  FULL:          0

 AVG_CONGESTED_CYCLE: 4
 All warmup complete: 2
Channel 0 Bank busy for read cycles: 0
Channel 0 Bank busy for write cycles: 0
Channel 0
Rank 0
0banks busy for read cycles: 58557928
0banks busy for write cycles: 460922
1banks busy for read cycles: 337488400
1banks busy for write cycles: 100269066
2banks busy for read cycles: 251954099
2banks busy for write cycles: 97424336
3banks busy for read cycles: 150828047
3banks busy for write cycles: 70420416
4banks busy for read cycles: 78903314
4banks busy for write cycles: 43832960
5banks busy for read cycles: 35559860
5banks busy for write cycles: 26519167
6banks busy for read cycles: 15618886
6banks busy for write cycles: 17107838
7banks busy for read cycles: 9029802
7banks busy for write cycles: 12544778
8banks busy for read cycles: 16947489
8banks busy for write cycles: 10886133

CPU 0 Branch Prediction Accuracy: 88.9318% MPKI: 21.5679 Average ROB Occupancy at Mispredict: 30.3125
Branch types
NOT_BRANCH: 161026978 80.5135%
BRANCH_DIRECT_JUMP: 251798 0.125899%
BRANCH_INDIRECT: 0 0%
BRANCH_CONDITIONAL: 38720835 19.3604%
BRANCH_DIRECT_CALL: 14 7e-06%
BRANCH_INDIRECT_CALL: 0 0%
BRANCH_RETURN: 14 7e-06%
BRANCH_OTHER: 0 0%

DRAM PAGES: 1048576
Allocated PAGES: 33138
