
*** ChampSim Multicore Out-of-Order Simulator ***

Warmup Instructions: 50000000
Simulation Instructions: 200000000
Number of CPUs: 1
LLC sets: 2048
LLC ways: 16
Secure Berti: OFF
Berti: OFF
Berti Fill: OFF
On commit prefetching: OFF
L2 LLC Bypass speculative loads: OFF
Off-chip DRAM Size: 4096 MB Channels: 1 Width: 64-bit Data Rate: 6400 MT/s
CPU 0 runs /home/sumon/secure_berti/Berti_Baseline/../../traces/gap/bc-5.trace.gz
.gz
BTB has LRU replacement policy
ITLB has LRU replacement policy
DTLB has LRU replacement policy
STLB has LRU replacement policy
L1I has LRU replacement policy
L1D has LRU replacement policy
Bingo PHT WAYS: 16 and PHT_SIZE: 16384
L2C has LRU replacement policy
LLC has LRU replacement policy
Heartbeat CPU 0 instructions: 10000002 cycles: 3534780 heartbeat IPC: 2.82903 cumulative IPC: 2.82903 (Simulation time: 0 hr 0 min 27 sec) 
Heartbeat CPU 0 instructions: 20000001 cycles: 6574808 heartbeat IPC: 3.28944 cumulative IPC: 3.04191 (Simulation time: 0 hr 0 min 50 sec) 
Heartbeat CPU 0 instructions: 30000001 cycles: 9612246 heartbeat IPC: 3.29225 cumulative IPC: 3.12102 (Simulation time: 0 hr 1 min 14 sec) 
Heartbeat CPU 0 instructions: 40000003 cycles: 12639658 heartbeat IPC: 3.30315 cumulative IPC: 3.16464 (Simulation time: 0 hr 1 min 36 sec) 
Heartbeat CPU 0 instructions: 50000000 cycles: 15680875 heartbeat IPC: 3.28816 cumulative IPC: 3.1886 (Simulation time: 0 hr 2 min 0 sec) 

Warmup complete CPU 0 instructions: 50000004 cycles: 15680876 (Simulation time: 0 hr 2 min 0 sec) 

Heartbeat CPU 0 instructions: 60000000 cycles: 58847040 heartbeat IPC: 0.231663 cumulative IPC: 0.231663 (Simulation time: 0 hr 2 min 46 sec) 
Heartbeat CPU 0 instructions: 70000001 cycles: 100457244 heartbeat IPC: 0.240326 cumulative IPC: 0.235915 (Simulation time: 0 hr 3 min 35 sec) 
Heartbeat CPU 0 instructions: 80000003 cycles: 144246272 heartbeat IPC: 0.228368 cumulative IPC: 0.233344 (Simulation time: 0 hr 4 min 24 sec) 
Heartbeat CPU 0 instructions: 90000000 cycles: 187265742 heartbeat IPC: 0.232453 cumulative IPC: 0.233121 (Simulation time: 0 hr 5 min 14 sec) 
Heartbeat CPU 0 instructions: 100000000 cycles: 229242738 heartbeat IPC: 0.238226 cumulative IPC: 0.234124 (Simulation time: 0 hr 6 min 1 sec) 
Heartbeat CPU 0 instructions: 110000000 cycles: 271047579 heartbeat IPC: 0.239207 cumulative IPC: 0.234956 (Simulation time: 0 hr 6 min 48 sec) 
Heartbeat CPU 0 instructions: 120000001 cycles: 313013693 heartbeat IPC: 0.238288 cumulative IPC: 0.235426 (Simulation time: 0 hr 7 min 35 sec) 
Heartbeat CPU 0 instructions: 130000002 cycles: 354193710 heartbeat IPC: 0.242836 cumulative IPC: 0.236328 (Simulation time: 0 hr 8 min 21 sec) 
Heartbeat CPU 0 instructions: 140000002 cycles: 388402346 heartbeat IPC: 0.292324 cumulative IPC: 0.241467 (Simulation time: 0 hr 9 min 4 sec) 
Heartbeat CPU 0 instructions: 150000002 cycles: 415587870 heartbeat IPC: 0.367843 cumulative IPC: 0.250058 (Simulation time: 0 hr 9 min 45 sec) 
Heartbeat CPU 0 instructions: 160000001 cycles: 443024464 heartbeat IPC: 0.364477 cumulative IPC: 0.257404 (Simulation time: 0 hr 10 min 25 sec) 
Heartbeat CPU 0 instructions: 170000001 cycles: 470795236 heartbeat IPC: 0.360091 cumulative IPC: 0.26367 (Simulation time: 0 hr 11 min 6 sec) 
Heartbeat CPU 0 instructions: 180000003 cycles: 498962809 heartbeat IPC: 0.355018 cumulative IPC: 0.268994 (Simulation time: 0 hr 11 min 48 sec) 
Heartbeat CPU 0 instructions: 190000002 cycles: 526876332 heartbeat IPC: 0.358249 cumulative IPC: 0.273868 (Simulation time: 0 hr 12 min 29 sec) 
Heartbeat CPU 0 instructions: 200000002 cycles: 554840325 heartbeat IPC: 0.357603 cumulative IPC: 0.278211 (Simulation time: 0 hr 13 min 10 sec) 
Heartbeat CPU 0 instructions: 210000003 cycles: 582798632 heartbeat IPC: 0.357675 cumulative IPC: 0.282128 (Simulation time: 0 hr 13 min 52 sec) 
Heartbeat CPU 0 instructions: 220000000 cycles: 611727182 heartbeat IPC: 0.345679 cumulative IPC: 0.285213 (Simulation time: 0 hr 14 min 34 sec) 
Heartbeat CPU 0 instructions: 230000002 cycles: 641467655 heartbeat IPC: 0.336242 cumulative IPC: 0.287638 (Simulation time: 0 hr 15 min 18 sec) 
Heartbeat CPU 0 instructions: 240000002 cycles: 671670142 heartbeat IPC: 0.331099 cumulative IPC: 0.289639 (Simulation time: 0 hr 16 min 0 sec) 
Heartbeat CPU 0 instructions: 250000002 cycles: 702418675 heartbeat IPC: 0.325219 cumulative IPC: 0.291232 (Simulation time: 0 hr 16 min 44 sec) 
Finished CPU 0 instructions: 200000002 cycles: 686737800 cumulative IPC: 0.291232 (Simulation time: 0 hr 16 min 44 sec) 

ChampSim completed all CPUs

Region of Interest Statistics

CPU 0 cumulative IPC: 0.291232 instructions: 200000002 cycles: 686737800
ITLB TOTAL     ACCESS:   33986121  HIT:   33986121  MISS:          0  HIT %:        100  MISS %:          0   MPKI: 0
ITLB Test counter:          0
ITLB LOAD TRANSLATION ACCESS:   33986121  HIT:   33986121  MISS:          0  HIT %:        100  MISS %:          0   MPKI: 0
ITLB PREFETCH  REQUESTED:          0  ISSUED:          0  USEFUL:          0  USELESS:          0
ITLB USEFUL LOAD PREFETCHES:          0 PREFETCH ISSUED TO LOWER LEVEL:          0  ACCURACY: -nan
ITLB TIMELY PREFETCHES:          0 LATE PREFETCHES: 0 DROPPED PREFETCHES: 0
ITLB COMMIT LATE PREFETCHES: 0 MISSED OPPORTUNITY: 0 LATE IN PQ: 0 UNCOVERED: 0
ITLB COMMIT LATE MSHR PREFETCHES: 0
ITLB MPKI TOTAL: 0 MSHR LATE: 0 PQ LATE: 0 COMMIT LATE: 0 MISSED OPPORTUNITY: 0 UNCOVERED: 0
ITLB PREFETCHES SAME FILL-ORIGIN LEVEL: 0 DIFFERENT FILL-ORIGIN LEVEL: 0
ITLB AVERAGE MISS LATENCY: -nan cycles
ITLB AVERAGE MISS LATENCY LOAD: -nan cycles
ITLB AVERAGE MISS LATENCY PREFETCH: -nan cycles
ITLB AVERAGE MSHR OCCUPANCY: 0
ITLB MSHR FULL: 0
ITLB RQ	ACCESS:   34296061	FORWARD:          0	MERGED:     309940	TO_CACHE:   33986121

DTLB TOTAL     ACCESS:   37129457  HIT:   28939879  MISS:    8189578  HIT %:    77.9432  MISS %:    22.0568   MPKI: 40.9479
DTLB Test counter:          0
DTLB LOAD TRANSLATION ACCESS:   37129457  HIT:   28939879  MISS:    8189578  HIT %:    77.9432  MISS %:    22.0568   MPKI: 40.9479
DTLB PREFETCH  REQUESTED:          0  ISSUED:          0  USEFUL:          0  USELESS:          0
DTLB USEFUL LOAD PREFETCHES:          0 PREFETCH ISSUED TO LOWER LEVEL:          0  ACCURACY: -nan
DTLB TIMELY PREFETCHES:          0 LATE PREFETCHES: 0 DROPPED PREFETCHES: 0
DTLB COMMIT LATE PREFETCHES: 0 MISSED OPPORTUNITY: 0 LATE IN PQ: 0 UNCOVERED: 0
DTLB COMMIT LATE MSHR PREFETCHES: 0
DTLB MPKI TOTAL: 0 MSHR LATE: 0 PQ LATE: 0 COMMIT LATE: 0 MISSED OPPORTUNITY: 0 UNCOVERED: 0
DTLB PREFETCHES SAME FILL-ORIGIN LEVEL: 0 DIFFERENT FILL-ORIGIN LEVEL: 0
DTLB AVERAGE MISS LATENCY: 17 cycles
DTLB AVERAGE MISS LATENCY LOAD: -nan cycles
DTLB AVERAGE MISS LATENCY PREFETCH: -nan cycles
DTLB AVERAGE MSHR OCCUPANCY: 0.551636
DTLB MSHR FULL: 0.0175579
DTLB RQ	ACCESS:   41311525	FORWARD:          0	MERGED:    3559973	TO_CACHE:   37751552

STLB TOTAL     ACCESS:    8189577  HIT:    6792358  MISS:    1397219  HIT %:    82.9391  MISS %:    17.0609   MPKI: 6.98609
STLB Test counter:          0
STLB LOAD TRANSLATION ACCESS:    8189577  HIT:    6792358  MISS:    1397219  HIT %:    82.9391  MISS %:    17.0609   MPKI: 6.98609
STLB PREFETCH  REQUESTED:          0  ISSUED:          0  USEFUL:          0  USELESS:          0
STLB USEFUL LOAD PREFETCHES:          0 PREFETCH ISSUED TO LOWER LEVEL:          0  ACCURACY: -nan
STLB TIMELY PREFETCHES:          0 LATE PREFETCHES: 0 DROPPED PREFETCHES: 0
STLB COMMIT LATE PREFETCHES: 0 MISSED OPPORTUNITY: 0 LATE IN PQ: 0 UNCOVERED: 0
STLB COMMIT LATE MSHR PREFETCHES: 0
STLB MPKI TOTAL: 0 MSHR LATE: 0 PQ LATE: 0 COMMIT LATE: 0 MISSED OPPORTUNITY: 0 UNCOVERED: 0
STLB PREFETCHES SAME FILL-ORIGIN LEVEL: 0 DIFFERENT FILL-ORIGIN LEVEL: 0
STLB AVERAGE MISS LATENCY: 44.5105 cycles
STLB AVERAGE MISS LATENCY LOAD: -nan cycles
STLB AVERAGE MISS LATENCY PREFETCH: -nan cycles
STLB AVERAGE MSHR OCCUPANCY: 0.144154
STLB MSHR FULL: 0
STLB RQ	ACCESS:    8189577	FORWARD:          0	MERGED:          0	TO_CACHE:    8189577

STLB Hit, L1D data hit: 0
STLB Hit, L2C data hit: 0
STLB Hit, LLC data hit: 0
STLB Hit, LLC data miss: 0
STLB STLB hints to L2: 0
L1D TOTAL     ACCESS:   40843185  HIT:   23299038  MISS:   17544147  HIT %:    57.0451  MISS %:    42.9549   MPKI: 87.7207
L1D Test counter:          0
L1D LOAD      ACCESS:   34208056  HIT:   16697955  MISS:   17928220  HIT %:    48.8129  MISS %:    51.1871   MPKI: 87.5505
L1D RFO       ACCESS:    6635129  HIT:    6601083  MISS:      34046  HIT %:    99.4869  MISS %:   0.513117   MPKI: 0.17023
L1D PREFETCH  REQUESTED:          0  ISSUED:          0  USEFUL:          0  USELESS:          0
L1D USEFUL LOAD PREFETCHES:          0 PREFETCH ISSUED TO LOWER LEVEL:          0  ACCURACY: -nan
L1D TIMELY PREFETCHES:          0 LATE PREFETCHES: 0 DROPPED PREFETCHES: 0
L1D COMMIT LATE PREFETCHES: 0 MISSED OPPORTUNITY: 0 LATE IN PQ: 0 UNCOVERED: 0
L1D COMMIT LATE MSHR PREFETCHES: 0
L1D MPKI TOTAL: 89.6411 MSHR LATE: 0 PQ LATE: 0 COMMIT LATE: 0 MISSED OPPORTUNITY: 0 UNCOVERED: 0
L1D PREFETCHES SAME FILL-ORIGIN LEVEL: 0 DIFFERENT FILL-ORIGIN LEVEL: 0
L1D AVERAGE MISS LATENCY: 125.704 cycles
L1D AVERAGE MISS LATENCY LOAD: 125.364 cycles
L1D AVERAGE MISS LATENCY PREFETCH: -nan cycles
L1D AVERAGE MSHR OCCUPANCY: 3.18698
L1D MSHR FULL: 0.0149802
L1D RQ	ACCESS:   47023640	FORWARD:          0	MERGED:   12261952	TO_CACHE:   34626170
L1D WQ	ACCESS:    7505182	FORWARD:     135518	MERGED:     819827	TO_CACHE:    6685355

L1D UNIQUE REGIONS ACCESSED: 0
L1D REGIONS CONFLICTS: 0
L1D Cross Page Prefetch Requests: 0
L1D Same Page Prefetch Requests: 0
L1D ROI Sum of L1D PQ occupancy: 0
L1D PREFETCHES PUSHED FROM L2C: 0
14ff0170620e: 1
14ff0172a47a: 1
14ff0209fb30: 1
14ff01706207: 1
14ff017060cf: 1
14ff01706076: 1
55a0b2943600: 1
55a0b2944e19: 1
55a0b2944f80: 1
14ff0170607d: 1
14ff017060af: 1
55a0b2944ea0: 1
14ff017060c1: 1
14ff017061f4: 1
14ff020a03f0: 1
14ff01706961: 1
14ff0172a477: 1
55a0b29435d0: 1
14ff01706978: 1
55a0b294720e: 1
55a0b2944f20: 2
55a0b2944efb: 9
55a0b2944ff8: 11
55a0b2944ec3: 14
14ff0172a6c3: 16
55a0b2944f15: 16
55a0b2944f0a: 16
55a0b294503f: 16
55a0b2945049: 16
14ff0172a672: 17
14ff0172a63e: 17
55a0b2943770: 18
55a0b2944ea5: 24
55a0b2944e7b: 2865
55a0b2944f25: 5337
55a0b2944e73: 5611
55a0b2944e70: 6562
14ff0172a67f: 7154
14ff0172a68a: 9592
55a0b2944ec6: 18293
55a0b2944e77: 23452
55a0b2944ebf: 41566
55a0b2944ed6: 882540
55a0b2944eca: 3272306
55a0b2944ee2: 13234611
L1I TOTAL     ACCESS:   34296060  HIT:   34296060  MISS:          0  HIT %:        100  MISS %:          0   MPKI: 0
L1I Test counter:          0
L1I LOAD      ACCESS:   34296060  HIT:   34296060  MISS:          0  HIT %:        100  MISS %:          0   MPKI: 0
L1I PREFETCH  REQUESTED:          0  ISSUED:          0  USEFUL:          0  USELESS:          0
L1I USEFUL LOAD PREFETCHES:          0 PREFETCH ISSUED TO LOWER LEVEL:          0  ACCURACY: -nan
L1I TIMELY PREFETCHES:          0 LATE PREFETCHES: 0 DROPPED PREFETCHES: 0
L1I COMMIT LATE PREFETCHES: 0 MISSED OPPORTUNITY: 0 LATE IN PQ: 0 UNCOVERED: 0
L1I COMMIT LATE MSHR PREFETCHES: 0
L1I MPKI TOTAL: 0 MSHR LATE: 0 PQ LATE: 0 COMMIT LATE: 0 MISSED OPPORTUNITY: 0 UNCOVERED: 0
L1I PREFETCHES SAME FILL-ORIGIN LEVEL: 0 DIFFERENT FILL-ORIGIN LEVEL: 0
L1I AVERAGE MISS LATENCY: -nan cycles
L1I AVERAGE MISS LATENCY LOAD: -nan cycles
L1I AVERAGE MISS LATENCY PREFETCH: -nan cycles
L1I AVERAGE MSHR OCCUPANCY: 0
L1I MSHR FULL: 0
L1I RQ	ACCESS:   54233719	FORWARD:          0	MERGED:   19937658	TO_CACHE:   34296061

BTB TOTAL     ACCESS:   41913134  HIT:   41913092  MISS:         42  HIT %:    99.9999  MISS %: 0.000100207   MPKI: 0.00021
BTB Test counter:          0
BTB BRANCH_DIRECT_JUMP	ACCESS:     294369  HIT:     294357  MISS:         12
BTB BRANCH_INDIRECT	ACCESS:          0  HIT:          0  MISS:          0
BTB BRANCH_CONDITIONAL	ACCESS:   41618721  HIT:   41618706  MISS:         15
BTB BRANCH_DIRECT_CALL	ACCESS:         22  HIT:         15  MISS:          7
BTB BRANCH_INDIRECT_CALL	ACCESS:          0  HIT:          0  MISS:          0
BTB BRANCH_RETURN	ACCESS:         22  HIT:         14  MISS:          8
BTB BRANCH_OTHER ACCESS:          0  HIT:          0  MISS:          0

L2C TOTAL     ACCESS:   32563480  HIT:    9794234  MISS:   22769246  HIT %:    30.0774  MISS %:    69.9226   MPKI: 113.846
L2C Test counter:          0
L2C LOAD      ACCESS:   17510100  HIT:    4204048  MISS:   13306052  HIT %:    24.0093  MISS %:    75.9907   MPKI: 66.5303
L2C DATA LOAD MPKI: 66.5303
L2C INSTRUCTION LOAD MPKI: 0
L2C RFO       ACCESS:      34046  HIT:        397  MISS:      33649  HIT %:    1.16607  MISS %:    98.8339   MPKI: 0.168245
L2C PREFETCH  ACCESS:   10002061  HIT:     786467  MISS:    9215594  HIT %:    7.86305  MISS %:     92.137   MPKI: 46.078
L2C DATA PREFETCH MPKI: 46.078
L2C INSTRUCTION PREFETCH MPKI: 0
L2C WRITEBACK ACCESS:    3618341  HIT:    3615468  MISS:       2873  HIT %:    99.9206  MISS %:   0.079401   MPKI: 0.014365
L2C LOAD TRANSLATION ACCESS:    1398932  HIT:    1187854  MISS:     211078  HIT %:    84.9115  MISS %:    15.0885   MPKI: 1.05539
L2C PREFETCH  REQUESTED:   10369102  ISSUED:   10369102  USEFUL:    1507117  USELESS:    7709083
L2C USEFUL LOAD PREFETCHES:    1507117 PREFETCH ISSUED TO LOWER LEVEL:    9442550  ACCURACY: 15.9609
L2C TIMELY PREFETCHES:    1507117 LATE PREFETCHES: 226946 DROPPED PREFETCHES: 0
L2C COMMIT LATE PREFETCHES: 0 MISSED OPPORTUNITY: 0 LATE IN PQ: 0 UNCOVERED: 0
L2C COMMIT LATE MSHR PREFETCHES: 0
L2C MPKI TOTAL: 66.5303 MSHR LATE: 1.13473 PQ LATE: 0 COMMIT LATE: 0 MISSED OPPORTUNITY: 0 UNCOVERED: 0
L2C PREFETCHES SAME FILL-ORIGIN LEVEL: 9442550 DIFFERENT FILL-ORIGIN LEVEL: 0
L2C AVERAGE MISS LATENCY: 177.242 cycles
L2C AVERAGE MISS LATENCY LOAD: 144.884 cycles
L2C AVERAGE MISS LATENCY PREFETCH: 225.577 cycles
L2C AVERAGE MSHR OCCUPANCY: 5.76753
L2C MSHR FULL: 0.0203337
L2C RQ	ACCESS:   18943079	FORWARD:          0	MERGED:          0	TO_CACHE:   18943078
L2C WQ	ACCESS:    3618341	FORWARD:          2	MERGED:          0	TO_CACHE:    3618341
L2C PQ	ACCESS:   10369102	FORWARD:          0	MERGED:          4	TO_CACHE:   10369097

L2C Instructions Evicting Data 0
L2C Translations Evicting Data 209045
L2C Data Evicting Data 22346168
L2C Instructions Evicting Instructions 0
L2C Translations Evicting Instructions 0
L2C Data Evicting Instructions 0
L2C Instructions Evicting Translations 0
L2C Translations Evicting Translations 2033
L2C Data Evicting Translations 209127
L2C Dense regions hint from L2: 0
55a0b2943600: 1
14ff01706978: 1
14ff017061f4: 1
14ff01706961: 1
55a0b294720e: 1
14ff020a03f0: 1
14ff017060c1: 1
14ff0170620e: 1
55a0b2944e19: 1
14ff0209fb30: 1
14ff01706076: 1
14ff0172a477: 1
14ff0170607d: 1
14ff017060cf: 1
14ff01706207: 1
14ff0172a47a: 1
55a0b29435d0: 1
55a0b2944ec3: 3
55a0b2944ff8: 6
55a0b2943770: 17
14ff0172a672: 17
14ff0172a63e: 17
55a0b2944ea5: 22
55a0b2944f25: 512
55a0b2944e73: 668
55a0b2944e70: 992
55a0b2944e7b: 2773
14ff0172a67f: 3024
14ff0172a68a: 3854
55a0b2944ec6: 17415
55a0b2944ebf: 19258
55a0b2944e77: 22711
55a0b2944ed6: 63481
55a0b2944eca: 2943223
55a0b2944ee2: 10228042
PSCL5 TOTAL     ACCESS:    1397219  HIT:    1397219  MISS:          0  HIT %:        100  MISS %:          0   MPKI: 0
PSCL5 Test counter:          0
PSCL5 LOAD TRANSLATION ACCESS:    1397219  HIT:    1397219  MISS:          0  HIT %:        100  MISS %:          0   MPKI: 0
PSCL5 PREFETCH  REQUESTED:          0  ISSUED:          0  USEFUL:          0  USELESS:          0
PSCL5 USEFUL LOAD PREFETCHES:          0 PREFETCH ISSUED TO LOWER LEVEL:          0  ACCURACY: -nan
PSCL5 TIMELY PREFETCHES:          0 LATE PREFETCHES: 0 DROPPED PREFETCHES: 0
PSCL5 COMMIT LATE PREFETCHES: 0 MISSED OPPORTUNITY: 0 LATE IN PQ: 0 UNCOVERED: 0
PSCL5 COMMIT LATE MSHR PREFETCHES: 0
PSCL5 MPKI TOTAL: 0 MSHR LATE: 0 PQ LATE: 0 COMMIT LATE: 0 MISSED OPPORTUNITY: 0 UNCOVERED: 0
PSCL5 PREFETCHES SAME FILL-ORIGIN LEVEL: 0 DIFFERENT FILL-ORIGIN LEVEL: 0

PSCL4 TOTAL     ACCESS:    1397219  HIT:    1397219  MISS:          0  HIT %:        100  MISS %:          0   MPKI: 0
PSCL4 Test counter:          0
PSCL4 LOAD TRANSLATION ACCESS:    1397219  HIT:    1397219  MISS:          0  HIT %:        100  MISS %:          0   MPKI: 0
PSCL4 PREFETCH  REQUESTED:          0  ISSUED:          0  USEFUL:          0  USELESS:          0
PSCL4 USEFUL LOAD PREFETCHES:          0 PREFETCH ISSUED TO LOWER LEVEL:          0  ACCURACY: -nan
PSCL4 TIMELY PREFETCHES:          0 LATE PREFETCHES: 0 DROPPED PREFETCHES: 0
PSCL4 COMMIT LATE PREFETCHES: 0 MISSED OPPORTUNITY: 0 LATE IN PQ: 0 UNCOVERED: 0
PSCL4 COMMIT LATE MSHR PREFETCHES: 0
PSCL4 MPKI TOTAL: 0 MSHR LATE: 0 PQ LATE: 0 COMMIT LATE: 0 MISSED OPPORTUNITY: 0 UNCOVERED: 0
PSCL4 PREFETCHES SAME FILL-ORIGIN LEVEL: 0 DIFFERENT FILL-ORIGIN LEVEL: 0

PSCL3 TOTAL     ACCESS:    1397219  HIT:    1397219  MISS:          0  HIT %:        100  MISS %:          0   MPKI: 0
PSCL3 Test counter:          0
PSCL3 LOAD TRANSLATION ACCESS:    1397219  HIT:    1397219  MISS:          0  HIT %:        100  MISS %:          0   MPKI: 0
PSCL3 PREFETCH  REQUESTED:          0  ISSUED:          0  USEFUL:          0  USELESS:          0
PSCL3 USEFUL LOAD PREFETCHES:          0 PREFETCH ISSUED TO LOWER LEVEL:          0  ACCURACY: -nan
PSCL3 TIMELY PREFETCHES:          0 LATE PREFETCHES: 0 DROPPED PREFETCHES: 0
PSCL3 COMMIT LATE PREFETCHES: 0 MISSED OPPORTUNITY: 0 LATE IN PQ: 0 UNCOVERED: 0
PSCL3 COMMIT LATE MSHR PREFETCHES: 0
PSCL3 MPKI TOTAL: 0 MSHR LATE: 0 PQ LATE: 0 COMMIT LATE: 0 MISSED OPPORTUNITY: 0 UNCOVERED: 0
PSCL3 PREFETCHES SAME FILL-ORIGIN LEVEL: 0 DIFFERENT FILL-ORIGIN LEVEL: 0

PSCL2 TOTAL     ACCESS:    1397219  HIT:    1395468  MISS:       1751  HIT %:    99.8747  MISS %:    0.12532   MPKI: 0.008755
PSCL2 Test counter:          0
PSCL2 LOAD TRANSLATION ACCESS:    1397219  HIT:    1395468  MISS:       1751  HIT %:    99.8747  MISS %:    0.12532   MPKI: 0.008755
PSCL2 PREFETCH  REQUESTED:          0  ISSUED:          0  USEFUL:          0  USELESS:          0
PSCL2 USEFUL LOAD PREFETCHES:          0 PREFETCH ISSUED TO LOWER LEVEL:          0  ACCURACY: -nan
PSCL2 TIMELY PREFETCHES:          0 LATE PREFETCHES: 0 DROPPED PREFETCHES: 0
PSCL2 COMMIT LATE PREFETCHES: 0 MISSED OPPORTUNITY: 0 LATE IN PQ: 0 UNCOVERED: 0
PSCL2 COMMIT LATE MSHR PREFETCHES: 0
PSCL2 MPKI TOTAL: 0 MSHR LATE: 0 PQ LATE: 0 COMMIT LATE: 0 MISSED OPPORTUNITY: 0 UNCOVERED: 0
PSCL2 PREFETCHES SAME FILL-ORIGIN LEVEL: 0 DIFFERENT FILL-ORIGIN LEVEL: 0

LLC TOTAL     ACCESS:   26262648  HIT:   11137906  MISS:   15124742  HIT %:    42.4097  MISS %:    57.5903   MPKI: 75.6237
LLC Test counter:          0
LLC LOAD      ACCESS:   13079111  HIT:    5634082  MISS:    7445029  HIT %:    43.0769  MISS %:    56.9231   MPKI: 37.2251
LLC RFO       ACCESS:      33631  HIT:        470  MISS:      33161  HIT %:    1.39752  MISS %:    98.6025   MPKI: 0.165805
LLC PREFETCH  ACCESS:    9442534  HIT:    1854070  MISS:    7588464  HIT %:    19.6353  MISS %:    80.3647   MPKI: 37.9423
LLC WRITEBACK ACCESS:    3496294  HIT:    3495900  MISS:        394  HIT %:    99.9887  MISS %:  0.0112691   MPKI: 0.00197
LLC LOAD TRANSLATION ACCESS:     211078  HIT:     153384  MISS:      57694  HIT %:     72.667  MISS %:     27.333   MPKI: 0.28847
LLC PREFETCH  REQUESTED:          0  ISSUED:          0  USEFUL:     611327  USELESS:    6981711
LLC USEFUL LOAD PREFETCHES:     611327 PREFETCH ISSUED TO LOWER LEVEL:    7588474  ACCURACY: 8.05599
LLC TIMELY PREFETCHES:     611327 LATE PREFETCHES: 0 DROPPED PREFETCHES: 0
LLC COMMIT LATE PREFETCHES: 0 MISSED OPPORTUNITY: 0 LATE IN PQ: 0 UNCOVERED: 0
LLC COMMIT LATE MSHR PREFETCHES: 0
LLC MPKI TOTAL: 37.2251 MSHR LATE: 0 PQ LATE: 0 COMMIT LATE: 0 MISSED OPPORTUNITY: 0 UNCOVERED: 0
LLC PREFETCHES SAME FILL-ORIGIN LEVEL: 0 DIFFERENT FILL-ORIGIN LEVEL: 0
LLC AVERAGE MISS LATENCY: 223.273 cycles
LLC AVERAGE MISS LATENCY LOAD: 199.833 cycles
LLC AVERAGE MISS LATENCY PREFETCH: 246.108 cycles
LLC AVERAGE MSHR OCCUPANCY: 3.85213
LLC MSHR FULL: 0
LLC RQ	ACCESS:   13323833	FORWARD:          0	MERGED:          0	TO_CACHE:   13323820
LLC WQ	ACCESS:    3496294	FORWARD:         19	MERGED:          0	TO_CACHE:    3496294
LLC PQ	ACCESS:    9442550	FORWARD:          0	MERGED:          0	TO_CACHE:    9442544

LLC Dense regions hint to LLC: 0
55a0b2943600: 1
14ff01706961: 1
14ff0170620e: 1
14ff017060c1: 1
55a0b294720e: 1
14ff017061f4: 1
14ff01706978: 1
14ff020a03f0: 1
55a0b2944e19: 1
14ff0209fb30: 1
14ff01706076: 1
14ff0172a477: 1
14ff0170607d: 1
14ff017060cf: 1
14ff01706207: 1
14ff0172a47a: 1
55a0b29435d0: 1
55a0b2944ff8: 2
55a0b2944ec3: 3
14ff0172a63e: 15
14ff0172a672: 17
55a0b2943770: 17
55a0b2944ea5: 19
55a0b2944f25: 149
55a0b2944e73: 241
55a0b2944e70: 466
14ff0172a67f: 942
14ff0172a68a: 1135
55a0b2944e7b: 2773
55a0b2944ec6: 16791
55a0b2944ebf: 19198
55a0b2944e77: 22688
55a0b2944ed6: 63270
55a0b2944eca: 2159962
55a0b2944ee2: 5157324

RAW hits: 2453281
Loads Generated: 49476925
Loads sent to L1D: 47023640
Stores Generated: 7505174
Stores sent to L1D: 7505182
Major fault: 0 Minor fault: 33326
Allocated PAGES: 33326
Total Load insts: 60848715
Total Non-spec loads: 2194860
Percentage of speculative loads: 96.3929
L1D response latency: 125.364 cycles
Load retirement latency: 258.808 cycles

[Bingo] PHT Access: 10098588
[Bingo] PHT Hit PC+Addr: 349022
[Bingo] PHT Hit PC+Offs: 9746351
[Bingo] PHT Miss: 3215
[Bingo] Prefetch PC+Addr: 0
[Bingo] Prefetch PC+Offs: 0
[Bingo] Useful PC+Addr: 0
[Bingo] Useful PC+Offs: 0
[Bingo] Useless PC+Addr: 0
[Bingo] Useless PC+Offs: 0
[Bingo] L1 Prefetch per Region: 0
[Bingo] L2 Prefetch per Region: 2.04565
[Bingo] L3 Prefetch per Region: 0
[Bingo] No Prefetch per Region: 29.9544
[Bingo] Number of Voters Mean: 15.9843
[Bingo] Number of Voters SD: 6.40947
PHT read accesses: 158817967
PHT write accesses: 3262463
AT read accesses: 8045331
AT write accesses: 10673959
FT read accesses: 10098479
FT write accesses: 10098588
PS read accesses: 20380653
PS write accesses: 10095373
PHT tag read accesses: 261944443
PHT tag write accesses: 3611485
AT tag read accesses: 796276562
AT tag write accesses: 11307795
FT tag read accesses: 924536673
FT tag write accesses: 16934586
PS tag read accesses: 654068300
PS tag write accesses: 30454053

DRAM Statistics
 CHANNEL 0
 RQ ROW_BUFFER_HIT:    5345965  ROW_BUFFER_MISS:    9776341
 DBUS_CONGESTED:       9307
 WQ ROW_BUFFER_HIT:    1002456  ROW_BUFFER_MISS:    1872525  FULL:          0

 AVG_CONGESTED_CYCLE: 4
 All warmup complete: 2
Channel 0 Bank busy for read cycles: 0
Channel 0 Bank busy for write cycles: 0
Channel 0
Rank 0
0banks busy for read cycles: 16589907
0banks busy for write cycles: 74138
1banks busy for read cycles: 119400862
1banks busy for write cycles: 19753184
2banks busy for read cycles: 100978368
2banks busy for write cycles: 17386168
3banks busy for read cycles: 85085947
3banks busy for write cycles: 13317969
4banks busy for read cycles: 68571187
4banks busy for write cycles: 10107744
5banks busy for read cycles: 50687790
5banks busy for write cycles: 8783650
6banks busy for read cycles: 34779421
6banks busy for write cycles: 10511928
7banks busy for read cycles: 25271563
7banks busy for write cycles: 20898060
8banks busy for read cycles: 32596831
8banks busy for write cycles: 51943084

CPU 0 Branch Prediction Accuracy: 97.9623% MPKI: 4.27319 Average ROB Occupancy at Mispredict: 141.586
Branch types
NOT_BRANCH: 158057974 79.029%
BRANCH_DIRECT_JUMP: 294369 0.147184%
BRANCH_INDIRECT: 0 0%
BRANCH_CONDITIONAL: 41647479 20.8237%
BRANCH_DIRECT_CALL: 22 1.1e-05%
BRANCH_INDIRECT_CALL: 0 0%
BRANCH_RETURN: 22 1.1e-05%
BRANCH_OTHER: 0 0%

DRAM PAGES: 1048576
Allocated PAGES: 33326
