
*** ChampSim Multicore Out-of-Order Simulator ***

Warmup Instructions: 50000000
Simulation Instructions: 200000000
Number of CPUs: 1
LLC sets: 2048
LLC ways: 16
Secure Berti: OFF
Berti: OFF
Berti Fill: OFF
On commit prefetching: OFF
L2 LLC Bypass speculative loads: OFF
Off-chip DRAM Size: 4096 MB Channels: 1 Width: 64-bit Data Rate: 6400 MT/s
CPU 0 runs /home/sumon/secure_berti/Berti_Baseline/../../traces/gap/bfs-10.trace.gz
.gz
BTB has LRU replacement policy
ITLB has LRU replacement policy
DTLB has LRU replacement policy
STLB has LRU replacement policy
L1I has LRU replacement policy
L1D has LRU replacement policy
Bingo PHT WAYS: 16 and PHT_SIZE: 16384
L2C has LRU replacement policy
LLC has LRU replacement policy
Heartbeat CPU 0 instructions: 10000000 cycles: 2972374 heartbeat IPC: 3.36431 cumulative IPC: 3.36431 (Simulation time: 0 hr 0 min 8 sec) 
Heartbeat CPU 0 instructions: 20000003 cycles: 5918482 heartbeat IPC: 3.39431 cumulative IPC: 3.37925 (Simulation time: 0 hr 0 min 18 sec) 
Heartbeat CPU 0 instructions: 30000003 cycles: 8850580 heartbeat IPC: 3.41053 cumulative IPC: 3.38961 (Simulation time: 0 hr 0 min 28 sec) 
Heartbeat CPU 0 instructions: 40000000 cycles: 11783068 heartbeat IPC: 3.41007 cumulative IPC: 3.3947 (Simulation time: 0 hr 0 min 37 sec) 
Heartbeat CPU 0 instructions: 50000001 cycles: 14714099 heartbeat IPC: 3.41177 cumulative IPC: 3.3981 (Simulation time: 0 hr 0 min 47 sec) 

Warmup complete CPU 0 instructions: 50000001 cycles: 14714099 (Simulation time: 0 hr 0 min 47 sec) 

Heartbeat CPU 0 instructions: 60000001 cycles: 49700526 heartbeat IPC: 0.285825 cumulative IPC: 0.285825 (Simulation time: 0 hr 1 min 9 sec) 
Heartbeat CPU 0 instructions: 70000003 cycles: 90675047 heartbeat IPC: 0.244054 cumulative IPC: 0.263293 (Simulation time: 0 hr 1 min 34 sec) 
Heartbeat CPU 0 instructions: 80000002 cycles: 123456011 heartbeat IPC: 0.305055 cumulative IPC: 0.275883 (Simulation time: 0 hr 1 min 55 sec) 
Heartbeat CPU 0 instructions: 90000000 cycles: 137865764 heartbeat IPC: 0.693974 cumulative IPC: 0.324803 (Simulation time: 0 hr 2 min 10 sec) 
Heartbeat CPU 0 instructions: 100000000 cycles: 156290045 heartbeat IPC: 0.542762 cumulative IPC: 0.353167 (Simulation time: 0 hr 2 min 28 sec) 
Heartbeat CPU 0 instructions: 110000000 cycles: 185270501 heartbeat IPC: 0.34506 cumulative IPC: 0.35179 (Simulation time: 0 hr 2 min 49 sec) 
Heartbeat CPU 0 instructions: 120000000 cycles: 225575547 heartbeat IPC: 0.248108 cumulative IPC: 0.331972 (Simulation time: 0 hr 3 min 12 sec) 
Heartbeat CPU 0 instructions: 130000002 cycles: 265803855 heartbeat IPC: 0.248581 cumulative IPC: 0.318611 (Simulation time: 0 hr 3 min 34 sec) 
Heartbeat CPU 0 instructions: 140000001 cycles: 308291859 heartbeat IPC: 0.235361 cumulative IPC: 0.306563 (Simulation time: 0 hr 3 min 57 sec) 
Heartbeat CPU 0 instructions: 150000003 cycles: 352870350 heartbeat IPC: 0.224323 cumulative IPC: 0.295721 (Simulation time: 0 hr 4 min 21 sec) 
Heartbeat CPU 0 instructions: 160000001 cycles: 379864917 heartbeat IPC: 0.370445 cumulative IPC: 0.301245 (Simulation time: 0 hr 4 min 40 sec) 
Heartbeat CPU 0 instructions: 170000001 cycles: 393491876 heartbeat IPC: 0.733839 cumulative IPC: 0.316808 (Simulation time: 0 hr 4 min 56 sec) 
Heartbeat CPU 0 instructions: 180000000 cycles: 414245581 heartbeat IPC: 0.481842 cumulative IPC: 0.325381 (Simulation time: 0 hr 5 min 14 sec) 
Heartbeat CPU 0 instructions: 190000000 cycles: 446938848 heartbeat IPC: 0.305873 cumulative IPC: 0.323906 (Simulation time: 0 hr 5 min 36 sec) 
Heartbeat CPU 0 instructions: 200000000 cycles: 487004577 heartbeat IPC: 0.24959 cumulative IPC: 0.317601 (Simulation time: 0 hr 5 min 59 sec) 
Heartbeat CPU 0 instructions: 210000003 cycles: 527010673 heartbeat IPC: 0.249962 cumulative IPC: 0.312319 (Simulation time: 0 hr 6 min 21 sec) 
Heartbeat CPU 0 instructions: 220000000 cycles: 571070431 heartbeat IPC: 0.226964 cumulative IPC: 0.30556 (Simulation time: 0 hr 6 min 45 sec) 
Heartbeat CPU 0 instructions: 230000000 cycles: 611401966 heartbeat IPC: 0.247945 cumulative IPC: 0.301665 (Simulation time: 0 hr 7 min 8 sec) 
Heartbeat CPU 0 instructions: 240000002 cycles: 634050164 heartbeat IPC: 0.441536 cumulative IPC: 0.30678 (Simulation time: 0 hr 7 min 25 sec) 
Heartbeat CPU 0 instructions: 250000001 cycles: 648111746 heartbeat IPC: 0.711157 cumulative IPC: 0.315757 (Simulation time: 0 hr 7 min 41 sec) 
Finished CPU 0 instructions: 200000000 cycles: 633397647 cumulative IPC: 0.315757 (Simulation time: 0 hr 7 min 41 sec) 

ChampSim completed all CPUs

Region of Interest Statistics

CPU 0 cumulative IPC: 0.315757 instructions: 200000000 cycles: 633397647
ITLB TOTAL     ACCESS:   33485170  HIT:   33485170  MISS:          0  HIT %:        100  MISS %:          0   MPKI: 0
ITLB Test counter:          0
ITLB LOAD TRANSLATION ACCESS:   33485170  HIT:   33485170  MISS:          0  HIT %:        100  MISS %:          0   MPKI: 0
ITLB PREFETCH  REQUESTED:          0  ISSUED:          0  USEFUL:          0  USELESS:          0
ITLB USEFUL LOAD PREFETCHES:          0 PREFETCH ISSUED TO LOWER LEVEL:          0  ACCURACY: -nan
ITLB TIMELY PREFETCHES:          0 LATE PREFETCHES: 0 DROPPED PREFETCHES: 0
ITLB COMMIT LATE PREFETCHES: 0 MISSED OPPORTUNITY: 0 LATE IN PQ: 0 UNCOVERED: 0
ITLB COMMIT LATE MSHR PREFETCHES: 0
ITLB MPKI TOTAL: 0 MSHR LATE: 0 PQ LATE: 0 COMMIT LATE: 0 MISSED OPPORTUNITY: 0 UNCOVERED: 0
ITLB PREFETCHES SAME FILL-ORIGIN LEVEL: 0 DIFFERENT FILL-ORIGIN LEVEL: 0
ITLB AVERAGE MISS LATENCY: -nan cycles
ITLB AVERAGE MISS LATENCY LOAD: -nan cycles
ITLB AVERAGE MISS LATENCY PREFETCH: -nan cycles
ITLB AVERAGE MSHR OCCUPANCY: 0
ITLB MSHR FULL: 0
ITLB RQ	ACCESS:   42012511	FORWARD:          0	MERGED:    8527340	TO_CACHE:   33485171

DTLB TOTAL     ACCESS:   38646037  HIT:   38455881  MISS:     190156  HIT %:     99.508  MISS %:   0.492045   MPKI: 0.95078
DTLB Test counter:          0
DTLB LOAD TRANSLATION ACCESS:   38646037  HIT:   38455881  MISS:     190156  HIT %:     99.508  MISS %:   0.492045   MPKI: 0.95078
DTLB PREFETCH  REQUESTED:          0  ISSUED:          0  USEFUL:          0  USELESS:          0
DTLB USEFUL LOAD PREFETCHES:          0 PREFETCH ISSUED TO LOWER LEVEL:          0  ACCURACY: -nan
DTLB TIMELY PREFETCHES:          0 LATE PREFETCHES: 0 DROPPED PREFETCHES: 0
DTLB COMMIT LATE PREFETCHES: 0 MISSED OPPORTUNITY: 0 LATE IN PQ: 0 UNCOVERED: 0
DTLB COMMIT LATE MSHR PREFETCHES: 0
DTLB MPKI TOTAL: 0 MSHR LATE: 0 PQ LATE: 0 COMMIT LATE: 0 MISSED OPPORTUNITY: 0 UNCOVERED: 0
DTLB PREFETCHES SAME FILL-ORIGIN LEVEL: 0 DIFFERENT FILL-ORIGIN LEVEL: 0
DTLB AVERAGE MISS LATENCY: 69.855 cycles
DTLB AVERAGE MISS LATENCY LOAD: -nan cycles
DTLB AVERAGE MISS LATENCY PREFETCH: -nan cycles
DTLB AVERAGE MSHR OCCUPANCY: 0.00734435
DTLB MSHR FULL: 0
DTLB RQ	ACCESS:   41587141	FORWARD:          0	MERGED:    2934181	TO_CACHE:   38652960

STLB TOTAL     ACCESS:     190156  HIT:      23193  MISS:     166963  HIT %:    12.1968  MISS %:    87.8032   MPKI: 0.834815
STLB Test counter:          0
STLB LOAD TRANSLATION ACCESS:     190156  HIT:      23193  MISS:     166963  HIT %:    12.1968  MISS %:    87.8032   MPKI: 0.834815
STLB PREFETCH  REQUESTED:          0  ISSUED:          0  USEFUL:          0  USELESS:          0
STLB USEFUL LOAD PREFETCHES:          0 PREFETCH ISSUED TO LOWER LEVEL:          0  ACCURACY: -nan
STLB TIMELY PREFETCHES:          0 LATE PREFETCHES: 0 DROPPED PREFETCHES: 0
STLB COMMIT LATE PREFETCHES: 0 MISSED OPPORTUNITY: 0 LATE IN PQ: 0 UNCOVERED: 0
STLB COMMIT LATE MSHR PREFETCHES: 0
STLB MPKI TOTAL: 0 MSHR LATE: 0 PQ LATE: 0 COMMIT LATE: 0 MISSED OPPORTUNITY: 0 UNCOVERED: 0
STLB PREFETCHES SAME FILL-ORIGIN LEVEL: 0 DIFFERENT FILL-ORIGIN LEVEL: 0
STLB AVERAGE MISS LATENCY: 69.307 cycles
STLB AVERAGE MISS LATENCY LOAD: -nan cycles
STLB AVERAGE MISS LATENCY PREFETCH: -nan cycles
STLB AVERAGE MSHR OCCUPANCY: 0.0778519
STLB MSHR FULL: 0
STLB RQ	ACCESS:     190156	FORWARD:          0	MERGED:          0	TO_CACHE:     190156

STLB Hit, L1D data hit: 0
STLB Hit, L2C data hit: 0
STLB Hit, LLC data hit: 0
STLB Hit, LLC data miss: 0
STLB STLB hints to L2: 0
L1D TOTAL     ACCESS:   40316366  HIT:   35109038  MISS:    5207328  HIT %:    87.0838  MISS %:    12.9162   MPKI: 26.0366
L1D Test counter:          0
L1D LOAD      ACCESS:   35605759  HIT:   30556775  MISS:    5505186  HIT %:    85.8198  MISS %:    14.1802   MPKI: 25.2449
L1D RFO       ACCESS:    4710607  HIT:    4552263  MISS:     158344  HIT %:    96.6386  MISS %:    3.36144   MPKI: 0.79172
L1D PREFETCH  REQUESTED:          0  ISSUED:          0  USEFUL:          0  USELESS:          0
L1D USEFUL LOAD PREFETCHES:          0 PREFETCH ISSUED TO LOWER LEVEL:          0  ACCURACY: -nan
L1D TIMELY PREFETCHES:          0 LATE PREFETCHES: 0 DROPPED PREFETCHES: 0
L1D COMMIT LATE PREFETCHES: 0 MISSED OPPORTUNITY: 0 LATE IN PQ: 0 UNCOVERED: 0
L1D COMMIT LATE MSHR PREFETCHES: 0
L1D MPKI TOTAL: 27.5259 MSHR LATE: 0 PQ LATE: 0 COMMIT LATE: 0 MISSED OPPORTUNITY: 0 UNCOVERED: 0
L1D PREFETCHES SAME FILL-ORIGIN LEVEL: 0 DIFFERENT FILL-ORIGIN LEVEL: 0
L1D AVERAGE MISS LATENCY: 38.467 cycles
L1D AVERAGE MISS LATENCY LOAD: 35.0353 cycles
L1D AVERAGE MISS LATENCY PREFETCH: -nan cycles
L1D AVERAGE MSHR OCCUPANCY: 0.196334
L1D MSHR FULL: 0.00107164
L1D RQ	ACCESS:   49164055	FORWARD:          0	MERGED:   13099576	TO_CACHE:   36061962
L1D WQ	ACCESS:    5542575	FORWARD:       2517	MERGED:      17396	TO_CACHE:    5525179

L1D UNIQUE REGIONS ACCESSED: 0
L1D REGIONS CONFLICTS: 0
L1D Cross Page Prefetch Requests: 0
L1D Same Page Prefetch Requests: 0
L1D ROI Sum of L1D PQ occupancy: 0
L1D PREFETCHES PUSHED FROM L2C: 0
14f989f0558f: 1
55b5b85b2e77: 1
14f989f0557e: 1
14f989f0560c: 1
55b5b85b45c0: 2
14f989ede5f4: 2
55b5b85b473d: 2
14f989ea286b: 2
55b5b85b4930: 2
55b5b85b44fc: 2
55b5b85b493f: 2
14f989ea53c3: 2
55b5b85b456f: 2
14f989e6b040: 2
14f989ea53cc: 2
55b5b85b4914: 2
55b5b85b2aee: 2
55b5b85b4636: 2
14f989efb143: 2
55b5b85b40e2: 2
55b5b85b4603: 2
55b5b85b44d5: 2
55b5b85b2e00: 2
55b5b85b4966: 2
14f989edf123: 2
14f989ee1d7f: 2
14f989ed5951: 2
14f989f7c254: 2
14f989ea53bc: 2
55b5b85b45e8: 2
55b5b85b45a7: 2
55b5b85b44ea: 2
14f989ea5530: 2
14f989ea567e: 2
14f989f056c3: 2
14f989f7c24b: 2
55b5b85bbcb3: 2
55b5b85b2b10: 2
14f989e6b230: 2
14f989ea55e5: 2
14f989ea567a: 2
55b5b85b2e6a: 2
55b5b85bbca0: 2
14f989f7c247: 2
14f989f7c240: 2
55b5b85b2330: 2
55b5b85b4320: 3
55b5b85b2e73: 3
55b5b85b409c: 4
14f989ede5a7: 5
14f989ee1c4f: 5
55b5b85b4054: 5
55b5b85b45fe: 5
14f989ee1d43: 5
14f989f0563e: 5
55b5b85b4019: 5
14f989f05672: 5
55b5b85b40ec: 5
14f989edef10: 7
55b5b85b4782: 8
55b5b85b4789: 8
55b5b85b26a0: 8
55b5b85b47a1: 8
14f989ede581: 9
14f989ee1076: 9
14f989ee10af: 9
14f989ede323: 9
14f989edef73: 9
14f989ede4f8: 9
55b5b85b4866: 9
14f989ede58f: 9
14f989ee10c1: 9
14f989ee10e3: 9
14f989ee10cf: 9
14f989ede574: 9
14f989ee199f: 10
14f989ee1c88: 10
14f989ee1c45: 10
14f989ee1c6b: 10
14f989ee1a09: 10
14f989ee1971: 10
14f989ee1c95: 10
14f989ee1a27: 10
14f989ee19a6: 10
14f989ee1c61: 10
14f98a87ad00: 12
14f989ee1d1a: 12
55b5b85b25d0: 12
14f989ee1e55: 12
14f989ee1978: 12
14f989ee231c: 12
14f98a87b3f0: 12
14f989ee1961: 12
55b5b85b2430: 12
14f989f0597f: 12
14f989ee198d: 14
14f989ede8e8: 15
55b5b85b2340: 15
14f989ede65b: 15
14f98a87a6d0: 17
14f989ee107d: 17
14f98a87ab30: 17
55b5b85b2690: 19
7ffea19e3d75: 25
14f989f0568a: 27
55b5b85b482f: 103
55b5b85b4015: 267
55b5b85b4024: 630
55b5b85b46c0: 1457
14f989f0567f: 1652
55b5b85b4020: 4764
55b5b85b46d7: 5446
55b5b85b42ba: 6147
55b5b85b4051: 6309
55b5b85b4838: 13305
55b5b85b4063: 27438
55b5b85b47fd: 95281
55b5b85b4900: 168464
55b5b85b44a0: 262144
55b5b85b47cb: 411315
55b5b85b47bd: 531404
55b5b85b47cf: 646230
55b5b85b480b: 838065
55b5b85b47d9: 955510
55b5b85b47e7: 1072362
L1I TOTAL     ACCESS:   42012509  HIT:   42012494  MISS:         15  HIT %:        100  MISS %: 3.57037e-05   MPKI: 7.5e-05
L1I Test counter:          0
L1I LOAD      ACCESS:   42012509  HIT:   42012494  MISS:         16  HIT %:        100  MISS %: 3.57037e-05   MPKI: 7.5e-05
L1I PREFETCH  REQUESTED:          0  ISSUED:          0  USEFUL:          0  USELESS:          0
L1I USEFUL LOAD PREFETCHES:          0 PREFETCH ISSUED TO LOWER LEVEL:          0  ACCURACY: -nan
L1I TIMELY PREFETCHES:          0 LATE PREFETCHES: 0 DROPPED PREFETCHES: 0
L1I COMMIT LATE PREFETCHES: 0 MISSED OPPORTUNITY: 0 LATE IN PQ: 0 UNCOVERED: 0
L1I COMMIT LATE MSHR PREFETCHES: 0
L1I MPKI TOTAL: 8e-05 MSHR LATE: 0 PQ LATE: 0 COMMIT LATE: 0 MISSED OPPORTUNITY: 0 UNCOVERED: 0
L1I PREFETCHES SAME FILL-ORIGIN LEVEL: 0 DIFFERENT FILL-ORIGIN LEVEL: 0
L1I AVERAGE MISS LATENCY: 203.2 cycles
L1I AVERAGE MISS LATENCY LOAD: 203.2 cycles
L1I AVERAGE MISS LATENCY PREFETCH: -nan cycles
L1I AVERAGE MSHR OCCUPANCY: 1.90419e-07
L1I MSHR FULL: 0
L1I RQ	ACCESS:   65249585	FORWARD:          0	MERGED:   23237074	TO_CACHE:   42012511

55b5b85b2b03: 1
55b5b85b2ac1: 1
14f989ee1cc1: 1
14f989ea7103: 1
14f989f055c3: 1
55b5b85b4260: 1
14f989ea70db: 1
55b5b85b4900: 1
55b5b85b42c2: 1
55b5b85b4884: 1
55b5b85b2cfd: 1
55b5b85b4947: 1
55b5b85b4281: 1
55b5b85b48c4: 1
55b5b85b4303: 1
BTB TOTAL     ACCESS:   42321333  HIT:   42321014  MISS:        319  HIT %:    99.9992  MISS %: 0.000753757   MPKI: 0.001595
BTB Test counter:          0
BTB BRANCH_DIRECT_JUMP	ACCESS:       5431  HIT:       5387  MISS:         44
BTB BRANCH_INDIRECT	ACCESS:          2  HIT:          1  MISS:          1
BTB BRANCH_CONDITIONAL	ACCESS:   42315388  HIT:   42315285  MISS:        103
BTB BRANCH_DIRECT_CALL	ACCESS:        250  HIT:        208  MISS:         42
BTB BRANCH_INDIRECT_CALL	ACCESS:          6  HIT:          3  MISS:          3
BTB BRANCH_RETURN	ACCESS:        256  HIT:        130  MISS:        126
BTB BRANCH_OTHER ACCESS:          0  HIT:          0  MISS:          0

L2C TOTAL     ACCESS:   11215225  HIT:    6343898  MISS:    4871327  HIT %:    56.5651  MISS %:    43.4349   MPKI: 24.3566
L2C Test counter:          0
L2C LOAD      ACCESS:    5048998  HIT:    4355951  MISS:     693047  HIT %:    86.2736  MISS %:    13.7264   MPKI: 3.46523
L2C DATA LOAD MPKI: 3.46516
L2C INSTRUCTION LOAD MPKI: 7.5e-05
L2C RFO       ACCESS:     158344  HIT:      10991  MISS:     147353  HIT %:    6.94122  MISS %:    93.0588   MPKI: 0.736765
L2C PREFETCH  ACCESS:    5317056  HIT:    1319288  MISS:    3997768  HIT %:    24.8124  MISS %:    75.1876   MPKI: 19.9888
L2C DATA PREFETCH MPKI: 19.9888
L2C INSTRUCTION PREFETCH MPKI: 0
L2C WRITEBACK ACCESS:     523008  HIT:     522967  MISS:         41  HIT %:    99.9922  MISS %: 0.00783927   MPKI: 0.000205
L2C LOAD TRANSLATION ACCESS:     167819  HIT:     134701  MISS:      33118  HIT %:    80.2656  MISS %:    19.7344   MPKI: 0.16559
L2C PREFETCH  REQUESTED:    5328016  ISSUED:    5328016  USEFUL:    2554127  USELESS:    1446416
L2C USEFUL LOAD PREFETCHES:    2554127 PREFETCH ISSUED TO LOWER LEVEL:    4003409  ACCURACY: 63.7988
L2C TIMELY PREFETCHES:    2554127 LATE PREFETCHES: 5641 DROPPED PREFETCHES: 0
L2C COMMIT LATE PREFETCHES: 0 MISSED OPPORTUNITY: 0 LATE IN PQ: 0 UNCOVERED: 0
L2C COMMIT LATE MSHR PREFETCHES: 0
L2C MPKI TOTAL: 3.46523 MSHR LATE: 0.028205 PQ LATE: 0 COMMIT LATE: 0 MISSED OPPORTUNITY: 0 UNCOVERED: 0
L2C PREFETCHES SAME FILL-ORIGIN LEVEL: 4003409 DIFFERENT FILL-ORIGIN LEVEL: 0
L2C AVERAGE MISS LATENCY: 161.47 cycles
L2C AVERAGE MISS LATENCY LOAD: 145.563 cycles
L2C AVERAGE MISS LATENCY PREFETCH: 164.61 cycles
L2C AVERAGE MSHR OCCUPANCY: 0.61586
L2C MSHR FULL: 3.72082e-07
L2C RQ	ACCESS:    5375161	FORWARD:          0	MERGED:          0	TO_CACHE:    5375161
L2C WQ	ACCESS:     523008	FORWARD:          0	MERGED:          0	TO_CACHE:     523008
L2C PQ	ACCESS:    5328016	FORWARD:          0	MERGED:          0	TO_CACHE:    5328016

L2C Instructions Evicting Data 15
L2C Translations Evicting Data 32710
L2C Data Evicting Data 4805417
L2C Instructions Evicting Instructions 0
L2C Translations Evicting Instructions 0
L2C Data Evicting Instructions 15
L2C Instructions Evicting Translations 0
L2C Translations Evicting Translations 408
L2C Data Evicting Translations 32721
L2C Dense regions hint from L2: 0
55b5b85b42c2: 1
55b5b85b48c4: 1
55b5b85b4930: 1
14f989ea70db: 1
55b5b85b4260: 1
55b5b85b493f: 1
55b5b85b4947: 1
55b5b85b4782: 1
55b5b85b47a1: 1
14f989ea7103: 1
55b5b85b2aee: 1
55b5b85b4884: 1
55b5b85b2e77: 1
55b5b85b4303: 1
14f989efb143: 1
55b5b85b4966: 1
55b5b85b2ac1: 1
55b5b85b40ec: 1
55b5b85b2b03: 1
55b5b85b45fe: 1
14f989ee1cc1: 1
55b5b85b2cfd: 1
55b5b85b4281: 1
14f989f055c3: 1
55b5b85b44ea: 1
55b5b85b2e6a: 1
55b5b85bbcb3: 1
55b5b85b4054: 1
14f989f0558f: 1
14f989ea567e: 2
14f989ea567a: 2
14f989ea55e5: 2
14f989e6b230: 2
14f989ea5530: 2
14f989ee1d43: 2
14f989ed5951: 2
55b5b85b44d5: 2
55b5b85b2e00: 2
14f989edf123: 2
14f989ea53c3: 2
55b5b85b45c0: 2
55b5b85b2b10: 2
14f989f7c24b: 2
14f989ea53bc: 2
14f989f7c247: 2
55b5b85b44fc: 2
55b5b85b409c: 2
55b5b85b2330: 2
14f989ea286b: 2
14f989f7c240: 2
14f989f0563e: 2
14f989e6b040: 2
55b5b85b4914: 2
14f989f7c254: 2
14f989ede574: 3
14f989ede5a7: 3
55b5b85b4019: 3
14f989ee1c61: 3
14f989ee1c4f: 3
14f989ede4f8: 3
55b5b85b2e73: 3
14f989ede58f: 3
55b5b85b26a0: 3
14f989edef10: 3
14f98a87ab30: 4
14f989ee1c6b: 5
14f989ee1a09: 5
14f989ede323: 5
14f989ee198d: 5
14f98a87a6d0: 5
14f989ee1961: 5
14f989ee10cf: 5
55b5b85b2340: 5
14f989ede8e8: 5
55b5b85b25d0: 5
14f989ee1076: 5
14f989ee10e3: 5
14f989ee1978: 5
14f989f05672: 5
14f989ede581: 5
14f989ee1e55: 5
14f989ee10c1: 5
14f989ede65b: 6
14f989ee1c88: 6
14f989ee1c45: 6
55b5b85b2430: 7
14f989ee1d1a: 7
14f989ee107d: 7
14f989ee1971: 7
55b5b85b4866: 8
14f98a87b3f0: 10
14f98a87ad00: 10
55b5b85b2690: 13
55b5b85b482f: 15
7ffea19e3d75: 16
55b5b85b4015: 29
55b5b85b46d7: 367
55b5b85b4024: 622
14f989f0567f: 644
55b5b85b4838: 2331
55b5b85b480b: 3097
55b5b85b42ba: 4081
55b5b85b4020: 4721
55b5b85b4051: 4958
55b5b85b44a0: 8303
55b5b85b4900: 10597
55b5b85b47cb: 13249
55b5b85b47bd: 16628
55b5b85b47cf: 20460
55b5b85b47e7: 24181
55b5b85b4063: 25807
55b5b85b47fd: 30738
55b5b85b47d9: 521918
PSCL5 TOTAL     ACCESS:     166963  HIT:     166963  MISS:          0  HIT %:        100  MISS %:          0   MPKI: 0
PSCL5 Test counter:          0
PSCL5 LOAD TRANSLATION ACCESS:     166963  HIT:     166963  MISS:          0  HIT %:        100  MISS %:          0   MPKI: 0
PSCL5 PREFETCH  REQUESTED:          0  ISSUED:          0  USEFUL:          0  USELESS:          0
PSCL5 USEFUL LOAD PREFETCHES:          0 PREFETCH ISSUED TO LOWER LEVEL:          0  ACCURACY: -nan
PSCL5 TIMELY PREFETCHES:          0 LATE PREFETCHES: 0 DROPPED PREFETCHES: 0
PSCL5 COMMIT LATE PREFETCHES: 0 MISSED OPPORTUNITY: 0 LATE IN PQ: 0 UNCOVERED: 0
PSCL5 COMMIT LATE MSHR PREFETCHES: 0
PSCL5 MPKI TOTAL: 0 MSHR LATE: 0 PQ LATE: 0 COMMIT LATE: 0 MISSED OPPORTUNITY: 0 UNCOVERED: 0
PSCL5 PREFETCHES SAME FILL-ORIGIN LEVEL: 0 DIFFERENT FILL-ORIGIN LEVEL: 0

PSCL4 TOTAL     ACCESS:     166963  HIT:     166963  MISS:          0  HIT %:        100  MISS %:          0   MPKI: 0
PSCL4 Test counter:          0
PSCL4 LOAD TRANSLATION ACCESS:     166963  HIT:     166963  MISS:          0  HIT %:        100  MISS %:          0   MPKI: 0
PSCL4 PREFETCH  REQUESTED:          0  ISSUED:          0  USEFUL:          0  USELESS:          0
PSCL4 USEFUL LOAD PREFETCHES:          0 PREFETCH ISSUED TO LOWER LEVEL:          0  ACCURACY: -nan
PSCL4 TIMELY PREFETCHES:          0 LATE PREFETCHES: 0 DROPPED PREFETCHES: 0
PSCL4 COMMIT LATE PREFETCHES: 0 MISSED OPPORTUNITY: 0 LATE IN PQ: 0 UNCOVERED: 0
PSCL4 COMMIT LATE MSHR PREFETCHES: 0
PSCL4 MPKI TOTAL: 0 MSHR LATE: 0 PQ LATE: 0 COMMIT LATE: 0 MISSED OPPORTUNITY: 0 UNCOVERED: 0
PSCL4 PREFETCHES SAME FILL-ORIGIN LEVEL: 0 DIFFERENT FILL-ORIGIN LEVEL: 0

PSCL3 TOTAL     ACCESS:     166963  HIT:     166963  MISS:          0  HIT %:        100  MISS %:          0   MPKI: 0
PSCL3 Test counter:          0
PSCL3 LOAD TRANSLATION ACCESS:     166963  HIT:     166963  MISS:          0  HIT %:        100  MISS %:          0   MPKI: 0
PSCL3 PREFETCH  REQUESTED:          0  ISSUED:          0  USEFUL:          0  USELESS:          0
PSCL3 USEFUL LOAD PREFETCHES:          0 PREFETCH ISSUED TO LOWER LEVEL:          0  ACCURACY: -nan
PSCL3 TIMELY PREFETCHES:          0 LATE PREFETCHES: 0 DROPPED PREFETCHES: 0
PSCL3 COMMIT LATE PREFETCHES: 0 MISSED OPPORTUNITY: 0 LATE IN PQ: 0 UNCOVERED: 0
PSCL3 COMMIT LATE MSHR PREFETCHES: 0
PSCL3 MPKI TOTAL: 0 MSHR LATE: 0 PQ LATE: 0 COMMIT LATE: 0 MISSED OPPORTUNITY: 0 UNCOVERED: 0
PSCL3 PREFETCHES SAME FILL-ORIGIN LEVEL: 0 DIFFERENT FILL-ORIGIN LEVEL: 0

PSCL2 TOTAL     ACCESS:     166963  HIT:     166100  MISS:        863  HIT %:    99.4831  MISS %:   0.516881   MPKI: 0.004315
PSCL2 Test counter:          0
PSCL2 LOAD TRANSLATION ACCESS:     166963  HIT:     166100  MISS:        863  HIT %:    99.4831  MISS %:   0.516881   MPKI: 0.004315
PSCL2 PREFETCH  REQUESTED:          0  ISSUED:          0  USEFUL:          0  USELESS:          0
PSCL2 USEFUL LOAD PREFETCHES:          0 PREFETCH ISSUED TO LOWER LEVEL:          0  ACCURACY: -nan
PSCL2 TIMELY PREFETCHES:          0 LATE PREFETCHES: 0 DROPPED PREFETCHES: 0
PSCL2 COMMIT LATE PREFETCHES: 0 MISSED OPPORTUNITY: 0 LATE IN PQ: 0 UNCOVERED: 0
PSCL2 COMMIT LATE MSHR PREFETCHES: 0
PSCL2 MPKI TOTAL: 0 MSHR LATE: 0 PQ LATE: 0 COMMIT LATE: 0 MISSED OPPORTUNITY: 0 UNCOVERED: 0
PSCL2 PREFETCHES SAME FILL-ORIGIN LEVEL: 0 DIFFERENT FILL-ORIGIN LEVEL: 0

LLC TOTAL     ACCESS:    5392579  HIT:     616673  MISS:    4775906  HIT %:    11.4356  MISS %:    88.5644   MPKI: 23.8795
LLC Test counter:          0
LLC LOAD      ACCESS:     687406  HIT:      20622  MISS:     666784  HIT %:    2.99997  MISS %:         97   MPKI: 3.33392
LLC RFO       ACCESS:     147353  HIT:       3648  MISS:     143705  HIT %:    2.47569  MISS %:    97.5243   MPKI: 0.718525
LLC PREFETCH  ACCESS:    4003409  HIT:      80052  MISS:    3923357  HIT %:     1.9996  MISS %:    98.0004   MPKI: 19.6168
LLC WRITEBACK ACCESS:     521293  HIT:     511369  MISS:       9924  HIT %:    98.0963  MISS %:    1.90373   MPKI: 0.04962
LLC LOAD TRANSLATION ACCESS:      33118  HIT:        982  MISS:      32136  HIT %:    2.96515  MISS %:    97.0348   MPKI: 0.16068
LLC PREFETCH  REQUESTED:          0  ISSUED:          0  USEFUL:       9644  USELESS:    3911573
LLC USEFUL LOAD PREFETCHES:       9644 PREFETCH ISSUED TO LOWER LEVEL:    3923357  ACCURACY: 0.24581
LLC TIMELY PREFETCHES:       9644 LATE PREFETCHES: 0 DROPPED PREFETCHES: 0
LLC COMMIT LATE PREFETCHES: 0 MISSED OPPORTUNITY: 0 LATE IN PQ: 0 UNCOVERED: 0
LLC COMMIT LATE MSHR PREFETCHES: 0
LLC MPKI TOTAL: 3.33392 MSHR LATE: 0 PQ LATE: 0 COMMIT LATE: 0 MISSED OPPORTUNITY: 0 UNCOVERED: 0
LLC PREFETCHES SAME FILL-ORIGIN LEVEL: 0 DIFFERENT FILL-ORIGIN LEVEL: 0
LLC AVERAGE MISS LATENCY: 134.214 cycles
LLC AVERAGE MISS LATENCY LOAD: 119.638 cycles
LLC AVERAGE MISS LATENCY PREFETCH: 137.387 cycles
LLC AVERAGE MSHR OCCUPANCY: 0.529588
LLC MSHR FULL: 0
LLC RQ	ACCESS:     867877	FORWARD:          0	MERGED:          0	TO_CACHE:     867877
LLC WQ	ACCESS:     521293	FORWARD:          0	MERGED:          0	TO_CACHE:     521293
LLC PQ	ACCESS:    4003409	FORWARD:          0	MERGED:          0	TO_CACHE:    4003409

LLC Dense regions hint to LLC: 0
55b5b85b2ac1: 1
14f989efb143: 1
55b5b85b4303: 1
55b5b85b42c2: 1
55b5b85b4260: 1
55b5b85b4966: 1
14f989ea70db: 1
55b5b85b4930: 1
55b5b85b26a0: 1
55b5b85b48c4: 1
55b5b85b45fe: 1
55b5b85b4884: 1
55b5b85b2aee: 1
14f989f055c3: 1
14f989ede58f: 1
14f989ea7103: 1
55b5b85bbcb3: 1
55b5b85b4054: 1
55b5b85b2e77: 1
55b5b85b493f: 1
55b5b85b4281: 1
55b5b85b44ea: 1
14f989ee1d43: 1
55b5b85b2e6a: 1
55b5b85b2cfd: 1
55b5b85b2b03: 1
14f989ee1cc1: 1
55b5b85b4947: 1
55b5b85b4782: 1
55b5b85b47a1: 1
14f989ee1a09: 2
14f989ee1e55: 2
14f989f7c254: 2
14f989ee1c61: 2
55b5b85b44d5: 2
55b5b85b2e00: 2
14f989e6b040: 2
55b5b85b4914: 2
14f989ee1c4f: 2
14f989ee1c6b: 2
14f989f7c24b: 2
55b5b85b2b10: 2
14f989ee1c88: 2
14f989f7c240: 2
14f989f7c247: 2
14f989ea53bc: 2
55b5b85b2330: 2
55b5b85b44fc: 2
14f989ea286b: 2
14f989ea53c3: 2
14f989ea5530: 2
14f989ea567e: 2
14f989ed5951: 2
14f989e6b230: 2
14f989ea55e5: 2
14f989ea567a: 2
55b5b85b4019: 2
55b5b85b45c0: 2
14f989edf123: 2
14f98a87ab30: 3
55b5b85b2e73: 3
14f989ee1978: 3
55b5b85b2340: 3
14f989ee1c45: 3
14f989ee1971: 3
14f989ee1961: 3
14f989ede574: 3
14f989ede4f8: 3
14f989ede8e8: 3
14f989edef10: 3
14f989ede5a7: 3
14f989ee198d: 4
55b5b85b482f: 4
14f989ee10cf: 5
14f989f05672: 5
14f989ee10e3: 5
14f98a87a6d0: 5
14f989ee1076: 5
14f989ee10c1: 5
14f989ede581: 5
14f989ee1d1a: 5
55b5b85b25d0: 5
14f989ede323: 5
14f989ede65b: 6
14f989ee107d: 6
55b5b85b2430: 6
14f98a87b3f0: 7
14f98a87ad00: 7
55b5b85b4866: 8
14f989f0567f: 10
55b5b85b2690: 13
7ffea19e3d75: 14
55b5b85b46d7: 14
55b5b85b4024: 574
55b5b85b480b: 1411
55b5b85b4838: 1882
55b5b85b42ba: 3787
55b5b85b4020: 4463
55b5b85b4051: 4751
55b5b85b44a0: 8194
55b5b85b4900: 8826
55b5b85b47e7: 10370
55b5b85b47cb: 13174
55b5b85b47bd: 16600
55b5b85b47cf: 20366
55b5b85b4063: 22368
55b5b85b47fd: 29647
55b5b85b47d9: 520098

RAW hits: 17473
Loads Generated: 49181528
Loads sent to L1D: 49164055
Stores Generated: 5542575
Stores sent to L1D: 5542575
Major fault: 0 Minor fault: 27212
Allocated PAGES: 27212
Total Load insts: 61556454
Total Non-spec loads: 16233681
Percentage of speculative loads: 73.628
L1D response latency: 35.0353 cycles
Load retirement latency: 53.08 cycles

[Bingo] PHT Access: 367204
[Bingo] PHT Hit PC+Addr: 25659
[Bingo] PHT Hit PC+Offs: 337876
[Bingo] PHT Miss: 3669
[Bingo] Prefetch PC+Addr: 0
[Bingo] Prefetch PC+Offs: 0
[Bingo] Useful PC+Addr: 0
[Bingo] Useful PC+Offs: 0
[Bingo] Useless PC+Addr: 0
[Bingo] Useless PC+Offs: 0
[Bingo] L1 Prefetch per Region: 0
[Bingo] L2 Prefetch per Region: 15.838
[Bingo] L3 Prefetch per Region: 0
[Bingo] No Prefetch per Region: 16.162
[Bingo] Number of Voters Mean: 15.714
[Bingo] Number of Voters SD: 6.39435
PHT read accesses: 5555610
PHT write accesses: 307874
AT read accesses: 4751914
AT write accesses: 4989409
FT read accesses: 946299
FT write accesses: 367204
PS read accesses: 877847
PS write accesses: 363535
PHT tag read accesses: 15169611
PHT tag write accesses: 333533
AT tag read accesses: 172978212
AT tag write accesses: 5059789
FT tag read accesses: 101972335
FT tag write accesses: 1005383
PS tag read accesses: 94881447
PS tag write accesses: 1237736

DRAM Statistics
 CHANNEL 0
 RQ ROW_BUFFER_HIT:    3460985  ROW_BUFFER_MISS:    1304988
 DBUS_CONGESTED:        382
 WQ ROW_BUFFER_HIT:      91424  ROW_BUFFER_MISS:     424404  FULL:          0

 AVG_CONGESTED_CYCLE: 4
 All warmup complete: 2
Channel 0 Bank busy for read cycles: 0
Channel 0 Bank busy for write cycles: 0
Channel 0
Rank 0
0banks busy for read cycles: 470772265
0banks busy for write cycles: 228275
1banks busy for read cycles: 64353564
1banks busy for write cycles: 25881045
2banks busy for read cycles: 9282685
2banks busy for write cycles: 7273375
3banks busy for read cycles: 7009155
3banks busy for write cycles: 3909789
4banks busy for read cycles: 5441263
4banks busy for write cycles: 2021330
5banks busy for read cycles: 4314232
5banks busy for write cycles: 1022672
6banks busy for read cycles: 4175113
6banks busy for write cycles: 513669
7banks busy for read cycles: 7263231
7banks busy for write cycles: 380679
8banks busy for read cycles: 18216821
8banks busy for write cycles: 1338485

CPU 0 Branch Prediction Accuracy: 85.7266% MPKI: 31.0332 Average ROB Occupancy at Mispredict: 7.43309
Branch types
NOT_BRANCH: 156515925 78.258%
BRANCH_DIRECT_JUMP: 5431 0.0027155%
BRANCH_INDIRECT: 2 1e-06%
BRANCH_CONDITIONAL: 43478139 21.7391%
BRANCH_DIRECT_CALL: 250 0.000125%
BRANCH_INDIRECT_CALL: 6 3e-06%
BRANCH_RETURN: 256 0.000128%
BRANCH_OTHER: 0 0%

DRAM PAGES: 1048576
Allocated PAGES: 27212
