
*** ChampSim Multicore Out-of-Order Simulator ***

Warmup Instructions: 50000000
Simulation Instructions: 200000000
Number of CPUs: 1
LLC sets: 2048
LLC ways: 16
Secure Berti: OFF
Berti: OFF
Berti Fill: OFF
On commit prefetching: OFF
L2 LLC Bypass speculative loads: OFF
Off-chip DRAM Size: 4096 MB Channels: 1 Width: 64-bit Data Rate: 6400 MT/s
CPU 0 runs /home/sumon/secure_berti/Berti_Baseline/../../traces/gap/bfs-8.trace.gz
.gz
BTB has LRU replacement policy
ITLB has LRU replacement policy
DTLB has LRU replacement policy
STLB has LRU replacement policy
L1I has LRU replacement policy
L1D has LRU replacement policy
Bingo PHT WAYS: 16 and PHT_SIZE: 16384
L2C has LRU replacement policy
LLC has LRU replacement policy
Heartbeat CPU 0 instructions: 10000002 cycles: 2971985 heartbeat IPC: 3.36476 cumulative IPC: 3.36476 (Simulation time: 0 hr 0 min 8 sec) 
Heartbeat CPU 0 instructions: 20000001 cycles: 5934734 heartbeat IPC: 3.37524 cumulative IPC: 3.36999 (Simulation time: 0 hr 0 min 26 sec) 
Heartbeat CPU 0 instructions: 30000003 cycles: 8886802 heartbeat IPC: 3.38746 cumulative IPC: 3.37579 (Simulation time: 0 hr 0 min 45 sec) 
Heartbeat CPU 0 instructions: 40000002 cycles: 11951447 heartbeat IPC: 3.26302 cumulative IPC: 3.34688 (Simulation time: 0 hr 1 min 0 sec) 
Heartbeat CPU 0 instructions: 50000002 cycles: 15122201 heartbeat IPC: 3.15382 cumulative IPC: 3.3064 (Simulation time: 0 hr 1 min 8 sec) 

Warmup complete CPU 0 instructions: 50000002 cycles: 15122201 (Simulation time: 0 hr 1 min 8 sec) 

Heartbeat CPU 0 instructions: 60000000 cycles: 37569315 heartbeat IPC: 0.445491 cumulative IPC: 0.445491 (Simulation time: 0 hr 1 min 30 sec) 
Heartbeat CPU 0 instructions: 70000000 cycles: 58331554 heartbeat IPC: 0.481644 cumulative IPC: 0.462863 (Simulation time: 0 hr 1 min 48 sec) 
Heartbeat CPU 0 instructions: 80000001 cycles: 89926097 heartbeat IPC: 0.31651 cumulative IPC: 0.401049 (Simulation time: 0 hr 2 min 11 sec) 
Heartbeat CPU 0 instructions: 90000001 cycles: 128151934 heartbeat IPC: 0.261603 cumulative IPC: 0.353889 (Simulation time: 0 hr 2 min 37 sec) 
Heartbeat CPU 0 instructions: 100000000 cycles: 166429893 heartbeat IPC: 0.261247 cumulative IPC: 0.330452 (Simulation time: 0 hr 3 min 3 sec) 
Heartbeat CPU 0 instructions: 110000000 cycles: 209098942 heartbeat IPC: 0.234362 cumulative IPC: 0.309315 (Simulation time: 0 hr 3 min 27 sec) 
Heartbeat CPU 0 instructions: 120000002 cycles: 242242352 heartbeat IPC: 0.301719 cumulative IPC: 0.308207 (Simulation time: 0 hr 3 min 48 sec) 
Heartbeat CPU 0 instructions: 130000001 cycles: 258222851 heartbeat IPC: 0.625763 cumulative IPC: 0.329082 (Simulation time: 0 hr 4 min 5 sec) 
Heartbeat CPU 0 instructions: 140000000 cycles: 274576591 heartbeat IPC: 0.611481 cumulative IPC: 0.346882 (Simulation time: 0 hr 4 min 22 sec) 
Heartbeat CPU 0 instructions: 150000001 cycles: 302132380 heartbeat IPC: 0.3629 cumulative IPC: 0.34842 (Simulation time: 0 hr 4 min 44 sec) 
Heartbeat CPU 0 instructions: 160000000 cycles: 339959620 heartbeat IPC: 0.26436 cumulative IPC: 0.338631 (Simulation time: 0 hr 5 min 6 sec) 
Heartbeat CPU 0 instructions: 170000001 cycles: 377874700 heartbeat IPC: 0.263747 cumulative IPC: 0.330804 (Simulation time: 0 hr 5 min 29 sec) 
Heartbeat CPU 0 instructions: 180000000 cycles: 416055114 heartbeat IPC: 0.261914 cumulative IPC: 0.324244 (Simulation time: 0 hr 5 min 51 sec) 
Heartbeat CPU 0 instructions: 190000001 cycles: 461841460 heartbeat IPC: 0.218406 cumulative IPC: 0.313396 (Simulation time: 0 hr 6 min 16 sec) 
Heartbeat CPU 0 instructions: 200000000 cycles: 495964078 heartbeat IPC: 0.293061 cumulative IPC: 0.311953 (Simulation time: 0 hr 6 min 37 sec) 
Heartbeat CPU 0 instructions: 210000000 cycles: 512229199 heartbeat IPC: 0.614812 cumulative IPC: 0.321862 (Simulation time: 0 hr 6 min 53 sec) 
Heartbeat CPU 0 instructions: 220000000 cycles: 528637286 heartbeat IPC: 0.609456 cumulative IPC: 0.331052 (Simulation time: 0 hr 7 min 10 sec) 
Heartbeat CPU 0 instructions: 230000000 cycles: 557494099 heartbeat IPC: 0.346539 cumulative IPC: 0.331876 (Simulation time: 0 hr 7 min 32 sec) 
Heartbeat CPU 0 instructions: 240000001 cycles: 594309937 heartbeat IPC: 0.271622 cumulative IPC: 0.328046 (Simulation time: 0 hr 7 min 58 sec) 
Heartbeat CPU 0 instructions: 250000002 cycles: 630941237 heartbeat IPC: 0.272991 cumulative IPC: 0.324771 (Simulation time: 0 hr 8 min 22 sec) 
Finished CPU 0 instructions: 200000000 cycles: 615819036 cumulative IPC: 0.324771 (Simulation time: 0 hr 8 min 22 sec) 

ChampSim completed all CPUs

Region of Interest Statistics

CPU 0 cumulative IPC: 0.324771 instructions: 200000000 cycles: 615819036
ITLB TOTAL     ACCESS:   33976965  HIT:   33976965  MISS:          0  HIT %:        100  MISS %:          0   MPKI: 0
ITLB Test counter:          0
ITLB LOAD TRANSLATION ACCESS:   33976965  HIT:   33976965  MISS:          0  HIT %:        100  MISS %:          0   MPKI: 0
ITLB PREFETCH  REQUESTED:          0  ISSUED:          0  USEFUL:          0  USELESS:          0
ITLB USEFUL LOAD PREFETCHES:          0 PREFETCH ISSUED TO LOWER LEVEL:          0  ACCURACY: -nan
ITLB TIMELY PREFETCHES:          0 LATE PREFETCHES: 0 DROPPED PREFETCHES: 0
ITLB COMMIT LATE PREFETCHES: 0 MISSED OPPORTUNITY: 0 LATE IN PQ: 0 UNCOVERED: 0
ITLB COMMIT LATE MSHR PREFETCHES: 0
ITLB MPKI TOTAL: 0 MSHR LATE: 0 PQ LATE: 0 COMMIT LATE: 0 MISSED OPPORTUNITY: 0 UNCOVERED: 0
ITLB PREFETCHES SAME FILL-ORIGIN LEVEL: 0 DIFFERENT FILL-ORIGIN LEVEL: 0
ITLB AVERAGE MISS LATENCY: -nan cycles
ITLB AVERAGE MISS LATENCY LOAD: -nan cycles
ITLB AVERAGE MISS LATENCY PREFETCH: -nan cycles
ITLB AVERAGE MSHR OCCUPANCY: 0
ITLB MSHR FULL: 0
ITLB RQ	ACCESS:   42975298	FORWARD:          0	MERGED:    8998334	TO_CACHE:   33976964

DTLB TOTAL     ACCESS:   40099585  HIT:   39830570  MISS:     269015  HIT %:    99.3291  MISS %:   0.670867   MPKI: 1.34508
DTLB Test counter:          0
DTLB LOAD TRANSLATION ACCESS:   40099585  HIT:   39830570  MISS:     269015  HIT %:    99.3291  MISS %:   0.670867   MPKI: 1.34508
DTLB PREFETCH  REQUESTED:          0  ISSUED:          0  USEFUL:          0  USELESS:          0
DTLB USEFUL LOAD PREFETCHES:          0 PREFETCH ISSUED TO LOWER LEVEL:          0  ACCURACY: -nan
DTLB TIMELY PREFETCHES:          0 LATE PREFETCHES: 0 DROPPED PREFETCHES: 0
DTLB COMMIT LATE PREFETCHES: 0 MISSED OPPORTUNITY: 0 LATE IN PQ: 0 UNCOVERED: 0
DTLB COMMIT LATE MSHR PREFETCHES: 0
DTLB MPKI TOTAL: 0 MSHR LATE: 0 PQ LATE: 0 COMMIT LATE: 0 MISSED OPPORTUNITY: 0 UNCOVERED: 0
DTLB PREFETCHES SAME FILL-ORIGIN LEVEL: 0 DIFFERENT FILL-ORIGIN LEVEL: 0
DTLB AVERAGE MISS LATENCY: 51.0797 cycles
DTLB AVERAGE MISS LATENCY LOAD: -nan cycles
DTLB AVERAGE MISS LATENCY PREFETCH: -nan cycles
DTLB AVERAGE MSHR OCCUPANCY: 0.00892502
DTLB MSHR FULL: 2.74207e-07
DTLB RQ	ACCESS:   42853907	FORWARD:          0	MERGED:    2738167	TO_CACHE:   40115740

STLB TOTAL     ACCESS:     269015  HIT:      94192  MISS:     174823  HIT %:    35.0137  MISS %:    64.9863   MPKI: 0.874115
STLB Test counter:          0
STLB LOAD TRANSLATION ACCESS:     269015  HIT:      94192  MISS:     174823  HIT %:    35.0137  MISS %:    64.9863   MPKI: 0.874115
STLB PREFETCH  REQUESTED:          0  ISSUED:          0  USEFUL:          0  USELESS:          0
STLB USEFUL LOAD PREFETCHES:          0 PREFETCH ISSUED TO LOWER LEVEL:          0  ACCURACY: -nan
STLB TIMELY PREFETCHES:          0 LATE PREFETCHES: 0 DROPPED PREFETCHES: 0
STLB COMMIT LATE PREFETCHES: 0 MISSED OPPORTUNITY: 0 LATE IN PQ: 0 UNCOVERED: 0
STLB COMMIT LATE MSHR PREFETCHES: 0
STLB MPKI TOTAL: 0 MSHR LATE: 0 PQ LATE: 0 COMMIT LATE: 0 MISSED OPPORTUNITY: 0 UNCOVERED: 0
STLB PREFETCHES SAME FILL-ORIGIN LEVEL: 0 DIFFERENT FILL-ORIGIN LEVEL: 0
STLB AVERAGE MISS LATENCY: 64.7272 cycles
STLB AVERAGE MISS LATENCY LOAD: -nan cycles
STLB AVERAGE MISS LATENCY PREFETCH: -nan cycles
STLB AVERAGE MSHR OCCUPANCY: 0.0742301
STLB MSHR FULL: 0
STLB RQ	ACCESS:     269015	FORWARD:          0	MERGED:          0	TO_CACHE:     269015

STLB Hit, L1D data hit: 0
STLB Hit, L2C data hit: 0
STLB Hit, LLC data hit: 0
STLB Hit, LLC data miss: 0
STLB STLB hints to L2: 0
L1D TOTAL     ACCESS:   41173511  HIT:   35897719  MISS:    5275792  HIT %:    87.1864  MISS %:    12.8136   MPKI: 26.379
L1D Test counter:          0
L1D LOAD      ACCESS:   35393989  HIT:   30357204  MISS:    5503803  HIT %:    85.7694  MISS %:    14.2306   MPKI: 25.1839
L1D RFO       ACCESS:    5779522  HIT:    5540515  MISS:     239007  HIT %:    95.8646  MISS %:    4.13541   MPKI: 1.19504
L1D PREFETCH  REQUESTED:          0  ISSUED:          0  USEFUL:          0  USELESS:          0
L1D USEFUL LOAD PREFETCHES:          0 PREFETCH ISSUED TO LOWER LEVEL:          0  ACCURACY: -nan
L1D TIMELY PREFETCHES:          0 LATE PREFETCHES: 0 DROPPED PREFETCHES: 0
L1D COMMIT LATE PREFETCHES: 0 MISSED OPPORTUNITY: 0 LATE IN PQ: 0 UNCOVERED: 0
L1D COMMIT LATE MSHR PREFETCHES: 0
L1D MPKI TOTAL: 27.519 MSHR LATE: 0 PQ LATE: 0 COMMIT LATE: 0 MISSED OPPORTUNITY: 0 UNCOVERED: 0
L1D PREFETCHES SAME FILL-ORIGIN LEVEL: 0 DIFFERENT FILL-ORIGIN LEVEL: 0
L1D AVERAGE MISS LATENCY: 44.7733 cycles
L1D AVERAGE MISS LATENCY LOAD: 39.275 cycles
L1D AVERAGE MISS LATENCY PREFETCH: -nan cycles
L1D AVERAGE MSHR OCCUPANCY: 0.320039
L1D MSHR FULL: 0.00628241
L1D RQ	ACCESS:   48965960	FORWARD:          0	MERGED:   13080259	TO_CACHE:   35861007
L1D WQ	ACCESS:    7109411	FORWARD:      24694	MERGED:     116511	TO_CACHE:    6992900

L1D UNIQUE REGIONS ACCESSED: 0
L1D REGIONS CONFLICTS: 0
L1D Cross Page Prefetch Requests: 0
L1D Same Page Prefetch Requests: 0
L1D ROI Sum of L1D PQ occupancy: 0
L1D PREFETCHES PUSHED FROM L2C: 0
55ecb86b564c: 1
55ecb86b5313: 1
14e534adc646: 1
55ecb86b3e77: 1
14e534ab8d3b: 1
55ecb86b55c5: 1
55ecb86b5636: 1
55ecb86bcca0: 1
55ecb86b5352: 2
55ecb86b5603: 2
55ecb86b5347: 2
14e534ab8d7f: 2
55ecb86b3e00: 2
14e534ab55f4: 2
55ecb86b3aee: 3
55ecb86b3ace: 3
55ecb86b3330: 3
14e534b53240: 3
14e534a7c67a: 3
14e534a7c67e: 3
55ecb86b5914: 3
55ecb86b530b: 3
55ecb86b55a7: 3
14e534a7c3c3: 3
14e534b5324b: 3
14e534aac951: 3
14e534b53254: 3
14e534ad2143: 3
55ecb86b5962: 3
55ecb86b54d5: 3
55ecb86b573d: 3
55ecb86b3e73: 3
14e534a7986b: 3
14e534a7c530: 3
55ecb86b3b10: 3
14e534b53247: 3
14e534a7c3bc: 3
14e534a7c5e5: 3
14e534a7c3cc: 3
14e534a42040: 3
14e534a42230: 3
55ecb86b54ea: 3
55ecb86b556f: 3
55ecb86b54fc: 3
14e534ab6123: 3
55ecb86b593f: 3
55ecb86b3a8c: 3
55ecb86b55e8: 3
55ecb86b55c0: 3
55ecb86b5950: 3
55ecb86b531f: 3
55ecb86b51b9: 5
14e534ab55a7: 5
55ecb86b5866: 6
55ecb86b50eb: 6
14e534ab8d43: 6
14e534ab8c4f: 6
55ecb86b57a1: 7
55ecb86b5797: 7
55ecb86b5782: 7
55ecb86b5789: 7
14e534ab5f10: 8
14e534adc6c3: 8
55ecb86b55fe: 9
14e534ab8971: 11
14e534ab5574: 11
55ecb86b5054: 11
14e534ab8a09: 11
14e534ab5f73: 11
14e534ab8c95: 11
14e534ab5323: 11
14e534ab80c1: 11
14e534ab54f8: 11
14e534ab558f: 11
14e534ab80af: 11
14e534ab5581: 11
14e534ab80cf: 11
14e534ab8076: 11
14e534ab8c61: 11
14e534ab80e3: 11
14e534ab899f: 12
14e534ab89a6: 12
14e534ab8c6b: 12
14e534ab8c45: 12
14e534ab8c88: 12
14e534adc63e: 13
55ecb86b3430: 13
14e534ab8a27: 13
14e534adc97f: 13
14e534ab931c: 14
14e535451d00: 14
14e534ab8d1a: 14
14e534ab8961: 15
14e5354523f0: 15
55ecb86b35d0: 15
14e534ab8e55: 15
14e534ab8978: 15
14e534adc672: 15
55ecb86b36a0: 16
14e534ab58e8: 17
55ecb86b3340: 17
14e534ab898d: 18
14e534ab565b: 18
55ecb86b3690: 19
14e5354516d0: 19
14e534ab807d: 19
14e535451b30: 20
7ffe2e0f1d75: 27
55ecb86b509c: 29
55ecb86b5019: 32
55ecb86b582f: 132
55ecb86b5015: 2455
14e534adc67f: 2550
55ecb86b5024: 4900
14e534adc68a: 5444
55ecb86b52ba: 5540
55ecb86b56c0: 5935
55ecb86b5838: 10842
55ecb86b5020: 33752
55ecb86b56d7: 33868
55ecb86b5051: 45041
55ecb86b57fd: 81363
55ecb86b5063: 177619
55ecb86b5900: 196602
55ecb86b57cb: 301345
55ecb86b54a0: 393216
55ecb86b57bd: 445410
55ecb86b57cf: 585570
55ecb86b580b: 722330
55ecb86b57d9: 944808
55ecb86b57e7: 1037174
L1I TOTAL     ACCESS:   42975296  HIT:   42975283  MISS:         13  HIT %:        100  MISS %: 3.02499e-05   MPKI: 6.5e-05
L1I Test counter:          0
L1I LOAD      ACCESS:   42975296  HIT:   42975283  MISS:         16  HIT %:        100  MISS %: 3.02499e-05   MPKI: 6.5e-05
L1I PREFETCH  REQUESTED:          0  ISSUED:          0  USEFUL:          0  USELESS:          0
L1I USEFUL LOAD PREFETCHES:          0 PREFETCH ISSUED TO LOWER LEVEL:          0  ACCURACY: -nan
L1I TIMELY PREFETCHES:          0 LATE PREFETCHES: 0 DROPPED PREFETCHES: 0
L1I COMMIT LATE PREFETCHES: 0 MISSED OPPORTUNITY: 0 LATE IN PQ: 0 UNCOVERED: 0
L1I COMMIT LATE MSHR PREFETCHES: 0
L1I MPKI TOTAL: 8e-05 MSHR LATE: 0 PQ LATE: 0 COMMIT LATE: 0 MISSED OPPORTUNITY: 0 UNCOVERED: 0
L1I PREFETCHES SAME FILL-ORIGIN LEVEL: 0 DIFFERENT FILL-ORIGIN LEVEL: 0
L1I AVERAGE MISS LATENCY: 198.615 cycles
L1I AVERAGE MISS LATENCY LOAD: 198.615 cycles
L1I AVERAGE MISS LATENCY PREFETCH: -nan cycles
L1I AVERAGE MSHR OCCUPANCY: 2.09423e-07
L1I MSHR FULL: 0
L1I RQ	ACCESS:   65166414	FORWARD:          0	MERGED:   22191116	TO_CACHE:   42975298

14e534adc482: 1
14e534ab8cc1: 1
14e534adc5c3: 1
14e534a7e103: 1
14e534a7e0db: 1
55ecb86b3b03: 1
55ecb86b5330: 1
55ecb86b58c4: 1
55ecb86b5900: 1
55ecb86b3cfd: 1
55ecb86b5947: 1
55ecb86b5342: 1
55ecb86b3ac1: 1
BTB TOTAL     ACCESS:   40501981  HIT:   40501627  MISS:        354  HIT %:    99.9991  MISS %: 0.000874031   MPKI: 0.00177
BTB Test counter:          0
BTB BRANCH_DIRECT_JUMP	ACCESS:      40166  HIT:      40120  MISS:         46
BTB BRANCH_INDIRECT	ACCESS:          3  HIT:          2  MISS:          1
BTB BRANCH_CONDITIONAL	ACCESS:   40461171  HIT:   40461068  MISS:        103
BTB BRANCH_DIRECT_CALL	ACCESS:        311  HIT:        267  MISS:         44
BTB BRANCH_INDIRECT_CALL	ACCESS:          9  HIT:          6  MISS:          3
BTB BRANCH_RETURN	ACCESS:        321  HIT:        164  MISS:        157
BTB BRANCH_OTHER ACCESS:          0  HIT:          0  MISS:          0

L2C TOTAL     ACCESS:   11540391  HIT:    6272185  MISS:    5268206  HIT %:    54.3498  MISS %:    45.6502   MPKI: 26.341
L2C Test counter:          0
L2C LOAD      ACCESS:    5036798  HIT:    4220311  MISS:     816487  HIT %:    83.7896  MISS %:    16.2104   MPKI: 4.08244
L2C DATA LOAD MPKI: 4.08237
L2C INSTRUCTION LOAD MPKI: 6.5e-05
L2C RFO       ACCESS:     239007  HIT:       9132  MISS:     229875  HIT %:    3.82081  MISS %:    96.1792   MPKI: 1.14938
L2C PREFETCH  ACCESS:    5428662  HIT:    1239431  MISS:    4189231  HIT %:    22.8312  MISS %:    77.1688   MPKI: 20.9462
L2C DATA PREFETCH MPKI: 20.9462
L2C INSTRUCTION PREFETCH MPKI: 0
L2C WRITEBACK ACCESS:     660210  HIT:     660116  MISS:         94  HIT %:    99.9858  MISS %:  0.0142379   MPKI: 0.00047
L2C LOAD TRANSLATION ACCESS:     175714  HIT:     143195  MISS:      32519  HIT %:    81.4932  MISS %:    18.5068   MPKI: 0.162595
L2C PREFETCH  REQUESTED:    5464151  ISSUED:    5464151  USEFUL:    2525975  USELESS:    1661086
L2C USEFUL LOAD PREFETCHES:    2525975 PREFETCH ISSUED TO LOWER LEVEL:    4212370  ACCURACY: 59.9656
L2C TIMELY PREFETCHES:    2525975 LATE PREFETCHES: 23139 DROPPED PREFETCHES: 0
L2C COMMIT LATE PREFETCHES: 0 MISSED OPPORTUNITY: 0 LATE IN PQ: 0 UNCOVERED: 0
L2C COMMIT LATE MSHR PREFETCHES: 0
L2C MPKI TOTAL: 4.08244 MSHR LATE: 0.115695 PQ LATE: 0 COMMIT LATE: 0 MISSED OPPORTUNITY: 0 UNCOVERED: 0
L2C PREFETCHES SAME FILL-ORIGIN LEVEL: 4212370 DIFFERENT FILL-ORIGIN LEVEL: 0
L2C AVERAGE MISS LATENCY: 165.713 cycles
L2C AVERAGE MISS LATENCY LOAD: 149.75 cycles
L2C AVERAGE MISS LATENCY PREFETCH: 169.349 cycles
L2C AVERAGE MSHR OCCUPANCY: 0.915602
L2C MSHR FULL: 0.000887047
L2C RQ	ACCESS:    5451519	FORWARD:          0	MERGED:          0	TO_CACHE:    5451519
L2C WQ	ACCESS:     660210	FORWARD:          0	MERGED:          0	TO_CACHE:     660210
L2C PQ	ACCESS:    5464151	FORWARD:          0	MERGED:          0	TO_CACHE:    5464151

L2C Instructions Evicting Data 13
L2C Translations Evicting Data 32312
L2C Data Evicting Data 5203186
L2C Instructions Evicting Instructions 0
L2C Translations Evicting Instructions 0
L2C Data Evicting Instructions 16
L2C Instructions Evicting Translations 0
L2C Translations Evicting Translations 207
L2C Data Evicting Translations 32378
L2C Dense regions hint from L2: 0
14e534ad2143: 1
55ecb86b3ace: 1
55ecb86b5782: 1
55ecb86b3b03: 1
14e534ab899f: 1
14e534a7e0db: 1
55ecb86b3e77: 1
55ecb86b5950: 1
55ecb86b593f: 1
14e534ab8d3b: 1
55ecb86b3ac1: 1
55ecb86b3aee: 1
55ecb86b5342: 1
55ecb86b5947: 1
14e534a7e103: 1
55ecb86b5962: 1
14e534adc5c3: 1
55ecb86b54ea: 1
55ecb86b58c4: 1
55ecb86b5330: 1
55ecb86b3cfd: 1
14e534adc482: 1
55ecb86bcca0: 1
14e534ab8cc1: 1
55ecb86b3a8c: 1
55ecb86b55c5: 1
14e534ab5f73: 1
55ecb86b530b: 2
55ecb86b55fe: 2
14e534ab55a7: 2
14e534ab5f10: 2
55ecb86b3e00: 2
14e534ab5574: 2
14e534ab55f4: 2
14e534ab54f8: 2
55ecb86b3330: 3
14e534b53254: 3
14e534aac951: 3
14e534a42230: 3
14e534a7c3bc: 3
14e534a7c5e5: 3
55ecb86b50eb: 3
14e534b53240: 3
55ecb86b3e73: 3
14e534a7c3c3: 3
14e534a7c67a: 3
14e534a7986b: 3
55ecb86b54fc: 3
14e534ab8c4f: 3
14e534b5324b: 3
14e534a7c67e: 3
14e534a7c530: 3
14e534b53247: 3
14e534a42040: 3
55ecb86b3b10: 3
55ecb86b54d5: 3
14e534ab5581: 3
55ecb86b57a1: 3
55ecb86b5914: 3
14e534ab6123: 3
55ecb86b55c0: 3
14e534ab565b: 4
55ecb86b3340: 4
14e534ab8c61: 4
14e534ab8d43: 4
14e534ab80c1: 5
14e535451b30: 5
14e534ab80cf: 5
14e534ab80e3: 5
14e534ab5323: 5
14e534ab558f: 5
14e5354516d0: 5
14e534ab8076: 5
55ecb86b5866: 5
55ecb86b509c: 6
55ecb86b5054: 6
55ecb86b3430: 6
55ecb86b35d0: 6
14e534ab8c45: 7
14e534ab8e55: 7
14e535451d00: 8
14e534adc63e: 8
14e534ab8a09: 8
14e534ab8961: 8
14e534ab8971: 8
14e534ab8c6b: 8
14e534ab58e8: 8
55ecb86b582f: 9
55ecb86b36a0: 9
55ecb86b5019: 9
14e534ab8d1a: 10
14e534ab8978: 10
14e534ab807d: 10
14e534ab8c88: 10
14e534ab898d: 10
55ecb86b3690: 12
14e534adc672: 13
14e5354523f0: 14
7ffe2e0f1d75: 16
14e534adc67f: 119
55ecb86b56c0: 178
55ecb86b5015: 179
55ecb86b56d7: 1257
14e534adc68a: 1630
55ecb86b5838: 1999
55ecb86b5024: 2625
55ecb86b580b: 3415
55ecb86b52ba: 3551
55ecb86b57cb: 9699
55ecb86b5900: 11611
55ecb86b54a0: 12467
55ecb86b57bd: 13940
55ecb86b5020: 18127
55ecb86b57cf: 18472
55ecb86b57e7: 26067
55ecb86b57fd: 26138
55ecb86b5051: 36812
55ecb86b5063: 150314
55ecb86b57d9: 477479
PSCL5 TOTAL     ACCESS:     174823  HIT:     174823  MISS:          0  HIT %:        100  MISS %:          0   MPKI: 0
PSCL5 Test counter:          0
PSCL5 LOAD TRANSLATION ACCESS:     174823  HIT:     174823  MISS:          0  HIT %:        100  MISS %:          0   MPKI: 0
PSCL5 PREFETCH  REQUESTED:          0  ISSUED:          0  USEFUL:          0  USELESS:          0
PSCL5 USEFUL LOAD PREFETCHES:          0 PREFETCH ISSUED TO LOWER LEVEL:          0  ACCURACY: -nan
PSCL5 TIMELY PREFETCHES:          0 LATE PREFETCHES: 0 DROPPED PREFETCHES: 0
PSCL5 COMMIT LATE PREFETCHES: 0 MISSED OPPORTUNITY: 0 LATE IN PQ: 0 UNCOVERED: 0
PSCL5 COMMIT LATE MSHR PREFETCHES: 0
PSCL5 MPKI TOTAL: 0 MSHR LATE: 0 PQ LATE: 0 COMMIT LATE: 0 MISSED OPPORTUNITY: 0 UNCOVERED: 0
PSCL5 PREFETCHES SAME FILL-ORIGIN LEVEL: 0 DIFFERENT FILL-ORIGIN LEVEL: 0

PSCL4 TOTAL     ACCESS:     174823  HIT:     174823  MISS:          0  HIT %:        100  MISS %:          0   MPKI: 0
PSCL4 Test counter:          0
PSCL4 LOAD TRANSLATION ACCESS:     174823  HIT:     174823  MISS:          0  HIT %:        100  MISS %:          0   MPKI: 0
PSCL4 PREFETCH  REQUESTED:          0  ISSUED:          0  USEFUL:          0  USELESS:          0
PSCL4 USEFUL LOAD PREFETCHES:          0 PREFETCH ISSUED TO LOWER LEVEL:          0  ACCURACY: -nan
PSCL4 TIMELY PREFETCHES:          0 LATE PREFETCHES: 0 DROPPED PREFETCHES: 0
PSCL4 COMMIT LATE PREFETCHES: 0 MISSED OPPORTUNITY: 0 LATE IN PQ: 0 UNCOVERED: 0
PSCL4 COMMIT LATE MSHR PREFETCHES: 0
PSCL4 MPKI TOTAL: 0 MSHR LATE: 0 PQ LATE: 0 COMMIT LATE: 0 MISSED OPPORTUNITY: 0 UNCOVERED: 0
PSCL4 PREFETCHES SAME FILL-ORIGIN LEVEL: 0 DIFFERENT FILL-ORIGIN LEVEL: 0

PSCL3 TOTAL     ACCESS:     174823  HIT:     174823  MISS:          0  HIT %:        100  MISS %:          0   MPKI: 0
PSCL3 Test counter:          0
PSCL3 LOAD TRANSLATION ACCESS:     174823  HIT:     174823  MISS:          0  HIT %:        100  MISS %:          0   MPKI: 0
PSCL3 PREFETCH  REQUESTED:          0  ISSUED:          0  USEFUL:          0  USELESS:          0
PSCL3 USEFUL LOAD PREFETCHES:          0 PREFETCH ISSUED TO LOWER LEVEL:          0  ACCURACY: -nan
PSCL3 TIMELY PREFETCHES:          0 LATE PREFETCHES: 0 DROPPED PREFETCHES: 0
PSCL3 COMMIT LATE PREFETCHES: 0 MISSED OPPORTUNITY: 0 LATE IN PQ: 0 UNCOVERED: 0
PSCL3 COMMIT LATE MSHR PREFETCHES: 0
PSCL3 MPKI TOTAL: 0 MSHR LATE: 0 PQ LATE: 0 COMMIT LATE: 0 MISSED OPPORTUNITY: 0 UNCOVERED: 0
PSCL3 PREFETCHES SAME FILL-ORIGIN LEVEL: 0 DIFFERENT FILL-ORIGIN LEVEL: 0

PSCL2 TOTAL     ACCESS:     174823  HIT:     173932  MISS:        891  HIT %:    99.4903  MISS %:   0.509658   MPKI: 0.004455
PSCL2 Test counter:          0
PSCL2 LOAD TRANSLATION ACCESS:     174823  HIT:     173932  MISS:        891  HIT %:    99.4903  MISS %:   0.509658   MPKI: 0.004455
PSCL2 PREFETCH  REQUESTED:          0  ISSUED:          0  USEFUL:          0  USELESS:          0
PSCL2 USEFUL LOAD PREFETCHES:          0 PREFETCH ISSUED TO LOWER LEVEL:          0  ACCURACY: -nan
PSCL2 TIMELY PREFETCHES:          0 LATE PREFETCHES: 0 DROPPED PREFETCHES: 0
PSCL2 COMMIT LATE PREFETCHES: 0 MISSED OPPORTUNITY: 0 LATE IN PQ: 0 UNCOVERED: 0
PSCL2 COMMIT LATE MSHR PREFETCHES: 0
PSCL2 MPKI TOTAL: 0 MSHR LATE: 0 PQ LATE: 0 COMMIT LATE: 0 MISSED OPPORTUNITY: 0 UNCOVERED: 0
PSCL2 PREFETCHES SAME FILL-ORIGIN LEVEL: 0 DIFFERENT FILL-ORIGIN LEVEL: 0

LLC TOTAL     ACCESS:    5897380  HIT:     813447  MISS:    5083933  HIT %:    13.7934  MISS %:    86.2066   MPKI: 25.4197
LLC Test counter:          0
LLC LOAD      ACCESS:     793347  HIT:      69303  MISS:     724044  HIT %:    8.73552  MISS %:    91.2645   MPKI: 3.62022
LLC RFO       ACCESS:     229875  HIT:       4627  MISS:     225248  HIT %:    2.01283  MISS %:    97.9872   MPKI: 1.12624
LLC PREFETCH  ACCESS:    4212368  HIT:     115434  MISS:    4096934  HIT %:    2.74036  MISS %:    97.2596   MPKI: 20.4847
LLC WRITEBACK ACCESS:     629271  HIT:     622096  MISS:       7175  HIT %:    98.8598  MISS %:    1.14021   MPKI: 0.035875
LLC LOAD TRANSLATION ACCESS:      32519  HIT:       1987  MISS:      30532  HIT %:    6.11027  MISS %:    93.8897   MPKI: 0.15266
LLC PREFETCH  REQUESTED:          0  ISSUED:          0  USEFUL:      20433  USELESS:    4073832
LLC USEFUL LOAD PREFETCHES:      20433 PREFETCH ISSUED TO LOWER LEVEL:    4096934  ACCURACY: 0.498739
LLC TIMELY PREFETCHES:      20433 LATE PREFETCHES: 0 DROPPED PREFETCHES: 0
LLC COMMIT LATE PREFETCHES: 0 MISSED OPPORTUNITY: 0 LATE IN PQ: 0 UNCOVERED: 0
LLC COMMIT LATE MSHR PREFETCHES: 0
LLC MPKI TOTAL: 3.62022 MSHR LATE: 0 PQ LATE: 0 COMMIT LATE: 0 MISSED OPPORTUNITY: 0 UNCOVERED: 0
LLC PREFETCHES SAME FILL-ORIGIN LEVEL: 0 DIFFERENT FILL-ORIGIN LEVEL: 0
LLC AVERAGE MISS LATENCY: 140.984 cycles
LLC AVERAGE MISS LATENCY LOAD: 130.951 cycles
LLC AVERAGE MISS LATENCY PREFETCH: 143.649 cycles
LLC AVERAGE MSHR OCCUPANCY: 1.07351
LLC MSHR FULL: 0
LLC RQ	ACCESS:    1055742	FORWARD:          0	MERGED:          0	TO_CACHE:    1055741
LLC WQ	ACCESS:     629271	FORWARD:          3	MERGED:          0	TO_CACHE:     629271
LLC PQ	ACCESS:    4212370	FORWARD:          0	MERGED:          0	TO_CACHE:    4212368

LLC Dense regions hint to LLC: 0
14e534ab8d3b: 1
55ecb86b582f: 1
14e534a7e0db: 1
55ecb86b54ea: 1
55ecb86b5342: 1
55ecb86b58c4: 1
14e534adc5c3: 1
55ecb86b5962: 1
14e534a7e103: 1
55ecb86b3aee: 1
14e534ad2143: 1
55ecb86b5330: 1
14e534adc482: 1
55ecb86b5947: 1
55ecb86b593f: 1
55ecb86b5950: 1
55ecb86b3e77: 1
55ecb86b3ac1: 1
55ecb86b3b03: 1
55ecb86b5782: 1
55ecb86b3ace: 1
55ecb86b3cfd: 1
55ecb86b3a8c: 1
14e534ab8cc1: 1
55ecb86b509c: 1
14e534ab55f4: 1
55ecb86b55c0: 1
55ecb86b57a1: 1
55ecb86bcca0: 1
14e534ab5f73: 1
55ecb86b5019: 2
55ecb86b3e00: 2
55ecb86b530b: 2
14e534ab5f10: 2
14e534ab5574: 2
14e534ab54f8: 2
55ecb86b55fe: 2
14e534ab55a7: 2
14e534ab565b: 3
55ecb86b54fc: 3
14e534b53247: 3
55ecb86b3340: 3
14e534ab6123: 3
55ecb86b3b10: 3
55ecb86b5914: 3
14e534adc63e: 3
14e534b53240: 3
14e534a7c67a: 3
14e534a42230: 3
14e534aac951: 3
55ecb86b5054: 3
14e534a42040: 3
14e534ab8c4f: 3
14e534b5324b: 3
55ecb86b3e73: 3
14e534a7986b: 3
55ecb86b54d5: 3
55ecb86b50eb: 3
14e534a7c67e: 3
14e534a7c530: 3
14e534ab8c61: 3
14e534a7c3c3: 3
14e534ab5581: 3
14e534ab8d43: 3
14e534a7c5e5: 3
14e534a7c3bc: 3
55ecb86b3330: 3
14e534b53254: 3
14e534ab80cf: 5
14e534ab8076: 5
55ecb86b5866: 5
14e5354516d0: 5
14e534ab8e55: 5
14e534ab558f: 5
14e534ab80e3: 5
14e534ab80c1: 5
55ecb86b36a0: 5
14e534ab5323: 5
55ecb86b3430: 5
14e535451d00: 6
14e534ab8c6b: 6
55ecb86b35d0: 6
14e534ab8971: 6
14e534ab8a09: 6
14e534ab8c45: 6
14e534ab8c88: 6
14e534ab58e8: 6
14e534ab8961: 7
14e534ab8978: 8
14e534ab8d1a: 8
14e534ab898d: 9
14e534ab807d: 9
14e534adc672: 10
14e5354523f0: 12
55ecb86b3690: 12
7ffe2e0f1d75: 15
55ecb86b5015: 58
55ecb86b56c0: 68
14e534adc68a: 111
55ecb86b56d7: 420
55ecb86b580b: 1420
55ecb86b5838: 1575
55ecb86b5024: 2318
55ecb86b52ba: 3193
55ecb86b57e7: 7870
55ecb86b57cb: 9654
55ecb86b5900: 9782
55ecb86b54a0: 12330
55ecb86b57bd: 13906
55ecb86b5020: 16054
55ecb86b57cf: 18421
55ecb86b57fd: 25239
55ecb86b5051: 36531
55ecb86b5063: 96255
55ecb86b57d9: 468510

RAW hits: 182191
Loads Generated: 49148151
Loads sent to L1D: 48965960
Stores Generated: 7109412
Stores sent to L1D: 7109411
Major fault: 0 Minor fault: 27368
Allocated PAGES: 27368
Total Load insts: 61477169
Total Non-spec loads: 14981752
Percentage of speculative loads: 75.6304
L1D response latency: 39.275 cycles
Load retirement latency: 63.6762 cycles

[Bingo] PHT Access: 442781
[Bingo] PHT Hit PC+Addr: 25480
[Bingo] PHT Hit PC+Offs: 416527
[Bingo] PHT Miss: 774
[Bingo] Prefetch PC+Addr: 0
[Bingo] Prefetch PC+Offs: 0
[Bingo] Useful PC+Addr: 0
[Bingo] Useful PC+Offs: 0
[Bingo] Useless PC+Addr: 0
[Bingo] Useless PC+Offs: 0
[Bingo] L1 Prefetch per Region: 0
[Bingo] L2 Prefetch per Region: 13.5587
[Bingo] L3 Prefetch per Region: 0
[Bingo] No Prefetch per Region: 18.4413
[Bingo] Number of Voters Mean: 15.9268
[Bingo] Number of Voters SD: 9.17115
PHT read accesses: 6877711
PHT write accesses: 321632
AT read accesses: 4664861
AT write accesses: 4915362
FT read accesses: 988717
FT write accesses: 442781
PS read accesses: 1047921
PS write accesses: 442007
PHT tag read accesses: 16847322
PHT tag write accesses: 347112
AT tag read accesses: 179787583
AT tag write accesses: 4986496
FT tag read accesses: 112111268
FT tag write accesses: 1109586
PS tag read accesses: 97264568
PS tag write accesses: 1485452

DRAM Statistics
 CHANNEL 0
 RQ ROW_BUFFER_HIT:    3616363  ROW_BUFFER_MISS:    1460368
 DBUS_CONGESTED:        574
 WQ ROW_BUFFER_HIT:     146317  ROW_BUFFER_MISS:     467870  FULL:          0

 AVG_CONGESTED_CYCLE: 4
 All warmup complete: 2
Channel 0 Bank busy for read cycles: 0
Channel 0 Bank busy for write cycles: 0
Channel 0
Rank 0
0banks busy for read cycles: 440906195
0banks busy for write cycles: 225592
1banks busy for read cycles: 67229744
1banks busy for write cycles: 26206315
2banks busy for read cycles: 11705174
2banks busy for write cycles: 7384958
3banks busy for read cycles: 7854441
3banks busy for write cycles: 4152073
4banks busy for read cycles: 5770112
4banks busy for write cycles: 2299691
5banks busy for read cycles: 4471858
5banks busy for write cycles: 1263402
6banks busy for read cycles: 4406473
6banks busy for write cycles: 737805
7banks busy for read cycles: 7976038
7banks busy for write cycles: 730076
8banks busy for read cycles: 19786969
8banks busy for write cycles: 2712121

CPU 0 Branch Prediction Accuracy: 86.5484% MPKI: 28.7876 Average ROB Occupancy at Mispredict: 8.7196
Branch types
NOT_BRANCH: 157198344 78.5992%
BRANCH_DIRECT_JUMP: 40166 0.020083%
BRANCH_INDIRECT: 3 1.5e-06%
BRANCH_CONDITIONAL: 42760841 21.3804%
BRANCH_DIRECT_CALL: 311 0.0001555%
BRANCH_INDIRECT_CALL: 9 4.5e-06%
BRANCH_RETURN: 321 0.0001605%
BRANCH_OTHER: 0 0%

DRAM PAGES: 1048576
Allocated PAGES: 27368
