
*** ChampSim Multicore Out-of-Order Simulator ***

Warmup Instructions: 50000000
Simulation Instructions: 200000000
Number of CPUs: 1
LLC sets: 2048
LLC ways: 16
Secure Berti: OFF
Berti: OFF
Berti Fill: OFF
On commit prefetching: OFF
L2 LLC Bypass speculative loads: OFF
Off-chip DRAM Size: 4096 MB Channels: 1 Width: 64-bit Data Rate: 6400 MT/s
CPU 0 runs /home/sumon/secure_berti/Berti_Baseline/../../traces/gap/cc-13.trace.gz
.gz
BTB has LRU replacement policy
ITLB has LRU replacement policy
DTLB has LRU replacement policy
STLB has LRU replacement policy
L1I has LRU replacement policy
L1D has LRU replacement policy
Bingo PHT WAYS: 16 and PHT_SIZE: 16384
L2C has LRU replacement policy
LLC has LRU replacement policy
Heartbeat CPU 0 instructions: 10000003 cycles: 2972130 heartbeat IPC: 3.36459 cumulative IPC: 3.36459 (Simulation time: 0 hr 0 min 21 sec) 
Heartbeat CPU 0 instructions: 20000000 cycles: 5906168 heartbeat IPC: 3.40827 cumulative IPC: 3.38629 (Simulation time: 0 hr 0 min 45 sec) 
Heartbeat CPU 0 instructions: 30000003 cycles: 8844450 heartbeat IPC: 3.40335 cumulative IPC: 3.39196 (Simulation time: 0 hr 1 min 9 sec) 
Heartbeat CPU 0 instructions: 40000001 cycles: 11784688 heartbeat IPC: 3.40108 cumulative IPC: 3.39424 (Simulation time: 0 hr 1 min 33 sec) 
Heartbeat CPU 0 instructions: 50000001 cycles: 14730876 heartbeat IPC: 3.39422 cumulative IPC: 3.39423 (Simulation time: 0 hr 1 min 57 sec) 

Warmup complete CPU 0 instructions: 50000001 cycles: 14730876 (Simulation time: 0 hr 1 min 57 sec) 

Heartbeat CPU 0 instructions: 60000000 cycles: 65782329 heartbeat IPC: 0.195881 cumulative IPC: 0.195881 (Simulation time: 0 hr 2 min 34 sec) 
Heartbeat CPU 0 instructions: 70000000 cycles: 115292268 heartbeat IPC: 0.20198 cumulative IPC: 0.198883 (Simulation time: 0 hr 3 min 11 sec) 
Heartbeat CPU 0 instructions: 80000002 cycles: 164705300 heartbeat IPC: 0.202376 cumulative IPC: 0.200034 (Simulation time: 0 hr 3 min 50 sec) 
Heartbeat CPU 0 instructions: 90000003 cycles: 214645421 heartbeat IPC: 0.20024 cumulative IPC: 0.200086 (Simulation time: 0 hr 4 min 29 sec) 
Heartbeat CPU 0 instructions: 100000003 cycles: 261664997 heartbeat IPC: 0.212677 cumulative IPC: 0.202483 (Simulation time: 0 hr 5 min 7 sec) 
Heartbeat CPU 0 instructions: 110000000 cycles: 308713420 heartbeat IPC: 0.212547 cumulative IPC: 0.204094 (Simulation time: 0 hr 5 min 44 sec) 
Heartbeat CPU 0 instructions: 120000000 cycles: 356204658 heartbeat IPC: 0.210565 cumulative IPC: 0.204994 (Simulation time: 0 hr 6 min 21 sec) 
Heartbeat CPU 0 instructions: 130000000 cycles: 405382840 heartbeat IPC: 0.203342 cumulative IPC: 0.204786 (Simulation time: 0 hr 6 min 58 sec) 
Heartbeat CPU 0 instructions: 140000000 cycles: 453996517 heartbeat IPC: 0.205703 cumulative IPC: 0.204887 (Simulation time: 0 hr 7 min 34 sec) 
Heartbeat CPU 0 instructions: 150000000 cycles: 498288534 heartbeat IPC: 0.225774 cumulative IPC: 0.206801 (Simulation time: 0 hr 8 min 10 sec) 
Heartbeat CPU 0 instructions: 160000002 cycles: 545734254 heartbeat IPC: 0.210767 cumulative IPC: 0.207155 (Simulation time: 0 hr 8 min 45 sec) 
Heartbeat CPU 0 instructions: 170000000 cycles: 593982064 heartbeat IPC: 0.207263 cumulative IPC: 0.207164 (Simulation time: 0 hr 9 min 20 sec) 
Heartbeat CPU 0 instructions: 180000003 cycles: 641735794 heartbeat IPC: 0.209408 cumulative IPC: 0.207335 (Simulation time: 0 hr 9 min 55 sec) 
Heartbeat CPU 0 instructions: 190000003 cycles: 689116939 heartbeat IPC: 0.211054 cumulative IPC: 0.207596 (Simulation time: 0 hr 10 min 30 sec) 
Heartbeat CPU 0 instructions: 200000000 cycles: 737256364 heartbeat IPC: 0.20773 cumulative IPC: 0.207605 (Simulation time: 0 hr 11 min 5 sec) 
Heartbeat CPU 0 instructions: 210000000 cycles: 783620742 heartbeat IPC: 0.215683 cumulative IPC: 0.208092 (Simulation time: 0 hr 11 min 40 sec) 
Heartbeat CPU 0 instructions: 220000000 cycles: 831703059 heartbeat IPC: 0.207977 cumulative IPC: 0.208085 (Simulation time: 0 hr 12 min 15 sec) 
Heartbeat CPU 0 instructions: 230000000 cycles: 878356108 heartbeat IPC: 0.214348 cumulative IPC: 0.208424 (Simulation time: 0 hr 12 min 50 sec) 
Heartbeat CPU 0 instructions: 240000000 cycles: 926440090 heartbeat IPC: 0.207969 cumulative IPC: 0.2084 (Simulation time: 0 hr 13 min 24 sec) 
Heartbeat CPU 0 instructions: 250000000 cycles: 973183229 heartbeat IPC: 0.213935 cumulative IPC: 0.20867 (Simulation time: 0 hr 13 min 59 sec) 
Finished CPU 0 instructions: 200000003 cycles: 958452354 cumulative IPC: 0.20867 (Simulation time: 0 hr 13 min 59 sec) 

ChampSim completed all CPUs

Region of Interest Statistics

CPU 0 cumulative IPC: 0.20867 instructions: 200000003 cycles: 958452354
ITLB TOTAL     ACCESS:   31301334  HIT:   31301334  MISS:          0  HIT %:        100  MISS %:          0   MPKI: 0
ITLB Test counter:          0
ITLB LOAD TRANSLATION ACCESS:   31301334  HIT:   31301334  MISS:          0  HIT %:        100  MISS %:          0   MPKI: 0
ITLB PREFETCH  REQUESTED:          0  ISSUED:          0  USEFUL:          0  USELESS:          0
ITLB USEFUL LOAD PREFETCHES:          0 PREFETCH ISSUED TO LOWER LEVEL:          0  ACCURACY: -nan
ITLB TIMELY PREFETCHES:          0 LATE PREFETCHES: 0 DROPPED PREFETCHES: 0
ITLB COMMIT LATE PREFETCHES: 0 MISSED OPPORTUNITY: 0 LATE IN PQ: 0 UNCOVERED: 0
ITLB COMMIT LATE MSHR PREFETCHES: 0
ITLB MPKI TOTAL: 0 MSHR LATE: 0 PQ LATE: 0 COMMIT LATE: 0 MISSED OPPORTUNITY: 0 UNCOVERED: 0
ITLB PREFETCHES SAME FILL-ORIGIN LEVEL: 0 DIFFERENT FILL-ORIGIN LEVEL: 0
ITLB AVERAGE MISS LATENCY: -nan cycles
ITLB AVERAGE MISS LATENCY LOAD: -nan cycles
ITLB AVERAGE MISS LATENCY PREFETCH: -nan cycles
ITLB AVERAGE MSHR OCCUPANCY: 0
ITLB MSHR FULL: 0
ITLB RQ	ACCESS:   31770566	FORWARD:          0	MERGED:     469233	TO_CACHE:   31301333

DTLB TOTAL     ACCESS:   41412641  HIT:   31371392  MISS:   10041249  HIT %:    75.7532  MISS %:    24.2468   MPKI: 50.2062
DTLB Test counter:          0
DTLB LOAD TRANSLATION ACCESS:   41412641  HIT:   31371392  MISS:   10041249  HIT %:    75.7532  MISS %:    24.2468   MPKI: 50.2062
DTLB PREFETCH  REQUESTED:          0  ISSUED:          0  USEFUL:          0  USELESS:          0
DTLB USEFUL LOAD PREFETCHES:          0 PREFETCH ISSUED TO LOWER LEVEL:          0  ACCURACY: -nan
DTLB TIMELY PREFETCHES:          0 LATE PREFETCHES: 0 DROPPED PREFETCHES: 0
DTLB COMMIT LATE PREFETCHES: 0 MISSED OPPORTUNITY: 0 LATE IN PQ: 0 UNCOVERED: 0
DTLB COMMIT LATE MSHR PREFETCHES: 0
DTLB MPKI TOTAL: 0 MSHR LATE: 0 PQ LATE: 0 COMMIT LATE: 0 MISSED OPPORTUNITY: 0 UNCOVERED: 0
DTLB PREFETCHES SAME FILL-ORIGIN LEVEL: 0 DIFFERENT FILL-ORIGIN LEVEL: 0
DTLB AVERAGE MISS LATENCY: 9.56292 cycles
DTLB AVERAGE MISS LATENCY LOAD: -nan cycles
DTLB AVERAGE MISS LATENCY PREFETCH: -nan cycles
DTLB AVERAGE MSHR OCCUPANCY: 0.30019
DTLB MSHR FULL: 0.00231385
DTLB RQ	ACCESS:   43363258	FORWARD:          0	MERGED:    1901755	TO_CACHE:   41461503

STLB TOTAL     ACCESS:   10041248  HIT:   10026228  MISS:      15020  HIT %:    99.8504  MISS %:   0.149583   MPKI: 0.0751
STLB Test counter:          0
STLB LOAD TRANSLATION ACCESS:   10041248  HIT:   10026228  MISS:      15020  HIT %:    99.8504  MISS %:   0.149583   MPKI: 0.0751
STLB PREFETCH  REQUESTED:          0  ISSUED:          0  USEFUL:          0  USELESS:          0
STLB USEFUL LOAD PREFETCHES:          0 PREFETCH ISSUED TO LOWER LEVEL:          0  ACCURACY: -nan
STLB TIMELY PREFETCHES:          0 LATE PREFETCHES: 0 DROPPED PREFETCHES: 0
STLB COMMIT LATE PREFETCHES: 0 MISSED OPPORTUNITY: 0 LATE IN PQ: 0 UNCOVERED: 0
STLB COMMIT LATE MSHR PREFETCHES: 0
STLB MPKI TOTAL: 0 MSHR LATE: 0 PQ LATE: 0 COMMIT LATE: 0 MISSED OPPORTUNITY: 0 UNCOVERED: 0
STLB PREFETCHES SAME FILL-ORIGIN LEVEL: 0 DIFFERENT FILL-ORIGIN LEVEL: 0
STLB AVERAGE MISS LATENCY: 139.695 cycles
STLB AVERAGE MISS LATENCY LOAD: -nan cycles
STLB AVERAGE MISS LATENCY PREFETCH: -nan cycles
STLB AVERAGE MSHR OCCUPANCY: 0.00074662
STLB MSHR FULL: 0
STLB RQ	ACCESS:   10041248	FORWARD:          0	MERGED:          0	TO_CACHE:   10041248

STLB Hit, L1D data hit: 0
STLB Hit, L2C data hit: 0
STLB Hit, LLC data hit: 0
STLB Hit, LLC data miss: 0
STLB STLB hints to L2: 0
L1D TOTAL     ACCESS:   42995837  HIT:   27730391  MISS:   15265446  HIT %:    64.4955  MISS %:    35.5045   MPKI: 76.3272
L1D Test counter:          0
L1D LOAD      ACCESS:   42748792  HIT:   27483346  MISS:   15632869  HIT %:    64.2903  MISS %:    35.7097   MPKI: 76.3272
L1D RFO       ACCESS:     247045  HIT:     247045  MISS:          0  HIT %:        100  MISS %:          0   MPKI: 0
L1D PREFETCH  REQUESTED:          0  ISSUED:          0  USEFUL:          0  USELESS:          0
L1D USEFUL LOAD PREFETCHES:          0 PREFETCH ISSUED TO LOWER LEVEL:          0  ACCURACY: -nan
L1D TIMELY PREFETCHES:          0 LATE PREFETCHES: 0 DROPPED PREFETCHES: 0
L1D COMMIT LATE PREFETCHES: 0 MISSED OPPORTUNITY: 0 LATE IN PQ: 0 UNCOVERED: 0
L1D COMMIT LATE MSHR PREFETCHES: 0
L1D MPKI TOTAL: 78.1643 MSHR LATE: 0 PQ LATE: 0 COMMIT LATE: 0 MISSED OPPORTUNITY: 0 UNCOVERED: 0
L1D PREFETCHES SAME FILL-ORIGIN LEVEL: 0 DIFFERENT FILL-ORIGIN LEVEL: 0
L1D AVERAGE MISS LATENCY: 77.1568 cycles
L1D AVERAGE MISS LATENCY LOAD: 77.1568 cycles
L1D AVERAGE MISS LATENCY PREFETCH: -nan cycles
L1D AVERAGE MSHR OCCUPANCY: 1.32692
L1D MSHR FULL: 0
L1D RQ	ACCESS:   55702856	FORWARD:          0	MERGED:   12586074	TO_CACHE:   43116213
L1D WQ	ACCESS:     247045	FORWARD:        569	MERGED:          0	TO_CACHE:     247045

L1D UNIQUE REGIONS ACCESSED: 0
L1D REGIONS CONFLICTS: 0
L1D Cross Page Prefetch Requests: 0
L1D Same Page Prefetch Requests: 0
L1D ROI Sum of L1D PQ occupancy: 0
L1D PREFETCHES PUSHED FROM L2C: 0
55cf028a1244: 3475
55cf028a1240: 3559
55cf028a1263: 30036
55cf028a1248: 60581
55cf028a127b: 608675
55cf028a1260: 900728
55cf028a1266: 13658392
L1I TOTAL     ACCESS:   31770567  HIT:   31770567  MISS:          0  HIT %:        100  MISS %:          0   MPKI: 0
L1I Test counter:          0
L1I LOAD      ACCESS:   31770567  HIT:   31770567  MISS:          0  HIT %:        100  MISS %:          0   MPKI: 0
L1I PREFETCH  REQUESTED:          0  ISSUED:          0  USEFUL:          0  USELESS:          0
L1I USEFUL LOAD PREFETCHES:          0 PREFETCH ISSUED TO LOWER LEVEL:          0  ACCURACY: -nan
L1I TIMELY PREFETCHES:          0 LATE PREFETCHES: 0 DROPPED PREFETCHES: 0
L1I COMMIT LATE PREFETCHES: 0 MISSED OPPORTUNITY: 0 LATE IN PQ: 0 UNCOVERED: 0
L1I COMMIT LATE MSHR PREFETCHES: 0
L1I MPKI TOTAL: 0 MSHR LATE: 0 PQ LATE: 0 COMMIT LATE: 0 MISSED OPPORTUNITY: 0 UNCOVERED: 0
L1I PREFETCHES SAME FILL-ORIGIN LEVEL: 0 DIFFERENT FILL-ORIGIN LEVEL: 0
L1I AVERAGE MISS LATENCY: -nan cycles
L1I AVERAGE MISS LATENCY LOAD: -nan cycles
L1I AVERAGE MISS LATENCY PREFETCH: -nan cycles
L1I AVERAGE MSHR OCCUPANCY: 0
L1I MSHR FULL: 0
L1I RQ	ACCESS:   56249396	FORWARD:          0	MERGED:   24478830	TO_CACHE:   31770566

BTB TOTAL     ACCESS:   40650073  HIT:   40650068  MISS:          5  HIT %:        100  MISS %: 1.23001e-05   MPKI: 2.5e-05
BTB Test counter:          0
BTB BRANCH_DIRECT_JUMP	ACCESS:          0  HIT:          0  MISS:          0
BTB BRANCH_INDIRECT	ACCESS:          0  HIT:          0  MISS:          0
BTB BRANCH_CONDITIONAL	ACCESS:   40650073  HIT:   40650068  MISS:          5
BTB BRANCH_DIRECT_CALL	ACCESS:          0  HIT:          0  MISS:          0
BTB BRANCH_INDIRECT_CALL	ACCESS:          0  HIT:          0  MISS:          0
BTB BRANCH_RETURN	ACCESS:          0  HIT:          0  MISS:          0
BTB BRANCH_OTHER ACCESS:          0  HIT:          0  MISS:          0

L2C TOTAL     ACCESS:   24948551  HIT:    7480388  MISS:   17468163  HIT %:    29.9833  MISS %:    70.0167   MPKI: 87.3408
L2C Test counter:          0
L2C LOAD      ACCESS:   15265445  HIT:    5198819  MISS:   10066628  HIT %:    34.0561  MISS %:    65.9439   MPKI: 50.3331
L2C DATA LOAD MPKI: 50.3331
L2C INSTRUCTION LOAD MPKI: 0
L2C PREFETCH  ACCESS:    9472206  HIT:    2073988  MISS:    7398218  HIT %:    21.8955  MISS %:    78.1045   MPKI: 36.9911
L2C DATA PREFETCH MPKI: 36.9911
L2C INSTRUCTION PREFETCH MPKI: 0
L2C WRITEBACK ACCESS:     195880  HIT:     195277  MISS:        603  HIT %:    99.6922  MISS %:   0.307842   MPKI: 0.003015
L2C LOAD TRANSLATION ACCESS:      15020  HIT:      12304  MISS:       2716  HIT %:    81.9174  MISS %:    18.0826   MPKI: 0.01358
L2C PREFETCH  REQUESTED:    9610343  ISSUED:    9610343  USEFUL:    1443425  USELESS:    5954829
L2C USEFUL LOAD PREFETCHES:    1443425 PREFETCH ISSUED TO LOWER LEVEL:    7476781  ACCURACY: 19.3054
L2C TIMELY PREFETCHES:    1443425 LATE PREFETCHES: 78564 DROPPED PREFETCHES: 0
L2C COMMIT LATE PREFETCHES: 0 MISSED OPPORTUNITY: 0 LATE IN PQ: 0 UNCOVERED: 0
L2C COMMIT LATE MSHR PREFETCHES: 0
L2C MPKI TOTAL: 50.3331 MSHR LATE: 0.39282 PQ LATE: 0 COMMIT LATE: 0 MISSED OPPORTUNITY: 0 UNCOVERED: 0
L2C PREFETCHES SAME FILL-ORIGIN LEVEL: 7476781 DIFFERENT FILL-ORIGIN LEVEL: 0
L2C AVERAGE MISS LATENCY: 111.508 cycles
L2C AVERAGE MISS LATENCY LOAD: 94.1074 cycles
L2C AVERAGE MISS LATENCY PREFETCH: 135.177 cycles
L2C AVERAGE MSHR OCCUPANCY: 2.34908
L2C MSHR FULL: 0.000406827
L2C RQ	ACCESS:   15280468	FORWARD:          0	MERGED:          0	TO_CACHE:   15280467
L2C WQ	ACCESS:     195880	FORWARD:          1	MERGED:          0	TO_CACHE:     195880
L2C PQ	ACCESS:    9610343	FORWARD:          0	MERGED:          0	TO_CACHE:    9610343

L2C Instructions Evicting Data 0
L2C Translations Evicting Data 2716
L2C Data Evicting Data 17462127
L2C Instructions Evicting Instructions 0
L2C Translations Evicting Instructions 0
L2C Data Evicting Instructions 0
L2C Instructions Evicting Translations 0
L2C Translations Evicting Translations 0
L2C Data Evicting Translations 2717
L2C Dense regions hint from L2: 0
55cf028a1244: 193
55cf028a1240: 1198
55cf028a1263: 3203
55cf028a1248: 7587
55cf028a1260: 28188
55cf028a127b: 139807
55cf028a1266: 9886450
PSCL5 TOTAL     ACCESS:      15020  HIT:      15020  MISS:          0  HIT %:        100  MISS %:          0   MPKI: 0
PSCL5 Test counter:          0
PSCL5 LOAD TRANSLATION ACCESS:      15020  HIT:      15020  MISS:          0  HIT %:        100  MISS %:          0   MPKI: 0
PSCL5 PREFETCH  REQUESTED:          0  ISSUED:          0  USEFUL:          0  USELESS:          0
PSCL5 USEFUL LOAD PREFETCHES:          0 PREFETCH ISSUED TO LOWER LEVEL:          0  ACCURACY: -nan
PSCL5 TIMELY PREFETCHES:          0 LATE PREFETCHES: 0 DROPPED PREFETCHES: 0
PSCL5 COMMIT LATE PREFETCHES: 0 MISSED OPPORTUNITY: 0 LATE IN PQ: 0 UNCOVERED: 0
PSCL5 COMMIT LATE MSHR PREFETCHES: 0
PSCL5 MPKI TOTAL: 0 MSHR LATE: 0 PQ LATE: 0 COMMIT LATE: 0 MISSED OPPORTUNITY: 0 UNCOVERED: 0
PSCL5 PREFETCHES SAME FILL-ORIGIN LEVEL: 0 DIFFERENT FILL-ORIGIN LEVEL: 0

PSCL4 TOTAL     ACCESS:      15020  HIT:      15020  MISS:          0  HIT %:        100  MISS %:          0   MPKI: 0
PSCL4 Test counter:          0
PSCL4 LOAD TRANSLATION ACCESS:      15020  HIT:      15020  MISS:          0  HIT %:        100  MISS %:          0   MPKI: 0
PSCL4 PREFETCH  REQUESTED:          0  ISSUED:          0  USEFUL:          0  USELESS:          0
PSCL4 USEFUL LOAD PREFETCHES:          0 PREFETCH ISSUED TO LOWER LEVEL:          0  ACCURACY: -nan
PSCL4 TIMELY PREFETCHES:          0 LATE PREFETCHES: 0 DROPPED PREFETCHES: 0
PSCL4 COMMIT LATE PREFETCHES: 0 MISSED OPPORTUNITY: 0 LATE IN PQ: 0 UNCOVERED: 0
PSCL4 COMMIT LATE MSHR PREFETCHES: 0
PSCL4 MPKI TOTAL: 0 MSHR LATE: 0 PQ LATE: 0 COMMIT LATE: 0 MISSED OPPORTUNITY: 0 UNCOVERED: 0
PSCL4 PREFETCHES SAME FILL-ORIGIN LEVEL: 0 DIFFERENT FILL-ORIGIN LEVEL: 0

PSCL3 TOTAL     ACCESS:      15020  HIT:      15020  MISS:          0  HIT %:        100  MISS %:          0   MPKI: 0
PSCL3 Test counter:          0
PSCL3 LOAD TRANSLATION ACCESS:      15020  HIT:      15020  MISS:          0  HIT %:        100  MISS %:          0   MPKI: 0
PSCL3 PREFETCH  REQUESTED:          0  ISSUED:          0  USEFUL:          0  USELESS:          0
PSCL3 USEFUL LOAD PREFETCHES:          0 PREFETCH ISSUED TO LOWER LEVEL:          0  ACCURACY: -nan
PSCL3 TIMELY PREFETCHES:          0 LATE PREFETCHES: 0 DROPPED PREFETCHES: 0
PSCL3 COMMIT LATE PREFETCHES: 0 MISSED OPPORTUNITY: 0 LATE IN PQ: 0 UNCOVERED: 0
PSCL3 COMMIT LATE MSHR PREFETCHES: 0
PSCL3 MPKI TOTAL: 0 MSHR LATE: 0 PQ LATE: 0 COMMIT LATE: 0 MISSED OPPORTUNITY: 0 UNCOVERED: 0
PSCL3 PREFETCHES SAME FILL-ORIGIN LEVEL: 0 DIFFERENT FILL-ORIGIN LEVEL: 0

PSCL2 TOTAL     ACCESS:      15020  HIT:      14990  MISS:         30  HIT %:    99.8003  MISS %:   0.199734   MPKI: 0.00015
PSCL2 Test counter:          0
PSCL2 LOAD TRANSLATION ACCESS:      15020  HIT:      14990  MISS:         30  HIT %:    99.8003  MISS %:   0.199734   MPKI: 0.00015
PSCL2 PREFETCH  REQUESTED:          0  ISSUED:          0  USEFUL:          0  USELESS:          0
PSCL2 USEFUL LOAD PREFETCHES:          0 PREFETCH ISSUED TO LOWER LEVEL:          0  ACCURACY: -nan
PSCL2 TIMELY PREFETCHES:          0 LATE PREFETCHES: 0 DROPPED PREFETCHES: 0
PSCL2 COMMIT LATE PREFETCHES: 0 MISSED OPPORTUNITY: 0 LATE IN PQ: 0 UNCOVERED: 0
PSCL2 COMMIT LATE MSHR PREFETCHES: 0
PSCL2 MPKI TOTAL: 0 MSHR LATE: 0 PQ LATE: 0 COMMIT LATE: 0 MISSED OPPORTUNITY: 0 UNCOVERED: 0
PSCL2 PREFETCHES SAME FILL-ORIGIN LEVEL: 0 DIFFERENT FILL-ORIGIN LEVEL: 0

LLC TOTAL     ACCESS:   17663300  HIT:    8844533  MISS:    8818767  HIT %:    50.0729  MISS %:    49.9271   MPKI: 44.0938
LLC Test counter:          0
LLC LOAD      ACCESS:    9988064  HIT:    5880383  MISS:    4107681  HIT %:    58.8741  MISS %:    41.1259   MPKI: 20.5384
LLC PREFETCH  ACCESS:    7476781  HIT:    2768010  MISS:    4708771  HIT %:    37.0214  MISS %:    62.9786   MPKI: 23.5439
LLC WRITEBACK ACCESS:     195739  HIT:     195403  MISS:        336  HIT %:    99.8283  MISS %:   0.171657   MPKI: 0.00168
LLC LOAD TRANSLATION ACCESS:       2716  HIT:        737  MISS:       1979  HIT %:    27.1355  MISS %:    72.8645   MPKI: 0.009895
LLC PREFETCH  REQUESTED:          0  ISSUED:          0  USEFUL:     679725  USELESS:    4025843
LLC USEFUL LOAD PREFETCHES:     679725 PREFETCH ISSUED TO LOWER LEVEL:    4708771  ACCURACY: 14.4353
LLC TIMELY PREFETCHES:     679725 LATE PREFETCHES: 0 DROPPED PREFETCHES: 0
LLC COMMIT LATE PREFETCHES: 0 MISSED OPPORTUNITY: 0 LATE IN PQ: 0 UNCOVERED: 0
LLC COMMIT LATE MSHR PREFETCHES: 0
LLC MPKI TOTAL: 20.5384 MSHR LATE: 0 PQ LATE: 0 COMMIT LATE: 0 MISSED OPPORTUNITY: 0 UNCOVERED: 0
LLC PREFETCHES SAME FILL-ORIGIN LEVEL: 0 DIFFERENT FILL-ORIGIN LEVEL: 0
LLC AVERAGE MISS LATENCY: 161.703 cycles
LLC AVERAGE MISS LATENCY LOAD: 155.889 cycles
LLC AVERAGE MISS LATENCY PREFETCH: 166.78 cycles
LLC AVERAGE MSHR OCCUPANCY: 1.4251
LLC MSHR FULL: 0
LLC RQ	ACCESS:    9990780	FORWARD:          0	MERGED:          0	TO_CACHE:    9990780
LLC WQ	ACCESS:     195739	FORWARD:          1	MERGED:          0	TO_CACHE:     195739
LLC PQ	ACCESS:    7476781	FORWARD:          0	MERGED:          0	TO_CACHE:    7476780

LLC Dense regions hint to LLC: 0
55cf028a1244: 10
55cf028a1240: 89
55cf028a1263: 1916
55cf028a1248: 7344
55cf028a1260: 28173
55cf028a127b: 39553
55cf028a1266: 4030596

RAW hits: 29705
Loads Generated: 55732561
Loads sent to L1D: 55702856
Stores Generated: 247045
Stores sent to L1D: 247045
Major fault: 0 Minor fault: 19633
Allocated PAGES: 19633
Total Load insts: 68635954
Total Non-spec loads: 13795831
Percentage of speculative loads: 79.9
L1D response latency: 77.1568 cycles
Load retirement latency: 155.054 cycles

[Bingo] PHT Access: 10625675
[Bingo] PHT Hit PC+Addr: 714087
[Bingo] PHT Hit PC+Offs: 9907489
[Bingo] PHT Miss: 4099
[Bingo] Prefetch PC+Addr: 0
[Bingo] Prefetch PC+Offs: 0
[Bingo] Useful PC+Addr: 0
[Bingo] Useful PC+Offs: 0
[Bingo] Useless PC+Addr: 0
[Bingo] Useless PC+Offs: 0
[Bingo] L1 Prefetch per Region: 0
[Bingo] L2 Prefetch per Region: 1.91553
[Bingo] L3 Prefetch per Region: 0
[Bingo] No Prefetch per Region: 30.0845
[Bingo] Number of Voters Mean: 15.9999
[Bingo] Number of Voters SD: 7.6731
PHT read accesses: 164021355
PHT write accesses: 1848890
AT read accesses: 5393969
AT write accesses: 6488523
FT read accesses: 5955111
FT write accesses: 10625675
PS read accesses: 21319935
PS write accesses: 10621576
PHT tag read accesses: 221183926
PHT tag write accesses: 2562977
AT tag read accesses: 606485295
AT tag write accesses: 7242879
FT tag read accesses: 830976094
FT tag write accesses: 14731717
PS tag read accesses: 596856984
PS tag write accesses: 31922990

DRAM Statistics
 CHANNEL 0
 RQ ROW_BUFFER_HIT:    3256611  ROW_BUFFER_MISS:    5561785
 DBUS_CONGESTED:       1860
 WQ ROW_BUFFER_HIT:      70692  ROW_BUFFER_MISS:     123722  FULL:          0

 AVG_CONGESTED_CYCLE: 4
 All warmup complete: 2
Channel 0 Bank busy for read cycles: 0
Channel 0 Bank busy for write cycles: 0
Channel 0
Rank 0
0banks busy for read cycles: 434444441
0banks busy for write cycles: 153545
1banks busy for read cycles: 243303471
1banks busy for write cycles: 29530510
2banks busy for read cycles: 121797138
2banks busy for write cycles: 4094963
3banks busy for read cycles: 60493044
3banks busy for write cycles: 1060589
4banks busy for read cycles: 29358452
4banks busy for write cycles: 376016
5banks busy for read cycles: 13594821
5banks busy for write cycles: 161400
6banks busy for read cycles: 6192754
6banks busy for write cycles: 70504
7banks busy for read cycles: 3967889
7banks busy for write cycles: 40213
8banks busy for read cycles: 9800772
8banks busy for write cycles: 11833

CPU 0 Branch Prediction Accuracy: 90.5062% MPKI: 19.3845 Average ROB Occupancy at Mispredict: 25.6439
Branch types
NOT_BRANCH: 159163481 79.5817%
BRANCH_DIRECT_JUMP: 0 0%
BRANCH_INDIRECT: 0 0%
BRANCH_CONDITIONAL: 40836226 20.4181%
BRANCH_DIRECT_CALL: 0 0%
BRANCH_INDIRECT_CALL: 0 0%
BRANCH_RETURN: 0 0%
BRANCH_OTHER: 0 0%

DRAM PAGES: 1048576
Allocated PAGES: 19633
