
*** ChampSim Multicore Out-of-Order Simulator ***

Warmup Instructions: 50000000
Simulation Instructions: 200000000
Number of CPUs: 1
LLC sets: 2048
LLC ways: 16
Secure Berti: OFF
Berti: OFF
Berti Fill: OFF
On commit prefetching: OFF
L2 LLC Bypass speculative loads: OFF
Off-chip DRAM Size: 4096 MB Channels: 1 Width: 64-bit Data Rate: 6400 MT/s
CPU 0 runs /home/sumon/secure_berti/Berti_Baseline/../../traces/gap/pr-5.trace.gz
.gz
BTB has LRU replacement policy
ITLB has LRU replacement policy
DTLB has LRU replacement policy
STLB has LRU replacement policy
L1I has LRU replacement policy
L1D has LRU replacement policy
Bingo PHT WAYS: 16 and PHT_SIZE: 16384
L2C has LRU replacement policy
LLC has LRU replacement policy
Heartbeat CPU 0 instructions: 10000001 cycles: 3333439 heartbeat IPC: 2.99991 cumulative IPC: 2.99991 (Simulation time: 0 hr 0 min 8 sec) 
Heartbeat CPU 0 instructions: 20000001 cycles: 9741013 heartbeat IPC: 1.56065 cumulative IPC: 2.05317 (Simulation time: 0 hr 0 min 44 sec) 
Heartbeat CPU 0 instructions: 30000000 cycles: 16658123 heartbeat IPC: 1.44569 cumulative IPC: 1.80092 (Simulation time: 0 hr 1 min 23 sec) 
Heartbeat CPU 0 instructions: 40000002 cycles: 23609985 heartbeat IPC: 1.43846 cumulative IPC: 1.6942 (Simulation time: 0 hr 2 min 1 sec) 
Heartbeat CPU 0 instructions: 50000003 cycles: 30544123 heartbeat IPC: 1.44214 cumulative IPC: 1.63698 (Simulation time: 0 hr 2 min 39 sec) 

Warmup complete CPU 0 instructions: 50000003 cycles: 30544123 (Simulation time: 0 hr 2 min 39 sec) 

Heartbeat CPU 0 instructions: 60000000 cycles: 215928588 heartbeat IPC: 0.0539419 cumulative IPC: 0.0539419 (Simulation time: 0 hr 4 min 34 sec) 
Heartbeat CPU 0 instructions: 70000002 cycles: 405768619 heartbeat IPC: 0.0526759 cumulative IPC: 0.0533014 (Simulation time: 0 hr 6 min 31 sec) 
Heartbeat CPU 0 instructions: 80000001 cycles: 594970937 heartbeat IPC: 0.0528535 cumulative IPC: 0.0531513 (Simulation time: 0 hr 8 min 29 sec) 
Heartbeat CPU 0 instructions: 90000000 cycles: 783438320 heartbeat IPC: 0.0530596 cumulative IPC: 0.0531283 (Simulation time: 0 hr 10 min 26 sec) 
Heartbeat CPU 0 instructions: 100000000 cycles: 971600573 heartbeat IPC: 0.0531456 cumulative IPC: 0.0531318 (Simulation time: 0 hr 12 min 23 sec) 
Heartbeat CPU 0 instructions: 110000000 cycles: 1162643431 heartbeat IPC: 0.0523443 cumulative IPC: 0.0529989 (Simulation time: 0 hr 14 min 20 sec) 
Heartbeat CPU 0 instructions: 120000002 cycles: 1351934142 heartbeat IPC: 0.0528288 cumulative IPC: 0.0529745 (Simulation time: 0 hr 16 min 16 sec) 
Heartbeat CPU 0 instructions: 130000003 cycles: 1541946232 heartbeat IPC: 0.0526282 cumulative IPC: 0.052931 (Simulation time: 0 hr 18 min 13 sec) 
Heartbeat CPU 0 instructions: 140000000 cycles: 1730157800 heartbeat IPC: 0.0531317 cumulative IPC: 0.0529532 (Simulation time: 0 hr 20 min 9 sec) 
Heartbeat CPU 0 instructions: 150000001 cycles: 1919450873 heartbeat IPC: 0.0528281 cumulative IPC: 0.0529407 (Simulation time: 0 hr 22 min 4 sec) 
Heartbeat CPU 0 instructions: 160000001 cycles: 2107713014 heartbeat IPC: 0.0531174 cumulative IPC: 0.0529567 (Simulation time: 0 hr 23 min 59 sec) 
Heartbeat CPU 0 instructions: 170000001 cycles: 2297755778 heartbeat IPC: 0.0526197 cumulative IPC: 0.0529285 (Simulation time: 0 hr 25 min 56 sec) 
Heartbeat CPU 0 instructions: 180000000 cycles: 2487108970 heartbeat IPC: 0.0528114 cumulative IPC: 0.0529194 (Simulation time: 0 hr 27 min 53 sec) 
Heartbeat CPU 0 instructions: 190000000 cycles: 2625056801 heartbeat IPC: 0.0724912 cumulative IPC: 0.05396 (Simulation time: 0 hr 29 min 20 sec) 
Heartbeat CPU 0 instructions: 200000003 cycles: 2667158440 heartbeat IPC: 0.237521 cumulative IPC: 0.0568911 (Simulation time: 0 hr 29 min 55 sec) 
Heartbeat CPU 0 instructions: 210000001 cycles: 2857279487 heartbeat IPC: 0.0525981 cumulative IPC: 0.0566024 (Simulation time: 0 hr 31 min 50 sec) 
Heartbeat CPU 0 instructions: 220000000 cycles: 3045533579 heartbeat IPC: 0.0531197 cumulative IPC: 0.0563849 (Simulation time: 0 hr 33 min 47 sec) 
Heartbeat CPU 0 instructions: 230000001 cycles: 3235335023 heartbeat IPC: 0.0526866 cumulative IPC: 0.0561659 (Simulation time: 0 hr 35 min 43 sec) 
Heartbeat CPU 0 instructions: 240000000 cycles: 3423747177 heartbeat IPC: 0.0530751 cumulative IPC: 0.0559943 (Simulation time: 0 hr 37 min 40 sec) 
Heartbeat CPU 0 instructions: 250000003 cycles: 3609028506 heartbeat IPC: 0.053972 cumulative IPC: 0.0558896 (Simulation time: 0 hr 39 min 34 sec) 
Finished CPU 0 instructions: 200000000 cycles: 3578484383 cumulative IPC: 0.0558896 (Simulation time: 0 hr 39 min 34 sec) 

ChampSim completed all CPUs

Region of Interest Statistics

CPU 0 cumulative IPC: 0.0558896 instructions: 200000000 cycles: 3578484383
ITLB TOTAL     ACCESS:   58967820  HIT:   58967820  MISS:          0  HIT %:        100  MISS %:          0   MPKI: 0
ITLB Test counter:          0
ITLB LOAD TRANSLATION ACCESS:   58967820  HIT:   58967820  MISS:          0  HIT %:        100  MISS %:          0   MPKI: 0
ITLB PREFETCH  REQUESTED:          0  ISSUED:          0  USEFUL:          0  USELESS:          0
ITLB USEFUL LOAD PREFETCHES:          0 PREFETCH ISSUED TO LOWER LEVEL:          0  ACCURACY: -nan
ITLB TIMELY PREFETCHES:          0 LATE PREFETCHES: 0 DROPPED PREFETCHES: 0
ITLB COMMIT LATE PREFETCHES: 0 MISSED OPPORTUNITY: 0 LATE IN PQ: 0 UNCOVERED: 0
ITLB COMMIT LATE MSHR PREFETCHES: 0
ITLB MPKI TOTAL: 0 MSHR LATE: 0 PQ LATE: 0 COMMIT LATE: 0 MISSED OPPORTUNITY: 0 UNCOVERED: 0
ITLB PREFETCHES SAME FILL-ORIGIN LEVEL: 0 DIFFERENT FILL-ORIGIN LEVEL: 0
ITLB AVERAGE MISS LATENCY: -nan cycles
ITLB AVERAGE MISS LATENCY LOAD: -nan cycles
ITLB AVERAGE MISS LATENCY PREFETCH: -nan cycles
ITLB AVERAGE MSHR OCCUPANCY: 0
ITLB MSHR FULL: 0
ITLB RQ	ACCESS:   60092811	FORWARD:          0	MERGED:    1124992	TO_CACHE:   58967819

DTLB TOTAL     ACCESS:   67122415  HIT:   44208565  MISS:   22913850  HIT %:    65.8626  MISS %:    34.1374   MPKI: 114.569
DTLB Test counter:          0
DTLB LOAD TRANSLATION ACCESS:   67122415  HIT:   44208565  MISS:   22913850  HIT %:    65.8626  MISS %:    34.1374   MPKI: 114.569
DTLB PREFETCH  REQUESTED:          0  ISSUED:          0  USEFUL:          0  USELESS:          0
DTLB USEFUL LOAD PREFETCHES:          0 PREFETCH ISSUED TO LOWER LEVEL:          0  ACCURACY: -nan
DTLB TIMELY PREFETCHES:          0 LATE PREFETCHES: 0 DROPPED PREFETCHES: 0
DTLB COMMIT LATE PREFETCHES: 0 MISSED OPPORTUNITY: 0 LATE IN PQ: 0 UNCOVERED: 0
DTLB COMMIT LATE MSHR PREFETCHES: 0
DTLB MPKI TOTAL: 0 MSHR LATE: 0 PQ LATE: 0 COMMIT LATE: 0 MISSED OPPORTUNITY: 0 UNCOVERED: 0
DTLB PREFETCHES SAME FILL-ORIGIN LEVEL: 0 DIFFERENT FILL-ORIGIN LEVEL: 0
DTLB AVERAGE MISS LATENCY: 9.19575 cycles
DTLB AVERAGE MISS LATENCY LOAD: -nan cycles
DTLB AVERAGE MISS LATENCY PREFETCH: -nan cycles
DTLB AVERAGE MSHR OCCUPANCY: 0.20064
DTLB MSHR FULL: 0
DTLB RQ	ACCESS:   67800135	FORWARD:          0	MERGED:     670474	TO_CACHE:   67129661

STLB TOTAL     ACCESS:   22913849  HIT:   22873035  MISS:      40814  HIT %:    99.8219  MISS %:   0.178119   MPKI: 0.20407
STLB Test counter:          0
STLB LOAD TRANSLATION ACCESS:   22913849  HIT:   22873035  MISS:      40814  HIT %:    99.8219  MISS %:   0.178119   MPKI: 0.20407
STLB PREFETCH  REQUESTED:          0  ISSUED:          0  USEFUL:          0  USELESS:          0
STLB USEFUL LOAD PREFETCHES:          0 PREFETCH ISSUED TO LOWER LEVEL:          0  ACCURACY: -nan
STLB TIMELY PREFETCHES:          0 LATE PREFETCHES: 0 DROPPED PREFETCHES: 0
STLB COMMIT LATE PREFETCHES: 0 MISSED OPPORTUNITY: 0 LATE IN PQ: 0 UNCOVERED: 0
STLB COMMIT LATE MSHR PREFETCHES: 0
STLB MPKI TOTAL: 0 MSHR LATE: 0 PQ LATE: 0 COMMIT LATE: 0 MISSED OPPORTUNITY: 0 UNCOVERED: 0
STLB PREFETCHES SAME FILL-ORIGIN LEVEL: 0 DIFFERENT FILL-ORIGIN LEVEL: 0
STLB AVERAGE MISS LATENCY: 105.558 cycles
STLB AVERAGE MISS LATENCY LOAD: -nan cycles
STLB AVERAGE MISS LATENCY PREFETCH: -nan cycles
STLB AVERAGE MSHR OCCUPANCY: 0.000454223
STLB MSHR FULL: 0
STLB RQ	ACCESS:   22913849	FORWARD:          0	MERGED:          0	TO_CACHE:   22913849

STLB Hit, L1D data hit: 0
STLB Hit, L2C data hit: 0
STLB Hit, LLC data hit: 0
STLB Hit, LLC data miss: 0
STLB STLB hints to L2: 0
L1D TOTAL     ACCESS:   66551031  HIT:   32048889  MISS:   34502142  HIT %:    48.1569  MISS %:    51.8431   MPKI: 172.511
L1D Test counter:          0
L1D LOAD      ACCESS:   63828941  HIT:   29392359  MISS:   35107544  HIT %:    46.0486  MISS %:    53.9514   MPKI: 172.183
L1D RFO       ACCESS:    2722090  HIT:    2656530  MISS:      65560  HIT %:    97.5916  MISS %:    2.40844   MPKI: 0.3278
L1D PREFETCH  REQUESTED:          0  ISSUED:          0  USEFUL:          0  USELESS:          0
L1D USEFUL LOAD PREFETCHES:          0 PREFETCH ISSUED TO LOWER LEVEL:          0  ACCURACY: -nan
L1D TIMELY PREFETCHES:          0 LATE PREFETCHES: 0 DROPPED PREFETCHES: 0
L1D COMMIT LATE PREFETCHES: 0 MISSED OPPORTUNITY: 0 LATE IN PQ: 0 UNCOVERED: 0
L1D COMMIT LATE MSHR PREFETCHES: 0
L1D MPKI TOTAL: 175.538 MSHR LATE: 0 PQ LATE: 0 COMMIT LATE: 0 MISSED OPPORTUNITY: 0 UNCOVERED: 0
L1D PREFETCHES SAME FILL-ORIGIN LEVEL: 0 DIFFERENT FILL-ORIGIN LEVEL: 0
L1D AVERAGE MISS LATENCY: 83.4205 cycles
L1D AVERAGE MISS LATENCY LOAD: 83.2797 cycles
L1D AVERAGE MISS LATENCY PREFETCH: -nan cycles
L1D AVERAGE MSHR OCCUPANCY: 0.348085
L1D MSHR FULL: 0
L1D RQ	ACCESS:   77353672	FORWARD:          0	MERGED:   12853765	TO_CACHE:   64499902
L1D WQ	ACCESS:    3300237	FORWARD:          5	MERGED:          4	TO_CACHE:    3300233

L1D UNIQUE REGIONS ACCESSED: 0
L1D REGIONS CONFLICTS: 0
L1D Cross Page Prefetch Requests: 0
L1D Same Page Prefetch Requests: 0
L1D ROI Sum of L1D PQ occupancy: 0
L1D PREFETCHES PUSHED FROM L2C: 0
154f9c6fccd6: 1
154f9c6bf230: 1
154f9c6f93cc: 1
154f9c6f93c3: 1
154f9c74f143: 1
154f9c6bf040: 1
55f071ae102d: 1
154f9c6f9530: 1
154f9c6f93bc: 1
154f9c6f95e5: 1
154f9c6f686b: 1
154f9c6fd1d1: 1
154f9c6fd1c6: 1
154f9c759578: 1
55f071ae103f: 1
154f9c6f967e: 1
154f9c6fa461: 1
154f9c6f967a: 1
154f9c6fbee7: 1
154f9c6ff760: 1
154f9c7d026f: 1
154f9c6fccdd: 1
154f9c7ce0b0: 1
154f9c6fd6d6: 1
154f9c74f646: 1
154f9c7d0264: 1
154f9c7d0254: 1
154f9c7d024b: 1
55f071adf510: 1
154f9c7d0230: 1
154f9c7d0240: 1
154f9c6fbef2: 1
154f9c6fd6e4: 1
154f9c7d0247: 1
154f9c6bf100: 1
55f071ae0fe0: 1
55f071ae0fee: 1
55f071ae0ff2: 1
154f9c729951: 1
154f9c6fe4f2: 5
55f071ae1093: 6961
55f071ae1075: 7265
55f071ae1050: 7439
55f071ae100d: 65536
55f071ae107b: 77122
55f071ae1000: 131073
55f071ae1054: 140709
55f071ae1060: 2107922
55f071ae106a: 31892511
L1I TOTAL     ACCESS:   60092811  HIT:   60092789  MISS:         22  HIT %:        100  MISS %:  3.661e-05   MPKI: 0.00011
L1I Test counter:          0
L1I LOAD      ACCESS:   60092811  HIT:   60092789  MISS:         23  HIT %:        100  MISS %:  3.661e-05   MPKI: 0.00011
L1I PREFETCH  REQUESTED:          0  ISSUED:          0  USEFUL:          0  USELESS:          0
L1I USEFUL LOAD PREFETCHES:          0 PREFETCH ISSUED TO LOWER LEVEL:          0  ACCURACY: -nan
L1I TIMELY PREFETCHES:          0 LATE PREFETCHES: 0 DROPPED PREFETCHES: 0
L1I COMMIT LATE PREFETCHES: 0 MISSED OPPORTUNITY: 0 LATE IN PQ: 0 UNCOVERED: 0
L1I COMMIT LATE MSHR PREFETCHES: 0
L1I MPKI TOTAL: 0.000115 MSHR LATE: 0 PQ LATE: 0 COMMIT LATE: 0 MISSED OPPORTUNITY: 0 UNCOVERED: 0
L1I PREFETCHES SAME FILL-ORIGIN LEVEL: 0 DIFFERENT FILL-ORIGIN LEVEL: 0
L1I AVERAGE MISS LATENCY: 159.455 cycles
L1I AVERAGE MISS LATENCY LOAD: 159.455 cycles
L1I AVERAGE MISS LATENCY PREFETCH: -nan cycles
L1I AVERAGE MSHR OCCUPANCY: 1.33127e-07
L1I MSHR FULL: 0
L1I RQ	ACCESS:   71176142	FORWARD:          0	MERGED:   11083331	TO_CACHE:   60092811

154f9c6f1944: 1
154f9c6ff3c4: 1
154f9c6f1396: 1
154f9c6fe400: 1
154f9c6ff3b8: 1
154f9c6fe66c: 1
154f9c6f1340: 1
154f9c6f193a: 1
154f9c6fe682: 1
154f9c6ff1c8: 1
154f9c6fb103: 1
154f9c6fdb9a: 1
154f9c6fe3df: 1
154f9c6fb0db: 1
154f9c6f13c0: 1
154f9c6f19b9: 1
154f9c6fe443: 1
154f9c6fe4ee: 1
154f9c6fe6f2: 1
154f9c6fef41: 1
154f9c6fef1c: 1
154f9c6fdd70: 1
BTB TOTAL     ACCESS:   37026927  HIT:   37026756  MISS:        171  HIT %:    99.9995  MISS %: 0.000461826   MPKI: 0.000855
BTB Test counter:          0
BTB BRANCH_DIRECT_JUMP	ACCESS:         66  HIT:         33  MISS:         33
BTB BRANCH_INDIRECT	ACCESS:          4  HIT:          0  MISS:          4
BTB BRANCH_CONDITIONAL	ACCESS:   37026791  HIT:   37026703  MISS:         88
BTB BRANCH_DIRECT_CALL	ACCESS:         28  HIT:         10  MISS:         18
BTB BRANCH_INDIRECT_CALL	ACCESS:          5  HIT:          1  MISS:          4
BTB BRANCH_RETURN	ACCESS:         33  HIT:          9  MISS:         24
BTB BRANCH_OTHER ACCESS:          0  HIT:          0  MISS:          0

L2C TOTAL     ACCESS:   59719072  HIT:   14947735  MISS:   44771337  HIT %:    25.0301  MISS %:    74.9699   MPKI: 223.857
L2C Test counter:          0
L2C LOAD      ACCESS:   34436602  HIT:   11068416  MISS:   23368186  HIT %:    32.1414  MISS %:    67.8586   MPKI: 116.841
L2C DATA LOAD MPKI: 116.841
L2C INSTRUCTION LOAD MPKI: 0.00011
L2C RFO       ACCESS:      65560  HIT:        178  MISS:      65382  HIT %:   0.271507  MISS %:    99.7285   MPKI: 0.32691
L2C PREFETCH  ACCESS:   25026105  HIT:    3697882  MISS:   21328223  HIT %:    14.7761  MISS %:    85.2239   MPKI: 106.641
L2C DATA PREFETCH MPKI: 106.641
L2C INSTRUCTION PREFETCH MPKI: 0
L2C WRITEBACK ACCESS:     149951  HIT:     148405  MISS:       1546  HIT %:     98.969  MISS %:      1.031   MPKI: 0.00773
L2C LOAD TRANSLATION ACCESS:      40854  HIT:      32854  MISS:       8000  HIT %:    80.4181  MISS %:    19.5819   MPKI: 0.04
L2C PREFETCH  REQUESTED:   25139679  ISSUED:   25139679  USEFUL:    3838711  USELESS:   17489753
L2C USEFUL LOAD PREFETCHES:    3838711 PREFETCH ISSUED TO LOWER LEVEL:   21437110  ACCURACY: 17.9068
L2C TIMELY PREFETCHES:    3838711 LATE PREFETCHES: 108886 DROPPED PREFETCHES: 0
L2C COMMIT LATE PREFETCHES: 0 MISSED OPPORTUNITY: 0 LATE IN PQ: 0 UNCOVERED: 0
L2C COMMIT LATE MSHR PREFETCHES: 0
L2C MPKI TOTAL: 116.841 MSHR LATE: 0.54443 PQ LATE: 0 COMMIT LATE: 0 MISSED OPPORTUNITY: 0 UNCOVERED: 0
L2C PREFETCHES SAME FILL-ORIGIN LEVEL: 21437110 DIFFERENT FILL-ORIGIN LEVEL: 0
L2C AVERAGE MISS LATENCY: 115.114 cycles
L2C AVERAGE MISS LATENCY LOAD: 100.644 cycles
L2C AVERAGE MISS LATENCY PREFETCH: 130.873 cycles
L2C AVERAGE MSHR OCCUPANCY: 0.661711
L2C MSHR FULL: 8.68482e-08
L2C RQ	ACCESS:   34543018	FORWARD:          0	MERGED:          0	TO_CACHE:   34543016
L2C WQ	ACCESS:     149951	FORWARD:          2	MERGED:          0	TO_CACHE:     149951
L2C PQ	ACCESS:   25139679	FORWARD:          0	MERGED:          0	TO_CACHE:   25139679

L2C Instructions Evicting Data 22
L2C Translations Evicting Data 7999
L2C Data Evicting Data 44753748
L2C Instructions Evicting Instructions 0
L2C Translations Evicting Instructions 0
L2C Data Evicting Instructions 22
L2C Instructions Evicting Translations 0
L2C Translations Evicting Translations 1
L2C Data Evicting Translations 7999
L2C Dense regions hint from L2: 0
154f9c6fb103: 1
154f9c6fbef2: 1
154f9c6fef1c: 1
154f9c6fe400: 1
154f9c6fe682: 1
154f9c6bf040: 1
55f071ae102d: 1
154f9c6f9530: 1
154f9c6f95e5: 1
154f9c6fdb9a: 1
154f9c6f967a: 1
154f9c6fbee7: 1
154f9c6f686b: 1
154f9c6fb0db: 1
55f071ae0ff2: 1
154f9c6ff3b8: 1
154f9c6fd1c6: 1
154f9c759578: 1
154f9c6fe3df: 1
55f071ae103f: 1
154f9c6f967e: 1
154f9c6fa461: 1
154f9c6fe66c: 1
154f9c6fe443: 1
154f9c7d026f: 1
154f9c6fccdd: 1
154f9c74f646: 1
154f9c6f93c3: 1
55f071ae0fe0: 1
154f9c6f1396: 1
154f9c6fe6f2: 1
154f9c6f1340: 1
154f9c6f193a: 1
154f9c6f13c0: 1
154f9c6f1944: 1
154f9c74f143: 1
154f9c7d0264: 1
154f9c6fe4ee: 1
154f9c7d024b: 1
154f9c6ff3c4: 1
55f071adf510: 1
154f9c7d0230: 1
154f9c7d0240: 1
154f9c6ff1c8: 1
154f9c7ce0b0: 1
154f9c6fef41: 1
154f9c6fd6e4: 1
154f9c6f19b9: 1
154f9c7d0247: 1
154f9c6fdd70: 1
55f071ae0fee: 1
154f9c6fe4f2: 5
55f071ae1075: 470
55f071ae1050: 550
55f071ae100d: 2097
55f071ae1093: 4208
55f071ae1000: 6394
55f071ae107b: 7925
55f071ae1054: 17552
55f071ae1060: 77175
55f071ae106a: 23251759
PSCL5 TOTAL     ACCESS:      40814  HIT:      40814  MISS:          0  HIT %:        100  MISS %:          0   MPKI: 0
PSCL5 Test counter:          0
PSCL5 LOAD TRANSLATION ACCESS:      40814  HIT:      40814  MISS:          0  HIT %:        100  MISS %:          0   MPKI: 0
PSCL5 PREFETCH  REQUESTED:          0  ISSUED:          0  USEFUL:          0  USELESS:          0
PSCL5 USEFUL LOAD PREFETCHES:          0 PREFETCH ISSUED TO LOWER LEVEL:          0  ACCURACY: -nan
PSCL5 TIMELY PREFETCHES:          0 LATE PREFETCHES: 0 DROPPED PREFETCHES: 0
PSCL5 COMMIT LATE PREFETCHES: 0 MISSED OPPORTUNITY: 0 LATE IN PQ: 0 UNCOVERED: 0
PSCL5 COMMIT LATE MSHR PREFETCHES: 0
PSCL5 MPKI TOTAL: 0 MSHR LATE: 0 PQ LATE: 0 COMMIT LATE: 0 MISSED OPPORTUNITY: 0 UNCOVERED: 0
PSCL5 PREFETCHES SAME FILL-ORIGIN LEVEL: 0 DIFFERENT FILL-ORIGIN LEVEL: 0

PSCL4 TOTAL     ACCESS:      40814  HIT:      40814  MISS:          0  HIT %:        100  MISS %:          0   MPKI: 0
PSCL4 Test counter:          0
PSCL4 LOAD TRANSLATION ACCESS:      40814  HIT:      40814  MISS:          0  HIT %:        100  MISS %:          0   MPKI: 0
PSCL4 PREFETCH  REQUESTED:          0  ISSUED:          0  USEFUL:          0  USELESS:          0
PSCL4 USEFUL LOAD PREFETCHES:          0 PREFETCH ISSUED TO LOWER LEVEL:          0  ACCURACY: -nan
PSCL4 TIMELY PREFETCHES:          0 LATE PREFETCHES: 0 DROPPED PREFETCHES: 0
PSCL4 COMMIT LATE PREFETCHES: 0 MISSED OPPORTUNITY: 0 LATE IN PQ: 0 UNCOVERED: 0
PSCL4 COMMIT LATE MSHR PREFETCHES: 0
PSCL4 MPKI TOTAL: 0 MSHR LATE: 0 PQ LATE: 0 COMMIT LATE: 0 MISSED OPPORTUNITY: 0 UNCOVERED: 0
PSCL4 PREFETCHES SAME FILL-ORIGIN LEVEL: 0 DIFFERENT FILL-ORIGIN LEVEL: 0

PSCL3 TOTAL     ACCESS:      40814  HIT:      40814  MISS:          0  HIT %:        100  MISS %:          0   MPKI: 0
PSCL3 Test counter:          0
PSCL3 LOAD TRANSLATION ACCESS:      40814  HIT:      40814  MISS:          0  HIT %:        100  MISS %:          0   MPKI: 0
PSCL3 PREFETCH  REQUESTED:          0  ISSUED:          0  USEFUL:          0  USELESS:          0
PSCL3 USEFUL LOAD PREFETCHES:          0 PREFETCH ISSUED TO LOWER LEVEL:          0  ACCURACY: -nan
PSCL3 TIMELY PREFETCHES:          0 LATE PREFETCHES: 0 DROPPED PREFETCHES: 0
PSCL3 COMMIT LATE PREFETCHES: 0 MISSED OPPORTUNITY: 0 LATE IN PQ: 0 UNCOVERED: 0
PSCL3 COMMIT LATE MSHR PREFETCHES: 0
PSCL3 MPKI TOTAL: 0 MSHR LATE: 0 PQ LATE: 0 COMMIT LATE: 0 MISSED OPPORTUNITY: 0 UNCOVERED: 0
PSCL3 PREFETCHES SAME FILL-ORIGIN LEVEL: 0 DIFFERENT FILL-ORIGIN LEVEL: 0

PSCL2 TOTAL     ACCESS:      40814  HIT:      40727  MISS:         87  HIT %:    99.7868  MISS %:   0.213162   MPKI: 0.000435
PSCL2 Test counter:          0
PSCL2 LOAD TRANSLATION ACCESS:      40814  HIT:      40727  MISS:         87  HIT %:    99.7868  MISS %:   0.213162   MPKI: 0.000435
PSCL2 PREFETCH  REQUESTED:          0  ISSUED:          0  USEFUL:          0  USELESS:          0
PSCL2 USEFUL LOAD PREFETCHES:          0 PREFETCH ISSUED TO LOWER LEVEL:          0  ACCURACY: -nan
PSCL2 TIMELY PREFETCHES:          0 LATE PREFETCHES: 0 DROPPED PREFETCHES: 0
PSCL2 COMMIT LATE PREFETCHES: 0 MISSED OPPORTUNITY: 0 LATE IN PQ: 0 UNCOVERED: 0
PSCL2 COMMIT LATE MSHR PREFETCHES: 0
PSCL2 MPKI TOTAL: 0 MSHR LATE: 0 PQ LATE: 0 COMMIT LATE: 0 MISSED OPPORTUNITY: 0 UNCOVERED: 0
PSCL2 PREFETCHES SAME FILL-ORIGIN LEVEL: 0 DIFFERENT FILL-ORIGIN LEVEL: 0

LLC TOTAL     ACCESS:   44907010  HIT:   20723325  MISS:   24183685  HIT %:    46.1472  MISS %:    53.8528   MPKI: 120.918
LLC Test counter:          0
LLC LOAD      ACCESS:   23259300  HIT:   12670102  MISS:   10589198  HIT %:    54.4733  MISS %:    45.5267   MPKI: 52.946
LLC RFO       ACCESS:      65382  HIT:       1973  MISS:      63409  HIT %:    3.01765  MISS %:    96.9823   MPKI: 0.317045
LLC PREFETCH  ACCESS:   21437110  HIT:    7912333  MISS:   13524777  HIT %:    36.9095  MISS %:    63.0905   MPKI: 67.6239
LLC WRITEBACK ACCESS:     137218  HIT:     136983  MISS:        235  HIT %:    99.8287  MISS %:    0.17126   MPKI: 0.001175
LLC LOAD TRANSLATION ACCESS:       8000  HIT:       1934  MISS:       6066  HIT %:     24.175  MISS %:     75.825   MPKI: 0.03033
LLC PREFETCH  REQUESTED:          0  ISSUED:          0  USEFUL:    1585024  USELESS:   11940255
LLC USEFUL LOAD PREFETCHES:    1585024 PREFETCH ISSUED TO LOWER LEVEL:   13524777  ACCURACY: 11.7194
LLC TIMELY PREFETCHES:    1585024 LATE PREFETCHES: 0 DROPPED PREFETCHES: 0
LLC COMMIT LATE PREFETCHES: 0 MISSED OPPORTUNITY: 0 LATE IN PQ: 0 UNCOVERED: 0
LLC COMMIT LATE MSHR PREFETCHES: 0
LLC MPKI TOTAL: 52.946 MSHR LATE: 0 PQ LATE: 0 COMMIT LATE: 0 MISSED OPPORTUNITY: 0 UNCOVERED: 0
LLC PREFETCHES SAME FILL-ORIGIN LEVEL: 0 DIFFERENT FILL-ORIGIN LEVEL: 0
LLC AVERAGE MISS LATENCY: 157.775 cycles
LLC AVERAGE MISS LATENCY LOAD: 155.242 cycles
LLC AVERAGE MISS LATENCY PREFETCH: 159.947 cycles
LLC AVERAGE MSHR OCCUPANCY: 0.445948
LLC MSHR FULL: 0
LLC RQ	ACCESS:   23332682	FORWARD:          0	MERGED:          0	TO_CACHE:   23332682
LLC WQ	ACCESS:     137218	FORWARD:          0	MERGED:          0	TO_CACHE:     137218
LLC PQ	ACCESS:   21437110	FORWARD:          0	MERGED:          0	TO_CACHE:   21437110

LLC Dense regions hint to LLC: 0
154f9c6f9530: 1
154f9c6fccdd: 1
154f9c7d026f: 1
154f9c6fe443: 1
154f9c6fe66c: 1
154f9c6fbef2: 1
154f9c6fef1c: 1
154f9c6fe400: 1
154f9c6fa461: 1
154f9c6f967e: 1
154f9c6fe682: 1
154f9c6bf040: 1
55f071ae102d: 1
154f9c7d0247: 1
55f071ae103f: 1
154f9c6f95e5: 1
154f9c6fdb9a: 1
154f9c6f967a: 1
154f9c6fbee7: 1
154f9c6f686b: 1
154f9c6fb0db: 1
154f9c6fb103: 1
154f9c6ff3b8: 1
154f9c6fd1c6: 1
154f9c759578: 1
154f9c6fe3df: 1
154f9c6f193a: 1
55f071ae0ff2: 1
55f071ae0fee: 1
154f9c6fdd70: 1
154f9c6fef41: 1
154f9c7ce0b0: 1
154f9c6ff1c8: 1
154f9c6ff3c4: 1
154f9c6f13c0: 1
55f071ae0fe0: 1
154f9c6f1396: 1
154f9c6fe6f2: 1
154f9c6f1340: 1
154f9c74f646: 1
154f9c6f1944: 1
154f9c74f143: 1
154f9c7d0264: 1
154f9c6fe4ee: 1
154f9c7d024b: 1
154f9c6f93c3: 1
55f071adf510: 1
154f9c7d0230: 1
154f9c7d0240: 1
154f9c6fd6e4: 1
154f9c6f19b9: 1
154f9c6fe4f2: 5
55f071ae1050: 53
55f071ae1075: 57
55f071ae1093: 246
55f071ae100d: 2049
55f071ae1000: 4415
55f071ae107b: 7240
55f071ae1054: 16819
55f071ae1060: 70195
55f071ae106a: 10488068

RAW hits: 19
Loads Generated: 77353692
Loads sent to L1D: 77353672
Stores Generated: 3300237
Stores sent to L1D: 3300237
Major fault: 0 Minor fault: 34894
Allocated PAGES: 34894
Total Load insts: 95645111
Total Non-spec loads: 44642908
Percentage of speculative loads: 53.3244
L1D response latency: 83.2797 cycles
Load retirement latency: 229.711 cycles

[Bingo] PHT Access: 24091404
[Bingo] PHT Hit PC+Addr: 1125442
[Bingo] PHT Hit PC+Offs: 22949489
[Bingo] PHT Miss: 16473
[Bingo] Prefetch PC+Addr: 0
[Bingo] Prefetch PC+Offs: 0
[Bingo] Useful PC+Addr: 0
[Bingo] Useful PC+Offs: 0
[Bingo] Useless PC+Addr: 0
[Bingo] Useless PC+Offs: 0
[Bingo] L1 Prefetch per Region: 0
[Bingo] L2 Prefetch per Region: 2.04962
[Bingo] L3 Prefetch per Region: 0
[Bingo] No Prefetch per Region: 29.9504
[Bingo] Number of Voters Mean: 15.9996
[Bingo] Number of Voters SD: 7.24422
PHT read accesses: 376832955
PHT write accesses: 4170973
AT read accesses: 12331679
AT write accesses: 14516062
FT read accesses: 13691702
FT write accesses: 24091404
PS read accesses: 48288976
PS write accesses: 24074931
PHT tag read accesses: 508411905
PHT tag write accesses: 5296415
AT tag read accesses: 1451566451
AT tag write accesses: 16502674
FT tag read accesses: 1963469125
FT tag write accesses: 33612002
PS tag read accesses: 1347856879
PS tag write accesses: 72345760

DRAM Statistics
 CHANNEL 0
 RQ ROW_BUFFER_HIT:    6569999  ROW_BUFFER_MISS:   17613449
 DBUS_CONGESTED:        344
 WQ ROW_BUFFER_HIT:      74465  ROW_BUFFER_MISS:      61835  FULL:          0

 AVG_CONGESTED_CYCLE: 5
 All warmup complete: 2
Channel 0 Bank busy for read cycles: 0
Channel 0 Bank busy for write cycles: 0
Channel 0
Rank 0
0banks busy for read cycles: 1674392654
0banks busy for write cycles: 66751
1banks busy for read cycles: 1246499798
1banks busy for write cycles: 14779079
2banks busy for read cycles: 422190458
2banks busy for write cycles: 1804098
3banks busy for read cycles: 132773074
3banks busy for write cycles: 533480
4banks busy for read cycles: 33826007
4banks busy for write cycles: 212137
5banks busy for read cycles: 12067174
5banks busy for write cycles: 130659
6banks busy for read cycles: 6999424
6banks busy for write cycles: 45909
7banks busy for read cycles: 7593390
7banks busy for write cycles: 84960
8banks busy for read cycles: 23817645
8banks busy for write cycles: 667687

CPU 0 Branch Prediction Accuracy: 96.9587% MPKI: 5.6305 Average ROB Occupancy at Mispredict: 137.887
Branch types
NOT_BRANCH: 162972817 81.4864%
BRANCH_DIRECT_JUMP: 66 3.3e-05%
BRANCH_INDIRECT: 4 2e-06%
BRANCH_CONDITIONAL: 37027012 18.5135%
BRANCH_DIRECT_CALL: 28 1.4e-05%
BRANCH_INDIRECT_CALL: 5 2.5e-06%
BRANCH_RETURN: 33 1.65e-05%
BRANCH_OTHER: 0 0%

DRAM PAGES: 1048576
Allocated PAGES: 34894
