
*** ChampSim Multicore Out-of-Order Simulator ***

Warmup Instructions: 50000000
Simulation Instructions: 200000000
Number of CPUs: 1
LLC sets: 2048
LLC ways: 16
Secure Berti: OFF
Berti: OFF
Berti Fill: OFF
On commit prefetching: OFF
L2 LLC Bypass speculative loads: OFF
Off-chip DRAM Size: 4096 MB Channels: 1 Width: 64-bit Data Rate: 6400 MT/s
CPU 0 runs /home/sumon/secure_berti/Berti_Baseline/../../traces/gap/sssp-14.trace.gz
.gz
BTB has LRU replacement policy
ITLB has LRU replacement policy
DTLB has LRU replacement policy
STLB has LRU replacement policy
L1I has LRU replacement policy
L1D has LRU replacement policy
Bingo PHT WAYS: 16 and PHT_SIZE: 16384
L2C has LRU replacement policy
LLC has LRU replacement policy
Heartbeat CPU 0 instructions: 10000000 cycles: 3083581 heartbeat IPC: 3.24298 cumulative IPC: 3.24298 (Simulation time: 0 hr 0 min 19 sec) 
Heartbeat CPU 0 instructions: 20000003 cycles: 6133832 heartbeat IPC: 3.27842 cumulative IPC: 3.2606 (Simulation time: 0 hr 0 min 39 sec) 
Heartbeat CPU 0 instructions: 30000001 cycles: 9212108 heartbeat IPC: 3.24857 cumulative IPC: 3.25658 (Simulation time: 0 hr 1 min 0 sec) 
Heartbeat CPU 0 instructions: 40000003 cycles: 12298736 heartbeat IPC: 3.23978 cumulative IPC: 3.25237 (Simulation time: 0 hr 1 min 20 sec) 
Heartbeat CPU 0 instructions: 50000000 cycles: 15398009 heartbeat IPC: 3.22656 cumulative IPC: 3.24717 (Simulation time: 0 hr 1 min 40 sec) 

Warmup complete CPU 0 instructions: 50000004 cycles: 15398010 (Simulation time: 0 hr 1 min 40 sec) 

Heartbeat CPU 0 instructions: 60000002 cycles: 43387621 heartbeat IPC: 0.357275 cumulative IPC: 0.357275 (Simulation time: 0 hr 2 min 11 sec) 
Heartbeat CPU 0 instructions: 70000001 cycles: 70859241 heartbeat IPC: 0.364012 cumulative IPC: 0.360612 (Simulation time: 0 hr 2 min 42 sec) 
Heartbeat CPU 0 instructions: 80000002 cycles: 98005429 heartbeat IPC: 0.368376 cumulative IPC: 0.363163 (Simulation time: 0 hr 3 min 13 sec) 
Heartbeat CPU 0 instructions: 90000003 cycles: 124605114 heartbeat IPC: 0.375944 cumulative IPC: 0.366277 (Simulation time: 0 hr 3 min 45 sec) 
Heartbeat CPU 0 instructions: 100000002 cycles: 150755969 heartbeat IPC: 0.382397 cumulative IPC: 0.369391 (Simulation time: 0 hr 4 min 17 sec) 
Heartbeat CPU 0 instructions: 110000000 cycles: 176112196 heartbeat IPC: 0.39438 cumulative IPC: 0.373334 (Simulation time: 0 hr 4 min 49 sec) 
Heartbeat CPU 0 instructions: 120000001 cycles: 201588258 heartbeat IPC: 0.392525 cumulative IPC: 0.37596 (Simulation time: 0 hr 5 min 21 sec) 
Heartbeat CPU 0 instructions: 130000003 cycles: 227219142 heartbeat IPC: 0.390154 cumulative IPC: 0.377677 (Simulation time: 0 hr 5 min 54 sec) 
Heartbeat CPU 0 instructions: 140000003 cycles: 251629330 heartbeat IPC: 0.409665 cumulative IPC: 0.380982 (Simulation time: 0 hr 6 min 27 sec) 
Heartbeat CPU 0 instructions: 150000000 cycles: 276869091 heartbeat IPC: 0.3962 cumulative IPC: 0.382451 (Simulation time: 0 hr 7 min 0 sec) 
Heartbeat CPU 0 instructions: 160000002 cycles: 301354373 heartbeat IPC: 0.408409 cumulative IPC: 0.384674 (Simulation time: 0 hr 7 min 34 sec) 
Heartbeat CPU 0 instructions: 170000002 cycles: 325942833 heartbeat IPC: 0.406695 cumulative IPC: 0.386418 (Simulation time: 0 hr 8 min 9 sec) 
Heartbeat CPU 0 instructions: 180000003 cycles: 350391544 heartbeat IPC: 0.40902 cumulative IPC: 0.388067 (Simulation time: 0 hr 8 min 43 sec) 
Heartbeat CPU 0 instructions: 190000001 cycles: 374675692 heartbeat IPC: 0.411791 cumulative IPC: 0.389671 (Simulation time: 0 hr 9 min 17 sec) 
Heartbeat CPU 0 instructions: 200000001 cycles: 399024020 heartbeat IPC: 0.410706 cumulative IPC: 0.391006 (Simulation time: 0 hr 9 min 53 sec) 
Heartbeat CPU 0 instructions: 210000002 cycles: 422709807 heartbeat IPC: 0.422194 cumulative IPC: 0.392819 (Simulation time: 0 hr 10 min 26 sec) 
Heartbeat CPU 0 instructions: 220000000 cycles: 447153806 heartbeat IPC: 0.409098 cumulative IPC: 0.393741 (Simulation time: 0 hr 11 min 0 sec) 
Heartbeat CPU 0 instructions: 230000001 cycles: 471205932 heartbeat IPC: 0.415764 cumulative IPC: 0.394903 (Simulation time: 0 hr 11 min 34 sec) 
Heartbeat CPU 0 instructions: 240000003 cycles: 495512613 heartbeat IPC: 0.41141 cumulative IPC: 0.395739 (Simulation time: 0 hr 12 min 8 sec) 
Heartbeat CPU 0 instructions: 250000001 cycles: 519865421 heartbeat IPC: 0.41063 cumulative IPC: 0.396458 (Simulation time: 0 hr 12 min 42 sec) 
Finished CPU 0 instructions: 200000001 cycles: 504467412 cumulative IPC: 0.396458 (Simulation time: 0 hr 12 min 42 sec) 

ChampSim completed all CPUs

Region of Interest Statistics

CPU 0 cumulative IPC: 0.396458 instructions: 200000001 cycles: 504467412
ITLB TOTAL     ACCESS:   24389622  HIT:   24389622  MISS:          0  HIT %:        100  MISS %:          0   MPKI: 0
ITLB Test counter:          0
ITLB LOAD TRANSLATION ACCESS:   24389622  HIT:   24389622  MISS:          0  HIT %:        100  MISS %:          0   MPKI: 0
ITLB PREFETCH  REQUESTED:          0  ISSUED:          0  USEFUL:          0  USELESS:          0
ITLB USEFUL LOAD PREFETCHES:          0 PREFETCH ISSUED TO LOWER LEVEL:          0  ACCURACY: -nan
ITLB TIMELY PREFETCHES:          0 LATE PREFETCHES: 0 DROPPED PREFETCHES: 0
ITLB COMMIT LATE PREFETCHES: 0 MISSED OPPORTUNITY: 0 LATE IN PQ: 0 UNCOVERED: 0
ITLB COMMIT LATE MSHR PREFETCHES: 0
ITLB MPKI TOTAL: 0 MSHR LATE: 0 PQ LATE: 0 COMMIT LATE: 0 MISSED OPPORTUNITY: 0 UNCOVERED: 0
ITLB PREFETCHES SAME FILL-ORIGIN LEVEL: 0 DIFFERENT FILL-ORIGIN LEVEL: 0
ITLB AVERAGE MISS LATENCY: -nan cycles
ITLB AVERAGE MISS LATENCY LOAD: -nan cycles
ITLB AVERAGE MISS LATENCY PREFETCH: -nan cycles
ITLB AVERAGE MSHR OCCUPANCY: 0
ITLB MSHR FULL: 0
ITLB RQ	ACCESS:   25058204	FORWARD:          0	MERGED:     668582	TO_CACHE:   24389622

DTLB TOTAL     ACCESS:   43454884  HIT:   38906571  MISS:    4548313  HIT %:    89.5333  MISS %:    10.4667   MPKI: 22.7416
DTLB Test counter:          0
DTLB LOAD TRANSLATION ACCESS:   43454884  HIT:   38906571  MISS:    4548313  HIT %:    89.5333  MISS %:    10.4667   MPKI: 22.7416
DTLB PREFETCH  REQUESTED:          0  ISSUED:          0  USEFUL:          0  USELESS:          0
DTLB USEFUL LOAD PREFETCHES:          0 PREFETCH ISSUED TO LOWER LEVEL:          0  ACCURACY: -nan
DTLB TIMELY PREFETCHES:          0 LATE PREFETCHES: 0 DROPPED PREFETCHES: 0
DTLB COMMIT LATE PREFETCHES: 0 MISSED OPPORTUNITY: 0 LATE IN PQ: 0 UNCOVERED: 0
DTLB COMMIT LATE MSHR PREFETCHES: 0
DTLB MPKI TOTAL: 0 MSHR LATE: 0 PQ LATE: 0 COMMIT LATE: 0 MISSED OPPORTUNITY: 0 UNCOVERED: 0
DTLB PREFETCHES SAME FILL-ORIGIN LEVEL: 0 DIFFERENT FILL-ORIGIN LEVEL: 0
DTLB AVERAGE MISS LATENCY: 11.8394 cycles
DTLB AVERAGE MISS LATENCY LOAD: -nan cycles
DTLB AVERAGE MISS LATENCY PREFETCH: -nan cycles
DTLB AVERAGE MSHR OCCUPANCY: 0.170936
DTLB MSHR FULL: 3.21043e-07
DTLB RQ	ACCESS:   45776300	FORWARD:          0	MERGED:    2168371	TO_CACHE:   43607929

STLB TOTAL     ACCESS:    4548313  HIT:    4488543  MISS:      59770  HIT %:    98.6859  MISS %:    1.31411   MPKI: 0.29885
STLB Test counter:          0
STLB LOAD TRANSLATION ACCESS:    4548313  HIT:    4488543  MISS:      59770  HIT %:    98.6859  MISS %:    1.31411   MPKI: 0.29885
STLB PREFETCH  REQUESTED:          0  ISSUED:          0  USEFUL:          0  USELESS:          0
STLB USEFUL LOAD PREFETCHES:          0 PREFETCH ISSUED TO LOWER LEVEL:          0  ACCURACY: -nan
STLB TIMELY PREFETCHES:          0 LATE PREFETCHES: 0 DROPPED PREFETCHES: 0
STLB COMMIT LATE PREFETCHES: 0 MISSED OPPORTUNITY: 0 LATE IN PQ: 0 UNCOVERED: 0
STLB COMMIT LATE MSHR PREFETCHES: 0
STLB MPKI TOTAL: 0 MSHR LATE: 0 PQ LATE: 0 COMMIT LATE: 0 MISSED OPPORTUNITY: 0 UNCOVERED: 0
STLB PREFETCHES SAME FILL-ORIGIN LEVEL: 0 DIFFERENT FILL-ORIGIN LEVEL: 0
STLB AVERAGE MISS LATENCY: 199.013 cycles
STLB AVERAGE MISS LATENCY LOAD: -nan cycles
STLB AVERAGE MISS LATENCY PREFETCH: -nan cycles
STLB AVERAGE MSHR OCCUPANCY: 0.00619065
STLB MSHR FULL: 0
STLB RQ	ACCESS:    4548314	FORWARD:          0	MERGED:          0	TO_CACHE:    4548314

STLB Hit, L1D data hit: 0
STLB Hit, L2C data hit: 0
STLB Hit, LLC data hit: 0
STLB Hit, LLC data miss: 0
STLB STLB hints to L2: 0
L1D TOTAL     ACCESS:   44989188  HIT:   34154491  MISS:   10834697  HIT %:    75.9171  MISS %:    24.0829   MPKI: 54.1735
L1D Test counter:          0
L1D LOAD      ACCESS:   42942099  HIT:   32579417  MISS:   10966982  HIT %:    75.8682  MISS %:    24.1318   MPKI: 51.8134
L1D RFO       ACCESS:    2047089  HIT:    1575074  MISS:     472015  HIT %:    76.9421  MISS %:    23.0579   MPKI: 2.36007
L1D PREFETCH  REQUESTED:          0  ISSUED:          0  USEFUL:          0  USELESS:          0
L1D USEFUL LOAD PREFETCHES:          0 PREFETCH ISSUED TO LOWER LEVEL:          0  ACCURACY: -nan
L1D TIMELY PREFETCHES:          0 LATE PREFETCHES: 0 DROPPED PREFETCHES: 0
L1D COMMIT LATE PREFETCHES: 0 MISSED OPPORTUNITY: 0 LATE IN PQ: 0 UNCOVERED: 0
L1D COMMIT LATE MSHR PREFETCHES: 0
L1D MPKI TOTAL: 54.8349 MSHR LATE: 0 PQ LATE: 0 COMMIT LATE: 0 MISSED OPPORTUNITY: 0 UNCOVERED: 0
L1D PREFETCHES SAME FILL-ORIGIN LEVEL: 0 DIFFERENT FILL-ORIGIN LEVEL: 0
L1D AVERAGE MISS LATENCY: 80.587 cycles
L1D AVERAGE MISS LATENCY LOAD: 80.83 cycles
L1D AVERAGE MISS LATENCY PREFETCH: -nan cycles
L1D AVERAGE MSHR OCCUPANCY: 1.81651
L1D MSHR FULL: 0.0276346
L1D RQ	ACCESS:   76712266	FORWARD:          0	MERGED:   33161289	TO_CACHE:   43546402
L1D WQ	ACCESS:    2230588	FORWARD:       4575	MERGED:        690	TO_CACHE:    2229898

L1D UNIQUE REGIONS ACCESSED: 0
L1D REGIONS CONFLICTS: 0
L1D Cross Page Prefetch Requests: 0
L1D Same Page Prefetch Requests: 0
L1D ROI Sum of L1D PQ occupancy: 0
L1D PREFETCHES PUSHED FROM L2C: 0
1493ffba3a4b: 1
1493ffb9c9de: 1
1493ffb9c99b: 1
560385bcc4aa: 1
1493ffba0913: 1
1493ffb9c959: 1
1493ffbc75cc: 1
7fff0f33fd75: 1
1493ffba3a58: 1
1493ffb9c9fc: 1
560385bcc4af: 1
1493ffba3a39: 1
1493ffba3a7c: 1
1493ffba3a82: 1
560385bcc2f6: 1
1493ffb9c93c: 1
560385bcc386: 1
560385bcc5c5: 1
1493ffb9ca06: 1
1493ffb9c965: 1
1493ffb9c97e: 1
1493ffb9ca25: 1
1493ffbc7477: 1
560385bca710: 1
560385bcc1c5: 1
560385bcc485: 1
1493ffbc75d4: 2
1493ffbc75d0: 2
1493ffba0f2b: 2
1493ffbc76c3: 2
1493ffba1252: 3
1493ffbc75c5: 4
1493ffba445d: 4
1493ffba4457: 5
1493ffba124c: 6
1493ffba3d3b: 6
1493ffba444d: 6
560385bcc568: 7
1493ffbc7650: 7
1493ffba121e: 7
1493ffbc764b: 8
1493ffbc7646: 8
1493ffba43a4: 9
1493ffba3ccc: 9
1493ffba439a: 9
1493ffba1135: 9
1493ffba3d67: 10
1493ffba438c: 12
1493ffba3cf9: 12
1493ffba0ebb: 13
1493ffba1106: 14
1493ffba0f19: 16
1493ffba0f46: 16
1493ffba3e41: 16
1493ffba320e: 16
1493ffba31f4: 16
1493ffba0795: 16
1493ffba3207: 16
1493ffba431c: 18
1493ffba112d: 18
1493ffba115a: 18
1493ffba0e6c: 18
1493ffba3a12: 21
1493ffba062d: 21
1493ffba3d4d: 24
560385bcc4d3: 24
1493ffba113f: 26
1493ffbc7641: 29
1493ffba0867: 30
1493ffba0896: 30
1493ffbc763e: 30
1493ffbc7672: 31
1493ffba0eb2: 31
1493ffba0c11: 32
1493ffba3d43: 32
1493ffba110a: 35
1493ffba0e97: 44
1493ffba1174: 46
1493ffba10ec: 47
1493ffba3d7f: 47
1493ffbc774a: 47
1493ffba399f: 48
560385bcc539: 48
1493ffba3971: 48
560385bcc58e: 48
1493ffba39a6: 48
560385bcc32f: 48
560385bcc327: 48
1493ffba10e6: 49
1493ffba3cde: 50
1493ffba3a09: 51
1493ffba3cb6: 52
1493ffbc76c7: 52
1493ffba3c4f: 54
1493ffbc76cf: 54
1493ffba3c61: 54
1493ffba3c45: 54
1493ffba3c95: 54
1493ffba3a27: 55
1493ffba05a7: 55
1493ffba3cd4: 55
1493ffbc76cb: 58
1493ffba3c88: 59
1493ffba0ef2: 68
1493ffba1123: 84
1493ffba0c15: 84
1493ffba0f10: 86
1493ffba3c6b: 101
1493ffba398d: 107
1493ffba0bf5: 120
1493ffba08f4: 143
1493ffba10f0: 158
1493ffbc76d3: 172
1493ffba060d: 176
1493ffba08e8: 191
1493ffba0f73: 202
1493ffba065b: 212
1493ffbc76f6: 220
1493ffbc76c4: 225
1493ffba058f: 230
1493ffba0574: 232
1493ffba04f8: 233
1493ffba30e3: 234
1493ffba0323: 234
1493ffba3d1a: 235
1493ffba3e55: 239
1493ffba05f4: 240
1493ffba30c1: 248
1493ffba30af: 248
1493ffba30cf: 248
1493ffba3076: 251
14940053cb30: 253
560385bca720: 254
560385bca5b0: 255
14940053d3f0: 255
560385bca580: 255
1493ffba307d: 255
1493ffba3961: 256
1493ffba3978: 256
1493ffba0581: 265
1493ffbc768a: 638
1493ffbc767f: 962
1493ffbc7686: 1016
560385bcc1eb: 1553
1493ffbc7682: 1910
560385bcc1e3: 3194
560385bcc1b8: 3903
560385bcc1d5: 12004
560385bcc1e7: 12243
1493ffbc7703: 12558
1493ffbc7706: 13629
1493ffbc770a: 14747
1493ffbc770e: 14882
560385bcc2dc: 27818
560385bcc2d8: 223494
560385bcc200: 1164327
560385bcc226: 8844124
L1I TOTAL     ACCESS:   25058202  HIT:   25058202  MISS:          0  HIT %:        100  MISS %:          0   MPKI: 0
L1I Test counter:          0
L1I LOAD      ACCESS:   25058202  HIT:   25058202  MISS:          0  HIT %:        100  MISS %:          0   MPKI: 0
L1I PREFETCH  REQUESTED:          0  ISSUED:          0  USEFUL:          0  USELESS:          0
L1I USEFUL LOAD PREFETCHES:          0 PREFETCH ISSUED TO LOWER LEVEL:          0  ACCURACY: -nan
L1I TIMELY PREFETCHES:          0 LATE PREFETCHES: 0 DROPPED PREFETCHES: 0
L1I COMMIT LATE PREFETCHES: 0 MISSED OPPORTUNITY: 0 LATE IN PQ: 0 UNCOVERED: 0
L1I COMMIT LATE MSHR PREFETCHES: 0
L1I MPKI TOTAL: 0 MSHR LATE: 0 PQ LATE: 0 COMMIT LATE: 0 MISSED OPPORTUNITY: 0 UNCOVERED: 0
L1I PREFETCHES SAME FILL-ORIGIN LEVEL: 0 DIFFERENT FILL-ORIGIN LEVEL: 0
L1I AVERAGE MISS LATENCY: -nan cycles
L1I AVERAGE MISS LATENCY LOAD: -nan cycles
L1I AVERAGE MISS LATENCY PREFETCH: -nan cycles
L1I AVERAGE MSHR OCCUPANCY: 0
L1I MSHR FULL: 0
L1I RQ	ACCESS:   38886245	FORWARD:          0	MERGED:   13828041	TO_CACHE:   25058204

BTB TOTAL     ACCESS:   29059518  HIT:   29059371  MISS:        147  HIT %:    99.9995  MISS %: 0.000505858   MPKI: 0.000735
BTB Test counter:          0
BTB BRANCH_DIRECT_JUMP	ACCESS:    9220890  HIT:    9220849  MISS:         41
BTB BRANCH_INDIRECT	ACCESS:          0  HIT:          0  MISS:          0
BTB BRANCH_CONDITIONAL	ACCESS:   19836028  HIT:   19835946  MISS:         82
BTB BRANCH_DIRECT_CALL	ACCESS:       1300  HIT:       1290  MISS:         10
BTB BRANCH_INDIRECT_CALL	ACCESS:          0  HIT:          0  MISS:          0
BTB BRANCH_RETURN	ACCESS:       1300  HIT:       1286  MISS:         14
BTB BRANCH_OTHER ACCESS:          0  HIT:          0  MISS:          0

L2C TOTAL     ACCESS:   19108654  HIT:    5719873  MISS:   13388781  HIT %:    29.9334  MISS %:    70.0666   MPKI: 66.9439
L2C Test counter:          0
L2C LOAD      ACCESS:   10362681  HIT:    3398937  MISS:    6963744  HIT %:    32.7998  MISS %:    67.2002   MPKI: 34.8187
L2C DATA LOAD MPKI: 34.8187
L2C INSTRUCTION LOAD MPKI: 0
L2C RFO       ACCESS:     472002  HIT:     265254  MISS:     206748  HIT %:    56.1976  MISS %:    43.8024   MPKI: 1.03374
L2C PREFETCH  ACCESS:    6849775  HIT:     681468  MISS:    6168307  HIT %:    9.94876  MISS %:    90.0512   MPKI: 30.8415
L2C DATA PREFETCH MPKI: 30.8415
L2C INSTRUCTION PREFETCH MPKI: 0
L2C WRITEBACK ACCESS:    1352395  HIT:    1348790  MISS:       3605  HIT %:    99.7334  MISS %:   0.266564   MPKI: 0.018025
L2C LOAD TRANSLATION ACCESS:      71801  HIT:      25424  MISS:      46377  HIT %:     35.409  MISS %:     64.591   MPKI: 0.231885
L2C PREFETCH  REQUESTED:    7089776  ISSUED:    7089776  USEFUL:    1599527  USELESS:    4569183
L2C USEFUL LOAD PREFETCHES:    1599527 PREFETCH ISSUED TO LOWER LEVEL:    6314505  ACCURACY: 25.331
L2C TIMELY PREFETCHES:    1599527 LATE PREFETCHES: 146197 DROPPED PREFETCHES: 0
L2C COMMIT LATE PREFETCHES: 0 MISSED OPPORTUNITY: 0 LATE IN PQ: 0 UNCOVERED: 0
L2C COMMIT LATE MSHR PREFETCHES: 0
L2C MPKI TOTAL: 34.8187 MSHR LATE: 0.730985 PQ LATE: 0 COMMIT LATE: 0 MISSED OPPORTUNITY: 0 UNCOVERED: 0
L2C PREFETCHES SAME FILL-ORIGIN LEVEL: 6314505 DIFFERENT FILL-ORIGIN LEVEL: 0
L2C AVERAGE MISS LATENCY: 122.071 cycles
L2C AVERAGE MISS LATENCY LOAD: 97.8329 cycles
L2C AVERAGE MISS LATENCY PREFETCH: 148.645 cycles
L2C AVERAGE MSHR OCCUPANCY: 3.18668
L2C MSHR FULL: 0.00328162
L2C RQ	ACCESS:   10906498	FORWARD:          0	MERGED:          0	TO_CACHE:   10906485
L2C WQ	ACCESS:    1352395	FORWARD:         13	MERGED:          0	TO_CACHE:    1352395
L2C PQ	ACCESS:    7089776	FORWARD:          0	MERGED:          0	TO_CACHE:    7089776

L2C Instructions Evicting Data 0
L2C Translations Evicting Data 46197
L2C Data Evicting Data 13292632
L2C Instructions Evicting Instructions 0
L2C Translations Evicting Instructions 0
L2C Data Evicting Instructions 0
L2C Instructions Evicting Translations 0
L2C Translations Evicting Translations 180
L2C Data Evicting Translations 46167
L2C Dense regions hint from L2: 0
560385bcc2f6: 1
560385bcc539: 1
1493ffbc75cc: 1
1493ffba3a58: 1
1493ffb9c93c: 1
1493ffba3a7c: 1
1493ffb9c9de: 1
7fff0f33fd75: 1
1493ffb9c959: 1
1493ffb9c9fc: 1
1493ffba3a39: 1
1493ffb9c99b: 1
1493ffba04f8: 1
1493ffba0896: 1
560385bca580: 1
560385bcc386: 1
560385bcc5c5: 1
1493ffb9ca06: 1
1493ffb9c965: 1
1493ffb9c97e: 1
1493ffb9ca25: 1
1493ffba3a4b: 1
560385bca710: 1
1493ffbc7477: 1
1493ffba30af: 2
560385bcc327: 2
1493ffba1252: 2
1493ffbc75d4: 2
1493ffbc75d0: 2
560385bcc58e: 2
1493ffba0f2b: 2
1493ffba3d3b: 3
1493ffbc75c5: 4
1493ffba3c45: 4
1493ffba3c95: 4
1493ffbc774a: 4
1493ffba112d: 4
560385bcc4d3: 4
1493ffba445d: 4
1493ffba3d67: 4
1493ffba444d: 5
1493ffba3a27: 5
1493ffba3c88: 5
1493ffba3d7f: 5
1493ffba4457: 5
1493ffba124c: 6
1493ffbc7650: 7
1493ffba121e: 7
560385bcc32f: 8
1493ffbc7646: 8
1493ffba1135: 8
1493ffba43a4: 8
1493ffbc764b: 8
1493ffba0ebb: 9
1493ffba439a: 9
1493ffba115a: 9
1493ffba3ccc: 9
1493ffba3cf9: 9
1493ffba438c: 12
1493ffba0f46: 12
1493ffba3e41: 12
1493ffba0e6c: 12
1493ffba3a12: 13
1493ffba1106: 14
1493ffba3978: 14
1493ffba320e: 15
1493ffba0795: 15
1493ffba0f19: 15
1493ffba31f4: 16
1493ffba3207: 16
1493ffba398d: 16
1493ffbc7641: 18
1493ffba062d: 18
1493ffba0c11: 18
1493ffba3d4d: 21
1493ffba0eb2: 24
1493ffba113f: 25
1493ffba0867: 27
1493ffbc7672: 28
1493ffba3d43: 28
1493ffbc763e: 30
1493ffba0e97: 31
1493ffba110a: 33
1493ffba3c6b: 36
1493ffba065b: 39
1493ffba10ec: 43
1493ffba3cde: 46
1493ffba05a7: 46
1493ffba1174: 46
1493ffba3cd4: 47
1493ffba10e6: 47
1493ffba3cb6: 48
1493ffbc76c7: 52
1493ffbc76cf: 52
1493ffbc76cb: 57
1493ffba0ef2: 66
1493ffba0c15: 72
1493ffba0f10: 82
1493ffba1123: 84
1493ffbc76d3: 86
1493ffba08e8: 110
1493ffba0bf5: 114
1493ffba08f4: 132
1493ffba10f0: 146
1493ffba05f4: 153
1493ffba060d: 165
1493ffba058f: 181
1493ffbc76f6: 188
1493ffba0323: 203
1493ffba30e3: 203
1493ffba3e55: 208
1493ffba30c1: 211
1493ffba30cf: 211
14940053d3f0: 213
1493ffba307d: 213
560385bca5b0: 221
1493ffba3076: 223
1493ffba0581: 224
1493ffbc76c4: 225
14940053cb30: 227
1493ffba3d1a: 229
1493ffbc768a: 355
1493ffbc767f: 463
1493ffbc7686: 518
560385bcc1e3: 541
560385bcc1b8: 717
1493ffbc7682: 1029
560385bcc2dc: 1436
560385bcc1eb: 1549
1493ffbc7703: 5122
1493ffbc7706: 5637
1493ffbc770e: 5883
1493ffbc770a: 6003
560385bcc1d5: 9938
560385bcc1e7: 12236
560385bcc2d8: 13944
560385bcc200: 54866
560385bcc226: 6837872
PSCL5 TOTAL     ACCESS:      59770  HIT:      59770  MISS:          0  HIT %:        100  MISS %:          0   MPKI: 0
PSCL5 Test counter:          0
PSCL5 LOAD TRANSLATION ACCESS:      59770  HIT:      59770  MISS:          0  HIT %:        100  MISS %:          0   MPKI: 0
PSCL5 PREFETCH  REQUESTED:          0  ISSUED:          0  USEFUL:          0  USELESS:          0
PSCL5 USEFUL LOAD PREFETCHES:          0 PREFETCH ISSUED TO LOWER LEVEL:          0  ACCURACY: -nan
PSCL5 TIMELY PREFETCHES:          0 LATE PREFETCHES: 0 DROPPED PREFETCHES: 0
PSCL5 COMMIT LATE PREFETCHES: 0 MISSED OPPORTUNITY: 0 LATE IN PQ: 0 UNCOVERED: 0
PSCL5 COMMIT LATE MSHR PREFETCHES: 0
PSCL5 MPKI TOTAL: 0 MSHR LATE: 0 PQ LATE: 0 COMMIT LATE: 0 MISSED OPPORTUNITY: 0 UNCOVERED: 0
PSCL5 PREFETCHES SAME FILL-ORIGIN LEVEL: 0 DIFFERENT FILL-ORIGIN LEVEL: 0

PSCL4 TOTAL     ACCESS:      59770  HIT:      59770  MISS:          0  HIT %:        100  MISS %:          0   MPKI: 0
PSCL4 Test counter:          0
PSCL4 LOAD TRANSLATION ACCESS:      59770  HIT:      59770  MISS:          0  HIT %:        100  MISS %:          0   MPKI: 0
PSCL4 PREFETCH  REQUESTED:          0  ISSUED:          0  USEFUL:          0  USELESS:          0
PSCL4 USEFUL LOAD PREFETCHES:          0 PREFETCH ISSUED TO LOWER LEVEL:          0  ACCURACY: -nan
PSCL4 TIMELY PREFETCHES:          0 LATE PREFETCHES: 0 DROPPED PREFETCHES: 0
PSCL4 COMMIT LATE PREFETCHES: 0 MISSED OPPORTUNITY: 0 LATE IN PQ: 0 UNCOVERED: 0
PSCL4 COMMIT LATE MSHR PREFETCHES: 0
PSCL4 MPKI TOTAL: 0 MSHR LATE: 0 PQ LATE: 0 COMMIT LATE: 0 MISSED OPPORTUNITY: 0 UNCOVERED: 0
PSCL4 PREFETCHES SAME FILL-ORIGIN LEVEL: 0 DIFFERENT FILL-ORIGIN LEVEL: 0

PSCL3 TOTAL     ACCESS:      59770  HIT:      59770  MISS:          0  HIT %:        100  MISS %:          0   MPKI: 0
PSCL3 Test counter:          0
PSCL3 LOAD TRANSLATION ACCESS:      59770  HIT:      59770  MISS:          0  HIT %:        100  MISS %:          0   MPKI: 0
PSCL3 PREFETCH  REQUESTED:          0  ISSUED:          0  USEFUL:          0  USELESS:          0
PSCL3 USEFUL LOAD PREFETCHES:          0 PREFETCH ISSUED TO LOWER LEVEL:          0  ACCURACY: -nan
PSCL3 TIMELY PREFETCHES:          0 LATE PREFETCHES: 0 DROPPED PREFETCHES: 0
PSCL3 COMMIT LATE PREFETCHES: 0 MISSED OPPORTUNITY: 0 LATE IN PQ: 0 UNCOVERED: 0
PSCL3 COMMIT LATE MSHR PREFETCHES: 0
PSCL3 MPKI TOTAL: 0 MSHR LATE: 0 PQ LATE: 0 COMMIT LATE: 0 MISSED OPPORTUNITY: 0 UNCOVERED: 0
PSCL3 PREFETCHES SAME FILL-ORIGIN LEVEL: 0 DIFFERENT FILL-ORIGIN LEVEL: 0

PSCL2 TOTAL     ACCESS:      59770  HIT:      47737  MISS:      12033  HIT %:    79.8678  MISS %:    20.1322   MPKI: 0.060165
PSCL2 Test counter:          0
PSCL2 LOAD TRANSLATION ACCESS:      59770  HIT:      47737  MISS:      12033  HIT %:    79.8678  MISS %:    20.1322   MPKI: 0.060165
PSCL2 PREFETCH  REQUESTED:          0  ISSUED:          0  USEFUL:          0  USELESS:          0
PSCL2 USEFUL LOAD PREFETCHES:          0 PREFETCH ISSUED TO LOWER LEVEL:          0  ACCURACY: -nan
PSCL2 TIMELY PREFETCHES:          0 LATE PREFETCHES: 0 DROPPED PREFETCHES: 0
PSCL2 COMMIT LATE PREFETCHES: 0 MISSED OPPORTUNITY: 0 LATE IN PQ: 0 UNCOVERED: 0
PSCL2 COMMIT LATE MSHR PREFETCHES: 0
PSCL2 MPKI TOTAL: 0 MSHR LATE: 0 PQ LATE: 0 COMMIT LATE: 0 MISSED OPPORTUNITY: 0 UNCOVERED: 0
PSCL2 PREFETCHES SAME FILL-ORIGIN LEVEL: 0 DIFFERENT FILL-ORIGIN LEVEL: 0

LLC TOTAL     ACCESS:   14266952  HIT:    6177076  MISS:    8089876  HIT %:    43.2964  MISS %:    56.7036   MPKI: 40.4494
LLC Test counter:          0
LLC LOAD      ACCESS:    6817548  HIT:    3566426  MISS:    3251122  HIT %:    52.3124  MISS %:    47.6876   MPKI: 16.2556
LLC RFO       ACCESS:     206747  HIT:      94962  MISS:     111785  HIT %:    45.9315  MISS %:    54.0685   MPKI: 0.558925
LLC PREFETCH  ACCESS:    6314504  HIT:    1633515  MISS:    4680989  HIT %:    25.8693  MISS %:    74.1307   MPKI: 23.4049
LLC WRITEBACK ACCESS:     881776  HIT:     872658  MISS:       9118  HIT %:     98.966  MISS %:    1.03405   MPKI: 0.04559
LLC LOAD TRANSLATION ACCESS:      46377  HIT:       9515  MISS:      36862  HIT %:    20.5166  MISS %:    79.4834   MPKI: 0.18431
LLC PREFETCH  REQUESTED:          0  ISSUED:          0  USEFUL:     500799  USELESS:    4180624
LLC USEFUL LOAD PREFETCHES:     500799 PREFETCH ISSUED TO LOWER LEVEL:    4680989  ACCURACY: 10.6986
LLC TIMELY PREFETCHES:     500799 LATE PREFETCHES: 0 DROPPED PREFETCHES: 0
LLC COMMIT LATE PREFETCHES: 0 MISSED OPPORTUNITY: 0 LATE IN PQ: 0 UNCOVERED: 0
LLC COMMIT LATE MSHR PREFETCHES: 0
LLC MPKI TOTAL: 16.2556 MSHR LATE: 0 PQ LATE: 0 COMMIT LATE: 0 MISSED OPPORTUNITY: 0 UNCOVERED: 0
LLC PREFETCHES SAME FILL-ORIGIN LEVEL: 0 DIFFERENT FILL-ORIGIN LEVEL: 0
LLC AVERAGE MISS LATENCY: 153.213 cycles
LLC AVERAGE MISS LATENCY LOAD: 141.612 cycles
LLC AVERAGE MISS LATENCY PREFETCH: 160.338 cycles
LLC AVERAGE MSHR OCCUPANCY: 2.23352
LLC MSHR FULL: 0
LLC RQ	ACCESS:    7070672	FORWARD:          0	MERGED:          0	TO_CACHE:    7070672
LLC WQ	ACCESS:     881776	FORWARD:          1	MERGED:          0	TO_CACHE:     881776
LLC PQ	ACCESS:    6314505	FORWARD:          0	MERGED:          0	TO_CACHE:    6314504

LLC Dense regions hint to LLC: 0
560385bcc327: 1
1493ffb9c9fc: 1
1493ffba3a27: 1
7fff0f33fd75: 1
560385bcc58e: 1
1493ffba04f8: 1
1493ffb9c99b: 1
1493ffba3a39: 1
1493ffb9c9de: 1
1493ffba3c45: 1
1493ffba112d: 1
560385bcc386: 1
560385bca710: 1
1493ffbc7477: 1
1493ffb9c97e: 1
1493ffbc75cc: 1
1493ffb9c965: 1
560385bcc5c5: 1
1493ffb9ca06: 1
1493ffba1252: 2
1493ffba3d7f: 2
1493ffbc75d4: 2
1493ffbc75d0: 2
1493ffba0f2b: 2
1493ffba3c88: 2
1493ffba3c95: 2
560385bcc32f: 2
1493ffba3d3b: 2
1493ffba3978: 3
1493ffbc7646: 3
1493ffbc75c5: 3
1493ffba3d67: 3
1493ffba444d: 4
1493ffba4457: 4
1493ffba445d: 4
1493ffba1135: 6
1493ffba121e: 6
1493ffba124c: 6
1493ffbc7650: 6
1493ffbc764b: 7
1493ffbc7641: 7
1493ffba43a4: 7
1493ffba0ebb: 8
1493ffba3cf9: 8
1493ffba115a: 8
1493ffba439a: 8
1493ffba3ccc: 8
1493ffba438c: 10
1493ffba0e6c: 11
1493ffba0867: 11
1493ffba0f46: 11
1493ffba1106: 11
1493ffba065b: 12
1493ffba320e: 12
1493ffba3e41: 12
1493ffba0f19: 12
1493ffba0795: 13
1493ffba398d: 13
1493ffba3a12: 13
1493ffba062d: 13
1493ffba31f4: 15
1493ffbc7672: 15
1493ffba0c11: 15
1493ffba3207: 15
1493ffba3d4d: 17
1493ffba0eb2: 19
1493ffba113f: 20
1493ffbc76d3: 21
1493ffba3d43: 24
1493ffba110a: 24
1493ffba0e97: 26
1493ffbc763e: 29
1493ffba05a7: 30
1493ffba10ec: 32
1493ffba3c6b: 33
1493ffba3cde: 40
1493ffba3cd4: 41
1493ffba1174: 41
1493ffba10e6: 42
1493ffba3cb6: 43
1493ffbc76cf: 52
1493ffbc76c7: 52
1493ffbc76cb: 57
1493ffba0ef2: 58
1493ffba0c15: 58
1493ffba0f10: 72
1493ffba1123: 79
1493ffba30e3: 85
1493ffba0bf5: 88
14940053d3f0: 89
1493ffba08e8: 93
1493ffba058f: 94
1493ffba08f4: 103
1493ffba307d: 106
1493ffba0323: 107
1493ffba10f0: 109
1493ffba3e55: 109
1493ffba0581: 112
560385bcc1e3: 113
14940053cb30: 114
1493ffba30cf: 114
1493ffba05f4: 116
1493ffbc76f6: 118
560385bcc2dc: 121
1493ffba30c1: 127
1493ffba3076: 129
560385bca5b0: 129
1493ffba060d: 139
1493ffbc768a: 200
1493ffbc767f: 207
1493ffbc76c4: 222
1493ffbc7686: 223
1493ffba3d1a: 227
560385bcc1b8: 363
1493ffbc7682: 552
560385bcc2d8: 1332
1493ffbc7703: 1448
1493ffbc770e: 1469
1493ffbc7706: 1502
560385bcc1eb: 1549
1493ffbc770a: 1748
560385bcc1d5: 5120
560385bcc1e7: 12230
560385bcc200: 54747
560385bcc226: 3164398

RAW hits: 67725
Loads Generated: 76779995
Loads sent to L1D: 76712266
Stores Generated: 2230582
Stores sent to L1D: 2230588
Major fault: 0 Minor fault: 36865
Allocated PAGES: 36865
Total Load insts: 93541464
Total Non-spec loads: 6463521
Percentage of speculative loads: 93.0902
L1D response latency: 80.83 cycles
Load retirement latency: 160.992 cycles

[Bingo] PHT Access: 5164160
[Bingo] PHT Hit PC+Addr: 186216
[Bingo] PHT Hit PC+Offs: 4973638
[Bingo] PHT Miss: 4306
[Bingo] Prefetch PC+Addr: 0
[Bingo] Prefetch PC+Offs: 0
[Bingo] Useful PC+Addr: 0
[Bingo] Useful PC+Offs: 0
[Bingo] Useless PC+Addr: 0
[Bingo] Useless PC+Offs: 0
[Bingo] L1 Prefetch per Region: 0
[Bingo] L2 Prefetch per Region: 2.39314
[Bingo] L3 Prefetch per Region: 0
[Bingo] No Prefetch per Region: 29.6069
[Bingo] Number of Voters Mean: 15.9699
[Bingo] Number of Voters SD: 6.34868
PHT read accesses: 80858218
PHT write accesses: 1884477
AT read accesses: 5629123
AT write accesses: 7082748
FT read accesses: 5866942
FT write accesses: 5164160
PS read accesses: 10446479
PS write accesses: 5159854
PHT tag read accesses: 140332657
PHT tag write accesses: 2070693
AT tag read accesses: 467221117
AT tag write accesses: 7513600
FT tag read accesses: 505021868
FT tag write accesses: 9146375
PS tag read accesses: 350015120
PS tag write accesses: 15594093

DRAM Statistics
 CHANNEL 0
 RQ ROW_BUFFER_HIT:    4415263  ROW_BUFFER_MISS:    3665303
 DBUS_CONGESTED:       9223
 WQ ROW_BUFFER_HIT:     142897  ROW_BUFFER_MISS:     606421  FULL:          0

 AVG_CONGESTED_CYCLE: 4
 All warmup complete: 2
Channel 0 Bank busy for read cycles: 0
Channel 0 Bank busy for write cycles: 0
Channel 0
Rank 0
0banks busy for read cycles: 117943865
0banks busy for write cycles: 312273
1banks busy for read cycles: 114278195
1banks busy for write cycles: 48402914
2banks busy for read cycles: 72136186
2banks busy for write cycles: 19845048
3banks busy for read cycles: 44644851
3banks busy for write cycles: 9115960
4banks busy for read cycles: 25516004
4banks busy for write cycles: 4722379
5banks busy for read cycles: 13434137
5banks busy for write cycles: 2573473
6banks busy for read cycles: 7330993
6banks busy for write cycles: 1420799
7banks busy for read cycles: 5844657
7banks busy for write cycles: 798458
8banks busy for read cycles: 15521747
8banks busy for write cycles: 625474

CPU 0 Branch Prediction Accuracy: 97.7755% MPKI: 3.30878 Average ROB Occupancy at Mispredict: 166.704
Branch types
NOT_BRANCH: 170251444 85.1257%
BRANCH_DIRECT_JUMP: 9220890 4.61044%
BRANCH_INDIRECT: 0 0%
BRANCH_CONDITIONAL: 20524873 10.2624%
BRANCH_DIRECT_CALL: 1300 0.00065%
BRANCH_INDIRECT_CALL: 0 0%
BRANCH_RETURN: 1300 0.00065%
BRANCH_OTHER: 0 0%

DRAM PAGES: 1048576
Allocated PAGES: 36865
