
*** ChampSim Multicore Out-of-Order Simulator ***

Warmup Instructions: 50000000
Simulation Instructions: 200000000
Number of CPUs: 1
LLC sets: 2048
LLC ways: 16
L0D sets: 16
L0D ways: 2
ROB size: 352
LQ size: 128
SQ size: 72
Secure Berti: OFF
Berti: OFF
Berti Fill: OFF
On commit prefetching: ON
Hit-based filter: OFF
Time-guarding: ON
Free-slotting: ON
Leap-frogging: ON
Train prefetcher on L0D bypass: OFF
No translation penalty for prefetchers: OFF
Prefetch to L0D only: OFF
Prefetch to L1D only: OFF
Clean evictions: ON
Commit loads: ON
Commit write: ON
Fill commit loads to L2C, LLC: ON
DRAM IO FREQUENCY: 6400
ROB SIZE: 352
Off-chip DRAM Size: 4096 MB Channels: 1 Width: 64-bit Data Rate: 6400 MT/s
CPU 0 runs /home/sumon/secure_berti/GhostMinion/../../traces/spec/603.bwaves_s-2931B.champsimtrace.xz
.xz
BTB has LRU replacement policy
ITLB has LRU replacement policy
DTLB has LRU replacement policy
STLB has LRU replacement policy
L1I has LRU replacement policy
L0D has LRU replacement policy
Bingo PHT WAYS: 16 and PHT_SIZE: 16384
L1D has LRU replacement policy
Bingo PHT WAYS: 16 and PHT_SIZE: 16384
L2C has LRU replacement policy
LLC has LRU replacement policy
Heartbeat CPU 0 instructions: 10000003 cycles: 3159671 heartbeat IPC: 3.16489 cumulative IPC: 3.16489 (Simulation time: 0 hr 1 min 27 sec) 
Heartbeat CPU 0 instructions: 20000003 cycles: 6318244 heartbeat IPC: 3.16599 cumulative IPC: 3.16544 (Simulation time: 0 hr 2 min 56 sec) 
Heartbeat CPU 0 instructions: 30000003 cycles: 9477034 heartbeat IPC: 3.16577 cumulative IPC: 3.16555 (Simulation time: 0 hr 4 min 26 sec) 
Heartbeat CPU 0 instructions: 40000002 cycles: 12636022 heartbeat IPC: 3.16557 cumulative IPC: 3.16555 (Simulation time: 0 hr 5 min 58 sec) 
Heartbeat CPU 0 instructions: 50000003 cycles: 15795251 heartbeat IPC: 3.16533 cumulative IPC: 3.16551 (Simulation time: 0 hr 7 min 30 sec) 

Warmup complete CPU 0 instructions: 50000003 cycles: 15795251 (Simulation time: 0 hr 7 min 30 sec) 

Heartbeat CPU 0 instructions: 60000002 cycles: 24412004 heartbeat IPC: 1.16053 cumulative IPC: 1.16053 (Simulation time: 0 hr 9 min 13 sec) 
Heartbeat CPU 0 instructions: 70000002 cycles: 33074169 heartbeat IPC: 1.15445 cumulative IPC: 1.15748 (Simulation time: 0 hr 10 min 57 sec) 
Heartbeat CPU 0 instructions: 80000003 cycles: 41760407 heartbeat IPC: 1.15125 cumulative IPC: 1.15539 (Simulation time: 0 hr 12 min 41 sec) 
Heartbeat CPU 0 instructions: 90000003 cycles: 50402831 heartbeat IPC: 1.15708 cumulative IPC: 1.15582 (Simulation time: 0 hr 14 min 25 sec) 
Heartbeat CPU 0 instructions: 100000002 cycles: 59042785 heartbeat IPC: 1.15741 cumulative IPC: 1.15614 (Simulation time: 0 hr 16 min 9 sec) 
Heartbeat CPU 0 instructions: 110000000 cycles: 67669252 heartbeat IPC: 1.15922 cumulative IPC: 1.15665 (Simulation time: 0 hr 18 min 37 sec) 
Heartbeat CPU 0 instructions: 120000000 cycles: 76290221 heartbeat IPC: 1.15996 cumulative IPC: 1.15712 (Simulation time: 0 hr 21 min 22 sec) 
Heartbeat CPU 0 instructions: 130000002 cycles: 84960520 heartbeat IPC: 1.15336 cumulative IPC: 1.15665 (Simulation time: 0 hr 24 min 7 sec) 
Heartbeat CPU 0 instructions: 140000002 cycles: 93563892 heartbeat IPC: 1.16233 cumulative IPC: 1.15728 (Simulation time: 0 hr 26 min 52 sec) 
Heartbeat CPU 0 instructions: 150000001 cycles: 102177312 heartbeat IPC: 1.16098 cumulative IPC: 1.15765 (Simulation time: 0 hr 29 min 37 sec) 
Heartbeat CPU 0 instructions: 160000001 cycles: 110797477 heartbeat IPC: 1.16007 cumulative IPC: 1.15787 (Simulation time: 0 hr 32 min 21 sec) 
Heartbeat CPU 0 instructions: 170000003 cycles: 119402723 heartbeat IPC: 1.16208 cumulative IPC: 1.15822 (Simulation time: 0 hr 35 min 6 sec) 
Heartbeat CPU 0 instructions: 180000000 cycles: 128082132 heartbeat IPC: 1.15215 cumulative IPC: 1.15775 (Simulation time: 0 hr 37 min 51 sec) 
Heartbeat CPU 0 instructions: 190000000 cycles: 136714441 heartbeat IPC: 1.15844 cumulative IPC: 1.1578 (Simulation time: 0 hr 39 min 48 sec) 
Heartbeat CPU 0 instructions: 200000000 cycles: 145332164 heartbeat IPC: 1.1604 cumulative IPC: 1.15797 (Simulation time: 0 hr 41 min 32 sec) 
Heartbeat CPU 0 instructions: 210000003 cycles: 153973124 heartbeat IPC: 1.15728 cumulative IPC: 1.15793 (Simulation time: 0 hr 43 min 16 sec) 
Heartbeat CPU 0 instructions: 220000000 cycles: 162594026 heartbeat IPC: 1.15997 cumulative IPC: 1.15805 (Simulation time: 0 hr 45 min 0 sec) 
Heartbeat CPU 0 instructions: 230000000 cycles: 171251027 heartbeat IPC: 1.15513 cumulative IPC: 1.15789 (Simulation time: 0 hr 46 min 46 sec) 
Heartbeat CPU 0 instructions: 240000000 cycles: 179868179 heartbeat IPC: 1.16048 cumulative IPC: 1.15802 (Simulation time: 0 hr 48 min 32 sec) 
Heartbeat CPU 0 instructions: 250000001 cycles: 188481859 heartbeat IPC: 1.16094 cumulative IPC: 1.15817 (Simulation time: 0 hr 50 min 16 sec) 
Finished CPU 0 instructions: 200000002 cycles: 172686609 cumulative IPC: 1.15817 (Simulation time: 0 hr 50 min 16 sec) 
 Instruction ID: 250000064

ChampSim completed all CPUs

Region of Interest Statistics

CPU 0 cumulative IPC: 1.15817 instructions: 200000002 cycles: 172686609
ITLB SPEC fills:          0  NON-SPEC fills:          0
ITLB Test counter :          0
ITLB Leapfrog:          0
ITLB MSHR merge:          0
ITLB TOTAL     ACCESS:   24110587  HIT:   24110587  MISS:          0  HIT %:        100  MISS %:          0   MPKI: 0
ITLB LOAD TRANSLATION NON_SPEC    ACCESS:   24110587  HIT:   24110587  MISS:          0  HIT %:        100  MISS %:          0   MPKI: 0
ITLB PREFETCH  REQUESTED:          0  ISSUED:          0  USEFUL:          0  USELESS:          0
ITLB USEFUL LOAD PREFETCHES:          0 PREFETCH ISSUED TO LOWER LEVEL:          0  ACCURACY: -nan
ITLB TIMELY PREFETCHES:          0 LATE PREFETCHES: 0 DROPPED PREFETCHES: 0
ITLB COMMIT LATE PREFETCHES: 0 NORMAL LATE: 0 MISSED OPPORTUNITY: 0 UNCOVERED: 0
ITLB PREFETCHES SAME FILL-ORIGIN LEVEL: 0 DIFFERENT FILL-ORIGIN LEVEL: 0
ITLB AVERAGE MISS LATENCY: -nan cycles
ITLB AVERAGE MISS LATENCY LOAD: -nan cycles
ITLB AVERAGE MISS LATENCY PREFETCH: -nan cycles
ITLB AVERAGE MSHR OCCUPANCY: 0
ITLB MSHR FULL: 0
ITLB RQ	ACCESS:   27878498	FORWARD:          0	MERGED:    3767911	TO_CACHE:   24110587

DTLB SPEC fills:          0  NON-SPEC fills:          0
DTLB Test counter :          0
DTLB Leapfrog:          0
DTLB MSHR merge:          0
DTLB TOTAL     ACCESS:   53593492  HIT:   53163727  MISS:     429765  HIT %:    99.1981  MISS %:   0.801898   MPKI: 2.14882
DTLB LOAD TRANSLATION NON_SPEC    ACCESS:   53593492  HIT:   53163727  MISS:     429765  HIT %:    99.1981  MISS %:   0.801898   MPKI: 2.14882
DTLB PREFETCH  REQUESTED:          0  ISSUED:          0  USEFUL:          0  USELESS:          0
DTLB USEFUL LOAD PREFETCHES:          0 PREFETCH ISSUED TO LOWER LEVEL:          0  ACCURACY: -nan
DTLB TIMELY PREFETCHES:          0 LATE PREFETCHES: 0 DROPPED PREFETCHES: 0
DTLB COMMIT LATE PREFETCHES: 0 NORMAL LATE: 0 MISSED OPPORTUNITY: 0 UNCOVERED: 0
DTLB PREFETCHES SAME FILL-ORIGIN LEVEL: 0 DIFFERENT FILL-ORIGIN LEVEL: 0
DTLB AVERAGE MISS LATENCY: 74.2508 cycles
DTLB AVERAGE MISS LATENCY LOAD: -nan cycles
DTLB AVERAGE MISS LATENCY PREFETCH: -nan cycles
DTLB AVERAGE MSHR OCCUPANCY: 0.0746474
DTLB MSHR FULL: 3.72774e-07
DTLB RQ	ACCESS:   81777406	FORWARD:          0	MERGED:   28125609	TO_CACHE:   53651797

STLB SPEC fills:          0  NON-SPEC fills:          0
STLB Test counter :          0
STLB Leapfrog:          0
STLB MSHR merge:          0
STLB TOTAL     ACCESS:     429765  HIT:     387161  MISS:      42604  HIT %:    90.0867  MISS %:    9.91332   MPKI: 0.21302
STLB LOAD TRANSLATION NON_SPEC    ACCESS:     429765  HIT:     387161  MISS:      42604  HIT %:    90.0867  MISS %:    9.91332   MPKI: 0.21302
STLB PREFETCH  REQUESTED:          0  ISSUED:          0  USEFUL:          0  USELESS:          0
STLB USEFUL LOAD PREFETCHES:          0 PREFETCH ISSUED TO LOWER LEVEL:          0  ACCURACY: -nan
STLB TIMELY PREFETCHES:          0 LATE PREFETCHES: 0 DROPPED PREFETCHES: 0
STLB COMMIT LATE PREFETCHES: 0 NORMAL LATE: 0 MISSED OPPORTUNITY: 0 UNCOVERED: 0
STLB PREFETCHES SAME FILL-ORIGIN LEVEL: 0 DIFFERENT FILL-ORIGIN LEVEL: 0
STLB AVERAGE MISS LATENCY: 657.467 cycles
STLB AVERAGE MISS LATENCY LOAD: -nan cycles
STLB AVERAGE MISS LATENCY PREFETCH: -nan cycles
STLB AVERAGE MSHR OCCUPANCY: 0.178165
STLB MSHR FULL: 0
STLB RQ	ACCESS:     429765	FORWARD:          0	MERGED:          0	TO_CACHE:     429765

STLB Hit, L1D data hit: 0
STLB Hit, L2C data hit: 0
STLB Hit, LLC data hit: 0
STLB Hit, LLC data miss: 0
STLB STLB hints to L2: 0
L0D SPEC fills:   28831980  NON-SPEC fills:          0
L0D TimeGuard Request with older TS:     234363 Restricted eviction:    1464782 read:     158714
L0D Test counter :          0
L0D Leapfrog:          0
L0D MSHR merge:    1372384
L0D TOTAL     ACCESS:   43755964  HIT:    9360898  MISS:   34395066  HIT %:    21.3934  MISS %:    78.6066   MPKI: 171.975
L0D LOAD      TOTAL       ACCESS:   43755964  HIT:    9360898  MISS:   34395066  HIT %:    21.3934  MISS %:    78.6066   MPKI: 171.975
L0D LOAD      NON_SPEC    ACCESS:    5000781  HIT:     902433  MISS:    4098348  HIT %:    18.0458  MISS %:    81.9542   MPKI: 20.4917
L0D LOAD      SPEC        ACCESS:   38755183  HIT:    8458465  MISS:   30296718  HIT %:    21.8254  MISS %:    78.1746   MPKI: 151.484
L0D PREFETCH  REQUESTED:          0  ISSUED:          0  USEFUL:          0  USELESS:          0
L0D USEFUL LOAD PREFETCHES:          0 PREFETCH ISSUED TO LOWER LEVEL:          0  ACCURACY: -nan
L0D TIMELY PREFETCHES:          0 LATE PREFETCHES: 0 DROPPED PREFETCHES: 0
L0D COMMIT LATE PREFETCHES: 0 NORMAL LATE: 0 MISSED OPPORTUNITY: 0 UNCOVERED: 0
L0D PREFETCHES SAME FILL-ORIGIN LEVEL: 0 DIFFERENT FILL-ORIGIN LEVEL: 0
L0D AVERAGE MISS LATENCY: 6.42053 cycles
L0D AVERAGE MISS LATENCY LOAD: 6.42053 cycles
L0D AVERAGE MISS LATENCY PREFETCH: -nan cycles
L0D AVERAGE MSHR OCCUPANCY: 1.26428
L0D MSHR FULL: 0.00277667
L0D RQ	ACCESS:   56964304	FORWARD:          0	MERGED:   11835958	TO_CACHE:   45128346
L0D WQ	ACCESS:   36649060	FORWARD:          0	MERGED:          0	TO_CACHE:   36649060

L1D SPEC fills:          0  NON-SPEC fills:      23107
L1D Test counter :          0
L1D Leapfrog:          0
L1D MSHR merge:       4490
L1D TOTAL     ACCESS:  107041158  HIT:  101567068  MISS:    5474090  HIT %:     94.886  MISS %:      5.114   MPKI: 27.3704
L1D LOAD      TOTAL       ACCESS:   34390576  HIT:   32310186  MISS:    2080390  HIT %:    93.9507  MISS %:     6.0493   MPKI: 10.4019
L1D LOAD      NON_SPEC    ACCESS:    4098344  HIT:    4075237  MISS:      23107  HIT %:    99.4362  MISS %:   0.563813   MPKI: 0.115535
L1D LOAD      SPEC        ACCESS:   30292232  HIT:   28234949  MISS:    2057283  HIT %:    93.2085  MISS %:    6.79145   MPKI: 10.2864
L1D RFO       NON_SPEC    ACCESS:   32132394  HIT:   30868794  MISS:    1263600  HIT %:    96.0675  MISS %:    3.93248   MPKI: 6.318
L1D COMMIT LOAD NON_SPEC    ACCESS:   11932247  HIT:   11863309  MISS:      68938  HIT %:    99.4223  MISS %:   0.577745   MPKI: 0.34469
L1D COMMIT WRITE NON_SPEC    ACCESS:   28585941  HIT:   26524779  MISS:    2061162  HIT %:    92.7896  MISS %:     7.2104   MPKI: 10.3058
L1D PREFETCH  REQUESTED:          0  ISSUED:          0  USEFUL:          0  USELESS:          0
L1D USEFUL LOAD PREFETCHES:          0 PREFETCH ISSUED TO LOWER LEVEL:          0  ACCURACY: -nan
L1D TIMELY PREFETCHES:          0 LATE PREFETCHES: 0 DROPPED PREFETCHES: 0
L1D COMMIT LATE PREFETCHES: 0 NORMAL LATE: 0 MISSED OPPORTUNITY: 0 UNCOVERED: 2080911
L1D PREFETCHES SAME FILL-ORIGIN LEVEL: 0 DIFFERENT FILL-ORIGIN LEVEL: 0
L1D AVERAGE MISS LATENCY: 131.276 cycles
L1D AVERAGE MISS LATENCY LOAD: 19.5583 cycles
L1D AVERAGE MISS LATENCY PREFETCH: -nan cycles
L1D AVERAGE MSHR OCCUPANCY: 4.48069
L1D MSHR FULL: 0.0316287
L1D RQ	ACCESS:   57478174	FORWARD:          0	MERGED:   11126663	TO_CACHE:   46327835
L1D WQ	ACCESS:   65250671	FORWARD:      23676	MERGED:     426882	TO_CACHE:   64823789

L1D UNIQUE REGIONS ACCESSED: 0
L1D REGIONS CONFLICTS: 0
L1D Cross Page Prefetch Requests: 0
L1D Same Page Prefetch Requests: 0
L1D ROI Sum of L1D PQ occupancy: 0
L1D PREFETCHES PUSHED FROM L2C: 0
L1I SPEC fills:          0  NON-SPEC fills:          0
L1I Test counter :          0
L1I Leapfrog:          0
L1I MSHR merge:          0
L1I TOTAL     ACCESS:   27878496  HIT:   27878496  MISS:          0  HIT %:        100  MISS %:          0   MPKI: 0
L1I LOAD      TOTAL       ACCESS:   27878496  HIT:   27878496  MISS:          0  HIT %:        100  MISS %:          0   MPKI: 0
L1I LOAD      NON_SPEC    ACCESS:   27878496  HIT:   27878496  MISS:          0  HIT %:        100  MISS %:          0   MPKI: 0
L1I PREFETCH  REQUESTED:          0  ISSUED:          0  USEFUL:          0  USELESS:          0
L1I USEFUL LOAD PREFETCHES:          0 PREFETCH ISSUED TO LOWER LEVEL:          0  ACCURACY: -nan
L1I TIMELY PREFETCHES:          0 LATE PREFETCHES: 0 DROPPED PREFETCHES: 0
L1I COMMIT LATE PREFETCHES: 0 NORMAL LATE: 0 MISSED OPPORTUNITY: 0 UNCOVERED: 0
L1I PREFETCHES SAME FILL-ORIGIN LEVEL: 0 DIFFERENT FILL-ORIGIN LEVEL: 0
L1I AVERAGE MISS LATENCY: -nan cycles
L1I AVERAGE MISS LATENCY LOAD: -nan cycles
L1I AVERAGE MISS LATENCY PREFETCH: -nan cycles
L1I AVERAGE MSHR OCCUPANCY: 0
L1I MSHR FULL: 0
L1I RQ	ACCESS:   40770723	FORWARD:          0	MERGED:   12892225	TO_CACHE:   27878498

BTB SPEC fills:          0  NON-SPEC fills:          0
BTB Test counter :          0
BTB Leapfrog:          0
BTB MSHR merge:          0
BTB TOTAL     ACCESS:    1687994  HIT:    1687989  MISS:          5  HIT %:    99.9997  MISS %: 0.00029621   MPKI: 2.5e-05
BTB BRANCH_DIRECT_JUMP	ACCESS:          0  HIT:          0  MISS:          0
BTB BRANCH_INDIRECT	ACCESS:          0  HIT:          0  MISS:          0
BTB BRANCH_CONDITIONAL	ACCESS:    1687994  HIT:    1687989  MISS:          5
BTB BRANCH_DIRECT_CALL	ACCESS:          0  HIT:          0  MISS:          0
BTB BRANCH_INDIRECT_CALL	ACCESS:          0  HIT:          0  MISS:          0
BTB BRANCH_RETURN	ACCESS:          0  HIT:          0  MISS:          0
BTB BRANCH_OTHER ACCESS:          0  HIT:          0  MISS:          0

L2C SPEC fills:          0  NON-SPEC fills:        984
L2C Test counter :          0
L2C Leapfrog:          0
L2C MSHR merge:       2110
L2C TOTAL     ACCESS:    8713842  HIT:    5730319  MISS:    2983523  HIT %:    65.7611  MISS %:    34.2389   MPKI: 14.9176
L2C LOAD      TOTAL       ACCESS:    2066033  HIT:    2008795  MISS:      57238  HIT %:    97.2296  MISS %:    2.77043   MPKI: 0.28619
L2C LOAD      NON_SPEC    ACCESS:      22914  HIT:      21930  MISS:        984  HIT %:    95.7057  MISS %:    4.29432   MPKI: 0.00492
L2C LOAD      SPEC        ACCESS:    2043119  HIT:    1986865  MISS:      56254  HIT %:    97.2467  MISS %:    2.75334   MPKI: 0.28127
L2C RFO       NON_SPEC    ACCESS:    1225229  HIT:      34465  MISS:    1190764  HIT %:    2.81294  MISS %:    97.1871   MPKI: 5.95382
L2C PREFETCH  NON_SPEC    ACCESS:    1762116  HIT:      93876  MISS:    1668240  HIT %:    5.32746  MISS %:    94.6725   MPKI: 8.3412
L2C WRITEBACK NON_SPEC    ACCESS:    1263837  HIT:    1263836  MISS:          1  HIT %:    99.9999  MISS %: 7.91241e-05   MPKI: 5e-06
L2C CLEAN_EVICTION NON_SPEC    ACCESS:    2126520  HIT:    2064815  MISS:      61705  HIT %:    97.0983  MISS %:    2.90169   MPKI: 0.308525
L2C COMMIT LOAD NON_SPEC    ACCESS:      57160  HIT:      56969  MISS:        191  HIT %:    99.6659  MISS %:    0.33415   MPKI: 0.000955
L2C LOAD TRANSLATION NON_SPEC    ACCESS:     212947  HIT:     207563  MISS:       5384  HIT %:    97.4717  MISS %:    2.52833   MPKI: 0.02692
L2C PREFETCH  REQUESTED:    1764365  ISSUED:    1764365  USEFUL:    1664753  USELESS:       3521
L2C USEFUL LOAD PREFETCHES:    1664753 PREFETCH ISSUED TO LOWER LEVEL:    1670351  ACCURACY: 99.6649
L2C TIMELY PREFETCHES:    1664753 LATE PREFETCHES: 2110 DROPPED PREFETCHES: 0
L2C COMMIT LATE PREFETCHES: 48 NORMAL LATE: 2117 MISSED OPPORTUNITY: 0 UNCOVERED: 55073
L2C PREFETCHES SAME FILL-ORIGIN LEVEL: 1670351 DIFFERENT FILL-ORIGIN LEVEL: 0
L2C AVERAGE MISS LATENCY: 461.214 cycles
L2C AVERAGE MISS LATENCY LOAD: 255.617 cycles
L2C AVERAGE MISS LATENCY PREFETCH: 428.999 cycles
L2C AVERAGE MSHR OCCUPANCY: 20.4634
L2C MSHR FULL: 0.530158
L2C RQ	ACCESS:    3625881	FORWARD:          0	MERGED:          0	TO_CACHE:    3561375
L2C WQ	ACCESS:    3390366	FORWARD:      64509	MERGED:          9	TO_CACHE:    3390357
L2C PQ	ACCESS:    1764365	FORWARD:          0	MERGED:         84	TO_CACHE:    1764278

L2C Instructions Evicting Data 0
L2C Translations Evicting Data 5383
L2C Data Evicting Data 2854939
L2C Instructions Evicting Instructions 0
L2C Translations Evicting Instructions 0
L2C Data Evicting Instructions 0
L2C Instructions Evicting Translations 0
L2C Translations Evicting Translations 1
L2C Data Evicting Translations 5240
L2C Dense regions hint from L2: 0
PSCL5 SPEC fills:          0  NON-SPEC fills:          0
PSCL5 Test counter :          0
PSCL5 Leapfrog:          0
PSCL5 MSHR merge:          0
PSCL5 TOTAL     ACCESS:          0  HIT:          0  MISS:          0  HIT %:       -nan  MISS %:       -nan   MPKI: 0
PSCL5 PREFETCH  REQUESTED:          0  ISSUED:          0  USEFUL:          0  USELESS:          0
PSCL5 USEFUL LOAD PREFETCHES:          0 PREFETCH ISSUED TO LOWER LEVEL:          0  ACCURACY: -nan
PSCL5 TIMELY PREFETCHES:          0 LATE PREFETCHES: 0 DROPPED PREFETCHES: 0
PSCL5 COMMIT LATE PREFETCHES: 0 NORMAL LATE: 0 MISSED OPPORTUNITY: 0 UNCOVERED: 0
PSCL5 PREFETCHES SAME FILL-ORIGIN LEVEL: 0 DIFFERENT FILL-ORIGIN LEVEL: 0

PSCL4 SPEC fills:          0  NON-SPEC fills:          0
PSCL4 Test counter :          0
PSCL4 Leapfrog:          0
PSCL4 MSHR merge:          0
PSCL4 TOTAL     ACCESS:          0  HIT:          0  MISS:          0  HIT %:       -nan  MISS %:       -nan   MPKI: 0
PSCL4 PREFETCH  REQUESTED:          0  ISSUED:          0  USEFUL:          0  USELESS:          0
PSCL4 USEFUL LOAD PREFETCHES:          0 PREFETCH ISSUED TO LOWER LEVEL:          0  ACCURACY: -nan
PSCL4 TIMELY PREFETCHES:          0 LATE PREFETCHES: 0 DROPPED PREFETCHES: 0
PSCL4 COMMIT LATE PREFETCHES: 0 NORMAL LATE: 0 MISSED OPPORTUNITY: 0 UNCOVERED: 0
PSCL4 PREFETCHES SAME FILL-ORIGIN LEVEL: 0 DIFFERENT FILL-ORIGIN LEVEL: 0

PSCL3 SPEC fills:          0  NON-SPEC fills:          0
PSCL3 Test counter :          0
PSCL3 Leapfrog:          0
PSCL3 MSHR merge:          0
PSCL3 TOTAL     ACCESS:          0  HIT:          0  MISS:          0  HIT %:       -nan  MISS %:       -nan   MPKI: 0
PSCL3 PREFETCH  REQUESTED:          0  ISSUED:          0  USEFUL:          0  USELESS:          0
PSCL3 USEFUL LOAD PREFETCHES:          0 PREFETCH ISSUED TO LOWER LEVEL:          0  ACCURACY: -nan
PSCL3 TIMELY PREFETCHES:          0 LATE PREFETCHES: 0 DROPPED PREFETCHES: 0
PSCL3 COMMIT LATE PREFETCHES: 0 NORMAL LATE: 0 MISSED OPPORTUNITY: 0 UNCOVERED: 0
PSCL3 PREFETCHES SAME FILL-ORIGIN LEVEL: 0 DIFFERENT FILL-ORIGIN LEVEL: 0

PSCL2 SPEC fills:          0  NON-SPEC fills:          0
PSCL2 Test counter :          0
PSCL2 Leapfrog:          0
PSCL2 MSHR merge:          0
PSCL2 TOTAL     ACCESS:          0  HIT:          0  MISS:          0  HIT %:       -nan  MISS %:       -nan   MPKI: 0
PSCL2 PREFETCH  REQUESTED:          0  ISSUED:          0  USEFUL:          0  USELESS:          0
PSCL2 USEFUL LOAD PREFETCHES:          0 PREFETCH ISSUED TO LOWER LEVEL:          0  ACCURACY: -nan
PSCL2 TIMELY PREFETCHES:          0 LATE PREFETCHES: 0 DROPPED PREFETCHES: 0
PSCL2 COMMIT LATE PREFETCHES: 0 NORMAL LATE: 0 MISSED OPPORTUNITY: 0 UNCOVERED: 0
PSCL2 PREFETCHES SAME FILL-ORIGIN LEVEL: 0 DIFFERENT FILL-ORIGIN LEVEL: 0

LLC SPEC fills:          0  NON-SPEC fills:        951
LLC Test counter :          0
LLC Leapfrog:          0
LLC MSHR merge:          0
LLC TOTAL     ACCESS:    5837256  HIT:    3057518  MISS:    2779738  HIT %:    52.3794  MISS %:    47.6206   MPKI: 13.8987
LLC LOAD      TOTAL       ACCESS:      55125  HIT:       6143  MISS:      48982  HIT %:    11.1438  MISS %:    88.8562   MPKI: 0.24491
LLC LOAD      NON_SPEC    ACCESS:        961  HIT:         10  MISS:        951  HIT %:    1.04058  MISS %:    98.9594   MPKI: 0.004755
LLC LOAD      SPEC        ACCESS:      54164  HIT:       6133  MISS:      48031  HIT %:     11.323  MISS %:     88.677   MPKI: 0.240155
LLC RFO       NON_SPEC    ACCESS:    1190764  HIT:          0  MISS:    1190764  HIT %:          0  MISS %:        100   MPKI: 5.95382
LLC PREFETCH  NON_SPEC    ACCESS:    1670283  HIT:     183897  MISS:    1486386  HIT %:    11.0099  MISS %:    88.9901   MPKI: 7.43193
LLC WRITEBACK NON_SPEC    ACCESS:    1190984  HIT:    1190980  MISS:          4  HIT %:    99.9997  MISS %: 0.000335857   MPKI: 2e-05
LLC CLEAN_EVICTION NON_SPEC    ACCESS:    1724525  HIT:    1676421  MISS:      48104  HIT %:    97.2106  MISS %:    2.78941   MPKI: 0.24052
LLC COMMIT LOAD NON_SPEC    ACCESS:        191  HIT:         37  MISS:        154  HIT %:    19.3717  MISS %:    80.6283   MPKI: 0.00077
LLC LOAD TRANSLATION NON_SPEC    ACCESS:       5384  HIT:         40  MISS:       5344  HIT %:   0.742942  MISS %:    99.2571   MPKI: 0.02672
LLC PREFETCH  REQUESTED:          0  ISSUED:          0  USEFUL:        260  USELESS:    1485922
LLC USEFUL LOAD PREFETCHES:        260 PREFETCH ISSUED TO LOWER LEVEL:    1486387  ACCURACY: 0.0174921
LLC TIMELY PREFETCHES:        260 LATE PREFETCHES: 0 DROPPED PREFETCHES: 0
LLC COMMIT LATE PREFETCHES: 0 NORMAL LATE: 0 MISSED OPPORTUNITY: 0 UNCOVERED: 0
LLC PREFETCHES SAME FILL-ORIGIN LEVEL: 0 DIFFERENT FILL-ORIGIN LEVEL: 0
LLC AVERAGE MISS LATENCY: 462.548 cycles
LLC AVERAGE MISS LATENCY LOAD: 240.076 cycles
LLC AVERAGE MISS LATENCY PREFETCH: 447.21 cycles
LLC AVERAGE MSHR OCCUPANCY: 7.59666
LLC MSHR FULL: 0
LLC RQ	ACCESS:    1251473	FORWARD:          0	MERGED:          0	TO_CACHE:    1251470
LLC WQ	ACCESS:    2915515	FORWARD:         70	MERGED:          0	TO_CACHE:    2915515
LLC PQ	ACCESS:    1670351	FORWARD:          0	MERGED:          0	TO_CACHE:    1670284

LLC Dense regions hint to LLC: 0

RAW hits: 1681635
Loads Generated: 58645943
Loads sent to L1D: 56964304
Stores Generated: 36649052
Stores sent to L1D: 36649060
Major fault: 0 Minor fault: 48769
Allocated PAGES: 48769
Total Load insts: 68004098
Total Non-spec loads: 6010765
Percentage of speculative loads: 91.1612

LeapFrogging counter: 207544
Commit hits: 28610733 miss: 23083110
Commit hit %: 55.3465 miss %: 44.6535
Commits not translated: 0
Loads retired: 2080390
Stores retired: 36649060
Cache fills: 2080390
L1D response latency: 19.5583 cycles
Load retirement latency: 50.5585 cycles
OOO test counter: 0
Discarded buffer inserts: 28610733 hits: 52302 hit %: 0.182806
Filter prediction accuracy: -nan
[Bingo] PHT Access: 453852
[Bingo] PHT Hit PC+Addr: 10417
[Bingo] PHT Hit PC+Offs: 432210
[Bingo] PHT Miss: 11225
[Bingo] Prefetch PC+Addr: 0
[Bingo] Prefetch PC+Offs: 0
[Bingo] Useful PC+Addr: 0
[Bingo] Useful PC+Offs: 0
[Bingo] Useless PC+Addr: 0
[Bingo] Useless PC+Offs: 0
[Bingo] L1 Prefetch per Region: 0
[Bingo] L2 Prefetch per Region: 7.09712
[Bingo] L3 Prefetch per Region: 0
[Bingo] No Prefetch per Region: 24.9029
[Bingo] Number of Voters Mean: 15.1763
[Bingo] Number of Voters SD: 9.0315
PHT read accesses: 7031766
PHT write accesses: 303006
AT read accesses: 1913643
AT write accesses: 1913665
FT read accesses: 1062995
FT write accesses: 453852
PS read accesses: 932546
PS write accesses: 442627
PHT tag read accesses: 16765425
PHT tag write accesses: 313423
AT tag read accesses: 166574830
AT tag write accesses: 2216669
FT tag read accesses: 147604648
FT tag write accesses: 1212279
PS tag read accesses: 47607954
PS tag write accesses: 1350863
[Bingo] PHT Access: 58909
[Bingo] PHT Hit PC+Addr: 1425
[Bingo] PHT Hit PC+Offs: 57363
[Bingo] PHT Miss: 121
[Bingo] Prefetch PC+Addr: 0
[Bingo] Prefetch PC+Offs: 0
[Bingo] Useful PC+Addr: 0
[Bingo] Useful PC+Offs: 0
[Bingo] Useless PC+Addr: 0
[Bingo] Useless PC+Offs: 0
[Bingo] L1 Prefetch per Region: 0
[Bingo] L2 Prefetch per Region: 31.1198
[Bingo] L3 Prefetch per Region: 0
[Bingo] No Prefetch per Region: 0.880163
[Bingo] Number of Voters Mean: 15.8151
[Bingo] Number of Voters SD: 7.89606
PHT read accesses: 912776
PHT write accesses: 58498
AT read accesses: 56848301
AT write accesses: 56880811
FT read accesses: 3705384
FT write accesses: 58909
PS read accesses: 700138
PS write accesses: 58788
PHT tag read accesses: 2762333
PHT tag write accesses: 59923
AT tag read accesses: 987776672
AT tag write accesses: 56906795
FT tag read accesses: 78915738
FT tag write accesses: 1941056
PS tag read accesses: 940276215
PS tag write accesses: 758603

DRAM Statistics
 CHANNEL 0
 RQ ROW_BUFFER_HIT:    1750492  ROW_BUFFER_MISS:     981138
 DBUS_CONGESTED:       2735
 WQ ROW_BUFFER_HIT:    1124671  ROW_BUFFER_MISS:    1600741  FULL:      71077

 AVG_CONGESTED_CYCLE: 4
 All warmup complete: 2
Channel 0 Bank busy for read cycles: 0
Channel 0 Bank busy for write cycles: 0
Channel 0
Rank 0
0banks busy for read cycles: 1023624
0banks busy for write cycles: 25283
1banks busy for read cycles: 71190844
1banks busy for write cycles: 2959695
2banks busy for read cycles: 3101027
2banks busy for write cycles: 15098426
3banks busy for read cycles: 1362772
3banks busy for write cycles: 11545842
4banks busy for read cycles: 1500188
4banks busy for write cycles: 7665587
5banks busy for read cycles: 1378477
5banks busy for write cycles: 3769158
6banks busy for read cycles: 1310409
6banks busy for write cycles: 3055053
7banks busy for read cycles: 4729548
7banks busy for write cycles: 5147472
8banks busy for read cycles: 14172844
8banks busy for write cycles: 23650361

CPU 0 Branch Prediction Accuracy: 99.9697% MPKI: 0.00256 Average ROB Occupancy at Mispredict: 62.8613
Branch types
NOT_BRANCH: 198311676 99.1558%
BRANCH_DIRECT_JUMP: 0 0%
BRANCH_INDIRECT: 0 0%
BRANCH_CONDITIONAL: 1688003 0.844001%
BRANCH_DIRECT_CALL: 0 0%
BRANCH_INDIRECT_CALL: 0 0%
BRANCH_RETURN: 0 0%
BRANCH_OTHER: 0 0%

DRAM PAGES: 1048576
Allocated PAGES: 48769
