
*** ChampSim Multicore Out-of-Order Simulator ***

Warmup Instructions: 50000000
Simulation Instructions: 200000000
Number of CPUs: 1
LLC sets: 2048
LLC ways: 16
L0D sets: 16
L0D ways: 2
ROB size: 352
LQ size: 128
SQ size: 72
Secure Berti: OFF
Berti: OFF
Berti Fill: OFF
On commit prefetching: ON
Hit-based filter: OFF
Time-guarding: ON
Free-slotting: ON
Leap-frogging: ON
Train prefetcher on L0D bypass: OFF
No translation penalty for prefetchers: OFF
Prefetch to L0D only: OFF
Prefetch to L1D only: OFF
Clean evictions: ON
Commit loads: ON
Commit write: ON
Fill commit loads to L2C, LLC: ON
DRAM IO FREQUENCY: 6400
ROB SIZE: 352
Off-chip DRAM Size: 4096 MB Channels: 1 Width: 64-bit Data Rate: 6400 MT/s
CPU 0 runs /home/sumon/secure_berti/GhostMinion/../../traces/spec/603.bwaves_s-2609B.champsimtrace.xz
.xz
BTB has LRU replacement policy
ITLB has LRU replacement policy
DTLB has LRU replacement policy
STLB has LRU replacement policy
L1I has LRU replacement policy
L0D has LRU replacement policy
Bingo PHT WAYS: 16 and PHT_SIZE: 16384
L1D has LRU replacement policy
Bingo PHT WAYS: 16 and PHT_SIZE: 16384
L2C has LRU replacement policy
LLC has LRU replacement policy
Heartbeat CPU 0 instructions: 10000002 cycles: 3700834 heartbeat IPC: 2.70209 cumulative IPC: 2.70209 (Simulation time: 0 hr 1 min 50 sec) 
Heartbeat CPU 0 instructions: 20000003 cycles: 7398573 heartbeat IPC: 2.70436 cumulative IPC: 2.70322 (Simulation time: 0 hr 3 min 49 sec) 
Heartbeat CPU 0 instructions: 30000001 cycles: 11098855 heartbeat IPC: 2.7025 cumulative IPC: 2.70298 (Simulation time: 0 hr 6 min 3 sec) 
Heartbeat CPU 0 instructions: 40000002 cycles: 14798265 heartbeat IPC: 2.70313 cumulative IPC: 2.70302 (Simulation time: 0 hr 8 min 22 sec) 
Heartbeat CPU 0 instructions: 50000003 cycles: 18497803 heartbeat IPC: 2.70304 cumulative IPC: 2.70302 (Simulation time: 0 hr 10 min 41 sec) 

Warmup complete CPU 0 instructions: 50000003 cycles: 18497803 (Simulation time: 0 hr 10 min 41 sec) 

Heartbeat CPU 0 instructions: 60000000 cycles: 29416902 heartbeat IPC: 0.915826 cumulative IPC: 0.915826 (Simulation time: 0 hr 13 min 8 sec) 
Heartbeat CPU 0 instructions: 70000000 cycles: 40384691 heartbeat IPC: 0.911761 cumulative IPC: 0.913789 (Simulation time: 0 hr 15 min 35 sec) 
Heartbeat CPU 0 instructions: 80000003 cycles: 51391744 heartbeat IPC: 0.908509 cumulative IPC: 0.912022 (Simulation time: 0 hr 18 min 2 sec) 
Heartbeat CPU 0 instructions: 90000003 cycles: 62355755 heartbeat IPC: 0.912075 cumulative IPC: 0.912035 (Simulation time: 0 hr 20 min 30 sec) 
Heartbeat CPU 0 instructions: 100000001 cycles: 73352709 heartbeat IPC: 0.909343 cumulative IPC: 0.911495 (Simulation time: 0 hr 22 min 57 sec) 
Heartbeat CPU 0 instructions: 110000000 cycles: 84324823 heartbeat IPC: 0.911401 cumulative IPC: 0.91148 (Simulation time: 0 hr 25 min 24 sec) 
Heartbeat CPU 0 instructions: 120000000 cycles: 95303945 heartbeat IPC: 0.91082 cumulative IPC: 0.911385 (Simulation time: 0 hr 27 min 51 sec) 
Heartbeat CPU 0 instructions: 130000003 cycles: 106285425 heartbeat IPC: 0.910624 cumulative IPC: 0.91129 (Simulation time: 0 hr 30 min 18 sec) 
Heartbeat CPU 0 instructions: 140000000 cycles: 117309507 heartbeat IPC: 0.907105 cumulative IPC: 0.910823 (Simulation time: 0 hr 32 min 45 sec) 
Heartbeat CPU 0 instructions: 150000003 cycles: 128263479 heartbeat IPC: 0.912911 cumulative IPC: 0.911032 (Simulation time: 0 hr 35 min 11 sec) 
Heartbeat CPU 0 instructions: 160000000 cycles: 139231512 heartbeat IPC: 0.91174 cumulative IPC: 0.911096 (Simulation time: 0 hr 37 min 38 sec) 
Heartbeat CPU 0 instructions: 170000002 cycles: 150203059 heartbeat IPC: 0.911449 cumulative IPC: 0.911125 (Simulation time: 0 hr 40 min 3 sec) 
Heartbeat CPU 0 instructions: 180000001 cycles: 161206058 heartbeat IPC: 0.908843 cumulative IPC: 0.910949 (Simulation time: 0 hr 42 min 28 sec) 
Heartbeat CPU 0 instructions: 190000000 cycles: 172205345 heartbeat IPC: 0.90915 cumulative IPC: 0.910821 (Simulation time: 0 hr 44 min 55 sec) 
Heartbeat CPU 0 instructions: 200000000 cycles: 183148159 heartbeat IPC: 0.913842 cumulative IPC: 0.911021 (Simulation time: 0 hr 47 min 20 sec) 
Heartbeat CPU 0 instructions: 210000003 cycles: 194082783 heartbeat IPC: 0.914526 cumulative IPC: 0.91124 (Simulation time: 0 hr 49 min 45 sec) 
Heartbeat CPU 0 instructions: 220000000 cycles: 205036021 heartbeat IPC: 0.912972 cumulative IPC: 0.911341 (Simulation time: 0 hr 52 min 8 sec) 
Heartbeat CPU 0 instructions: 230000002 cycles: 216013002 heartbeat IPC: 0.910997 cumulative IPC: 0.911322 (Simulation time: 0 hr 54 min 31 sec) 
Heartbeat CPU 0 instructions: 240000000 cycles: 226970270 heartbeat IPC: 0.912636 cumulative IPC: 0.911391 (Simulation time: 0 hr 56 min 52 sec) 
Heartbeat CPU 0 instructions: 250000002 cycles: 237933658 heartbeat IPC: 0.912127 cumulative IPC: 0.911428 (Simulation time: 0 hr 59 min 9 sec) 
Finished CPU 0 instructions: 200000003 cycles: 219435860 cumulative IPC: 0.911428 (Simulation time: 0 hr 59 min 9 sec) 
 Instruction ID: 250000052

ChampSim completed all CPUs

Region of Interest Statistics

CPU 0 cumulative IPC: 0.911428 instructions: 200000003 cycles: 219435860
ITLB SPEC fills:          0  NON-SPEC fills:          0
ITLB Test counter :          0
ITLB Leapfrog:          0
ITLB MSHR merge:          0
ITLB TOTAL     ACCESS:   25469600  HIT:   25469600  MISS:          0  HIT %:        100  MISS %:          0   MPKI: 0
ITLB LOAD TRANSLATION NON_SPEC    ACCESS:   25469600  HIT:   25469600  MISS:          0  HIT %:        100  MISS %:          0   MPKI: 0
ITLB PREFETCH  REQUESTED:          0  ISSUED:          0  USEFUL:          0  USELESS:          0
ITLB USEFUL LOAD PREFETCHES:          0 PREFETCH ISSUED TO LOWER LEVEL:          0  ACCURACY: -nan
ITLB TIMELY PREFETCHES:          0 LATE PREFETCHES: 0 DROPPED PREFETCHES: 0
ITLB COMMIT LATE PREFETCHES: 0 NORMAL LATE: 0 MISSED OPPORTUNITY: 0 UNCOVERED: 0
ITLB PREFETCHES SAME FILL-ORIGIN LEVEL: 0 DIFFERENT FILL-ORIGIN LEVEL: 0
ITLB AVERAGE MISS LATENCY: -nan cycles
ITLB AVERAGE MISS LATENCY LOAD: -nan cycles
ITLB AVERAGE MISS LATENCY PREFETCH: -nan cycles
ITLB AVERAGE MSHR OCCUPANCY: 0
ITLB MSHR FULL: 0
ITLB RQ	ACCESS:   34501553	FORWARD:          0	MERGED:    9031953	TO_CACHE:   25469600

DTLB SPEC fills:          0  NON-SPEC fills:          0
DTLB Test counter :          0
DTLB Leapfrog:          0
DTLB MSHR merge:          0
DTLB TOTAL     ACCESS:   72989137  HIT:   72849326  MISS:     139811  HIT %:    99.8084  MISS %:    0.19155   MPKI: 0.699055
DTLB LOAD TRANSLATION NON_SPEC    ACCESS:   72989137  HIT:   72849326  MISS:     139811  HIT %:    99.8084  MISS %:    0.19155   MPKI: 0.699055
DTLB PREFETCH  REQUESTED:          0  ISSUED:          0  USEFUL:          0  USELESS:          0
DTLB USEFUL LOAD PREFETCHES:          0 PREFETCH ISSUED TO LOWER LEVEL:          0  ACCURACY: -nan
DTLB TIMELY PREFETCHES:          0 LATE PREFETCHES: 0 DROPPED PREFETCHES: 0
DTLB COMMIT LATE PREFETCHES: 0 NORMAL LATE: 0 MISSED OPPORTUNITY: 0 UNCOVERED: 0
DTLB PREFETCHES SAME FILL-ORIGIN LEVEL: 0 DIFFERENT FILL-ORIGIN LEVEL: 0
DTLB AVERAGE MISS LATENCY: 293.032 cycles
DTLB AVERAGE MISS LATENCY LOAD: -nan cycles
DTLB AVERAGE MISS LATENCY PREFETCH: -nan cycles
DTLB AVERAGE MSHR OCCUPANCY: 0.0219923
DTLB MSHR FULL: 2.16648e-05
DTLB RQ	ACCESS:   85782148	FORWARD:          0	MERGED:   12760599	TO_CACHE:   73021549

STLB SPEC fills:          0  NON-SPEC fills:          0
STLB Test counter :          0
STLB Leapfrog:          0
STLB MSHR merge:          0
STLB TOTAL     ACCESS:     139811  HIT:      80429  MISS:      59382  HIT %:    57.5269  MISS %:    42.4731   MPKI: 0.29691
STLB LOAD TRANSLATION NON_SPEC    ACCESS:     139811  HIT:      80429  MISS:      59382  HIT %:    57.5269  MISS %:    42.4731   MPKI: 0.29691
STLB PREFETCH  REQUESTED:          0  ISSUED:          0  USEFUL:          0  USELESS:          0
STLB USEFUL LOAD PREFETCHES:          0 PREFETCH ISSUED TO LOWER LEVEL:          0  ACCURACY: -nan
STLB TIMELY PREFETCHES:          0 LATE PREFETCHES: 0 DROPPED PREFETCHES: 0
STLB COMMIT LATE PREFETCHES: 0 NORMAL LATE: 0 MISSED OPPORTUNITY: 0 UNCOVERED: 0
STLB PREFETCHES SAME FILL-ORIGIN LEVEL: 0 DIFFERENT FILL-ORIGIN LEVEL: 0
STLB AVERAGE MISS LATENCY: 668.246 cycles
STLB AVERAGE MISS LATENCY LOAD: -nan cycles
STLB AVERAGE MISS LATENCY PREFETCH: -nan cycles
STLB AVERAGE MSHR OCCUPANCY: 1.15845
STLB MSHR FULL: 0
STLB RQ	ACCESS:     139811	FORWARD:          0	MERGED:          0	TO_CACHE:     139811

STLB Hit, L1D data hit: 0
STLB Hit, L2C data hit: 0
STLB Hit, LLC data hit: 0
STLB Hit, LLC data miss: 0
STLB STLB hints to L2: 0
L0D SPEC fills:   48141882  NON-SPEC fills:          0
L0D TimeGuard Request with older TS:    1778787 Restricted eviction:   11883010 read:     170621
L0D Test counter :          0
L0D Leapfrog:          0
L0D MSHR merge:    2296117
L0D TOTAL     ACCESS:   72219235  HIT:    6654034  MISS:   65565201  HIT %:    9.21366  MISS %:    90.7863   MPKI: 327.826
L0D LOAD      TOTAL       ACCESS:   72219235  HIT:    6654034  MISS:   65565201  HIT %:    9.21366  MISS %:    90.7863   MPKI: 327.826
L0D LOAD      NON_SPEC    ACCESS:    5884451  HIT:     341653  MISS:    5542798  HIT %:    5.80603  MISS %:     94.194   MPKI: 27.714
L0D LOAD      SPEC        ACCESS:   66334784  HIT:    6312381  MISS:   60022403  HIT %:    9.51594  MISS %:    90.4841   MPKI: 300.112
L0D PREFETCH  REQUESTED:          0  ISSUED:          0  USEFUL:          0  USELESS:          0
L0D USEFUL LOAD PREFETCHES:          0 PREFETCH ISSUED TO LOWER LEVEL:          0  ACCURACY: -nan
L0D TIMELY PREFETCHES:          0 LATE PREFETCHES: 0 DROPPED PREFETCHES: 0
L0D COMMIT LATE PREFETCHES: 0 NORMAL LATE: 0 MISSED OPPORTUNITY: 0 UNCOVERED: 0
L0D PREFETCHES SAME FILL-ORIGIN LEVEL: 0 DIFFERENT FILL-ORIGIN LEVEL: 0
L0D AVERAGE MISS LATENCY: 7.39485 cycles
L0D AVERAGE MISS LATENCY LOAD: 7.39485 cycles
L0D AVERAGE MISS LATENCY PREFETCH: -nan cycles
L0D AVERAGE MSHR OCCUPANCY: 2.35365
L0D MSHR FULL: 0.0630323
L0D RQ	ACCESS:   85383730	FORWARD:          0	MERGED:   10868397	TO_CACHE:   74515333
L0D WQ	ACCESS:   11266815	FORWARD:          0	MERGED:          0	TO_CACHE:   11266815

L1D SPEC fills:          0  NON-SPEC fills:      50107
L1D Test counter :          0
L1D Leapfrog:          0
L1D MSHR merge:     248137
L1D TOTAL     ACCESS:  146734709  HIT:  138610959  MISS:    8123750  HIT %:    94.4636  MISS %:    5.53635   MPKI: 40.6187
L1D LOAD      TOTAL       ACCESS:   65317063  HIT:   61147091  MISS:    4169972  HIT %:    93.6158  MISS %:     6.3842   MPKI: 20.8499
L1D LOAD      NON_SPEC    ACCESS:    5542598  HIT:    5492491  MISS:      50107  HIT %:     99.096  MISS %:   0.904035   MPKI: 0.250535
L1D LOAD      SPEC        ACCESS:   59774465  HIT:   55654600  MISS:    4119865  HIT %:    93.1077  MISS %:    6.89235   MPKI: 20.5993
L1D RFO       NON_SPEC    ACCESS:   10607882  HIT:   10510433  MISS:      97449  HIT %:    99.0814  MISS %:   0.918647   MPKI: 0.487245
L1D COMMIT LOAD NON_SPEC    ACCESS:   24168861  HIT:   22789890  MISS:    1378971  HIT %:    94.2944  MISS %:    5.70557   MPKI: 6.89485
L1D COMMIT WRITE NON_SPEC    ACCESS:   46640903  HIT:   44163545  MISS:    2477358  HIT %:    94.6884  MISS %:    5.31156   MPKI: 12.3868
L1D PREFETCH  REQUESTED:          0  ISSUED:          0  USEFUL:          0  USELESS:          0
L1D USEFUL LOAD PREFETCHES:          0 PREFETCH ISSUED TO LOWER LEVEL:          0  ACCURACY: -nan
L1D TIMELY PREFETCHES:          0 LATE PREFETCHES: 0 DROPPED PREFETCHES: 0
L1D COMMIT LATE PREFETCHES: 0 NORMAL LATE: 0 MISSED OPPORTUNITY: 0 UNCOVERED: 4319589
L1D PREFETCHES SAME FILL-ORIGIN LEVEL: 0 DIFFERENT FILL-ORIGIN LEVEL: 0
L1D AVERAGE MISS LATENCY: 25.8036 cycles
L1D AVERAGE MISS LATENCY LOAD: 29.9974 cycles
L1D AVERAGE MISS LATENCY PREFETCH: -nan cycles
L1D AVERAGE MSHR OCCUPANCY: 0.602543
L1D MSHR FULL: 6.70112e-06
L1D RQ	ACCESS:   98342311	FORWARD:          0	MERGED:    8357752	TO_CACHE:   89984559
L1D WQ	ACCESS:   57907720	FORWARD:          0	MERGED:     425555	TO_CACHE:   57482165

L1D UNIQUE REGIONS ACCESSED: 0
L1D REGIONS CONFLICTS: 0
L1D Cross Page Prefetch Requests: 0
L1D Same Page Prefetch Requests: 0
L1D ROI Sum of L1D PQ occupancy: 0
L1D PREFETCHES PUSHED FROM L2C: 0
L1I SPEC fills:          0  NON-SPEC fills:          0
L1I Test counter :          0
L1I Leapfrog:          0
L1I MSHR merge:          0
L1I TOTAL     ACCESS:   34501552  HIT:   34501552  MISS:          0  HIT %:        100  MISS %:          0   MPKI: 0
L1I LOAD      TOTAL       ACCESS:   34501552  HIT:   34501552  MISS:          0  HIT %:        100  MISS %:          0   MPKI: 0
L1I LOAD      NON_SPEC    ACCESS:   34501552  HIT:   34501552  MISS:          0  HIT %:        100  MISS %:          0   MPKI: 0
L1I PREFETCH  REQUESTED:          0  ISSUED:          0  USEFUL:          0  USELESS:          0
L1I USEFUL LOAD PREFETCHES:          0 PREFETCH ISSUED TO LOWER LEVEL:          0  ACCURACY: -nan
L1I TIMELY PREFETCHES:          0 LATE PREFETCHES: 0 DROPPED PREFETCHES: 0
L1I COMMIT LATE PREFETCHES: 0 NORMAL LATE: 0 MISSED OPPORTUNITY: 0 UNCOVERED: 0
L1I PREFETCHES SAME FILL-ORIGIN LEVEL: 0 DIFFERENT FILL-ORIGIN LEVEL: 0
L1I AVERAGE MISS LATENCY: -nan cycles
L1I AVERAGE MISS LATENCY LOAD: -nan cycles
L1I AVERAGE MISS LATENCY PREFETCH: -nan cycles
L1I AVERAGE MSHR OCCUPANCY: 0
L1I MSHR FULL: 0
L1I RQ	ACCESS:   45983581	FORWARD:          0	MERGED:   11482028	TO_CACHE:   34501553

BTB SPEC fills:          0  NON-SPEC fills:          0
BTB Test counter :          0
BTB Leapfrog:          0
BTB MSHR merge:          0
BTB TOTAL     ACCESS:    4834901  HIT:    4834896  MISS:          5  HIT %:    99.9999  MISS %: 0.000103415   MPKI: 2.5e-05
BTB BRANCH_DIRECT_JUMP	ACCESS:          0  HIT:          0  MISS:          0
BTB BRANCH_INDIRECT	ACCESS:          0  HIT:          0  MISS:          0
BTB BRANCH_CONDITIONAL	ACCESS:    4834901  HIT:    4834896  MISS:          5
BTB BRANCH_DIRECT_CALL	ACCESS:          0  HIT:          0  MISS:          0
BTB BRANCH_INDIRECT_CALL	ACCESS:          0  HIT:          0  MISS:          0
BTB BRANCH_RETURN	ACCESS:          0  HIT:          0  MISS:          0
BTB BRANCH_OTHER ACCESS:          0  HIT:          0  MISS:          0

L2C SPEC fills:          0  NON-SPEC fills:       1242
L2C Test counter :          0
L2C Leapfrog:          0
L2C MSHR merge:      44428
L2C TOTAL     ACCESS:   12838332  HIT:    8800218  MISS:    4038114  HIT %:    68.5464  MISS %:    31.4536   MPKI: 20.1906
L2C LOAD      TOTAL       ACCESS:    4169972  HIT:    3939827  MISS:     230145  HIT %:    94.4809  MISS %:     5.5191   MPKI: 1.15072
L2C LOAD      NON_SPEC    ACCESS:      50107  HIT:      48865  MISS:       1242  HIT %:    97.5213  MISS %:     2.4787   MPKI: 0.00621
L2C LOAD      SPEC        ACCESS:    4119865  HIT:    3890962  MISS:     228903  HIT %:    94.4439  MISS %:    5.55608   MPKI: 1.14451
L2C RFO       NON_SPEC    ACCESS:      97448  HIT:          0  MISS:      97448  HIT %:          0  MISS %:        100   MPKI: 0.48724
L2C PREFETCH  NON_SPEC    ACCESS:    3501036  HIT:       2667  MISS:    3498369  HIT %:  0.0761775  MISS %:    99.9238   MPKI: 17.4918
L2C WRITEBACK NON_SPEC    ACCESS:      97468  HIT:      97468  MISS:          0  HIT %:        100  MISS %:          0   MPKI: 0
L2C CLEAN_EVICTION NON_SPEC    ACCESS:    3296638  HIT:    3143260  MISS:     153378  HIT %:    95.3474  MISS %:    4.65256   MPKI: 0.76689
L2C COMMIT LOAD NON_SPEC    ACCESS:    1378971  HIT:    1327634  MISS:      51337  HIT %:    96.2772  MISS %:    3.72285   MPKI: 0.256685
L2C LOAD TRANSLATION NON_SPEC    ACCESS:     296799  HIT:     289362  MISS:       7437  HIT %:    97.4943  MISS %:    2.50574   MPKI: 0.037185
L2C PREFETCH  REQUESTED:    3577071  ISSUED:    3577071  USEFUL:    3485246  USELESS:      13247
L2C USEFUL LOAD PREFETCHES:    3485246 PREFETCH ISSUED TO LOWER LEVEL:    3553766  ACCURACY: 98.0719
L2C TIMELY PREFETCHES:    3485246 LATE PREFETCHES: 55397 DROPPED PREFETCHES: 0
L2C COMMIT LATE PREFETCHES: 43462 NORMAL LATE: 54593 MISSED OPPORTUNITY: 8658 UNCOVERED: 134401
L2C PREFETCHES SAME FILL-ORIGIN LEVEL: 3553766 DIFFERENT FILL-ORIGIN LEVEL: 0
L2C AVERAGE MISS LATENCY: 530.049 cycles
L2C AVERAGE MISS LATENCY LOAD: 333.931 cycles
L2C AVERAGE MISS LATENCY PREFETCH: 571.625 cycles
L2C AVERAGE MSHR OCCUPANCY: 11.6952
L2C MSHR FULL: 0.125572
L2C RQ	ACCESS:    5943190	FORWARD:          0	MERGED:          0	TO_CACHE:    5943190
L2C WQ	ACCESS:    3394144	FORWARD:          0	MERGED:         38	TO_CACHE:    3394106
L2C PQ	ACCESS:    3577071	FORWARD:          0	MERGED:        128	TO_CACHE:    3576943

L2C Instructions Evicting Data 0
L2C Translations Evicting Data 7434
L2C Data Evicting Data 3641282
L2C Instructions Evicting Instructions 0
L2C Translations Evicting Instructions 0
L2C Data Evicting Instructions 0
L2C Instructions Evicting Translations 0
L2C Translations Evicting Translations 3
L2C Data Evicting Translations 7114
L2C Dense regions hint from L2: 0
PSCL5 SPEC fills:          0  NON-SPEC fills:          0
PSCL5 Test counter :          0
PSCL5 Leapfrog:          0
PSCL5 MSHR merge:          0
PSCL5 TOTAL     ACCESS:          0  HIT:          0  MISS:          0  HIT %:       -nan  MISS %:       -nan   MPKI: 0
PSCL5 PREFETCH  REQUESTED:          0  ISSUED:          0  USEFUL:          0  USELESS:          0
PSCL5 USEFUL LOAD PREFETCHES:          0 PREFETCH ISSUED TO LOWER LEVEL:          0  ACCURACY: -nan
PSCL5 TIMELY PREFETCHES:          0 LATE PREFETCHES: 0 DROPPED PREFETCHES: 0
PSCL5 COMMIT LATE PREFETCHES: 0 NORMAL LATE: 0 MISSED OPPORTUNITY: 0 UNCOVERED: 0
PSCL5 PREFETCHES SAME FILL-ORIGIN LEVEL: 0 DIFFERENT FILL-ORIGIN LEVEL: 0

PSCL4 SPEC fills:          0  NON-SPEC fills:          0
PSCL4 Test counter :          0
PSCL4 Leapfrog:          0
PSCL4 MSHR merge:          0
PSCL4 TOTAL     ACCESS:          0  HIT:          0  MISS:          0  HIT %:       -nan  MISS %:       -nan   MPKI: 0
PSCL4 PREFETCH  REQUESTED:          0  ISSUED:          0  USEFUL:          0  USELESS:          0
PSCL4 USEFUL LOAD PREFETCHES:          0 PREFETCH ISSUED TO LOWER LEVEL:          0  ACCURACY: -nan
PSCL4 TIMELY PREFETCHES:          0 LATE PREFETCHES: 0 DROPPED PREFETCHES: 0
PSCL4 COMMIT LATE PREFETCHES: 0 NORMAL LATE: 0 MISSED OPPORTUNITY: 0 UNCOVERED: 0
PSCL4 PREFETCHES SAME FILL-ORIGIN LEVEL: 0 DIFFERENT FILL-ORIGIN LEVEL: 0

PSCL3 SPEC fills:          0  NON-SPEC fills:          0
PSCL3 Test counter :          0
PSCL3 Leapfrog:          0
PSCL3 MSHR merge:          0
PSCL3 TOTAL     ACCESS:          0  HIT:          0  MISS:          0  HIT %:       -nan  MISS %:       -nan   MPKI: 0
PSCL3 PREFETCH  REQUESTED:          0  ISSUED:          0  USEFUL:          0  USELESS:          0
PSCL3 USEFUL LOAD PREFETCHES:          0 PREFETCH ISSUED TO LOWER LEVEL:          0  ACCURACY: -nan
PSCL3 TIMELY PREFETCHES:          0 LATE PREFETCHES: 0 DROPPED PREFETCHES: 0
PSCL3 COMMIT LATE PREFETCHES: 0 NORMAL LATE: 0 MISSED OPPORTUNITY: 0 UNCOVERED: 0
PSCL3 PREFETCHES SAME FILL-ORIGIN LEVEL: 0 DIFFERENT FILL-ORIGIN LEVEL: 0

PSCL2 SPEC fills:          0  NON-SPEC fills:          0
PSCL2 Test counter :          0
PSCL2 Leapfrog:          0
PSCL2 MSHR merge:          0
PSCL2 TOTAL     ACCESS:          0  HIT:          0  MISS:          0  HIT %:       -nan  MISS %:       -nan   MPKI: 0
PSCL2 PREFETCH  REQUESTED:          0  ISSUED:          0  USEFUL:          0  USELESS:          0
PSCL2 USEFUL LOAD PREFETCHES:          0 PREFETCH ISSUED TO LOWER LEVEL:          0  ACCURACY: -nan
PSCL2 TIMELY PREFETCHES:          0 LATE PREFETCHES: 0 DROPPED PREFETCHES: 0
PSCL2 COMMIT LATE PREFETCHES: 0 NORMAL LATE: 0 MISSED OPPORTUNITY: 0 UNCOVERED: 0
PSCL2 PREFETCHES SAME FILL-ORIGIN LEVEL: 0 DIFFERENT FILL-ORIGIN LEVEL: 0

LLC SPEC fills:          0  NON-SPEC fills:       1009
LLC Test counter :          0
LLC Leapfrog:          0
LLC MSHR merge:          0
LLC TOTAL     ACCESS:    7078816  HIT:    3086427  MISS:    3992389  HIT %:    43.6009  MISS %:    56.3991   MPKI: 19.9619
LLC LOAD      TOTAL       ACCESS:     185717  HIT:        237  MISS:     185480  HIT %:   0.127614  MISS %:    99.8724   MPKI: 0.9274
LLC LOAD      NON_SPEC    ACCESS:       1009  HIT:          0  MISS:       1009  HIT %:          0  MISS %:        100   MPKI: 0.005045
LLC LOAD      SPEC        ACCESS:     184708  HIT:        237  MISS:     184471  HIT %:   0.128311  MISS %:    99.8717   MPKI: 0.922355
LLC RFO       NON_SPEC    ACCESS:      97448  HIT:          0  MISS:      97448  HIT %:          0  MISS %:        100   MPKI: 0.48724
LLC PREFETCH  NON_SPEC    ACCESS:    3553765  HIT:       1182  MISS:    3552583  HIT %:  0.0332605  MISS %:    99.9667   MPKI: 17.7629
LLC WRITEBACK NON_SPEC    ACCESS:      97483  HIT:      97483  MISS:          0  HIT %:        100  MISS %:          0   MPKI: 0
LLC CLEAN_EVICTION NON_SPEC    ACCESS:    3096598  HIT:    2977627  MISS:     118971  HIT %:     96.158  MISS %:    3.84199   MPKI: 0.594855
LLC COMMIT LOAD NON_SPEC    ACCESS:      40368  HIT:       9898  MISS:      30470  HIT %:    24.5194  MISS %:    75.4806   MPKI: 0.15235
LLC LOAD TRANSLATION NON_SPEC    ACCESS:       7437  HIT:          0  MISS:       7437  HIT %:          0  MISS %:        100   MPKI: 0.037185
LLC PREFETCH  REQUESTED:          0  ISSUED:          0  USEFUL:       9976  USELESS:    3542466
LLC USEFUL LOAD PREFETCHES:       9976 PREFETCH ISSUED TO LOWER LEVEL:    3552583  ACCURACY: 0.28081
LLC TIMELY PREFETCHES:       9976 LATE PREFETCHES: 0 DROPPED PREFETCHES: 0
LLC COMMIT LATE PREFETCHES: 0 NORMAL LATE: 0 MISSED OPPORTUNITY: 0 UNCOVERED: 0
LLC PREFETCHES SAME FILL-ORIGIN LEVEL: 0 DIFFERENT FILL-ORIGIN LEVEL: 0
LLC AVERAGE MISS LATENCY: 508.486 cycles
LLC AVERAGE MISS LATENCY LOAD: 277.134 cycles
LLC AVERAGE MISS LATENCY PREFETCH: 541.584 cycles
LLC AVERAGE MSHR OCCUPANCY: 10.4239
LLC MSHR FULL: 0
LLC RQ	ACCESS:     330970	FORWARD:          0	MERGED:          0	TO_CACHE:     330970
LLC WQ	ACCESS:    3194080	FORWARD:          1	MERGED:          0	TO_CACHE:    3194080
LLC PQ	ACCESS:    3553766	FORWARD:          0	MERGED:          0	TO_CACHE:    3553765

LLC Dense regions hint to LLC: 0

RAW hits: 576465
Loads Generated: 85960196
Loads sent to L1D: 85383730
Stores Generated: 11266823
Stores sent to L1D: 11266815
Major fault: 0 Minor fault: 70872
Allocated PAGES: 70872
Total Load insts: 106094521
Total Non-spec loads: 6383163
Percentage of speculative loads: 93.9835

LeapFrogging counter: 1512743
Commit hits: 46640906 miss: 32777117
Commit hit %: 58.7284 miss %: 41.2716
Commits not translated: 0
Loads retired: 4169972
Stores retired: 11266815
Cache fills: 4169972
L1D response latency: 29.9974 cycles
Load retirement latency: 109.029 cycles
OOO test counter: 0
Discarded buffer inserts: 46640906 hits: 30964 hit %: 0.0663881
Filter prediction accuracy: -nan
[Bingo] PHT Access: 895052
[Bingo] PHT Hit PC+Addr: 5317
[Bingo] PHT Hit PC+Offs: 865707
[Bingo] PHT Miss: 24028
[Bingo] Prefetch PC+Addr: 0
[Bingo] Prefetch PC+Offs: 0
[Bingo] Useful PC+Addr: 0
[Bingo] Useful PC+Offs: 0
[Bingo] Useless PC+Addr: 0
[Bingo] Useless PC+Offs: 0
[Bingo] L1 Prefetch per Region: 0
[Bingo] L2 Prefetch per Region: 7.11382
[Bingo] L3 Prefetch per Region: 0
[Bingo] No Prefetch per Region: 24.8862
[Bingo] Number of Voters Mean: 15.7947
[Bingo] Number of Voters SD: 11.1881
PHT read accesses: 13910969
PHT write accesses: 683928
AT read accesses: 3911375
AT write accesses: 3911382
FT read accesses: 2357870
FT write accesses: 895052
PS read accesses: 2101615
PS write accesses: 871024
PHT tag read accesses: 36078209
PHT tag write accesses: 689245
AT tag read accesses: 261465714
AT tag write accesses: 4595310
FT tag read accesses: 224301012
FT tag write accesses: 2521514
PS tag read accesses: 93512910
PS tag write accesses: 2854522
[Bingo] PHT Access: 116575
[Bingo] PHT Hit PC+Addr: 1234
[Bingo] PHT Hit PC+Offs: 115311
[Bingo] PHT Miss: 30
[Bingo] Prefetch PC+Addr: 0
[Bingo] Prefetch PC+Offs: 0
[Bingo] Useful PC+Addr: 0
[Bingo] Useful PC+Offs: 0
[Bingo] Useless PC+Addr: 0
[Bingo] Useless PC+Offs: 0
[Bingo] L1 Prefetch per Region: 0
[Bingo] L2 Prefetch per Region: 31.8189
[Bingo] L3 Prefetch per Region: 0
[Bingo] No Prefetch per Region: 0.181132
[Bingo] Number of Voters Mean: 15.9976
[Bingo] Number of Voters SD: 7.97621
PHT read accesses: 1850098
PHT write accesses: 116507
AT read accesses: 85292662
AT write accesses: 85408166
FT read accesses: 1453579
FT write accesses: 116575
PS read accesses: 4209865
PS write accesses: 116545
PHT tag read accesses: 5559087
PHT tag write accesses: 117741
AT tag read accesses: 1441893804
AT tag write accesses: 85409169
FT tag read accesses: 77412074
FT tag write accesses: 901652
PS tag read accesses: 1379217757
PS tag write accesses: 4326332

DRAM Statistics
 CHANNEL 0
 RQ ROW_BUFFER_HIT:    2219281  ROW_BUFFER_MISS:    1654137
 DBUS_CONGESTED:       1342
 WQ ROW_BUFFER_HIT:    1176173  ROW_BUFFER_MISS:    2014147  FULL:       1543

 AVG_CONGESTED_CYCLE: 5
 All warmup complete: 2
Channel 0 Bank busy for read cycles: 0
Channel 0 Bank busy for write cycles: 0
Channel 0
Rank 0
0banks busy for read cycles: 82250153
0banks busy for write cycles: 77630
1banks busy for read cycles: 16477818
1banks busy for write cycles: 9677268
2banks busy for read cycles: 3942947
2banks busy for write cycles: 1937278
3banks busy for read cycles: 2392374
3banks busy for write cycles: 1569973
4banks busy for read cycles: 1938558
4banks busy for write cycles: 1489635
5banks busy for read cycles: 2112506
5banks busy for write cycles: 1596506
6banks busy for read cycles: 2786995
6banks busy for write cycles: 1897580
7banks busy for read cycles: 8044546
7banks busy for write cycles: 5105616
8banks busy for read cycles: 32687116
8banks busy for write cycles: 43451362

CPU 0 Branch Prediction Accuracy: 99.9706% MPKI: 0.00733 Average ROB Occupancy at Mispredict: 36.5853
Branch types
NOT_BRANCH: 195007396 97.5037%
BRANCH_DIRECT_JUMP: 0 0%
BRANCH_INDIRECT: 0 0%
BRANCH_CONDITIONAL: 4992275 2.49614%
BRANCH_DIRECT_CALL: 0 0%
BRANCH_INDIRECT_CALL: 0 0%
BRANCH_RETURN: 0 0%
BRANCH_OTHER: 0 0%

DRAM PAGES: 1048576
Allocated PAGES: 70872
