
*** ChampSim Multicore Out-of-Order Simulator ***

Warmup Instructions: 50000000
Simulation Instructions: 200000000
Number of CPUs: 1
LLC sets: 2048
LLC ways: 16
L0D sets: 16
L0D ways: 2
ROB size: 352
LQ size: 128
SQ size: 72
Secure Berti: OFF
Berti: OFF
Berti Fill: OFF
On commit prefetching: ON
Hit-based filter: OFF
Time-guarding: ON
Free-slotting: ON
Leap-frogging: ON
Train prefetcher on L0D bypass: OFF
No translation penalty for prefetchers: OFF
Prefetch to L0D only: OFF
Prefetch to L1D only: OFF
Clean evictions: ON
Commit loads: ON
Commit write: ON
Fill commit loads to L2C, LLC: ON
DRAM IO FREQUENCY: 6400
ROB SIZE: 352
Off-chip DRAM Size: 4096 MB Channels: 1 Width: 64-bit Data Rate: 6400 MT/s
CPU 0 runs /home/sumon/secure_berti/GhostMinion/../../traces/spec/605.mcf_s-484B.champsimtrace.xz
.xz
BTB has LRU replacement policy
ITLB has LRU replacement policy
DTLB has LRU replacement policy
STLB has LRU replacement policy
L1I has LRU replacement policy
L0D has LRU replacement policy
Bingo PHT WAYS: 16 and PHT_SIZE: 16384
L1D has LRU replacement policy
Bingo PHT WAYS: 16 and PHT_SIZE: 16384
L2C has LRU replacement policy
LLC has LRU replacement policy
Heartbeat CPU 0 instructions: 10000001 cycles: 5722248 heartbeat IPC: 1.74757 cumulative IPC: 1.74757 (Simulation time: 0 hr 1 min 48 sec) 
Heartbeat CPU 0 instructions: 20000000 cycles: 11362159 heartbeat IPC: 1.77308 cumulative IPC: 1.76023 (Simulation time: 0 hr 3 min 47 sec) 
Heartbeat CPU 0 instructions: 30000001 cycles: 16830718 heartbeat IPC: 1.82864 cumulative IPC: 1.78246 (Simulation time: 0 hr 7 min 9 sec) 
Heartbeat CPU 0 instructions: 40000000 cycles: 22521160 heartbeat IPC: 1.75733 cumulative IPC: 1.77611 (Simulation time: 0 hr 10 min 51 sec) 
Heartbeat CPU 0 instructions: 50000000 cycles: 28127633 heartbeat IPC: 1.78365 cumulative IPC: 1.77761 (Simulation time: 0 hr 14 min 42 sec) 

Warmup complete CPU 0 instructions: 50000004 cycles: 28127634 (Simulation time: 0 hr 14 min 42 sec) 

Heartbeat CPU 0 instructions: 60000003 cycles: 47540814 heartbeat IPC: 0.515114 cumulative IPC: 0.515114 (Simulation time: 0 hr 19 min 41 sec) 
Heartbeat CPU 0 instructions: 70000003 cycles: 75444804 heartbeat IPC: 0.358372 cumulative IPC: 0.42268 (Simulation time: 0 hr 25 min 36 sec) 
Heartbeat CPU 0 instructions: 80000000 cycles: 101720016 heartbeat IPC: 0.380587 cumulative IPC: 0.407651 (Simulation time: 0 hr 31 min 3 sec) 
Heartbeat CPU 0 instructions: 90000000 cycles: 126301904 heartbeat IPC: 0.406804 cumulative IPC: 0.407439 (Simulation time: 0 hr 36 min 33 sec) 
Heartbeat CPU 0 instructions: 100000000 cycles: 146525419 heartbeat IPC: 0.494474 cumulative IPC: 0.422305 (Simulation time: 0 hr 41 min 28 sec) 
Heartbeat CPU 0 instructions: 110000000 cycles: 167913119 heartbeat IPC: 0.467558 cumulative IPC: 0.429229 (Simulation time: 0 hr 46 min 20 sec) 
Heartbeat CPU 0 instructions: 120000001 cycles: 184146672 heartbeat IPC: 0.616008 cumulative IPC: 0.448663 (Simulation time: 0 hr 49 min 14 sec) 
Heartbeat CPU 0 instructions: 130000000 cycles: 200942622 heartbeat IPC: 0.595382 cumulative IPC: 0.462923 (Simulation time: 0 hr 52 min 38 sec) 
Heartbeat CPU 0 instructions: 140000001 cycles: 221996966 heartbeat IPC: 0.474961 cumulative IPC: 0.46423 (Simulation time: 0 hr 55 min 7 sec) 
Heartbeat CPU 0 instructions: 150000001 cycles: 238894965 heartbeat IPC: 0.591786 cumulative IPC: 0.474457 (Simulation time: 0 hr 57 min 18 sec) 
Heartbeat CPU 0 instructions: 160000000 cycles: 257059337 heartbeat IPC: 0.550528 cumulative IPC: 0.480493 (Simulation time: 0 hr 59 min 33 sec) 
Heartbeat CPU 0 instructions: 170000000 cycles: 279186935 heartbeat IPC: 0.451924 cumulative IPC: 0.477975 (Simulation time: 1 hr 2 min 4 sec) 
Heartbeat CPU 0 instructions: 180000000 cycles: 299617964 heartbeat IPC: 0.489452 cumulative IPC: 0.478838 (Simulation time: 1 hr 4 min 28 sec) 
Heartbeat CPU 0 instructions: 190000000 cycles: 320092716 heartbeat IPC: 0.488406 cumulative IPC: 0.479509 (Simulation time: 1 hr 6 min 51 sec) 
Heartbeat CPU 0 instructions: 200000002 cycles: 349493594 heartbeat IPC: 0.340126 cumulative IPC: 0.466758 (Simulation time: 1 hr 9 min 48 sec) 
Heartbeat CPU 0 instructions: 210000002 cycles: 377837851 heartbeat IPC: 0.352805 cumulative IPC: 0.457522 (Simulation time: 1 hr 12 min 36 sec) 
Heartbeat CPU 0 instructions: 220000000 cycles: 397168089 heartbeat IPC: 0.517324 cumulative IPC: 0.460654 (Simulation time: 1 hr 14 min 57 sec) 
Heartbeat CPU 0 instructions: 230000002 cycles: 415598579 heartbeat IPC: 0.542579 cumulative IPC: 0.464551 (Simulation time: 1 hr 17 min 11 sec) 
Heartbeat CPU 0 instructions: 240000000 cycles: 435755688 heartbeat IPC: 0.496103 cumulative IPC: 0.466111 (Simulation time: 1 hr 19 min 30 sec) 
Heartbeat CPU 0 instructions: 250000001 cycles: 460124932 heartbeat IPC: 0.410353 cumulative IPC: 0.462966 (Simulation time: 1 hr 22 min 6 sec) 
Finished CPU 0 instructions: 200000001 cycles: 431997300 cumulative IPC: 0.462966 (Simulation time: 1 hr 22 min 6 sec) 
 Instruction ID: 250000298

ChampSim completed all CPUs

Region of Interest Statistics

CPU 0 cumulative IPC: 0.462966 instructions: 200000001 cycles: 431997300
ITLB SPEC fills:          0  NON-SPEC fills:          0
ITLB Test counter :          0
ITLB Leapfrog:          0
ITLB MSHR merge:          0
ITLB TOTAL     ACCESS:   31319960  HIT:   31319960  MISS:          0  HIT %:        100  MISS %:          0   MPKI: 0
ITLB LOAD TRANSLATION NON_SPEC    ACCESS:   31319960  HIT:   31319960  MISS:          0  HIT %:        100  MISS %:          0   MPKI: 0
ITLB PREFETCH  REQUESTED:          0  ISSUED:          0  USEFUL:          0  USELESS:          0
ITLB USEFUL LOAD PREFETCHES:          0 PREFETCH ISSUED TO LOWER LEVEL:          0  ACCURACY: -nan
ITLB TIMELY PREFETCHES:          0 LATE PREFETCHES: 0 DROPPED PREFETCHES: 0
ITLB COMMIT LATE PREFETCHES: 0 NORMAL LATE: 0 MISSED OPPORTUNITY: 0 UNCOVERED: 0
ITLB PREFETCHES SAME FILL-ORIGIN LEVEL: 0 DIFFERENT FILL-ORIGIN LEVEL: 0
ITLB AVERAGE MISS LATENCY: -nan cycles
ITLB AVERAGE MISS LATENCY LOAD: -nan cycles
ITLB AVERAGE MISS LATENCY PREFETCH: -nan cycles
ITLB AVERAGE MSHR OCCUPANCY: 0
ITLB MSHR FULL: 0
ITLB RQ	ACCESS:   42161785	FORWARD:          0	MERGED:   10841825	TO_CACHE:   31319960

DTLB SPEC fills:          0  NON-SPEC fills:          0
DTLB Test counter :          0
DTLB Leapfrog:          0
DTLB MSHR merge:          0
DTLB TOTAL     ACCESS:   56193802  HIT:   55716637  MISS:     477165  HIT %:    99.1509  MISS %:   0.849142   MPKI: 2.38582
DTLB LOAD TRANSLATION NON_SPEC    ACCESS:   56193802  HIT:   55716637  MISS:     477165  HIT %:    99.1509  MISS %:   0.849142   MPKI: 2.38582
DTLB PREFETCH  REQUESTED:          0  ISSUED:          0  USEFUL:          0  USELESS:          0
DTLB USEFUL LOAD PREFETCHES:          0 PREFETCH ISSUED TO LOWER LEVEL:          0  ACCURACY: -nan
DTLB TIMELY PREFETCHES:          0 LATE PREFETCHES: 0 DROPPED PREFETCHES: 0
DTLB COMMIT LATE PREFETCHES: 0 NORMAL LATE: 0 MISSED OPPORTUNITY: 0 UNCOVERED: 0
DTLB PREFETCHES SAME FILL-ORIGIN LEVEL: 0 DIFFERENT FILL-ORIGIN LEVEL: 0
DTLB AVERAGE MISS LATENCY: 53.497 cycles
DTLB AVERAGE MISS LATENCY LOAD: -nan cycles
DTLB AVERAGE MISS LATENCY PREFETCH: -nan cycles
DTLB AVERAGE MSHR OCCUPANCY: 0.0265059
DTLB MSHR FULL: 0
DTLB RQ	ACCESS:   97482469	FORWARD:          0	MERGED:   41137055	TO_CACHE:   56345414

STLB SPEC fills:          0  NON-SPEC fills:          0
STLB Test counter :          0
STLB Leapfrog:          0
STLB MSHR merge:          0
STLB TOTAL     ACCESS:     477165  HIT:     331167  MISS:     145998  HIT %:     69.403  MISS %:     30.597   MPKI: 0.72999
STLB LOAD TRANSLATION NON_SPEC    ACCESS:     477165  HIT:     331167  MISS:     145998  HIT %:     69.403  MISS %:     30.597   MPKI: 0.72999
STLB PREFETCH  REQUESTED:          0  ISSUED:          0  USEFUL:          0  USELESS:          0
STLB USEFUL LOAD PREFETCHES:          0 PREFETCH ISSUED TO LOWER LEVEL:          0  ACCURACY: -nan
STLB TIMELY PREFETCHES:          0 LATE PREFETCHES: 0 DROPPED PREFETCHES: 0
STLB COMMIT LATE PREFETCHES: 0 NORMAL LATE: 0 MISSED OPPORTUNITY: 0 UNCOVERED: 0
STLB PREFETCHES SAME FILL-ORIGIN LEVEL: 0 DIFFERENT FILL-ORIGIN LEVEL: 0
STLB AVERAGE MISS LATENCY: 145.324 cycles
STLB AVERAGE MISS LATENCY LOAD: -nan cycles
STLB AVERAGE MISS LATENCY PREFETCH: -nan cycles
STLB AVERAGE MSHR OCCUPANCY: 0.0154894
STLB MSHR FULL: 0
STLB RQ	ACCESS:     477165	FORWARD:          0	MERGED:          0	TO_CACHE:     477165

STLB Hit, L1D data hit: 0
STLB Hit, L2C data hit: 0
STLB Hit, LLC data hit: 0
STLB Hit, LLC data miss: 0
STLB STLB hints to L2: 0
L0D SPEC fills:   27070115  NON-SPEC fills:          0
L0D TimeGuard Request with older TS:     416271 Restricted eviction:     105999 read:     663317
L0D Test counter :          0
L0D Leapfrog:          0
L0D MSHR merge:    1854056
L0D TOTAL     ACCESS:   38285224  HIT:    4014329  MISS:   34270895  HIT %:    10.4853  MISS %:    89.5147   MPKI: 171.354
L0D LOAD      TOTAL       ACCESS:   38285224  HIT:    4014329  MISS:   34270895  HIT %:    10.4853  MISS %:    89.5147   MPKI: 171.354
L0D LOAD      NON_SPEC    ACCESS:    7469949  HIT:     375168  MISS:    7094781  HIT %:    5.02236  MISS %:    94.9776   MPKI: 35.4739
L0D LOAD      SPEC        ACCESS:   30815275  HIT:    3639161  MISS:   27176114  HIT %:    11.8096  MISS %:    88.1904   MPKI: 135.881
L0D PREFETCH  REQUESTED:          0  ISSUED:          0  USEFUL:          0  USELESS:          0
L0D USEFUL LOAD PREFETCHES:          0 PREFETCH ISSUED TO LOWER LEVEL:          0  ACCURACY: -nan
L0D TIMELY PREFETCHES:          0 LATE PREFETCHES: 0 DROPPED PREFETCHES: 0
L0D COMMIT LATE PREFETCHES: 0 NORMAL LATE: 0 MISSED OPPORTUNITY: 0 UNCOVERED: 0
L0D PREFETCHES SAME FILL-ORIGIN LEVEL: 0 DIFFERENT FILL-ORIGIN LEVEL: 0
L0D AVERAGE MISS LATENCY: 20.7844 cycles
L0D AVERAGE MISS LATENCY LOAD: 20.7844 cycles
L0D AVERAGE MISS LATENCY PREFETCH: -nan cycles
L0D AVERAGE MSHR OCCUPANCY: 1.35232
L0D MSHR FULL: 0.0152012
L0D RQ	ACCESS:   62784458	FORWARD:          0	MERGED:   22645177	TO_CACHE:   40139281
L0D WQ	ACCESS:   57343188	FORWARD:          0	MERGED:          0	TO_CACHE:   57343188

L1D SPEC fills:          0  NON-SPEC fills:    1058016
L1D Test counter :          0
L1D Leapfrog:          0
L1D MSHR merge:       3313
L1D TOTAL     ACCESS:  130473924  HIT:  120956162  MISS:    9517762  HIT %:    92.7052  MISS %:    7.29476   MPKI: 47.5888
L1D LOAD      TOTAL       ACCESS:   34267583  HIT:   29181769  MISS:    5085814  HIT %:    85.1585  MISS %:    14.8415   MPKI: 25.4291
L1D LOAD      NON_SPEC    ACCESS:    7093941  HIT:    6035925  MISS:    1058016  HIT %:    85.0856  MISS %:    14.9144   MPKI: 5.29008
L1D LOAD      SPEC        ACCESS:   27173642  HIT:   23145844  MISS:    4027798  HIT %:    85.1776  MISS %:    14.8224   MPKI: 20.139
L1D RFO       NON_SPEC    ACCESS:   55078553  HIT:   54585265  MISS:     493288  HIT %:    99.1044  MISS %:   0.895608   MPKI: 2.46644
L1D COMMIT LOAD NON_SPEC    ACCESS:   14424369  HIT:   14242494  MISS:     181875  HIT %:    98.7391  MISS %:    1.26089   MPKI: 0.909375
L1D COMMIT WRITE NON_SPEC    ACCESS:   26703419  HIT:   22946634  MISS:    3756785  HIT %:    85.9314  MISS %:    14.0686   MPKI: 18.7839
L1D PREFETCH  REQUESTED:          0  ISSUED:          0  USEFUL:          0  USELESS:          0
L1D USEFUL LOAD PREFETCHES:          0 PREFETCH ISSUED TO LOWER LEVEL:          0  ACCURACY: -nan
L1D TIMELY PREFETCHES:          0 LATE PREFETCHES: 0 DROPPED PREFETCHES: 0
L1D COMMIT LATE PREFETCHES: 0 NORMAL LATE: 0 MISSED OPPORTUNITY: 0 UNCOVERED: 5091038
L1D PREFETCHES SAME FILL-ORIGIN LEVEL: 0 DIFFERENT FILL-ORIGIN LEVEL: 0
L1D AVERAGE MISS LATENCY: 73.3478 cycles
L1D AVERAGE MISS LATENCY LOAD: 104.941 cycles
L1D AVERAGE MISS LATENCY PREFETCH: -nan cycles
L1D AVERAGE MSHR OCCUPANCY: 0.794262
L1D MSHR FULL: 8.5583e-06
L1D RQ	ACCESS:   61379728	FORWARD:          0	MERGED:   11163507	TO_CACHE:   48724231
L1D WQ	ACCESS:   84079578	FORWARD:    1491990	MERGED:     645192	TO_CACHE:   83434386

L1D UNIQUE REGIONS ACCESSED: 0
L1D REGIONS CONFLICTS: 0
L1D Cross Page Prefetch Requests: 0
L1D Same Page Prefetch Requests: 0
L1D ROI Sum of L1D PQ occupancy: 0
L1D PREFETCHES PUSHED FROM L2C: 0
L1I SPEC fills:          0  NON-SPEC fills:          0
L1I Test counter :          0
L1I Leapfrog:          0
L1I MSHR merge:          0
L1I TOTAL     ACCESS:   42161785  HIT:   42161785  MISS:          0  HIT %:        100  MISS %:          0   MPKI: 0
L1I LOAD      TOTAL       ACCESS:   42161785  HIT:   42161785  MISS:          0  HIT %:        100  MISS %:          0   MPKI: 0
L1I LOAD      NON_SPEC    ACCESS:   42161785  HIT:   42161785  MISS:          0  HIT %:        100  MISS %:          0   MPKI: 0
L1I PREFETCH  REQUESTED:          0  ISSUED:          0  USEFUL:          0  USELESS:          0
L1I USEFUL LOAD PREFETCHES:          0 PREFETCH ISSUED TO LOWER LEVEL:          0  ACCURACY: -nan
L1I TIMELY PREFETCHES:          0 LATE PREFETCHES: 0 DROPPED PREFETCHES: 0
L1I COMMIT LATE PREFETCHES: 0 NORMAL LATE: 0 MISSED OPPORTUNITY: 0 UNCOVERED: 0
L1I PREFETCHES SAME FILL-ORIGIN LEVEL: 0 DIFFERENT FILL-ORIGIN LEVEL: 0
L1I AVERAGE MISS LATENCY: -nan cycles
L1I AVERAGE MISS LATENCY LOAD: -nan cycles
L1I AVERAGE MISS LATENCY PREFETCH: -nan cycles
L1I AVERAGE MSHR OCCUPANCY: 0
L1I MSHR FULL: 0
L1I RQ	ACCESS:   56062923	FORWARD:          0	MERGED:   13901138	TO_CACHE:   42161785

BTB SPEC fills:          0  NON-SPEC fills:          0
BTB Test counter :          0
BTB Leapfrog:          0
BTB MSHR merge:          0
BTB TOTAL     ACCESS:   19468364  HIT:   19468330  MISS:         34  HIT %:    99.9998  MISS %: 0.000174642   MPKI: 0.00017
BTB BRANCH_DIRECT_JUMP	ACCESS:     976614  HIT:     976608  MISS:          6
BTB BRANCH_INDIRECT	ACCESS:          0  HIT:          0  MISS:          0
BTB BRANCH_CONDITIONAL	ACCESS:   18491562  HIT:   18491538  MISS:         24
BTB BRANCH_DIRECT_CALL	ACCESS:         94  HIT:         92  MISS:          2
BTB BRANCH_INDIRECT_CALL	ACCESS:          0  HIT:          0  MISS:          0
BTB BRANCH_RETURN	ACCESS:         94  HIT:         92  MISS:          2
BTB BRANCH_OTHER ACCESS:          0  HIT:          0  MISS:          0

L2C SPEC fills:          0  NON-SPEC fills:     236848
L2C Test counter :          0
L2C Leapfrog:          0
L2C MSHR merge:     638497
L2C TOTAL     ACCESS:   16570332  HIT:    8020841  MISS:    8549491  HIT %:    48.4048  MISS %:    51.5952   MPKI: 42.7475
L2C LOAD      TOTAL       ACCESS:    5085797  HIT:    3434025  MISS:    1651772  HIT %:    67.5219  MISS %:    32.4781   MPKI: 8.25886
L2C LOAD      NON_SPEC    ACCESS:    1058015  HIT:     821167  MISS:     236848  HIT %:    77.6139  MISS %:    22.3861   MPKI: 1.18424
L2C LOAD      SPEC        ACCESS:    4027782  HIT:    2612858  MISS:    1414924  HIT %:    64.8709  MISS %:    35.1291   MPKI: 7.07462
L2C RFO       NON_SPEC    ACCESS:     493282  HIT:      51547  MISS:     441735  HIT %:    10.4498  MISS %:    89.5502   MPKI: 2.20867
L2C PREFETCH  NON_SPEC    ACCESS:    5450798  HIT:     118531  MISS:    5332267  HIT %:    2.17456  MISS %:    97.8254   MPKI: 26.6613
L2C WRITEBACK NON_SPEC    ACCESS:     497493  HIT:     497247  MISS:        246  HIT %:    99.9506  MISS %:  0.0494479   MPKI: 0.00123
L2C CLEAN_EVICTION NON_SPEC    ACCESS:    4131194  HIT:    3083588  MISS:    1047606  HIT %:    74.6416  MISS %:    25.3584   MPKI: 5.23803
L2C COMMIT LOAD NON_SPEC    ACCESS:     181875  HIT:     128634  MISS:      53241  HIT %:    70.7266  MISS %:    29.2734   MPKI: 0.266205
L2C LOAD TRANSLATION NON_SPEC    ACCESS:     729893  HIT:     707269  MISS:      22624  HIT %:    96.9004  MISS %:    3.09963   MPKI: 0.11312
L2C PREFETCH  REQUESTED:    6326641  ISSUED:    6326641  USEFUL:    3279631  USELESS:    2051330
L2C USEFUL LOAD PREFETCHES:    3279631 PREFETCH ISSUED TO LOWER LEVEL:    5987070  ACCURACY: 54.7786
L2C TIMELY PREFETCHES:    3279631 LATE PREFETCHES: 654803 DROPPED PREFETCHES: 0
L2C COMMIT LATE PREFETCHES: 473952 NORMAL LATE: 622588 MISSED OPPORTUNITY: 47714 UNCOVERED: 523824
L2C PREFETCHES SAME FILL-ORIGIN LEVEL: 5987070 DIFFERENT FILL-ORIGIN LEVEL: 0
L2C AVERAGE MISS LATENCY: 282.994 cycles
L2C AVERAGE MISS LATENCY LOAD: 289.162 cycles
L2C AVERAGE MISS LATENCY PREFETCH: 333.926 cycles
L2C AVERAGE MSHR OCCUPANCY: 11.3947
L2C MSHR FULL: 0.141585
L2C RQ	ACCESS:    6490870	FORWARD:          0	MERGED:          0	TO_CACHE:    6490847
L2C WQ	ACCESS:    4628689	FORWARD:         25	MERGED:          2	TO_CACHE:    4628687
L2C PQ	ACCESS:    6326641	FORWARD:          0	MERGED:         26	TO_CACHE:    6326613

L2C Instructions Evicting Data 0
L2C Translations Evicting Data 22573
L2C Data Evicting Data 6044741
L2C Instructions Evicting Instructions 0
L2C Translations Evicting Instructions 0
L2C Data Evicting Instructions 0
L2C Instructions Evicting Translations 0
L2C Translations Evicting Translations 51
L2C Data Evicting Translations 19350
L2C Dense regions hint from L2: 0
PSCL5 SPEC fills:          0  NON-SPEC fills:          0
PSCL5 Test counter :          0
PSCL5 Leapfrog:          0
PSCL5 MSHR merge:          0
PSCL5 TOTAL     ACCESS:          0  HIT:          0  MISS:          0  HIT %:       -nan  MISS %:       -nan   MPKI: 0
PSCL5 PREFETCH  REQUESTED:          0  ISSUED:          0  USEFUL:          0  USELESS:          0
PSCL5 USEFUL LOAD PREFETCHES:          0 PREFETCH ISSUED TO LOWER LEVEL:          0  ACCURACY: -nan
PSCL5 TIMELY PREFETCHES:          0 LATE PREFETCHES: 0 DROPPED PREFETCHES: 0
PSCL5 COMMIT LATE PREFETCHES: 0 NORMAL LATE: 0 MISSED OPPORTUNITY: 0 UNCOVERED: 0
PSCL5 PREFETCHES SAME FILL-ORIGIN LEVEL: 0 DIFFERENT FILL-ORIGIN LEVEL: 0

PSCL4 SPEC fills:          0  NON-SPEC fills:          0
PSCL4 Test counter :          0
PSCL4 Leapfrog:          0
PSCL4 MSHR merge:          0
PSCL4 TOTAL     ACCESS:          0  HIT:          0  MISS:          0  HIT %:       -nan  MISS %:       -nan   MPKI: 0
PSCL4 PREFETCH  REQUESTED:          0  ISSUED:          0  USEFUL:          0  USELESS:          0
PSCL4 USEFUL LOAD PREFETCHES:          0 PREFETCH ISSUED TO LOWER LEVEL:          0  ACCURACY: -nan
PSCL4 TIMELY PREFETCHES:          0 LATE PREFETCHES: 0 DROPPED PREFETCHES: 0
PSCL4 COMMIT LATE PREFETCHES: 0 NORMAL LATE: 0 MISSED OPPORTUNITY: 0 UNCOVERED: 0
PSCL4 PREFETCHES SAME FILL-ORIGIN LEVEL: 0 DIFFERENT FILL-ORIGIN LEVEL: 0

PSCL3 SPEC fills:          0  NON-SPEC fills:          0
PSCL3 Test counter :          0
PSCL3 Leapfrog:          0
PSCL3 MSHR merge:          0
PSCL3 TOTAL     ACCESS:          0  HIT:          0  MISS:          0  HIT %:       -nan  MISS %:       -nan   MPKI: 0
PSCL3 PREFETCH  REQUESTED:          0  ISSUED:          0  USEFUL:          0  USELESS:          0
PSCL3 USEFUL LOAD PREFETCHES:          0 PREFETCH ISSUED TO LOWER LEVEL:          0  ACCURACY: -nan
PSCL3 TIMELY PREFETCHES:          0 LATE PREFETCHES: 0 DROPPED PREFETCHES: 0
PSCL3 COMMIT LATE PREFETCHES: 0 NORMAL LATE: 0 MISSED OPPORTUNITY: 0 UNCOVERED: 0
PSCL3 PREFETCHES SAME FILL-ORIGIN LEVEL: 0 DIFFERENT FILL-ORIGIN LEVEL: 0

PSCL2 SPEC fills:          0  NON-SPEC fills:          0
PSCL2 Test counter :          0
PSCL2 Leapfrog:          0
PSCL2 MSHR merge:          0
PSCL2 TOTAL     ACCESS:          0  HIT:          0  MISS:          0  HIT %:       -nan  MISS %:       -nan   MPKI: 0
PSCL2 PREFETCH  REQUESTED:          0  ISSUED:          0  USEFUL:          0  USELESS:          0
PSCL2 USEFUL LOAD PREFETCHES:          0 PREFETCH ISSUED TO LOWER LEVEL:          0  ACCURACY: -nan
PSCL2 TIMELY PREFETCHES:          0 LATE PREFETCHES: 0 DROPPED PREFETCHES: 0
PSCL2 COMMIT LATE PREFETCHES: 0 NORMAL LATE: 0 MISSED OPPORTUNITY: 0 UNCOVERED: 0
PSCL2 PREFETCHES SAME FILL-ORIGIN LEVEL: 0 DIFFERENT FILL-ORIGIN LEVEL: 0

LLC SPEC fills:          0  NON-SPEC fills:      93167
LLC Test counter :          0
LLC Leapfrog:          0
LLC MSHR merge:          0
LLC TOTAL     ACCESS:   12047539  HIT:    4064498  MISS:    7983041  HIT %:    33.7372  MISS %:    66.2628   MPKI: 39.9152
LLC LOAD      TOTAL       ACCESS:    1013275  HIT:      21747  MISS:     991528  HIT %:    2.14621  MISS %:    97.8538   MPKI: 4.95764
LLC LOAD      NON_SPEC    ACCESS:      95551  HIT:       2384  MISS:      93167  HIT %:      2.495  MISS %:     97.505   MPKI: 0.465835
LLC LOAD      SPEC        ACCESS:     917724  HIT:      19363  MISS:     898361  HIT %:    2.10989  MISS %:    97.8901   MPKI: 4.4918
LLC RFO       NON_SPEC    ACCESS:     440848  HIT:        705  MISS:     440143  HIT %:   0.159919  MISS %:    99.8401   MPKI: 2.20071
LLC PREFETCH  NON_SPEC    ACCESS:    5987031  HIT:      38542  MISS:    5948489  HIT %:   0.643758  MISS %:    99.3562   MPKI: 29.7424
LLC WRITEBACK NON_SPEC    ACCESS:     493261  HIT:     492801  MISS:        460  HIT %:    99.9067  MISS %:  0.0932569   MPKI: 0.0023
LLC CLEAN_EVICTION NON_SPEC    ACCESS:    4052678  HIT:    3488074  MISS:     564604  HIT %:    86.0684  MISS %:    13.9316   MPKI: 2.82302
LLC COMMIT LOAD NON_SPEC    ACCESS:      37822  HIT:      20980  MISS:      16842  HIT %:    55.4704  MISS %:    44.5296   MPKI: 0.08421
LLC LOAD TRANSLATION NON_SPEC    ACCESS:      22624  HIT:       1649  MISS:      20975  HIT %:    7.28872  MISS %:    92.7113   MPKI: 0.104875
LLC PREFETCH  REQUESTED:          0  ISSUED:          0  USEFUL:      40319  USELESS:    5905848
LLC USEFUL LOAD PREFETCHES:      40319 PREFETCH ISSUED TO LOWER LEVEL:    5948489  ACCURACY: 0.677802
LLC TIMELY PREFETCHES:      40319 LATE PREFETCHES: 0 DROPPED PREFETCHES: 0
LLC COMMIT LATE PREFETCHES: 0 NORMAL LATE: 0 MISSED OPPORTUNITY: 0 UNCOVERED: 0
LLC PREFETCHES SAME FILL-ORIGIN LEVEL: 0 DIFFERENT FILL-ORIGIN LEVEL: 0
LLC AVERAGE MISS LATENCY: 285.3 cycles
LLC AVERAGE MISS LATENCY LOAD: 289.703 cycles
LLC AVERAGE MISS LATENCY PREFETCH: 310.591 cycles
LLC AVERAGE MSHR OCCUPANCY: 7.2196
LLC MSHR FULL: 0
LLC RQ	ACCESS:    1514569	FORWARD:          0	MERGED:          0	TO_CACHE:    1514569
LLC WQ	ACCESS:    4545940	FORWARD:         39	MERGED:          0	TO_CACHE:    4545940
LLC PQ	ACCESS:    5987070	FORWARD:          0	MERGED:          0	TO_CACHE:    5987031

LLC Dense regions hint to LLC: 0

RAW hits: 1383062
Loads Generated: 64167520
Loads sent to L1D: 62784458
Stores Generated: 57343183
Stores sent to L1D: 57343188
Major fault: 0 Minor fault: 60491
Allocated PAGES: 60491
Total Load insts: 78213928
Total Non-spec loads: 10636193
Percentage of speculative loads: 86.4012

LeapFrogging counter: 749879
Commit hits: 26736384 miss: 27108831
Commit hit %: 49.6542 miss %: 50.3458
Commits not translated: 0
Loads retired: 5085814
Stores retired: 57343188
Cache fills: 5085814
L1D response latency: 104.941 cycles
Load retirement latency: 274.282 cycles
OOO test counter: 0
Discarded buffer inserts: 26736384 hits: 79589 hit %: 0.29768
Filter prediction accuracy: -nan
[Bingo] PHT Access: 446463
[Bingo] PHT Hit PC+Addr: 23492
[Bingo] PHT Hit PC+Offs: 417623
[Bingo] PHT Miss: 5348
[Bingo] Prefetch PC+Addr: 0
[Bingo] Prefetch PC+Offs: 0
[Bingo] Useful PC+Addr: 0
[Bingo] Useful PC+Offs: 0
[Bingo] Useless PC+Addr: 0
[Bingo] Useless PC+Offs: 0
[Bingo] L1 Prefetch per Region: 0
[Bingo] L2 Prefetch per Region: 17.0219
[Bingo] L3 Prefetch per Region: 0
[Bingo] No Prefetch per Region: 14.9781
[Bingo] Number of Voters Mean: 15.6342
[Bingo] Number of Voters SD: 7.36215
PHT read accesses: 6924486
PHT write accesses: 419191
AT read accesses: 5052760
AT write accesses: 5053741
FT read accesses: 1294549
FT write accesses: 446463
PS read accesses: 900455
PS write accesses: 441115
PHT tag read accesses: 20057055
PHT tag write accesses: 442683
AT tag read accesses: 357933951
AT tag write accesses: 5471986
FT tag read accesses: 290097178
FT tag write accesses: 1316967
PS tag read accesses: 96687066
PS tag write accesses: 1341140
[Bingo] PHT Access: 308886
[Bingo] PHT Hit PC+Addr: 23377
[Bingo] PHT Hit PC+Offs: 284151
[Bingo] PHT Miss: 1358
[Bingo] Prefetch PC+Addr: 0
[Bingo] Prefetch PC+Offs: 0
[Bingo] Useful PC+Addr: 0
[Bingo] Useful PC+Offs: 0
[Bingo] Useless PC+Addr: 0
[Bingo] Useless PC+Offs: 0
[Bingo] L1 Prefetch per Region: 0
[Bingo] L2 Prefetch per Region: 21.6185
[Bingo] L3 Prefetch per Region: 0
[Bingo] No Prefetch per Region: 10.3815
[Bingo] Number of Voters Mean: 15.9634
[Bingo] Number of Voters SD: 7.68908
PHT read accesses: 4741174
PHT write accesses: 304149
AT read accesses: 61690057
AT write accesses: 61954468
FT read accesses: 5333847
FT write accesses: 308886
PS read accesses: 1095915
PS write accesses: 307528
PHT tag read accesses: 14123955
PHT tag write accesses: 327526
AT tag read accesses: 1155122178
AT tag write accesses: 61994204
FT tag read accesses: 169713048
FT tag write accesses: 3130251
PS tag read accesses: 1038879499
PS tag write accesses: 1403359

DRAM Statistics
 CHANNEL 0
 RQ ROW_BUFFER_HIT:    3781644  ROW_BUFFER_MISS:    3636323
 DBUS_CONGESTED:       2953
 WQ ROW_BUFFER_HIT:     816883  ROW_BUFFER_MISS:    3722357  FULL:       8887

 AVG_CONGESTED_CYCLE: 4
 All warmup complete: 2
Channel 0 Bank busy for read cycles: 0
Channel 0 Bank busy for write cycles: 0
Channel 0
Rank 0
0banks busy for read cycles: 114568313
0banks busy for write cycles: 181084
1banks busy for read cycles: 66158561
1banks busy for write cycles: 23107067
2banks busy for read cycles: 13129451
2banks busy for write cycles: 8058907
3banks busy for read cycles: 7652042
3banks busy for write cycles: 5593770
4banks busy for read cycles: 7174053
4banks busy for write cycles: 5261226
5banks busy for read cycles: 8366613
5banks busy for write cycles: 5322096
6banks busy for read cycles: 11297161
6banks busy for write cycles: 6160042
7banks busy for read cycles: 20551244
7banks busy for write cycles: 12099519
8banks busy for read cycles: 45966220
8banks busy for write cycles: 71349932

CPU 0 Branch Prediction Accuracy: 99.1376% MPKI: 0.85602 Average ROB Occupancy at Mispredict: 205.986
Branch types
NOT_BRANCH: 180147862 90.0739%
BRANCH_DIRECT_JUMP: 976614 0.488307%
BRANCH_INDIRECT: 0 0%
BRANCH_CONDITIONAL: 18875250 9.43762%
BRANCH_DIRECT_CALL: 94 4.7e-05%
BRANCH_INDIRECT_CALL: 0 0%
BRANCH_RETURN: 94 4.7e-05%
BRANCH_OTHER: 0 0%

DRAM PAGES: 1048576
Allocated PAGES: 60491
