
*** ChampSim Multicore Out-of-Order Simulator ***

Warmup Instructions: 50000000
Simulation Instructions: 200000000
Number of CPUs: 1
LLC sets: 2048
LLC ways: 16
L0D sets: 16
L0D ways: 2
ROB size: 352
LQ size: 128
SQ size: 72
Secure Berti: OFF
Berti: OFF
Berti Fill: OFF
On commit prefetching: ON
Hit-based filter: OFF
Time-guarding: ON
Free-slotting: ON
Leap-frogging: ON
Train prefetcher on L0D bypass: OFF
No translation penalty for prefetchers: OFF
Prefetch to L0D only: OFF
Prefetch to L1D only: OFF
Clean evictions: ON
Commit loads: ON
Commit write: ON
Fill commit loads to L2C, LLC: ON
DRAM IO FREQUENCY: 6400
ROB SIZE: 352
Off-chip DRAM Size: 4096 MB Channels: 1 Width: 64-bit Data Rate: 6400 MT/s
CPU 0 runs /home/sumon/secure_berti/GhostMinion/../../traces/spec/605.mcf_s-1554B.champsimtrace.xz
.xz
BTB has LRU replacement policy
ITLB has LRU replacement policy
DTLB has LRU replacement policy
STLB has LRU replacement policy
L1I has LRU replacement policy
L0D has LRU replacement policy
Bingo PHT WAYS: 16 and PHT_SIZE: 16384
L1D has LRU replacement policy
Bingo PHT WAYS: 16 and PHT_SIZE: 16384
L2C has LRU replacement policy
LLC has LRU replacement policy
Heartbeat CPU 0 instructions: 10000001 cycles: 4360692 heartbeat IPC: 2.29321 cumulative IPC: 2.29321 (Simulation time: 0 hr 2 min 38 sec) 
Heartbeat CPU 0 instructions: 20000001 cycles: 8741402 heartbeat IPC: 2.28274 cumulative IPC: 2.28796 (Simulation time: 0 hr 6 min 1 sec) 
Heartbeat CPU 0 instructions: 30000000 cycles: 13140680 heartbeat IPC: 2.2731 cumulative IPC: 2.28299 (Simulation time: 0 hr 10 min 32 sec) 
Heartbeat CPU 0 instructions: 40000001 cycles: 17524164 heartbeat IPC: 2.28129 cumulative IPC: 2.28256 (Simulation time: 0 hr 15 min 0 sec) 
Heartbeat CPU 0 instructions: 50000000 cycles: 21905954 heartbeat IPC: 2.28217 cumulative IPC: 2.28248 (Simulation time: 0 hr 19 min 28 sec) 

Warmup complete CPU 0 instructions: 50000004 cycles: 21905955 (Simulation time: 0 hr 19 min 28 sec) 

Heartbeat CPU 0 instructions: 60000002 cycles: 89835059 heartbeat IPC: 0.147212 cumulative IPC: 0.147212 (Simulation time: 0 hr 28 min 25 sec) 
Heartbeat CPU 0 instructions: 70000002 cycles: 156650080 heartbeat IPC: 0.149667 cumulative IPC: 0.148429 (Simulation time: 0 hr 35 min 44 sec) 
Heartbeat CPU 0 instructions: 80000001 cycles: 223803082 heartbeat IPC: 0.148914 cumulative IPC: 0.148591 (Simulation time: 0 hr 42 min 24 sec) 
Heartbeat CPU 0 instructions: 90000003 cycles: 291218885 heartbeat IPC: 0.148333 cumulative IPC: 0.148526 (Simulation time: 0 hr 51 min 47 sec) 
Heartbeat CPU 0 instructions: 100000001 cycles: 358524146 heartbeat IPC: 0.148577 cumulative IPC: 0.148536 (Simulation time: 0 hr 58 min 30 sec) 
Heartbeat CPU 0 instructions: 110000000 cycles: 426329077 heartbeat IPC: 0.147482 cumulative IPC: 0.148359 (Simulation time: 1 hr 4 min 42 sec) 
Heartbeat CPU 0 instructions: 120000001 cycles: 496061082 heartbeat IPC: 0.143406 cumulative IPC: 0.147631 (Simulation time: 1 hr 10 min 31 sec) 
Heartbeat CPU 0 instructions: 130000000 cycles: 564242993 heartbeat IPC: 0.146666 cumulative IPC: 0.14751 (Simulation time: 1 hr 15 min 39 sec) 
Heartbeat CPU 0 instructions: 140000000 cycles: 633557796 heartbeat IPC: 0.144269 cumulative IPC: 0.147143 (Simulation time: 1 hr 20 min 49 sec) 
Heartbeat CPU 0 instructions: 150000001 cycles: 702951956 heartbeat IPC: 0.144104 cumulative IPC: 0.146833 (Simulation time: 1 hr 26 min 3 sec) 
Heartbeat CPU 0 instructions: 160000000 cycles: 773963260 heartbeat IPC: 0.140823 cumulative IPC: 0.146265 (Simulation time: 1 hr 31 min 24 sec) 
Heartbeat CPU 0 instructions: 170000003 cycles: 845492074 heartbeat IPC: 0.139804 cumulative IPC: 0.145704 (Simulation time: 1 hr 36 min 46 sec) 
Heartbeat CPU 0 instructions: 180000003 cycles: 916824371 heartbeat IPC: 0.140189 cumulative IPC: 0.145265 (Simulation time: 1 hr 42 min 6 sec) 
Heartbeat CPU 0 instructions: 190000000 cycles: 987478643 heartbeat IPC: 0.141534 cumulative IPC: 0.144992 (Simulation time: 1 hr 47 min 26 sec) 
Heartbeat CPU 0 instructions: 200000002 cycles: 1059602822 heartbeat IPC: 0.13865 cumulative IPC: 0.144551 (Simulation time: 1 hr 52 min 51 sec) 
Heartbeat CPU 0 instructions: 210000001 cycles: 1128682232 heartbeat IPC: 0.144761 cumulative IPC: 0.144564 (Simulation time: 1 hr 58 min 2 sec) 
Heartbeat CPU 0 instructions: 220000000 cycles: 1197012028 heartbeat IPC: 0.146349 cumulative IPC: 0.144668 (Simulation time: 2 hr 3 min 12 sec) 
Heartbeat CPU 0 instructions: 230000002 cycles: 1268575574 heartbeat IPC: 0.139736 cumulative IPC: 0.144385 (Simulation time: 2 hr 8 min 36 sec) 
Heartbeat CPU 0 instructions: 240000001 cycles: 1336749034 heartbeat IPC: 0.146685 cumulative IPC: 0.144504 (Simulation time: 2 hr 13 min 43 sec) 
Heartbeat CPU 0 instructions: 250000001 cycles: 1405992516 heartbeat IPC: 0.144418 cumulative IPC: 0.1445 (Simulation time: 2 hr 18 min 58 sec) 
Finished CPU 0 instructions: 200000000 cycles: 1384087611 cumulative IPC: 0.1445 (Simulation time: 2 hr 18 min 58 sec) 
 Instruction ID: 250000386

ChampSim completed all CPUs

Region of Interest Statistics

CPU 0 cumulative IPC: 0.1445 instructions: 200000000 cycles: 1384087611
ITLB SPEC fills:          0  NON-SPEC fills:          0
ITLB Test counter :          0
ITLB Leapfrog:          0
ITLB MSHR merge:          0
ITLB TOTAL     ACCESS:   42529515  HIT:   42529515  MISS:          0  HIT %:        100  MISS %:          0   MPKI: 0
ITLB LOAD TRANSLATION NON_SPEC    ACCESS:   42529515  HIT:   42529515  MISS:          0  HIT %:        100  MISS %:          0   MPKI: 0
ITLB PREFETCH  REQUESTED:          0  ISSUED:          0  USEFUL:          0  USELESS:          0
ITLB USEFUL LOAD PREFETCHES:          0 PREFETCH ISSUED TO LOWER LEVEL:          0  ACCURACY: -nan
ITLB TIMELY PREFETCHES:          0 LATE PREFETCHES: 0 DROPPED PREFETCHES: 0
ITLB COMMIT LATE PREFETCHES: 0 NORMAL LATE: 0 MISSED OPPORTUNITY: 0 UNCOVERED: 0
ITLB PREFETCHES SAME FILL-ORIGIN LEVEL: 0 DIFFERENT FILL-ORIGIN LEVEL: 0
ITLB AVERAGE MISS LATENCY: -nan cycles
ITLB AVERAGE MISS LATENCY LOAD: -nan cycles
ITLB AVERAGE MISS LATENCY PREFETCH: -nan cycles
ITLB AVERAGE MSHR OCCUPANCY: 0
ITLB MSHR FULL: 0
ITLB RQ	ACCESS:   51633767	FORWARD:          0	MERGED:    9104252	TO_CACHE:   42529515

DTLB SPEC fills:          0  NON-SPEC fills:          0
DTLB Test counter :          0
DTLB Leapfrog:          0
DTLB MSHR merge:          0
DTLB TOTAL     ACCESS:   66012564  HIT:   65211979  MISS:     800585  HIT %:    98.7872  MISS %:    1.21278   MPKI: 4.00293
DTLB LOAD TRANSLATION NON_SPEC    ACCESS:   66012564  HIT:   65211979  MISS:     800585  HIT %:    98.7872  MISS %:    1.21278   MPKI: 4.00293
DTLB PREFETCH  REQUESTED:          0  ISSUED:          0  USEFUL:          0  USELESS:          0
DTLB USEFUL LOAD PREFETCHES:          0 PREFETCH ISSUED TO LOWER LEVEL:          0  ACCURACY: -nan
DTLB TIMELY PREFETCHES:          0 LATE PREFETCHES: 0 DROPPED PREFETCHES: 0
DTLB COMMIT LATE PREFETCHES: 0 NORMAL LATE: 0 MISSED OPPORTUNITY: 0 UNCOVERED: 0
DTLB PREFETCHES SAME FILL-ORIGIN LEVEL: 0 DIFFERENT FILL-ORIGIN LEVEL: 0
DTLB AVERAGE MISS LATENCY: 14.2024 cycles
DTLB AVERAGE MISS LATENCY LOAD: -nan cycles
DTLB AVERAGE MISS LATENCY PREFETCH: -nan cycles
DTLB AVERAGE MSHR OCCUPANCY: 0.0173068
DTLB MSHR FULL: 0
DTLB RQ	ACCESS:   83083263	FORWARD:          0	MERGED:   17018809	TO_CACHE:   66064454

STLB SPEC fills:          0  NON-SPEC fills:          0
STLB Test counter :          0
STLB Leapfrog:          0
STLB MSHR merge:          0
STLB TOTAL     ACCESS:     800585  HIT:     788317  MISS:      12268  HIT %:    98.4676  MISS %:    1.53238   MPKI: 0.06134
STLB LOAD TRANSLATION NON_SPEC    ACCESS:     800585  HIT:     788317  MISS:      12268  HIT %:    98.4676  MISS %:    1.53238   MPKI: 0.06134
STLB PREFETCH  REQUESTED:          0  ISSUED:          0  USEFUL:          0  USELESS:          0
STLB USEFUL LOAD PREFETCHES:          0 PREFETCH ISSUED TO LOWER LEVEL:          0  ACCURACY: -nan
STLB TIMELY PREFETCHES:          0 LATE PREFETCHES: 0 DROPPED PREFETCHES: 0
STLB COMMIT LATE PREFETCHES: 0 NORMAL LATE: 0 MISSED OPPORTUNITY: 0 UNCOVERED: 0
STLB PREFETCHES SAME FILL-ORIGIN LEVEL: 0 DIFFERENT FILL-ORIGIN LEVEL: 0
STLB AVERAGE MISS LATENCY: 338.362 cycles
STLB AVERAGE MISS LATENCY LOAD: -nan cycles
STLB AVERAGE MISS LATENCY PREFETCH: -nan cycles
STLB AVERAGE MSHR OCCUPANCY: 0.0033563
STLB MSHR FULL: 0
STLB RQ	ACCESS:     800585	FORWARD:          0	MERGED:          0	TO_CACHE:     800585

STLB Hit, L1D data hit: 0
STLB Hit, L2C data hit: 0
STLB Hit, LLC data hit: 0
STLB Hit, LLC data miss: 0
STLB STLB hints to L2: 0
L0D SPEC fills:   41640945  NON-SPEC fills:          0
L0D TimeGuard Request with older TS:    2274120 Restricted eviction:     947043 read:    1897181
L0D Test counter :          0
L0D Leapfrog:          0
L0D MSHR merge:    4193661
L0D TOTAL     ACCESS:   65370907  HIT:   14925005  MISS:   50445902  HIT %:    22.8313  MISS %:    77.1687   MPKI: 252.23
L0D LOAD      TOTAL       ACCESS:   65370907  HIT:   14925005  MISS:   50445902  HIT %:    22.8313  MISS %:    77.1687   MPKI: 252.23
L0D LOAD      NON_SPEC    ACCESS:    8324377  HIT:     466463  MISS:    7857914  HIT %:    5.60358  MISS %:    94.3964   MPKI: 39.2896
L0D LOAD      SPEC        ACCESS:   57046530  HIT:   14458542  MISS:   42587988  HIT %:    25.3452  MISS %:    74.6548   MPKI: 212.94
L0D PREFETCH  REQUESTED:          0  ISSUED:          0  USEFUL:          0  USELESS:          0
L0D USEFUL LOAD PREFETCHES:          0 PREFETCH ISSUED TO LOWER LEVEL:          0  ACCURACY: -nan
L0D TIMELY PREFETCHES:          0 LATE PREFETCHES: 0 DROPPED PREFETCHES: 0
L0D COMMIT LATE PREFETCHES: 0 NORMAL LATE: 0 MISSED OPPORTUNITY: 0 UNCOVERED: 0
L0D PREFETCHES SAME FILL-ORIGIN LEVEL: 0 DIFFERENT FILL-ORIGIN LEVEL: 0
L0D AVERAGE MISS LATENCY: 105.232 cycles
L0D AVERAGE MISS LATENCY LOAD: 105.232 cycles
L0D AVERAGE MISS LATENCY PREFETCH: -nan cycles
L0D AVERAGE MSHR OCCUPANCY: 4.60941
L0D MSHR FULL: 0.274036
L0D RQ	ACCESS:   83200627	FORWARD:          0	MERGED:   13636066	TO_CACHE:   69564561
L0D WQ	ACCESS:   13518702	FORWARD:          0	MERGED:          0	TO_CACHE:   13518702

L1D SPEC fills:          0  NON-SPEC fills:    3575962
L1D Test counter :          0
L1D Leapfrog:          0
L1D MSHR merge:      30034
L1D TOTAL     ACCESS:  123473009  HIT:   63044682  MISS:   60428327  HIT %:    51.0595  MISS %:    48.9405   MPKI: 302.142
L1D LOAD      TOTAL       ACCESS:   50415867  HIT:   18099877  MISS:   32315990  HIT %:    35.9012  MISS %:    64.0988   MPKI: 161.58
L1D LOAD      NON_SPEC    ACCESS:    7848808  HIT:    4272846  MISS:    3575962  HIT %:    54.4394  MISS %:    45.5606   MPKI: 17.8798
L1D LOAD      SPEC        ACCESS:   42567059  HIT:   13827031  MISS:   28740028  HIT %:    32.4829  MISS %:    67.5171   MPKI: 143.7
L1D RFO       NON_SPEC    ACCESS:    9573432  HIT:    9158533  MISS:     414899  HIT %:    95.6661  MISS %:    4.33386   MPKI: 2.0745
L1D COMMIT LOAD NON_SPEC    ACCESS:   24053462  HIT:   22364430  MISS:    1689032  HIT %:     92.978  MISS %:    7.02199   MPKI: 8.44516
L1D COMMIT WRITE NON_SPEC    ACCESS:   39430248  HIT:   13421842  MISS:   26008406  HIT %:    34.0395  MISS %:    65.9605   MPKI: 130.042
L1D PREFETCH  REQUESTED:          0  ISSUED:          0  USEFUL:          0  USELESS:          0
L1D USEFUL LOAD PREFETCHES:          0 PREFETCH ISSUED TO LOWER LEVEL:          0  ACCURACY: -nan
L1D TIMELY PREFETCHES:          0 LATE PREFETCHES: 0 DROPPED PREFETCHES: 0
L1D COMMIT LATE PREFETCHES: 0 NORMAL LATE: 0 MISSED OPPORTUNITY: 0 UNCOVERED: 32360881
L1D PREFETCHES SAME FILL-ORIGIN LEVEL: 0 DIFFERENT FILL-ORIGIN LEVEL: 0
L1D AVERAGE MISS LATENCY: 87.9226 cycles
L1D AVERAGE MISS LATENCY LOAD: 153.51 cycles
L1D AVERAGE MISS LATENCY PREFETCH: -nan cycles
L1D AVERAGE MSHR OCCUPANCY: 2.83298
L1D MSHR FULL: 1.22872e-05
L1D RQ	ACCESS:   85608760	FORWARD:          0	MERGED:    7925235	TO_CACHE:   74792628
L1D WQ	ACCESS:   53161094	FORWARD:    2890897	MERGED:    2636349	TO_CACHE:   50524745

L1D UNIQUE REGIONS ACCESSED: 0
L1D REGIONS CONFLICTS: 0
L1D Cross Page Prefetch Requests: 0
L1D Same Page Prefetch Requests: 0
L1D ROI Sum of L1D PQ occupancy: 0
L1D PREFETCHES PUSHED FROM L2C: 0
L1I SPEC fills:          0  NON-SPEC fills:          0
L1I Test counter :          0
L1I Leapfrog:          0
L1I MSHR merge:          0
L1I TOTAL     ACCESS:   51633767  HIT:   51633767  MISS:          0  HIT %:        100  MISS %:          0   MPKI: 0
L1I LOAD      TOTAL       ACCESS:   51633767  HIT:   51633767  MISS:          0  HIT %:        100  MISS %:          0   MPKI: 0
L1I LOAD      NON_SPEC    ACCESS:   51633767  HIT:   51633767  MISS:          0  HIT %:        100  MISS %:          0   MPKI: 0
L1I PREFETCH  REQUESTED:          0  ISSUED:          0  USEFUL:          0  USELESS:          0
L1I USEFUL LOAD PREFETCHES:          0 PREFETCH ISSUED TO LOWER LEVEL:          0  ACCURACY: -nan
L1I TIMELY PREFETCHES:          0 LATE PREFETCHES: 0 DROPPED PREFETCHES: 0
L1I COMMIT LATE PREFETCHES: 0 NORMAL LATE: 0 MISSED OPPORTUNITY: 0 UNCOVERED: 0
L1I PREFETCHES SAME FILL-ORIGIN LEVEL: 0 DIFFERENT FILL-ORIGIN LEVEL: 0
L1I AVERAGE MISS LATENCY: -nan cycles
L1I AVERAGE MISS LATENCY LOAD: -nan cycles
L1I AVERAGE MISS LATENCY PREFETCH: -nan cycles
L1I AVERAGE MSHR OCCUPANCY: 0
L1I MSHR FULL: 0
L1I RQ	ACCESS:   70994929	FORWARD:          0	MERGED:   19361162	TO_CACHE:   51633767

BTB SPEC fills:          0  NON-SPEC fills:          0
BTB Test counter :          0
BTB Leapfrog:          0
BTB MSHR merge:          0
BTB TOTAL     ACCESS:   35943478  HIT:   35943446  MISS:         32  HIT %:    99.9999  MISS %: 8.90287e-05   MPKI: 0.00016
BTB BRANCH_DIRECT_JUMP	ACCESS:    8413979  HIT:    8413973  MISS:          6
BTB BRANCH_INDIRECT	ACCESS:          0  HIT:          0  MISS:          0
BTB BRANCH_CONDITIONAL	ACCESS:   27526343  HIT:   27526321  MISS:         22
BTB BRANCH_DIRECT_CALL	ACCESS:       1578  HIT:       1576  MISS:          2
BTB BRANCH_INDIRECT_CALL	ACCESS:          0  HIT:          0  MISS:          0
BTB BRANCH_RETURN	ACCESS:       1578  HIT:       1576  MISS:          2
BTB BRANCH_OTHER ACCESS:          0  HIT:          0  MISS:          0

L2C SPEC fills:          0  NON-SPEC fills:     852404
L2C Test counter :          0
L2C Leapfrog:          0
L2C MSHR merge:    5850299
L2C TOTAL     ACCESS:   90496296  HIT:   37100772  MISS:   53395524  HIT %:     40.997  MISS %:     59.003   MPKI: 266.978
L2C LOAD      TOTAL       ACCESS:   32315986  HIT:   18459501  MISS:   13856485  HIT %:    57.1219  MISS %:    42.8781   MPKI: 69.2824
L2C LOAD      NON_SPEC    ACCESS:    3575962  HIT:    2723558  MISS:     852404  HIT %:    76.1629  MISS %:    23.8371   MPKI: 4.26202
L2C LOAD      SPEC        ACCESS:   28740024  HIT:   15735943  MISS:   13004081  HIT %:    54.7527  MISS %:    45.2473   MPKI: 65.0204
L2C RFO       NON_SPEC    ACCESS:     414899  HIT:      17341  MISS:     397558  HIT %:    4.17957  MISS %:    95.8204   MPKI: 1.98779
L2C PREFETCH  NON_SPEC    ACCESS:   29260955  HIT:      31113  MISS:   29229842  HIT %:   0.106329  MISS %:    99.8937   MPKI: 146.149
L2C WRITEBACK NON_SPEC    ACCESS:     449470  HIT:     449122  MISS:        348  HIT %:    99.9226  MISS %:  0.0774245   MPKI: 0.00174
L2C CLEAN_EVICTION NON_SPEC    ACCESS:   26304639  HIT:   17071855  MISS:    9232784  HIT %:    64.9005  MISS %:    35.0995   MPKI: 46.1639
L2C COMMIT LOAD NON_SPEC    ACCESS:    1689032  HIT:    1015781  MISS:     673251  HIT %:    60.1398  MISS %:    39.8602   MPKI: 3.36626
L2C LOAD TRANSLATION NON_SPEC    ACCESS:      61315  HIT:      56059  MISS:       5256  HIT %:    91.4279  MISS %:    8.57213   MPKI: 0.02628
L2C PREFETCH  REQUESTED:   37912361  ISSUED:   37912361  USEFUL:   17409890  USELESS:   11820384
L2C USEFUL LOAD PREFETCHES:   17409890 PREFETCH ISSUED TO LOWER LEVEL:   35281761  ACCURACY: 49.3453
L2C TIMELY PREFETCHES:   17409890 LATE PREFETCHES: 6051919 DROPPED PREFETCHES: 0
L2C COMMIT LATE PREFETCHES: 4648491 NORMAL LATE: 5991235 MISSED OPPORTUNITY: 524356 UNCOVERED: 2894022
L2C PREFETCHES SAME FILL-ORIGIN LEVEL: 35281761 DIFFERENT FILL-ORIGIN LEVEL: 0
L2C AVERAGE MISS LATENCY: 339.246 cycles
L2C AVERAGE MISS LATENCY LOAD: 334.189 cycles
L2C AVERAGE MISS LATENCY PREFETCH: 450.223 cycles
L2C AVERAGE MSHR OCCUPANCY: 16.0555
L2C MSHR FULL: 0.20382
L2C RQ	ACCESS:   34481235	FORWARD:          0	MERGED:          0	TO_CACHE:   34481231
L2C WQ	ACCESS:   26754124	FORWARD:          4	MERGED:         14	TO_CACHE:   26754110
L2C PQ	ACCESS:   37912361	FORWARD:          0	MERGED:         53	TO_CACHE:   37912308

L2C Instructions Evicting Data 0
L2C Translations Evicting Data 5256
L2C Data Evicting Data 31148866
L2C Instructions Evicting Instructions 0
L2C Translations Evicting Instructions 0
L2C Data Evicting Instructions 0
L2C Instructions Evicting Translations 0
L2C Translations Evicting Translations 0
L2C Data Evicting Translations 4189
L2C Dense regions hint from L2: 0
PSCL5 SPEC fills:          0  NON-SPEC fills:          0
PSCL5 Test counter :          0
PSCL5 Leapfrog:          0
PSCL5 MSHR merge:          0
PSCL5 TOTAL     ACCESS:          0  HIT:          0  MISS:          0  HIT %:       -nan  MISS %:       -nan   MPKI: 0
PSCL5 PREFETCH  REQUESTED:          0  ISSUED:          0  USEFUL:          0  USELESS:          0
PSCL5 USEFUL LOAD PREFETCHES:          0 PREFETCH ISSUED TO LOWER LEVEL:          0  ACCURACY: -nan
PSCL5 TIMELY PREFETCHES:          0 LATE PREFETCHES: 0 DROPPED PREFETCHES: 0
PSCL5 COMMIT LATE PREFETCHES: 0 NORMAL LATE: 0 MISSED OPPORTUNITY: 0 UNCOVERED: 0
PSCL5 PREFETCHES SAME FILL-ORIGIN LEVEL: 0 DIFFERENT FILL-ORIGIN LEVEL: 0

PSCL4 SPEC fills:          0  NON-SPEC fills:          0
PSCL4 Test counter :          0
PSCL4 Leapfrog:          0
PSCL4 MSHR merge:          0
PSCL4 TOTAL     ACCESS:          0  HIT:          0  MISS:          0  HIT %:       -nan  MISS %:       -nan   MPKI: 0
PSCL4 PREFETCH  REQUESTED:          0  ISSUED:          0  USEFUL:          0  USELESS:          0
PSCL4 USEFUL LOAD PREFETCHES:          0 PREFETCH ISSUED TO LOWER LEVEL:          0  ACCURACY: -nan
PSCL4 TIMELY PREFETCHES:          0 LATE PREFETCHES: 0 DROPPED PREFETCHES: 0
PSCL4 COMMIT LATE PREFETCHES: 0 NORMAL LATE: 0 MISSED OPPORTUNITY: 0 UNCOVERED: 0
PSCL4 PREFETCHES SAME FILL-ORIGIN LEVEL: 0 DIFFERENT FILL-ORIGIN LEVEL: 0

PSCL3 SPEC fills:          0  NON-SPEC fills:          0
PSCL3 Test counter :          0
PSCL3 Leapfrog:          0
PSCL3 MSHR merge:          0
PSCL3 TOTAL     ACCESS:          0  HIT:          0  MISS:          0  HIT %:       -nan  MISS %:       -nan   MPKI: 0
PSCL3 PREFETCH  REQUESTED:          0  ISSUED:          0  USEFUL:          0  USELESS:          0
PSCL3 USEFUL LOAD PREFETCHES:          0 PREFETCH ISSUED TO LOWER LEVEL:          0  ACCURACY: -nan
PSCL3 TIMELY PREFETCHES:          0 LATE PREFETCHES: 0 DROPPED PREFETCHES: 0
PSCL3 COMMIT LATE PREFETCHES: 0 NORMAL LATE: 0 MISSED OPPORTUNITY: 0 UNCOVERED: 0
PSCL3 PREFETCHES SAME FILL-ORIGIN LEVEL: 0 DIFFERENT FILL-ORIGIN LEVEL: 0

PSCL2 SPEC fills:          0  NON-SPEC fills:          0
PSCL2 Test counter :          0
PSCL2 Leapfrog:          0
PSCL2 MSHR merge:          0
PSCL2 TOTAL     ACCESS:          0  HIT:          0  MISS:          0  HIT %:       -nan  MISS %:       -nan   MPKI: 0
PSCL2 PREFETCH  REQUESTED:          0  ISSUED:          0  USEFUL:          0  USELESS:          0
PSCL2 USEFUL LOAD PREFETCHES:          0 PREFETCH ISSUED TO LOWER LEVEL:          0  ACCURACY: -nan
PSCL2 TIMELY PREFETCHES:          0 LATE PREFETCHES: 0 DROPPED PREFETCHES: 0
PSCL2 COMMIT LATE PREFETCHES: 0 NORMAL LATE: 0 MISSED OPPORTUNITY: 0 UNCOVERED: 0
PSCL2 PREFETCHES SAME FILL-ORIGIN LEVEL: 0 DIFFERENT FILL-ORIGIN LEVEL: 0

LLC SPEC fills:          0  NON-SPEC fills:     204799
LLC Test counter :          0
LLC Leapfrog:          0
LLC MSHR merge:          0
LLC TOTAL     ACCESS:   70912819  HIT:   23405597  MISS:   47507222  HIT %:    33.0062  MISS %:    66.9938   MPKI: 237.536
LLC LOAD      TOTAL       ACCESS:    8006186  HIT:     481537  MISS:    7524649  HIT %:    6.01456  MISS %:    93.9854   MPKI: 37.6232
LLC LOAD      NON_SPEC    ACCESS:     222302  HIT:      17503  MISS:     204799  HIT %:    7.87352  MISS %:    92.1265   MPKI: 1.02399
LLC LOAD      SPEC        ACCESS:    7783884  HIT:     464034  MISS:    7319850  HIT %:    5.96147  MISS %:    94.0385   MPKI: 36.5992
LLC RFO       NON_SPEC    ACCESS:     397110  HIT:        100  MISS:     397010  HIT %:  0.0251819  MISS %:    99.9748   MPKI: 1.98505
LLC PREFETCH  NON_SPEC    ACCESS:   35281554  HIT:     144162  MISS:   35137392  HIT %:   0.408604  MISS %:    99.5914   MPKI: 175.687
LLC WRITEBACK NON_SPEC    ACCESS:     448446  HIT:     448079  MISS:        367  HIT %:    99.9182  MISS %:  0.0818382   MPKI: 0.001835
LLC CLEAN_EVICTION NON_SPEC    ACCESS:   26302188  HIT:   22056213  MISS:    4245975  HIT %:     83.857  MISS %:     16.143   MPKI: 21.2299
LLC COMMIT LOAD NON_SPEC    ACCESS:     472079  HIT:     275003  MISS:     197076  HIT %:    58.2536  MISS %:    41.7464   MPKI: 0.98538
LLC LOAD TRANSLATION NON_SPEC    ACCESS:       5256  HIT:        503  MISS:       4753  HIT %:    9.57002  MISS %:      90.43   MPKI: 0.023765
LLC PREFETCH  REQUESTED:          0  ISSUED:          0  USEFUL:     412953  USELESS:   34724783
LLC USEFUL LOAD PREFETCHES:     412953 PREFETCH ISSUED TO LOWER LEVEL:   35137392  ACCURACY: 1.17525
LLC TIMELY PREFETCHES:     412953 LATE PREFETCHES: 0 DROPPED PREFETCHES: 0
LLC COMMIT LATE PREFETCHES: 0 NORMAL LATE: 0 MISSED OPPORTUNITY: 0 UNCOVERED: 0
LLC PREFETCHES SAME FILL-ORIGIN LEVEL: 0 DIFFERENT FILL-ORIGIN LEVEL: 0
LLC AVERAGE MISS LATENCY: 374.603 cycles
LLC AVERAGE MISS LATENCY LOAD: 367.589 cycles
LLC AVERAGE MISS LATENCY PREFETCH: 420.553 cycles
LLC AVERAGE MSHR OCCUPANCY: 10.2518
LLC MSHR FULL: 0
LLC RQ	ACCESS:    8880630	FORWARD:          0	MERGED:          0	TO_CACHE:    8880630
LLC WQ	ACCESS:   26750634	FORWARD:        207	MERGED:          0	TO_CACHE:   26750634
LLC PQ	ACCESS:   35281761	FORWARD:          0	MERGED:          0	TO_CACHE:   35281554

LLC Dense regions hint to LLC: 0

RAW hits: 8332361
Loads Generated: 91532986
Loads sent to L1D: 83200627
Stores Generated: 13518704
Stores sent to L1D: 13518702
Major fault: 0 Minor fault: 17320
Allocated PAGES: 17320
Total Load insts: 103499092
Total Non-spec loads: 9160751
Percentage of speculative loads: 91.149

LeapFrogging counter: 13482000
Commit hits: 39642392 miss: 35162864
Commit hit %: 52.9941 miss %: 47.0059
Commits not translated: 0
Loads retired: 32315966
Stores retired: 13518702
Cache fills: 32315990
L1D response latency: 153.51 cycles
Load retirement latency: 400.294 cycles
OOO test counter: 0
Discarded buffer inserts: 39642392 hits: 538424 hit %: 1.3582
Filter prediction accuracy: -nan
[Bingo] PHT Access: 2626868
[Bingo] PHT Hit PC+Addr: 103353
[Bingo] PHT Hit PC+Offs: 2482448
[Bingo] PHT Miss: 41067
[Bingo] Prefetch PC+Addr: 0
[Bingo] Prefetch PC+Offs: 0
[Bingo] Useful PC+Addr: 0
[Bingo] Useful PC+Offs: 0
[Bingo] Useless PC+Addr: 0
[Bingo] Useless PC+Offs: 0
[Bingo] L1 Prefetch per Region: 0
[Bingo] L2 Prefetch per Region: 17.8191
[Bingo] L3 Prefetch per Region: 0
[Bingo] No Prefetch per Region: 14.1809
[Bingo] Number of Voters Mean: 15.6672
[Bingo] Number of Voters SD: 7.12809
PHT read accesses: 41222773
PHT write accesses: 2498034
AT read accesses: 32143045
AT write accesses: 32143022
FT read accesses: 7711099
FT write accesses: 2626868
PS read accesses: 5376672
PS write accesses: 2585801
PHT tag read accesses: 119629353
PHT tag write accesses: 2601387
AT tag read accesses: 1962249203
AT tag write accesses: 34641056
FT tag read accesses: 1525511160
FT tag write accesses: 7795850
PS tag read accesses: 620499612
PS tag write accesses: 7957555
[Bingo] PHT Access: 1593443
[Bingo] PHT Hit PC+Addr: 26814
[Bingo] PHT Hit PC+Offs: 1563197
[Bingo] PHT Miss: 3432
[Bingo] Prefetch PC+Addr: 0
[Bingo] Prefetch PC+Offs: 0
[Bingo] Useful PC+Addr: 0
[Bingo] Useful PC+Offs: 0
[Bingo] Useless PC+Addr: 0
[Bingo] Useless PC+Offs: 0
[Bingo] L1 Prefetch per Region: 0
[Bingo] L2 Prefetch per Region: 24.9003
[Bingo] L3 Prefetch per Region: 0
[Bingo] No Prefetch per Region: 7.09965
[Bingo] Number of Voters Mean: 15.9853
[Bingo] Number of Voters SD: 7.87335
PHT read accesses: 25169273
PHT write accesses: 1582775
AT read accesses: 80803227
AT write accesses: 82362226
FT read accesses: 23079144
FT write accesses: 1593443
PS read accesses: 7306951
PS write accesses: 1590011
PHT tag read accesses: 75469193
PHT tag write accesses: 1609589
AT tag read accesses: 2186582809
AT tag write accesses: 82386002
FT tag read accesses: 896659790
FT tag write accesses: 13929737
PS tag read accesses: 1527035830
PS tag write accesses: 8896727

DRAM Statistics
 CHANNEL 0
 RQ ROW_BUFFER_HIT:   22159174  ROW_BUFFER_MISS:   21101045
 DBUS_CONGESTED:       4649
 WQ ROW_BUFFER_HIT:    5868435  ROW_BUFFER_MISS:   20749472  FULL:     119601

 AVG_CONGESTED_CYCLE: 4
 All warmup complete: 2
Channel 0 Bank busy for read cycles: 0
Channel 0 Bank busy for write cycles: 0
Channel 0
Rank 0
0banks busy for read cycles: 30309775
0banks busy for write cycles: 29825
1banks busy for read cycles: 51038431
1banks busy for write cycles: 5855484
2banks busy for read cycles: 45066471
2banks busy for write cycles: 4867502
3banks busy for read cycles: 40852091
3banks busy for write cycles: 4638197
4banks busy for read cycles: 39019068
4banks busy for write cycles: 4656361
5banks busy for read cycles: 48465897
5banks busy for write cycles: 4861022
6banks busy for read cycles: 68670201
6banks busy for write cycles: 5942117
7banks busy for read cycles: 123891622
7banks busy for write cycles: 41276861
8banks busy for read cycles: 329180324
8banks busy for write cycles: 535466363

CPU 0 Branch Prediction Accuracy: 98.8241% MPKI: 2.1554 Average ROB Occupancy at Mispredict: 68.1304
Branch types
NOT_BRANCH: 163339845 81.6699%
BRANCH_DIRECT_JUMP: 8413979 4.20699%
BRANCH_INDIRECT: 0 0%
BRANCH_CONDITIONAL: 28243020 14.1215%
BRANCH_DIRECT_CALL: 1578 0.000789%
BRANCH_INDIRECT_CALL: 0 0%
BRANCH_RETURN: 1578 0.000789%
BRANCH_OTHER: 0 0%

DRAM PAGES: 1048576
Allocated PAGES: 17320
