
*** ChampSim Multicore Out-of-Order Simulator ***

Warmup Instructions: 50000000
Simulation Instructions: 200000000
Number of CPUs: 1
LLC sets: 2048
LLC ways: 16
L0D sets: 16
L0D ways: 2
ROB size: 352
LQ size: 128
SQ size: 72
Secure Berti: OFF
Berti: OFF
Berti Fill: OFF
On commit prefetching: ON
Hit-based filter: OFF
Time-guarding: ON
Free-slotting: ON
Leap-frogging: ON
Train prefetcher on L0D bypass: OFF
No translation penalty for prefetchers: OFF
Prefetch to L0D only: OFF
Prefetch to L1D only: OFF
Clean evictions: ON
Commit loads: ON
Commit write: ON
Fill commit loads to L2C, LLC: ON
DRAM IO FREQUENCY: 6400
ROB SIZE: 352
Off-chip DRAM Size: 4096 MB Channels: 1 Width: 64-bit Data Rate: 6400 MT/s
CPU 0 runs /home/sumon/secure_berti/GhostMinion/../../traces/spec/605.mcf_s-782B.champsimtrace.xz
.xz
BTB has LRU replacement policy
ITLB has LRU replacement policy
DTLB has LRU replacement policy
STLB has LRU replacement policy
L1I has LRU replacement policy
L0D has LRU replacement policy
Bingo PHT WAYS: 16 and PHT_SIZE: 16384
L1D has LRU replacement policy
Bingo PHT WAYS: 16 and PHT_SIZE: 16384
L2C has LRU replacement policy
LLC has LRU replacement policy
Heartbeat CPU 0 instructions: 10000001 cycles: 4904407 heartbeat IPC: 2.03898 cumulative IPC: 2.03898 (Simulation time: 0 hr 8 min 20 sec) 
Heartbeat CPU 0 instructions: 20000000 cycles: 9619309 heartbeat IPC: 2.12093 cumulative IPC: 2.07915 (Simulation time: 0 hr 19 min 22 sec) 
Heartbeat CPU 0 instructions: 30000000 cycles: 14327936 heartbeat IPC: 2.12376 cumulative IPC: 2.09381 (Simulation time: 0 hr 30 min 54 sec) 
Heartbeat CPU 0 instructions: 40000002 cycles: 18981940 heartbeat IPC: 2.14869 cumulative IPC: 2.10727 (Simulation time: 0 hr 41 min 54 sec) 
Heartbeat CPU 0 instructions: 50000000 cycles: 23740642 heartbeat IPC: 2.10141 cumulative IPC: 2.10609 (Simulation time: 0 hr 49 min 31 sec) 

Warmup complete CPU 0 instructions: 50000001 cycles: 23740643 (Simulation time: 0 hr 49 min 31 sec) 

Heartbeat CPU 0 instructions: 60000000 cycles: 84137738 heartbeat IPC: 0.165571 cumulative IPC: 0.165571 (Simulation time: 0 hr 58 min 5 sec) 
Heartbeat CPU 0 instructions: 70000002 cycles: 143507336 heartbeat IPC: 0.168436 cumulative IPC: 0.166991 (Simulation time: 1 hr 6 min 30 sec) 
Heartbeat CPU 0 instructions: 80000002 cycles: 202704925 heartbeat IPC: 0.168926 cumulative IPC: 0.167631 (Simulation time: 1 hr 14 min 52 sec) 
Heartbeat CPU 0 instructions: 90000000 cycles: 265654889 heartbeat IPC: 0.158856 cumulative IPC: 0.165348 (Simulation time: 1 hr 23 min 30 sec) 
Heartbeat CPU 0 instructions: 100000001 cycles: 328984431 heartbeat IPC: 0.157904 cumulative IPC: 0.163804 (Simulation time: 1 hr 31 min 46 sec) 
Heartbeat CPU 0 instructions: 110000000 cycles: 393515513 heartbeat IPC: 0.154964 cumulative IPC: 0.162261 (Simulation time: 1 hr 40 min 5 sec) 
Heartbeat CPU 0 instructions: 120000000 cycles: 455043152 heartbeat IPC: 0.162529 cumulative IPC: 0.162299 (Simulation time: 1 hr 48 min 12 sec) 
Heartbeat CPU 0 instructions: 130000001 cycles: 517595449 heartbeat IPC: 0.159866 cumulative IPC: 0.161991 (Simulation time: 1 hr 56 min 56 sec) 
Heartbeat CPU 0 instructions: 140000001 cycles: 578097942 heartbeat IPC: 0.165282 cumulative IPC: 0.16235 (Simulation time: 2 hr 5 min 13 sec) 
Heartbeat CPU 0 instructions: 150000000 cycles: 639151748 heartbeat IPC: 0.16379 cumulative IPC: 0.162493 (Simulation time: 2 hr 13 min 31 sec) 
Heartbeat CPU 0 instructions: 160000002 cycles: 701360346 heartbeat IPC: 0.16075 cumulative IPC: 0.162333 (Simulation time: 2 hr 22 min 6 sec) 
Heartbeat CPU 0 instructions: 170000001 cycles: 765323632 heartbeat IPC: 0.15634 cumulative IPC: 0.161816 (Simulation time: 2 hr 30 min 56 sec) 
Heartbeat CPU 0 instructions: 180000002 cycles: 828342745 heartbeat IPC: 0.158682 cumulative IPC: 0.161571 (Simulation time: 2 hr 39 min 41 sec) 
Heartbeat CPU 0 instructions: 190000003 cycles: 896549673 heartbeat IPC: 0.146613 cumulative IPC: 0.160402 (Simulation time: 2 hr 48 min 38 sec) 
Heartbeat CPU 0 instructions: 200000002 cycles: 964387881 heartbeat IPC: 0.14741 cumulative IPC: 0.159465 (Simulation time: 2 hr 57 min 41 sec) 
Heartbeat CPU 0 instructions: 210000003 cycles: 1031328694 heartbeat IPC: 0.149386 cumulative IPC: 0.158795 (Simulation time: 3 hr 6 min 51 sec) 
Heartbeat CPU 0 instructions: 220000000 cycles: 1096752854 heartbeat IPC: 0.152849 cumulative IPC: 0.158432 (Simulation time: 3 hr 15 min 51 sec) 
Heartbeat CPU 0 instructions: 230000001 cycles: 1162173897 heartbeat IPC: 0.152856 cumulative IPC: 0.158112 (Simulation time: 3 hr 24 min 59 sec) 
Heartbeat CPU 0 instructions: 240000003 cycles: 1226295213 heartbeat IPC: 0.155954 cumulative IPC: 0.157997 (Simulation time: 3 hr 33 min 52 sec) 
Heartbeat CPU 0 instructions: 250000002 cycles: 1289280474 heartbeat IPC: 0.158767 cumulative IPC: 0.158035 (Simulation time: 3 hr 42 min 35 sec) 
Finished CPU 0 instructions: 200000001 cycles: 1265539831 cumulative IPC: 0.158035 (Simulation time: 3 hr 42 min 35 sec) 
 Instruction ID: 250000129

ChampSim completed all CPUs

Region of Interest Statistics

CPU 0 cumulative IPC: 0.158035 instructions: 200000001 cycles: 1265539831
ITLB SPEC fills:          0  NON-SPEC fills:          0
ITLB Test counter :          0
ITLB Leapfrog:          0
ITLB MSHR merge:          0
ITLB TOTAL     ACCESS:   32647967  HIT:   32647967  MISS:          0  HIT %:        100  MISS %:          0   MPKI: 0
ITLB LOAD TRANSLATION NON_SPEC    ACCESS:   32647967  HIT:   32647967  MISS:          0  HIT %:        100  MISS %:          0   MPKI: 0
ITLB PREFETCH  REQUESTED:          0  ISSUED:          0  USEFUL:          0  USELESS:          0
ITLB USEFUL LOAD PREFETCHES:          0 PREFETCH ISSUED TO LOWER LEVEL:          0  ACCURACY: -nan
ITLB TIMELY PREFETCHES:          0 LATE PREFETCHES: 0 DROPPED PREFETCHES: 0
ITLB COMMIT LATE PREFETCHES: 0 NORMAL LATE: 0 MISSED OPPORTUNITY: 0 UNCOVERED: 0
ITLB PREFETCHES SAME FILL-ORIGIN LEVEL: 0 DIFFERENT FILL-ORIGIN LEVEL: 0
ITLB AVERAGE MISS LATENCY: -nan cycles
ITLB AVERAGE MISS LATENCY LOAD: -nan cycles
ITLB AVERAGE MISS LATENCY PREFETCH: -nan cycles
ITLB AVERAGE MSHR OCCUPANCY: 0
ITLB MSHR FULL: 0
ITLB RQ	ACCESS:   33007428	FORWARD:          0	MERGED:     359461	TO_CACHE:   32647967

DTLB SPEC fills:          0  NON-SPEC fills:          0
DTLB Test counter :          0
DTLB Leapfrog:          0
DTLB MSHR merge:          0
DTLB TOTAL     ACCESS:   46115610  HIT:   28493825  MISS:   17621785  HIT %:    61.7878  MISS %:    38.2122   MPKI: 88.1089
DTLB LOAD TRANSLATION NON_SPEC    ACCESS:   46115610  HIT:   28493825  MISS:   17621785  HIT %:    61.7878  MISS %:    38.2122   MPKI: 88.1089
DTLB PREFETCH  REQUESTED:          0  ISSUED:          0  USEFUL:          0  USELESS:          0
DTLB USEFUL LOAD PREFETCHES:          0 PREFETCH ISSUED TO LOWER LEVEL:          0  ACCURACY: -nan
DTLB TIMELY PREFETCHES:          0 LATE PREFETCHES: 0 DROPPED PREFETCHES: 0
DTLB COMMIT LATE PREFETCHES: 0 NORMAL LATE: 0 MISSED OPPORTUNITY: 0 UNCOVERED: 0
DTLB PREFETCHES SAME FILL-ORIGIN LEVEL: 0 DIFFERENT FILL-ORIGIN LEVEL: 0
DTLB AVERAGE MISS LATENCY: 11.8407 cycles
DTLB AVERAGE MISS LATENCY LOAD: -nan cycles
DTLB AVERAGE MISS LATENCY PREFETCH: -nan cycles
DTLB AVERAGE MSHR OCCUPANCY: 0.345564
DTLB MSHR FULL: 1.18139e-06
DTLB RQ	ACCESS:   51829038	FORWARD:          0	MERGED:    5273723	TO_CACHE:   46555315

STLB SPEC fills:          0  NON-SPEC fills:          0
STLB Test counter :          0
STLB Leapfrog:          0
STLB MSHR merge:          0
STLB TOTAL     ACCESS:   17621785  HIT:   17383991  MISS:     237794  HIT %:    98.6506  MISS %:    1.34943   MPKI: 1.18897
STLB LOAD TRANSLATION NON_SPEC    ACCESS:   17621785  HIT:   17383991  MISS:     237794  HIT %:    98.6506  MISS %:    1.34943   MPKI: 1.18897
STLB PREFETCH  REQUESTED:          0  ISSUED:          0  USEFUL:          0  USELESS:          0
STLB USEFUL LOAD PREFETCHES:          0 PREFETCH ISSUED TO LOWER LEVEL:          0  ACCURACY: -nan
STLB TIMELY PREFETCHES:          0 LATE PREFETCHES: 0 DROPPED PREFETCHES: 0
STLB COMMIT LATE PREFETCHES: 0 NORMAL LATE: 0 MISSED OPPORTUNITY: 0 UNCOVERED: 0
STLB PREFETCHES SAME FILL-ORIGIN LEVEL: 0 DIFFERENT FILL-ORIGIN LEVEL: 0
STLB AVERAGE MISS LATENCY: 201.097 cycles
STLB AVERAGE MISS LATENCY LOAD: -nan cycles
STLB AVERAGE MISS LATENCY PREFETCH: -nan cycles
STLB AVERAGE MSHR OCCUPANCY: 0.028657
STLB MSHR FULL: 0
STLB RQ	ACCESS:   17621785	FORWARD:          0	MERGED:          0	TO_CACHE:   17621785

STLB Hit, L1D data hit: 0
STLB Hit, L2C data hit: 0
STLB Hit, LLC data hit: 0
STLB Hit, LLC data miss: 0
STLB STLB hints to L2: 0
L0D SPEC fills:   30338957  NON-SPEC fills:          0
L0D TimeGuard Request with older TS:    1142459 Restricted eviction:     687942 read:     123572
L0D Test counter :          0
L0D Leapfrog:          0
L0D MSHR merge:    5770924
L0D TOTAL     ACCESS:   42479670  HIT:    1676213  MISS:   40803457  HIT %:    3.94592  MISS %:    96.0541   MPKI: 204.017
L0D LOAD      TOTAL       ACCESS:   42479670  HIT:    1676213  MISS:   40803457  HIT %:    3.94592  MISS %:    96.0541   MPKI: 204.017
L0D LOAD      NON_SPEC    ACCESS:   10038277  HIT:     261715  MISS:    9776562  HIT %:    2.60717  MISS %:    97.3928   MPKI: 48.8828
L0D LOAD      SPEC        ACCESS:   32441393  HIT:    1414498  MISS:   31026895  HIT %:    4.36016  MISS %:    95.6398   MPKI: 155.134
L0D PREFETCH  REQUESTED:          0  ISSUED:          0  USEFUL:          0  USELESS:          0
L0D USEFUL LOAD PREFETCHES:          0 PREFETCH ISSUED TO LOWER LEVEL:          0  ACCURACY: -nan
L0D TIMELY PREFETCHES:          0 LATE PREFETCHES: 0 DROPPED PREFETCHES: 0
L0D COMMIT LATE PREFETCHES: 0 NORMAL LATE: 0 MISSED OPPORTUNITY: 0 UNCOVERED: 0
L0D PREFETCHES SAME FILL-ORIGIN LEVEL: 0 DIFFERENT FILL-ORIGIN LEVEL: 0
L0D AVERAGE MISS LATENCY: 64.3522 cycles
L0D AVERAGE MISS LATENCY LOAD: 64.3522 cycles
L0D AVERAGE MISS LATENCY PREFETCH: -nan cycles
L0D AVERAGE MSHR OCCUPANCY: 4.05722
L0D MSHR FULL: 0.322276
L0D RQ	ACCESS:   71286778	FORWARD:          0	MERGED:   23036189	TO_CACHE:   48250589
L0D WQ	ACCESS:    3578449	FORWARD:          0	MERGED:          0	TO_CACHE:    3578449

L1D SPEC fills:          0  NON-SPEC fills:    7272972
L1D Test counter :          0
L1D Leapfrog:          0
L1D MSHR merge:      11223
L1D TOTAL     ACCESS:   91292509  HIT:   36638033  MISS:   54654476  HIT %:    40.1326  MISS %:    59.8674   MPKI: 273.272
L1D LOAD      TOTAL       ACCESS:   40792234  HIT:    9844983  MISS:   30947251  HIT %:    24.1345  MISS %:    75.8655   MPKI: 154.736
L1D LOAD      NON_SPEC    ACCESS:    9773856  HIT:    2500884  MISS:    7272972  HIT %:    25.5875  MISS %:    74.4125   MPKI: 36.3649
L1D LOAD      SPEC        ACCESS:   31018378  HIT:    7344099  MISS:   23674279  HIT %:    23.6766  MISS %:    76.3234   MPKI: 118.371
L1D RFO       NON_SPEC    ACCESS:    3081611  HIT:    3021095  MISS:      60516  HIT %:    98.0362  MISS %:    1.96378   MPKI: 0.30258
L1D COMMIT LOAD NON_SPEC    ACCESS:   17836564  HIT:   16613861  MISS:    1222703  HIT %:     93.145  MISS %:    6.85504   MPKI: 6.11351
L1D COMMIT WRITE NON_SPEC    ACCESS:   29582100  HIT:    7158094  MISS:   22424006  HIT %:    24.1974  MISS %:    75.8026   MPKI: 112.12
L1D PREFETCH  REQUESTED:          0  ISSUED:          0  USEFUL:          0  USELESS:          0
L1D USEFUL LOAD PREFETCHES:          0 PREFETCH ISSUED TO LOWER LEVEL:          0  ACCURACY: -nan
L1D TIMELY PREFETCHES:          0 LATE PREFETCHES: 0 DROPPED PREFETCHES: 0
L1D COMMIT LATE PREFETCHES: 0 NORMAL LATE: 0 MISSED OPPORTUNITY: 0 UNCOVERED: 30948869
L1D PREFETCHES SAME FILL-ORIGIN LEVEL: 0 DIFFERENT FILL-ORIGIN LEVEL: 0
L1D AVERAGE MISS LATENCY: 43.9845 cycles
L1D AVERAGE MISS LATENCY LOAD: 75.1625 cycles
L1D AVERAGE MISS LATENCY PREFETCH: -nan cycles
L1D AVERAGE MSHR OCCUPANCY: 1.74933
L1D MSHR FULL: 1.6187e-06
L1D RQ	ACCESS:   72426415	FORWARD:          0	MERGED:   13589190	TO_CACHE:   58688824
L1D WQ	ACCESS:   33175915	FORWARD:     148401	MERGED:     389047	TO_CACHE:   32786868

L1D UNIQUE REGIONS ACCESSED: 0
L1D REGIONS CONFLICTS: 0
L1D Cross Page Prefetch Requests: 0
L1D Same Page Prefetch Requests: 0
L1D ROI Sum of L1D PQ occupancy: 0
L1D PREFETCHES PUSHED FROM L2C: 0
L1I SPEC fills:          0  NON-SPEC fills:          0
L1I Test counter :          0
L1I Leapfrog:          0
L1I MSHR merge:          0
L1I TOTAL     ACCESS:   33007427  HIT:   33007427  MISS:          0  HIT %:        100  MISS %:          0   MPKI: 0
L1I LOAD      TOTAL       ACCESS:   33007427  HIT:   33007427  MISS:          0  HIT %:        100  MISS %:          0   MPKI: 0
L1I LOAD      NON_SPEC    ACCESS:   33007427  HIT:   33007427  MISS:          0  HIT %:        100  MISS %:          0   MPKI: 0
L1I PREFETCH  REQUESTED:          0  ISSUED:          0  USEFUL:          0  USELESS:          0
L1I USEFUL LOAD PREFETCHES:          0 PREFETCH ISSUED TO LOWER LEVEL:          0  ACCURACY: -nan
L1I TIMELY PREFETCHES:          0 LATE PREFETCHES: 0 DROPPED PREFETCHES: 0
L1I COMMIT LATE PREFETCHES: 0 NORMAL LATE: 0 MISSED OPPORTUNITY: 0 UNCOVERED: 0
L1I PREFETCHES SAME FILL-ORIGIN LEVEL: 0 DIFFERENT FILL-ORIGIN LEVEL: 0
L1I AVERAGE MISS LATENCY: -nan cycles
L1I AVERAGE MISS LATENCY LOAD: -nan cycles
L1I AVERAGE MISS LATENCY PREFETCH: -nan cycles
L1I AVERAGE MSHR OCCUPANCY: 0
L1I MSHR FULL: 0
L1I RQ	ACCESS:   43472505	FORWARD:          0	MERGED:   10465077	TO_CACHE:   33007428

BTB SPEC fills:          0  NON-SPEC fills:          0
BTB Test counter :          0
BTB Leapfrog:          0
BTB MSHR merge:          0
BTB TOTAL     ACCESS:   60210745  HIT:   60015900  MISS:     194845  HIT %:    99.6764  MISS %:   0.323605   MPKI: 0.974225
BTB BRANCH_DIRECT_JUMP	ACCESS:    7722186  HIT:    7722149  MISS:         37
BTB BRANCH_INDIRECT	ACCESS:          0  HIT:          0  MISS:          0
BTB BRANCH_CONDITIONAL	ACCESS:   51083203  HIT:   51083121  MISS:         82
BTB BRANCH_DIRECT_CALL	ACCESS:     648845  HIT:     648827  MISS:         18
BTB BRANCH_INDIRECT_CALL	ACCESS:      53834  HIT:      53826  MISS:          8
BTB BRANCH_RETURN	ACCESS:     702677  HIT:     507977  MISS:     194700
BTB BRANCH_OTHER ACCESS:          0  HIT:          0  MISS:          0

L2C SPEC fills:          0  NON-SPEC fills:    4578069
L2C Test counter :          0
L2C Leapfrog:          0
L2C MSHR merge:     631988
L2C TOTAL     ACCESS:   83601628  HIT:   30294919  MISS:   53306709  HIT %:    36.2372  MISS %:    63.7628   MPKI: 266.534
L2C LOAD      TOTAL       ACCESS:   30946997  HIT:   13196567  MISS:   17750430  HIT %:    42.6425  MISS %:    57.3575   MPKI: 88.7521
L2C LOAD      NON_SPEC    ACCESS:    7272963  HIT:    2694894  MISS:    4578069  HIT %:    37.0536  MISS %:    62.9464   MPKI: 22.8903
L2C LOAD      SPEC        ACCESS:   23674034  HIT:   10501673  MISS:   13172361  HIT %:    44.3595  MISS %:    55.6405   MPKI: 65.8618
L2C RFO       NON_SPEC    ACCESS:      60516  HIT:      24256  MISS:      36260  HIT %:     40.082  MISS %:     59.918   MPKI: 0.1813
L2C PREFETCH  NON_SPEC    ACCESS:   27008815  HIT:    3779784  MISS:   23229031  HIT %:    13.9946  MISS %:    86.0054   MPKI: 116.145
L2C WRITEBACK NON_SPEC    ACCESS:     191965  HIT:     191892  MISS:         73  HIT %:     99.962  MISS %:  0.0380278   MPKI: 0.000365
L2C CLEAN_EVICTION NON_SPEC    ACCESS:   22982479  HIT:   11491108  MISS:   11491371  HIT %:    49.9994  MISS %:    50.0006   MPKI: 57.4569
L2C COMMIT LOAD NON_SPEC    ACCESS:    1222329  HIT:     511871  MISS:     710458  HIT %:    41.8767  MISS %:    58.1233   MPKI: 3.55229
L2C LOAD TRANSLATION NON_SPEC    ACCESS:    1188527  HIT:    1099441  MISS:      89086  HIT %:    92.5045  MISS %:     7.4955   MPKI: 0.44543
L2C PREFETCH  REQUESTED:   28287672  ISSUED:   28287672  USEFUL:   10777328  USELESS:   12451731
L2C USEFUL LOAD PREFETCHES:   10777328 PREFETCH ISSUED TO LOWER LEVEL:   23899501  ACCURACY: 45.0944
L2C TIMELY PREFETCHES:   10777328 LATE PREFETCHES: 670470 DROPPED PREFETCHES: 0
L2C COMMIT LATE PREFETCHES: 1475898 NORMAL LATE: 714123 MISSED OPPORTUNITY: 165499 UNCOVERED: 15433391
L2C PREFETCHES SAME FILL-ORIGIN LEVEL: 23899501 DIFFERENT FILL-ORIGIN LEVEL: 0
L2C AVERAGE MISS LATENCY: 117.178 cycles
L2C AVERAGE MISS LATENCY LOAD: 110.256 cycles
L2C AVERAGE MISS LATENCY PREFETCH: 181.53 cycles
L2C AVERAGE MSHR OCCUPANCY: 5.79224
L2C MSHR FULL: 0.0140395
L2C RQ	ACCESS:   33418995	FORWARD:          0	MERGED:          0	TO_CACHE:   33418368
L2C WQ	ACCESS:   23174449	FORWARD:        919	MERGED:          5	TO_CACHE:   23174444
L2C PQ	ACCESS:   28287672	FORWARD:          0	MERGED:         15	TO_CACHE:   28287365

L2C Instructions Evicting Data 0
L2C Translations Evicting Data 88953
L2C Data Evicting Data 28492274
L2C Instructions Evicting Instructions 0
L2C Translations Evicting Instructions 0
L2C Data Evicting Instructions 0
L2C Instructions Evicting Translations 0
L2C Translations Evicting Translations 133
L2C Data Evicting Translations 61544
L2C Dense regions hint from L2: 0
PSCL5 SPEC fills:          0  NON-SPEC fills:          0
PSCL5 Test counter :          0
PSCL5 Leapfrog:          0
PSCL5 MSHR merge:          0
PSCL5 TOTAL     ACCESS:          0  HIT:          0  MISS:          0  HIT %:       -nan  MISS %:       -nan   MPKI: 0
PSCL5 PREFETCH  REQUESTED:          0  ISSUED:          0  USEFUL:          0  USELESS:          0
PSCL5 USEFUL LOAD PREFETCHES:          0 PREFETCH ISSUED TO LOWER LEVEL:          0  ACCURACY: -nan
PSCL5 TIMELY PREFETCHES:          0 LATE PREFETCHES: 0 DROPPED PREFETCHES: 0
PSCL5 COMMIT LATE PREFETCHES: 0 NORMAL LATE: 0 MISSED OPPORTUNITY: 0 UNCOVERED: 0
PSCL5 PREFETCHES SAME FILL-ORIGIN LEVEL: 0 DIFFERENT FILL-ORIGIN LEVEL: 0

PSCL4 SPEC fills:          0  NON-SPEC fills:          0
PSCL4 Test counter :          0
PSCL4 Leapfrog:          0
PSCL4 MSHR merge:          0
PSCL4 TOTAL     ACCESS:          0  HIT:          0  MISS:          0  HIT %:       -nan  MISS %:       -nan   MPKI: 0
PSCL4 PREFETCH  REQUESTED:          0  ISSUED:          0  USEFUL:          0  USELESS:          0
PSCL4 USEFUL LOAD PREFETCHES:          0 PREFETCH ISSUED TO LOWER LEVEL:          0  ACCURACY: -nan
PSCL4 TIMELY PREFETCHES:          0 LATE PREFETCHES: 0 DROPPED PREFETCHES: 0
PSCL4 COMMIT LATE PREFETCHES: 0 NORMAL LATE: 0 MISSED OPPORTUNITY: 0 UNCOVERED: 0
PSCL4 PREFETCHES SAME FILL-ORIGIN LEVEL: 0 DIFFERENT FILL-ORIGIN LEVEL: 0

PSCL3 SPEC fills:          0  NON-SPEC fills:          0
PSCL3 Test counter :          0
PSCL3 Leapfrog:          0
PSCL3 MSHR merge:          0
PSCL3 TOTAL     ACCESS:          0  HIT:          0  MISS:          0  HIT %:       -nan  MISS %:       -nan   MPKI: 0
PSCL3 PREFETCH  REQUESTED:          0  ISSUED:          0  USEFUL:          0  USELESS:          0
PSCL3 USEFUL LOAD PREFETCHES:          0 PREFETCH ISSUED TO LOWER LEVEL:          0  ACCURACY: -nan
PSCL3 TIMELY PREFETCHES:          0 LATE PREFETCHES: 0 DROPPED PREFETCHES: 0
PSCL3 COMMIT LATE PREFETCHES: 0 NORMAL LATE: 0 MISSED OPPORTUNITY: 0 UNCOVERED: 0
PSCL3 PREFETCHES SAME FILL-ORIGIN LEVEL: 0 DIFFERENT FILL-ORIGIN LEVEL: 0

PSCL2 SPEC fills:          0  NON-SPEC fills:          0
PSCL2 Test counter :          0
PSCL2 Leapfrog:          0
PSCL2 MSHR merge:          0
PSCL2 TOTAL     ACCESS:          0  HIT:          0  MISS:          0  HIT %:       -nan  MISS %:       -nan   MPKI: 0
PSCL2 PREFETCH  REQUESTED:          0  ISSUED:          0  USEFUL:          0  USELESS:          0
PSCL2 USEFUL LOAD PREFETCHES:          0 PREFETCH ISSUED TO LOWER LEVEL:          0  ACCURACY: -nan
PSCL2 TIMELY PREFETCHES:          0 LATE PREFETCHES: 0 DROPPED PREFETCHES: 0
PSCL2 COMMIT LATE PREFETCHES: 0 NORMAL LATE: 0 MISSED OPPORTUNITY: 0 UNCOVERED: 0
PSCL2 PREFETCHES SAME FILL-ORIGIN LEVEL: 0 DIFFERENT FILL-ORIGIN LEVEL: 0

LLC SPEC fills:          0  NON-SPEC fills:    1163509
LLC Test counter :          0
LLC Leapfrog:          0
LLC MSHR merge:          0
LLC TOTAL     ACCESS:   63813177  HIT:   39187838  MISS:   24625339  HIT %:    61.4103  MISS %:    38.5897   MPKI: 123.127
LLC LOAD      TOTAL       ACCESS:   17118256  HIT:   10897434  MISS:    6220822  HIT %:    63.6597  MISS %:    36.3403   MPKI: 31.1041
LLC LOAD      NON_SPEC    ACCESS:    4514931  HIT:    3351422  MISS:    1163509  HIT %:    74.2298  MISS %:    25.7702   MPKI: 5.81754
LLC LOAD      SPEC        ACCESS:   12603325  HIT:    7546012  MISS:    5057313  HIT %:    59.8732  MISS %:    40.1268   MPKI: 25.2866
LLC RFO       NON_SPEC    ACCESS:      35159  HIT:      26120  MISS:       9039  HIT %:    74.2911  MISS %:    25.7089   MPKI: 0.045195
LLC PREFETCH  NON_SPEC    ACCESS:   23899308  HIT:   10327086  MISS:   13572222  HIT %:    43.2108  MISS %:    56.7892   MPKI: 67.8611
LLC WRITEBACK NON_SPEC    ACCESS:     183550  HIT:     183308  MISS:        242  HIT %:    99.8682  MISS %:   0.131844   MPKI: 0.00121
LLC CLEAN_EVICTION NON_SPEC    ACCESS:   21814841  HIT:   17161941  MISS:    4652900  HIT %:    78.6709  MISS %:    21.3291   MPKI: 23.2645
LLC COMMIT LOAD NON_SPEC    ACCESS:     672977  HIT:     553917  MISS:     119060  HIT %:    82.3085  MISS %:    17.6915   MPKI: 0.5953
LLC LOAD TRANSLATION NON_SPEC    ACCESS:      89086  HIT:      38032  MISS:      51054  HIT %:    42.6913  MISS %:    57.3087   MPKI: 0.25527
LLC PREFETCH  REQUESTED:          0  ISSUED:          0  USEFUL:     482775  USELESS:   13089625
LLC USEFUL LOAD PREFETCHES:     482775 PREFETCH ISSUED TO LOWER LEVEL:   13572222  ACCURACY: 3.55708
LLC TIMELY PREFETCHES:     482775 LATE PREFETCHES: 0 DROPPED PREFETCHES: 0
LLC COMMIT LATE PREFETCHES: 0 NORMAL LATE: 0 MISSED OPPORTUNITY: 0 UNCOVERED: 0
LLC PREFETCHES SAME FILL-ORIGIN LEVEL: 0 DIFFERENT FILL-ORIGIN LEVEL: 0
LLC AVERAGE MISS LATENCY: 210.068 cycles
LLC AVERAGE MISS LATENCY LOAD: 228.244 cycles
LLC AVERAGE MISS LATENCY PREFETCH: 273.238 cycles
LLC AVERAGE MSHR OCCUPANCY: 4.30155
LLC MSHR FULL: 0
LLC RQ	ACCESS:   17915763	FORWARD:          0	MERGED:          0	TO_CACHE:   17915478
LLC WQ	ACCESS:   21998390	FORWARD:        478	MERGED:          0	TO_CACHE:   21998390
LLC PQ	ACCESS:   23899501	FORWARD:          0	MERGED:          0	TO_CACHE:   23899308

LLC Dense regions hint to LLC: 0

RAW hits: 465724
Loads Generated: 71752504
Loads sent to L1D: 71286778
Stores Generated: 3578449
Stores sent to L1D: 3578449
Major fault: 0 Minor fault: 219750
Allocated PAGES: 219750
Total Load insts: 89112604
Total Non-spec loads: 10631737
Percentage of speculative loads: 88.0693

LeapFrogging counter: 12281232
Commit hits: 29597466 miss: 31622963
Commit hit %: 48.3457 miss %: 51.6543
Commits not translated: 0
Loads retired: 30947251
Stores retired: 3578449
Cache fills: 30947251
L1D response latency: 75.1625 cycles
Load retirement latency: 270.047 cycles
OOO test counter: 0
Discarded buffer inserts: 29597466 hits: 42822 hit %: 0.144681
Filter prediction accuracy: -nan
[Bingo] PHT Access: 17793002
[Bingo] PHT Hit PC+Addr: 2011568
[Bingo] PHT Hit PC+Offs: 15756963
[Bingo] PHT Miss: 24471
[Bingo] Prefetch PC+Addr: 0
[Bingo] Prefetch PC+Offs: 0
[Bingo] Useful PC+Addr: 0
[Bingo] Useful PC+Offs: 0
[Bingo] Useless PC+Addr: 0
[Bingo] Useless PC+Offs: 0
[Bingo] L1 Prefetch per Region: 0
[Bingo] L2 Prefetch per Region: 2.60576
[Bingo] L3 Prefetch per Region: 0
[Bingo] No Prefetch per Region: 29.3942
[Bingo] Number of Voters Mean: 15.93
[Bingo] Number of Voters SD: 7.88639
PHT read accesses: 269303319
PHT write accesses: 1771290
AT read accesses: 14874944
AT write accesses: 14911610
FT read accesses: 6675516
FT write accesses: 17793002
PS read accesses: 35558761
PS write accesses: 17768531
PHT tag read accesses: 317089675
PHT tag write accesses: 3782858
AT tag read accesses: 1876971508
AT tag write accesses: 16646207
FT tag read accesses: 2202782173
FT tag write accesses: 22683608
PS tag read accesses: 1116816171
PS tag write accesses: 53173306
[Bingo] PHT Access: 17856289
[Bingo] PHT Hit PC+Addr: 2232228
[Bingo] PHT Hit PC+Offs: 15607130
[Bingo] PHT Miss: 16931
[Bingo] Prefetch PC+Addr: 0
[Bingo] Prefetch PC+Offs: 0
[Bingo] Useful PC+Addr: 0
[Bingo] Useful PC+Offs: 0
[Bingo] Useless PC+Addr: 0
[Bingo] Useless PC+Offs: 0
[Bingo] L1 Prefetch per Region: 0
[Bingo] L2 Prefetch per Region: 2.62609
[Bingo] L3 Prefetch per Region: 0
[Bingo] No Prefetch per Region: 29.3739
[Bingo] Number of Voters Mean: 15.912
[Bingo] Number of Voters SD: 7.7971
PHT read accesses: 268364884
PHT write accesses: 1587783
AT read accesses: 51758993
AT write accesses: 52425728
FT read accesses: 11574245
FT write accesses: 17856289
PS read accesses: 37630017
PS write accesses: 17839358
PHT tag read accesses: 309263299
PHT tag write accesses: 3820011
AT tag read accesses: 1859172389
AT tag write accesses: 53346771
FT tag read accesses: 1581755767
FT tag write accesses: 24784458
PS tag read accesses: 1779218368
PS tag write accesses: 55178393

DRAM Statistics
 CHANNEL 0
 RQ ROW_BUFFER_HIT:    7261948  ROW_BUFFER_MISS:   12702182
 DBUS_CONGESTED:       3387
 WQ ROW_BUFFER_HIT:    3994600  ROW_BUFFER_MISS:   10438618  FULL:      46015

 AVG_CONGESTED_CYCLE: 4
 All warmup complete: 2
Channel 0 Bank busy for read cycles: 0
Channel 0 Bank busy for write cycles: 0
Channel 0
Rank 0
0banks busy for read cycles: 65136347
0banks busy for write cycles: 89783
1banks busy for read cycles: 288930898
1banks busy for write cycles: 15460986
2banks busy for read cycles: 169776154
2banks busy for write cycles: 13817625
3banks busy for read cycles: 95143818
3banks busy for write cycles: 14363607
4banks busy for read cycles: 54681743
4banks busy for write cycles: 16493109
5banks busy for read cycles: 33761591
5banks busy for write cycles: 21060328
6banks busy for read cycles: 24720546
6banks busy for write cycles: 31748756
7banks busy for read cycles: 33202340
7banks busy for write cycles: 70931975
8banks busy for read cycles: 81895503
8banks busy for write cycles: 234324723

CPU 0 Branch Prediction Accuracy: 96.9705% MPKI: 9.2675 Average ROB Occupancy at Mispredict: 54.481
Branch types
NOT_BRANCH: 138818916 69.4095%
BRANCH_DIRECT_JUMP: 7722186 3.86109%
BRANCH_INDIRECT: 0 0%
BRANCH_CONDITIONAL: 52053293 26.0266%
BRANCH_DIRECT_CALL: 648845 0.324422%
BRANCH_INDIRECT_CALL: 53834 0.026917%
BRANCH_RETURN: 702677 0.351338%
BRANCH_OTHER: 0 0%

DRAM PAGES: 1048576
Allocated PAGES: 219750
