
*** ChampSim Multicore Out-of-Order Simulator ***

Warmup Instructions: 50000000
Simulation Instructions: 200000000
Number of CPUs: 1
LLC sets: 2048
LLC ways: 16
L0D sets: 16
L0D ways: 2
ROB size: 352
LQ size: 128
SQ size: 72
Secure Berti: OFF
Berti: OFF
Berti Fill: OFF
On commit prefetching: ON
Hit-based filter: OFF
Time-guarding: ON
Free-slotting: ON
Leap-frogging: ON
Train prefetcher on L0D bypass: OFF
No translation penalty for prefetchers: OFF
Prefetch to L0D only: OFF
Prefetch to L1D only: OFF
Clean evictions: ON
Commit loads: ON
Commit write: ON
Fill commit loads to L2C, LLC: ON
DRAM IO FREQUENCY: 6400
ROB SIZE: 352
Off-chip DRAM Size: 4096 MB Channels: 1 Width: 64-bit Data Rate: 6400 MT/s
CPU 0 runs /home/sumon/secure_berti/GhostMinion/../../traces/spec/619.lbm_s-2676B.champsimtrace.xz
.xz
BTB has LRU replacement policy
ITLB has LRU replacement policy
DTLB has LRU replacement policy
STLB has LRU replacement policy
L1I has LRU replacement policy
L0D has LRU replacement policy
Bingo PHT WAYS: 16 and PHT_SIZE: 16384
L1D has LRU replacement policy
Bingo PHT WAYS: 16 and PHT_SIZE: 16384
L2C has LRU replacement policy
LLC has LRU replacement policy
Heartbeat CPU 0 instructions: 10000003 cycles: 3038144 heartbeat IPC: 3.29148 cumulative IPC: 3.29148 (Simulation time: 0 hr 1 min 22 sec) 
Heartbeat CPU 0 instructions: 20000003 cycles: 6070541 heartbeat IPC: 3.29772 cumulative IPC: 3.2946 (Simulation time: 0 hr 2 min 43 sec) 
Heartbeat CPU 0 instructions: 30000003 cycles: 9094855 heartbeat IPC: 3.30654 cumulative IPC: 3.29857 (Simulation time: 0 hr 4 min 5 sec) 
Heartbeat CPU 0 instructions: 40000002 cycles: 12103052 heartbeat IPC: 3.32425 cumulative IPC: 3.30495 (Simulation time: 0 hr 5 min 28 sec) 
Heartbeat CPU 0 instructions: 50000001 cycles: 15096463 heartbeat IPC: 3.34067 cumulative IPC: 3.31203 (Simulation time: 0 hr 6 min 50 sec) 

Warmup complete CPU 0 instructions: 50000001 cycles: 15096463 (Simulation time: 0 hr 6 min 50 sec) 

Heartbeat CPU 0 instructions: 60000001 cycles: 35064678 heartbeat IPC: 0.500796 cumulative IPC: 0.500796 (Simulation time: 0 hr 9 min 41 sec) 
Heartbeat CPU 0 instructions: 70000002 cycles: 53982643 heartbeat IPC: 0.528598 cumulative IPC: 0.514322 (Simulation time: 0 hr 12 min 23 sec) 
Heartbeat CPU 0 instructions: 80000002 cycles: 71142878 heartbeat IPC: 0.582743 cumulative IPC: 0.535271 (Simulation time: 0 hr 14 min 51 sec) 
Heartbeat CPU 0 instructions: 90000001 cycles: 88269755 heartbeat IPC: 0.583878 cumulative IPC: 0.546648 (Simulation time: 0 hr 17 min 19 sec) 
Heartbeat CPU 0 instructions: 100000001 cycles: 104284791 heartbeat IPC: 0.624413 cumulative IPC: 0.560611 (Simulation time: 0 hr 19 min 38 sec) 
Heartbeat CPU 0 instructions: 110000000 cycles: 119944510 heartbeat IPC: 0.638581 cumulative IPC: 0.572257 (Simulation time: 0 hr 21 min 55 sec) 
Heartbeat CPU 0 instructions: 120000003 cycles: 134693557 heartbeat IPC: 0.67801 cumulative IPC: 0.585299 (Simulation time: 0 hr 24 min 6 sec) 
Heartbeat CPU 0 instructions: 130000002 cycles: 148836809 heartbeat IPC: 0.707051 cumulative IPC: 0.598174 (Simulation time: 0 hr 26 min 12 sec) 
Heartbeat CPU 0 instructions: 140000003 cycles: 162803029 heartbeat IPC: 0.716013 cumulative IPC: 0.609316 (Simulation time: 0 hr 28 min 16 sec) 
Heartbeat CPU 0 instructions: 150000003 cycles: 176215173 heartbeat IPC: 0.745593 cumulative IPC: 0.62066 (Simulation time: 0 hr 30 min 17 sec) 
Heartbeat CPU 0 instructions: 160000002 cycles: 188957653 heartbeat IPC: 0.784777 cumulative IPC: 0.632689 (Simulation time: 0 hr 32 min 12 sec) 
Heartbeat CPU 0 instructions: 170000003 cycles: 201561160 heartbeat IPC: 0.79343 cumulative IPC: 0.643553 (Simulation time: 0 hr 34 min 6 sec) 
Heartbeat CPU 0 instructions: 180000000 cycles: 214051248 heartbeat IPC: 0.800635 cumulative IPC: 0.653415 (Simulation time: 0 hr 35 min 59 sec) 
Heartbeat CPU 0 instructions: 190000000 cycles: 226222453 heartbeat IPC: 0.821611 cumulative IPC: 0.663111 (Simulation time: 0 hr 37 min 49 sec) 
Heartbeat CPU 0 instructions: 200000002 cycles: 238260973 heartbeat IPC: 0.830667 cumulative IPC: 0.67215 (Simulation time: 0 hr 39 min 37 sec) 
Heartbeat CPU 0 instructions: 210000000 cycles: 249994052 heartbeat IPC: 0.852291 cumulative IPC: 0.681148 (Simulation time: 0 hr 41 min 23 sec) 
Heartbeat CPU 0 instructions: 220000000 cycles: 261748748 heartbeat IPC: 0.850724 cumulative IPC: 0.689229 (Simulation time: 0 hr 43 min 10 sec) 
Heartbeat CPU 0 instructions: 230000002 cycles: 273276665 heartbeat IPC: 0.86746 cumulative IPC: 0.697187 (Simulation time: 0 hr 44 min 55 sec) 
Heartbeat CPU 0 instructions: 240000002 cycles: 284883821 heartbeat IPC: 0.861537 cumulative IPC: 0.704258 (Simulation time: 0 hr 46 min 41 sec) 
Heartbeat CPU 0 instructions: 250000002 cycles: 296398917 heartbeat IPC: 0.868425 cumulative IPC: 0.710979 (Simulation time: 0 hr 48 min 26 sec) 
Finished CPU 0 instructions: 200000001 cycles: 281302454 cumulative IPC: 0.710979 (Simulation time: 0 hr 48 min 26 sec) 
 Instruction ID: 250000039

ChampSim completed all CPUs

Region of Interest Statistics

CPU 0 cumulative IPC: 0.710979 instructions: 200000001 cycles: 281302454
ITLB SPEC fills:          0  NON-SPEC fills:          0
ITLB Test counter :          0
ITLB Leapfrog:          0
ITLB MSHR merge:          0
ITLB TOTAL     ACCESS:   26087869  HIT:   26087869  MISS:          0  HIT %:        100  MISS %:          0   MPKI: 0
ITLB LOAD TRANSLATION NON_SPEC    ACCESS:   26087869  HIT:   26087869  MISS:          0  HIT %:        100  MISS %:          0   MPKI: 0
ITLB PREFETCH  REQUESTED:          0  ISSUED:          0  USEFUL:          0  USELESS:          0
ITLB USEFUL LOAD PREFETCHES:          0 PREFETCH ISSUED TO LOWER LEVEL:          0  ACCURACY: -nan
ITLB TIMELY PREFETCHES:          0 LATE PREFETCHES: 0 DROPPED PREFETCHES: 0
ITLB COMMIT LATE PREFETCHES: 0 NORMAL LATE: 0 MISSED OPPORTUNITY: 0 UNCOVERED: 0
ITLB PREFETCHES SAME FILL-ORIGIN LEVEL: 0 DIFFERENT FILL-ORIGIN LEVEL: 0
ITLB AVERAGE MISS LATENCY: -nan cycles
ITLB AVERAGE MISS LATENCY LOAD: -nan cycles
ITLB AVERAGE MISS LATENCY PREFETCH: -nan cycles
ITLB AVERAGE MSHR OCCUPANCY: 0
ITLB MSHR FULL: 0
ITLB RQ	ACCESS:   34096889	FORWARD:          0	MERGED:    8009021	TO_CACHE:   26087868

DTLB SPEC fills:          0  NON-SPEC fills:          0
DTLB Test counter :          0
DTLB Leapfrog:          0
DTLB MSHR merge:          0
DTLB TOTAL     ACCESS:   42522251  HIT:   42368722  MISS:     153529  HIT %:    99.6389  MISS %:   0.361056   MPKI: 0.767645
DTLB LOAD TRANSLATION NON_SPEC    ACCESS:   42522251  HIT:   42368722  MISS:     153529  HIT %:    99.6389  MISS %:   0.361056   MPKI: 0.767645
DTLB PREFETCH  REQUESTED:          0  ISSUED:          0  USEFUL:          0  USELESS:          0
DTLB USEFUL LOAD PREFETCHES:          0 PREFETCH ISSUED TO LOWER LEVEL:          0  ACCURACY: -nan
DTLB TIMELY PREFETCHES:          0 LATE PREFETCHES: 0 DROPPED PREFETCHES: 0
DTLB COMMIT LATE PREFETCHES: 0 NORMAL LATE: 0 MISSED OPPORTUNITY: 0 UNCOVERED: 0
DTLB PREFETCHES SAME FILL-ORIGIN LEVEL: 0 DIFFERENT FILL-ORIGIN LEVEL: 0
DTLB AVERAGE MISS LATENCY: 130.822 cycles
DTLB AVERAGE MISS LATENCY LOAD: -nan cycles
DTLB AVERAGE MISS LATENCY PREFETCH: -nan cycles
DTLB AVERAGE MSHR OCCUPANCY: 0.0630781
DTLB MSHR FULL: 0
DTLB RQ	ACCESS:   62694311	FORWARD:          0	MERGED:   20125692	TO_CACHE:   42568619

STLB SPEC fills:          0  NON-SPEC fills:          0
STLB Test counter :          0
STLB Leapfrog:          0
STLB MSHR merge:          0
STLB TOTAL     ACCESS:     153529  HIT:      70223  MISS:      83306  HIT %:    45.7392  MISS %:    54.2608   MPKI: 0.41653
STLB LOAD TRANSLATION NON_SPEC    ACCESS:     153529  HIT:      70223  MISS:      83306  HIT %:    45.7392  MISS %:    54.2608   MPKI: 0.41653
STLB PREFETCH  REQUESTED:          0  ISSUED:          0  USEFUL:          0  USELESS:          0
STLB USEFUL LOAD PREFETCHES:          0 PREFETCH ISSUED TO LOWER LEVEL:          0  ACCURACY: -nan
STLB TIMELY PREFETCHES:          0 LATE PREFETCHES: 0 DROPPED PREFETCHES: 0
STLB COMMIT LATE PREFETCHES: 0 NORMAL LATE: 0 MISSED OPPORTUNITY: 0 UNCOVERED: 0
STLB PREFETCHES SAME FILL-ORIGIN LEVEL: 0 DIFFERENT FILL-ORIGIN LEVEL: 0
STLB AVERAGE MISS LATENCY: 224.485 cycles
STLB AVERAGE MISS LATENCY LOAD: -nan cycles
STLB AVERAGE MISS LATENCY PREFETCH: -nan cycles
STLB AVERAGE MSHR OCCUPANCY: 0.143947
STLB MSHR FULL: 0
STLB RQ	ACCESS:     153529	FORWARD:          0	MERGED:          0	TO_CACHE:     153529

STLB Hit, L1D data hit: 0
STLB Hit, L2C data hit: 0
STLB Hit, LLC data hit: 0
STLB Hit, LLC data miss: 0
STLB STLB hints to L2: 0
L0D SPEC fills:   19327310  NON-SPEC fills:          0
L0D TimeGuard Request with older TS:     168336 Restricted eviction:       6666 read:    1037443
L0D Test counter :          0
L0D Leapfrog:          0
L0D MSHR merge:    2670408
L0D TOTAL     ACCESS:   28874138  HIT:    7946217  MISS:   20927921  HIT %:    27.5202  MISS %:    72.4798   MPKI: 104.64
L0D LOAD      TOTAL       ACCESS:   28874138  HIT:    7946217  MISS:   20927921  HIT %:    27.5202  MISS %:    72.4798   MPKI: 104.64
L0D LOAD      NON_SPEC    ACCESS:    2869196  HIT:    1275251  MISS:    1593945  HIT %:    44.4463  MISS %:    55.5537   MPKI: 7.96972
L0D LOAD      SPEC        ACCESS:   26004942  HIT:    6670966  MISS:   19333976  HIT %:    25.6527  MISS %:    74.3473   MPKI: 96.6699
L0D PREFETCH  REQUESTED:          0  ISSUED:          0  USEFUL:          0  USELESS:          0
L0D USEFUL LOAD PREFETCHES:          0 PREFETCH ISSUED TO LOWER LEVEL:          0  ACCURACY: -nan
L0D TIMELY PREFETCHES:          0 LATE PREFETCHES: 0 DROPPED PREFETCHES: 0
L0D COMMIT LATE PREFETCHES: 0 NORMAL LATE: 0 MISSED OPPORTUNITY: 0 UNCOVERED: 0
L0D PREFETCHES SAME FILL-ORIGIN LEVEL: 0 DIFFERENT FILL-ORIGIN LEVEL: 0
L0D AVERAGE MISS LATENCY: 21.5187 cycles
L0D AVERAGE MISS LATENCY LOAD: 21.5187 cycles
L0D AVERAGE MISS LATENCY PREFETCH: -nan cycles
L0D AVERAGE MSHR OCCUPANCY: 1.11614
L0D MSHR FULL: 0.0483961
L0D RQ	ACCESS:   45574780	FORWARD:          0	MERGED:   14030235	TO_CACHE:   31544545
L0D WQ	ACCESS:   31149766	FORWARD:          0	MERGED:          0	TO_CACHE:   31149766

L1D SPEC fills:          0  NON-SPEC fills:     275006
L1D Test counter :          0
L1D Leapfrog:          0
L1D MSHR merge:       5909
L1D TOTAL     ACCESS:   82273262  HIT:   72367821  MISS:    9905441  HIT %:    87.9603  MISS %:    12.0397   MPKI: 49.5272
L1D LOAD      TOTAL       ACCESS:   20922012  HIT:   19581659  MISS:    1340353  HIT %:    93.5936  MISS %:    6.40642   MPKI: 6.70176
L1D LOAD      NON_SPEC    ACCESS:    1591238  HIT:    1316232  MISS:     275006  HIT %:    82.7175  MISS %:    17.2825   MPKI: 1.37503
L1D LOAD      SPEC        ACCESS:   19330774  HIT:   18265427  MISS:    1065347  HIT %:    94.4889  MISS %:    5.51115   MPKI: 5.32673
L1D RFO       NON_SPEC    ACCESS:   30532826  HIT:   23079731  MISS:    7453095  HIT %:    75.5899  MISS %:    24.4101   MPKI: 37.2655
L1D COMMIT LOAD NON_SPEC    ACCESS:   11745735  HIT:   11651185  MISS:      94550  HIT %:     99.195  MISS %:   0.804973   MPKI: 0.47275
L1D COMMIT WRITE NON_SPEC    ACCESS:   19072689  HIT:   18055246  MISS:    1017443  HIT %:    94.6654  MISS %:    5.33455   MPKI: 5.08721
L1D PREFETCH  REQUESTED:          0  ISSUED:          0  USEFUL:          0  USELESS:          0
L1D USEFUL LOAD PREFETCHES:          0 PREFETCH ISSUED TO LOWER LEVEL:          0  ACCURACY: -nan
L1D TIMELY PREFETCHES:          0 LATE PREFETCHES: 0 DROPPED PREFETCHES: 0
L1D COMMIT LATE PREFETCHES: 0 NORMAL LATE: 0 MISSED OPPORTUNITY: 0 UNCOVERED: 1340627
L1D PREFETCHES SAME FILL-ORIGIN LEVEL: 0 DIFFERENT FILL-ORIGIN LEVEL: 0
L1D AVERAGE MISS LATENCY: 268.249 cycles
L1D AVERAGE MISS LATENCY LOAD: 104.822 cycles
L1D AVERAGE MISS LATENCY PREFETCH: -nan cycles
L1D AVERAGE MSHR OCCUPANCY: 14.1698
L1D MSHR FULL: 0.767328
L1D RQ	ACCESS:   43725879	FORWARD:          0	MERGED:   10913561	TO_CACHE:   32676585
L1D WQ	ACCESS:   50285967	FORWARD:     135733	MERGED:     601080	TO_CACHE:   49684887

L1D UNIQUE REGIONS ACCESSED: 0
L1D REGIONS CONFLICTS: 0
L1D Cross Page Prefetch Requests: 0
L1D Same Page Prefetch Requests: 0
L1D ROI Sum of L1D PQ occupancy: 0
L1D PREFETCHES PUSHED FROM L2C: 0
L1I SPEC fills:          0  NON-SPEC fills:          0
L1I Test counter :          0
L1I Leapfrog:          0
L1I MSHR merge:          0
L1I TOTAL     ACCESS:   34096888  HIT:   34096888  MISS:          0  HIT %:        100  MISS %:          0   MPKI: 0
L1I LOAD      TOTAL       ACCESS:   34096888  HIT:   34096888  MISS:          0  HIT %:        100  MISS %:          0   MPKI: 0
L1I LOAD      NON_SPEC    ACCESS:   34096888  HIT:   34096888  MISS:          0  HIT %:        100  MISS %:          0   MPKI: 0
L1I PREFETCH  REQUESTED:          0  ISSUED:          0  USEFUL:          0  USELESS:          0
L1I USEFUL LOAD PREFETCHES:          0 PREFETCH ISSUED TO LOWER LEVEL:          0  ACCURACY: -nan
L1I TIMELY PREFETCHES:          0 LATE PREFETCHES: 0 DROPPED PREFETCHES: 0
L1I COMMIT LATE PREFETCHES: 0 NORMAL LATE: 0 MISSED OPPORTUNITY: 0 UNCOVERED: 0
L1I PREFETCHES SAME FILL-ORIGIN LEVEL: 0 DIFFERENT FILL-ORIGIN LEVEL: 0
L1I AVERAGE MISS LATENCY: -nan cycles
L1I AVERAGE MISS LATENCY LOAD: -nan cycles
L1I AVERAGE MISS LATENCY PREFETCH: -nan cycles
L1I AVERAGE MSHR OCCUPANCY: 0
L1I MSHR FULL: 0
L1I RQ	ACCESS:   48145316	FORWARD:          0	MERGED:   14048427	TO_CACHE:   34096889

BTB SPEC fills:          0  NON-SPEC fills:          0
BTB Test counter :          0
BTB Leapfrog:          0
BTB MSHR merge:          0
BTB TOTAL     ACCESS:    2423394  HIT:    2423388  MISS:          6  HIT %:    99.9998  MISS %: 0.000247587   MPKI: 3e-05
BTB BRANCH_DIRECT_JUMP	ACCESS:     120779  HIT:     120778  MISS:          1
BTB BRANCH_INDIRECT	ACCESS:          0  HIT:          0  MISS:          0
BTB BRANCH_CONDITIONAL	ACCESS:    2302615  HIT:    2302610  MISS:          5
BTB BRANCH_DIRECT_CALL	ACCESS:          0  HIT:          0  MISS:          0
BTB BRANCH_INDIRECT_CALL	ACCESS:          0  HIT:          0  MISS:          0
BTB BRANCH_RETURN	ACCESS:          0  HIT:          0  MISS:          0
BTB BRANCH_OTHER ACCESS:          0  HIT:          0  MISS:          0

L2C SPEC fills:          0  NON-SPEC fills:      29678
L2C Test counter :          0
L2C Leapfrog:          0
L2C MSHR merge:      77260
L2C TOTAL     ACCESS:   19295986  HIT:   13740855  MISS:    5555131  HIT %:     71.211  MISS %:     28.789   MPKI: 27.7757
L2C LOAD      TOTAL       ACCESS:    1340353  HIT:    1166368  MISS:     173985  HIT %:    87.0195  MISS %:    12.9805   MPKI: 0.869925
L2C LOAD      NON_SPEC    ACCESS:     275006  HIT:     245328  MISS:      29678  HIT %:    89.2082  MISS %:    10.7918   MPKI: 0.14839
L2C LOAD      SPEC        ACCESS:    1065347  HIT:     921040  MISS:     144307  HIT %:    86.4545  MISS %:    13.5455   MPKI: 0.721535
L2C RFO       NON_SPEC    ACCESS:    7453095  HIT:    3388137  MISS:    4064958  HIT %:    45.4595  MISS %:    54.5405   MPKI: 20.3248
L2C PREFETCH  NON_SPEC    ACCESS:    1197117  HIT:       5021  MISS:    1192096  HIT %:   0.419424  MISS %:    99.5806   MPKI: 5.96048
L2C WRITEBACK NON_SPEC    ACCESS:    7453092  HIT:    7453032  MISS:         60  HIT %:    99.9992  MISS %: 0.000805035   MPKI: 0.0003
L2C CLEAN_EVICTION NON_SPEC    ACCESS:    1341330  HIT:    1240107  MISS:     101223  HIT %:    92.4535  MISS %:    7.54647   MPKI: 0.506115
L2C COMMIT LOAD NON_SPEC    ACCESS:      94550  HIT:      82253  MISS:      12297  HIT %:    86.9942  MISS %:    13.0058   MPKI: 0.061485
L2C LOAD TRANSLATION NON_SPEC    ACCESS:     416449  HIT:     405937  MISS:      10512  HIT %:    97.4758  MISS %:     2.5242   MPKI: 0.05256
L2C PREFETCH  REQUESTED:    1298667  ISSUED:    1298667  USEFUL:    1159557  USELESS:      32583
L2C USEFUL LOAD PREFETCHES:    1159557 PREFETCH ISSUED TO LOWER LEVEL:    1272881  ACCURACY: 91.097
L2C TIMELY PREFETCHES:    1159557 LATE PREFETCHES: 80785 DROPPED PREFETCHES: 0
L2C COMMIT LATE PREFETCHES: 53831 NORMAL LATE: 81049 MISSED OPPORTUNITY: 727 UNCOVERED: 41903
L2C PREFETCHES SAME FILL-ORIGIN LEVEL: 1272881 DIFFERENT FILL-ORIGIN LEVEL: 0
L2C AVERAGE MISS LATENCY: 583.794 cycles
L2C AVERAGE MISS LATENCY LOAD: 541.03 cycles
L2C AVERAGE MISS LATENCY PREFETCH: 647.069 cycles
L2C AVERAGE MSHR OCCUPANCY: 19.5088
L2C MSHR FULL: 0.376232
L2C RQ	ACCESS:    9304458	FORWARD:          0	MERGED:          0	TO_CACHE:    9304458
L2C WQ	ACCESS:    8794427	FORWARD:          0	MERGED:          4	TO_CACHE:    8794423
L2C PQ	ACCESS:    1298667	FORWARD:          0	MERGED:          8	TO_CACHE:    1298659

L2C Instructions Evicting Data 0
L2C Translations Evicting Data 10401
L2C Data Evicting Data 5288886
L2C Instructions Evicting Instructions 0
L2C Translations Evicting Instructions 0
L2C Data Evicting Instructions 0
L2C Instructions Evicting Translations 0
L2C Translations Evicting Translations 111
L2C Data Evicting Translations 10143
L2C Dense regions hint from L2: 0
PSCL5 SPEC fills:          0  NON-SPEC fills:          0
PSCL5 Test counter :          0
PSCL5 Leapfrog:          0
PSCL5 MSHR merge:          0
PSCL5 TOTAL     ACCESS:          0  HIT:          0  MISS:          0  HIT %:       -nan  MISS %:       -nan   MPKI: 0
PSCL5 PREFETCH  REQUESTED:          0  ISSUED:          0  USEFUL:          0  USELESS:          0
PSCL5 USEFUL LOAD PREFETCHES:          0 PREFETCH ISSUED TO LOWER LEVEL:          0  ACCURACY: -nan
PSCL5 TIMELY PREFETCHES:          0 LATE PREFETCHES: 0 DROPPED PREFETCHES: 0
PSCL5 COMMIT LATE PREFETCHES: 0 NORMAL LATE: 0 MISSED OPPORTUNITY: 0 UNCOVERED: 0
PSCL5 PREFETCHES SAME FILL-ORIGIN LEVEL: 0 DIFFERENT FILL-ORIGIN LEVEL: 0

PSCL4 SPEC fills:          0  NON-SPEC fills:          0
PSCL4 Test counter :          0
PSCL4 Leapfrog:          0
PSCL4 MSHR merge:          0
PSCL4 TOTAL     ACCESS:          0  HIT:          0  MISS:          0  HIT %:       -nan  MISS %:       -nan   MPKI: 0
PSCL4 PREFETCH  REQUESTED:          0  ISSUED:          0  USEFUL:          0  USELESS:          0
PSCL4 USEFUL LOAD PREFETCHES:          0 PREFETCH ISSUED TO LOWER LEVEL:          0  ACCURACY: -nan
PSCL4 TIMELY PREFETCHES:          0 LATE PREFETCHES: 0 DROPPED PREFETCHES: 0
PSCL4 COMMIT LATE PREFETCHES: 0 NORMAL LATE: 0 MISSED OPPORTUNITY: 0 UNCOVERED: 0
PSCL4 PREFETCHES SAME FILL-ORIGIN LEVEL: 0 DIFFERENT FILL-ORIGIN LEVEL: 0

PSCL3 SPEC fills:          0  NON-SPEC fills:          0
PSCL3 Test counter :          0
PSCL3 Leapfrog:          0
PSCL3 MSHR merge:          0
PSCL3 TOTAL     ACCESS:          0  HIT:          0  MISS:          0  HIT %:       -nan  MISS %:       -nan   MPKI: 0
PSCL3 PREFETCH  REQUESTED:          0  ISSUED:          0  USEFUL:          0  USELESS:          0
PSCL3 USEFUL LOAD PREFETCHES:          0 PREFETCH ISSUED TO LOWER LEVEL:          0  ACCURACY: -nan
PSCL3 TIMELY PREFETCHES:          0 LATE PREFETCHES: 0 DROPPED PREFETCHES: 0
PSCL3 COMMIT LATE PREFETCHES: 0 NORMAL LATE: 0 MISSED OPPORTUNITY: 0 UNCOVERED: 0
PSCL3 PREFETCHES SAME FILL-ORIGIN LEVEL: 0 DIFFERENT FILL-ORIGIN LEVEL: 0

PSCL2 SPEC fills:          0  NON-SPEC fills:          0
PSCL2 Test counter :          0
PSCL2 Leapfrog:          0
PSCL2 MSHR merge:          0
PSCL2 TOTAL     ACCESS:          0  HIT:          0  MISS:          0  HIT %:       -nan  MISS %:       -nan   MPKI: 0
PSCL2 PREFETCH  REQUESTED:          0  ISSUED:          0  USEFUL:          0  USELESS:          0
PSCL2 USEFUL LOAD PREFETCHES:          0 PREFETCH ISSUED TO LOWER LEVEL:          0  ACCURACY: -nan
PSCL2 TIMELY PREFETCHES:          0 LATE PREFETCHES: 0 DROPPED PREFETCHES: 0
PSCL2 COMMIT LATE PREFETCHES: 0 NORMAL LATE: 0 MISSED OPPORTUNITY: 0 UNCOVERED: 0
PSCL2 PREFETCHES SAME FILL-ORIGIN LEVEL: 0 DIFFERENT FILL-ORIGIN LEVEL: 0

LLC SPEC fills:          0  NON-SPEC fills:      26356
LLC Test counter :          0
LLC Leapfrog:          0
LLC MSHR merge:          0
LLC TOTAL     ACCESS:   10848177  HIT:    5439565  MISS:    5408612  HIT %:    50.1427  MISS %:    49.8573   MPKI: 27.0431
LLC LOAD      TOTAL       ACCESS:      96725  HIT:        213  MISS:      96512  HIT %:   0.220212  MISS %:    99.7798   MPKI: 0.48256
LLC LOAD      NON_SPEC    ACCESS:      26365  HIT:          9  MISS:      26356  HIT %:  0.0341362  MISS %:    99.9659   MPKI: 0.13178
LLC LOAD      SPEC        ACCESS:      70360  HIT:        204  MISS:      70156  HIT %:   0.289937  MISS %:    99.7101   MPKI: 0.35078
LLC RFO       NON_SPEC    ACCESS:    4064930  HIT:      69769  MISS:    3995161  HIT %:    1.71636  MISS %:    98.2836   MPKI: 19.9758
LLC PREFETCH  NON_SPEC    ACCESS:    1272873  HIT:       2528  MISS:    1270345  HIT %:   0.198606  MISS %:    99.8014   MPKI: 6.35172
LLC WRITEBACK NON_SPEC    ACCESS:    4066153  HIT:    4066126  MISS:         27  HIT %:    99.9993  MISS %: 0.000664018   MPKI: 0.000135
LLC CLEAN_EVICTION NON_SPEC    ACCESS:    1328212  HIT:    1294315  MISS:      33897  HIT %:    97.4479  MISS %:    2.55208   MPKI: 0.169485
LLC COMMIT LOAD NON_SPEC    ACCESS:       8772  HIT:       6614  MISS:       2158  HIT %:     75.399  MISS %:     24.601   MPKI: 0.01079
LLC LOAD TRANSLATION NON_SPEC    ACCESS:      10512  HIT:          0  MISS:      10512  HIT %:          0  MISS %:        100   MPKI: 0.05256
LLC PREFETCH  REQUESTED:          0  ISSUED:          0  USEFUL:       6822  USELESS:    1263039
LLC USEFUL LOAD PREFETCHES:       6822 PREFETCH ISSUED TO LOWER LEVEL:    1270345  ACCURACY: 0.537019
LLC TIMELY PREFETCHES:       6822 LATE PREFETCHES: 0 DROPPED PREFETCHES: 0
LLC COMMIT LATE PREFETCHES: 0 NORMAL LATE: 0 MISSED OPPORTUNITY: 0 UNCOVERED: 0
LLC PREFETCHES SAME FILL-ORIGIN LEVEL: 0 DIFFERENT FILL-ORIGIN LEVEL: 0
LLC AVERAGE MISS LATENCY: 570.828 cycles
LLC AVERAGE MISS LATENCY LOAD: 488.903 cycles
LLC AVERAGE MISS LATENCY PREFETCH: 622.342 cycles
LLC AVERAGE MSHR OCCUPANCY: 11.2621
LLC MSHR FULL: 0
LLC RQ	ACCESS:    4180978	FORWARD:          0	MERGED:          0	TO_CACHE:    4180950
LLC WQ	ACCESS:    5394365	FORWARD:         36	MERGED:          0	TO_CACHE:    5394365
LLC PQ	ACCESS:    1272881	FORWARD:          0	MERGED:          0	TO_CACHE:    1272873

LLC Dense regions hint to LLC: 0

RAW hits: 2184314
Loads Generated: 47759094
Loads sent to L1D: 45574780
Stores Generated: 31149747
Stores sent to L1D: 31149766
Major fault: 0 Minor fault: 61402
Allocated PAGES: 61402
Total Load insts: 56804136
Total Non-spec loads: 4034257
Percentage of speculative loads: 92.8979

LeapFrogging counter: 6204494
Commit hits: 19158979 miss: 22797959
Commit hit %: 45.6634 miss %: 54.3366
Commits not translated: 0
Loads retired: 1340353
Stores retired: 31149766
Cache fills: 1340353
L1D response latency: 104.822 cycles
Load retirement latency: 351.961 cycles
OOO test counter: 0
Discarded buffer inserts: 19158979 hits: 108760 hit %: 0.567671
Filter prediction accuracy: -nan
[Bingo] PHT Access: 51804
[Bingo] PHT Hit PC+Addr: 103
[Bingo] PHT Hit PC+Offs: 51676
[Bingo] PHT Miss: 25
[Bingo] Prefetch PC+Addr: 0
[Bingo] Prefetch PC+Offs: 0
[Bingo] Useful PC+Addr: 0
[Bingo] Useful PC+Offs: 0
[Bingo] Useless PC+Addr: 0
[Bingo] Useless PC+Offs: 0
[Bingo] L1 Prefetch per Region: 0
[Bingo] L2 Prefetch per Region: 30.6244
[Bingo] L3 Prefetch per Region: 0
[Bingo] No Prefetch per Region: 1.3756
[Bingo] Number of Voters Mean: 15.987
[Bingo] Number of Voters SD: 9.56643
PHT read accesses: 826868
PHT write accesses: 51781
AT read accesses: 1340305
AT write accesses: 1340305
FT read accesses: 155416
FT write accesses: 51804
PS read accesses: 103758
PS write accesses: 51779
PHT tag read accesses: 2482552
PHT tag write accesses: 51884
AT tag read accesses: 326256133
AT tag write accesses: 1392086
FT tag read accesses: 306457727
FT tag write accesses: 155414
PS tag read accesses: 23154270
PS tag write accesses: 155532
[Bingo] PHT Access: 44187
[Bingo] PHT Hit PC+Addr: 2597
[Bingo] PHT Hit PC+Offs: 41559
[Bingo] PHT Miss: 31
[Bingo] Prefetch PC+Addr: 0
[Bingo] Prefetch PC+Offs: 0
[Bingo] Useful PC+Addr: 0
[Bingo] Useful PC+Offs: 0
[Bingo] Useless PC+Addr: 0
[Bingo] Useless PC+Offs: 0
[Bingo] L1 Prefetch per Region: 0
[Bingo] L2 Prefetch per Region: 30.413
[Bingo] L3 Prefetch per Region: 0
[Bingo] No Prefetch per Region: 1.58701
[Bingo] Number of Voters Mean: 16
[Bingo] Number of Voters SD: 10.0416
PHT read accesses: 670720
PHT write accesses: 44140
AT read accesses: 47658981
AT write accesses: 47659833
FT read accesses: 331081
FT write accesses: 44187
PS read accesses: 803091
PS write accesses: 44156
PHT tag read accesses: 2039488
PHT tag write accesses: 46737
AT tag read accesses: 852361928
AT tag write accesses: 47703161
FT tag read accesses: 91033406
FT tag write accesses: 231821
PS tag read accesses: 765602853
PS tag write accesses: 847245

DRAM Statistics
 CHANNEL 0
 RQ ROW_BUFFER_HIT:     663476  ROW_BUFFER_MISS:    4711209
 DBUS_CONGESTED:          5
 WQ ROW_BUFFER_HIT:    1320283  ROW_BUFFER_MISS:    4004195  FULL:       4392

 AVG_CONGESTED_CYCLE: 4
 All warmup complete: 2
Channel 0 Bank busy for read cycles: 0
Channel 0 Bank busy for write cycles: 0
Channel 0
Rank 0
0banks busy for read cycles: 13995151
0banks busy for write cycles: 8912
1banks busy for read cycles: 5972676
1banks busy for write cycles: 1247508
2banks busy for read cycles: 8406488
2banks busy for write cycles: 1109572
3banks busy for read cycles: 17645233
3banks busy for write cycles: 1063750
4banks busy for read cycles: 18126714
4banks busy for write cycles: 1035739
5banks busy for read cycles: 30294969
5banks busy for write cycles: 1043483
6banks busy for read cycles: 26934947
6banks busy for write cycles: 1178008
7banks busy for read cycles: 18330109
7banks busy for write cycles: 6546199
8banks busy for read cycles: 30320791
8banks busy for write cycles: 98042206

CPU 0 Branch Prediction Accuracy: 99.0972% MPKI: 0.10939 Average ROB Occupancy at Mispredict: 139.61
Branch types
NOT_BRANCH: 197576254 98.7881%
BRANCH_DIRECT_JUMP: 120779 0.0603895%
BRANCH_INDIRECT: 0 0%
BRANCH_CONDITIONAL: 2302625 1.15131%
BRANCH_DIRECT_CALL: 0 0%
BRANCH_INDIRECT_CALL: 0 0%
BRANCH_RETURN: 0 0%
BRANCH_OTHER: 0 0%

DRAM PAGES: 1048576
Allocated PAGES: 61402
