
*** ChampSim Multicore Out-of-Order Simulator ***

Warmup Instructions: 50000000
Simulation Instructions: 200000000
Number of CPUs: 1
LLC sets: 2048
LLC ways: 16
L0D sets: 16
L0D ways: 2
ROB size: 352
LQ size: 128
SQ size: 72
Secure Berti: OFF
Berti: OFF
Berti Fill: OFF
On commit prefetching: ON
Hit-based filter: OFF
Time-guarding: ON
Free-slotting: ON
Leap-frogging: ON
Train prefetcher on L0D bypass: OFF
No translation penalty for prefetchers: OFF
Prefetch to L0D only: OFF
Prefetch to L1D only: OFF
Clean evictions: ON
Commit loads: ON
Commit write: ON
Fill commit loads to L2C, LLC: ON
DRAM IO FREQUENCY: 6400
ROB SIZE: 352
Off-chip DRAM Size: 4096 MB Channels: 1 Width: 64-bit Data Rate: 6400 MT/s
CPU 0 runs /home/sumon/secure_berti/GhostMinion/../../traces/spec/619.lbm_s-3766B.champsimtrace.xz
.xz
BTB has LRU replacement policy
ITLB has LRU replacement policy
DTLB has LRU replacement policy
STLB has LRU replacement policy
L1I has LRU replacement policy
L0D has LRU replacement policy
Bingo PHT WAYS: 16 and PHT_SIZE: 16384
L1D has LRU replacement policy
Bingo PHT WAYS: 16 and PHT_SIZE: 16384
L2C has LRU replacement policy
LLC has LRU replacement policy
Heartbeat CPU 0 instructions: 10000000 cycles: 2863711 heartbeat IPC: 3.49197 cumulative IPC: 3.49197 (Simulation time: 0 hr 1 min 14 sec) 
Heartbeat CPU 0 instructions: 20000002 cycles: 5730147 heartbeat IPC: 3.48865 cumulative IPC: 3.49031 (Simulation time: 0 hr 2 min 29 sec) 
Heartbeat CPU 0 instructions: 30000000 cycles: 8593740 heartbeat IPC: 3.49212 cumulative IPC: 3.49091 (Simulation time: 0 hr 3 min 44 sec) 
Heartbeat CPU 0 instructions: 40000003 cycles: 11460290 heartbeat IPC: 3.48852 cumulative IPC: 3.49031 (Simulation time: 0 hr 5 min 25 sec) 
Heartbeat CPU 0 instructions: 50000000 cycles: 14326804 heartbeat IPC: 3.48856 cumulative IPC: 3.48996 (Simulation time: 0 hr 7 min 24 sec) 

Warmup complete CPU 0 instructions: 50000004 cycles: 14326805 (Simulation time: 0 hr 7 min 24 sec) 

Heartbeat CPU 0 instructions: 60000000 cycles: 25402411 heartbeat IPC: 0.902885 cumulative IPC: 0.902885 (Simulation time: 0 hr 10 min 12 sec) 
Heartbeat CPU 0 instructions: 70000001 cycles: 36650857 heartbeat IPC: 0.889012 cumulative IPC: 0.895895 (Simulation time: 0 hr 13 min 2 sec) 
Heartbeat CPU 0 instructions: 80000001 cycles: 47635966 heartbeat IPC: 0.910323 cumulative IPC: 0.900653 (Simulation time: 0 hr 15 min 49 sec) 
Heartbeat CPU 0 instructions: 90000001 cycles: 58841182 heartbeat IPC: 0.892442 cumulative IPC: 0.898586 (Simulation time: 0 hr 18 min 39 sec) 
Heartbeat CPU 0 instructions: 100000000 cycles: 69884943 heartbeat IPC: 0.905489 cumulative IPC: 0.899958 (Simulation time: 0 hr 21 min 24 sec) 
Heartbeat CPU 0 instructions: 110000000 cycles: 81715428 heartbeat IPC: 0.845274 cumulative IPC: 0.890358 (Simulation time: 0 hr 24 min 20 sec) 
Heartbeat CPU 0 instructions: 120000003 cycles: 93919103 heartbeat IPC: 0.819426 cumulative IPC: 0.879482 (Simulation time: 0 hr 27 min 23 sec) 
Heartbeat CPU 0 instructions: 130000000 cycles: 109105680 heartbeat IPC: 0.658476 cumulative IPC: 0.84407 (Simulation time: 0 hr 31 min 1 sec) 
Heartbeat CPU 0 instructions: 140000002 cycles: 126131779 heartbeat IPC: 0.587334 cumulative IPC: 0.804973 (Simulation time: 0 hr 35 min 4 sec) 
Heartbeat CPU 0 instructions: 150000000 cycles: 146071404 heartbeat IPC: 0.501514 cumulative IPC: 0.759044 (Simulation time: 0 hr 39 min 36 sec) 
Heartbeat CPU 0 instructions: 160000003 cycles: 171193444 heartbeat IPC: 0.398057 cumulative IPC: 0.701233 (Simulation time: 0 hr 43 min 6 sec) 
Heartbeat CPU 0 instructions: 170000003 cycles: 201973432 heartbeat IPC: 0.324886 cumulative IPC: 0.6395 (Simulation time: 0 hr 47 min 24 sec) 
Heartbeat CPU 0 instructions: 180000003 cycles: 235630901 heartbeat IPC: 0.297111 cumulative IPC: 0.587427 (Simulation time: 0 hr 51 min 58 sec) 
Heartbeat CPU 0 instructions: 190000001 cycles: 271313593 heartbeat IPC: 0.280248 cumulative IPC: 0.544775 (Simulation time: 0 hr 56 min 43 sec) 
Heartbeat CPU 0 instructions: 200000003 cycles: 303463268 heartbeat IPC: 0.311045 cumulative IPC: 0.518786 (Simulation time: 1 hr 1 min 4 sec) 
Heartbeat CPU 0 instructions: 210000003 cycles: 333459214 heartbeat IPC: 0.333378 cumulative IPC: 0.501359 (Simulation time: 1 hr 5 min 6 sec) 
Heartbeat CPU 0 instructions: 220000000 cycles: 360798869 heartbeat IPC: 0.365769 cumulative IPC: 0.49066 (Simulation time: 1 hr 9 min 4 sec) 
Heartbeat CPU 0 instructions: 230000000 cycles: 387532600 heartbeat IPC: 0.374059 cumulative IPC: 0.482308 (Simulation time: 1 hr 12 min 45 sec) 
Heartbeat CPU 0 instructions: 240000002 cycles: 412897922 heartbeat IPC: 0.394239 cumulative IPC: 0.476703 (Simulation time: 1 hr 16 min 12 sec) 
Heartbeat CPU 0 instructions: 250000002 cycles: 438323158 heartbeat IPC: 0.39331 cumulative IPC: 0.471702 (Simulation time: 1 hr 19 min 39 sec) 
Finished CPU 0 instructions: 200000001 cycles: 423996354 cumulative IPC: 0.471702 (Simulation time: 1 hr 19 min 39 sec) 
 Instruction ID: 250000037

ChampSim completed all CPUs

Region of Interest Statistics

CPU 0 cumulative IPC: 0.471702 instructions: 200000001 cycles: 423996354
ITLB SPEC fills:          0  NON-SPEC fills:          0
ITLB Test counter :          0
ITLB Leapfrog:          0
ITLB MSHR merge:          0
ITLB TOTAL     ACCESS:   26550742  HIT:   26550742  MISS:          0  HIT %:        100  MISS %:          0   MPKI: 0
ITLB LOAD TRANSLATION NON_SPEC    ACCESS:   26550742  HIT:   26550742  MISS:          0  HIT %:        100  MISS %:          0   MPKI: 0
ITLB PREFETCH  REQUESTED:          0  ISSUED:          0  USEFUL:          0  USELESS:          0
ITLB USEFUL LOAD PREFETCHES:          0 PREFETCH ISSUED TO LOWER LEVEL:          0  ACCURACY: -nan
ITLB TIMELY PREFETCHES:          0 LATE PREFETCHES: 0 DROPPED PREFETCHES: 0
ITLB COMMIT LATE PREFETCHES: 0 NORMAL LATE: 0 MISSED OPPORTUNITY: 0 UNCOVERED: 0
ITLB PREFETCHES SAME FILL-ORIGIN LEVEL: 0 DIFFERENT FILL-ORIGIN LEVEL: 0
ITLB AVERAGE MISS LATENCY: -nan cycles
ITLB AVERAGE MISS LATENCY LOAD: -nan cycles
ITLB AVERAGE MISS LATENCY PREFETCH: -nan cycles
ITLB AVERAGE MSHR OCCUPANCY: 0
ITLB MSHR FULL: 0
ITLB RQ	ACCESS:   34448598	FORWARD:          0	MERGED:    7897856	TO_CACHE:   26550742

DTLB SPEC fills:          0  NON-SPEC fills:          0
DTLB Test counter :          0
DTLB Leapfrog:          0
DTLB MSHR merge:          0
DTLB TOTAL     ACCESS:   44307510  HIT:   44081797  MISS:     225713  HIT %:    99.4906  MISS %:   0.509424   MPKI: 1.12856
DTLB LOAD TRANSLATION NON_SPEC    ACCESS:   44307510  HIT:   44081797  MISS:     225713  HIT %:    99.4906  MISS %:   0.509424   MPKI: 1.12856
DTLB PREFETCH  REQUESTED:          0  ISSUED:          0  USEFUL:          0  USELESS:          0
DTLB USEFUL LOAD PREFETCHES:          0 PREFETCH ISSUED TO LOWER LEVEL:          0  ACCURACY: -nan
DTLB TIMELY PREFETCHES:          0 LATE PREFETCHES: 0 DROPPED PREFETCHES: 0
DTLB COMMIT LATE PREFETCHES: 0 NORMAL LATE: 0 MISSED OPPORTUNITY: 0 UNCOVERED: 0
DTLB PREFETCHES SAME FILL-ORIGIN LEVEL: 0 DIFFERENT FILL-ORIGIN LEVEL: 0
DTLB AVERAGE MISS LATENCY: 134.386 cycles
DTLB AVERAGE MISS LATENCY LOAD: -nan cycles
DTLB AVERAGE MISS LATENCY PREFETCH: -nan cycles
DTLB AVERAGE MSHR OCCUPANCY: 0.0876587
DTLB MSHR FULL: 0
DTLB RQ	ACCESS:   65370176	FORWARD:          0	MERGED:   20949507	TO_CACHE:   44420669

STLB SPEC fills:          0  NON-SPEC fills:          0
STLB Test counter :          0
STLB Leapfrog:          0
STLB MSHR merge:          0
STLB TOTAL     ACCESS:     225713  HIT:     103243  MISS:     122470  HIT %:    45.7408  MISS %:    54.2592   MPKI: 0.61235
STLB LOAD TRANSLATION NON_SPEC    ACCESS:     225713  HIT:     103243  MISS:     122470  HIT %:    45.7408  MISS %:    54.2592   MPKI: 0.61235
STLB PREFETCH  REQUESTED:          0  ISSUED:          0  USEFUL:          0  USELESS:          0
STLB USEFUL LOAD PREFETCHES:          0 PREFETCH ISSUED TO LOWER LEVEL:          0  ACCURACY: -nan
STLB TIMELY PREFETCHES:          0 LATE PREFETCHES: 0 DROPPED PREFETCHES: 0
STLB COMMIT LATE PREFETCHES: 0 NORMAL LATE: 0 MISSED OPPORTUNITY: 0 UNCOVERED: 0
STLB PREFETCHES SAME FILL-ORIGIN LEVEL: 0 DIFFERENT FILL-ORIGIN LEVEL: 0
STLB AVERAGE MISS LATENCY: 231.027 cycles
STLB AVERAGE MISS LATENCY LOAD: -nan cycles
STLB AVERAGE MISS LATENCY PREFETCH: -nan cycles
STLB AVERAGE MSHR OCCUPANCY: 0.153899
STLB MSHR FULL: 0
STLB RQ	ACCESS:     225713	FORWARD:          0	MERGED:          0	TO_CACHE:     225713

STLB Hit, L1D data hit: 0
STLB Hit, L2C data hit: 0
STLB Hit, LLC data hit: 0
STLB Hit, LLC data miss: 0
STLB STLB hints to L2: 0
L0D SPEC fills:   18690518  NON-SPEC fills:          0
L0D TimeGuard Request with older TS:      39431 Restricted eviction:       5457 read:     646948
L0D Test counter :          0
L0D Leapfrog:          0
L0D MSHR merge:    3508834
L0D TOTAL     ACCESS:   27297483  HIT:    6808108  MISS:   20489375  HIT %:    24.9404  MISS %:    75.0596   MPKI: 102.447
L0D LOAD      TOTAL       ACCESS:   27297483  HIT:    6808108  MISS:   20489375  HIT %:    24.9404  MISS %:    75.0596   MPKI: 102.447
L0D LOAD      NON_SPEC    ACCESS:    2755278  HIT:     961878  MISS:    1793400  HIT %:    34.9104  MISS %:    65.0896   MPKI: 8.967
L0D LOAD      SPEC        ACCESS:   24542205  HIT:    5846230  MISS:   18695975  HIT %:    23.8211  MISS %:    76.1789   MPKI: 93.4799
L0D PREFETCH  REQUESTED:          0  ISSUED:          0  USEFUL:          0  USELESS:          0
L0D USEFUL LOAD PREFETCHES:          0 PREFETCH ISSUED TO LOWER LEVEL:          0  ACCURACY: -nan
L0D TIMELY PREFETCHES:          0 LATE PREFETCHES: 0 DROPPED PREFETCHES: 0
L0D COMMIT LATE PREFETCHES: 0 NORMAL LATE: 0 MISSED OPPORTUNITY: 0 UNCOVERED: 0
L0D PREFETCHES SAME FILL-ORIGIN LEVEL: 0 DIFFERENT FILL-ORIGIN LEVEL: 0
L0D AVERAGE MISS LATENCY: 48.2527 cycles
L0D AVERAGE MISS LATENCY LOAD: 48.2527 cycles
L0D AVERAGE MISS LATENCY PREFETCH: -nan cycles
L0D AVERAGE MSHR OCCUPANCY: 1.99018
L0D MSHR FULL: 0.140588
L0D RQ	ACCESS:   47922192	FORWARD:          0	MERGED:   17115876	TO_CACHE:   30806316
L0D WQ	ACCESS:   34563860	FORWARD:          0	MERGED:          0	TO_CACHE:   34563860

L1D SPEC fills:          0  NON-SPEC fills:     241407
L1D Test counter :          0
L1D Leapfrog:          0
L1D MSHR merge:      16911
L1D TOTAL     ACCESS:   83842139  HIT:   69065934  MISS:   14776205  HIT %:    82.3762  MISS %:    17.6238   MPKI: 73.881
L1D LOAD      TOTAL       ACCESS:   20472464  HIT:   18492630  MISS:    1979834  HIT %:    90.3293  MISS %:    9.67072   MPKI: 9.89917
L1D LOAD      NON_SPEC    ACCESS:    1786287  HIT:    1544880  MISS:     241407  HIT %:    86.4855  MISS %:    13.5145   MPKI: 1.20703
L1D LOAD      SPEC        ACCESS:   18686177  HIT:   16947750  MISS:    1738427  HIT %:    90.6967  MISS %:    9.30328   MPKI: 8.69213
L1D RFO       NON_SPEC    ACCESS:   33300086  HIT:   22357943  MISS:   10942143  HIT %:    67.1408  MISS %:    32.8592   MPKI: 54.7107
L1D COMMIT LOAD NON_SPEC    ACCESS:   11696901  HIT:   11439221  MISS:     257680  HIT %:     97.797  MISS %:    2.20298   MPKI: 1.2884
L1D COMMIT WRITE NON_SPEC    ACCESS:   18372688  HIT:   16776140  MISS:    1596548  HIT %:    91.3102  MISS %:    8.68979   MPKI: 7.98274
L1D PREFETCH  REQUESTED:          0  ISSUED:          0  USEFUL:          0  USELESS:          0
L1D USEFUL LOAD PREFETCHES:          0 PREFETCH ISSUED TO LOWER LEVEL:          0  ACCURACY: -nan
L1D TIMELY PREFETCHES:          0 LATE PREFETCHES: 0 DROPPED PREFETCHES: 0
L1D COMMIT LATE PREFETCHES: 0 NORMAL LATE: 0 MISSED OPPORTUNITY: 0 UNCOVERED: 1980810
L1D PREFETCHES SAME FILL-ORIGIN LEVEL: 0 DIFFERENT FILL-ORIGIN LEVEL: 0
L1D AVERAGE MISS LATENCY: 288.268 cycles
L1D AVERAGE MISS LATENCY LOAD: 157.01 cycles
L1D AVERAGE MISS LATENCY PREFETCH: -nan cycles
L1D AVERAGE MSHR OCCUPANCY: 15.2325
L1D MSHR FULL: 0.898302
L1D RQ	ACCESS:   46577884	FORWARD:          0	MERGED:   14002371	TO_CACHE:   32192444
L1D WQ	ACCESS:   53144668	FORWARD:     383069	MERGED:    1285332	TO_CACHE:   51859336

L1D UNIQUE REGIONS ACCESSED: 0
L1D REGIONS CONFLICTS: 0
L1D Cross Page Prefetch Requests: 0
L1D Same Page Prefetch Requests: 0
L1D ROI Sum of L1D PQ occupancy: 0
L1D PREFETCHES PUSHED FROM L2C: 0
L1I SPEC fills:          0  NON-SPEC fills:          0
L1I Test counter :          0
L1I Leapfrog:          0
L1I MSHR merge:          0
L1I TOTAL     ACCESS:   34448596  HIT:   34448596  MISS:          0  HIT %:        100  MISS %:          0   MPKI: 0
L1I LOAD      TOTAL       ACCESS:   34448596  HIT:   34448596  MISS:          0  HIT %:        100  MISS %:          0   MPKI: 0
L1I LOAD      NON_SPEC    ACCESS:   34448596  HIT:   34448596  MISS:          0  HIT %:        100  MISS %:          0   MPKI: 0
L1I PREFETCH  REQUESTED:          0  ISSUED:          0  USEFUL:          0  USELESS:          0
L1I USEFUL LOAD PREFETCHES:          0 PREFETCH ISSUED TO LOWER LEVEL:          0  ACCURACY: -nan
L1I TIMELY PREFETCHES:          0 LATE PREFETCHES: 0 DROPPED PREFETCHES: 0
L1I COMMIT LATE PREFETCHES: 0 NORMAL LATE: 0 MISSED OPPORTUNITY: 0 UNCOVERED: 0
L1I PREFETCHES SAME FILL-ORIGIN LEVEL: 0 DIFFERENT FILL-ORIGIN LEVEL: 0
L1I AVERAGE MISS LATENCY: -nan cycles
L1I AVERAGE MISS LATENCY LOAD: -nan cycles
L1I AVERAGE MISS LATENCY PREFETCH: -nan cycles
L1I AVERAGE MSHR OCCUPANCY: 0
L1I MSHR FULL: 0
L1I RQ	ACCESS:   49259836	FORWARD:          0	MERGED:   14811238	TO_CACHE:   34448598

BTB SPEC fills:          0  NON-SPEC fills:          0
BTB Test counter :          0
BTB Leapfrog:          0
BTB MSHR merge:          0
BTB TOTAL     ACCESS:    3122104  HIT:    3122098  MISS:          6  HIT %:    99.9998  MISS %: 0.000192178   MPKI: 3e-05
BTB BRANCH_DIRECT_JUMP	ACCESS:     397756  HIT:     397755  MISS:          1
BTB BRANCH_INDIRECT	ACCESS:          0  HIT:          0  MISS:          0
BTB BRANCH_CONDITIONAL	ACCESS:    2724348  HIT:    2724343  MISS:          5
BTB BRANCH_DIRECT_CALL	ACCESS:          0  HIT:          0  MISS:          0
BTB BRANCH_INDIRECT_CALL	ACCESS:          0  HIT:          0  MISS:          0
BTB BRANCH_RETURN	ACCESS:          0  HIT:          0  MISS:          0
BTB BRANCH_OTHER ACCESS:          0  HIT:          0  MISS:          0

L2C SPEC fills:          0  NON-SPEC fills:      24448
L2C Test counter :          0
L2C Leapfrog:          0
L2C MSHR merge:     138563
L2C TOTAL     ACCESS:   28409037  HIT:   20174006  MISS:    8235031  HIT %:    71.0126  MISS %:    28.9874   MPKI: 41.1752
L2C LOAD      TOTAL       ACCESS:    1979832  HIT:    1657727  MISS:     322105  HIT %:    83.7307  MISS %:    16.2693   MPKI: 1.61052
L2C LOAD      NON_SPEC    ACCESS:     241407  HIT:     216959  MISS:      24448  HIT %:    89.8727  MISS %:    10.1273   MPKI: 0.12224
L2C LOAD      SPEC        ACCESS:    1738425  HIT:    1440768  MISS:     297657  HIT %:    82.8778  MISS %:    17.1222   MPKI: 1.48828
L2C RFO       NON_SPEC    ACCESS:   10942136  HIT:    4983487  MISS:    5958649  HIT %:     45.544  MISS %:     54.456   MPKI: 29.7932
L2C PREFETCH  NON_SPEC    ACCESS:    1707395  HIT:       7263  MISS:    1700132  HIT %:   0.425385  MISS %:    99.5746   MPKI: 8.50066
L2C WRITEBACK NON_SPEC    ACCESS:   10942149  HIT:   10942041  MISS:        108  HIT %:     99.999  MISS %: 0.000987009   MPKI: 0.00054
L2C CLEAN_EVICTION NON_SPEC    ACCESS:    1967616  HIT:    1768692  MISS:     198924  HIT %:    89.8901  MISS %:    10.1099   MPKI: 0.99462
L2C COMMIT LOAD NON_SPEC    ACCESS:     257680  HIT:     218019  MISS:      39661  HIT %:    84.6084  MISS %:    15.3916   MPKI: 0.198305
L2C LOAD TRANSLATION NON_SPEC    ACCESS:     612229  HIT:     596777  MISS:      15452  HIT %:    97.4761  MISS %:    2.52389   MPKI: 0.07726
L2C PREFETCH  REQUESTED:    1909152  ISSUED:    1909152  USEFUL:    1640292  USELESS:      59834
L2C USEFUL LOAD PREFETCHES:    1640292 PREFETCH ISSUED TO LOWER LEVEL:    1850349  ACCURACY: 88.6477
L2C TIMELY PREFETCHES:    1640292 LATE PREFETCHES: 150217 DROPPED PREFETCHES: 0
L2C COMMIT LATE PREFETCHES: 117724 NORMAL LATE: 151348 MISSED OPPORTUNITY: 2478 UNCOVERED: 62209
L2C PREFETCHES SAME FILL-ORIGIN LEVEL: 1850349 DIFFERENT FILL-ORIGIN LEVEL: 0
L2C AVERAGE MISS LATENCY: 613.038 cycles
L2C AVERAGE MISS LATENCY LOAD: 600.597 cycles
L2C AVERAGE MISS LATENCY PREFETCH: 648.222 cycles
L2C AVERAGE MSHR OCCUPANCY: 20.0469
L2C MSHR FULL: 0.368916
L2C RQ	ACCESS:   13791891	FORWARD:          0	MERGED:          0	TO_CACHE:   13791882
L2C WQ	ACCESS:   12909780	FORWARD:         11	MERGED:         15	TO_CACHE:   12909765
L2C PQ	ACCESS:    1909152	FORWARD:          0	MERGED:         33	TO_CACHE:    1909117

L2C Instructions Evicting Data 0
L2C Translations Evicting Data 15385
L2C Data Evicting Data 7707962
L2C Instructions Evicting Instructions 0
L2C Translations Evicting Instructions 0
L2C Data Evicting Instructions 0
L2C Instructions Evicting Translations 0
L2C Translations Evicting Translations 67
L2C Data Evicting Translations 14928
L2C Dense regions hint from L2: 0
PSCL5 SPEC fills:          0  NON-SPEC fills:          0
PSCL5 Test counter :          0
PSCL5 Leapfrog:          0
PSCL5 MSHR merge:          0
PSCL5 TOTAL     ACCESS:          0  HIT:          0  MISS:          0  HIT %:       -nan  MISS %:       -nan   MPKI: 0
PSCL5 PREFETCH  REQUESTED:          0  ISSUED:          0  USEFUL:          0  USELESS:          0
PSCL5 USEFUL LOAD PREFETCHES:          0 PREFETCH ISSUED TO LOWER LEVEL:          0  ACCURACY: -nan
PSCL5 TIMELY PREFETCHES:          0 LATE PREFETCHES: 0 DROPPED PREFETCHES: 0
PSCL5 COMMIT LATE PREFETCHES: 0 NORMAL LATE: 0 MISSED OPPORTUNITY: 0 UNCOVERED: 0
PSCL5 PREFETCHES SAME FILL-ORIGIN LEVEL: 0 DIFFERENT FILL-ORIGIN LEVEL: 0

PSCL4 SPEC fills:          0  NON-SPEC fills:          0
PSCL4 Test counter :          0
PSCL4 Leapfrog:          0
PSCL4 MSHR merge:          0
PSCL4 TOTAL     ACCESS:          0  HIT:          0  MISS:          0  HIT %:       -nan  MISS %:       -nan   MPKI: 0
PSCL4 PREFETCH  REQUESTED:          0  ISSUED:          0  USEFUL:          0  USELESS:          0
PSCL4 USEFUL LOAD PREFETCHES:          0 PREFETCH ISSUED TO LOWER LEVEL:          0  ACCURACY: -nan
PSCL4 TIMELY PREFETCHES:          0 LATE PREFETCHES: 0 DROPPED PREFETCHES: 0
PSCL4 COMMIT LATE PREFETCHES: 0 NORMAL LATE: 0 MISSED OPPORTUNITY: 0 UNCOVERED: 0
PSCL4 PREFETCHES SAME FILL-ORIGIN LEVEL: 0 DIFFERENT FILL-ORIGIN LEVEL: 0

PSCL3 SPEC fills:          0  NON-SPEC fills:          0
PSCL3 Test counter :          0
PSCL3 Leapfrog:          0
PSCL3 MSHR merge:          0
PSCL3 TOTAL     ACCESS:          0  HIT:          0  MISS:          0  HIT %:       -nan  MISS %:       -nan   MPKI: 0
PSCL3 PREFETCH  REQUESTED:          0  ISSUED:          0  USEFUL:          0  USELESS:          0
PSCL3 USEFUL LOAD PREFETCHES:          0 PREFETCH ISSUED TO LOWER LEVEL:          0  ACCURACY: -nan
PSCL3 TIMELY PREFETCHES:          0 LATE PREFETCHES: 0 DROPPED PREFETCHES: 0
PSCL3 COMMIT LATE PREFETCHES: 0 NORMAL LATE: 0 MISSED OPPORTUNITY: 0 UNCOVERED: 0
PSCL3 PREFETCHES SAME FILL-ORIGIN LEVEL: 0 DIFFERENT FILL-ORIGIN LEVEL: 0

PSCL2 SPEC fills:          0  NON-SPEC fills:          0
PSCL2 Test counter :          0
PSCL2 Leapfrog:          0
PSCL2 MSHR merge:          0
PSCL2 TOTAL     ACCESS:          0  HIT:          0  MISS:          0  HIT %:       -nan  MISS %:       -nan   MPKI: 0
PSCL2 PREFETCH  REQUESTED:          0  ISSUED:          0  USEFUL:          0  USELESS:          0
PSCL2 USEFUL LOAD PREFETCHES:          0 PREFETCH ISSUED TO LOWER LEVEL:          0  ACCURACY: -nan
PSCL2 TIMELY PREFETCHES:          0 LATE PREFETCHES: 0 DROPPED PREFETCHES: 0
PSCL2 COMMIT LATE PREFETCHES: 0 NORMAL LATE: 0 MISSED OPPORTUNITY: 0 UNCOVERED: 0
PSCL2 PREFETCHES SAME FILL-ORIGIN LEVEL: 0 DIFFERENT FILL-ORIGIN LEVEL: 0

LLC SPEC fills:          0  NON-SPEC fills:      21652
LLC Test counter :          0
LLC Leapfrog:          0
LLC MSHR merge:          0
LLC TOTAL     ACCESS:   15944377  HIT:    7938520  MISS:    8005857  HIT %:    49.7888  MISS %:    50.2112   MPKI: 40.0293
LLC LOAD      TOTAL       ACCESS:     183542  HIT:        729  MISS:     182813  HIT %:   0.397184  MISS %:    99.6028   MPKI: 0.914065
LLC LOAD      NON_SPEC    ACCESS:      21691  HIT:         39  MISS:      21652  HIT %:   0.179798  MISS %:    99.8202   MPKI: 0.10826
LLC LOAD      SPEC        ACCESS:     161851  HIT:        690  MISS:     161161  HIT %:   0.426318  MISS %:    99.5737   MPKI: 0.805805
LLC RFO       NON_SPEC    ACCESS:    5958621  HIT:      88808  MISS:    5869813  HIT %:    1.49041  MISS %:    98.5096   MPKI: 29.3491
LLC PREFETCH  NON_SPEC    ACCESS:    1850304  HIT:       3775  MISS:    1846529  HIT %:   0.204021  MISS %:     99.796   MPKI: 9.23264
LLC WRITEBACK NON_SPEC    ACCESS:    5958328  HIT:    5958194  MISS:        134  HIT %:    99.9978  MISS %: 0.00224895   MPKI: 0.00067
LLC CLEAN_EVICTION NON_SPEC    ACCESS:    1950123  HIT:    1865882  MISS:      84241  HIT %:    95.6802  MISS %:    4.31978   MPKI: 0.421205
LLC COMMIT LOAD NON_SPEC    ACCESS:      28007  HIT:      21132  MISS:       6875  HIT %:    75.4526  MISS %:    24.5474   MPKI: 0.034375
LLC LOAD TRANSLATION NON_SPEC    ACCESS:      15452  HIT:          0  MISS:      15452  HIT %:          0  MISS %:        100   MPKI: 0.07726
LLC PREFETCH  REQUESTED:          0  ISSUED:          0  USEFUL:      21857  USELESS:    1827581
LLC USEFUL LOAD PREFETCHES:      21857 PREFETCH ISSUED TO LOWER LEVEL:    1846529  ACCURACY: 1.18368
LLC TIMELY PREFETCHES:      21857 LATE PREFETCHES: 0 DROPPED PREFETCHES: 0
LLC COMMIT LATE PREFETCHES: 0 NORMAL LATE: 0 MISSED OPPORTUNITY: 0 UNCOVERED: 0
LLC PREFETCHES SAME FILL-ORIGIN LEVEL: 0 DIFFERENT FILL-ORIGIN LEVEL: 0
LLC AVERAGE MISS LATENCY: 602.14 cycles
LLC AVERAGE MISS LATENCY LOAD: 541.851 cycles
LLC AVERAGE MISS LATENCY PREFETCH: 628.661 cycles
LLC AVERAGE MSHR OCCUPANCY: 12.4486
LLC MSHR FULL: 0
LLC RQ	ACCESS:    6185654	FORWARD:          0	MERGED:          0	TO_CACHE:    6185626
LLC WQ	ACCESS:    7908451	FORWARD:         73	MERGED:          0	TO_CACHE:    7908451
LLC PQ	ACCESS:    1850349	FORWARD:          0	MERGED:          0	TO_CACHE:    1850304

LLC Dense regions hint to LLC: 0

RAW hits: 2471688
Loads Generated: 50393882
Loads sent to L1D: 47922192
Stores Generated: 34563853
Stores sent to L1D: 34563860
Major fault: 0 Minor fault: 72955
Allocated PAGES: 72955
Total Load insts: 57895250
Total Non-spec loads: 3597828
Percentage of speculative loads: 93.7856

LeapFrogging counter: 17390621
Commit hits: 18651101 miss: 26088510
Commit hit %: 41.6881 miss %: 58.3119
Commits not translated: 0
Loads retired: 1979834
Stores retired: 34563860
Cache fills: 1979834
L1D response latency: 157.01 cycles
Load retirement latency: 621.857 cycles
OOO test counter: 0
Discarded buffer inserts: 18651101 hits: 300578 hit %: 1.61158
Filter prediction accuracy: -nan
[Bingo] PHT Access: 66213
[Bingo] PHT Hit PC+Addr: 315
[Bingo] PHT Hit PC+Offs: 65497
[Bingo] PHT Miss: 401
[Bingo] Prefetch PC+Addr: 0
[Bingo] Prefetch PC+Offs: 0
[Bingo] Useful PC+Addr: 0
[Bingo] Useful PC+Offs: 0
[Bingo] Useless PC+Addr: 0
[Bingo] Useless PC+Offs: 0
[Bingo] L1 Prefetch per Region: 0
[Bingo] L2 Prefetch per Region: 31.2296
[Bingo] L3 Prefetch per Region: 0
[Bingo] No Prefetch per Region: 0.770361
[Bingo] Number of Voters Mean: 15.9646
[Bingo] Number of Voters SD: 6.01376
PHT read accesses: 1047268
PHT write accesses: 65784
AT read accesses: 1979364
AT write accesses: 1979364
FT read accesses: 197859
FT write accesses: 66213
PS read accesses: 132535
PS write accesses: 65812
PHT tag read accesses: 3154222
PHT tag write accesses: 66099
AT tag read accesses: 474286493
AT tag write accesses: 2045148
FT tag read accesses: 444715617
FT tag write accesses: 198249
PS tag read accesses: 33849366
PS tag write accesses: 198346
[Bingo] PHT Access: 64512
[Bingo] PHT Hit PC+Addr: 3520
[Bingo] PHT Hit PC+Offs: 60951
[Bingo] PHT Miss: 41
[Bingo] Prefetch PC+Addr: 0
[Bingo] Prefetch PC+Offs: 0
[Bingo] Useful PC+Addr: 0
[Bingo] Useful PC+Offs: 0
[Bingo] Useless PC+Addr: 0
[Bingo] Useless PC+Offs: 0
[Bingo] L1 Prefetch per Region: 0
[Bingo] L2 Prefetch per Region: 30.6176
[Bingo] L3 Prefetch per Region: 0
[Bingo] No Prefetch per Region: 1.38236
[Bingo] Number of Voters Mean: 16
[Bingo] Number of Voters SD: 5.89813
PHT read accesses: 984192
PHT write accesses: 64515
AT read accesses: 50282231
AT write accesses: 50282909
FT read accesses: 415482
FT write accesses: 64512
PS read accesses: 1292272
PS write accesses: 64471
PHT tag read accesses: 2990554
PHT tag write accesses: 68035
AT tag read accesses: 935677885
AT tag write accesses: 50346729
FT tag read accesses: 132966641
FT tag write accesses: 304509
PS tag read accesses: 808430060
PS tag write accesses: 1356738

DRAM Statistics
 CHANNEL 0
 RQ ROW_BUFFER_HIT:    1059646  ROW_BUFFER_MISS:    6861828
 DBUS_CONGESTED:         12
 WQ ROW_BUFFER_HIT:    1986174  ROW_BUFFER_MISS:    5833059  FULL:       4812

 AVG_CONGESTED_CYCLE: 6
 All warmup complete: 2
Channel 0 Bank busy for read cycles: 0
Channel 0 Bank busy for write cycles: 0
Channel 0
Rank 0
0banks busy for read cycles: 43497193
0banks busy for write cycles: 25844
1banks busy for read cycles: 8040830
1banks busy for write cycles: 2908876
2banks busy for read cycles: 10055822
2banks busy for write cycles: 2516123
3banks busy for read cycles: 17106881
3banks busy for write cycles: 2298353
4banks busy for read cycles: 20418067
4banks busy for write cycles: 2283836
5banks busy for read cycles: 38294206
5banks busy for write cycles: 2283067
6banks busy for read cycles: 38704116
6banks busy for write cycles: 2615384
7banks busy for read cycles: 34137198
7banks busy for write cycles: 10482121
8banks busy for read cycles: 49630301
8banks busy for write cycles: 138698137

CPU 0 Branch Prediction Accuracy: 97.6561% MPKI: 0.365925 Average ROB Occupancy at Mispredict: 171.52
Branch types
NOT_BRANCH: 196877353 98.4387%
BRANCH_DIRECT_JUMP: 397756 0.198878%
BRANCH_INDIRECT: 0 0%
BRANCH_CONDITIONAL: 2724542 1.36227%
BRANCH_DIRECT_CALL: 0 0%
BRANCH_INDIRECT_CALL: 0 0%
BRANCH_RETURN: 0 0%
BRANCH_OTHER: 0 0%

DRAM PAGES: 1048576
Allocated PAGES: 72955
