
*** ChampSim Multicore Out-of-Order Simulator ***

Warmup Instructions: 50000000
Simulation Instructions: 200000000
Number of CPUs: 1
LLC sets: 2048
LLC ways: 16
L0D sets: 16
L0D ways: 2
ROB size: 352
LQ size: 128
SQ size: 72
Secure Berti: OFF
Berti: OFF
Berti Fill: OFF
On commit prefetching: ON
Hit-based filter: OFF
Time-guarding: ON
Free-slotting: ON
Leap-frogging: ON
Train prefetcher on L0D bypass: OFF
No translation penalty for prefetchers: OFF
Prefetch to L0D only: OFF
Prefetch to L1D only: OFF
Clean evictions: ON
Commit loads: ON
Commit write: ON
Fill commit loads to L2C, LLC: ON
DRAM IO FREQUENCY: 6400
ROB SIZE: 352
Off-chip DRAM Size: 4096 MB Channels: 1 Width: 64-bit Data Rate: 6400 MT/s
CPU 0 runs /home/sumon/secure_berti/GhostMinion/../../traces/spec/649.fotonik3d_s-1176B.champsimtrace.xz
.xz
BTB has LRU replacement policy
ITLB has LRU replacement policy
DTLB has LRU replacement policy
STLB has LRU replacement policy
L1I has LRU replacement policy
L0D has LRU replacement policy
Bingo PHT WAYS: 16 and PHT_SIZE: 16384
L1D has LRU replacement policy
Bingo PHT WAYS: 16 and PHT_SIZE: 16384
L2C has LRU replacement policy
LLC has LRU replacement policy
Heartbeat CPU 0 instructions: 10000003 cycles: 3148372 heartbeat IPC: 3.17625 cumulative IPC: 3.17625 (Simulation time: 0 hr 1 min 12 sec) 
Heartbeat CPU 0 instructions: 20000002 cycles: 6295820 heartbeat IPC: 3.17718 cumulative IPC: 3.17671 (Simulation time: 0 hr 2 min 24 sec) 
Heartbeat CPU 0 instructions: 30000000 cycles: 9443314 heartbeat IPC: 3.17713 cumulative IPC: 3.17685 (Simulation time: 0 hr 3 min 37 sec) 
Heartbeat CPU 0 instructions: 40000003 cycles: 12590849 heartbeat IPC: 3.17709 cumulative IPC: 3.17691 (Simulation time: 0 hr 5 min 13 sec) 
Heartbeat CPU 0 instructions: 50000001 cycles: 15738374 heartbeat IPC: 3.1771 cumulative IPC: 3.17695 (Simulation time: 0 hr 7 min 15 sec) 

Warmup complete CPU 0 instructions: 50000001 cycles: 15738374 (Simulation time: 0 hr 7 min 15 sec) 

Heartbeat CPU 0 instructions: 60000000 cycles: 25742525 heartbeat IPC: 0.999585 cumulative IPC: 0.999585 (Simulation time: 0 hr 9 min 37 sec) 
Heartbeat CPU 0 instructions: 70000000 cycles: 35746437 heartbeat IPC: 0.999609 cumulative IPC: 0.999597 (Simulation time: 0 hr 12 min 0 sec) 
Heartbeat CPU 0 instructions: 80000002 cycles: 45751049 heartbeat IPC: 0.999539 cumulative IPC: 0.999578 (Simulation time: 0 hr 14 min 23 sec) 
Heartbeat CPU 0 instructions: 90000000 cycles: 55753331 heartbeat IPC: 0.999772 cumulative IPC: 0.999626 (Simulation time: 0 hr 16 min 46 sec) 
Heartbeat CPU 0 instructions: 100000000 cycles: 65759206 heartbeat IPC: 0.999413 cumulative IPC: 0.999584 (Simulation time: 0 hr 19 min 9 sec) 
Heartbeat CPU 0 instructions: 110000000 cycles: 75762712 heartbeat IPC: 0.99965 cumulative IPC: 0.999595 (Simulation time: 0 hr 21 min 30 sec) 
Heartbeat CPU 0 instructions: 120000001 cycles: 85768213 heartbeat IPC: 0.99945 cumulative IPC: 0.999574 (Simulation time: 0 hr 23 min 50 sec) 
Heartbeat CPU 0 instructions: 130000002 cycles: 95771089 heartbeat IPC: 0.999713 cumulative IPC: 0.999591 (Simulation time: 0 hr 26 min 10 sec) 
Heartbeat CPU 0 instructions: 140000003 cycles: 105778796 heartbeat IPC: 0.99923 cumulative IPC: 0.999551 (Simulation time: 0 hr 28 min 29 sec) 
Heartbeat CPU 0 instructions: 150000000 cycles: 115780918 heartbeat IPC: 0.999788 cumulative IPC: 0.999575 (Simulation time: 0 hr 30 min 49 sec) 
Heartbeat CPU 0 instructions: 160000000 cycles: 125787553 heartbeat IPC: 0.999337 cumulative IPC: 0.999553 (Simulation time: 0 hr 33 min 10 sec) 
Heartbeat CPU 0 instructions: 170000000 cycles: 135789747 heartbeat IPC: 0.999781 cumulative IPC: 0.999572 (Simulation time: 0 hr 35 min 30 sec) 
Heartbeat CPU 0 instructions: 180000001 cycles: 145791904 heartbeat IPC: 0.999784 cumulative IPC: 0.999588 (Simulation time: 0 hr 37 min 50 sec) 
Heartbeat CPU 0 instructions: 190000002 cycles: 155796954 heartbeat IPC: 0.999495 cumulative IPC: 0.999582 (Simulation time: 0 hr 40 min 0 sec) 
Heartbeat CPU 0 instructions: 200000003 cycles: 165800813 heartbeat IPC: 0.999614 cumulative IPC: 0.999584 (Simulation time: 0 hr 42 min 17 sec) 
Heartbeat CPU 0 instructions: 210000000 cycles: 175805136 heartbeat IPC: 0.999568 cumulative IPC: 0.999583 (Simulation time: 0 hr 44 min 33 sec) 
Heartbeat CPU 0 instructions: 220000000 cycles: 185808476 heartbeat IPC: 0.999666 cumulative IPC: 0.999588 (Simulation time: 0 hr 46 min 19 sec) 
Heartbeat CPU 0 instructions: 230000002 cycles: 195813659 heartbeat IPC: 0.999482 cumulative IPC: 0.999582 (Simulation time: 0 hr 49 min 0 sec) 
Heartbeat CPU 0 instructions: 240000002 cycles: 205816237 heartbeat IPC: 0.999742 cumulative IPC: 0.99959 (Simulation time: 0 hr 51 min 39 sec) 
Heartbeat CPU 0 instructions: 250000000 cycles: 215820658 heartbeat IPC: 0.999558 cumulative IPC: 0.999589 (Simulation time: 0 hr 53 min 42 sec) 
Finished CPU 0 instructions: 200000003 cycles: 200082285 cumulative IPC: 0.999589 (Simulation time: 0 hr 53 min 42 sec) 
 Instruction ID: 250000259

ChampSim completed all CPUs

Region of Interest Statistics

CPU 0 cumulative IPC: 0.999589 instructions: 200000003 cycles: 200082285
ITLB SPEC fills:          0  NON-SPEC fills:          0
ITLB Test counter :          0
ITLB Leapfrog:          0
ITLB MSHR merge:          0
ITLB TOTAL     ACCESS:   28071135  HIT:   28071135  MISS:          0  HIT %:        100  MISS %:          0   MPKI: 0
ITLB LOAD TRANSLATION NON_SPEC    ACCESS:   28071135  HIT:   28071135  MISS:          0  HIT %:        100  MISS %:          0   MPKI: 0
ITLB PREFETCH  REQUESTED:          0  ISSUED:          0  USEFUL:          0  USELESS:          0
ITLB USEFUL LOAD PREFETCHES:          0 PREFETCH ISSUED TO LOWER LEVEL:          0  ACCURACY: -nan
ITLB TIMELY PREFETCHES:          0 LATE PREFETCHES: 0 DROPPED PREFETCHES: 0
ITLB COMMIT LATE PREFETCHES: 0 NORMAL LATE: 0 MISSED OPPORTUNITY: 0 UNCOVERED: 0
ITLB PREFETCHES SAME FILL-ORIGIN LEVEL: 0 DIFFERENT FILL-ORIGIN LEVEL: 0
ITLB AVERAGE MISS LATENCY: -nan cycles
ITLB AVERAGE MISS LATENCY LOAD: -nan cycles
ITLB AVERAGE MISS LATENCY PREFETCH: -nan cycles
ITLB AVERAGE MSHR OCCUPANCY: 0
ITLB MSHR FULL: 0
ITLB RQ	ACCESS:   35091162	FORWARD:          0	MERGED:    7020028	TO_CACHE:   28071134

DTLB SPEC fills:          0  NON-SPEC fills:          0
DTLB Test counter :          0
DTLB Leapfrog:          0
DTLB MSHR merge:          0
DTLB TOTAL     ACCESS:   36221171  HIT:   36174196  MISS:      46975  HIT %:    99.8703  MISS %:   0.129689   MPKI: 0.234875
DTLB LOAD TRANSLATION NON_SPEC    ACCESS:   36221171  HIT:   36174196  MISS:      46975  HIT %:    99.8703  MISS %:   0.129689   MPKI: 0.234875
DTLB PREFETCH  REQUESTED:          0  ISSUED:          0  USEFUL:          0  USELESS:          0
DTLB USEFUL LOAD PREFETCHES:          0 PREFETCH ISSUED TO LOWER LEVEL:          0  ACCURACY: -nan
DTLB TIMELY PREFETCHES:          0 LATE PREFETCHES: 0 DROPPED PREFETCHES: 0
DTLB COMMIT LATE PREFETCHES: 0 NORMAL LATE: 0 MISSED OPPORTUNITY: 0 UNCOVERED: 0
DTLB PREFETCHES SAME FILL-ORIGIN LEVEL: 0 DIFFERENT FILL-ORIGIN LEVEL: 0
DTLB AVERAGE MISS LATENCY: 114.576 cycles
DTLB AVERAGE MISS LATENCY LOAD: -nan cycles
DTLB AVERAGE MISS LATENCY PREFETCH: -nan cycles
DTLB AVERAGE MSHR OCCUPANCY: 0.0073033
DTLB MSHR FULL: 0
DTLB RQ	ACCESS:   56901091	FORWARD:          0	MERGED:   20676518	TO_CACHE:   36224573

STLB SPEC fills:          0  NON-SPEC fills:          0
STLB Test counter :          0
STLB Leapfrog:          0
STLB MSHR merge:          0
STLB TOTAL     ACCESS:      46975  HIT:      19524  MISS:      27451  HIT %:    41.5625  MISS %:    58.4375   MPKI: 0.137255
STLB LOAD TRANSLATION NON_SPEC    ACCESS:      46975  HIT:      19524  MISS:      27451  HIT %:    41.5625  MISS %:    58.4375   MPKI: 0.137255
STLB PREFETCH  REQUESTED:          0  ISSUED:          0  USEFUL:          0  USELESS:          0
STLB USEFUL LOAD PREFETCHES:          0 PREFETCH ISSUED TO LOWER LEVEL:          0  ACCURACY: -nan
STLB TIMELY PREFETCHES:          0 LATE PREFETCHES: 0 DROPPED PREFETCHES: 0
STLB COMMIT LATE PREFETCHES: 0 NORMAL LATE: 0 MISSED OPPORTUNITY: 0 UNCOVERED: 0
STLB PREFETCHES SAME FILL-ORIGIN LEVEL: 0 DIFFERENT FILL-ORIGIN LEVEL: 0
STLB AVERAGE MISS LATENCY: 180.637 cycles
STLB AVERAGE MISS LATENCY LOAD: -nan cycles
STLB AVERAGE MISS LATENCY PREFETCH: -nan cycles
STLB AVERAGE MSHR OCCUPANCY: 0.00425758
STLB MSHR FULL: 0
STLB RQ	ACCESS:      46975	FORWARD:          0	MERGED:          0	TO_CACHE:      46975

STLB Hit, L1D data hit: 0
STLB Hit, L2C data hit: 0
STLB Hit, LLC data hit: 0
STLB Hit, LLC data miss: 0
STLB STLB hints to L2: 0
L0D SPEC fills:   25142520  NON-SPEC fills:          0
L0D TimeGuard Request with older TS:      17760 Restricted eviction:        301 read:     230829
L0D Test counter :          0
L0D Leapfrog:          0
L0D MSHR merge:    4423353
L0D TOTAL     ACCESS:   38436641  HIT:    9931613  MISS:   28505028  HIT %:    25.8389  MISS %:    74.1611   MPKI: 142.525
L0D LOAD      TOTAL       ACCESS:   38436641  HIT:    9931613  MISS:   28505028  HIT %:    25.8389  MISS %:    74.1611   MPKI: 142.525
L0D LOAD      NON_SPEC    ACCESS:    3363564  HIT:       1357  MISS:    3362207  HIT %:  0.0403441  MISS %:    99.9597   MPKI: 16.811
L0D LOAD      SPEC        ACCESS:   35073077  HIT:    9930256  MISS:   25142821  HIT %:     28.313  MISS %:     71.687   MPKI: 125.714
L0D PREFETCH  REQUESTED:          0  ISSUED:          0  USEFUL:          0  USELESS:          0
L0D USEFUL LOAD PREFETCHES:          0 PREFETCH ISSUED TO LOWER LEVEL:          0  ACCURACY: -nan
L0D TIMELY PREFETCHES:          0 LATE PREFETCHES: 0 DROPPED PREFETCHES: 0
L0D COMMIT LATE PREFETCHES: 0 NORMAL LATE: 0 MISSED OPPORTUNITY: 0 UNCOVERED: 0
L0D PREFETCHES SAME FILL-ORIGIN LEVEL: 0 DIFFERENT FILL-ORIGIN LEVEL: 0
L0D AVERAGE MISS LATENCY: 7.31672 cycles
L0D AVERAGE MISS LATENCY LOAD: 7.31672 cycles
L0D AVERAGE MISS LATENCY PREFETCH: -nan cycles
L0D AVERAGE MSHR OCCUPANCY: 1.13259
L0D MSHR FULL: 3.73309e-07
L0D RQ	ACCESS:   70166234	FORWARD:          0	MERGED:   27306241	TO_CACHE:   42859993
L0D WQ	ACCESS:   14041098	FORWARD:          0	MERGED:          0	TO_CACHE:   14041098

L1D SPEC fills:          0  NON-SPEC fills:    1081961
L1D Test counter :          0
L1D Leapfrog:          0
L1D MSHR merge:       5930
L1D TOTAL     ACCESS:   97468427  HIT:   92848037  MISS:    4620390  HIT %:    95.2596  MISS %:     4.7404   MPKI: 23.1019
L1D LOAD      TOTAL       ACCESS:   28499098  HIT:   25589536  MISS:    2909562  HIT %:    89.7907  MISS %:    10.2093   MPKI: 14.5478
L1D LOAD      NON_SPEC    ACCESS:    3362125  HIT:    2280164  MISS:    1081961  HIT %:    67.8191  MISS %:    32.1809   MPKI: 5.4098
L1D LOAD      SPEC        ACCESS:   25136973  HIT:   23309372  MISS:    1827601  HIT %:    92.7294  MISS %:    7.27057   MPKI: 9.138
L1D RFO       NON_SPEC    ACCESS:   13740683  HIT:   13737978  MISS:       2705  HIT %:    99.9803  MISS %:  0.0196861   MPKI: 0.013525
L1D COMMIT LOAD NON_SPEC    ACCESS:   30105406  HIT:   29967797  MISS:     137609  HIT %:    99.5429  MISS %:   0.457091   MPKI: 0.688045
L1D COMMIT WRITE NON_SPEC    ACCESS:   25123240  HIT:   23552726  MISS:    1570514  HIT %:    93.7488  MISS %:    6.25124   MPKI: 7.85257
L1D PREFETCH  REQUESTED:          0  ISSUED:          0  USEFUL:          0  USELESS:          0
L1D USEFUL LOAD PREFETCHES:          0 PREFETCH ISSUED TO LOWER LEVEL:          0  ACCURACY: -nan
L1D TIMELY PREFETCHES:          0 LATE PREFETCHES: 0 DROPPED PREFETCHES: 0
L1D COMMIT LATE PREFETCHES: 0 NORMAL LATE: 0 MISSED OPPORTUNITY: 0 UNCOVERED: 2911945
L1D PREFETCHES SAME FILL-ORIGIN LEVEL: 0 DIFFERENT FILL-ORIGIN LEVEL: 0
L1D AVERAGE MISS LATENCY: 13.4636 cycles
L1D AVERAGE MISS LATENCY LOAD: 20.6545 cycles
L1D AVERAGE MISS LATENCY PREFETCH: -nan cycles
L1D AVERAGE MSHR OCCUPANCY: 0.172913
L1D MSHR FULL: 0
L1D RQ	ACCESS:   66730454	FORWARD:          0	MERGED:    7732755	TO_CACHE:   58612934
L1D WQ	ACCESS:   39170240	FORWARD:     384765	MERGED:     299853	TO_CACHE:   38870387

L1D UNIQUE REGIONS ACCESSED: 0
L1D REGIONS CONFLICTS: 0
L1D Cross Page Prefetch Requests: 0
L1D Same Page Prefetch Requests: 0
L1D ROI Sum of L1D PQ occupancy: 0
L1D PREFETCHES PUSHED FROM L2C: 0
L1I SPEC fills:          0  NON-SPEC fills:          0
L1I Test counter :          0
L1I Leapfrog:          0
L1I MSHR merge:          0
L1I TOTAL     ACCESS:   35091162  HIT:   35091162  MISS:          0  HIT %:        100  MISS %:          0   MPKI: 0
L1I LOAD      TOTAL       ACCESS:   35091162  HIT:   35091162  MISS:          0  HIT %:        100  MISS %:          0   MPKI: 0
L1I LOAD      NON_SPEC    ACCESS:   35091162  HIT:   35091162  MISS:          0  HIT %:        100  MISS %:          0   MPKI: 0
L1I PREFETCH  REQUESTED:          0  ISSUED:          0  USEFUL:          0  USELESS:          0
L1I USEFUL LOAD PREFETCHES:          0 PREFETCH ISSUED TO LOWER LEVEL:          0  ACCURACY: -nan
L1I TIMELY PREFETCHES:          0 LATE PREFETCHES: 0 DROPPED PREFETCHES: 0
L1I COMMIT LATE PREFETCHES: 0 NORMAL LATE: 0 MISSED OPPORTUNITY: 0 UNCOVERED: 0
L1I PREFETCHES SAME FILL-ORIGIN LEVEL: 0 DIFFERENT FILL-ORIGIN LEVEL: 0
L1I AVERAGE MISS LATENCY: -nan cycles
L1I AVERAGE MISS LATENCY LOAD: -nan cycles
L1I AVERAGE MISS LATENCY PREFETCH: -nan cycles
L1I AVERAGE MSHR OCCUPANCY: 0
L1I MSHR FULL: 0
L1I RQ	ACCESS:   45650364	FORWARD:          0	MERGED:   10559202	TO_CACHE:   35091162

BTB SPEC fills:          0  NON-SPEC fills:          0
BTB Test counter :          0
BTB Leapfrog:          0
BTB MSHR merge:          0
BTB TOTAL     ACCESS:    3509177  HIT:    3509168  MISS:          9  HIT %:    99.9997  MISS %: 0.00025647   MPKI: 4.5e-05
BTB BRANCH_DIRECT_JUMP	ACCESS:        876  HIT:        874  MISS:          2
BTB BRANCH_INDIRECT	ACCESS:          0  HIT:          0  MISS:          0
BTB BRANCH_CONDITIONAL	ACCESS:    3506549  HIT:    3506546  MISS:          3
BTB BRANCH_DIRECT_CALL	ACCESS:        876  HIT:        874  MISS:          2
BTB BRANCH_INDIRECT_CALL	ACCESS:          0  HIT:          0  MISS:          0
BTB BRANCH_RETURN	ACCESS:        876  HIT:        874  MISS:          2
BTB BRANCH_OTHER ACCESS:          0  HIT:          0  MISS:          0

L2C SPEC fills:          0  NON-SPEC fills:      31166
L2C Test counter :          0
L2C Leapfrog:          0
L2C MSHR merge:      85132
L2C TOTAL     ACCESS:    8363704  HIT:    6457019  MISS:    1906685  HIT %:    77.2029  MISS %:    22.7971   MPKI: 9.53342
L2C LOAD      TOTAL       ACCESS:    2909562  HIT:    2731067  MISS:     178495  HIT %:    93.8652  MISS %:    6.13477   MPKI: 0.892475
L2C LOAD      NON_SPEC    ACCESS:    1081961  HIT:    1050795  MISS:      31166  HIT %:    97.1195  MISS %:    2.88051   MPKI: 0.15583
L2C LOAD      SPEC        ACCESS:    1827601  HIT:    1680272  MISS:     147329  HIT %:    91.9387  MISS %:    8.06133   MPKI: 0.736645
L2C RFO       NON_SPEC    ACCESS:       2705  HIT:       2688  MISS:         17  HIT %:    99.3715  MISS %:   0.628466   MPKI: 8.5e-05
L2C PREFETCH  NON_SPEC    ACCESS:    2439682  HIT:     850656  MISS:    1589026  HIT %:    34.8675  MISS %:    65.1325   MPKI: 7.94513
L2C WRITEBACK NON_SPEC    ACCESS:     736271  HIT:     736271  MISS:          0  HIT %:        100  MISS %:          0   MPKI: 0
L2C CLEAN_EVICTION NON_SPEC    ACCESS:    2000710  HIT:    1865091  MISS:     135619  HIT %:    93.2215  MISS %:    6.77854   MPKI: 0.678095
L2C COMMIT LOAD NON_SPEC    ACCESS:     137609  HIT:     137604  MISS:          5  HIT %:    99.9964  MISS %: 0.00363348   MPKI: 2.5e-05
L2C LOAD TRANSLATION NON_SPEC    ACCESS:     137165  HIT:     133642  MISS:       3523  HIT %:    97.4316  MISS %:    2.56844   MPKI: 0.017615
L2C PREFETCH  REQUESTED:    2551088  ISSUED:    2551088  USEFUL:    1577151  USELESS:      11852
L2C USEFUL LOAD PREFETCHES:    1577151 PREFETCH ISSUED TO LOWER LEVEL:    1674174  ACCURACY: 94.2047
L2C TIMELY PREFETCHES:    1577151 LATE PREFETCHES: 85137 DROPPED PREFETCHES: 0
L2C COMMIT LATE PREFETCHES: 36443 NORMAL LATE: 85139 MISSED OPPORTUNITY: 631 UNCOVERED: 56287
L2C PREFETCHES SAME FILL-ORIGIN LEVEL: 1674174 DIFFERENT FILL-ORIGIN LEVEL: 0
L2C AVERAGE MISS LATENCY: 219.951 cycles
L2C AVERAGE MISS LATENCY LOAD: 137.59 cycles
L2C AVERAGE MISS LATENCY PREFETCH: 248.025 cycles
L2C AVERAGE MSHR OCCUPANCY: 2.13692
L2C MSHR FULL: 0
L2C RQ	ACCESS:    3187041	FORWARD:          0	MERGED:          0	TO_CACHE:    3187041
L2C WQ	ACCESS:    2737014	FORWARD:          0	MERGED:         33	TO_CACHE:    2736981
L2C PQ	ACCESS:    2551088	FORWARD:          0	MERGED:         16	TO_CACHE:    2551072

L2C Instructions Evicting Data 0
L2C Translations Evicting Data 3517
L2C Data Evicting Data 1617005
L2C Instructions Evicting Instructions 0
L2C Translations Evicting Instructions 0
L2C Data Evicting Instructions 0
L2C Instructions Evicting Translations 0
L2C Translations Evicting Translations 6
L2C Data Evicting Translations 3209
L2C Dense regions hint from L2: 0
PSCL5 SPEC fills:          0  NON-SPEC fills:          0
PSCL5 Test counter :          0
PSCL5 Leapfrog:          0
PSCL5 MSHR merge:          0
PSCL5 TOTAL     ACCESS:          0  HIT:          0  MISS:          0  HIT %:       -nan  MISS %:       -nan   MPKI: 0
PSCL5 PREFETCH  REQUESTED:          0  ISSUED:          0  USEFUL:          0  USELESS:          0
PSCL5 USEFUL LOAD PREFETCHES:          0 PREFETCH ISSUED TO LOWER LEVEL:          0  ACCURACY: -nan
PSCL5 TIMELY PREFETCHES:          0 LATE PREFETCHES: 0 DROPPED PREFETCHES: 0
PSCL5 COMMIT LATE PREFETCHES: 0 NORMAL LATE: 0 MISSED OPPORTUNITY: 0 UNCOVERED: 0
PSCL5 PREFETCHES SAME FILL-ORIGIN LEVEL: 0 DIFFERENT FILL-ORIGIN LEVEL: 0

PSCL4 SPEC fills:          0  NON-SPEC fills:          0
PSCL4 Test counter :          0
PSCL4 Leapfrog:          0
PSCL4 MSHR merge:          0
PSCL4 TOTAL     ACCESS:          0  HIT:          0  MISS:          0  HIT %:       -nan  MISS %:       -nan   MPKI: 0
PSCL4 PREFETCH  REQUESTED:          0  ISSUED:          0  USEFUL:          0  USELESS:          0
PSCL4 USEFUL LOAD PREFETCHES:          0 PREFETCH ISSUED TO LOWER LEVEL:          0  ACCURACY: -nan
PSCL4 TIMELY PREFETCHES:          0 LATE PREFETCHES: 0 DROPPED PREFETCHES: 0
PSCL4 COMMIT LATE PREFETCHES: 0 NORMAL LATE: 0 MISSED OPPORTUNITY: 0 UNCOVERED: 0
PSCL4 PREFETCHES SAME FILL-ORIGIN LEVEL: 0 DIFFERENT FILL-ORIGIN LEVEL: 0

PSCL3 SPEC fills:          0  NON-SPEC fills:          0
PSCL3 Test counter :          0
PSCL3 Leapfrog:          0
PSCL3 MSHR merge:          0
PSCL3 TOTAL     ACCESS:          0  HIT:          0  MISS:          0  HIT %:       -nan  MISS %:       -nan   MPKI: 0
PSCL3 PREFETCH  REQUESTED:          0  ISSUED:          0  USEFUL:          0  USELESS:          0
PSCL3 USEFUL LOAD PREFETCHES:          0 PREFETCH ISSUED TO LOWER LEVEL:          0  ACCURACY: -nan
PSCL3 TIMELY PREFETCHES:          0 LATE PREFETCHES: 0 DROPPED PREFETCHES: 0
PSCL3 COMMIT LATE PREFETCHES: 0 NORMAL LATE: 0 MISSED OPPORTUNITY: 0 UNCOVERED: 0
PSCL3 PREFETCHES SAME FILL-ORIGIN LEVEL: 0 DIFFERENT FILL-ORIGIN LEVEL: 0

PSCL2 SPEC fills:          0  NON-SPEC fills:          0
PSCL2 Test counter :          0
PSCL2 Leapfrog:          0
PSCL2 MSHR merge:          0
PSCL2 TOTAL     ACCESS:          0  HIT:          0  MISS:          0  HIT %:       -nan  MISS %:       -nan   MPKI: 0
PSCL2 PREFETCH  REQUESTED:          0  ISSUED:          0  USEFUL:          0  USELESS:          0
PSCL2 USEFUL LOAD PREFETCHES:          0 PREFETCH ISSUED TO LOWER LEVEL:          0  ACCURACY: -nan
PSCL2 TIMELY PREFETCHES:          0 LATE PREFETCHES: 0 DROPPED PREFETCHES: 0
PSCL2 COMMIT LATE PREFETCHES: 0 NORMAL LATE: 0 MISSED OPPORTUNITY: 0 UNCOVERED: 0
PSCL2 PREFETCHES SAME FILL-ORIGIN LEVEL: 0 DIFFERENT FILL-ORIGIN LEVEL: 0

LLC SPEC fills:          0  NON-SPEC fills:      26711
LLC Test counter :          0
LLC Leapfrog:          0
LLC MSHR merge:          0
LLC TOTAL     ACCESS:    3525653  HIT:    1700945  MISS:    1824708  HIT %:    48.2448  MISS %:    51.7552   MPKI: 9.12354
LLC LOAD      TOTAL       ACCESS:      93363  HIT:        224  MISS:      93139  HIT %:   0.239924  MISS %:    99.7601   MPKI: 0.465695
LLC LOAD      NON_SPEC    ACCESS:      26784  HIT:         73  MISS:      26711  HIT %:   0.272551  MISS %:    99.7274   MPKI: 0.133555
LLC LOAD      SPEC        ACCESS:      66579  HIT:        151  MISS:      66428  HIT %:   0.226798  MISS %:    99.7732   MPKI: 0.33214
LLC RFO       NON_SPEC    ACCESS:         17  HIT:         17  MISS:          0  HIT %:        100  MISS %:          0   MPKI: 0
LLC PREFETCH  NON_SPEC    ACCESS:    1674130  HIT:       1489  MISS:    1672641  HIT %:  0.0889417  MISS %:    99.9111   MPKI: 8.3632
LLC WRITEBACK NON_SPEC    ACCESS:     729865  HIT:     729837  MISS:         28  HIT %:    99.9962  MISS %: 0.00383633   MPKI: 0.00014
LLC CLEAN_EVICTION NON_SPEC    ACCESS:    1024755  HIT:     969374  MISS:      55381  HIT %:    94.5957  MISS %:    5.40432   MPKI: 0.276905
LLC LOAD TRANSLATION NON_SPEC    ACCESS:       3523  HIT:          4  MISS:       3519  HIT %:    0.11354  MISS %:    99.8865   MPKI: 0.017595
LLC PREFETCH  REQUESTED:          0  ISSUED:          0  USEFUL:        134  USELESS:    1672833
LLC USEFUL LOAD PREFETCHES:        134 PREFETCH ISSUED TO LOWER LEVEL:    1672647  ACCURACY: 0.00801125
LLC TIMELY PREFETCHES:        134 LATE PREFETCHES: 0 DROPPED PREFETCHES: 0
LLC COMMIT LATE PREFETCHES: 0 NORMAL LATE: 0 MISSED OPPORTUNITY: 0 UNCOVERED: 0
LLC PREFETCHES SAME FILL-ORIGIN LEVEL: 0 DIFFERENT FILL-ORIGIN LEVEL: 0
LLC AVERAGE MISS LATENCY: 206.109 cycles
LLC AVERAGE MISS LATENCY LOAD: 156.629 cycles
LLC AVERAGE MISS LATENCY PREFETCH: 215.771 cycles
LLC AVERAGE MSHR OCCUPANCY: 0.711536
LLC MSHR FULL: 0
LLC RQ	ACCESS:      96903	FORWARD:          0	MERGED:          0	TO_CACHE:      96903
LLC WQ	ACCESS:    1754622	FORWARD:         38	MERGED:          0	TO_CACHE:    1754622
LLC PQ	ACCESS:    1674174	FORWARD:          0	MERGED:          0	TO_CACHE:    1674136

LLC Dense regions hint to LLC: 0

RAW hits: 2889
Loads Generated: 70169131
Loads sent to L1D: 70166234
Stores Generated: 14041096
Stores sent to L1D: 14041098
Major fault: 0 Minor fault: 34498
Allocated PAGES: 34498
Total Load insts: 87707380
Total Non-spec loads: 8086716
Percentage of speculative loads: 90.7799

LeapFrogging counter: 0
Commit hits: 25129144 miss: 38225428
Commit hit %: 39.6643 miss %: 60.3357
Commits not translated: 0
Loads retired: 2909562
Stores retired: 14041098
Cache fills: 2909562
L1D response latency: 20.6545 cycles
Load retirement latency: 36.0494 cycles
OOO test counter: 0
Discarded buffer inserts: 25129144 hits: 410593 hit %: 1.63393
Filter prediction accuracy: -nan
[Bingo] PHT Access: 89970
[Bingo] PHT Hit PC+Addr: 2686
[Bingo] PHT Hit PC+Offs: 84814
[Bingo] PHT Miss: 2470
[Bingo] Prefetch PC+Addr: 0
[Bingo] Prefetch PC+Offs: 0
[Bingo] Useful PC+Addr: 0
[Bingo] Useful PC+Offs: 0
[Bingo] Useless PC+Addr: 0
[Bingo] Useless PC+Offs: 0
[Bingo] L1 Prefetch per Region: 0
[Bingo] L2 Prefetch per Region: 30.5889
[Bingo] L3 Prefetch per Region: 0
[Bingo] No Prefetch per Region: 1.41105
[Bingo] Number of Voters Mean: 15.6312
[Bingo] Number of Voters SD: 8.13853
PHT read accesses: 1344023
PHT write accesses: 85839
AT read accesses: 2899168
AT write accesses: 2899170
FT read accesses: 274187
FT write accesses: 89970
PS read accesses: 175956
PS write accesses: 87500
PHT tag read accesses: 4104293
PHT tag write accesses: 88525
AT tag read accesses: 125857789
AT tag write accesses: 2985009
FT tag read accesses: 82265069
FT tag write accesses: 272053
PS tag read accesses: 49440287
PS tag write accesses: 263434
[Bingo] PHT Access: 85490
[Bingo] PHT Hit PC+Addr: 15566
[Bingo] PHT Hit PC+Offs: 69578
[Bingo] PHT Miss: 346
[Bingo] Prefetch PC+Addr: 0
[Bingo] Prefetch PC+Offs: 0
[Bingo] Useful PC+Addr: 0
[Bingo] Useful PC+Offs: 0
[Bingo] Useless PC+Addr: 0
[Bingo] Useless PC+Offs: 0
[Bingo] L1 Prefetch per Region: 0
[Bingo] L2 Prefetch per Region: 30.963
[Bingo] L3 Prefetch per Region: 0
[Bingo] No Prefetch per Region: 1.03701
[Bingo] Number of Voters Mean: 15.6341
[Bingo] Number of Voters SD: 8.18125
PHT read accesses: 1211635
PHT write accesses: 83974
AT read accesses: 69279749
AT write accesses: 69363271
FT read accesses: 1862131
FT write accesses: 85490
PS read accesses: 575970
PS write accesses: 85144
PHT tag read accesses: 3896163
PHT tag write accesses: 99540
AT tag read accesses: 1154882711
AT tag write accesses: 69363723
FT tag read accesses: 46678730
FT tag write accesses: 1059303
PS tag read accesses: 1125516140
PS tag write accesses: 661105

DRAM Statistics
 CHANNEL 0
 RQ ROW_BUFFER_HIT:    1308136  ROW_BUFFER_MISS:     461163
 DBUS_CONGESTED:          3
 WQ ROW_BUFFER_HIT:     451873  ROW_BUFFER_MISS:    1302496  FULL:          0

 AVG_CONGESTED_CYCLE: 5
 All warmup complete: 2
Channel 0 Bank busy for read cycles: 0
Channel 0 Bank busy for write cycles: 0
Channel 0
Rank 0
0banks busy for read cycles: 136420390
0banks busy for write cycles: 64405
1banks busy for read cycles: 7296536
1banks busy for write cycles: 5164785
2banks busy for read cycles: 3231190
2banks busy for write cycles: 1983608
3banks busy for read cycles: 111880
3banks busy for write cycles: 1353929
4banks busy for read cycles: 122685
4banks busy for write cycles: 1144792
5banks busy for read cycles: 384730
5banks busy for write cycles: 1454139
6banks busy for read cycles: 3546203
6banks busy for write cycles: 2009829
7banks busy for read cycles: 3589746
7banks busy for write cycles: 3654750
8banks busy for read cycles: 8966153
8banks busy for write cycles: 19582536

CPU 0 Branch Prediction Accuracy: 99.9751% MPKI: 0.00438 Average ROB Occupancy at Mispredict: 70.5925
Branch types
NOT_BRANCH: 196487637 98.2438%
BRANCH_DIRECT_JUMP: 876 0.000438%
BRANCH_INDIRECT: 0 0%
BRANCH_CONDITIONAL: 3509615 1.75481%
BRANCH_DIRECT_CALL: 876 0.000438%
BRANCH_INDIRECT_CALL: 0 0%
BRANCH_RETURN: 876 0.000438%
BRANCH_OTHER: 0 0%

DRAM PAGES: 1048576
Allocated PAGES: 34498
