
*** ChampSim Multicore Out-of-Order Simulator ***

Warmup Instructions: 50000000
Simulation Instructions: 200000000
Number of CPUs: 1
LLC sets: 2048
LLC ways: 16
L0D sets: 16
L0D ways: 2
ROB size: 352
LQ size: 128
SQ size: 72
Secure Berti: OFF
Berti: OFF
Berti Fill: OFF
On commit prefetching: ON
Hit-based filter: OFF
Time-guarding: ON
Free-slotting: ON
Leap-frogging: ON
Train prefetcher on L0D bypass: OFF
No translation penalty for prefetchers: OFF
Prefetch to L0D only: OFF
Prefetch to L1D only: OFF
Clean evictions: ON
Commit loads: ON
Commit write: ON
Fill commit loads to L2C, LLC: ON
DRAM IO FREQUENCY: 6400
ROB SIZE: 352
Off-chip DRAM Size: 4096 MB Channels: 1 Width: 64-bit Data Rate: 6400 MT/s
CPU 0 runs /home/sumon/secure_berti/GhostMinion/../../traces/spec/654.roms_s-293B.champsimtrace.xz
.xz
BTB has LRU replacement policy
ITLB has LRU replacement policy
DTLB has LRU replacement policy
STLB has LRU replacement policy
L1I has LRU replacement policy
L0D has LRU replacement policy
Bingo PHT WAYS: 16 and PHT_SIZE: 16384
L1D has LRU replacement policy
Bingo PHT WAYS: 16 and PHT_SIZE: 16384
L2C has LRU replacement policy
LLC has LRU replacement policy
Heartbeat CPU 0 instructions: 10000001 cycles: 3407159 heartbeat IPC: 2.935 cumulative IPC: 2.935 (Simulation time: 0 hr 1 min 20 sec) 
Heartbeat CPU 0 instructions: 20000003 cycles: 6885844 heartbeat IPC: 2.87465 cumulative IPC: 2.90451 (Simulation time: 0 hr 2 min 42 sec) 
Heartbeat CPU 0 instructions: 30000000 cycles: 10291865 heartbeat IPC: 2.93598 cumulative IPC: 2.91492 (Simulation time: 0 hr 4 min 6 sec) 
Heartbeat CPU 0 instructions: 40000003 cycles: 13770861 heartbeat IPC: 2.87439 cumulative IPC: 2.90468 (Simulation time: 0 hr 5 min 40 sec) 
Heartbeat CPU 0 instructions: 50000003 cycles: 17176107 heartbeat IPC: 2.93665 cumulative IPC: 2.91102 (Simulation time: 0 hr 7 min 14 sec) 

Warmup complete CPU 0 instructions: 50000003 cycles: 17176107 (Simulation time: 0 hr 7 min 14 sec) 

Heartbeat CPU 0 instructions: 60000002 cycles: 27025930 heartbeat IPC: 1.01525 cumulative IPC: 1.01525 (Simulation time: 0 hr 9 min 8 sec) 
Heartbeat CPU 0 instructions: 70000003 cycles: 36560733 heartbeat IPC: 1.04879 cumulative IPC: 1.03175 (Simulation time: 0 hr 10 min 59 sec) 
Heartbeat CPU 0 instructions: 80000002 cycles: 46254376 heartbeat IPC: 1.0316 cumulative IPC: 1.0317 (Simulation time: 0 hr 12 min 54 sec) 
Heartbeat CPU 0 instructions: 90000002 cycles: 55959008 heartbeat IPC: 1.03044 cumulative IPC: 1.03138 (Simulation time: 0 hr 14 min 47 sec) 
Heartbeat CPU 0 instructions: 100000003 cycles: 65611075 heartbeat IPC: 1.03605 cumulative IPC: 1.03231 (Simulation time: 0 hr 16 min 40 sec) 
Heartbeat CPU 0 instructions: 110000000 cycles: 75345752 heartbeat IPC: 1.02726 cumulative IPC: 1.03147 (Simulation time: 0 hr 18 min 34 sec) 
Heartbeat CPU 0 instructions: 120000000 cycles: 84900581 heartbeat IPC: 1.04659 cumulative IPC: 1.0336 (Simulation time: 0 hr 20 min 26 sec) 
Heartbeat CPU 0 instructions: 130000000 cycles: 95264779 heartbeat IPC: 0.96486 cumulative IPC: 1.02448 (Simulation time: 0 hr 22 min 25 sec) 
Heartbeat CPU 0 instructions: 140000003 cycles: 105293839 heartbeat IPC: 0.997103 cumulative IPC: 1.02136 (Simulation time: 0 hr 24 min 33 sec) 
Heartbeat CPU 0 instructions: 150000003 cycles: 115318306 heartbeat IPC: 0.997559 cumulative IPC: 1.01893 (Simulation time: 0 hr 26 min 41 sec) 
Heartbeat CPU 0 instructions: 160000000 cycles: 125347691 heartbeat IPC: 0.99707 cumulative IPC: 1.0169 (Simulation time: 0 hr 28 min 48 sec) 
Heartbeat CPU 0 instructions: 170000002 cycles: 135372309 heartbeat IPC: 0.997544 cumulative IPC: 1.01526 (Simulation time: 0 hr 30 min 56 sec) 
Heartbeat CPU 0 instructions: 180000001 cycles: 145410214 heartbeat IPC: 0.996224 cumulative IPC: 1.01377 (Simulation time: 0 hr 33 min 4 sec) 
Heartbeat CPU 0 instructions: 190000003 cycles: 155433766 heartbeat IPC: 0.997651 cumulative IPC: 1.0126 (Simulation time: 0 hr 35 min 13 sec) 
Heartbeat CPU 0 instructions: 200000001 cycles: 165451743 heartbeat IPC: 0.998205 cumulative IPC: 1.01163 (Simulation time: 0 hr 37 min 21 sec) 
Heartbeat CPU 0 instructions: 210000001 cycles: 175486525 heartbeat IPC: 0.996534 cumulative IPC: 1.01067 (Simulation time: 0 hr 39 min 47 sec) 
Heartbeat CPU 0 instructions: 220000000 cycles: 185521678 heartbeat IPC: 0.996497 cumulative IPC: 1.00983 (Simulation time: 0 hr 42 min 39 sec) 
Heartbeat CPU 0 instructions: 230000000 cycles: 195553773 heartbeat IPC: 0.996801 cumulative IPC: 1.00909 (Simulation time: 0 hr 45 min 29 sec) 
Heartbeat CPU 0 instructions: 240000000 cycles: 205584912 heartbeat IPC: 0.996896 cumulative IPC: 1.00845 (Simulation time: 0 hr 47 min 23 sec) 
Heartbeat CPU 0 instructions: 250000002 cycles: 215585884 heartbeat IPC: 0.999903 cumulative IPC: 1.00801 (Simulation time: 0 hr 49 min 10 sec) 
Finished CPU 0 instructions: 200000003 cycles: 198409778 cumulative IPC: 1.00801 (Simulation time: 0 hr 49 min 10 sec) 
 Instruction ID: 250000113

ChampSim completed all CPUs

Region of Interest Statistics

CPU 0 cumulative IPC: 1.00801 instructions: 200000003 cycles: 198409778
ITLB SPEC fills:          0  NON-SPEC fills:          0
ITLB Test counter :          0
ITLB Leapfrog:          0
ITLB MSHR merge:          0
ITLB TOTAL     ACCESS:   27356164  HIT:   27356148  MISS:         16  HIT %:    99.9999  MISS %: 5.84877e-05   MPKI: 8e-05
ITLB LOAD TRANSLATION NON_SPEC    ACCESS:   27356164  HIT:   27356148  MISS:         16  HIT %:    99.9999  MISS %: 5.84877e-05   MPKI: 8e-05
ITLB PREFETCH  REQUESTED:          0  ISSUED:          0  USEFUL:          0  USELESS:          0
ITLB USEFUL LOAD PREFETCHES:          0 PREFETCH ISSUED TO LOWER LEVEL:          0  ACCURACY: -nan
ITLB TIMELY PREFETCHES:          0 LATE PREFETCHES: 0 DROPPED PREFETCHES: 0
ITLB COMMIT LATE PREFETCHES: 0 NORMAL LATE: 0 MISSED OPPORTUNITY: 0 UNCOVERED: 0
ITLB PREFETCHES SAME FILL-ORIGIN LEVEL: 0 DIFFERENT FILL-ORIGIN LEVEL: 0
ITLB AVERAGE MISS LATENCY: 307.375 cycles
ITLB AVERAGE MISS LATENCY LOAD: -nan cycles
ITLB AVERAGE MISS LATENCY PREFETCH: -nan cycles
ITLB AVERAGE MSHR OCCUPANCY: 1.09664e-07
ITLB MSHR FULL: 0
ITLB RQ	ACCESS:   34420298	FORWARD:          0	MERGED:    7064132	TO_CACHE:   27356166

DTLB SPEC fills:          0  NON-SPEC fills:          0
DTLB Test counter :          0
DTLB Leapfrog:          0
DTLB MSHR merge:          0
DTLB TOTAL     ACCESS:   59502821  HIT:   59424625  MISS:      78196  HIT %:    99.8686  MISS %:   0.131416   MPKI: 0.39098
DTLB LOAD TRANSLATION NON_SPEC    ACCESS:   59502821  HIT:   59424625  MISS:      78196  HIT %:    99.8686  MISS %:   0.131416   MPKI: 0.39098
DTLB PREFETCH  REQUESTED:          0  ISSUED:          0  USEFUL:          0  USELESS:          0
DTLB USEFUL LOAD PREFETCHES:          0 PREFETCH ISSUED TO LOWER LEVEL:          0  ACCURACY: -nan
DTLB TIMELY PREFETCHES:          0 LATE PREFETCHES: 0 DROPPED PREFETCHES: 0
DTLB COMMIT LATE PREFETCHES: 0 NORMAL LATE: 0 MISSED OPPORTUNITY: 0 UNCOVERED: 0
DTLB PREFETCHES SAME FILL-ORIGIN LEVEL: 0 DIFFERENT FILL-ORIGIN LEVEL: 0
DTLB AVERAGE MISS LATENCY: 366.772 cycles
DTLB AVERAGE MISS LATENCY LOAD: -nan cycles
DTLB AVERAGE MISS LATENCY PREFETCH: -nan cycles
DTLB AVERAGE MSHR OCCUPANCY: 0.0182664
DTLB MSHR FULL: 3.35851e-08
DTLB RQ	ACCESS:   67541863	FORWARD:          0	MERGED:    7991724	TO_CACHE:   59550139

STLB SPEC fills:          0  NON-SPEC fills:          0
STLB Test counter :          0
STLB Leapfrog:          0
STLB MSHR merge:          0
STLB TOTAL     ACCESS:      78212  HIT:      30372  MISS:      47840  HIT %:    38.8329  MISS %:    61.1671   MPKI: 0.2392
STLB LOAD TRANSLATION NON_SPEC    ACCESS:      78212  HIT:      30372  MISS:      47840  HIT %:    38.8329  MISS %:    61.1671   MPKI: 0.2392
STLB PREFETCH  REQUESTED:          0  ISSUED:          0  USEFUL:          0  USELESS:          0
STLB USEFUL LOAD PREFETCHES:          0 PREFETCH ISSUED TO LOWER LEVEL:          0  ACCURACY: -nan
STLB TIMELY PREFETCHES:          0 LATE PREFETCHES: 0 DROPPED PREFETCHES: 0
STLB COMMIT LATE PREFETCHES: 0 NORMAL LATE: 0 MISSED OPPORTUNITY: 0 UNCOVERED: 0
STLB PREFETCHES SAME FILL-ORIGIN LEVEL: 0 DIFFERENT FILL-ORIGIN LEVEL: 0
STLB AVERAGE MISS LATENCY: 584.617 cycles
STLB AVERAGE MISS LATENCY LOAD: -nan cycles
STLB AVERAGE MISS LATENCY PREFETCH: -nan cycles
STLB AVERAGE MSHR OCCUPANCY: 0.844205
STLB MSHR FULL: 0
STLB RQ	ACCESS:      78212	FORWARD:          0	MERGED:          0	TO_CACHE:      78212

STLB Hit, L1D data hit: 0
STLB Hit, L2C data hit: 0
STLB Hit, LLC data hit: 0
STLB Hit, LLC data miss: 0
STLB STLB hints to L2: 0
L0D SPEC fills:   32733204  NON-SPEC fills:          0
L0D TimeGuard Request with older TS:    1530130 Restricted eviction:    1528903 read:    2230390
L0D Test counter :          0
L0D Leapfrog:          0
L0D MSHR merge:    3977254
L0D TOTAL     ACCESS:   52156143  HIT:   10911400  MISS:   41244743  HIT %:    20.9206  MISS %:    79.0794   MPKI: 206.224
L0D LOAD      TOTAL       ACCESS:   52156143  HIT:   10911400  MISS:   41244743  HIT %:    20.9206  MISS %:    79.0794   MPKI: 206.224
L0D LOAD      NON_SPEC    ACCESS:    8081838  HIT:    1099183  MISS:    6982655  HIT %:    13.6007  MISS %:    86.3993   MPKI: 34.9133
L0D LOAD      SPEC        ACCESS:   44074305  HIT:    9812217  MISS:   34262088  HIT %:    22.2629  MISS %:    77.7371   MPKI: 171.31
L0D PREFETCH  REQUESTED:          0  ISSUED:          0  USEFUL:          0  USELESS:          0
L0D USEFUL LOAD PREFETCHES:          0 PREFETCH ISSUED TO LOWER LEVEL:          0  ACCURACY: -nan
L0D TIMELY PREFETCHES:          0 LATE PREFETCHES: 0 DROPPED PREFETCHES: 0
L0D COMMIT LATE PREFETCHES: 0 NORMAL LATE: 0 MISSED OPPORTUNITY: 0 UNCOVERED: 0
L0D PREFETCHES SAME FILL-ORIGIN LEVEL: 0 DIFFERENT FILL-ORIGIN LEVEL: 0
L0D AVERAGE MISS LATENCY: 6.27876 cycles
L0D AVERAGE MISS LATENCY LOAD: 6.27876 cycles
L0D AVERAGE MISS LATENCY PREFETCH: -nan cycles
L0D AVERAGE MSHR OCCUPANCY: 1.41971
L0D MSHR FULL: 0.000202805
L0D RQ	ACCESS:   73223190	FORWARD:          0	MERGED:   17089788	TO_CACHE:   56133402
L0D WQ	ACCESS:   11408461	FORWARD:          0	MERGED:          0	TO_CACHE:   11408461

L1D SPEC fills:          0  NON-SPEC fills:     185644
L1D Test counter :          0
L1D Leapfrog:          0
L1D MSHR merge:      43722
L1D TOTAL     ACCESS:   97136866  HIT:   92550242  MISS:    4586624  HIT %:    95.2782  MISS %:    4.72182   MPKI: 22.9331
L1D LOAD      TOTAL       ACCESS:   41201020  HIT:   38949255  MISS:    2251765  HIT %:    94.5347  MISS %:    5.46531   MPKI: 11.2588
L1D LOAD      NON_SPEC    ACCESS:    6982549  HIT:    6796905  MISS:     185644  HIT %:    97.3413  MISS %:    2.65869   MPKI: 0.92822
L1D LOAD      SPEC        ACCESS:   34218471  HIT:   32152350  MISS:    2066121  HIT %:     93.962  MISS %:    6.03803   MPKI: 10.3306
L1D RFO       NON_SPEC    ACCESS:    9646502  HIT:    9242679  MISS:     403823  HIT %:    95.8138  MISS %:    4.18621   MPKI: 2.01911
L1D COMMIT LOAD NON_SPEC    ACCESS:   14762760  HIT:   14636407  MISS:     126353  HIT %:    99.1441  MISS %:    0.85589   MPKI: 0.631765
L1D COMMIT WRITE NON_SPEC    ACCESS:   31526584  HIT:   29721901  MISS:    1804683  HIT %:    94.2757  MISS %:    5.72432   MPKI: 9.02341
L1D PREFETCH  REQUESTED:          0  ISSUED:          0  USEFUL:          0  USELESS:          0
L1D USEFUL LOAD PREFETCHES:          0 PREFETCH ISSUED TO LOWER LEVEL:          0  ACCURACY: -nan
L1D TIMELY PREFETCHES:          0 LATE PREFETCHES: 0 DROPPED PREFETCHES: 0
L1D COMMIT LATE PREFETCHES: 0 NORMAL LATE: 0 MISSED OPPORTUNITY: 0 UNCOVERED: 2273877
L1D PREFETCHES SAME FILL-ORIGIN LEVEL: 0 DIFFERENT FILL-ORIGIN LEVEL: 0
L1D AVERAGE MISS LATENCY: 28.0118 cycles
L1D AVERAGE MISS LATENCY LOAD: 20.5173 cycles
L1D AVERAGE MISS LATENCY PREFETCH: -nan cycles
L1D AVERAGE MSHR OCCUPANCY: 0.541075
L1D MSHR FULL: 0.00105342
L1D RQ	ACCESS:   74526097	FORWARD:          0	MERGED:   18442866	TO_CACHE:   56032682
L1D WQ	ACCESS:   42933228	FORWARD:      50549	MERGED:    1063597	TO_CACHE:   41869631

L1D UNIQUE REGIONS ACCESSED: 0
L1D REGIONS CONFLICTS: 0
L1D Cross Page Prefetch Requests: 0
L1D Same Page Prefetch Requests: 0
L1D ROI Sum of L1D PQ occupancy: 0
L1D PREFETCHES PUSHED FROM L2C: 0
L1I SPEC fills:          0  NON-SPEC fills:          0
L1I Test counter :          0
L1I Leapfrog:          0
L1I MSHR merge:         55
L1I TOTAL     ACCESS:   34420244  HIT:   34420071  MISS:        173  HIT %:    99.9995  MISS %: 0.000502611   MPKI: 0.000865
L1I LOAD      TOTAL       ACCESS:   34420244  HIT:   34420071  MISS:        173  HIT %:    99.9995  MISS %: 0.000502611   MPKI: 0.000865
L1I LOAD      NON_SPEC    ACCESS:   34420244  HIT:   34420071  MISS:        173  HIT %:    99.9995  MISS %: 0.000502611   MPKI: 0.000865
L1I PREFETCH  REQUESTED:          0  ISSUED:          0  USEFUL:          0  USELESS:          0
L1I USEFUL LOAD PREFETCHES:          0 PREFETCH ISSUED TO LOWER LEVEL:          0  ACCURACY: -nan
L1I TIMELY PREFETCHES:          0 LATE PREFETCHES: 0 DROPPED PREFETCHES: 0
L1I COMMIT LATE PREFETCHES: 0 NORMAL LATE: 0 MISSED OPPORTUNITY: 0 UNCOVERED: 0
L1I PREFETCHES SAME FILL-ORIGIN LEVEL: 0 DIFFERENT FILL-ORIGIN LEVEL: 0
L1I AVERAGE MISS LATENCY: 225.237 cycles
L1I AVERAGE MISS LATENCY LOAD: 225.237 cycles
L1I AVERAGE MISS LATENCY PREFETCH: -nan cycles
L1I AVERAGE MSHR OCCUPANCY: 4.50316e-06
L1I MSHR FULL: 0
L1I RQ	ACCESS:   50634954	FORWARD:          0	MERGED:   16214656	TO_CACHE:   34420298

BTB SPEC fills:          0  NON-SPEC fills:          0
BTB Test counter :          0
BTB Leapfrog:          0
BTB MSHR merge:          0
BTB TOTAL     ACCESS:    7097429  HIT:    7097297  MISS:        132  HIT %:    99.9981  MISS %: 0.00185983   MPKI: 0.00066
BTB BRANCH_DIRECT_JUMP	ACCESS:        147  HIT:        134  MISS:         13
BTB BRANCH_INDIRECT	ACCESS:          0  HIT:          0  MISS:          0
BTB BRANCH_CONDITIONAL	ACCESS:    7097024  HIT:    7096965  MISS:         59
BTB BRANCH_DIRECT_CALL	ACCESS:        129  HIT:         99  MISS:         30
BTB BRANCH_INDIRECT_CALL	ACCESS:          0  HIT:          0  MISS:          0
BTB BRANCH_RETURN	ACCESS:        129  HIT:         99  MISS:         30
BTB BRANCH_OTHER ACCESS:          0  HIT:          0  MISS:          0

L2C SPEC fills:          0  NON-SPEC fills:       2520
L2C Test counter :          0
L2C Leapfrog:          0
L2C MSHR merge:      14412
L2C TOTAL     ACCESS:    7919435  HIT:    4985747  MISS:    2933688  HIT %:    62.9558  MISS %:    37.0442   MPKI: 14.6684
L2C LOAD      TOTAL       ACCESS:    2251776  HIT:    2126708  MISS:     125068  HIT %:    94.4458  MISS %:    5.55419   MPKI: 0.62534
L2C LOAD      NON_SPEC    ACCESS:     185715  HIT:     183022  MISS:       2693  HIT %:    98.5499  MISS %:    1.45007   MPKI: 0.013465
L2C LOAD      SPEC        ACCESS:    2066061  HIT:    1943686  MISS:     122375  HIT %:    94.0769  MISS %:    5.92311   MPKI: 0.611875
L2C RFO       NON_SPEC    ACCESS:     403823  HIT:      29198  MISS:     374625  HIT %:     7.2304  MISS %:    92.7696   MPKI: 1.87312
L2C PREFETCH  NON_SPEC    ACCESS:    2387329  HIT:     108667  MISS:    2278662  HIT %:    4.55182  MISS %:    95.4482   MPKI: 11.3933
L2C WRITEBACK NON_SPEC    ACCESS:     409612  HIT:     408756  MISS:        856  HIT %:     99.791  MISS %:   0.208978   MPKI: 0.00428
L2C CLEAN_EVICTION NON_SPEC    ACCESS:    2101629  HIT:    1990809  MISS:     110820  HIT %:    94.7269  MISS %:    5.27305   MPKI: 0.5541
L2C COMMIT LOAD NON_SPEC    ACCESS:     126336  HIT:     122482  MISS:       3854  HIT %:    96.9494  MISS %:     3.0506   MPKI: 0.01927
L2C LOAD TRANSLATION NON_SPEC    ACCESS:     238930  HIT:     199127  MISS:      39803  HIT %:    83.3411  MISS %:    16.6589   MPKI: 0.199015
L2C PREFETCH  REQUESTED:    2403388  ISSUED:    2403388  USEFUL:    1854845  USELESS:     422758
L2C USEFUL LOAD PREFETCHES:    1854845 PREFETCH ISSUED TO LOWER LEVEL:    2293551  ACCURACY: 80.8722
L2C TIMELY PREFETCHES:    1854845 LATE PREFETCHES: 14882 DROPPED PREFETCHES: 0
L2C COMMIT LATE PREFETCHES: 3217 NORMAL LATE: 15061 MISSED OPPORTUNITY: 1707 UNCOVERED: 105553
L2C PREFETCHES SAME FILL-ORIGIN LEVEL: 2293551 DIFFERENT FILL-ORIGIN LEVEL: 0
L2C AVERAGE MISS LATENCY: 248.819 cycles
L2C AVERAGE MISS LATENCY LOAD: 161.174 cycles
L2C AVERAGE MISS LATENCY PREFETCH: 276.452 cycles
L2C AVERAGE MSHR OCCUPANCY: 5.62232
L2C MSHR FULL: 0.0485119
L2C RQ	ACCESS:    3021043	FORWARD:          0	MERGED:          0	TO_CACHE:    3020864
L2C WQ	ACCESS:    2511242	FORWARD:        185	MERGED:          1	TO_CACHE:    2511241
L2C PQ	ACCESS:    2403388	FORWARD:          0	MERGED:         53	TO_CACHE:    2403329

L2C Instructions Evicting Data 173
L2C Translations Evicting Data 39229
L2C Data Evicting Data 2622695
L2C Instructions Evicting Instructions 0
L2C Translations Evicting Instructions 4
L2C Data Evicting Instructions 142
L2C Instructions Evicting Translations 0
L2C Translations Evicting Translations 570
L2C Data Evicting Translations 36964
L2C Dense regions hint from L2: 0
PSCL5 SPEC fills:          0  NON-SPEC fills:          0
PSCL5 Test counter :          0
PSCL5 Leapfrog:          0
PSCL5 MSHR merge:          0
PSCL5 TOTAL     ACCESS:          0  HIT:          0  MISS:          0  HIT %:       -nan  MISS %:       -nan   MPKI: 0
PSCL5 PREFETCH  REQUESTED:          0  ISSUED:          0  USEFUL:          0  USELESS:          0
PSCL5 USEFUL LOAD PREFETCHES:          0 PREFETCH ISSUED TO LOWER LEVEL:          0  ACCURACY: -nan
PSCL5 TIMELY PREFETCHES:          0 LATE PREFETCHES: 0 DROPPED PREFETCHES: 0
PSCL5 COMMIT LATE PREFETCHES: 0 NORMAL LATE: 0 MISSED OPPORTUNITY: 0 UNCOVERED: 0
PSCL5 PREFETCHES SAME FILL-ORIGIN LEVEL: 0 DIFFERENT FILL-ORIGIN LEVEL: 0

PSCL4 SPEC fills:          0  NON-SPEC fills:          0
PSCL4 Test counter :          0
PSCL4 Leapfrog:          0
PSCL4 MSHR merge:          0
PSCL4 TOTAL     ACCESS:          0  HIT:          0  MISS:          0  HIT %:       -nan  MISS %:       -nan   MPKI: 0
PSCL4 PREFETCH  REQUESTED:          0  ISSUED:          0  USEFUL:          0  USELESS:          0
PSCL4 USEFUL LOAD PREFETCHES:          0 PREFETCH ISSUED TO LOWER LEVEL:          0  ACCURACY: -nan
PSCL4 TIMELY PREFETCHES:          0 LATE PREFETCHES: 0 DROPPED PREFETCHES: 0
PSCL4 COMMIT LATE PREFETCHES: 0 NORMAL LATE: 0 MISSED OPPORTUNITY: 0 UNCOVERED: 0
PSCL4 PREFETCHES SAME FILL-ORIGIN LEVEL: 0 DIFFERENT FILL-ORIGIN LEVEL: 0

PSCL3 SPEC fills:          0  NON-SPEC fills:          0
PSCL3 Test counter :          0
PSCL3 Leapfrog:          0
PSCL3 MSHR merge:          0
PSCL3 TOTAL     ACCESS:          0  HIT:          0  MISS:          0  HIT %:       -nan  MISS %:       -nan   MPKI: 0
PSCL3 PREFETCH  REQUESTED:          0  ISSUED:          0  USEFUL:          0  USELESS:          0
PSCL3 USEFUL LOAD PREFETCHES:          0 PREFETCH ISSUED TO LOWER LEVEL:          0  ACCURACY: -nan
PSCL3 TIMELY PREFETCHES:          0 LATE PREFETCHES: 0 DROPPED PREFETCHES: 0
PSCL3 COMMIT LATE PREFETCHES: 0 NORMAL LATE: 0 MISSED OPPORTUNITY: 0 UNCOVERED: 0
PSCL3 PREFETCHES SAME FILL-ORIGIN LEVEL: 0 DIFFERENT FILL-ORIGIN LEVEL: 0

PSCL2 SPEC fills:          0  NON-SPEC fills:          0
PSCL2 Test counter :          0
PSCL2 Leapfrog:          0
PSCL2 MSHR merge:          0
PSCL2 TOTAL     ACCESS:          0  HIT:          0  MISS:          0  HIT %:       -nan  MISS %:       -nan   MPKI: 0
PSCL2 PREFETCH  REQUESTED:          0  ISSUED:          0  USEFUL:          0  USELESS:          0
PSCL2 USEFUL LOAD PREFETCHES:          0 PREFETCH ISSUED TO LOWER LEVEL:          0  ACCURACY: -nan
PSCL2 TIMELY PREFETCHES:          0 LATE PREFETCHES: 0 DROPPED PREFETCHES: 0
PSCL2 COMMIT LATE PREFETCHES: 0 NORMAL LATE: 0 MISSED OPPORTUNITY: 0 UNCOVERED: 0
PSCL2 PREFETCHES SAME FILL-ORIGIN LEVEL: 0 DIFFERENT FILL-ORIGIN LEVEL: 0

LLC SPEC fills:          0  NON-SPEC fills:       1656
LLC Test counter :          0
LLC Leapfrog:          0
LLC MSHR merge:          0
LLC TOTAL     ACCESS:    5167174  HIT:    2871289  MISS:    2295885  HIT %:    55.5679  MISS %:    44.4321   MPKI: 11.4794
LLC LOAD      TOTAL       ACCESS:     110656  HIT:      24496  MISS:      86160  HIT %:    22.1371  MISS %:    77.8629   MPKI: 0.4308
LLC LOAD      NON_SPEC    ACCESS:       2550  HIT:        721  MISS:       1829  HIT %:    28.2745  MISS %:    71.7255   MPKI: 0.009145
LLC LOAD      SPEC        ACCESS:     108106  HIT:      23775  MISS:      84331  HIT %:    21.9923  MISS %:    78.0077   MPKI: 0.421655
LLC RFO       NON_SPEC    ACCESS:     374625  HIT:      70680  MISS:     303945  HIT %:    18.8669  MISS %:    81.1331   MPKI: 1.51972
LLC PREFETCH  NON_SPEC    ACCESS:    2293470  HIT:     492120  MISS:    1801350  HIT %:    21.4574  MISS %:    78.5426   MPKI: 9.00675
LLC WRITEBACK NON_SPEC    ACCESS:     409106  HIT:     406099  MISS:       3007  HIT %:     99.265  MISS %:   0.735017   MPKI: 0.015035
LLC CLEAN_EVICTION NON_SPEC    ACCESS:    1936130  HIT:    1854077  MISS:      82053  HIT %:     95.762  MISS %:    4.23799   MPKI: 0.410265
LLC COMMIT LOAD NON_SPEC    ACCESS:       3384  HIT:       2643  MISS:        741  HIT %:    78.1028  MISS %:    21.8972   MPKI: 0.003705
LLC LOAD TRANSLATION NON_SPEC    ACCESS:      39803  HIT:      21174  MISS:      18629  HIT %:     53.197  MISS %:     46.803   MPKI: 0.093145
LLC PREFETCH  REQUESTED:          0  ISSUED:          0  USEFUL:      33784  USELESS:    1747899
LLC USEFUL LOAD PREFETCHES:      33784 PREFETCH ISSUED TO LOWER LEVEL:    1801357  ACCURACY: 1.87547
LLC TIMELY PREFETCHES:      33784 LATE PREFETCHES: 0 DROPPED PREFETCHES: 0
LLC COMMIT LATE PREFETCHES: 0 NORMAL LATE: 0 MISSED OPPORTUNITY: 0 UNCOVERED: 0
LLC PREFETCHES SAME FILL-ORIGIN LEVEL: 0 DIFFERENT FILL-ORIGIN LEVEL: 0
LLC AVERAGE MISS LATENCY: 280.227 cycles
LLC AVERAGE MISS LATENCY LOAD: 165.783 cycles
LLC AVERAGE MISS LATENCY PREFETCH: 311.97 cycles
LLC AVERAGE MSHR OCCUPANCY: 3.2093
LLC MSHR FULL: 0
LLC RQ	ACCESS:     528467	FORWARD:          0	MERGED:          0	TO_CACHE:     528467
LLC WQ	ACCESS:    2345236	FORWARD:         74	MERGED:          0	TO_CACHE:    2345236
LLC PQ	ACCESS:    2293551	FORWARD:          0	MERGED:          0	TO_CACHE:    2293477

LLC Dense regions hint to LLC: 0

RAW hits: 472112
Loads Generated: 73695303
Loads sent to L1D: 73223190
Stores Generated: 11408451
Stores sent to L1D: 11408461
Major fault: 0 Minor fault: 53394
Allocated PAGES: 53394
Total Load insts: 89146637
Total Non-spec loads: 9587687
Percentage of speculative loads: 89.245

LeapFrogging counter: 32531
Commit hits: 31527367 miss: 33281352
Commit hit %: 48.6468 miss %: 51.3532
Commits not translated: 0
Loads retired: 2251765
Stores retired: 11408461
Cache fills: 2251765
L1D response latency: 20.5173 cycles
Load retirement latency: 73.2929 cycles
OOO test counter: 0
Discarded buffer inserts: 31527367 hits: 27183 hit %: 0.0862203
Filter prediction accuracy: -nan
[Bingo] PHT Access: 524186
[Bingo] PHT Hit PC+Addr: 11921
[Bingo] PHT Hit PC+Offs: 498264
[Bingo] PHT Miss: 14001
[Bingo] Prefetch PC+Addr: 0
[Bingo] Prefetch PC+Offs: 0
[Bingo] Useful PC+Addr: 0
[Bingo] Useful PC+Offs: 0
[Bingo] Useless PC+Addr: 0
[Bingo] Useless PC+Offs: 0
[Bingo] L1 Prefetch per Region: 0
[Bingo] L2 Prefetch per Region: 7.05432
[Bingo] L3 Prefetch per Region: 0
[Bingo] No Prefetch per Region: 24.9457
[Bingo] Number of Voters Mean: 14.5238
[Bingo] Number of Voters SD: 4.8549
PHT read accesses: 8118406
PHT write accesses: 247394
AT read accesses: 1945601
AT write accesses: 1945880
FT read accesses: 1076969
FT write accesses: 524186
PS read accesses: 1050505
PS write accesses: 510185
PHT tag read accesses: 16059523
PHT tag write accesses: 259315
AT tag read accesses: 156721244
AT tag write accesses: 2193031
FT tag read accesses: 138632231
FT tag write accesses: 1324758
PS tag read accesses: 55528135
PS tag write accesses: 1539600
[Bingo] PHT Access: 95565
[Bingo] PHT Hit PC+Addr: 6403
[Bingo] PHT Hit PC+Offs: 87206
[Bingo] PHT Miss: 1956
[Bingo] Prefetch PC+Addr: 0
[Bingo] Prefetch PC+Offs: 0
[Bingo] Useful PC+Addr: 0
[Bingo] Useful PC+Offs: 0
[Bingo] Useless PC+Addr: 0
[Bingo] Useless PC+Offs: 0
[Bingo] L1 Prefetch per Region: 0
[Bingo] L2 Prefetch per Region: 26.9119
[Bingo] L3 Prefetch per Region: 0
[Bingo] No Prefetch per Region: 5.08813
[Bingo] Number of Voters Mean: 14.7089
[Bingo] Number of Voters SD: 5.53752
PHT read accesses: 1419747
PHT write accesses: 92959
AT read accesses: 72742983
AT write accesses: 72821116
FT read accesses: 2024775
FT write accesses: 95565
PS read accesses: 656106
PS write accesses: 93609
PHT tag read accesses: 4304015
PHT tag write accesses: 99362
AT tag read accesses: 1228447506
AT tag write accesses: 72835975
FT tag read accesses: 65201353
FT tag write accesses: 1155732
PS tag read accesses: 1182844281
PS tag write accesses: 749237

DRAM Statistics
 CHANNEL 0
 RQ ROW_BUFFER_HIT:    1283628  ROW_BUFFER_MISS:     927027
 DBUS_CONGESTED:        788
 WQ ROW_BUFFER_HIT:     363595  ROW_BUFFER_MISS:    1473699  FULL:      23881

 AVG_CONGESTED_CYCLE: 5
 All warmup complete: 2
Channel 0 Bank busy for read cycles: 0
Channel 0 Bank busy for write cycles: 0
Channel 0
Rank 0
0banks busy for read cycles: 84290879
0banks busy for write cycles: 129253
1banks busy for read cycles: 25050433
1banks busy for write cycles: 11890901
2banks busy for read cycles: 10098382
2banks busy for write cycles: 9379660
3banks busy for read cycles: 1457357
3banks busy for write cycles: 1737240
4banks busy for read cycles: 1135333
4banks busy for write cycles: 1360514
5banks busy for read cycles: 720560
5banks busy for write cycles: 1394589
6banks busy for read cycles: 1009263
6banks busy for write cycles: 1602204
7banks busy for read cycles: 5331085
7banks busy for write cycles: 3510829
8banks busy for read cycles: 13461074
8banks busy for write cycles: 24850223

CPU 0 Branch Prediction Accuracy: 99.9104% MPKI: 0.03179 Average ROB Occupancy at Mispredict: 62.3139
Branch types
NOT_BRANCH: 192900850 96.4504%
BRANCH_DIRECT_JUMP: 147 7.35e-05%
BRANCH_INDIRECT: 0 0%
BRANCH_CONDITIONAL: 7098477 3.54924%
BRANCH_DIRECT_CALL: 129 6.45e-05%
BRANCH_INDIRECT_CALL: 0 0%
BRANCH_RETURN: 129 6.45e-05%
BRANCH_OTHER: 0 0%

DRAM PAGES: 1048576
Allocated PAGES: 53394
