
*** ChampSim Multicore Out-of-Order Simulator ***

Warmup Instructions: 50000000
Simulation Instructions: 200000000
Number of CPUs: 1
LLC sets: 2048
LLC ways: 16
L0D sets: 16
L0D ways: 2
ROB size: 352
LQ size: 128
SQ size: 72
Secure Berti: OFF
Berti: OFF
Berti Fill: OFF
On commit prefetching: ON
Hit-based filter: OFF
Time-guarding: ON
Free-slotting: ON
Leap-frogging: ON
Train prefetcher on L0D bypass: OFF
No translation penalty for prefetchers: OFF
Prefetch to L0D only: OFF
Prefetch to L1D only: OFF
Clean evictions: ON
Commit loads: ON
Commit write: ON
Fill commit loads to L2C, LLC: ON
DRAM IO FREQUENCY: 6400
ROB SIZE: 352
Off-chip DRAM Size: 4096 MB Channels: 1 Width: 64-bit Data Rate: 6400 MT/s
CPU 0 runs /home/sumon/secure_berti/GhostMinion/../../traces/spec/657.xz_s-2302B.champsimtrace.xz
.xz
BTB has LRU replacement policy
ITLB has LRU replacement policy
DTLB has LRU replacement policy
STLB has LRU replacement policy
L1I has LRU replacement policy
L0D has LRU replacement policy
Bingo PHT WAYS: 16 and PHT_SIZE: 16384
L1D has LRU replacement policy
Bingo PHT WAYS: 16 and PHT_SIZE: 16384
L2C has LRU replacement policy
LLC has LRU replacement policy
Heartbeat CPU 0 instructions: 10000001 cycles: 3126969 heartbeat IPC: 3.19799 cumulative IPC: 3.19799 (Simulation time: 0 hr 1 min 19 sec) 
Heartbeat CPU 0 instructions: 20000002 cycles: 6257616 heartbeat IPC: 3.19423 cumulative IPC: 3.19611 (Simulation time: 0 hr 2 min 40 sec) 
Heartbeat CPU 0 instructions: 30000000 cycles: 9506482 heartbeat IPC: 3.078 cumulative IPC: 3.15574 (Simulation time: 0 hr 4 min 2 sec) 
Heartbeat CPU 0 instructions: 40000003 cycles: 12636952 heartbeat IPC: 3.19441 cumulative IPC: 3.16532 (Simulation time: 0 hr 5 min 27 sec) 
Heartbeat CPU 0 instructions: 50000000 cycles: 15788161 heartbeat IPC: 3.17338 cumulative IPC: 3.16693 (Simulation time: 0 hr 6 min 54 sec) 

Warmup complete CPU 0 instructions: 50000004 cycles: 15788162 (Simulation time: 0 hr 6 min 54 sec) 

Heartbeat CPU 0 instructions: 60000002 cycles: 32894331 heartbeat IPC: 0.584585 cumulative IPC: 0.584584 (Simulation time: 0 hr 8 min 36 sec) 
Heartbeat CPU 0 instructions: 70000000 cycles: 49366254 heartbeat IPC: 0.607094 cumulative IPC: 0.595626 (Simulation time: 0 hr 10 min 15 sec) 
Heartbeat CPU 0 instructions: 80000003 cycles: 66263827 heartbeat IPC: 0.591801 cumulative IPC: 0.594346 (Simulation time: 0 hr 11 min 56 sec) 
Heartbeat CPU 0 instructions: 90000002 cycles: 83304951 heartbeat IPC: 0.586816 cumulative IPC: 0.592445 (Simulation time: 0 hr 13 min 40 sec) 
Heartbeat CPU 0 instructions: 100000001 cycles: 99779417 heartbeat IPC: 0.607 cumulative IPC: 0.5953 (Simulation time: 0 hr 15 min 22 sec) 
Heartbeat CPU 0 instructions: 110000000 cycles: 116870148 heartbeat IPC: 0.585112 cumulative IPC: 0.593578 (Simulation time: 0 hr 17 min 5 sec) 
Heartbeat CPU 0 instructions: 120000003 cycles: 134053749 heartbeat IPC: 0.58195 cumulative IPC: 0.591888 (Simulation time: 0 hr 18 min 50 sec) 
Heartbeat CPU 0 instructions: 130000000 cycles: 151458124 heartbeat IPC: 0.574568 cumulative IPC: 0.589666 (Simulation time: 0 hr 20 min 35 sec) 
Heartbeat CPU 0 instructions: 140000003 cycles: 167601842 heartbeat IPC: 0.619436 cumulative IPC: 0.592832 (Simulation time: 0 hr 22 min 13 sec) 
Heartbeat CPU 0 instructions: 150000003 cycles: 184968364 heartbeat IPC: 0.575821 cumulative IPC: 0.591086 (Simulation time: 0 hr 23 min 57 sec) 
Heartbeat CPU 0 instructions: 160000003 cycles: 202241114 heartbeat IPC: 0.578947 cumulative IPC: 0.589961 (Simulation time: 0 hr 25 min 41 sec) 
Heartbeat CPU 0 instructions: 170000000 cycles: 217288084 heartbeat IPC: 0.664585 cumulative IPC: 0.595534 (Simulation time: 0 hr 27 min 17 sec) 
Heartbeat CPU 0 instructions: 180000001 cycles: 231356109 heartbeat IPC: 0.710832 cumulative IPC: 0.603058 (Simulation time: 0 hr 28 min 49 sec) 
Heartbeat CPU 0 instructions: 190000002 cycles: 245369821 heartbeat IPC: 0.713587 cumulative IPC: 0.609805 (Simulation time: 0 hr 30 min 20 sec) 
Heartbeat CPU 0 instructions: 200000002 cycles: 259415405 heartbeat IPC: 0.711968 cumulative IPC: 0.615695 (Simulation time: 0 hr 31 min 52 sec) 
Heartbeat CPU 0 instructions: 210000000 cycles: 273452465 heartbeat IPC: 0.7124 cumulative IPC: 0.620963 (Simulation time: 0 hr 33 min 24 sec) 
Heartbeat CPU 0 instructions: 220000000 cycles: 287522135 heartbeat IPC: 0.710749 cumulative IPC: 0.625612 (Simulation time: 0 hr 34 min 56 sec) 
Heartbeat CPU 0 instructions: 230000003 cycles: 301764712 heartbeat IPC: 0.70212 cumulative IPC: 0.629422 (Simulation time: 0 hr 36 min 29 sec) 
Heartbeat CPU 0 instructions: 240000001 cycles: 316031028 heartbeat IPC: 0.700952 cumulative IPC: 0.632821 (Simulation time: 0 hr 38 min 1 sec) 
Heartbeat CPU 0 instructions: 250000003 cycles: 330241040 heartbeat IPC: 0.703729 cumulative IPC: 0.636025 (Simulation time: 0 hr 39 min 34 sec) 
Finished CPU 0 instructions: 200000003 cycles: 314452879 cumulative IPC: 0.636025 (Simulation time: 0 hr 39 min 34 sec) 
 Instruction ID: 250000106

ChampSim completed all CPUs

Region of Interest Statistics

CPU 0 cumulative IPC: 0.636025 instructions: 200000003 cycles: 314452879
ITLB SPEC fills:          0  NON-SPEC fills:          0
ITLB Test counter :          0
ITLB Leapfrog:          0
ITLB MSHR merge:          0
ITLB TOTAL     ACCESS:   28832554  HIT:   28832554  MISS:          0  HIT %:        100  MISS %:          0   MPKI: 0
ITLB LOAD TRANSLATION NON_SPEC    ACCESS:   28832554  HIT:   28832554  MISS:          0  HIT %:        100  MISS %:          0   MPKI: 0
ITLB PREFETCH  REQUESTED:          0  ISSUED:          0  USEFUL:          0  USELESS:          0
ITLB USEFUL LOAD PREFETCHES:          0 PREFETCH ISSUED TO LOWER LEVEL:          0  ACCURACY: -nan
ITLB TIMELY PREFETCHES:          0 LATE PREFETCHES: 0 DROPPED PREFETCHES: 0
ITLB COMMIT LATE PREFETCHES: 0 NORMAL LATE: 0 MISSED OPPORTUNITY: 0 UNCOVERED: 0
ITLB PREFETCHES SAME FILL-ORIGIN LEVEL: 0 DIFFERENT FILL-ORIGIN LEVEL: 0
ITLB AVERAGE MISS LATENCY: -nan cycles
ITLB AVERAGE MISS LATENCY LOAD: -nan cycles
ITLB AVERAGE MISS LATENCY PREFETCH: -nan cycles
ITLB AVERAGE MSHR OCCUPANCY: 0
ITLB MSHR FULL: 0
ITLB RQ	ACCESS:   34294587	FORWARD:          0	MERGED:    5462034	TO_CACHE:   28832553

DTLB SPEC fills:          0  NON-SPEC fills:          0
DTLB Test counter :          0
DTLB Leapfrog:          0
DTLB MSHR merge:          0
DTLB TOTAL     ACCESS:   45080715  HIT:   44160753  MISS:     919962  HIT %:    97.9593  MISS %:     2.0407   MPKI: 4.59981
DTLB LOAD TRANSLATION NON_SPEC    ACCESS:   45080715  HIT:   44160753  MISS:     919962  HIT %:    97.9593  MISS %:     2.0407   MPKI: 4.59981
DTLB PREFETCH  REQUESTED:          0  ISSUED:          0  USEFUL:          0  USELESS:          0
DTLB USEFUL LOAD PREFETCHES:          0 PREFETCH ISSUED TO LOWER LEVEL:          0  ACCURACY: -nan
DTLB TIMELY PREFETCHES:          0 LATE PREFETCHES: 0 DROPPED PREFETCHES: 0
DTLB COMMIT LATE PREFETCHES: 0 NORMAL LATE: 0 MISSED OPPORTUNITY: 0 UNCOVERED: 0
DTLB PREFETCHES SAME FILL-ORIGIN LEVEL: 0 DIFFERENT FILL-ORIGIN LEVEL: 0
DTLB AVERAGE MISS LATENCY: 22.4342 cycles
DTLB AVERAGE MISS LATENCY LOAD: -nan cycles
DTLB AVERAGE MISS LATENCY PREFETCH: -nan cycles
DTLB AVERAGE MSHR OCCUPANCY: 0.0574351
DTLB MSHR FULL: 1.55252e-07
DTLB RQ	ACCESS:   55904950	FORWARD:          0	MERGED:   10817010	TO_CACHE:   45087940

STLB SPEC fills:          0  NON-SPEC fills:          0
STLB Test counter :          0
STLB Leapfrog:          0
STLB MSHR merge:          0
STLB TOTAL     ACCESS:     919962  HIT:     785860  MISS:     134102  HIT %:    85.4231  MISS %:    14.5769   MPKI: 0.67051
STLB LOAD TRANSLATION NON_SPEC    ACCESS:     919962  HIT:     785860  MISS:     134102  HIT %:    85.4231  MISS %:    14.5769   MPKI: 0.67051
STLB PREFETCH  REQUESTED:          0  ISSUED:          0  USEFUL:          0  USELESS:          0
STLB USEFUL LOAD PREFETCHES:          0 PREFETCH ISSUED TO LOWER LEVEL:          0  ACCURACY: -nan
STLB TIMELY PREFETCHES:          0 LATE PREFETCHES: 0 DROPPED PREFETCHES: 0
STLB COMMIT LATE PREFETCHES: 0 NORMAL LATE: 0 MISSED OPPORTUNITY: 0 UNCOVERED: 0
STLB PREFETCHES SAME FILL-ORIGIN LEVEL: 0 DIFFERENT FILL-ORIGIN LEVEL: 0
STLB AVERAGE MISS LATENCY: 92.1219 cycles
STLB AVERAGE MISS LATENCY LOAD: -nan cycles
STLB AVERAGE MISS LATENCY PREFETCH: -nan cycles
STLB AVERAGE MSHR OCCUPANCY: 0.0801468
STLB MSHR FULL: 0
STLB RQ	ACCESS:     919962	FORWARD:          0	MERGED:          0	TO_CACHE:     919962

STLB Hit, L1D data hit: 0
STLB Hit, L2C data hit: 0
STLB Hit, LLC data hit: 0
STLB Hit, LLC data miss: 0
STLB STLB hints to L2: 0
L0D SPEC fills:   24239428  NON-SPEC fills:          0
L0D TimeGuard Request with older TS:     117102 Restricted eviction:      82715 read:     277633
L0D Test counter :          0
L0D Leapfrog:          0
L0D MSHR merge:     815860
L0D TOTAL     ACCESS:   37891275  HIT:    5449793  MISS:   32441482  HIT %:    14.3827  MISS %:    85.6173   MPKI: 162.207
L0D LOAD      TOTAL       ACCESS:   37891275  HIT:    5449793  MISS:   32441482  HIT %:    14.3827  MISS %:    85.6173   MPKI: 162.207
L0D LOAD      NON_SPEC    ACCESS:    8582728  HIT:     463388  MISS:    8119340  HIT %:    5.39908  MISS %:    94.6009   MPKI: 40.5967
L0D LOAD      SPEC        ACCESS:   29308547  HIT:    4986405  MISS:   24322142  HIT %:    17.0135  MISS %:    82.9865   MPKI: 121.611
L0D PREFETCH  REQUESTED:          0  ISSUED:          0  USEFUL:          0  USELESS:          0
L0D USEFUL LOAD PREFETCHES:          0 PREFETCH ISSUED TO LOWER LEVEL:          0  ACCURACY: -nan
L0D TIMELY PREFETCHES:          0 LATE PREFETCHES: 0 DROPPED PREFETCHES: 0
L0D COMMIT LATE PREFETCHES: 0 NORMAL LATE: 0 MISSED OPPORTUNITY: 0 UNCOVERED: 0
L0D PREFETCHES SAME FILL-ORIGIN LEVEL: 0 DIFFERENT FILL-ORIGIN LEVEL: 0
L0D AVERAGE MISS LATENCY: 6.82922 cycles
L0D AVERAGE MISS LATENCY LOAD: 6.82922 cycles
L0D AVERAGE MISS LATENCY PREFETCH: -nan cycles
L0D AVERAGE MSHR OCCUPANCY: 0.619643
L0D MSHR FULL: 4.44361e-06
L0D RQ	ACCESS:   45248348	FORWARD:          0	MERGED:    6541214	TO_CACHE:   38707134
L0D WQ	ACCESS:   17197816	FORWARD:          0	MERGED:          0	TO_CACHE:   17197816

L1D SPEC fills:          0  NON-SPEC fills:     125058
L1D Test counter :          0
L1D Leapfrog:          0
L1D MSHR merge:        501
L1D TOTAL     ACCESS:   80572936  HIT:   78591065  MISS:    1981871  HIT %:    97.5403  MISS %:    2.45972   MPKI: 9.90935
L1D LOAD      TOTAL       ACCESS:   32440981  HIT:   31453042  MISS:     987939  HIT %:    96.9547  MISS %:    3.04534   MPKI: 4.93969
L1D LOAD      NON_SPEC    ACCESS:    8119202  HIT:    7994144  MISS:     125058  HIT %:    98.4597  MISS %:    1.54027   MPKI: 0.62529
L1D LOAD      SPEC        ACCESS:   24321779  HIT:   23458898  MISS:     862881  HIT %:    96.4522  MISS %:    3.54777   MPKI: 4.3144
L1D RFO       NON_SPEC    ACCESS:   15789339  HIT:   15652897  MISS:     136442  HIT %:    99.1359  MISS %:    0.86414   MPKI: 0.68221
L1D COMMIT LOAD NON_SPEC    ACCESS:    8206593  HIT:    8181150  MISS:      25443  HIT %:      99.69  MISS %:   0.310031   MPKI: 0.127215
L1D COMMIT WRITE NON_SPEC    ACCESS:   24136023  HIT:   23303976  MISS:     832047  HIT %:    96.5527  MISS %:    3.44732   MPKI: 4.16023
L1D PREFETCH  REQUESTED:          0  ISSUED:          0  USEFUL:          0  USELESS:          0
L1D USEFUL LOAD PREFETCHES:          0 PREFETCH ISSUED TO LOWER LEVEL:          0  ACCURACY: -nan
L1D TIMELY PREFETCHES:          0 LATE PREFETCHES: 0 DROPPED PREFETCHES: 0
L1D COMMIT LATE PREFETCHES: 0 NORMAL LATE: 0 MISSED OPPORTUNITY: 0 UNCOVERED: 988154
L1D PREFETCHES SAME FILL-ORIGIN LEVEL: 0 DIFFERENT FILL-ORIGIN LEVEL: 0
L1D AVERAGE MISS LATENCY: 32.1492 cycles
L1D AVERAGE MISS LATENCY LOAD: 55.2614 cycles
L1D AVERAGE MISS LATENCY PREFETCH: -nan cycles
L1D AVERAGE MSHR OCCUPANCY: 0.0678339
L1D MSHR FULL: 0
L1D RQ	ACCESS:   44789071	FORWARD:          0	MERGED:    3782124	TO_CACHE:   40648663
L1D WQ	ACCESS:   41341779	FORWARD:     358284	MERGED:    1349325	TO_CACHE:   39992454

L1D UNIQUE REGIONS ACCESSED: 0
L1D REGIONS CONFLICTS: 0
L1D Cross Page Prefetch Requests: 0
L1D Same Page Prefetch Requests: 0
L1D ROI Sum of L1D PQ occupancy: 0
L1D PREFETCHES PUSHED FROM L2C: 0
L1I SPEC fills:          0  NON-SPEC fills:          0
L1I Test counter :          0
L1I Leapfrog:          0
L1I MSHR merge:        196
L1I TOTAL     ACCESS:   34294391  HIT:   34293999  MISS:        392  HIT %:    99.9989  MISS %: 0.00114304   MPKI: 0.00196
L1I LOAD      TOTAL       ACCESS:   34294391  HIT:   34293999  MISS:        392  HIT %:    99.9989  MISS %: 0.00114304   MPKI: 0.00196
L1I LOAD      NON_SPEC    ACCESS:   34294391  HIT:   34293999  MISS:        392  HIT %:    99.9989  MISS %: 0.00114304   MPKI: 0.00196
L1I PREFETCH  REQUESTED:          0  ISSUED:          0  USEFUL:          0  USELESS:          0
L1I USEFUL LOAD PREFETCHES:          0 PREFETCH ISSUED TO LOWER LEVEL:          0  ACCURACY: -nan
L1I TIMELY PREFETCHES:          0 LATE PREFETCHES: 0 DROPPED PREFETCHES: 0
L1I COMMIT LATE PREFETCHES: 0 NORMAL LATE: 0 MISSED OPPORTUNITY: 0 UNCOVERED: 0
L1I PREFETCHES SAME FILL-ORIGIN LEVEL: 0 DIFFERENT FILL-ORIGIN LEVEL: 0
L1I AVERAGE MISS LATENCY: 169.686 cycles
L1I AVERAGE MISS LATENCY LOAD: 169.686 cycles
L1I AVERAGE MISS LATENCY PREFETCH: -nan cycles
L1I AVERAGE MSHR OCCUPANCY: 2.02656e-05
L1I MSHR FULL: 0
L1I RQ	ACCESS:   52177343	FORWARD:          0	MERGED:   17882756	TO_CACHE:   34294587

BTB SPEC fills:          0  NON-SPEC fills:          0
BTB Test counter :          0
BTB Leapfrog:          0
BTB MSHR merge:          0
BTB TOTAL     ACCESS:   23485692  HIT:   23238860  MISS:     246832  HIT %:     98.949  MISS %:    1.05099   MPKI: 1.23416
BTB BRANCH_DIRECT_JUMP	ACCESS:    2818425  HIT:    2818347  MISS:         78
BTB BRANCH_INDIRECT	ACCESS:     447403  HIT:     208958  MISS:     238445
BTB BRANCH_CONDITIONAL	ACCESS:   19634890  HIT:   19634641  MISS:        249
BTB BRANCH_DIRECT_CALL	ACCESS:     190457  HIT:     190438  MISS:         19
BTB BRANCH_INDIRECT_CALL	ACCESS:     102031  HIT:     102024  MISS:          7
BTB BRANCH_RETURN	ACCESS:     292486  HIT:     284452  MISS:       8034
BTB BRANCH_OTHER ACCESS:          0  HIT:          0  MISS:          0

L2C SPEC fills:          0  NON-SPEC fills:      37234
L2C Test counter :          0
L2C Leapfrog:          0
L2C MSHR merge:        847
L2C TOTAL     ACCESS:    4204909  HIT:    2490999  MISS:    1713910  HIT %:    59.2403  MISS %:    40.7597   MPKI: 8.56955
L2C LOAD      TOTAL       ACCESS:     988305  HIT:     525627  MISS:     462678  HIT %:    53.1847  MISS %:    46.8153   MPKI: 2.31339
L2C LOAD      NON_SPEC    ACCESS:     125441  HIT:      87815  MISS:      37626  HIT %:     70.005  MISS %:     29.995   MPKI: 0.18813
L2C LOAD      SPEC        ACCESS:     862864  HIT:     437812  MISS:     425052  HIT %:    50.7394  MISS %:    49.2606   MPKI: 2.12526
L2C RFO       NON_SPEC    ACCESS:     136392  HIT:      89673  MISS:      46719  HIT %:    65.7465  MISS %:    34.2535   MPKI: 0.233595
L2C PREFETCH  NON_SPEC    ACCESS:    1321713  HIT:     600077  MISS:     721636  HIT %:    45.4015  MISS %:    54.5985   MPKI: 3.60818
L2C WRITEBACK NON_SPEC    ACCESS:     158453  HIT:     158150  MISS:        303  HIT %:    99.8088  MISS %:   0.191224   MPKI: 0.001515
L2C CLEAN_EVICTION NON_SPEC    ACCESS:     904116  HIT:     476284  MISS:     427832  HIT %:    52.6795  MISS %:    47.3205   MPKI: 2.13916
L2C COMMIT LOAD NON_SPEC    ACCESS:      25420  HIT:      19323  MISS:       6097  HIT %:    76.0149  MISS %:    23.9851   MPKI: 0.030485
L2C LOAD TRANSLATION NON_SPEC    ACCESS:     670510  HIT:     621865  MISS:      48645  HIT %:    92.7451  MISS %:    7.25493   MPKI: 0.243225
L2C PREFETCH  REQUESTED:    1323222  ISSUED:    1323222  USEFUL:     110765  USELESS:     610634
L2C USEFUL LOAD PREFETCHES:     110765 PREFETCH ISSUED TO LOWER LEVEL:     722532  ACCURACY: 15.3301
L2C TIMELY PREFETCHES:     110765 LATE PREFETCHES: 896 DROPPED PREFETCHES: 0
L2C COMMIT LATE PREFETCHES: 854 NORMAL LATE: 1134 MISSED OPPORTUNITY: 239 UNCOVERED: 460500
L2C PREFETCHES SAME FILL-ORIGIN LEVEL: 722532 DIFFERENT FILL-ORIGIN LEVEL: 0
L2C AVERAGE MISS LATENCY: 79.3531 cycles
L2C AVERAGE MISS LATENCY LOAD: 93.5487 cycles
L2C AVERAGE MISS LATENCY PREFETCH: 115.556 cycles
L2C AVERAGE MSHR OCCUPANCY: 0.844704
L2C MSHR FULL: 0
L2C RQ	ACCESS:    1820726	FORWARD:          0	MERGED:          0	TO_CACHE:    1820627
L2C WQ	ACCESS:    1062569	FORWARD:        115	MERGED:          0	TO_CACHE:    1062569
L2C PQ	ACCESS:    1323222	FORWARD:          0	MERGED:          8	TO_CACHE:    1323198

L2C Instructions Evicting Data 374
L2C Translations Evicting Data 47447
L2C Data Evicting Data 780559
L2C Instructions Evicting Instructions 1
L2C Translations Evicting Instructions 21
L2C Data Evicting Instructions 236
L2C Instructions Evicting Translations 17
L2C Translations Evicting Translations 1177
L2C Data Evicting Translations 30891
L2C Dense regions hint from L2: 0
PSCL5 SPEC fills:          0  NON-SPEC fills:          0
PSCL5 Test counter :          0
PSCL5 Leapfrog:          0
PSCL5 MSHR merge:          0
PSCL5 TOTAL     ACCESS:          0  HIT:          0  MISS:          0  HIT %:       -nan  MISS %:       -nan   MPKI: 0
PSCL5 PREFETCH  REQUESTED:          0  ISSUED:          0  USEFUL:          0  USELESS:          0
PSCL5 USEFUL LOAD PREFETCHES:          0 PREFETCH ISSUED TO LOWER LEVEL:          0  ACCURACY: -nan
PSCL5 TIMELY PREFETCHES:          0 LATE PREFETCHES: 0 DROPPED PREFETCHES: 0
PSCL5 COMMIT LATE PREFETCHES: 0 NORMAL LATE: 0 MISSED OPPORTUNITY: 0 UNCOVERED: 0
PSCL5 PREFETCHES SAME FILL-ORIGIN LEVEL: 0 DIFFERENT FILL-ORIGIN LEVEL: 0

PSCL4 SPEC fills:          0  NON-SPEC fills:          0
PSCL4 Test counter :          0
PSCL4 Leapfrog:          0
PSCL4 MSHR merge:          0
PSCL4 TOTAL     ACCESS:          0  HIT:          0  MISS:          0  HIT %:       -nan  MISS %:       -nan   MPKI: 0
PSCL4 PREFETCH  REQUESTED:          0  ISSUED:          0  USEFUL:          0  USELESS:          0
PSCL4 USEFUL LOAD PREFETCHES:          0 PREFETCH ISSUED TO LOWER LEVEL:          0  ACCURACY: -nan
PSCL4 TIMELY PREFETCHES:          0 LATE PREFETCHES: 0 DROPPED PREFETCHES: 0
PSCL4 COMMIT LATE PREFETCHES: 0 NORMAL LATE: 0 MISSED OPPORTUNITY: 0 UNCOVERED: 0
PSCL4 PREFETCHES SAME FILL-ORIGIN LEVEL: 0 DIFFERENT FILL-ORIGIN LEVEL: 0

PSCL3 SPEC fills:          0  NON-SPEC fills:          0
PSCL3 Test counter :          0
PSCL3 Leapfrog:          0
PSCL3 MSHR merge:          0
PSCL3 TOTAL     ACCESS:          0  HIT:          0  MISS:          0  HIT %:       -nan  MISS %:       -nan   MPKI: 0
PSCL3 PREFETCH  REQUESTED:          0  ISSUED:          0  USEFUL:          0  USELESS:          0
PSCL3 USEFUL LOAD PREFETCHES:          0 PREFETCH ISSUED TO LOWER LEVEL:          0  ACCURACY: -nan
PSCL3 TIMELY PREFETCHES:          0 LATE PREFETCHES: 0 DROPPED PREFETCHES: 0
PSCL3 COMMIT LATE PREFETCHES: 0 NORMAL LATE: 0 MISSED OPPORTUNITY: 0 UNCOVERED: 0
PSCL3 PREFETCHES SAME FILL-ORIGIN LEVEL: 0 DIFFERENT FILL-ORIGIN LEVEL: 0

PSCL2 SPEC fills:          0  NON-SPEC fills:          0
PSCL2 Test counter :          0
PSCL2 Leapfrog:          0
PSCL2 MSHR merge:          0
PSCL2 TOTAL     ACCESS:          0  HIT:          0  MISS:          0  HIT %:       -nan  MISS %:       -nan   MPKI: 0
PSCL2 PREFETCH  REQUESTED:          0  ISSUED:          0  USEFUL:          0  USELESS:          0
PSCL2 USEFUL LOAD PREFETCHES:          0 PREFETCH ISSUED TO LOWER LEVEL:          0  ACCURACY: -nan
PSCL2 TIMELY PREFETCHES:          0 LATE PREFETCHES: 0 DROPPED PREFETCHES: 0
PSCL2 COMMIT LATE PREFETCHES: 0 NORMAL LATE: 0 MISSED OPPORTUNITY: 0 UNCOVERED: 0
PSCL2 PREFETCHES SAME FILL-ORIGIN LEVEL: 0 DIFFERENT FILL-ORIGIN LEVEL: 0

LLC SPEC fills:          0  NON-SPEC fills:      14616
LLC Test counter :          0
LLC Leapfrog:          0
LLC MSHR merge:          0
LLC TOTAL     ACCESS:    1893544  HIT:    1080710  MISS:     812834  HIT %:    57.0734  MISS %:    42.9266   MPKI: 4.06417
LLC LOAD      TOTAL       ACCESS:     461829  HIT:     253025  MISS:     208804  HIT %:    54.7876  MISS %:    45.2124   MPKI: 1.04402
LLC LOAD      NON_SPEC    ACCESS:      37489  HIT:      22592  MISS:      14897  HIT %:     60.263  MISS %:     39.737   MPKI: 0.074485
LLC LOAD      SPEC        ACCESS:     424340  HIT:     230433  MISS:     193907  HIT %:    54.3039  MISS %:    45.6961   MPKI: 0.969535
LLC RFO       NON_SPEC    ACCESS:      46678  HIT:      17364  MISS:      29314  HIT %:    37.1995  MISS %:    62.8005   MPKI: 0.14657
LLC PREFETCH  NON_SPEC    ACCESS:     722505  HIT:     372975  MISS:     349530  HIT %:    51.6225  MISS %:    48.3775   MPKI: 1.74765
LLC WRITEBACK NON_SPEC    ACCESS:      67796  HIT:      66172  MISS:       1624  HIT %:    97.6046  MISS %:    2.39542   MPKI: 0.00812
LLC CLEAN_EVICTION NON_SPEC    ACCESS:     540002  HIT:     322875  MISS:     217127  HIT %:    59.7914  MISS %:    40.2086   MPKI: 1.08563
LLC COMMIT LOAD NON_SPEC    ACCESS:       6089  HIT:       5999  MISS:         90  HIT %:    98.5219  MISS %:    1.47808   MPKI: 0.00045
LLC LOAD TRANSLATION NON_SPEC    ACCESS:      48645  HIT:      42300  MISS:       6345  HIT %:    86.9565  MISS %:    13.0435   MPKI: 0.031725
LLC PREFETCH  REQUESTED:          0  ISSUED:          0  USEFUL:      33894  USELESS:     311852
LLC USEFUL LOAD PREFETCHES:      33894 PREFETCH ISSUED TO LOWER LEVEL:     349530  ACCURACY: 9.69702
LLC TIMELY PREFETCHES:      33894 LATE PREFETCHES: 0 DROPPED PREFETCHES: 0
LLC COMMIT LATE PREFETCHES: 0 NORMAL LATE: 0 MISSED OPPORTUNITY: 0 UNCOVERED: 0
LLC PREFETCHES SAME FILL-ORIGIN LEVEL: 0 DIFFERENT FILL-ORIGIN LEVEL: 0
LLC AVERAGE MISS LATENCY: 124.534 cycles
LLC AVERAGE MISS LATENCY LOAD: 158.87 cycles
LLC AVERAGE MISS LATENCY PREFETCH: 176.727 cycles
LLC AVERAGE MSHR OCCUPANCY: 0.723079
LLC MSHR FULL: 0
LLC RQ	ACCESS:     563243	FORWARD:          0	MERGED:          0	TO_CACHE:     563241
LLC WQ	ACCESS:     607798	FORWARD:         29	MERGED:          0	TO_CACHE:     607798
LLC PQ	ACCESS:     722532	FORWARD:          0	MERGED:          0	TO_CACHE:     722505

LLC Dense regions hint to LLC: 0

RAW hits: 2077812
Loads Generated: 47326161
Loads sent to L1D: 45248348
Stores Generated: 17197827
Stores sent to L1D: 17197816
Major fault: 0 Minor fault: 8202
Allocated PAGES: 8202
Total Load insts: 55938896
Total Non-spec loads: 9433684
Percentage of speculative loads: 83.1357

LeapFrogging counter: 14
Commit hits: 24143963 miss: 12347590
Commit hit %: 66.1632 miss %: 33.8368
Commits not translated: 0
Loads retired: 987937
Stores retired: 17197816
Cache fills: 987939
L1D response latency: 55.2614 cycles
Load retirement latency: 101.786 cycles
OOO test counter: 0
Discarded buffer inserts: 24143963 hits: 4954 hit %: 0.0205186
Filter prediction accuracy: -nan
[Bingo] PHT Access: 668495
[Bingo] PHT Hit PC+Addr: 134039
[Bingo] PHT Hit PC+Offs: 529233
[Bingo] PHT Miss: 5223
[Bingo] Prefetch PC+Addr: 0
[Bingo] Prefetch PC+Offs: 0
[Bingo] Useful PC+Addr: 0
[Bingo] Useful PC+Offs: 0
[Bingo] Useless PC+Addr: 0
[Bingo] Useless PC+Offs: 0
[Bingo] L1 Prefetch per Region: 0
[Bingo] L2 Prefetch per Region: 2.42523
[Bingo] L3 Prefetch per Region: 0
[Bingo] No Prefetch per Region: 29.5748
[Bingo] Number of Voters Mean: 14.1112
[Bingo] Number of Voters SD: 8.56216
PHT read accesses: 8810310
PHT write accesses: 125685
AT read accesses: 438843
AT write accesses: 442391
FT read accesses: 452917
FT write accesses: 668495
PS read accesses: 1326593
PS write accesses: 663272
PHT tag read accesses: 12814337
PHT tag write accesses: 259724
AT tag read accesses: 70677123
AT tag write accesses: 564489
FT tag read accesses: 84683840
FT tag write accesses: 993093
PS tag read accesses: 37873249
PS tag write accesses: 1989748
[Bingo] PHT Access: 647069
[Bingo] PHT Hit PC+Addr: 116034
[Bingo] PHT Hit PC+Offs: 525994
[Bingo] PHT Miss: 5041
[Bingo] Prefetch PC+Addr: 0
[Bingo] Prefetch PC+Offs: 0
[Bingo] Useful PC+Addr: 0
[Bingo] Useful PC+Offs: 0
[Bingo] Useless PC+Addr: 0
[Bingo] Useless PC+Offs: 0
[Bingo] L1 Prefetch per Region: 0
[Bingo] L2 Prefetch per Region: 3.08939
[Bingo] L3 Prefetch per Region: 0
[Bingo] No Prefetch per Region: 28.9106
[Bingo] Number of Voters Mean: 13.7974
[Bingo] Number of Voters SD: 8.59647
PHT read accesses: 8817413
PHT write accesses: 113270
AT read accesses: 45061467
AT write accesses: 45091229
FT read accesses: 3779263
FT write accesses: 647069
PS read accesses: 1296872
PS write accesses: 642028
PHT tag read accesses: 12383919
PHT tag write accesses: 229304
AT tag read accesses: 782627893
AT tag write accesses: 45174720
FT tag read accesses: 81390674
FT tag write accesses: 2611965
PS tag read accesses: 780217181
PS tag write accesses: 1936621

DRAM Statistics
 CHANNEL 0
 RQ ROW_BUFFER_HIT:      58310  ROW_BUFFER_MISS:     535759
 DBUS_CONGESTED:        107
 WQ ROW_BUFFER_HIT:      19718  ROW_BUFFER_MISS:     296089  FULL:          0

 AVG_CONGESTED_CYCLE: 4
 All warmup complete: 2
Channel 0 Bank busy for read cycles: 0
Channel 0 Bank busy for write cycles: 0
Channel 0
Rank 0
0banks busy for read cycles: 229140108
0banks busy for write cycles: 119822
1banks busy for read cycles: 39102632
1banks busy for write cycles: 16085385
2banks busy for read cycles: 10750617
2banks busy for write cycles: 5993530
3banks busy for read cycles: 3217206
3banks busy for write cycles: 3226514
4banks busy for read cycles: 1218227
4banks busy for write cycles: 1917196
5banks busy for read cycles: 528645
5banks busy for write cycles: 1121751
6banks busy for read cycles: 297635
6banks busy for write cycles: 668201
7banks busy for read cycles: 251425
7banks busy for write cycles: 355817
8banks busy for read cycles: 245423
8banks busy for write cycles: 212746

CPU 0 Branch Prediction Accuracy: 92.4682% MPKI: 9.41666 Average ROB Occupancy at Mispredict: 24.8669
Branch types
NOT_BRANCH: 174994601 87.4973%
BRANCH_DIRECT_JUMP: 2818425 1.40921%
BRANCH_INDIRECT: 447403 0.223701%
BRANCH_CONDITIONAL: 21154324 10.5772%
BRANCH_DIRECT_CALL: 190457 0.0952285%
BRANCH_INDIRECT_CALL: 102031 0.0510155%
BRANCH_RETURN: 292486 0.146243%
BRANCH_OTHER: 0 0%

DRAM PAGES: 1048576
Allocated PAGES: 8202
