
*** ChampSim Multicore Out-of-Order Simulator ***

Warmup Instructions: 50000000
Simulation Instructions: 200000000
Number of CPUs: 1
LLC sets: 2048
LLC ways: 16
L0D sets: 16
L0D ways: 2
ROB size: 352
LQ size: 128
SQ size: 72
Secure Berti: OFF
Berti: OFF
Berti Fill: OFF
On commit prefetching: OFF
Hit-based filter: ON
Time-guarding: ON
Free-slotting: ON
Leap-frogging: ON
Train prefetcher on L0D bypass: OFF
No translation penalty for prefetchers: OFF
Prefetch to L0D only: OFF
Prefetch to L1D only: OFF
Clean evictions: ON
Commit loads: ON
Commit write: ON
Fill commit loads to L2C, LLC: ON
DRAM IO FREQUENCY: 6400
ROB SIZE: 352
Off-chip DRAM Size: 4096 MB Channels: 1 Width: 64-bit Data Rate: 6400 MT/s
CPU 0 runs /home/sumon/secure_berti/GhostMinion/../../traces/gap/bc-5.trace.gz
.gz
BTB has LRU replacement policy
ITLB has LRU replacement policy
DTLB has LRU replacement policy
STLB has LRU replacement policy
L1I has LRU replacement policy
L0D has LRU replacement policy
L1D has LRU replacement policy
Bingo PHT WAYS: 16 and PHT_SIZE: 16384
L2C has LRU replacement policy
LLC has LRU replacement policy
Heartbeat CPU 0 instructions: 10000002 cycles: 3909501 heartbeat IPC: 2.55787 cumulative IPC: 2.55787 (Simulation time: 0 hr 0 min 37 sec) 
Heartbeat CPU 0 instructions: 20000001 cycles: 7406030 heartbeat IPC: 2.85998 cumulative IPC: 2.7005 (Simulation time: 0 hr 1 min 13 sec) 
Heartbeat CPU 0 instructions: 30000001 cycles: 10922336 heartbeat IPC: 2.84389 cumulative IPC: 2.74667 (Simulation time: 0 hr 1 min 49 sec) 
Heartbeat CPU 0 instructions: 40000003 cycles: 14387645 heartbeat IPC: 2.88575 cumulative IPC: 2.78016 (Simulation time: 0 hr 2 min 24 sec) 
Heartbeat CPU 0 instructions: 50000000 cycles: 17958113 heartbeat IPC: 2.80075 cumulative IPC: 2.78426 (Simulation time: 0 hr 3 min 1 sec) 

Warmup complete CPU 0 instructions: 50000004 cycles: 17958114 (Simulation time: 0 hr 3 min 1 sec) 

Heartbeat CPU 0 instructions: 60000000 cycles: 69880215 heartbeat IPC: 0.192596 cumulative IPC: 0.192596 (Simulation time: 0 hr 4 min 4 sec) 
Heartbeat CPU 0 instructions: 70000000 cycles: 119590227 heartbeat IPC: 0.201167 cumulative IPC: 0.196788 (Simulation time: 0 hr 5 min 5 sec) 
Heartbeat CPU 0 instructions: 80000000 cycles: 173569292 heartbeat IPC: 0.185257 cumulative IPC: 0.192788 (Simulation time: 0 hr 6 min 10 sec) 
Heartbeat CPU 0 instructions: 90000000 cycles: 226225602 heartbeat IPC: 0.189911 cumulative IPC: 0.192061 (Simulation time: 0 hr 7 min 22 sec) 
Heartbeat CPU 0 instructions: 100000000 cycles: 277860535 heartbeat IPC: 0.193667 cumulative IPC: 0.19238 (Simulation time: 0 hr 8 min 38 sec) 
Heartbeat CPU 0 instructions: 110000000 cycles: 329011586 heartbeat IPC: 0.195499 cumulative IPC: 0.192893 (Simulation time: 0 hr 9 min 55 sec) 
Heartbeat CPU 0 instructions: 120000001 cycles: 380962951 heartbeat IPC: 0.192488 cumulative IPC: 0.192835 (Simulation time: 0 hr 11 min 12 sec) 
Heartbeat CPU 0 instructions: 130000001 cycles: 431155288 heartbeat IPC: 0.199234 cumulative IPC: 0.193612 (Simulation time: 0 hr 12 min 28 sec) 
Heartbeat CPU 0 instructions: 140000002 cycles: 472723692 heartbeat IPC: 0.240567 cumulative IPC: 0.197904 (Simulation time: 0 hr 13 min 38 sec) 
Heartbeat CPU 0 instructions: 150000002 cycles: 504930668 heartbeat IPC: 0.310492 cumulative IPC: 0.20535 (Simulation time: 0 hr 14 min 44 sec) 
Heartbeat CPU 0 instructions: 160000001 cycles: 537520589 heartbeat IPC: 0.306843 cumulative IPC: 0.211717 (Simulation time: 0 hr 15 min 49 sec) 
Heartbeat CPU 0 instructions: 170000001 cycles: 569418848 heartbeat IPC: 0.313497 cumulative IPC: 0.217604 (Simulation time: 0 hr 17 min 3 sec) 
Heartbeat CPU 0 instructions: 180000003 cycles: 601793610 heartbeat IPC: 0.308883 cumulative IPC: 0.222665 (Simulation time: 0 hr 18 min 26 sec) 
Heartbeat CPU 0 instructions: 190000002 cycles: 633944631 heartbeat IPC: 0.311032 cumulative IPC: 0.227278 (Simulation time: 0 hr 19 min 48 sec) 
Heartbeat CPU 0 instructions: 200000002 cycles: 666076968 heartbeat IPC: 0.311213 cumulative IPC: 0.231439 (Simulation time: 0 hr 21 min 10 sec) 
Heartbeat CPU 0 instructions: 210000003 cycles: 698220574 heartbeat IPC: 0.311104 cumulative IPC: 0.235203 (Simulation time: 0 hr 22 min 30 sec) 
Heartbeat CPU 0 instructions: 220000000 cycles: 731116868 heartbeat IPC: 0.303986 cumulative IPC: 0.238376 (Simulation time: 0 hr 23 min 49 sec) 
Heartbeat CPU 0 instructions: 230000002 cycles: 764688361 heartbeat IPC: 0.297872 cumulative IPC: 0.241051 (Simulation time: 0 hr 25 min 7 sec) 
Heartbeat CPU 0 instructions: 240000002 cycles: 798413027 heartbeat IPC: 0.296519 cumulative IPC: 0.243448 (Simulation time: 0 hr 26 min 22 sec) 
Heartbeat CPU 0 instructions: 250000002 cycles: 832612585 heartbeat IPC: 0.292401 cumulative IPC: 0.245503 (Simulation time: 0 hr 27 min 37 sec) 
Finished CPU 0 instructions: 200000002 cycles: 814654472 cumulative IPC: 0.245503 (Simulation time: 0 hr 27 min 37 sec) 
 Instruction ID: 250000377

ChampSim completed all CPUs

Region of Interest Statistics

CPU 0 cumulative IPC: 0.245503 instructions: 200000002 cycles: 814654472
ITLB SPEC fills:          0  NON-SPEC fills:          0
ITLB Test counter :          0
ITLB Leapfrog:          0
ITLB MSHR merge:          0
ITLB TOTAL     ACCESS:   33906103  HIT:   33906103  MISS:          0  HIT %:        100  MISS %:          0   MPKI: 0
ITLB LOAD TRANSLATION NON_SPEC    ACCESS:   33906103  HIT:   33906103  MISS:          0  HIT %:        100  MISS %:          0   MPKI: 0
ITLB PREFETCH  REQUESTED:          0  ISSUED:          0  USEFUL:          0  USELESS:          0
ITLB USEFUL LOAD PREFETCHES:          0 PREFETCH ISSUED TO LOWER LEVEL:          0  ACCURACY: -nan
ITLB TIMELY PREFETCHES:          0 LATE PREFETCHES: 0 DROPPED PREFETCHES: 0
ITLB COMMIT LATE PREFETCHES: 0 MISSED OPPORTUNITY: 0 LATE IN PQ: 0 UNCOVERED: 0
ITLB COMMIT LATE MSHR PREFETCHES: 0
ITLB MPKI TOTAL: 0 MSHR LATE: 0 PQ LATE: 0 COMMIT LATE: 0 MISSED OPPORTUNITY: 0 UNCOVERED: 0
ITLB PREFETCHES SAME FILL-ORIGIN LEVEL: 0 DIFFERENT FILL-ORIGIN LEVEL: 0
ITLB AVERAGE MISS LATENCY: -nan cycles
ITLB AVERAGE MISS LATENCY LOAD: -nan cycles
ITLB AVERAGE MISS LATENCY PREFETCH: -nan cycles
ITLB AVERAGE MSHR OCCUPANCY: 0
ITLB MSHR FULL: 0
ITLB RQ	ACCESS:   34215967	FORWARD:          0	MERGED:     309864	TO_CACHE:   33906103

DTLB SPEC fills:          0  NON-SPEC fills:          0
DTLB Test counter :          0
DTLB Leapfrog:          0
DTLB MSHR merge:          0
DTLB TOTAL     ACCESS:   41925931  HIT:   33737710  MISS:    8188221  HIT %:    80.4698  MISS %:    19.5302   MPKI: 40.9411
DTLB LOAD TRANSLATION NON_SPEC    ACCESS:   41925931  HIT:   33737710  MISS:    8188221  HIT %:    80.4698  MISS %:    19.5302   MPKI: 40.9411
DTLB PREFETCH  REQUESTED:          0  ISSUED:          0  USEFUL:          0  USELESS:          0
DTLB USEFUL LOAD PREFETCHES:          0 PREFETCH ISSUED TO LOWER LEVEL:          0  ACCURACY: -nan
DTLB TIMELY PREFETCHES:          0 LATE PREFETCHES: 0 DROPPED PREFETCHES: 0
DTLB COMMIT LATE PREFETCHES: 0 MISSED OPPORTUNITY: 0 LATE IN PQ: 0 UNCOVERED: 0
DTLB COMMIT LATE MSHR PREFETCHES: 0
DTLB MPKI TOTAL: 0 MSHR LATE: 0 PQ LATE: 0 COMMIT LATE: 0 MISSED OPPORTUNITY: 0 UNCOVERED: 0
DTLB PREFETCHES SAME FILL-ORIGIN LEVEL: 0 DIFFERENT FILL-ORIGIN LEVEL: 0
DTLB AVERAGE MISS LATENCY: 31.1726 cycles
DTLB AVERAGE MISS LATENCY LOAD: -nan cycles
DTLB AVERAGE MISS LATENCY PREFETCH: -nan cycles
DTLB AVERAGE MSHR OCCUPANCY: 0.767222
DTLB MSHR FULL: 0.0252284
DTLB RQ	ACCESS:   47743198	FORWARD:          0	MERGED:    4495571	TO_CACHE:   43247627

STLB SPEC fills:          0  NON-SPEC fills:          0
STLB Test counter :          0
STLB Leapfrog:          0
STLB MSHR merge:          0
STLB TOTAL     ACCESS:    8188221  HIT:    6791032  MISS:    1397189  HIT %:    82.9366  MISS %:    17.0634   MPKI: 6.98594
STLB LOAD TRANSLATION NON_SPEC    ACCESS:    8188221  HIT:    6791032  MISS:    1397189  HIT %:    82.9366  MISS %:    17.0634   MPKI: 6.98594
STLB PREFETCH  REQUESTED:          0  ISSUED:          0  USEFUL:          0  USELESS:          0
STLB USEFUL LOAD PREFETCHES:          0 PREFETCH ISSUED TO LOWER LEVEL:          0  ACCURACY: -nan
STLB TIMELY PREFETCHES:          0 LATE PREFETCHES: 0 DROPPED PREFETCHES: 0
STLB COMMIT LATE PREFETCHES: 0 MISSED OPPORTUNITY: 0 LATE IN PQ: 0 UNCOVERED: 0
STLB COMMIT LATE MSHR PREFETCHES: 0
STLB MPKI TOTAL: 0 MSHR LATE: 0 PQ LATE: 0 COMMIT LATE: 0 MISSED OPPORTUNITY: 0 UNCOVERED: 0
STLB PREFETCHES SAME FILL-ORIGIN LEVEL: 0 DIFFERENT FILL-ORIGIN LEVEL: 0
STLB AVERAGE MISS LATENCY: 128.096 cycles
STLB AVERAGE MISS LATENCY LOAD: -nan cycles
STLB AVERAGE MISS LATENCY PREFETCH: -nan cycles
STLB AVERAGE MSHR OCCUPANCY: 0.253349
STLB MSHR FULL: 0
STLB RQ	ACCESS:    8188220	FORWARD:          0	MERGED:          0	TO_CACHE:    8188220

STLB Hit, L1D data hit: 0
STLB Hit, L2C data hit: 0
STLB Hit, LLC data hit: 0
STLB Hit, LLC data miss: 0
STLB STLB hints to L2: 0
L0D SPEC fills:   25149986  NON-SPEC fills:          0
L0D TimeGuard Request with older TS:     485642 Restricted eviction:     342639 read:       3233
L0D Test counter :          0
L0D Leapfrog:          0
L0D MSHR merge:    1934343
L0D TOTAL     ACCESS:   38303680  HIT:   10713959  MISS:   27589721  HIT %:    27.9711  MISS %:    72.0289   MPKI: 137.949
L0D LOAD      TOTAL       ACCESS:   38303680  HIT:   10713959  MISS:   27589721  HIT %:    27.9711  MISS %:    72.0289   MPKI: 137.949
L0D LOAD      NON_SPEC    ACCESS:    2099362  HIT:       2208  MISS:    2097154  HIT %:   0.105175  MISS %:    99.8948   MPKI: 10.4858
L0D LOAD      SPEC        ACCESS:   36204318  HIT:   10711751  MISS:   25492567  HIT %:    29.5869  MISS %:    70.4131   MPKI: 127.463
L0D PREFETCH  REQUESTED:          0  ISSUED:          0  USEFUL:          0  USELESS:          0
L0D USEFUL LOAD PREFETCHES:          0 PREFETCH ISSUED TO LOWER LEVEL:          0  ACCURACY: -nan
L0D TIMELY PREFETCHES:          0 LATE PREFETCHES: 0 DROPPED PREFETCHES: 0
L0D COMMIT LATE PREFETCHES: 0 MISSED OPPORTUNITY: 0 LATE IN PQ: 0 UNCOVERED: 0
L0D COMMIT LATE MSHR PREFETCHES: 0
L0D MPKI TOTAL: 147.62 MSHR LATE: 0 PQ LATE: 0 COMMIT LATE: 0 MISSED OPPORTUNITY: 0 UNCOVERED: 0
L0D PREFETCHES SAME FILL-ORIGIN LEVEL: 0 DIFFERENT FILL-ORIGIN LEVEL: 0
L0D AVERAGE MISS LATENCY: 83.4158 cycles
L0D AVERAGE MISS LATENCY LOAD: 83.4158 cycles
L0D AVERAGE MISS LATENCY PREFETCH: -nan cycles
L0D AVERAGE MSHR OCCUPANCY: 5.29576
L0D MSHR FULL: 0.486391
L0D RQ	ACCESS:   47023325	FORWARD:          0	MERGED:    6785309	TO_CACHE:   40238016
L0D WQ	ACCESS:    7505182	FORWARD:          0	MERGED:          0	TO_CACHE:    7505182

L1D SPEC fills:          0  NON-SPEC fills:    1013435
L1D Test counter :          0
L1D Leapfrog:          0
L1D MSHR merge:      22827
L1D TOTAL     ACCESS:   50319374  HIT:   16058668  MISS:   34260706  HIT %:    31.9135  MISS %:    68.0865   MPKI: 171.304
L1D LOAD      TOTAL       ACCESS:   27566893  HIT:    9886527  MISS:   17680366  HIT %:    35.8638  MISS %:    64.1362   MPKI: 88.4018
L1D LOAD      NON_SPEC    ACCESS:    2093671  HIT:    1080236  MISS:    1013435  HIT %:    51.5953  MISS %:    48.4047   MPKI: 5.06717
L1D LOAD      SPEC        ACCESS:   25473222  HIT:    8806291  MISS:   16666931  HIT %:    34.5708  MISS %:    65.4292   MPKI: 83.3347
L1D RFO       NON_SPEC    ACCESS:    3867544  HIT:    3833480  MISS:      34064  HIT %:    99.1192  MISS %:   0.880766   MPKI: 0.17032
L1D COMMIT LOAD NON_SPEC    ACCESS:    2265475  HIT:    1832866  MISS:     432609  HIT %:    80.9043  MISS %:    19.0957   MPKI: 2.16304
L1D COMMIT WRITE NON_SPEC    ACCESS:   16619462  HIT:     505795  MISS:   16113667  HIT %:    3.04339  MISS %:    96.9566   MPKI: 80.5683
L1D PREFETCH  REQUESTED:          0  ISSUED:          0  USEFUL:          0  USELESS:          0
L1D USEFUL LOAD PREFETCHES:          0 PREFETCH ISSUED TO LOWER LEVEL:          0  ACCURACY: -nan
L1D TIMELY PREFETCHES:          0 LATE PREFETCHES: 0 DROPPED PREFETCHES: 0
L1D COMMIT LATE PREFETCHES: 0 MISSED OPPORTUNITY: 0 LATE IN PQ: 0 UNCOVERED: 0
L1D COMMIT LATE MSHR PREFETCHES: 0
L1D MPKI TOTAL: 88.516 MSHR LATE: 0 PQ LATE: 0 COMMIT LATE: 0 MISSED OPPORTUNITY: 0 UNCOVERED: 0
L1D PREFETCHES SAME FILL-ORIGIN LEVEL: 0 DIFFERENT FILL-ORIGIN LEVEL: 0
L1D AVERAGE MISS LATENCY: 61.2394 cycles
L1D AVERAGE MISS LATENCY LOAD: 116.494 cycles
L1D AVERAGE MISS LATENCY PREFETCH: -nan cycles
L1D AVERAGE MSHR OCCUPANCY: 2.7178
L1D MSHR FULL: 0.0201867
L1D RQ	ACCESS:   30558998	FORWARD:          0	MERGED:     671413	TO_CACHE:   29887234
L1D WQ	ACCESS:   24124643	FORWARD:        351	MERGED:    3554432	TO_CACHE:   20570211

L1D UNIQUE REGIONS ACCESSED: 0
L1D REGIONS CONFLICTS: 0
L1D Cross Page Prefetch Requests: 0
L1D Same Page Prefetch Requests: 0
L1D ROI Sum of L1D PQ occupancy: 0
L1D PREFETCHES PUSHED FROM L2C: 0
L1I SPEC fills:          0  NON-SPEC fills:          0
L1I Test counter :          0
L1I Leapfrog:          0
L1I MSHR merge:          0
L1I TOTAL     ACCESS:   34215965  HIT:   34215965  MISS:          0  HIT %:        100  MISS %:          0   MPKI: 0
L1I LOAD      TOTAL       ACCESS:   34215965  HIT:   34215965  MISS:          0  HIT %:        100  MISS %:          0   MPKI: 0
L1I LOAD      NON_SPEC    ACCESS:   34215965  HIT:   34215965  MISS:          0  HIT %:        100  MISS %:          0   MPKI: 0
L1I PREFETCH  REQUESTED:          0  ISSUED:          0  USEFUL:          0  USELESS:          0
L1I USEFUL LOAD PREFETCHES:          0 PREFETCH ISSUED TO LOWER LEVEL:          0  ACCURACY: -nan
L1I TIMELY PREFETCHES:          0 LATE PREFETCHES: 0 DROPPED PREFETCHES: 0
L1I COMMIT LATE PREFETCHES: 0 MISSED OPPORTUNITY: 0 LATE IN PQ: 0 UNCOVERED: 0
L1I COMMIT LATE MSHR PREFETCHES: 0
L1I MPKI TOTAL: 0 MSHR LATE: 0 PQ LATE: 0 COMMIT LATE: 0 MISSED OPPORTUNITY: 0 UNCOVERED: 0
L1I PREFETCHES SAME FILL-ORIGIN LEVEL: 0 DIFFERENT FILL-ORIGIN LEVEL: 0
L1I AVERAGE MISS LATENCY: -nan cycles
L1I AVERAGE MISS LATENCY LOAD: -nan cycles
L1I AVERAGE MISS LATENCY PREFETCH: -nan cycles
L1I AVERAGE MSHR OCCUPANCY: 0
L1I MSHR FULL: 0
L1I RQ	ACCESS:   54178411	FORWARD:          0	MERGED:   19962444	TO_CACHE:   34215967

BTB SPEC fills:          0  NON-SPEC fills:          0
BTB Test counter :          0
BTB Leapfrog:          0
BTB MSHR merge:          0
BTB TOTAL     ACCESS:   41913169  HIT:   41913127  MISS:         42  HIT %:    99.9999  MISS %: 0.000100207   MPKI: 0.00021
BTB BRANCH_DIRECT_JUMP	ACCESS:     294369  HIT:     294357  MISS:         12
BTB BRANCH_INDIRECT	ACCESS:          0  HIT:          0  MISS:          0
BTB BRANCH_CONDITIONAL	ACCESS:   41618756  HIT:   41618741  MISS:         15
BTB BRANCH_DIRECT_CALL	ACCESS:         22  HIT:         15  MISS:          7
BTB BRANCH_INDIRECT_CALL	ACCESS:          0  HIT:          0  MISS:          0
BTB BRANCH_RETURN	ACCESS:         22  HIT:         14  MISS:          8
BTB BRANCH_OTHER ACCESS:          0  HIT:          0  MISS:          0

L2C SPEC fills:          0  NON-SPEC fills:     797228
L2C Test counter :          0
L2C Leapfrog:          0
L2C MSHR merge:     231529
L2C TOTAL     ACCESS:   48458199  HIT:   12614113  MISS:   35844086  HIT %:    26.0309  MISS %:    73.9691   MPKI: 179.22
L2C LOAD      TOTAL       ACCESS:   17679984  HIT:    4250785  MISS:   13429199  HIT %:    24.0429  MISS %:    75.9571   MPKI: 67.146
L2C LOAD      NON_SPEC    ACCESS:    1013427  HIT:     216199  MISS:     797228  HIT %:    21.3335  MISS %:    78.6665   MPKI: 3.98614
L2C LOAD      SPEC        ACCESS:   16666557  HIT:    4034586  MISS:   12631971  HIT %:    24.2077  MISS %:    75.7923   MPKI: 63.1599
L2C RFO       NON_SPEC    ACCESS:      34057  HIT:        413  MISS:      33644  HIT %:    1.21267  MISS %:    98.7873   MPKI: 0.16822
L2C PREFETCH  NON_SPEC    ACCESS:   10405975  HIT:     852989  MISS:    9552986  HIT %:    8.19711  MISS %:    91.8029   MPKI: 47.7649
L2C WRITEBACK NON_SPEC    ACCESS:     266352  HIT:     265741  MISS:        611  HIT %:    99.7706  MISS %:   0.229396   MPKI: 0.003055
L2C CLEAN_EVICTION NON_SPEC    ACCESS:   12653320  HIT:     303347  MISS:   12349973  HIT %:    2.39737  MISS %:    97.6026   MPKI: 61.7499
L2C COMMIT LOAD NON_SPEC    ACCESS:     432609  HIT:     163366  MISS:     269243  HIT %:     37.763  MISS %:     62.237   MPKI: 1.34621
L2C LOAD TRANSLATION NON_SPEC    ACCESS:    6985902  HIT:    6777472  MISS:     208430  HIT %:    97.0164  MISS %:    2.98358   MPKI: 1.04215
L2C PREFETCH  REQUESTED:   10823215  ISSUED:   10823215  USEFUL:    1499603  USELESS:    8053985
L2C USEFUL LOAD PREFETCHES:    1499603 PREFETCH ISSUED TO LOWER LEVEL:    9784525  ACCURACY: 15.3263
L2C TIMELY PREFETCHES:    1499603 LATE PREFETCHES: 231538 DROPPED PREFETCHES: 0
L2C COMMIT LATE PREFETCHES: 0 MISSED OPPORTUNITY: 0 LATE IN PQ: 0 UNCOVERED: 0
L2C COMMIT LATE MSHR PREFETCHES: 0
L2C MPKI TOTAL: 67.146 MSHR LATE: 1.15769 PQ LATE: 0 COMMIT LATE: 0 MISSED OPPORTUNITY: 0 UNCOVERED: 0
L2C PREFETCHES SAME FILL-ORIGIN LEVEL: 9784525 DIFFERENT FILL-ORIGIN LEVEL: 0
L2C AVERAGE MISS LATENCY: 124.73 cycles
L2C AVERAGE MISS LATENCY LOAD: 138.257 cycles
L2C AVERAGE MISS LATENCY PREFETCH: 267.995 cycles
L2C AVERAGE MSHR OCCUPANCY: 5.32442
L2C MSHR FULL: 0.010462
L2C RQ	ACCESS:   25132940	FORWARD:          0	MERGED:          0	TO_CACHE:   25132551
L2C WQ	ACCESS:   12919672	FORWARD:        398	MERGED:          0	TO_CACHE:   12919672
L2C PQ	ACCESS:   10823215	FORWARD:          0	MERGED:          2	TO_CACHE:   10823204

L2C Instructions Evicting Data 0
L2C Translations Evicting Data 206328
L2C Data Evicting Data 10562374
L2C Instructions Evicting Instructions 0
L2C Translations Evicting Instructions 0
L2C Data Evicting Instructions 0
L2C Instructions Evicting Translations 0
L2C Translations Evicting Translations 2102
L2C Data Evicting Translations 90727
L2C Dense regions hint from L2: 0
PSCL5 SPEC fills:          0  NON-SPEC fills:          0
PSCL5 Test counter :          0
PSCL5 Leapfrog:          0
PSCL5 MSHR merge:          0
PSCL5 TOTAL     ACCESS:          0  HIT:          0  MISS:          0  HIT %:       -nan  MISS %:       -nan   MPKI: 0
PSCL5 PREFETCH  REQUESTED:          0  ISSUED:          0  USEFUL:          0  USELESS:          0
PSCL5 USEFUL LOAD PREFETCHES:          0 PREFETCH ISSUED TO LOWER LEVEL:          0  ACCURACY: -nan
PSCL5 TIMELY PREFETCHES:          0 LATE PREFETCHES: 0 DROPPED PREFETCHES: 0
PSCL5 COMMIT LATE PREFETCHES: 0 MISSED OPPORTUNITY: 0 LATE IN PQ: 0 UNCOVERED: 0
PSCL5 COMMIT LATE MSHR PREFETCHES: 0
PSCL5 MPKI TOTAL: 0 MSHR LATE: 0 PQ LATE: 0 COMMIT LATE: 0 MISSED OPPORTUNITY: 0 UNCOVERED: 0
PSCL5 PREFETCHES SAME FILL-ORIGIN LEVEL: 0 DIFFERENT FILL-ORIGIN LEVEL: 0

PSCL4 SPEC fills:          0  NON-SPEC fills:          0
PSCL4 Test counter :          0
PSCL4 Leapfrog:          0
PSCL4 MSHR merge:          0
PSCL4 TOTAL     ACCESS:          0  HIT:          0  MISS:          0  HIT %:       -nan  MISS %:       -nan   MPKI: 0
PSCL4 PREFETCH  REQUESTED:          0  ISSUED:          0  USEFUL:          0  USELESS:          0
PSCL4 USEFUL LOAD PREFETCHES:          0 PREFETCH ISSUED TO LOWER LEVEL:          0  ACCURACY: -nan
PSCL4 TIMELY PREFETCHES:          0 LATE PREFETCHES: 0 DROPPED PREFETCHES: 0
PSCL4 COMMIT LATE PREFETCHES: 0 MISSED OPPORTUNITY: 0 LATE IN PQ: 0 UNCOVERED: 0
PSCL4 COMMIT LATE MSHR PREFETCHES: 0
PSCL4 MPKI TOTAL: 0 MSHR LATE: 0 PQ LATE: 0 COMMIT LATE: 0 MISSED OPPORTUNITY: 0 UNCOVERED: 0
PSCL4 PREFETCHES SAME FILL-ORIGIN LEVEL: 0 DIFFERENT FILL-ORIGIN LEVEL: 0

PSCL3 SPEC fills:          0  NON-SPEC fills:          0
PSCL3 Test counter :          0
PSCL3 Leapfrog:          0
PSCL3 MSHR merge:          0
PSCL3 TOTAL     ACCESS:          0  HIT:          0  MISS:          0  HIT %:       -nan  MISS %:       -nan   MPKI: 0
PSCL3 PREFETCH  REQUESTED:          0  ISSUED:          0  USEFUL:          0  USELESS:          0
PSCL3 USEFUL LOAD PREFETCHES:          0 PREFETCH ISSUED TO LOWER LEVEL:          0  ACCURACY: -nan
PSCL3 TIMELY PREFETCHES:          0 LATE PREFETCHES: 0 DROPPED PREFETCHES: 0
PSCL3 COMMIT LATE PREFETCHES: 0 MISSED OPPORTUNITY: 0 LATE IN PQ: 0 UNCOVERED: 0
PSCL3 COMMIT LATE MSHR PREFETCHES: 0
PSCL3 MPKI TOTAL: 0 MSHR LATE: 0 PQ LATE: 0 COMMIT LATE: 0 MISSED OPPORTUNITY: 0 UNCOVERED: 0
PSCL3 PREFETCHES SAME FILL-ORIGIN LEVEL: 0 DIFFERENT FILL-ORIGIN LEVEL: 0

PSCL2 SPEC fills:          0  NON-SPEC fills:          0
PSCL2 Test counter :          0
PSCL2 Leapfrog:          0
PSCL2 MSHR merge:          0
PSCL2 TOTAL     ACCESS:          0  HIT:          0  MISS:          0  HIT %:       -nan  MISS %:       -nan   MPKI: 0
PSCL2 PREFETCH  REQUESTED:          0  ISSUED:          0  USEFUL:          0  USELESS:          0
PSCL2 USEFUL LOAD PREFETCHES:          0 PREFETCH ISSUED TO LOWER LEVEL:          0  ACCURACY: -nan
PSCL2 TIMELY PREFETCHES:          0 LATE PREFETCHES: 0 DROPPED PREFETCHES: 0
PSCL2 COMMIT LATE PREFETCHES: 0 MISSED OPPORTUNITY: 0 LATE IN PQ: 0 UNCOVERED: 0
PSCL2 COMMIT LATE MSHR PREFETCHES: 0
PSCL2 MPKI TOTAL: 0 MSHR LATE: 0 PQ LATE: 0 COMMIT LATE: 0 MISSED OPPORTUNITY: 0 UNCOVERED: 0
PSCL2 PREFETCHES SAME FILL-ORIGIN LEVEL: 0 DIFFERENT FILL-ORIGIN LEVEL: 0

LLC SPEC fills:          0  NON-SPEC fills:     469430
LLC Test counter :          0
LLC Leapfrog:          0
LLC MSHR merge:          0
LLC TOTAL     ACCESS:   36392578  HIT:   14568083  MISS:   21824495  HIT %:    40.0304  MISS %:    59.9696   MPKI: 109.122
LLC LOAD      TOTAL       ACCESS:   13197466  HIT:    6367041  MISS:    6830425  HIT %:    48.2444  MISS %:    51.7556   MPKI: 34.1521
LLC LOAD      NON_SPEC    ACCESS:     790709  HIT:     321279  MISS:     469430  HIT %:    40.6318  MISS %:    59.3682   MPKI: 2.34715
LLC LOAD      SPEC        ACCESS:   12406757  HIT:    6045762  MISS:    6360995  HIT %:    48.7296  MISS %:    51.2704   MPKI: 31.805
LLC RFO       NON_SPEC    ACCESS:      33636  HIT:        536  MISS:      33100  HIT %:    1.59353  MISS %:    98.4065   MPKI: 0.1655
LLC PREFETCH  NON_SPEC    ACCESS:    9784465  HIT:    2083549  MISS:    7700916  HIT %:    21.2945  MISS %:    78.7055   MPKI: 38.5046
LLC WRITEBACK NON_SPEC    ACCESS:     258711  HIT:     258676  MISS:         35  HIT %:    99.9865  MISS %:  0.0135286   MPKI: 0.000175
LLC CLEAN_EVICTION NON_SPEC    ACCESS:   12640725  HIT:    5496628  MISS:    7144097  HIT %:    43.4835  MISS %:    56.5165   MPKI: 35.7205
LLC COMMIT LOAD NON_SPEC    ACCESS:     269145  HIT:     213889  MISS:      55256  HIT %:    79.4698  MISS %:    20.5302   MPKI: 0.27628
LLC LOAD TRANSLATION NON_SPEC    ACCESS:     208430  HIT:     147764  MISS:      60666  HIT %:    70.8938  MISS %:    29.1062   MPKI: 0.30333
LLC PREFETCH  REQUESTED:          0  ISSUED:          0  USEFUL:     599064  USELESS:    7106577
LLC USEFUL LOAD PREFETCHES:     599064 PREFETCH ISSUED TO LOWER LEVEL:    7700917  ACCURACY: 7.77913
LLC TIMELY PREFETCHES:     599064 LATE PREFETCHES: 0 DROPPED PREFETCHES: 0
LLC COMMIT LATE PREFETCHES: 0 MISSED OPPORTUNITY: 0 LATE IN PQ: 0 UNCOVERED: 0
LLC COMMIT LATE MSHR PREFETCHES: 0
LLC MPKI TOTAL: 34.1521 MSHR LATE: 0 PQ LATE: 0 COMMIT LATE: 0 MISSED OPPORTUNITY: 0 UNCOVERED: 0
LLC PREFETCHES SAME FILL-ORIGIN LEVEL: 0 DIFFERENT FILL-ORIGIN LEVEL: 0
LLC AVERAGE MISS LATENCY: 179.205 cycles
LLC AVERAGE MISS LATENCY LOAD: 222.678 cycles
LLC AVERAGE MISS LATENCY PREFETCH: 305.348 cycles
LLC AVERAGE MSHR OCCUPANCY: 3.76706
LLC MSHR FULL: 0
LLC RQ	ACCESS:   13708977	FORWARD:          0	MERGED:          0	TO_CACHE:   13708676
LLC WQ	ACCESS:   12899436	FORWARD:        360	MERGED:          0	TO_CACHE:   12899436
LLC PQ	ACCESS:    9784525	FORWARD:          0	MERGED:          0	TO_CACHE:    9784466

LLC Dense regions hint to LLC: 0

RAW hits: 2453605
Loads Generated: 49476931
Loads sent to L1D: 47023325
Stores Generated: 7505174
Stores sent to L1D: 7505182
Major fault: 0 Minor fault: 33326
Allocated PAGES: 33326
Total Load insts: 60832251
Total Non-spec loads: 2497152
Percentage of speculative loads: 95.895

LeapFrogging counter: 13615894
Commit hits: 24711813 miss: 20212152
Commit hit %: 55.0081 miss %: 44.9919
Commits not translated: 0
Loads retired: 17680356
Stores retired: 7505182
Cache fills: 17680366
L1D response latency: 116.494 cycles
Load retirement latency: 314.042 cycles
OOO test counter: 0
Discarded buffer inserts: 24711813 hits: 99663 hit %: 0.403301
Filter prediction accuracy: 99.2878
[Bingo] PHT Access: 10123626
[Bingo] PHT Hit PC+Addr: 357937
[Bingo] PHT Hit PC+Offs: 9762008
[Bingo] PHT Miss: 3681
[Bingo] Prefetch PC+Addr: 0
[Bingo] Prefetch PC+Offs: 0
[Bingo] Useful PC+Addr: 0
[Bingo] Useful PC+Offs: 0
[Bingo] Useless PC+Addr: 0
[Bingo] Useless PC+Offs: 0
[Bingo] L1 Prefetch per Region: 0
[Bingo] L2 Prefetch per Region: 2.08494
[Bingo] L3 Prefetch per Region: 0
[Bingo] No Prefetch per Region: 29.9151
[Bingo] Number of Voters Mean: 15.9836
[Bingo] Number of Voters SD: 6.40649
PHT read accesses: 159089605
PHT write accesses: 3264180
AT read accesses: 8305472
AT write accesses: 10817129
FT read accesses: 10165413
FT write accesses: 10123626
PS read accesses: 20437029
PS write accesses: 10119945
PHT tag read accesses: 262306748
PHT tag write accesses: 3622117
AT tag read accesses: 805245681
AT tag write accesses: 11569654
FT tag read accesses: 932584852
FT tag write accesses: 17021447
PS tag read accesses: 657758054
PS tag write accesses: 30540711

DRAM Statistics
 CHANNEL 0
 RQ ROW_BUFFER_HIT:    4414535  ROW_BUFFER_MISS:   10254709
 DBUS_CONGESTED:       3129
 WQ ROW_BUFFER_HIT:    1911590  ROW_BUFFER_MISS:    6378635  FULL:      94132

 AVG_CONGESTED_CYCLE: 5
 All warmup complete: 2
Channel 0 Bank busy for read cycles: 0
Channel 0 Bank busy for write cycles: 0
Channel 0
Rank 0
0banks busy for read cycles: 22141204
0banks busy for write cycles: 49199
1banks busy for read cycles: 112658815
1banks busy for write cycles: 8255501
2banks busy for read cycles: 100691262
2banks busy for write cycles: 6976954
3banks busy for read cycles: 87979891
3banks busy for write cycles: 6991179
4banks busy for read cycles: 73577116
4banks busy for write cycles: 8157163
5banks busy for read cycles: 55029945
5banks busy for write cycles: 13220918
6banks busy for read cycles: 36508375
6banks busy for write cycles: 30593507
7banks busy for read cycles: 25147637
7banks busy for write cycles: 72474709
8banks busy for read cycles: 33495556
8banks busy for write cycles: 120705542

CPU 0 Branch Prediction Accuracy: 97.9623% MPKI: 4.27319 Average ROB Occupancy at Mispredict: 140.664
Branch types
NOT_BRANCH: 158058064 79.029%
BRANCH_DIRECT_JUMP: 294369 0.147184%
BRANCH_INDIRECT: 0 0%
BRANCH_CONDITIONAL: 41647514 20.8238%
BRANCH_DIRECT_CALL: 22 1.1e-05%
BRANCH_INDIRECT_CALL: 0 0%
BRANCH_RETURN: 22 1.1e-05%
BRANCH_OTHER: 0 0%

DRAM PAGES: 1048576
Allocated PAGES: 33326
