
*** ChampSim Multicore Out-of-Order Simulator ***

Warmup Instructions: 50000000
Simulation Instructions: 200000000
Number of CPUs: 1
LLC sets: 2048
LLC ways: 16
L0D sets: 16
L0D ways: 2
ROB size: 352
LQ size: 128
SQ size: 72
Secure Berti: OFF
Berti: OFF
Berti Fill: OFF
On commit prefetching: OFF
Hit-based filter: ON
Time-guarding: ON
Free-slotting: ON
Leap-frogging: ON
Train prefetcher on L0D bypass: OFF
No translation penalty for prefetchers: OFF
Prefetch to L0D only: OFF
Prefetch to L1D only: OFF
Clean evictions: ON
Commit loads: ON
Commit write: ON
Fill commit loads to L2C, LLC: ON
DRAM IO FREQUENCY: 6400
ROB SIZE: 352
Off-chip DRAM Size: 4096 MB Channels: 1 Width: 64-bit Data Rate: 6400 MT/s
CPU 0 runs /home/sumon/secure_berti/GhostMinion/../../traces/gap/bfs-8.trace.gz
.gz
BTB has LRU replacement policy
ITLB has LRU replacement policy
DTLB has LRU replacement policy
STLB has LRU replacement policy
L1I has LRU replacement policy
L0D has LRU replacement policy
L1D has LRU replacement policy
Bingo PHT WAYS: 16 and PHT_SIZE: 16384
L2C has LRU replacement policy
LLC has LRU replacement policy
Heartbeat CPU 0 instructions: 10000003 cycles: 2972528 heartbeat IPC: 3.36414 cumulative IPC: 3.36414 (Simulation time: 0 hr 0 min 16 sec) 
Heartbeat CPU 0 instructions: 20000001 cycles: 6179888 heartbeat IPC: 3.11783 cumulative IPC: 3.2363 (Simulation time: 0 hr 0 min 43 sec) 
Heartbeat CPU 0 instructions: 30000003 cycles: 9417708 heartbeat IPC: 3.0885 cumulative IPC: 3.18549 (Simulation time: 0 hr 1 min 10 sec) 
Heartbeat CPU 0 instructions: 40000003 cycles: 12662015 heartbeat IPC: 3.08232 cumulative IPC: 3.15905 (Simulation time: 0 hr 1 min 35 sec) 
Heartbeat CPU 0 instructions: 50000003 cycles: 15832938 heartbeat IPC: 3.15366 cumulative IPC: 3.15797 (Simulation time: 0 hr 1 min 53 sec) 

Warmup complete CPU 0 instructions: 50000003 cycles: 15832938 (Simulation time: 0 hr 1 min 53 sec) 

Heartbeat CPU 0 instructions: 60000000 cycles: 39395189 heartbeat IPC: 0.424408 cumulative IPC: 0.424408 (Simulation time: 0 hr 2 min 23 sec) 
Heartbeat CPU 0 instructions: 70000000 cycles: 59788111 heartbeat IPC: 0.490366 cumulative IPC: 0.455009 (Simulation time: 0 hr 2 min 48 sec) 
Heartbeat CPU 0 instructions: 80000001 cycles: 89815744 heartbeat IPC: 0.333027 cumulative IPC: 0.4055 (Simulation time: 0 hr 3 min 19 sec) 
Heartbeat CPU 0 instructions: 90000001 cycles: 125619975 heartbeat IPC: 0.279297 cumulative IPC: 0.364342 (Simulation time: 0 hr 3 min 52 sec) 
Heartbeat CPU 0 instructions: 100000000 cycles: 161507082 heartbeat IPC: 0.278652 cumulative IPC: 0.343232 (Simulation time: 0 hr 4 min 25 sec) 
Heartbeat CPU 0 instructions: 110000000 cycles: 201869847 heartbeat IPC: 0.247753 cumulative IPC: 0.322517 (Simulation time: 0 hr 4 min 57 sec) 
Heartbeat CPU 0 instructions: 120000002 cycles: 233266340 heartbeat IPC: 0.318507 cumulative IPC: 0.321938 (Simulation time: 0 hr 5 min 24 sec) 
Heartbeat CPU 0 instructions: 130000001 cycles: 248988961 heartbeat IPC: 0.636026 cumulative IPC: 0.343118 (Simulation time: 0 hr 5 min 45 sec) 
Heartbeat CPU 0 instructions: 140000000 cycles: 265279106 heartbeat IPC: 0.613868 cumulative IPC: 0.360799 (Simulation time: 0 hr 6 min 9 sec) 
Heartbeat CPU 0 instructions: 150000001 cycles: 291903990 heartbeat IPC: 0.375589 cumulative IPC: 0.362226 (Simulation time: 0 hr 6 min 40 sec) 
Heartbeat CPU 0 instructions: 160000000 cycles: 327854299 heartbeat IPC: 0.278162 cumulative IPC: 0.35254 (Simulation time: 0 hr 7 min 16 sec) 
Heartbeat CPU 0 instructions: 170000001 cycles: 363896408 heartbeat IPC: 0.277453 cumulative IPC: 0.344765 (Simulation time: 0 hr 7 min 52 sec) 
Heartbeat CPU 0 instructions: 180000000 cycles: 400232995 heartbeat IPC: 0.275205 cumulative IPC: 0.338189 (Simulation time: 0 hr 8 min 29 sec) 
Heartbeat CPU 0 instructions: 190000001 cycles: 444474811 heartbeat IPC: 0.226031 cumulative IPC: 0.326613 (Simulation time: 0 hr 9 min 8 sec) 
Heartbeat CPU 0 instructions: 200000000 cycles: 477012136 heartbeat IPC: 0.307339 cumulative IPC: 0.325253 (Simulation time: 0 hr 9 min 40 sec) 
Heartbeat CPU 0 instructions: 210000000 cycles: 492999206 heartbeat IPC: 0.625506 cumulative IPC: 0.335313 (Simulation time: 0 hr 10 min 5 sec) 
Heartbeat CPU 0 instructions: 220000000 cycles: 509411409 heartbeat IPC: 0.609303 cumulative IPC: 0.344423 (Simulation time: 0 hr 10 min 30 sec) 
Heartbeat CPU 0 instructions: 230000000 cycles: 537143555 heartbeat IPC: 0.360592 cumulative IPC: 0.345284 (Simulation time: 0 hr 11 min 1 sec) 
Heartbeat CPU 0 instructions: 240000001 cycles: 571713620 heartbeat IPC: 0.289268 cumulative IPC: 0.3418 (Simulation time: 0 hr 11 min 40 sec) 
Heartbeat CPU 0 instructions: 250000002 cycles: 606092930 heartbeat IPC: 0.290873 cumulative IPC: 0.338834 (Simulation time: 0 hr 12 min 17 sec) 
Finished CPU 0 instructions: 200000003 cycles: 590259993 cumulative IPC: 0.338834 (Simulation time: 0 hr 12 min 17 sec) 
 Instruction ID: 250000021

ChampSim completed all CPUs

Region of Interest Statistics

CPU 0 cumulative IPC: 0.338834 instructions: 200000003 cycles: 590259993
ITLB SPEC fills:          0  NON-SPEC fills:          0
ITLB Test counter :          0
ITLB Leapfrog:          0
ITLB MSHR merge:          0
ITLB TOTAL     ACCESS:   33975966  HIT:   33975966  MISS:          0  HIT %:        100  MISS %:          0   MPKI: 0
ITLB LOAD TRANSLATION NON_SPEC    ACCESS:   33975966  HIT:   33975966  MISS:          0  HIT %:        100  MISS %:          0   MPKI: 0
ITLB PREFETCH  REQUESTED:          0  ISSUED:          0  USEFUL:          0  USELESS:          0
ITLB USEFUL LOAD PREFETCHES:          0 PREFETCH ISSUED TO LOWER LEVEL:          0  ACCURACY: -nan
ITLB TIMELY PREFETCHES:          0 LATE PREFETCHES: 0 DROPPED PREFETCHES: 0
ITLB COMMIT LATE PREFETCHES: 0 MISSED OPPORTUNITY: 0 LATE IN PQ: 0 UNCOVERED: 0
ITLB COMMIT LATE MSHR PREFETCHES: 0
ITLB MPKI TOTAL: 0 MSHR LATE: 0 PQ LATE: 0 COMMIT LATE: 0 MISSED OPPORTUNITY: 0 UNCOVERED: 0
ITLB PREFETCHES SAME FILL-ORIGIN LEVEL: 0 DIFFERENT FILL-ORIGIN LEVEL: 0
ITLB AVERAGE MISS LATENCY: -nan cycles
ITLB AVERAGE MISS LATENCY LOAD: -nan cycles
ITLB AVERAGE MISS LATENCY PREFETCH: -nan cycles
ITLB AVERAGE MSHR OCCUPANCY: 0
ITLB MSHR FULL: 0
ITLB RQ	ACCESS:   42974173	FORWARD:          0	MERGED:    8998207	TO_CACHE:   33975966

DTLB SPEC fills:          0  NON-SPEC fills:          0
DTLB Test counter :          0
DTLB Leapfrog:          0
DTLB MSHR merge:          0
DTLB TOTAL     ACCESS:   44773691  HIT:   44504838  MISS:     268853  HIT %:    99.3995  MISS %:   0.600471   MPKI: 1.34426
DTLB LOAD TRANSLATION NON_SPEC    ACCESS:   44773691  HIT:   44504838  MISS:     268853  HIT %:    99.3995  MISS %:   0.600471   MPKI: 1.34426
DTLB PREFETCH  REQUESTED:          0  ISSUED:          0  USEFUL:          0  USELESS:          0
DTLB USEFUL LOAD PREFETCHES:          0 PREFETCH ISSUED TO LOWER LEVEL:          0  ACCURACY: -nan
DTLB TIMELY PREFETCHES:          0 LATE PREFETCHES: 0 DROPPED PREFETCHES: 0
DTLB COMMIT LATE PREFETCHES: 0 MISSED OPPORTUNITY: 0 LATE IN PQ: 0 UNCOVERED: 0
DTLB COMMIT LATE MSHR PREFETCHES: 0
DTLB MPKI TOTAL: 0 MSHR LATE: 0 PQ LATE: 0 COMMIT LATE: 0 MISSED OPPORTUNITY: 0 UNCOVERED: 0
DTLB PREFETCHES SAME FILL-ORIGIN LEVEL: 0 DIFFERENT FILL-ORIGIN LEVEL: 0
DTLB AVERAGE MISS LATENCY: 85.9334 cycles
DTLB AVERAGE MISS LATENCY LOAD: -nan cycles
DTLB AVERAGE MISS LATENCY PREFETCH: -nan cycles
DTLB AVERAGE MSHR OCCUPANCY: 0.0124056
DTLB MSHR FULL: 2.45514e-07
DTLB RQ	ACCESS:   47600745	FORWARD:          0	MERGED:    2796809	TO_CACHE:   44803936

STLB SPEC fills:          0  NON-SPEC fills:          0
STLB Test counter :          0
STLB Leapfrog:          0
STLB MSHR merge:          0
STLB TOTAL     ACCESS:     268853  HIT:      94019  MISS:     174834  HIT %:    34.9704  MISS %:    65.0296   MPKI: 0.87417
STLB LOAD TRANSLATION NON_SPEC    ACCESS:     268853  HIT:      94019  MISS:     174834  HIT %:    34.9704  MISS %:    65.0296   MPKI: 0.87417
STLB PREFETCH  REQUESTED:          0  ISSUED:          0  USEFUL:          0  USELESS:          0
STLB USEFUL LOAD PREFETCHES:          0 PREFETCH ISSUED TO LOWER LEVEL:          0  ACCURACY: -nan
STLB TIMELY PREFETCHES:          0 LATE PREFETCHES: 0 DROPPED PREFETCHES: 0
STLB COMMIT LATE PREFETCHES: 0 MISSED OPPORTUNITY: 0 LATE IN PQ: 0 UNCOVERED: 0
STLB COMMIT LATE MSHR PREFETCHES: 0
STLB MPKI TOTAL: 0 MSHR LATE: 0 PQ LATE: 0 COMMIT LATE: 0 MISSED OPPORTUNITY: 0 UNCOVERED: 0
STLB PREFETCHES SAME FILL-ORIGIN LEVEL: 0 DIFFERENT FILL-ORIGIN LEVEL: 0
STLB AVERAGE MISS LATENCY: 118.282 cycles
STLB AVERAGE MISS LATENCY LOAD: -nan cycles
STLB AVERAGE MISS LATENCY PREFETCH: -nan cycles
STLB AVERAGE MSHR OCCUPANCY: 0.118377
STLB MSHR FULL: 0
STLB RQ	ACCESS:     268853	FORWARD:          0	MERGED:          0	TO_CACHE:     268853

STLB Hit, L1D data hit: 0
STLB Hit, L2C data hit: 0
STLB Hit, LLC data hit: 0
STLB Hit, LLC data miss: 0
STLB STLB hints to L2: 0
L0D SPEC fills:   21017032  NON-SPEC fills:          0
L0D TimeGuard Request with older TS:      63458 Restricted eviction:      13438 read:        510
L0D Test counter :          0
L0D Leapfrog:          0
L0D MSHR merge:     936785
L0D TOTAL     ACCESS:   39554550  HIT:    4083317  MISS:   35471233  HIT %:    10.3233  MISS %:    89.6767   MPKI: 177.356
L0D LOAD      TOTAL       ACCESS:   39554550  HIT:    4083317  MISS:   35471233  HIT %:    10.3233  MISS %:    89.6767   MPKI: 177.356
L0D LOAD      NON_SPEC    ACCESS:   14441155  HIT:        392  MISS:   14440763  HIT %: 0.00271446  MISS %:    99.9973   MPKI: 72.2038
L0D LOAD      SPEC        ACCESS:   25113395  HIT:    4082925  MISS:   21030470  HIT %:     16.258  MISS %:     83.742   MPKI: 105.152
L0D PREFETCH  REQUESTED:          0  ISSUED:          0  USEFUL:          0  USELESS:          0
L0D USEFUL LOAD PREFETCHES:          0 PREFETCH ISSUED TO LOWER LEVEL:          0  ACCURACY: -nan
L0D TIMELY PREFETCHES:          0 LATE PREFETCHES: 0 DROPPED PREFETCHES: 0
L0D COMMIT LATE PREFETCHES: 0 MISSED OPPORTUNITY: 0 LATE IN PQ: 0 UNCOVERED: 0
L0D COMMIT LATE MSHR PREFETCHES: 0
L0D MPKI TOTAL: 182.04 MSHR LATE: 0 PQ LATE: 0 COMMIT LATE: 0 MISSED OPPORTUNITY: 0 UNCOVERED: 0
L0D PREFETCHES SAME FILL-ORIGIN LEVEL: 0 DIFFERENT FILL-ORIGIN LEVEL: 0
L0D AVERAGE MISS LATENCY: 10.292 cycles
L0D AVERAGE MISS LATENCY LOAD: 10.292 cycles
L0D AVERAGE MISS LATENCY PREFETCH: -nan cycles
L0D AVERAGE MSHR OCCUPANCY: 0.507593
L0D MSHR FULL: 0.00255046
L0D RQ	ACCESS:   48966166	FORWARD:          0	MERGED:    8474832	TO_CACHE:   40491334
L0D WQ	ACCESS:    7109411	FORWARD:          0	MERGED:          0	TO_CACHE:    7109411

L1D SPEC fills:          0  NON-SPEC fills:    2626383
L1D Test counter :          0
L1D Leapfrog:          0
L1D MSHR merge:        635
L1D TOTAL     ACCESS:   44922677  HIT:   37130078  MISS:    7792599  HIT %:    82.6533  MISS %:    17.3467   MPKI: 38.963
L1D LOAD      TOTAL       ACCESS:   35470598  HIT:   30374434  MISS:    5096164  HIT %:    85.6327  MISS %:    14.3673   MPKI: 25.4808
L1D LOAD      NON_SPEC    ACCESS:   14440576  HIT:   11814193  MISS:    2626383  HIT %:    81.8125  MISS %:    18.1875   MPKI: 13.1319
L1D LOAD      SPEC        ACCESS:   21030022  HIT:   18560241  MISS:    2469781  HIT %:    88.2559  MISS %:    11.7441   MPKI: 12.3489
L1D RFO       NON_SPEC    ACCESS:    5708129  HIT:    5476735  MISS:     231394  HIT %:    95.9462  MISS %:    4.05376   MPKI: 1.15697
L1D COMMIT LOAD NON_SPEC    ACCESS:    1250412  HIT:    1239535  MISS:      10877  HIT %:    99.1301  MISS %:   0.869873   MPKI: 0.054385
L1D COMMIT WRITE NON_SPEC    ACCESS:    2493538  HIT:      39374  MISS:    2454164  HIT %:    1.57904  MISS %:     98.421   MPKI: 12.2708
L1D PREFETCH  REQUESTED:          0  ISSUED:          0  USEFUL:          0  USELESS:          0
L1D USEFUL LOAD PREFETCHES:          0 PREFETCH ISSUED TO LOWER LEVEL:          0  ACCURACY: -nan
L1D TIMELY PREFETCHES:          0 LATE PREFETCHES: 0 DROPPED PREFETCHES: 0
L1D COMMIT LATE PREFETCHES: 0 MISSED OPPORTUNITY: 0 LATE IN PQ: 0 UNCOVERED: 0
L1D COMMIT LATE MSHR PREFETCHES: 0
L1D MPKI TOTAL: 25.484 MSHR LATE: 0 PQ LATE: 0 COMMIT LATE: 0 MISSED OPPORTUNITY: 0 UNCOVERED: 0
L1D PREFETCHES SAME FILL-ORIGIN LEVEL: 0 DIFFERENT FILL-ORIGIN LEVEL: 0
L1D AVERAGE MISS LATENCY: 28.693 cycles
L1D AVERAGE MISS LATENCY LOAD: 36.4445 cycles
L1D AVERAGE MISS LATENCY PREFETCH: -nan cycles
L1D AVERAGE MSHR OCCUPANCY: 0.256927
L1D MSHR FULL: 0.00521403
L1D RQ	ACCESS:   37329920	FORWARD:          0	MERGED:     545126	TO_CACHE:   36721920
L1D WQ	ACCESS:    9571794	FORWARD:      62874	MERGED:     107567	TO_CACHE:    9464227

L1D UNIQUE REGIONS ACCESSED: 0
L1D REGIONS CONFLICTS: 0
L1D Cross Page Prefetch Requests: 0
L1D Same Page Prefetch Requests: 0
L1D ROI Sum of L1D PQ occupancy: 0
L1D PREFETCHES PUSHED FROM L2C: 0
L1I SPEC fills:          0  NON-SPEC fills:          0
L1I Test counter :          0
L1I Leapfrog:          0
L1I MSHR merge:          3
L1I TOTAL     ACCESS:   42974170  HIT:   42974157  MISS:         13  HIT %:        100  MISS %: 3.02507e-05   MPKI: 6.5e-05
L1I LOAD      TOTAL       ACCESS:   42974170  HIT:   42974157  MISS:         13  HIT %:        100  MISS %: 3.02507e-05   MPKI: 6.5e-05
L1I LOAD      NON_SPEC    ACCESS:   42974170  HIT:   42974157  MISS:         13  HIT %:        100  MISS %: 3.02507e-05   MPKI: 6.5e-05
L1I PREFETCH  REQUESTED:          0  ISSUED:          0  USEFUL:          0  USELESS:          0
L1I USEFUL LOAD PREFETCHES:          0 PREFETCH ISSUED TO LOWER LEVEL:          0  ACCURACY: -nan
L1I TIMELY PREFETCHES:          0 LATE PREFETCHES: 0 DROPPED PREFETCHES: 0
L1I COMMIT LATE PREFETCHES: 0 MISSED OPPORTUNITY: 0 LATE IN PQ: 0 UNCOVERED: 0
L1I COMMIT LATE MSHR PREFETCHES: 0
L1I MPKI TOTAL: 8e-05 MSHR LATE: 0 PQ LATE: 0 COMMIT LATE: 0 MISSED OPPORTUNITY: 0 UNCOVERED: 0
L1I PREFETCHES SAME FILL-ORIGIN LEVEL: 0 DIFFERENT FILL-ORIGIN LEVEL: 0
L1I AVERAGE MISS LATENCY: 198.615 cycles
L1I AVERAGE MISS LATENCY LOAD: 198.615 cycles
L1I AVERAGE MISS LATENCY PREFETCH: -nan cycles
L1I AVERAGE MSHR OCCUPANCY: 2.09428e-07
L1I MSHR FULL: 0
L1I RQ	ACCESS:   65153762	FORWARD:          0	MERGED:   22179589	TO_CACHE:   42974173

BTB SPEC fills:          0  NON-SPEC fills:          0
BTB Test counter :          0
BTB Leapfrog:          0
BTB MSHR merge:          0
BTB TOTAL     ACCESS:   40501976  HIT:   40501622  MISS:        354  HIT %:    99.9991  MISS %: 0.000874031   MPKI: 0.00177
BTB BRANCH_DIRECT_JUMP	ACCESS:      40166  HIT:      40120  MISS:         46
BTB BRANCH_INDIRECT	ACCESS:          3  HIT:          2  MISS:          1
BTB BRANCH_CONDITIONAL	ACCESS:   40461166  HIT:   40461063  MISS:        103
BTB BRANCH_DIRECT_CALL	ACCESS:        311  HIT:        267  MISS:         44
BTB BRANCH_INDIRECT_CALL	ACCESS:          9  HIT:          6  MISS:          3
BTB BRANCH_RETURN	ACCESS:        321  HIT:        164  MISS:        157
BTB BRANCH_OTHER ACCESS:          0  HIT:          0  MISS:          0

L2C SPEC fills:          0  NON-SPEC fills:     415886
L2C Test counter :          0
L2C Leapfrog:          0
L2C MSHR merge:      24722
L2C TOTAL     ACCESS:   12830428  HIT:    7138864  MISS:    5691564  HIT %:    55.6401  MISS %:    44.3599   MPKI: 28.4578
L2C LOAD      TOTAL       ACCESS:    5096147  HIT:    4272408  MISS:     823739  HIT %:     83.836  MISS %:     16.164   MPKI: 4.11869
L2C LOAD      NON_SPEC    ACCESS:    2626396  HIT:    2210497  MISS:     415899  HIT %:    84.1646  MISS %:    15.8354   MPKI: 2.07949
L2C LOAD      SPEC        ACCESS:    2469751  HIT:    2061911  MISS:     407840  HIT %:    83.4866  MISS %:    16.5134   MPKI: 2.0392
L2C RFO       NON_SPEC    ACCESS:     231394  HIT:       9191  MISS:     222203  HIT %:    3.97201  MISS %:     96.028   MPKI: 1.11101
L2C PREFETCH  NON_SPEC    ACCESS:    5621658  HIT:    1415599  MISS:    4206059  HIT %:    25.1812  MISS %:    74.8188   MPKI: 21.0303
L2C WRITEBACK NON_SPEC    ACCESS:     400732  HIT:     400689  MISS:         43  HIT %:    99.9893  MISS %:  0.0107304   MPKI: 0.000215
L2C CLEAN_EVICTION NON_SPEC    ACCESS:     595450  HIT:     191637  MISS:     403813  HIT %:    32.1836  MISS %:    67.8164   MPKI: 2.01906
L2C COMMIT LOAD NON_SPEC    ACCESS:      10877  HIT:       7480  MISS:       3397  HIT %:     68.769  MISS %:     31.231   MPKI: 0.016985
L2C LOAD TRANSLATION NON_SPEC    ACCESS:     874170  HIT:     841860  MISS:      32310  HIT %:    96.3039  MISS %:    3.69608   MPKI: 0.16155
L2C PREFETCH  REQUESTED:    5663393  ISSUED:    5663393  USEFUL:    2537512  USELESS:    1666355
L2C USEFUL LOAD PREFETCHES:    2537512 PREFETCH ISSUED TO LOWER LEVEL:    4230783  ACCURACY: 59.9774
L2C TIMELY PREFETCHES:    2537512 LATE PREFETCHES: 24724 DROPPED PREFETCHES: 0
L2C COMMIT LATE PREFETCHES: 0 MISSED OPPORTUNITY: 0 LATE IN PQ: 0 UNCOVERED: 0
L2C COMMIT LATE MSHR PREFETCHES: 0
L2C MPKI TOTAL: 4.11869 MSHR LATE: 0.12362 PQ LATE: 0 COMMIT LATE: 0 MISSED OPPORTUNITY: 0 UNCOVERED: 0
L2C PREFETCHES SAME FILL-ORIGIN LEVEL: 4230783 DIFFERENT FILL-ORIGIN LEVEL: 0
L2C AVERAGE MISS LATENCY: 159.016 cycles
L2C AVERAGE MISS LATENCY LOAD: 144.582 cycles
L2C AVERAGE MISS LATENCY PREFETCH: 177.105 cycles
L2C AVERAGE MSHR OCCUPANCY: 1.07084
L2C MSHR FULL: 0.000611137
L2C RQ	ACCESS:    6212618	FORWARD:          0	MERGED:          0	TO_CACHE:    6212588
L2C WQ	ACCESS:     996182	FORWARD:         30	MERGED:          0	TO_CACHE:     996182
L2C PQ	ACCESS:    5663393	FORWARD:          0	MERGED:          0	TO_CACHE:    5663393

L2C Instructions Evicting Data 13
L2C Translations Evicting Data 32091
L2C Data Evicting Data 4819074
L2C Instructions Evicting Instructions 0
L2C Translations Evicting Instructions 3
L2C Data Evicting Instructions 12
L2C Instructions Evicting Translations 0
L2C Translations Evicting Translations 216
L2C Data Evicting Translations 28459
L2C Dense regions hint from L2: 0
PSCL5 SPEC fills:          0  NON-SPEC fills:          0
PSCL5 Test counter :          0
PSCL5 Leapfrog:          0
PSCL5 MSHR merge:          0
PSCL5 TOTAL     ACCESS:          0  HIT:          0  MISS:          0  HIT %:       -nan  MISS %:       -nan   MPKI: 0
PSCL5 PREFETCH  REQUESTED:          0  ISSUED:          0  USEFUL:          0  USELESS:          0
PSCL5 USEFUL LOAD PREFETCHES:          0 PREFETCH ISSUED TO LOWER LEVEL:          0  ACCURACY: -nan
PSCL5 TIMELY PREFETCHES:          0 LATE PREFETCHES: 0 DROPPED PREFETCHES: 0
PSCL5 COMMIT LATE PREFETCHES: 0 MISSED OPPORTUNITY: 0 LATE IN PQ: 0 UNCOVERED: 0
PSCL5 COMMIT LATE MSHR PREFETCHES: 0
PSCL5 MPKI TOTAL: 0 MSHR LATE: 0 PQ LATE: 0 COMMIT LATE: 0 MISSED OPPORTUNITY: 0 UNCOVERED: 0
PSCL5 PREFETCHES SAME FILL-ORIGIN LEVEL: 0 DIFFERENT FILL-ORIGIN LEVEL: 0

PSCL4 SPEC fills:          0  NON-SPEC fills:          0
PSCL4 Test counter :          0
PSCL4 Leapfrog:          0
PSCL4 MSHR merge:          0
PSCL4 TOTAL     ACCESS:          0  HIT:          0  MISS:          0  HIT %:       -nan  MISS %:       -nan   MPKI: 0
PSCL4 PREFETCH  REQUESTED:          0  ISSUED:          0  USEFUL:          0  USELESS:          0
PSCL4 USEFUL LOAD PREFETCHES:          0 PREFETCH ISSUED TO LOWER LEVEL:          0  ACCURACY: -nan
PSCL4 TIMELY PREFETCHES:          0 LATE PREFETCHES: 0 DROPPED PREFETCHES: 0
PSCL4 COMMIT LATE PREFETCHES: 0 MISSED OPPORTUNITY: 0 LATE IN PQ: 0 UNCOVERED: 0
PSCL4 COMMIT LATE MSHR PREFETCHES: 0
PSCL4 MPKI TOTAL: 0 MSHR LATE: 0 PQ LATE: 0 COMMIT LATE: 0 MISSED OPPORTUNITY: 0 UNCOVERED: 0
PSCL4 PREFETCHES SAME FILL-ORIGIN LEVEL: 0 DIFFERENT FILL-ORIGIN LEVEL: 0

PSCL3 SPEC fills:          0  NON-SPEC fills:          0
PSCL3 Test counter :          0
PSCL3 Leapfrog:          0
PSCL3 MSHR merge:          0
PSCL3 TOTAL     ACCESS:          0  HIT:          0  MISS:          0  HIT %:       -nan  MISS %:       -nan   MPKI: 0
PSCL3 PREFETCH  REQUESTED:          0  ISSUED:          0  USEFUL:          0  USELESS:          0
PSCL3 USEFUL LOAD PREFETCHES:          0 PREFETCH ISSUED TO LOWER LEVEL:          0  ACCURACY: -nan
PSCL3 TIMELY PREFETCHES:          0 LATE PREFETCHES: 0 DROPPED PREFETCHES: 0
PSCL3 COMMIT LATE PREFETCHES: 0 MISSED OPPORTUNITY: 0 LATE IN PQ: 0 UNCOVERED: 0
PSCL3 COMMIT LATE MSHR PREFETCHES: 0
PSCL3 MPKI TOTAL: 0 MSHR LATE: 0 PQ LATE: 0 COMMIT LATE: 0 MISSED OPPORTUNITY: 0 UNCOVERED: 0
PSCL3 PREFETCHES SAME FILL-ORIGIN LEVEL: 0 DIFFERENT FILL-ORIGIN LEVEL: 0

PSCL2 SPEC fills:          0  NON-SPEC fills:          0
PSCL2 Test counter :          0
PSCL2 Leapfrog:          0
PSCL2 MSHR merge:          0
PSCL2 TOTAL     ACCESS:          0  HIT:          0  MISS:          0  HIT %:       -nan  MISS %:       -nan   MPKI: 0
PSCL2 PREFETCH  REQUESTED:          0  ISSUED:          0  USEFUL:          0  USELESS:          0
PSCL2 USEFUL LOAD PREFETCHES:          0 PREFETCH ISSUED TO LOWER LEVEL:          0  ACCURACY: -nan
PSCL2 TIMELY PREFETCHES:          0 LATE PREFETCHES: 0 DROPPED PREFETCHES: 0
PSCL2 COMMIT LATE PREFETCHES: 0 MISSED OPPORTUNITY: 0 LATE IN PQ: 0 UNCOVERED: 0
PSCL2 COMMIT LATE MSHR PREFETCHES: 0
PSCL2 MPKI TOTAL: 0 MSHR LATE: 0 PQ LATE: 0 COMMIT LATE: 0 MISSED OPPORTUNITY: 0 UNCOVERED: 0
PSCL2 PREFETCHES SAME FILL-ORIGIN LEVEL: 0 DIFFERENT FILL-ORIGIN LEVEL: 0

LLC SPEC fills:          0  NON-SPEC fills:     371589
LLC Test counter :          0
LLC Leapfrog:          0
LLC MSHR merge:          0
LLC TOTAL     ACCESS:    6262617  HIT:     818205  MISS:    5444412  HIT %:    13.0649  MISS %:    86.9351   MPKI: 27.2221
LLC LOAD      TOTAL       ACCESS:     799016  HIT:      74705  MISS:     724311  HIT %:    9.34963  MISS %:    90.6504   MPKI: 3.62155
LLC LOAD      NON_SPEC    ACCESS:     413272  HIT:      41670  MISS:     371602  HIT %:    10.0829  MISS %:    89.9171   MPKI: 1.85801
LLC LOAD      SPEC        ACCESS:     385744  HIT:      33035  MISS:     352709  HIT %:    8.56397  MISS %:     91.436   MPKI: 1.76354
LLC RFO       NON_SPEC    ACCESS:     222200  HIT:       3715  MISS:     218485  HIT %:    1.67192  MISS %:    98.3281   MPKI: 1.09242
LLC PREFETCH  NON_SPEC    ACCESS:    4230781  HIT:     127335  MISS:    4103446  HIT %:    3.00973  MISS %:    96.9903   MPKI: 20.5172
LLC WRITEBACK NON_SPEC    ACCESS:     384369  HIT:     379076  MISS:       5293  HIT %:    98.6229  MISS %:    1.37706   MPKI: 0.026465
LLC CLEAN_EVICTION NON_SPEC    ACCESS:     590544  HIT:     230840  MISS:     359704  HIT %:    39.0894  MISS %:    60.9106   MPKI: 1.79852
LLC COMMIT LOAD NON_SPEC    ACCESS:       3397  HIT:        835  MISS:       2562  HIT %:    24.5805  MISS %:    75.4195   MPKI: 0.01281
LLC LOAD TRANSLATION NON_SPEC    ACCESS:      32310  HIT:       1699  MISS:      30611  HIT %:    5.25843  MISS %:    94.7416   MPKI: 0.153055
LLC PREFETCH  REQUESTED:          0  ISSUED:          0  USEFUL:      21768  USELESS:    4079560
LLC USEFUL LOAD PREFETCHES:      21768 PREFETCH ISSUED TO LOWER LEVEL:    4103446  ACCURACY: 0.530481
LLC TIMELY PREFETCHES:      21768 LATE PREFETCHES: 0 DROPPED PREFETCHES: 0
LLC COMMIT LATE PREFETCHES: 0 MISSED OPPORTUNITY: 0 LATE IN PQ: 0 UNCOVERED: 0
LLC COMMIT LATE MSHR PREFETCHES: 0
LLC MPKI TOTAL: 3.62155 MSHR LATE: 0 PQ LATE: 0 COMMIT LATE: 0 MISSED OPPORTUNITY: 0 UNCOVERED: 0
LLC PREFETCHES SAME FILL-ORIGIN LEVEL: 0 DIFFERENT FILL-ORIGIN LEVEL: 0
LLC AVERAGE MISS LATENCY: 138.194 cycles
LLC AVERAGE MISS LATENCY LOAD: 131.38 cycles
LLC AVERAGE MISS LATENCY PREFETCH: 152.05 cycles
LLC AVERAGE MSHR OCCUPANCY: 1.08196
LLC MSHR FULL: 0
LLC RQ	ACCESS:    1056925	FORWARD:          0	MERGED:          0	TO_CACHE:    1056923
LLC WQ	ACCESS:     974913	FORWARD:          4	MERGED:          0	TO_CACHE:     974913
LLC PQ	ACCESS:    4230783	FORWARD:          0	MERGED:          0	TO_CACHE:    4230781

LLC Dense regions hint to LLC: 0

RAW hits: 181977
Loads Generated: 49148143
Loads sent to L1D: 48966166
Stores Generated: 7109412
Stores sent to L1D: 7109411
Major fault: 0 Minor fault: 27368
Allocated PAGES: 27368
Total Load insts: 61494772
Total Non-spec loads: 14721160
Percentage of speculative loads: 76.0611

LeapFrogging counter: 33094
Commit hits: 20989621 miss: 13535226
Commit hit %: 60.7957 miss %: 39.2043
Commits not translated: 0
Loads retired: 5096164
Stores retired: 7109411
Cache fills: 5096164
L1D response latency: 36.4445 cycles
Load retirement latency: 62.2227 cycles
OOO test counter: 0
Discarded buffer inserts: 20989621 hits: 21282 hit %: 0.101393
Filter prediction accuracy: 99.4195
[Bingo] PHT Access: 452216
[Bingo] PHT Hit PC+Addr: 28053
[Bingo] PHT Hit PC+Offs: 423317
[Bingo] PHT Miss: 846
[Bingo] Prefetch PC+Addr: 0
[Bingo] Prefetch PC+Offs: 0
[Bingo] Useful PC+Addr: 0
[Bingo] Useful PC+Offs: 0
[Bingo] Useless PC+Addr: 0
[Bingo] Useless PC+Offs: 0
[Bingo] L1 Prefetch per Region: 0
[Bingo] L2 Prefetch per Region: 13.765
[Bingo] L3 Prefetch per Region: 0
[Bingo] No Prefetch per Region: 18.235
[Bingo] Number of Voters Mean: 15.9355
[Bingo] Number of Voters SD: 9.33793
PHT read accesses: 7009804
PHT write accesses: 329108
AT read accesses: 4721981
AT write accesses: 4971618
FT read accesses: 1015437
FT write accesses: 452216
PS read accesses: 1076120
PS write accesses: 451370
PHT tag read accesses: 17190584
PHT tag write accesses: 357161
AT tag read accesses: 181280737
AT tag write accesses: 5051092
FT tag read accesses: 112976799
FT tag write accesses: 1137131
PS tag read accesses: 98535975
PS tag write accesses: 1522305

DRAM Statistics
 CHANNEL 0
 RQ ROW_BUFFER_HIT:    3430443  ROW_BUFFER_MISS:    1648923
 DBUS_CONGESTED:       1176
 WQ ROW_BUFFER_HIT:     180445  ROW_BUFFER_MISS:     771213  FULL:        142

 AVG_CONGESTED_CYCLE: 4
 All warmup complete: 2
Channel 0 Bank busy for read cycles: 0
Channel 0 Bank busy for write cycles: 0
Channel 0
Rank 0
0banks busy for read cycles: 386533233
0banks busy for write cycles: 297642
1banks busy for read cycles: 70275893
1banks busy for write cycles: 34255802
2banks busy for read cycles: 12715661
2banks busy for write cycles: 11504587
3banks busy for read cycles: 8571272
3banks busy for write cycles: 6873936
4banks busy for read cycles: 6372029
4banks busy for write cycles: 4294919
5banks busy for read cycles: 4913886
5banks busy for write cycles: 2655753
6banks busy for read cycles: 4693937
6banks busy for write cycles: 1736004
7banks busy for read cycles: 7652201
7banks busy for write cycles: 1856543
8banks busy for read cycles: 20814106
8banks busy for write cycles: 4242590

CPU 0 Branch Prediction Accuracy: 86.5484% MPKI: 28.7876 Average ROB Occupancy at Mispredict: 8.04705
Branch types
NOT_BRANCH: 157198299 78.5991%
BRANCH_DIRECT_JUMP: 40166 0.020083%
BRANCH_INDIRECT: 3 1.5e-06%
BRANCH_CONDITIONAL: 42760831 21.3804%
BRANCH_DIRECT_CALL: 311 0.0001555%
BRANCH_INDIRECT_CALL: 9 4.5e-06%
BRANCH_RETURN: 321 0.0001605%
BRANCH_OTHER: 0 0%

DRAM PAGES: 1048576
Allocated PAGES: 27368
