
*** ChampSim Multicore Out-of-Order Simulator ***

Warmup Instructions: 50000000
Simulation Instructions: 200000000
Number of CPUs: 1
LLC sets: 2048
LLC ways: 16
L0D sets: 16
L0D ways: 2
ROB size: 352
LQ size: 128
SQ size: 72
Secure Berti: OFF
Berti: OFF
Berti Fill: OFF
On commit prefetching: OFF
Hit-based filter: ON
Time-guarding: ON
Free-slotting: ON
Leap-frogging: ON
Train prefetcher on L0D bypass: OFF
No translation penalty for prefetchers: OFF
Prefetch to L0D only: OFF
Prefetch to L1D only: OFF
Clean evictions: ON
Commit loads: ON
Commit write: ON
Fill commit loads to L2C, LLC: ON
DRAM IO FREQUENCY: 6400
ROB SIZE: 352
Off-chip DRAM Size: 4096 MB Channels: 1 Width: 64-bit Data Rate: 6400 MT/s
CPU 0 runs /home/sumon/secure_berti/GhostMinion/../../traces/gap/bfs-14.trace.gz
.gz
BTB has LRU replacement policy
ITLB has LRU replacement policy
DTLB has LRU replacement policy
STLB has LRU replacement policy
L1I has LRU replacement policy
L0D has LRU replacement policy
L1D has LRU replacement policy
Bingo PHT WAYS: 16 and PHT_SIZE: 16384
L2C has LRU replacement policy
LLC has LRU replacement policy
Heartbeat CPU 0 instructions: 10000001 cycles: 2973044 heartbeat IPC: 3.36356 cumulative IPC: 3.36356 (Simulation time: 0 hr 0 min 15 sec) 
Heartbeat CPU 0 instructions: 20000003 cycles: 6193098 heartbeat IPC: 3.10554 cumulative IPC: 3.2294 (Simulation time: 0 hr 0 min 42 sec) 
Heartbeat CPU 0 instructions: 30000003 cycles: 9411278 heartbeat IPC: 3.10735 cumulative IPC: 3.18767 (Simulation time: 0 hr 1 min 10 sec) 
Heartbeat CPU 0 instructions: 40000001 cycles: 12615773 heartbeat IPC: 3.12062 cumulative IPC: 3.17063 (Simulation time: 0 hr 1 min 37 sec) 
Heartbeat CPU 0 instructions: 50000002 cycles: 15756660 heartbeat IPC: 3.18381 cumulative IPC: 3.17326 (Simulation time: 0 hr 2 min 3 sec) 

Warmup complete CPU 0 instructions: 50000002 cycles: 15756660 (Simulation time: 0 hr 2 min 3 sec) 

Heartbeat CPU 0 instructions: 60000000 cycles: 43285169 heartbeat IPC: 0.36326 cumulative IPC: 0.36326 (Simulation time: 0 hr 2 min 28 sec) 
Heartbeat CPU 0 instructions: 70000001 cycles: 56573757 heartbeat IPC: 0.752525 cumulative IPC: 0.489991 (Simulation time: 0 hr 2 min 49 sec) 
Heartbeat CPU 0 instructions: 80000000 cycles: 75910931 heartbeat IPC: 0.517139 cumulative IPC: 0.498718 (Simulation time: 0 hr 3 min 13 sec) 
Heartbeat CPU 0 instructions: 90000000 cycles: 104323307 heartbeat IPC: 0.351959 cumulative IPC: 0.451637 (Simulation time: 0 hr 3 min 43 sec) 
Heartbeat CPU 0 instructions: 100000002 cycles: 141063121 heartbeat IPC: 0.272184 cumulative IPC: 0.399022 (Simulation time: 0 hr 4 min 16 sec) 
Heartbeat CPU 0 instructions: 110000000 cycles: 177850067 heartbeat IPC: 0.271836 cumulative IPC: 0.370157 (Simulation time: 0 hr 4 min 50 sec) 
Heartbeat CPU 0 instructions: 120000000 cycles: 218308040 heartbeat IPC: 0.24717 cumulative IPC: 0.345591 (Simulation time: 0 hr 5 min 22 sec) 
Heartbeat CPU 0 instructions: 130000001 cycles: 251735670 heartbeat IPC: 0.299154 cumulative IPC: 0.339013 (Simulation time: 0 hr 5 min 50 sec) 
Heartbeat CPU 0 instructions: 140000002 cycles: 269521218 heartbeat IPC: 0.562254 cumulative IPC: 0.354659 (Simulation time: 0 hr 6 min 14 sec) 
Heartbeat CPU 0 instructions: 150000000 cycles: 284228556 heartbeat IPC: 0.679933 cumulative IPC: 0.372478 (Simulation time: 0 hr 6 min 39 sec) 
Heartbeat CPU 0 instructions: 160000000 cycles: 309556217 heartbeat IPC: 0.394825 cumulative IPC: 0.374405 (Simulation time: 0 hr 7 min 7 sec) 
Heartbeat CPU 0 instructions: 170000000 cycles: 346569820 heartbeat IPC: 0.270171 cumulative IPC: 0.362743 (Simulation time: 0 hr 7 min 47 sec) 
Heartbeat CPU 0 instructions: 180000000 cycles: 384057291 heartbeat IPC: 0.266756 cumulative IPC: 0.352973 (Simulation time: 0 hr 8 min 26 sec) 
Heartbeat CPU 0 instructions: 190000003 cycles: 422965306 heartbeat IPC: 0.257017 cumulative IPC: 0.343804 (Simulation time: 0 hr 9 min 5 sec) 
Heartbeat CPU 0 instructions: 200000002 cycles: 462634917 heartbeat IPC: 0.252082 cumulative IPC: 0.335662 (Simulation time: 0 hr 9 min 40 sec) 
Heartbeat CPU 0 instructions: 210000001 cycles: 487026841 heartbeat IPC: 0.409972 cumulative IPC: 0.339508 (Simulation time: 0 hr 10 min 8 sec) 
Heartbeat CPU 0 instructions: 220000000 cycles: 500713255 heartbeat IPC: 0.730651 cumulative IPC: 0.350547 (Simulation time: 0 hr 10 min 32 sec) 
Heartbeat CPU 0 instructions: 230000001 cycles: 521909043 heartbeat IPC: 0.471792 cumulative IPC: 0.355624 (Simulation time: 0 hr 10 min 58 sec) 
Heartbeat CPU 0 instructions: 240000000 cycles: 554112141 heartbeat IPC: 0.310529 cumulative IPC: 0.352927 (Simulation time: 0 hr 11 min 34 sec) 
Heartbeat CPU 0 instructions: 250000001 cycles: 588963413 heartbeat IPC: 0.286934 cumulative IPC: 0.348914 (Simulation time: 0 hr 12 min 12 sec) 
Finished CPU 0 instructions: 200000003 cycles: 573206754 cumulative IPC: 0.348914 (Simulation time: 0 hr 12 min 12 sec) 
 Instruction ID: 250000029

ChampSim completed all CPUs

Region of Interest Statistics

CPU 0 cumulative IPC: 0.348914 instructions: 200000003 cycles: 573206754
ITLB SPEC fills:          0  NON-SPEC fills:          0
ITLB Test counter :          0
ITLB Leapfrog:          0
ITLB MSHR merge:          0
ITLB TOTAL     ACCESS:   34746489  HIT:   34746489  MISS:          0  HIT %:        100  MISS %:          0   MPKI: 0
ITLB LOAD TRANSLATION NON_SPEC    ACCESS:   34746489  HIT:   34746489  MISS:          0  HIT %:        100  MISS %:          0   MPKI: 0
ITLB PREFETCH  REQUESTED:          0  ISSUED:          0  USEFUL:          0  USELESS:          0
ITLB USEFUL LOAD PREFETCHES:          0 PREFETCH ISSUED TO LOWER LEVEL:          0  ACCURACY: -nan
ITLB TIMELY PREFETCHES:          0 LATE PREFETCHES: 0 DROPPED PREFETCHES: 0
ITLB COMMIT LATE PREFETCHES: 0 MISSED OPPORTUNITY: 0 LATE IN PQ: 0 UNCOVERED: 0
ITLB COMMIT LATE MSHR PREFETCHES: 0
ITLB MPKI TOTAL: 0 MSHR LATE: 0 PQ LATE: 0 COMMIT LATE: 0 MISSED OPPORTUNITY: 0 UNCOVERED: 0
ITLB PREFETCHES SAME FILL-ORIGIN LEVEL: 0 DIFFERENT FILL-ORIGIN LEVEL: 0
ITLB AVERAGE MISS LATENCY: -nan cycles
ITLB AVERAGE MISS LATENCY LOAD: -nan cycles
ITLB AVERAGE MISS LATENCY PREFETCH: -nan cycles
ITLB AVERAGE MSHR OCCUPANCY: 0
ITLB MSHR FULL: 0
ITLB RQ	ACCESS:   43106900	FORWARD:          0	MERGED:    8360411	TO_CACHE:   34746489

DTLB SPEC fills:          0  NON-SPEC fills:          0
DTLB Test counter :          0
DTLB Leapfrog:          0
DTLB MSHR merge:          0
DTLB TOTAL     ACCESS:   44673380  HIT:   44478138  MISS:     195242  HIT %:     99.563  MISS %:   0.437043   MPKI: 0.97621
DTLB LOAD TRANSLATION NON_SPEC    ACCESS:   44673380  HIT:   44478138  MISS:     195242  HIT %:     99.563  MISS %:   0.437043   MPKI: 0.97621
DTLB PREFETCH  REQUESTED:          0  ISSUED:          0  USEFUL:          0  USELESS:          0
DTLB USEFUL LOAD PREFETCHES:          0 PREFETCH ISSUED TO LOWER LEVEL:          0  ACCURACY: -nan
DTLB TIMELY PREFETCHES:          0 LATE PREFETCHES: 0 DROPPED PREFETCHES: 0
DTLB COMMIT LATE PREFETCHES: 0 MISSED OPPORTUNITY: 0 LATE IN PQ: 0 UNCOVERED: 0
DTLB COMMIT LATE MSHR PREFETCHES: 0
DTLB MPKI TOTAL: 0 MSHR LATE: 0 PQ LATE: 0 COMMIT LATE: 0 MISSED OPPORTUNITY: 0 UNCOVERED: 0
DTLB PREFETCHES SAME FILL-ORIGIN LEVEL: 0 DIFFERENT FILL-ORIGIN LEVEL: 0
DTLB AVERAGE MISS LATENCY: 90.8868 cycles
DTLB AVERAGE MISS LATENCY LOAD: -nan cycles
DTLB AVERAGE MISS LATENCY PREFETCH: -nan cycles
DTLB AVERAGE MSHR OCCUPANCY: 0.00941631
DTLB MSHR FULL: 2.46097e-07
DTLB RQ	ACCESS:   47069770	FORWARD:          0	MERGED:    2371931	TO_CACHE:   44697839

STLB SPEC fills:          0  NON-SPEC fills:          0
STLB Test counter :          0
STLB Leapfrog:          0
STLB MSHR merge:          0
STLB TOTAL     ACCESS:     195242  HIT:      52236  MISS:     143006  HIT %:    26.7545  MISS %:    73.2455   MPKI: 0.71503
STLB LOAD TRANSLATION NON_SPEC    ACCESS:     195242  HIT:      52236  MISS:     143006  HIT %:    26.7545  MISS %:    73.2455   MPKI: 0.71503
STLB PREFETCH  REQUESTED:          0  ISSUED:          0  USEFUL:          0  USELESS:          0
STLB USEFUL LOAD PREFETCHES:          0 PREFETCH ISSUED TO LOWER LEVEL:          0  ACCURACY: -nan
STLB TIMELY PREFETCHES:          0 LATE PREFETCHES: 0 DROPPED PREFETCHES: 0
STLB COMMIT LATE PREFETCHES: 0 MISSED OPPORTUNITY: 0 LATE IN PQ: 0 UNCOVERED: 0
STLB COMMIT LATE MSHR PREFETCHES: 0
STLB MPKI TOTAL: 0 MSHR LATE: 0 PQ LATE: 0 COMMIT LATE: 0 MISSED OPPORTUNITY: 0 UNCOVERED: 0
STLB PREFETCHES SAME FILL-ORIGIN LEVEL: 0 DIFFERENT FILL-ORIGIN LEVEL: 0
STLB AVERAGE MISS LATENCY: 111.79 cycles
STLB AVERAGE MISS LATENCY LOAD: -nan cycles
STLB AVERAGE MISS LATENCY PREFETCH: -nan cycles
STLB AVERAGE MSHR OCCUPANCY: 0.0557462
STLB MSHR FULL: 0
STLB RQ	ACCESS:     195242	FORWARD:          0	MERGED:          0	TO_CACHE:     195242

STLB Hit, L1D data hit: 0
STLB Hit, L2C data hit: 0
STLB Hit, LLC data hit: 0
STLB Hit, LLC data miss: 0
STLB STLB hints to L2: 0
L0D SPEC fills:   21885745  NON-SPEC fills:          0
L0D TimeGuard Request with older TS:      77696 Restricted eviction:      33982 read:        577
L0D Test counter :          0
L0D Leapfrog:          0
L0D MSHR merge:     839163
L0D TOTAL     ACCESS:   39428007  HIT:    3341345  MISS:   36086662  HIT %:    8.47455  MISS %:    91.5255   MPKI: 180.433
L0D LOAD      TOTAL       ACCESS:   39428007  HIT:    3341345  MISS:   36086662  HIT %:    8.47455  MISS %:    91.5255   MPKI: 180.433
L0D LOAD      NON_SPEC    ACCESS:   14167346  HIT:        411  MISS:   14166935  HIT %: 0.00290104  MISS %:    99.9971   MPKI: 70.8347
L0D LOAD      SPEC        ACCESS:   25260661  HIT:    3340934  MISS:   21919727  HIT %:    13.2258  MISS %:    86.7742   MPKI: 109.599
L0D PREFETCH  REQUESTED:          0  ISSUED:          0  USEFUL:          0  USELESS:          0
L0D USEFUL LOAD PREFETCHES:          0 PREFETCH ISSUED TO LOWER LEVEL:          0  ACCURACY: -nan
L0D TIMELY PREFETCHES:          0 LATE PREFETCHES: 0 DROPPED PREFETCHES: 0
L0D COMMIT LATE PREFETCHES: 0 MISSED OPPORTUNITY: 0 LATE IN PQ: 0 UNCOVERED: 0
L0D COMMIT LATE MSHR PREFETCHES: 0
L0D MPKI TOTAL: 184.629 MSHR LATE: 0 PQ LATE: 0 COMMIT LATE: 0 MISSED OPPORTUNITY: 0 UNCOVERED: 0
L0D PREFETCHES SAME FILL-ORIGIN LEVEL: 0 DIFFERENT FILL-ORIGIN LEVEL: 0
L0D AVERAGE MISS LATENCY: 9.29888 cycles
L0D AVERAGE MISS LATENCY LOAD: 9.29888 cycles
L0D AVERAGE MISS LATENCY PREFETCH: -nan cycles
L0D AVERAGE MSHR OCCUPANCY: 0.498239
L0D MSHR FULL: 0.00242482
L0D RQ	ACCESS:   48254114	FORWARD:          0	MERGED:    7986945	TO_CACHE:   40267169
L0D WQ	ACCESS:    6802601	FORWARD:          0	MERGED:          0	TO_CACHE:    6802601

L1D SPEC fills:          0  NON-SPEC fills:    2555899
L1D Test counter :          0
L1D Leapfrog:          0
L1D MSHR merge:        656
L1D TOTAL     ACCESS:   44666903  HIT:   37836228  MISS:    6830675  HIT %:    84.7075  MISS %:    15.2925   MPKI: 34.1534
L1D LOAD      TOTAL       ACCESS:   36086006  HIT:   31503499  MISS:    4582507  HIT %:    87.3012  MISS %:    12.6988   MPKI: 22.9125
L1D LOAD      NON_SPEC    ACCESS:   14166811  HIT:   11610912  MISS:    2555899  HIT %:    81.9585  MISS %:    18.0415   MPKI: 12.7795
L1D LOAD      SPEC        ACCESS:   21919195  HIT:   19892587  MISS:    2026608  HIT %:    90.7542  MISS %:    9.24581   MPKI: 10.133
L1D RFO       NON_SPEC    ACCESS:    5390113  HIT:    5161723  MISS:     228390  HIT %:    95.7628  MISS %:     4.2372   MPKI: 1.14195
L1D COMMIT LOAD NON_SPEC    ACCESS:    1153422  HIT:    1144002  MISS:       9420  HIT %:    99.1833  MISS %:     0.8167   MPKI: 0.0471
L1D COMMIT WRITE NON_SPEC    ACCESS:    2037362  HIT:      27004  MISS:    2010358  HIT %:    1.32544  MISS %:    98.6746   MPKI: 10.0518
L1D PREFETCH  REQUESTED:          0  ISSUED:          0  USEFUL:          0  USELESS:          0
L1D USEFUL LOAD PREFETCHES:          0 PREFETCH ISSUED TO LOWER LEVEL:          0  ACCURACY: -nan
L1D TIMELY PREFETCHES:          0 LATE PREFETCHES: 0 DROPPED PREFETCHES: 0
L1D COMMIT LATE PREFETCHES: 0 MISSED OPPORTUNITY: 0 LATE IN PQ: 0 UNCOVERED: 0
L1D COMMIT LATE MSHR PREFETCHES: 0
L1D MPKI TOTAL: 22.9158 MSHR LATE: 0 PQ LATE: 0 COMMIT LATE: 0 MISSED OPPORTUNITY: 0 UNCOVERED: 0
L1D PREFETCHES SAME FILL-ORIGIN LEVEL: 0 DIFFERENT FILL-ORIGIN LEVEL: 0
L1D AVERAGE MISS LATENCY: 27.8908 cycles
L1D AVERAGE MISS LATENCY LOAD: 33.464 cycles
L1D AVERAGE MISS LATENCY PREFETCH: -nan cycles
L1D AVERAGE MSHR OCCUPANCY: 0.234104
L1D MSHR FULL: 0.00491176
L1D RQ	ACCESS:   37694180	FORWARD:          0	MERGED:     406988	TO_CACHE:   37240233
L1D WQ	ACCESS:    8807797	FORWARD:      46959	MERGED:     124901	TO_CACHE:    8682896

L1D UNIQUE REGIONS ACCESSED: 0
L1D REGIONS CONFLICTS: 0
L1D Cross Page Prefetch Requests: 0
L1D Same Page Prefetch Requests: 0
L1D ROI Sum of L1D PQ occupancy: 0
L1D PREFETCHES PUSHED FROM L2C: 0
L1I SPEC fills:          0  NON-SPEC fills:          0
L1I Test counter :          0
L1I Leapfrog:          0
L1I MSHR merge:          1
L1I TOTAL     ACCESS:   43106898  HIT:   43106883  MISS:         15  HIT %:        100  MISS %: 3.47972e-05   MPKI: 7.5e-05
L1I LOAD      TOTAL       ACCESS:   43106898  HIT:   43106883  MISS:         15  HIT %:        100  MISS %: 3.47972e-05   MPKI: 7.5e-05
L1I LOAD      NON_SPEC    ACCESS:   43106898  HIT:   43106883  MISS:         15  HIT %:        100  MISS %: 3.47972e-05   MPKI: 7.5e-05
L1I PREFETCH  REQUESTED:          0  ISSUED:          0  USEFUL:          0  USELESS:          0
L1I USEFUL LOAD PREFETCHES:          0 PREFETCH ISSUED TO LOWER LEVEL:          0  ACCURACY: -nan
L1I TIMELY PREFETCHES:          0 LATE PREFETCHES: 0 DROPPED PREFETCHES: 0
L1I COMMIT LATE PREFETCHES: 0 MISSED OPPORTUNITY: 0 LATE IN PQ: 0 UNCOVERED: 0
L1I COMMIT LATE MSHR PREFETCHES: 0
L1I MPKI TOTAL: 8e-05 MSHR LATE: 0 PQ LATE: 0 COMMIT LATE: 0 MISSED OPPORTUNITY: 0 UNCOVERED: 0
L1I PREFETCHES SAME FILL-ORIGIN LEVEL: 0 DIFFERENT FILL-ORIGIN LEVEL: 0
L1I AVERAGE MISS LATENCY: 226.8 cycles
L1I AVERAGE MISS LATENCY LOAD: 226.8 cycles
L1I AVERAGE MISS LATENCY PREFETCH: -nan cycles
L1I AVERAGE MSHR OCCUPANCY: 1.15991e-07
L1I MSHR FULL: 0
L1I RQ	ACCESS:   67097765	FORWARD:          0	MERGED:   23990865	TO_CACHE:   43106900

BTB SPEC fills:          0  NON-SPEC fills:          0
BTB Test counter :          0
BTB Leapfrog:          0
BTB MSHR merge:          0
BTB TOTAL     ACCESS:   41351681  HIT:   41351328  MISS:        353  HIT %:    99.9991  MISS %: 0.000853653   MPKI: 0.001765
BTB BRANCH_DIRECT_JUMP	ACCESS:       1976  HIT:       1931  MISS:         45
BTB BRANCH_INDIRECT	ACCESS:          3  HIT:          2  MISS:          1
BTB BRANCH_CONDITIONAL	ACCESS:   41349068  HIT:   41348964  MISS:        104
BTB BRANCH_DIRECT_CALL	ACCESS:        308  HIT:        265  MISS:         43
BTB BRANCH_INDIRECT_CALL	ACCESS:          9  HIT:          6  MISS:          3
BTB BRANCH_RETURN	ACCESS:        317  HIT:        160  MISS:        157
BTB BRANCH_OTHER ACCESS:          0  HIT:          0  MISS:          0

L2C SPEC fills:          0  NON-SPEC fills:     336225
L2C Test counter :          0
L2C Leapfrog:          0
L2C MSHR merge:      24921
L2C TOTAL     ACCESS:   11565455  HIT:    6300362  MISS:    5265093  HIT %:    54.4757  MISS %:    45.5243   MPKI: 26.3255
L2C LOAD      TOTAL       ACCESS:    4582506  HIT:    3876846  MISS:     705660  HIT %:     84.601  MISS %:     15.399   MPKI: 3.5283
L2C LOAD      NON_SPEC    ACCESS:    2555913  HIT:    2219673  MISS:     336240  HIT %:    86.8446  MISS %:    13.1554   MPKI: 1.6812
L2C LOAD      SPEC        ACCESS:    2026593  HIT:    1657173  MISS:     369420  HIT %:    81.7714  MISS %:    18.2286   MPKI: 1.8471
L2C RFO       NON_SPEC    ACCESS:     228390  HIT:       7417  MISS:     220973  HIT %:    3.24752  MISS %:    96.7525   MPKI: 1.10486
L2C PREFETCH  NON_SPEC    ACCESS:    5100845  HIT:    1157828  MISS:    3943017  HIT %:    22.6987  MISS %:    77.3013   MPKI: 19.7151
L2C WRITEBACK NON_SPEC    ACCESS:     363009  HIT:     362958  MISS:         51  HIT %:     99.986  MISS %:  0.0140492   MPKI: 0.000255
L2C CLEAN_EVICTION NON_SPEC    ACCESS:     566255  HIT:     198769  MISS:     367486  HIT %:    35.1024  MISS %:    64.8976   MPKI: 1.83743
L2C COMMIT LOAD NON_SPEC    ACCESS:       9420  HIT:       8045  MISS:       1375  HIT %:    85.4034  MISS %:    14.5966   MPKI: 0.006875
L2C LOAD TRANSLATION NON_SPEC    ACCESS:     715030  HIT:     688499  MISS:      26531  HIT %:    96.2895  MISS %:    3.71047   MPKI: 0.132655
L2C PREFETCH  REQUESTED:    5139032  ISSUED:    5139032  USEFUL:    2573743  USELESS:    1366676
L2C USEFUL LOAD PREFETCHES:    2573743 PREFETCH ISSUED TO LOWER LEVEL:    3967951  ACCURACY: 64.8633
L2C TIMELY PREFETCHES:    2573743 LATE PREFETCHES: 24926 DROPPED PREFETCHES: 0
L2C COMMIT LATE PREFETCHES: 0 MISSED OPPORTUNITY: 0 LATE IN PQ: 0 UNCOVERED: 0
L2C COMMIT LATE MSHR PREFETCHES: 0
L2C MPKI TOTAL: 3.5283 MSHR LATE: 0.12463 PQ LATE: 0 COMMIT LATE: 0 MISSED OPPORTUNITY: 0 UNCOVERED: 0
L2C PREFETCHES SAME FILL-ORIGIN LEVEL: 3967951 DIFFERENT FILL-ORIGIN LEVEL: 0
L2C AVERAGE MISS LATENCY: 153.78 cycles
L2C AVERAGE MISS LATENCY LOAD: 131.414 cycles
L2C AVERAGE MISS LATENCY PREFETCH: 171.933 cycles
L2C AVERAGE MSHR OCCUPANCY: 0.882192
L2C MSHR FULL: 0.000952077
L2C RQ	ACCESS:    5535362	FORWARD:          0	MERGED:          0	TO_CACHE:    5535346
L2C WQ	ACCESS:     929264	FORWARD:         16	MERGED:          0	TO_CACHE:     929264
L2C PQ	ACCESS:    5139032	FORWARD:          0	MERGED:          0	TO_CACHE:    5139032

L2C Instructions Evicting Data 15
L2C Translations Evicting Data 26378
L2C Data Evicting Data 4477877
L2C Instructions Evicting Instructions 0
L2C Translations Evicting Instructions 0
L2C Data Evicting Instructions 12
L2C Instructions Evicting Translations 0
L2C Translations Evicting Translations 153
L2C Data Evicting Translations 23701
L2C Dense regions hint from L2: 0
PSCL5 SPEC fills:          0  NON-SPEC fills:          0
PSCL5 Test counter :          0
PSCL5 Leapfrog:          0
PSCL5 MSHR merge:          0
PSCL5 TOTAL     ACCESS:          0  HIT:          0  MISS:          0  HIT %:       -nan  MISS %:       -nan   MPKI: 0
PSCL5 PREFETCH  REQUESTED:          0  ISSUED:          0  USEFUL:          0  USELESS:          0
PSCL5 USEFUL LOAD PREFETCHES:          0 PREFETCH ISSUED TO LOWER LEVEL:          0  ACCURACY: -nan
PSCL5 TIMELY PREFETCHES:          0 LATE PREFETCHES: 0 DROPPED PREFETCHES: 0
PSCL5 COMMIT LATE PREFETCHES: 0 MISSED OPPORTUNITY: 0 LATE IN PQ: 0 UNCOVERED: 0
PSCL5 COMMIT LATE MSHR PREFETCHES: 0
PSCL5 MPKI TOTAL: 0 MSHR LATE: 0 PQ LATE: 0 COMMIT LATE: 0 MISSED OPPORTUNITY: 0 UNCOVERED: 0
PSCL5 PREFETCHES SAME FILL-ORIGIN LEVEL: 0 DIFFERENT FILL-ORIGIN LEVEL: 0

PSCL4 SPEC fills:          0  NON-SPEC fills:          0
PSCL4 Test counter :          0
PSCL4 Leapfrog:          0
PSCL4 MSHR merge:          0
PSCL4 TOTAL     ACCESS:          0  HIT:          0  MISS:          0  HIT %:       -nan  MISS %:       -nan   MPKI: 0
PSCL4 PREFETCH  REQUESTED:          0  ISSUED:          0  USEFUL:          0  USELESS:          0
PSCL4 USEFUL LOAD PREFETCHES:          0 PREFETCH ISSUED TO LOWER LEVEL:          0  ACCURACY: -nan
PSCL4 TIMELY PREFETCHES:          0 LATE PREFETCHES: 0 DROPPED PREFETCHES: 0
PSCL4 COMMIT LATE PREFETCHES: 0 MISSED OPPORTUNITY: 0 LATE IN PQ: 0 UNCOVERED: 0
PSCL4 COMMIT LATE MSHR PREFETCHES: 0
PSCL4 MPKI TOTAL: 0 MSHR LATE: 0 PQ LATE: 0 COMMIT LATE: 0 MISSED OPPORTUNITY: 0 UNCOVERED: 0
PSCL4 PREFETCHES SAME FILL-ORIGIN LEVEL: 0 DIFFERENT FILL-ORIGIN LEVEL: 0

PSCL3 SPEC fills:          0  NON-SPEC fills:          0
PSCL3 Test counter :          0
PSCL3 Leapfrog:          0
PSCL3 MSHR merge:          0
PSCL3 TOTAL     ACCESS:          0  HIT:          0  MISS:          0  HIT %:       -nan  MISS %:       -nan   MPKI: 0
PSCL3 PREFETCH  REQUESTED:          0  ISSUED:          0  USEFUL:          0  USELESS:          0
PSCL3 USEFUL LOAD PREFETCHES:          0 PREFETCH ISSUED TO LOWER LEVEL:          0  ACCURACY: -nan
PSCL3 TIMELY PREFETCHES:          0 LATE PREFETCHES: 0 DROPPED PREFETCHES: 0
PSCL3 COMMIT LATE PREFETCHES: 0 MISSED OPPORTUNITY: 0 LATE IN PQ: 0 UNCOVERED: 0
PSCL3 COMMIT LATE MSHR PREFETCHES: 0
PSCL3 MPKI TOTAL: 0 MSHR LATE: 0 PQ LATE: 0 COMMIT LATE: 0 MISSED OPPORTUNITY: 0 UNCOVERED: 0
PSCL3 PREFETCHES SAME FILL-ORIGIN LEVEL: 0 DIFFERENT FILL-ORIGIN LEVEL: 0

PSCL2 SPEC fills:          0  NON-SPEC fills:          0
PSCL2 Test counter :          0
PSCL2 Leapfrog:          0
PSCL2 MSHR merge:          0
PSCL2 TOTAL     ACCESS:          0  HIT:          0  MISS:          0  HIT %:       -nan  MISS %:       -nan   MPKI: 0
PSCL2 PREFETCH  REQUESTED:          0  ISSUED:          0  USEFUL:          0  USELESS:          0
PSCL2 USEFUL LOAD PREFETCHES:          0 PREFETCH ISSUED TO LOWER LEVEL:          0  ACCURACY: -nan
PSCL2 TIMELY PREFETCHES:          0 LATE PREFETCHES: 0 DROPPED PREFETCHES: 0
PSCL2 COMMIT LATE PREFETCHES: 0 MISSED OPPORTUNITY: 0 LATE IN PQ: 0 UNCOVERED: 0
PSCL2 COMMIT LATE MSHR PREFETCHES: 0
PSCL2 MPKI TOTAL: 0 MSHR LATE: 0 PQ LATE: 0 COMMIT LATE: 0 MISSED OPPORTUNITY: 0 UNCOVERED: 0
PSCL2 PREFETCHES SAME FILL-ORIGIN LEVEL: 0 DIFFERENT FILL-ORIGIN LEVEL: 0

LLC SPEC fills:          0  NON-SPEC fills:     281390
LLC Test counter :          0
LLC Leapfrog:          0
LLC MSHR merge:          0
LLC TOTAL     ACCESS:    5806541  HIT:     792792  MISS:    5013749  HIT %:    13.6534  MISS %:    86.3466   MPKI: 25.0687
LLC LOAD      TOTAL       ACCESS:     680736  HIT:      82989  MISS:     597747  HIT %:    12.1911  MISS %:    87.8089   MPKI: 2.98873
LLC LOAD      NON_SPEC    ACCESS:     333886  HIT:      52481  MISS:     281405  HIT %:    15.7182  MISS %:    84.2818   MPKI: 1.40702
LLC LOAD      SPEC        ACCESS:     346850  HIT:      30508  MISS:     316342  HIT %:    8.79573  MISS %:    91.2043   MPKI: 1.58171
LLC RFO       NON_SPEC    ACCESS:     220968  HIT:       3370  MISS:     217598  HIT %:    1.52511  MISS %:    98.4749   MPKI: 1.08799
LLC PREFETCH  NON_SPEC    ACCESS:    3967943  HIT:     123064  MISS:    3844879  HIT %:    3.10146  MISS %:    96.8985   MPKI: 19.2244
LLC WRITEBACK NON_SPEC    ACCESS:     348004  HIT:     343555  MISS:       4449  HIT %:    98.7216  MISS %:    1.27843   MPKI: 0.022245
LLC CLEAN_EVICTION NON_SPEC    ACCESS:     560984  HIT:     238510  MISS:     322474  HIT %:    42.5164  MISS %:    57.4836   MPKI: 1.61237
LLC COMMIT LOAD NON_SPEC    ACCESS:       1375  HIT:        762  MISS:        613  HIT %:    55.4182  MISS %:    44.5818   MPKI: 0.003065
LLC LOAD TRANSLATION NON_SPEC    ACCESS:      26531  HIT:        542  MISS:      25989  HIT %:    2.04289  MISS %:    97.9571   MPKI: 0.129945
LLC PREFETCH  REQUESTED:          0  ISSUED:          0  USEFUL:      19896  USELESS:    3821195
LLC USEFUL LOAD PREFETCHES:      19896 PREFETCH ISSUED TO LOWER LEVEL:    3844887  ACCURACY: 0.517466
LLC TIMELY PREFETCHES:      19896 LATE PREFETCHES: 0 DROPPED PREFETCHES: 0
LLC COMMIT LATE PREFETCHES: 0 MISSED OPPORTUNITY: 0 LATE IN PQ: 0 UNCOVERED: 0
LLC COMMIT LATE MSHR PREFETCHES: 0
LLC MPKI TOTAL: 2.98873 MSHR LATE: 0 PQ LATE: 0 COMMIT LATE: 0 MISSED OPPORTUNITY: 0 UNCOVERED: 0
LLC PREFETCHES SAME FILL-ORIGIN LEVEL: 0 DIFFERENT FILL-ORIGIN LEVEL: 0
LLC AVERAGE MISS LATENCY: 133.237 cycles
LLC AVERAGE MISS LATENCY LOAD: 120.693 cycles
LLC AVERAGE MISS LATENCY PREFETCH: 146.78 cycles
LLC AVERAGE MSHR OCCUPANCY: 0.795971
LLC MSHR FULL: 0
LLC RQ	ACCESS:     929613	FORWARD:          0	MERGED:          0	TO_CACHE:     929610
LLC WQ	ACCESS:     908988	FORWARD:          3	MERGED:          0	TO_CACHE:     908988
LLC PQ	ACCESS:    3967951	FORWARD:          0	MERGED:          0	TO_CACHE:    3967951

LLC Dense regions hint to LLC: 0

RAW hits: 225694
Loads Generated: 48479808
Loads sent to L1D: 48254114
Stores Generated: 6802601
Stores sent to L1D: 6802601
Major fault: 0 Minor fault: 27134
Allocated PAGES: 27134
Total Load insts: 61210223
Total Non-spec loads: 14457249
Percentage of speculative loads: 76.381

LeapFrogging counter: 36273
Commit hits: 21850365 miss: 12236291
Commit hit %: 64.1024 miss %: 35.8976
Commits not translated: 0
Loads retired: 4582507
Stores retired: 6802601
Cache fills: 4582507
L1D response latency: 33.464 cycles
Load retirement latency: 53.1605 cycles
OOO test counter: 0
Discarded buffer inserts: 21850365 hits: 14779 hit %: 0.0676373
Filter prediction accuracy: 99.437
[Bingo] PHT Access: 378993
[Bingo] PHT Hit PC+Addr: 28785
[Bingo] PHT Hit PC+Offs: 348641
[Bingo] PHT Miss: 1567
[Bingo] Prefetch PC+Addr: 0
[Bingo] Prefetch PC+Offs: 0
[Bingo] Useful PC+Addr: 0
[Bingo] Useful PC+Offs: 0
[Bingo] Useless PC+Addr: 0
[Bingo] Useless PC+Offs: 0
[Bingo] L1 Prefetch per Region: 0
[Bingo] L2 Prefetch per Region: 14.8189
[Bingo] L3 Prefetch per Region: 0
[Bingo] No Prefetch per Region: 17.1811
[Bingo] Number of Voters Mean: 15.9287
[Bingo] Number of Voters SD: 9.87485
PHT read accesses: 5818161
PHT write accesses: 302031
AT read accesses: 4281015
AT write accesses: 4504581
FT read accesses: 935003
FT write accesses: 378993
PS read accesses: 910364
PS write accesses: 377426
PHT tag read accesses: 15135103
PHT tag write accesses: 330816
AT tag read accesses: 165564261
AT tag write accesses: 4583045
FT tag read accesses: 102626052
FT tag write accesses: 1011019
PS tag read accesses: 87589274
PS tag write accesses: 1284183

DRAM Statistics
 CHANNEL 0
 RQ ROW_BUFFER_HIT:    3280081  ROW_BUFFER_MISS:    1406704
 DBUS_CONGESTED:        869
 WQ ROW_BUFFER_HIT:     161316  ROW_BUFFER_MISS:     726113  FULL:          0

 AVG_CONGESTED_CYCLE: 4
 All warmup complete: 2
Channel 0 Bank busy for read cycles: 0
Channel 0 Bank busy for write cycles: 0
Channel 0
Rank 0
0banks busy for read cycles: 389424470
0banks busy for write cycles: 278092
1banks busy for read cycles: 63978746
1banks busy for write cycles: 32237471
2banks busy for read cycles: 11103320
2banks busy for write cycles: 10637435
3banks busy for read cycles: 6691640
3banks busy for write cycles: 6325843
4banks busy for read cycles: 4731693
4banks busy for write cycles: 4144284
5banks busy for read cycles: 3831534
5banks busy for write cycles: 2754462
6banks busy for read cycles: 3929595
6banks busy for write cycles: 1852934
7banks busy for read cycles: 6951011
7banks busy for write cycles: 1572634
8banks busy for read cycles: 19848726
8banks busy for write cycles: 2912865

CPU 0 Branch Prediction Accuracy: 86.6486% MPKI: 29.0033 Average ROB Occupancy at Mispredict: 7.54467
Branch types
NOT_BRANCH: 156554093 78.277%
BRANCH_DIRECT_JUMP: 1976 0.000988%
BRANCH_INDIRECT: 3 1.5e-06%
BRANCH_CONDITIONAL: 43443275 21.7216%
BRANCH_DIRECT_CALL: 308 0.000154%
BRANCH_INDIRECT_CALL: 9 4.5e-06%
BRANCH_RETURN: 317 0.0001585%
BRANCH_OTHER: 0 0%

DRAM PAGES: 1048576
Allocated PAGES: 27134
