
*** ChampSim Multicore Out-of-Order Simulator ***

Warmup Instructions: 50000000
Simulation Instructions: 200000000
Number of CPUs: 1
LLC sets: 2048
LLC ways: 16
L0D sets: 16
L0D ways: 2
ROB size: 352
LQ size: 128
SQ size: 72
Secure Berti: OFF
Berti: OFF
Berti Fill: OFF
On commit prefetching: OFF
Hit-based filter: ON
Time-guarding: ON
Free-slotting: ON
Leap-frogging: ON
Train prefetcher on L0D bypass: OFF
No translation penalty for prefetchers: OFF
Prefetch to L0D only: OFF
Prefetch to L1D only: OFF
Clean evictions: ON
Commit loads: ON
Commit write: ON
Fill commit loads to L2C, LLC: ON
DRAM IO FREQUENCY: 6400
ROB SIZE: 352
Off-chip DRAM Size: 4096 MB Channels: 1 Width: 64-bit Data Rate: 6400 MT/s
CPU 0 runs /home/sumon/secure_berti/GhostMinion/../../traces/gap/pr-14.trace.gz
.gz
BTB has LRU replacement policy
ITLB has LRU replacement policy
DTLB has LRU replacement policy
STLB has LRU replacement policy
L1I has LRU replacement policy
L0D has LRU replacement policy
L1D has LRU replacement policy
Bingo PHT WAYS: 16 and PHT_SIZE: 16384
L2C has LRU replacement policy
LLC has LRU replacement policy
Heartbeat CPU 0 instructions: 10000001 cycles: 3333820 heartbeat IPC: 2.99956 cumulative IPC: 2.99956 (Simulation time: 0 hr 0 min 19 sec) 
Heartbeat CPU 0 instructions: 20000001 cycles: 17902449 heartbeat IPC: 0.686406 cumulative IPC: 1.11717 (Simulation time: 0 hr 1 min 12 sec) 
Heartbeat CPU 0 instructions: 30000003 cycles: 34522089 heartbeat IPC: 0.601698 cumulative IPC: 0.869009 (Simulation time: 0 hr 2 min 12 sec) 
Heartbeat CPU 0 instructions: 40000003 cycles: 51113279 heartbeat IPC: 0.602729 cumulative IPC: 0.782576 (Simulation time: 0 hr 3 min 12 sec) 
Heartbeat CPU 0 instructions: 50000000 cycles: 67693339 heartbeat IPC: 0.603134 cumulative IPC: 0.738625 (Simulation time: 0 hr 4 min 12 sec) 

Warmup complete CPU 0 instructions: 50000004 cycles: 67693347 (Simulation time: 0 hr 4 min 12 sec) 

Heartbeat CPU 0 instructions: 60000000 cycles: 253626738 heartbeat IPC: 0.0537827 cumulative IPC: 0.0537827 (Simulation time: 0 hr 6 min 35 sec) 
Heartbeat CPU 0 instructions: 70000000 cycles: 438926817 heartbeat IPC: 0.0539665 cumulative IPC: 0.0538744 (Simulation time: 0 hr 9 min 6 sec) 
Heartbeat CPU 0 instructions: 80000001 cycles: 624995276 heartbeat IPC: 0.0537437 cumulative IPC: 0.0538308 (Simulation time: 0 hr 11 min 34 sec) 
Heartbeat CPU 0 instructions: 90000000 cycles: 811521781 heartbeat IPC: 0.0536117 cumulative IPC: 0.0537758 (Simulation time: 0 hr 13 min 56 sec) 
Heartbeat CPU 0 instructions: 100000001 cycles: 995651072 heartbeat IPC: 0.0543097 cumulative IPC: 0.0538818 (Simulation time: 0 hr 16 min 18 sec) 
Heartbeat CPU 0 instructions: 110000000 cycles: 1182761017 heartbeat IPC: 0.0534445 cumulative IPC: 0.0538084 (Simulation time: 0 hr 18 min 56 sec) 
Heartbeat CPU 0 instructions: 120000001 cycles: 1368942183 heartbeat IPC: 0.0537111 cumulative IPC: 0.0537945 (Simulation time: 0 hr 21 min 33 sec) 
Heartbeat CPU 0 instructions: 130000000 cycles: 1554132998 heartbeat IPC: 0.0539984 cumulative IPC: 0.0538199 (Simulation time: 0 hr 24 min 6 sec) 
Heartbeat CPU 0 instructions: 140000002 cycles: 1740021964 heartbeat IPC: 0.0537956 cumulative IPC: 0.0538172 (Simulation time: 0 hr 26 min 36 sec) 
Heartbeat CPU 0 instructions: 150000001 cycles: 1926453970 heartbeat IPC: 0.0536389 cumulative IPC: 0.0537993 (Simulation time: 0 hr 29 min 2 sec) 
Heartbeat CPU 0 instructions: 160000001 cycles: 2112551984 heartbeat IPC: 0.0537351 cumulative IPC: 0.0537934 (Simulation time: 0 hr 31 min 23 sec) 
Heartbeat CPU 0 instructions: 170000003 cycles: 2297900414 heartbeat IPC: 0.0539525 cumulative IPC: 0.0538067 (Simulation time: 0 hr 33 min 40 sec) 
Heartbeat CPU 0 instructions: 180000001 cycles: 2483669213 heartbeat IPC: 0.0538303 cumulative IPC: 0.0538085 (Simulation time: 0 hr 35 min 58 sec) 
Heartbeat CPU 0 instructions: 190000000 cycles: 2615567115 heartbeat IPC: 0.0758162 cumulative IPC: 0.0549478 (Simulation time: 0 hr 37 min 39 sec) 
Heartbeat CPU 0 instructions: 200000002 cycles: 2657058515 heartbeat IPC: 0.241014 cumulative IPC: 0.0579293 (Simulation time: 0 hr 38 min 24 sec) 
Heartbeat CPU 0 instructions: 210000001 cycles: 2843298176 heartbeat IPC: 0.0536943 cumulative IPC: 0.0576451 (Simulation time: 0 hr 40 min 36 sec) 
Heartbeat CPU 0 instructions: 220000000 cycles: 3029633273 heartbeat IPC: 0.0536667 cumulative IPC: 0.0573948 (Simulation time: 0 hr 42 min 48 sec) 
Heartbeat CPU 0 instructions: 230000000 cycles: 3216849525 heartbeat IPC: 0.0534142 cumulative IPC: 0.0571582 (Simulation time: 0 hr 45 min 0 sec) 
Heartbeat CPU 0 instructions: 240000002 cycles: 3401793091 heartbeat IPC: 0.0540706 cumulative IPC: 0.0569869 (Simulation time: 0 hr 47 min 13 sec) 
Heartbeat CPU 0 instructions: 250000003 cycles: 3588617200 heartbeat IPC: 0.0535263 cumulative IPC: 0.0568033 (Simulation time: 0 hr 49 min 25 sec) 
Finished CPU 0 instructions: 200000000 cycles: 3520923854 cumulative IPC: 0.0568033 (Simulation time: 0 hr 49 min 25 sec) 
 Instruction ID: 250000385

ChampSim completed all CPUs

Region of Interest Statistics

CPU 0 cumulative IPC: 0.0568033 instructions: 200000000 cycles: 3520923854
ITLB SPEC fills:          0  NON-SPEC fills:          0
ITLB Test counter :          0
ITLB Leapfrog:          0
ITLB MSHR merge:          0
ITLB TOTAL     ACCESS:   58851692  HIT:   58851692  MISS:          0  HIT %:        100  MISS %:          0   MPKI: 0
ITLB LOAD TRANSLATION NON_SPEC    ACCESS:   58851692  HIT:   58851692  MISS:          0  HIT %:        100  MISS %:          0   MPKI: 0
ITLB PREFETCH  REQUESTED:          0  ISSUED:          0  USEFUL:          0  USELESS:          0
ITLB USEFUL LOAD PREFETCHES:          0 PREFETCH ISSUED TO LOWER LEVEL:          0  ACCURACY: -nan
ITLB TIMELY PREFETCHES:          0 LATE PREFETCHES: 0 DROPPED PREFETCHES: 0
ITLB COMMIT LATE PREFETCHES: 0 MISSED OPPORTUNITY: 0 LATE IN PQ: 0 UNCOVERED: 0
ITLB COMMIT LATE MSHR PREFETCHES: 0
ITLB MPKI TOTAL: 0 MSHR LATE: 0 PQ LATE: 0 COMMIT LATE: 0 MISSED OPPORTUNITY: 0 UNCOVERED: 0
ITLB PREFETCHES SAME FILL-ORIGIN LEVEL: 0 DIFFERENT FILL-ORIGIN LEVEL: 0
ITLB AVERAGE MISS LATENCY: -nan cycles
ITLB AVERAGE MISS LATENCY LOAD: -nan cycles
ITLB AVERAGE MISS LATENCY PREFETCH: -nan cycles
ITLB AVERAGE MSHR OCCUPANCY: 0
ITLB MSHR FULL: 0
ITLB RQ	ACCESS:   59979700	FORWARD:          0	MERGED:    1128007	TO_CACHE:   58851693

DTLB SPEC fills:          0  NON-SPEC fills:          0
DTLB Test counter :          0
DTLB Leapfrog:          0
DTLB MSHR merge:          0
DTLB TOTAL     ACCESS:   71395879  HIT:   48398459  MISS:   22997420  HIT %:    67.7889  MISS %:    32.2111   MPKI: 114.987
DTLB LOAD TRANSLATION NON_SPEC    ACCESS:   71395879  HIT:   48398459  MISS:   22997420  HIT %:    67.7889  MISS %:    32.2111   MPKI: 114.987
DTLB PREFETCH  REQUESTED:          0  ISSUED:          0  USEFUL:          0  USELESS:          0
DTLB USEFUL LOAD PREFETCHES:          0 PREFETCH ISSUED TO LOWER LEVEL:          0  ACCURACY: -nan
DTLB TIMELY PREFETCHES:          0 LATE PREFETCHES: 0 DROPPED PREFETCHES: 0
DTLB COMMIT LATE PREFETCHES: 0 MISSED OPPORTUNITY: 0 LATE IN PQ: 0 UNCOVERED: 0
DTLB COMMIT LATE MSHR PREFETCHES: 0
DTLB MPKI TOTAL: 0 MSHR LATE: 0 PQ LATE: 0 COMMIT LATE: 0 MISSED OPPORTUNITY: 0 UNCOVERED: 0
DTLB PREFETCHES SAME FILL-ORIGIN LEVEL: 0 DIFFERENT FILL-ORIGIN LEVEL: 0
DTLB AVERAGE MISS LATENCY: 9.30661 cycles
DTLB AVERAGE MISS LATENCY LOAD: -nan cycles
DTLB AVERAGE MISS LATENCY PREFETCH: -nan cycles
DTLB AVERAGE MSHR OCCUPANCY: 0.196096
DTLB MSHR FULL: 0
DTLB RQ	ACCESS:   72278126	FORWARD:          0	MERGED:     872891	TO_CACHE:   71405235

STLB SPEC fills:          0  NON-SPEC fills:          0
STLB Test counter :          0
STLB Leapfrog:          0
STLB MSHR merge:          0
STLB TOTAL     ACCESS:   22997419  HIT:   22956601  MISS:      40818  HIT %:    99.8225  MISS %:   0.177489   MPKI: 0.20409
STLB LOAD TRANSLATION NON_SPEC    ACCESS:   22997419  HIT:   22956601  MISS:      40818  HIT %:    99.8225  MISS %:   0.177489   MPKI: 0.20409
STLB PREFETCH  REQUESTED:          0  ISSUED:          0  USEFUL:          0  USELESS:          0
STLB USEFUL LOAD PREFETCHES:          0 PREFETCH ISSUED TO LOWER LEVEL:          0  ACCURACY: -nan
STLB TIMELY PREFETCHES:          0 LATE PREFETCHES: 0 DROPPED PREFETCHES: 0
STLB COMMIT LATE PREFETCHES: 0 MISSED OPPORTUNITY: 0 LATE IN PQ: 0 UNCOVERED: 0
STLB COMMIT LATE MSHR PREFETCHES: 0
STLB MPKI TOTAL: 0 MSHR LATE: 0 PQ LATE: 0 COMMIT LATE: 0 MISSED OPPORTUNITY: 0 UNCOVERED: 0
STLB PREFETCHES SAME FILL-ORIGIN LEVEL: 0 DIFFERENT FILL-ORIGIN LEVEL: 0
STLB AVERAGE MISS LATENCY: 163.979 cycles
STLB AVERAGE MISS LATENCY LOAD: -nan cycles
STLB AVERAGE MISS LATENCY PREFETCH: -nan cycles
STLB AVERAGE MSHR OCCUPANCY: 0.00119161
STLB MSHR FULL: 0
STLB RQ	ACCESS:   22997419	FORWARD:          0	MERGED:          0	TO_CACHE:   22997419

STLB Hit, L1D data hit: 0
STLB Hit, L2C data hit: 0
STLB Hit, LLC data hit: 0
STLB Hit, LLC data miss: 0
STLB STLB hints to L2: 0
L0D SPEC fills:    5639552  NON-SPEC fills:          0
L0D TimeGuard Request with older TS:      69627 Restricted eviction:      11418 read:      26919
L0D Test counter :          0
L0D Leapfrog:          0
L0D MSHR merge:    3044188
L0D TOTAL     ACCESS:   65928122  HIT:   22715254  MISS:   43212868  HIT %:    34.4546  MISS %:    65.5454   MPKI: 216.064
L0D LOAD      TOTAL       ACCESS:   65928122  HIT:   22715254  MISS:   43212868  HIT %:    34.4546  MISS %:    65.5454   MPKI: 216.064
L0D LOAD      NON_SPEC    ACCESS:   37577722  HIT:      15824  MISS:   37561898  HIT %:  0.0421101  MISS %:    99.9579   MPKI: 187.809
L0D LOAD      SPEC        ACCESS:   28350400  HIT:   22699430  MISS:    5650970  HIT %:    80.0674  MISS %:    19.9326   MPKI: 28.2549
L0D PREFETCH  REQUESTED:          0  ISSUED:          0  USEFUL:          0  USELESS:          0
L0D USEFUL LOAD PREFETCHES:          0 PREFETCH ISSUED TO LOWER LEVEL:          0  ACCURACY: -nan
L0D TIMELY PREFETCHES:          0 LATE PREFETCHES: 0 DROPPED PREFETCHES: 0
L0D COMMIT LATE PREFETCHES: 0 MISSED OPPORTUNITY: 0 LATE IN PQ: 0 UNCOVERED: 0
L0D COMMIT LATE MSHR PREFETCHES: 0
L0D MPKI TOTAL: 231.285 MSHR LATE: 0 PQ LATE: 0 COMMIT LATE: 0 MISSED OPPORTUNITY: 0 UNCOVERED: 0
L0D PREFETCHES SAME FILL-ORIGIN LEVEL: 0 DIFFERENT FILL-ORIGIN LEVEL: 0
L0D AVERAGE MISS LATENCY: 70.1669 cycles
L0D AVERAGE MISS LATENCY LOAD: 70.1669 cycles
L0D AVERAGE MISS LATENCY PREFETCH: -nan cycles
L0D AVERAGE MSHR OCCUPANCY: 0.264325
L0D MSHR FULL: 0
L0D RQ	ACCESS:   77350916	FORWARD:          0	MERGED:    8378607	TO_CACHE:   68972309
L0D WQ	ACCESS:    3305817	FORWARD:          0	MERGED:          0	TO_CACHE:    3305817

L1D SPEC fills:          0  NON-SPEC fills:   31937662
L1D Test counter :          0
L1D Leapfrog:          0
L1D MSHR merge:         65
L1D TOTAL     ACCESS:   55976601  HIT:   18867729  MISS:   37108872  HIT %:    33.7065  MISS %:    66.2935   MPKI: 185.544
L1D LOAD      TOTAL       ACCESS:   43212803  HIT:    8697172  MISS:   34515631  HIT %:    20.1264  MISS %:    79.8736   MPKI: 172.578
L1D LOAD      NON_SPEC    ACCESS:   37561897  HIT:    5624235  MISS:   31937662  HIT %:    14.9732  MISS %:    85.0268   MPKI: 159.688
L1D LOAD      SPEC        ACCESS:    5650906  HIT:    3072937  MISS:    2577969  HIT %:    54.3795  MISS %:    45.6205   MPKI: 12.8898
L1D RFO       NON_SPEC    ACCESS:    2577826  HIT:    2512049  MISS:      65777  HIT %:    97.4484  MISS %:    2.55165   MPKI: 0.328885
L1D COMMIT LOAD NON_SPEC    ACCESS:    7481798  HIT:    7481156  MISS:        642  HIT %:    99.9914  MISS %: 0.00858083   MPKI: 0.00321
L1D COMMIT WRITE NON_SPEC    ACCESS:    2704174  HIT:     177352  MISS:    2526822  HIT %:    6.55845  MISS %:    93.4415   MPKI: 12.6341
L1D PREFETCH  REQUESTED:          0  ISSUED:          0  USEFUL:          0  USELESS:          0
L1D USEFUL LOAD PREFETCHES:          0 PREFETCH ISSUED TO LOWER LEVEL:          0  ACCURACY: -nan
L1D TIMELY PREFETCHES:          0 LATE PREFETCHES: 0 DROPPED PREFETCHES: 0
L1D COMMIT LATE PREFETCHES: 0 MISSED OPPORTUNITY: 0 LATE IN PQ: 0 UNCOVERED: 0
L1D COMMIT LATE MSHR PREFETCHES: 0
L1D MPKI TOTAL: 172.578 MSHR LATE: 0 PQ LATE: 0 COMMIT LATE: 0 MISSED OPPORTUNITY: 0 UNCOVERED: 0
L1D PREFETCHES SAME FILL-ORIGIN LEVEL: 0 DIFFERENT FILL-ORIGIN LEVEL: 0
L1D AVERAGE MISS LATENCY: 76.2127 cycles
L1D AVERAGE MISS LATENCY LOAD: 81.579 cycles
L1D AVERAGE MISS LATENCY PREFETCH: -nan cycles
L1D AVERAGE MSHR OCCUPANCY: 0.0898936
L1D MSHR FULL: 0
L1D RQ	ACCESS:   50735965	FORWARD:          0	MERGED:      40142	TO_CACHE:   50694672
L1D WQ	ACCESS:    6011851	FORWARD:       1151	MERGED:       4963	TO_CACHE:    6006888

L1D UNIQUE REGIONS ACCESSED: 0
L1D REGIONS CONFLICTS: 0
L1D Cross Page Prefetch Requests: 0
L1D Same Page Prefetch Requests: 0
L1D ROI Sum of L1D PQ occupancy: 0
L1D PREFETCHES PUSHED FROM L2C: 0
L1I SPEC fills:          0  NON-SPEC fills:          0
L1I Test counter :          0
L1I Leapfrog:          0
L1I MSHR merge:          1
L1I TOTAL     ACCESS:   59979698  HIT:   59979677  MISS:         21  HIT %:        100  MISS %: 3.50118e-05   MPKI: 0.000105
L1I LOAD      TOTAL       ACCESS:   59979698  HIT:   59979677  MISS:         21  HIT %:        100  MISS %: 3.50118e-05   MPKI: 0.000105
L1I LOAD      NON_SPEC    ACCESS:   59979698  HIT:   59979677  MISS:         21  HIT %:        100  MISS %: 3.50118e-05   MPKI: 0.000105
L1I PREFETCH  REQUESTED:          0  ISSUED:          0  USEFUL:          0  USELESS:          0
L1I USEFUL LOAD PREFETCHES:          0 PREFETCH ISSUED TO LOWER LEVEL:          0  ACCURACY: -nan
L1I TIMELY PREFETCHES:          0 LATE PREFETCHES: 0 DROPPED PREFETCHES: 0
L1I COMMIT LATE PREFETCHES: 0 MISSED OPPORTUNITY: 0 LATE IN PQ: 0 UNCOVERED: 0
L1I COMMIT LATE MSHR PREFETCHES: 0
L1I MPKI TOTAL: 0.00011 MSHR LATE: 0 PQ LATE: 0 COMMIT LATE: 0 MISSED OPPORTUNITY: 0 UNCOVERED: 0
L1I PREFETCHES SAME FILL-ORIGIN LEVEL: 0 DIFFERENT FILL-ORIGIN LEVEL: 0
L1I AVERAGE MISS LATENCY: 156.857 cycles
L1I AVERAGE MISS LATENCY LOAD: 156.857 cycles
L1I AVERAGE MISS LATENCY PREFETCH: -nan cycles
L1I AVERAGE MSHR OCCUPANCY: 1.33378e-07
L1I MSHR FULL: 0
L1I RQ	ACCESS:   71103022	FORWARD:          0	MERGED:   11123322	TO_CACHE:   59979700

BTB SPEC fills:          0  NON-SPEC fills:          0
BTB Test counter :          0
BTB Leapfrog:          0
BTB MSHR merge:          0
BTB TOTAL     ACCESS:   37022761  HIT:   37022589  MISS:        172  HIT %:    99.9995  MISS %: 0.000464579   MPKI: 0.00086
BTB BRANCH_DIRECT_JUMP	ACCESS:         66  HIT:         33  MISS:         33
BTB BRANCH_INDIRECT	ACCESS:          4  HIT:          0  MISS:          4
BTB BRANCH_CONDITIONAL	ACCESS:   37022625  HIT:   37022536  MISS:         89
BTB BRANCH_DIRECT_CALL	ACCESS:         28  HIT:         10  MISS:         18
BTB BRANCH_INDIRECT_CALL	ACCESS:          5  HIT:          1  MISS:          4
BTB BRANCH_RETURN	ACCESS:         33  HIT:          9  MISS:         24
BTB BRANCH_OTHER ACCESS:          0  HIT:          0  MISS:          0

L2C SPEC fills:          0  NON-SPEC fills:   23216736
L2C Test counter :          0
L2C Leapfrog:          0
L2C MSHR merge:     117379
L2C TOTAL     ACCESS:   60096822  HIT:   15408150  MISS:   44688672  HIT %:    25.6389  MISS %:    74.3611   MPKI: 223.443
L2C LOAD      TOTAL       ACCESS:   34515652  HIT:   11180373  MISS:   23335279  HIT %:    32.3922  MISS %:    67.6078   MPKI: 116.676
L2C LOAD      NON_SPEC    ACCESS:   31937683  HIT:    8720926  MISS:   23216757  HIT %:    27.3061  MISS %:    72.6939   MPKI: 116.084
L2C LOAD      SPEC        ACCESS:    2577969  HIT:    2459447  MISS:     118522  HIT %:    95.4025  MISS %:     4.5975   MPKI: 0.59261
L2C RFO       NON_SPEC    ACCESS:      65777  HIT:        303  MISS:      65474  HIT %:   0.460647  MISS %:    99.5394   MPKI: 0.32737
L2C PREFETCH  NON_SPEC    ACCESS:   24922159  HIT:    3769912  MISS:   21152247  HIT %:    15.1267  MISS %:    84.8733   MPKI: 105.761
L2C WRITEBACK NON_SPEC    ACCESS:      74153  HIT:      73245  MISS:        908  HIT %:    98.7755  MISS %:     1.2245   MPKI: 0.00454
L2C CLEAN_EVICTION NON_SPEC    ACCESS:     314396  HIT:     195216  MISS:     119180  HIT %:    62.0924  MISS %:    37.9076   MPKI: 0.5959
L2C COMMIT LOAD NON_SPEC    ACCESS:        642  HIT:        630  MISS:         12  HIT %:    98.1308  MISS %:    1.86916   MPKI: 6e-05
L2C LOAD TRANSLATION NON_SPEC    ACCESS:     204043  HIT:     188471  MISS:      15572  HIT %:    92.3683  MISS %:    7.63172   MPKI: 0.07786
L2C PREFETCH  REQUESTED:   25044598  ISSUED:   25044598  USEFUL:    3811289  USELESS:   17341011
L2C USEFUL LOAD PREFETCHES:    3811289 PREFETCH ISSUED TO LOWER LEVEL:   21269626  ACCURACY: 17.9189
L2C TIMELY PREFETCHES:    3811289 LATE PREFETCHES: 117379 DROPPED PREFETCHES: 0
L2C COMMIT LATE PREFETCHES: 0 MISSED OPPORTUNITY: 0 LATE IN PQ: 0 UNCOVERED: 0
L2C COMMIT LATE MSHR PREFETCHES: 0
L2C MPKI TOTAL: 116.676 MSHR LATE: 0.586895 PQ LATE: 0 COMMIT LATE: 0 MISSED OPPORTUNITY: 0 UNCOVERED: 0
L2C PREFETCHES SAME FILL-ORIGIN LEVEL: 21269626 DIFFERENT FILL-ORIGIN LEVEL: 0
L2C AVERAGE MISS LATENCY: 114.061 cycles
L2C AVERAGE MISS LATENCY LOAD: 98.9572 cycles
L2C AVERAGE MISS LATENCY PREFETCH: 131.181 cycles
L2C AVERAGE MSHR OCCUPANCY: 0.671692
L2C MSHR FULL: 2.87471e-08
L2C RQ	ACCESS:   34786114	FORWARD:          0	MERGED:          0	TO_CACHE:   34786114
L2C WQ	ACCESS:     388549	FORWARD:          0	MERGED:          0	TO_CACHE:     388549
L2C PQ	ACCESS:   25044598	FORWARD:          0	MERGED:          0	TO_CACHE:   25044598

L2C Instructions Evicting Data 21
L2C Translations Evicting Data 15571
L2C Data Evicting Data 44418940
L2C Instructions Evicting Instructions 0
L2C Translations Evicting Instructions 0
L2C Data Evicting Instructions 21
L2C Instructions Evicting Translations 0
L2C Translations Evicting Translations 1
L2C Data Evicting Translations 15508
L2C Dense regions hint from L2: 0
PSCL5 SPEC fills:          0  NON-SPEC fills:          0
PSCL5 Test counter :          0
PSCL5 Leapfrog:          0
PSCL5 MSHR merge:          0
PSCL5 TOTAL     ACCESS:          0  HIT:          0  MISS:          0  HIT %:       -nan  MISS %:       -nan   MPKI: 0
PSCL5 PREFETCH  REQUESTED:          0  ISSUED:          0  USEFUL:          0  USELESS:          0
PSCL5 USEFUL LOAD PREFETCHES:          0 PREFETCH ISSUED TO LOWER LEVEL:          0  ACCURACY: -nan
PSCL5 TIMELY PREFETCHES:          0 LATE PREFETCHES: 0 DROPPED PREFETCHES: 0
PSCL5 COMMIT LATE PREFETCHES: 0 MISSED OPPORTUNITY: 0 LATE IN PQ: 0 UNCOVERED: 0
PSCL5 COMMIT LATE MSHR PREFETCHES: 0
PSCL5 MPKI TOTAL: 0 MSHR LATE: 0 PQ LATE: 0 COMMIT LATE: 0 MISSED OPPORTUNITY: 0 UNCOVERED: 0
PSCL5 PREFETCHES SAME FILL-ORIGIN LEVEL: 0 DIFFERENT FILL-ORIGIN LEVEL: 0

PSCL4 SPEC fills:          0  NON-SPEC fills:          0
PSCL4 Test counter :          0
PSCL4 Leapfrog:          0
PSCL4 MSHR merge:          0
PSCL4 TOTAL     ACCESS:          0  HIT:          0  MISS:          0  HIT %:       -nan  MISS %:       -nan   MPKI: 0
PSCL4 PREFETCH  REQUESTED:          0  ISSUED:          0  USEFUL:          0  USELESS:          0
PSCL4 USEFUL LOAD PREFETCHES:          0 PREFETCH ISSUED TO LOWER LEVEL:          0  ACCURACY: -nan
PSCL4 TIMELY PREFETCHES:          0 LATE PREFETCHES: 0 DROPPED PREFETCHES: 0
PSCL4 COMMIT LATE PREFETCHES: 0 MISSED OPPORTUNITY: 0 LATE IN PQ: 0 UNCOVERED: 0
PSCL4 COMMIT LATE MSHR PREFETCHES: 0
PSCL4 MPKI TOTAL: 0 MSHR LATE: 0 PQ LATE: 0 COMMIT LATE: 0 MISSED OPPORTUNITY: 0 UNCOVERED: 0
PSCL4 PREFETCHES SAME FILL-ORIGIN LEVEL: 0 DIFFERENT FILL-ORIGIN LEVEL: 0

PSCL3 SPEC fills:          0  NON-SPEC fills:          0
PSCL3 Test counter :          0
PSCL3 Leapfrog:          0
PSCL3 MSHR merge:          0
PSCL3 TOTAL     ACCESS:          0  HIT:          0  MISS:          0  HIT %:       -nan  MISS %:       -nan   MPKI: 0
PSCL3 PREFETCH  REQUESTED:          0  ISSUED:          0  USEFUL:          0  USELESS:          0
PSCL3 USEFUL LOAD PREFETCHES:          0 PREFETCH ISSUED TO LOWER LEVEL:          0  ACCURACY: -nan
PSCL3 TIMELY PREFETCHES:          0 LATE PREFETCHES: 0 DROPPED PREFETCHES: 0
PSCL3 COMMIT LATE PREFETCHES: 0 MISSED OPPORTUNITY: 0 LATE IN PQ: 0 UNCOVERED: 0
PSCL3 COMMIT LATE MSHR PREFETCHES: 0
PSCL3 MPKI TOTAL: 0 MSHR LATE: 0 PQ LATE: 0 COMMIT LATE: 0 MISSED OPPORTUNITY: 0 UNCOVERED: 0
PSCL3 PREFETCHES SAME FILL-ORIGIN LEVEL: 0 DIFFERENT FILL-ORIGIN LEVEL: 0

PSCL2 SPEC fills:          0  NON-SPEC fills:          0
PSCL2 Test counter :          0
PSCL2 Leapfrog:          0
PSCL2 MSHR merge:          0
PSCL2 TOTAL     ACCESS:          0  HIT:          0  MISS:          0  HIT %:       -nan  MISS %:       -nan   MPKI: 0
PSCL2 PREFETCH  REQUESTED:          0  ISSUED:          0  USEFUL:          0  USELESS:          0
PSCL2 USEFUL LOAD PREFETCHES:          0 PREFETCH ISSUED TO LOWER LEVEL:          0  ACCURACY: -nan
PSCL2 TIMELY PREFETCHES:          0 LATE PREFETCHES: 0 DROPPED PREFETCHES: 0
PSCL2 COMMIT LATE PREFETCHES: 0 MISSED OPPORTUNITY: 0 LATE IN PQ: 0 UNCOVERED: 0
PSCL2 COMMIT LATE MSHR PREFETCHES: 0
PSCL2 MPKI TOTAL: 0 MSHR LATE: 0 PQ LATE: 0 COMMIT LATE: 0 MISSED OPPORTUNITY: 0 UNCOVERED: 0
PSCL2 PREFETCHES SAME FILL-ORIGIN LEVEL: 0 DIFFERENT FILL-ORIGIN LEVEL: 0

LLC SPEC fills:          0  NON-SPEC fills:   10132644
LLC Test counter :          0
LLC Leapfrog:          0
LLC MSHR merge:          0
LLC TOTAL     ACCESS:   44944126  HIT:   21184002  MISS:   23760124  HIT %:    47.1341  MISS %:    52.8659   MPKI: 118.801
LLC LOAD      TOTAL       ACCESS:   23217900  HIT:   12982330  MISS:   10235570  HIT %:    55.9152  MISS %:    44.0848   MPKI: 51.1778
LLC LOAD      NON_SPEC    ACCESS:   23109404  HIT:   12976739  MISS:   10132665  HIT %:    56.1535  MISS %:    43.8465   MPKI: 50.6633
LLC LOAD      SPEC        ACCESS:     108496  HIT:       5591  MISS:     102905  HIT %:    5.15319  MISS %:    94.8468   MPKI: 0.514525
LLC RFO       NON_SPEC    ACCESS:      65474  HIT:       1572  MISS:      63902  HIT %:    2.40095  MISS %:     97.599   MPKI: 0.31951
LLC PREFETCH  NON_SPEC    ACCESS:   21269626  HIT:    7920405  MISS:   13349221  HIT %:    37.2381  MISS %:    62.7619   MPKI: 66.7461
LLC WRITEBACK NON_SPEC    ACCESS:      67270  HIT:      66823  MISS:        447  HIT %:    99.3355  MISS %:   0.664486   MPKI: 0.002235
LLC CLEAN_EVICTION NON_SPEC    ACCESS:     308272  HIT:     205098  MISS:     103174  HIT %:    66.5315  MISS %:    33.4685   MPKI: 0.51587
LLC COMMIT LOAD NON_SPEC    ACCESS:         12  HIT:          9  MISS:          3  HIT %:         75  MISS %:         25   MPKI: 1.5e-05
LLC LOAD TRANSLATION NON_SPEC    ACCESS:      15572  HIT:       7765  MISS:       7807  HIT %:    49.8651  MISS %:    50.1349   MPKI: 0.039035
LLC PREFETCH  REQUESTED:          0  ISSUED:          0  USEFUL:    1658040  USELESS:   11693292
LLC USEFUL LOAD PREFETCHES:    1658040 PREFETCH ISSUED TO LOWER LEVEL:   13349221  ACCURACY: 12.4205
LLC TIMELY PREFETCHES:    1658040 LATE PREFETCHES: 0 DROPPED PREFETCHES: 0
LLC COMMIT LATE PREFETCHES: 0 MISSED OPPORTUNITY: 0 LATE IN PQ: 0 UNCOVERED: 0
LLC COMMIT LATE MSHR PREFETCHES: 0
LLC MPKI TOTAL: 51.1778 MSHR LATE: 0 PQ LATE: 0 COMMIT LATE: 0 MISSED OPPORTUNITY: 0 UNCOVERED: 0
LLC PREFETCHES SAME FILL-ORIGIN LEVEL: 0 DIFFERENT FILL-ORIGIN LEVEL: 0
LLC AVERAGE MISS LATENCY: 158.529 cycles
LLC AVERAGE MISS LATENCY LOAD: 156.553 cycles
LLC AVERAGE MISS LATENCY PREFETCH: 161.313 cycles
LLC AVERAGE MSHR OCCUPANCY: 0.47125
LLC MSHR FULL: 0
LLC RQ	ACCESS:   23298958	FORWARD:          0	MERGED:          0	TO_CACHE:   23298958
LLC WQ	ACCESS:     375542	FORWARD:          0	MERGED:          0	TO_CACHE:     375542
LLC PQ	ACCESS:   21269626	FORWARD:          0	MERGED:          0	TO_CACHE:   21269626

LLC Dense regions hint to LLC: 0

RAW hits: 25
Loads Generated: 77350942
Loads sent to L1D: 77350916
Stores Generated: 3305817
Stores sent to L1D: 3305817
Major fault: 0 Minor fault: 34901
Allocated PAGES: 34901
Total Load insts: 95645184
Total Non-spec loads: 44874692
Percentage of speculative loads: 53.0821

LeapFrogging counter: 0
Commit hits: 5639288 miss: 34100254
Commit hit %: 14.1906 miss %: 85.8094
Commits not translated: 0
Loads retired: 34515628
Stores retired: 3305817
Cache fills: 34515631
L1D response latency: 81.579 cycles
Load retirement latency: 226.093 cycles
OOO test counter: 0
Discarded buffer inserts: 5639288 hits: 58382 hit %: 1.03527
Filter prediction accuracy: 99.9249
[Bingo] PHT Access: 24111680
[Bingo] PHT Hit PC+Addr: 1153409
[Bingo] PHT Hit PC+Offs: 22939620
[Bingo] PHT Miss: 18651
[Bingo] Prefetch PC+Addr: 0
[Bingo] Prefetch PC+Offs: 0
[Bingo] Useful PC+Addr: 0
[Bingo] Useful PC+Offs: 0
[Bingo] Useless PC+Addr: 0
[Bingo] Useless PC+Offs: 0
[Bingo] L1 Prefetch per Region: 0
[Bingo] L2 Prefetch per Region: 2.04433
[Bingo] L3 Prefetch per Region: 0
[Bingo] No Prefetch per Region: 29.9557
[Bingo] Number of Voters Mean: 16
[Bingo] Number of Voters SD: 7.21965
PHT read accesses: 376955107
PHT write accesses: 4194048
AT read accesses: 12359223
AT write accesses: 14597587
FT read accesses: 13788224
FT write accesses: 24111680
PS read accesses: 48320666
PS write accesses: 24093029
PHT tag read accesses: 509068275
PHT tag write accesses: 5347457
AT tag read accesses: 1450979267
AT tag write accesses: 16553271
FT tag read accesses: 1961747377
FT tag write accesses: 33705444
PS tag read accesses: 1350837433
PS tag write accesses: 72387887

DRAM Statistics
 CHANNEL 0
 RQ ROW_BUFFER_HIT:    6112178  ROW_BUFFER_MISS:   17544320
 DBUS_CONGESTED:        858
 WQ ROW_BUFFER_HIT:     196577  ROW_BUFFER_MISS:     178037  FULL:          0

 AVG_CONGESTED_CYCLE: 4
 All warmup complete: 2
Channel 0 Bank busy for read cycles: 0
Channel 0 Bank busy for write cycles: 0
Channel 0
Rank 0
0banks busy for read cycles: 1593643734
0banks busy for write cycles: 212817
1banks busy for read cycles: 1233820808
1banks busy for write cycles: 49762148
2banks busy for read cycles: 422725689
2banks busy for write cycles: 3712354
3banks busy for read cycles: 129811138
3banks busy for write cycles: 1253582
4banks busy for read cycles: 32404689
4banks busy for write cycles: 822827
5banks busy for read cycles: 11752341
5banks busy for write cycles: 631881
6banks busy for read cycles: 6805719
6banks busy for write cycles: 539275
7banks busy for read cycles: 7138546
7banks busy for write cycles: 572648
8banks busy for read cycles: 23672943
8banks busy for write cycles: 1640716

CPU 0 Branch Prediction Accuracy: 96.9509% MPKI: 5.6443 Average ROB Occupancy at Mispredict: 137.573
Branch types
NOT_BRANCH: 162977012 81.4885%
BRANCH_DIRECT_JUMP: 66 3.3e-05%
BRANCH_INDIRECT: 4 2e-06%
BRANCH_CONDITIONAL: 37022851 18.5114%
BRANCH_DIRECT_CALL: 28 1.4e-05%
BRANCH_INDIRECT_CALL: 5 2.5e-06%
BRANCH_RETURN: 33 1.65e-05%
BRANCH_OTHER: 0 0%

DRAM PAGES: 1048576
Allocated PAGES: 34901
