
*** ChampSim Multicore Out-of-Order Simulator ***

Warmup Instructions: 50000000
Simulation Instructions: 200000000
Number of CPUs: 1
LLC sets: 2048
LLC ways: 16
L0D sets: 16
L0D ways: 2
ROB size: 352
LQ size: 128
SQ size: 72
Secure Berti: OFF
Berti: OFF
Berti Fill: OFF
On commit prefetching: OFF
Hit-based filter: ON
Time-guarding: ON
Free-slotting: ON
Leap-frogging: ON
Train prefetcher on L0D bypass: OFF
No translation penalty for prefetchers: OFF
Prefetch to L0D only: OFF
Prefetch to L1D only: OFF
Clean evictions: ON
Commit loads: ON
Commit write: ON
Fill commit loads to L2C, LLC: ON
DRAM IO FREQUENCY: 6400
ROB SIZE: 352
Off-chip DRAM Size: 4096 MB Channels: 1 Width: 64-bit Data Rate: 6400 MT/s
CPU 0 runs /home/sumon/secure_berti/GhostMinion/../../traces/gap/pr-5.trace.gz
.gz
BTB has LRU replacement policy
ITLB has LRU replacement policy
DTLB has LRU replacement policy
STLB has LRU replacement policy
L1I has LRU replacement policy
L0D has LRU replacement policy
L1D has LRU replacement policy
Bingo PHT WAYS: 16 and PHT_SIZE: 16384
L2C has LRU replacement policy
LLC has LRU replacement policy
Heartbeat CPU 0 instructions: 10000001 cycles: 3333816 heartbeat IPC: 2.99957 cumulative IPC: 2.99957 (Simulation time: 0 hr 0 min 19 sec) 
Heartbeat CPU 0 instructions: 20000001 cycles: 17940513 heartbeat IPC: 0.684617 cumulative IPC: 1.1148 (Simulation time: 0 hr 1 min 14 sec) 
Heartbeat CPU 0 instructions: 30000000 cycles: 34512979 heartbeat IPC: 0.60341 cumulative IPC: 0.869238 (Simulation time: 0 hr 2 min 14 sec) 
Heartbeat CPU 0 instructions: 40000001 cycles: 51138308 heartbeat IPC: 0.601492 cumulative IPC: 0.782193 (Simulation time: 0 hr 3 min 14 sec) 
Heartbeat CPU 0 instructions: 50000003 cycles: 67722592 heartbeat IPC: 0.602981 cumulative IPC: 0.738306 (Simulation time: 0 hr 4 min 14 sec) 

Warmup complete CPU 0 instructions: 50000003 cycles: 67722592 (Simulation time: 0 hr 4 min 14 sec) 

Heartbeat CPU 0 instructions: 60000000 cycles: 252156072 heartbeat IPC: 0.0542201 cumulative IPC: 0.0542201 (Simulation time: 0 hr 6 min 31 sec) 
Heartbeat CPU 0 instructions: 70000002 cycles: 441311058 heartbeat IPC: 0.0528667 cumulative IPC: 0.0535348 (Simulation time: 0 hr 9 min 6 sec) 
Heartbeat CPU 0 instructions: 80000001 cycles: 629603144 heartbeat IPC: 0.053109 cumulative IPC: 0.0533921 (Simulation time: 0 hr 11 min 48 sec) 
Heartbeat CPU 0 instructions: 90000000 cycles: 817133215 heartbeat IPC: 0.0533248 cumulative IPC: 0.0533753 (Simulation time: 0 hr 14 min 23 sec) 
Heartbeat CPU 0 instructions: 100000000 cycles: 1004519560 heartbeat IPC: 0.0533657 cumulative IPC: 0.0533734 (Simulation time: 0 hr 17 min 35 sec) 
Heartbeat CPU 0 instructions: 110000000 cycles: 1194634144 heartbeat IPC: 0.0525999 cumulative IPC: 0.0532429 (Simulation time: 0 hr 21 min 13 sec) 
Heartbeat CPU 0 instructions: 120000002 cycles: 1383131046 heartbeat IPC: 0.0530513 cumulative IPC: 0.0532154 (Simulation time: 0 hr 24 min 7 sec) 
Heartbeat CPU 0 instructions: 130000003 cycles: 1572194646 heartbeat IPC: 0.0528923 cumulative IPC: 0.0531748 (Simulation time: 0 hr 26 min 51 sec) 
Heartbeat CPU 0 instructions: 140000000 cycles: 1759596679 heartbeat IPC: 0.0533612 cumulative IPC: 0.0531954 (Simulation time: 0 hr 29 min 25 sec) 
Heartbeat CPU 0 instructions: 150000001 cycles: 1948028988 heartbeat IPC: 0.0530695 cumulative IPC: 0.0531828 (Simulation time: 0 hr 31 min 44 sec) 
Heartbeat CPU 0 instructions: 160000001 cycles: 2135348211 heartbeat IPC: 0.0533848 cumulative IPC: 0.0532011 (Simulation time: 0 hr 33 min 59 sec) 
Heartbeat CPU 0 instructions: 170000001 cycles: 2324574994 heartbeat IPC: 0.0528466 cumulative IPC: 0.0531714 (Simulation time: 0 hr 36 min 16 sec) 
Heartbeat CPU 0 instructions: 180000000 cycles: 2513116273 heartbeat IPC: 0.0530388 cumulative IPC: 0.0531612 (Simulation time: 0 hr 38 min 31 sec) 
Heartbeat CPU 0 instructions: 190000000 cycles: 2650578202 heartbeat IPC: 0.0727474 cumulative IPC: 0.0542036 (Simulation time: 0 hr 40 min 13 sec) 
Heartbeat CPU 0 instructions: 200000003 cycles: 2692721199 heartbeat IPC: 0.237287 cumulative IPC: 0.0571429 (Simulation time: 0 hr 40 min 57 sec) 
Heartbeat CPU 0 instructions: 210000001 cycles: 2882080686 heartbeat IPC: 0.0528096 cumulative IPC: 0.0568513 (Simulation time: 0 hr 43 min 10 sec) 
Heartbeat CPU 0 instructions: 220000000 cycles: 3069470748 heartbeat IPC: 0.0533646 cumulative IPC: 0.0566337 (Simulation time: 0 hr 45 min 23 sec) 
Heartbeat CPU 0 instructions: 230000001 cycles: 3258240933 heartbeat IPC: 0.0529745 cumulative IPC: 0.0564172 (Simulation time: 0 hr 47 min 36 sec) 
Heartbeat CPU 0 instructions: 240000000 cycles: 3445770183 heartbeat IPC: 0.053325 cumulative IPC: 0.0562455 (Simulation time: 0 hr 49 min 50 sec) 
Heartbeat CPU 0 instructions: 250000003 cycles: 3630051203 heartbeat IPC: 0.054265 cumulative IPC: 0.0561431 (Simulation time: 0 hr 52 min 1 sec) 
Finished CPU 0 instructions: 200000000 cycles: 3562328611 cumulative IPC: 0.0561431 (Simulation time: 0 hr 52 min 1 sec) 
 Instruction ID: 250000346

ChampSim completed all CPUs

Region of Interest Statistics

CPU 0 cumulative IPC: 0.0561431 instructions: 200000000 cycles: 3562328611
ITLB SPEC fills:          0  NON-SPEC fills:          0
ITLB Test counter :          0
ITLB Leapfrog:          0
ITLB MSHR merge:          0
ITLB TOTAL     ACCESS:   58878766  HIT:   58878766  MISS:          0  HIT %:        100  MISS %:          0   MPKI: 0
ITLB LOAD TRANSLATION NON_SPEC    ACCESS:   58878766  HIT:   58878766  MISS:          0  HIT %:        100  MISS %:          0   MPKI: 0
ITLB PREFETCH  REQUESTED:          0  ISSUED:          0  USEFUL:          0  USELESS:          0
ITLB USEFUL LOAD PREFETCHES:          0 PREFETCH ISSUED TO LOWER LEVEL:          0  ACCURACY: -nan
ITLB TIMELY PREFETCHES:          0 LATE PREFETCHES: 0 DROPPED PREFETCHES: 0
ITLB COMMIT LATE PREFETCHES: 0 MISSED OPPORTUNITY: 0 LATE IN PQ: 0 UNCOVERED: 0
ITLB COMMIT LATE MSHR PREFETCHES: 0
ITLB MPKI TOTAL: 0 MSHR LATE: 0 PQ LATE: 0 COMMIT LATE: 0 MISSED OPPORTUNITY: 0 UNCOVERED: 0
ITLB PREFETCHES SAME FILL-ORIGIN LEVEL: 0 DIFFERENT FILL-ORIGIN LEVEL: 0
ITLB AVERAGE MISS LATENCY: -nan cycles
ITLB AVERAGE MISS LATENCY LOAD: -nan cycles
ITLB AVERAGE MISS LATENCY PREFETCH: -nan cycles
ITLB AVERAGE MSHR OCCUPANCY: 0
ITLB MSHR FULL: 0
ITLB RQ	ACCESS:   60003758	FORWARD:          0	MERGED:    1124992	TO_CACHE:   58878766

DTLB SPEC fills:          0  NON-SPEC fills:          0
DTLB Test counter :          0
DTLB Leapfrog:          0
DTLB MSHR merge:          0
DTLB TOTAL     ACCESS:   71359957  HIT:   48446132  MISS:   22913825  HIT %:    67.8898  MISS %:    32.1102   MPKI: 114.569
DTLB LOAD TRANSLATION NON_SPEC    ACCESS:   71359957  HIT:   48446132  MISS:   22913825  HIT %:    67.8898  MISS %:    32.1102   MPKI: 114.569
DTLB PREFETCH  REQUESTED:          0  ISSUED:          0  USEFUL:          0  USELESS:          0
DTLB USEFUL LOAD PREFETCHES:          0 PREFETCH ISSUED TO LOWER LEVEL:          0  ACCURACY: -nan
DTLB TIMELY PREFETCHES:          0 LATE PREFETCHES: 0 DROPPED PREFETCHES: 0
DTLB COMMIT LATE PREFETCHES: 0 MISSED OPPORTUNITY: 0 LATE IN PQ: 0 UNCOVERED: 0
DTLB COMMIT LATE MSHR PREFETCHES: 0
DTLB MPKI TOTAL: 0 MSHR LATE: 0 PQ LATE: 0 COMMIT LATE: 0 MISSED OPPORTUNITY: 0 UNCOVERED: 0
DTLB PREFETCHES SAME FILL-ORIGIN LEVEL: 0 DIFFERENT FILL-ORIGIN LEVEL: 0
DTLB AVERAGE MISS LATENCY: 9.30097 cycles
DTLB AVERAGE MISS LATENCY LOAD: -nan cycles
DTLB AVERAGE MISS LATENCY PREFETCH: -nan cycles
DTLB AVERAGE MSHR OCCUPANCY: 0.195573
DTLB MSHR FULL: 0
DTLB RQ	ACCESS:   72241393	FORWARD:          0	MERGED:     872497	TO_CACHE:   71368896

STLB SPEC fills:          0  NON-SPEC fills:          0
STLB Test counter :          0
STLB Leapfrog:          0
STLB MSHR merge:          0
STLB TOTAL     ACCESS:   22913824  HIT:   22873010  MISS:      40814  HIT %:    99.8219  MISS %:    0.17812   MPKI: 0.20407
STLB LOAD TRANSLATION NON_SPEC    ACCESS:   22913824  HIT:   22873010  MISS:      40814  HIT %:    99.8219  MISS %:    0.17812   MPKI: 0.20407
STLB PREFETCH  REQUESTED:          0  ISSUED:          0  USEFUL:          0  USELESS:          0
STLB USEFUL LOAD PREFETCHES:          0 PREFETCH ISSUED TO LOWER LEVEL:          0  ACCURACY: -nan
STLB TIMELY PREFETCHES:          0 LATE PREFETCHES: 0 DROPPED PREFETCHES: 0
STLB COMMIT LATE PREFETCHES: 0 MISSED OPPORTUNITY: 0 LATE IN PQ: 0 UNCOVERED: 0
STLB COMMIT LATE MSHR PREFETCHES: 0
STLB MPKI TOTAL: 0 MSHR LATE: 0 PQ LATE: 0 COMMIT LATE: 0 MISSED OPPORTUNITY: 0 UNCOVERED: 0
STLB PREFETCHES SAME FILL-ORIGIN LEVEL: 0 DIFFERENT FILL-ORIGIN LEVEL: 0
STLB AVERAGE MISS LATENCY: 160.154 cycles
STLB AVERAGE MISS LATENCY LOAD: -nan cycles
STLB AVERAGE MISS LATENCY PREFETCH: -nan cycles
STLB AVERAGE MSHR OCCUPANCY: 0.00113124
STLB MSHR FULL: 0
STLB RQ	ACCESS:   22913824	FORWARD:          0	MERGED:          0	TO_CACHE:   22913824

STLB Hit, L1D data hit: 0
STLB Hit, L2C data hit: 0
STLB Hit, LLC data hit: 0
STLB Hit, LLC data miss: 0
STLB STLB hints to L2: 0
L0D SPEC fills:    5588340  NON-SPEC fills:          0
L0D TimeGuard Request with older TS:      70061 Restricted eviction:      11195 read:      15923
L0D Test counter :          0
L0D Leapfrog:          0
L0D MSHR merge:    3032263
L0D TOTAL     ACCESS:   65908894  HIT:   22703310  MISS:   43205584  HIT %:    34.4465  MISS %:    65.5535   MPKI: 216.028
L0D LOAD      TOTAL       ACCESS:   65908894  HIT:   22703310  MISS:   43205584  HIT %:    34.4465  MISS %:    65.5535   MPKI: 216.028
L0D LOAD      NON_SPEC    ACCESS:   37627877  HIT:      21828  MISS:   37606049  HIT %:  0.0580102  MISS %:     99.942   MPKI: 188.03
L0D LOAD      SPEC        ACCESS:   28281017  HIT:   22681482  MISS:    5599535  HIT %:    80.2004  MISS %:    19.7996   MPKI: 27.9977
L0D PREFETCH  REQUESTED:          0  ISSUED:          0  USEFUL:          0  USELESS:          0
L0D USEFUL LOAD PREFETCHES:          0 PREFETCH ISSUED TO LOWER LEVEL:          0  ACCURACY: -nan
L0D TIMELY PREFETCHES:          0 LATE PREFETCHES: 0 DROPPED PREFETCHES: 0
L0D COMMIT LATE PREFETCHES: 0 MISSED OPPORTUNITY: 0 LATE IN PQ: 0 UNCOVERED: 0
L0D COMMIT LATE MSHR PREFETCHES: 0
L0D MPKI TOTAL: 231.189 MSHR LATE: 0 PQ LATE: 0 COMMIT LATE: 0 MISSED OPPORTUNITY: 0 UNCOVERED: 0
L0D PREFETCHES SAME FILL-ORIGIN LEVEL: 0 DIFFERENT FILL-ORIGIN LEVEL: 0
L0D AVERAGE MISS LATENCY: 71.1455 cycles
L0D AVERAGE MISS LATENCY LOAD: 71.1455 cycles
L0D AVERAGE MISS LATENCY PREFETCH: -nan cycles
L0D AVERAGE MSHR OCCUPANCY: 0.263789
L0D MSHR FULL: 0
L0D RQ	ACCESS:   77353672	FORWARD:          0	MERGED:    8412516	TO_CACHE:   68941156
L0D WQ	ACCESS:    3300237	FORWARD:          0	MERGED:          0	TO_CACHE:    3300237

L1D SPEC fills:          0  NON-SPEC fills:   31908119
L1D Test counter :          0
L1D Leapfrog:          0
L1D MSHR merge:         72
L1D TOTAL     ACCESS:   56002430  HIT:   18928005  MISS:   37074425  HIT %:    33.7985  MISS %:    66.2015   MPKI: 185.372
L1D LOAD      TOTAL       ACCESS:   43205512  HIT:    8724461  MISS:   34481051  HIT %:    20.1929  MISS %:    79.8071   MPKI: 172.405
L1D LOAD      NON_SPEC    ACCESS:   37606048  HIT:    5697929  MISS:   31908119  HIT %:    15.1516  MISS %:    84.8484   MPKI: 159.541
L1D LOAD      SPEC        ACCESS:    5599464  HIT:    3026532  MISS:    2572932  HIT %:    54.0504  MISS %:    45.9496   MPKI: 12.8647
L1D RFO       NON_SPEC    ACCESS:    2624355  HIT:    2558593  MISS:      65762  HIT %:    97.4942  MISS %:    2.50583   MPKI: 0.32881
L1D COMMIT LOAD NON_SPEC    ACCESS:    7481771  HIT:    7481108  MISS:        663  HIT %:    99.9911  MISS %: 0.00886154   MPKI: 0.003315
L1D COMMIT WRITE NON_SPEC    ACCESS:    2690792  HIT:     163843  MISS:    2526949  HIT %:    6.08903  MISS %:     93.911   MPKI: 12.6347
L1D PREFETCH  REQUESTED:          0  ISSUED:          0  USEFUL:          0  USELESS:          0
L1D USEFUL LOAD PREFETCHES:          0 PREFETCH ISSUED TO LOWER LEVEL:          0  ACCURACY: -nan
L1D TIMELY PREFETCHES:          0 LATE PREFETCHES: 0 DROPPED PREFETCHES: 0
L1D COMMIT LATE PREFETCHES: 0 MISSED OPPORTUNITY: 0 LATE IN PQ: 0 UNCOVERED: 0
L1D COMMIT LATE MSHR PREFETCHES: 0
L1D MPKI TOTAL: 172.406 MSHR LATE: 0 PQ LATE: 0 COMMIT LATE: 0 MISSED OPPORTUNITY: 0 UNCOVERED: 0
L1D PREFETCHES SAME FILL-ORIGIN LEVEL: 0 DIFFERENT FILL-ORIGIN LEVEL: 0
L1D AVERAGE MISS LATENCY: 77.3971 cycles
L1D AVERAGE MISS LATENCY LOAD: 82.8736 cycles
L1D AVERAGE MISS LATENCY PREFETCH: -nan cycles
L1D AVERAGE MSHR OCCUPANCY: 0.0875753
L1D MSHR FULL: 0
L1D RQ	ACCESS:   50716132	FORWARD:          0	MERGED:      27891	TO_CACHE:   50687363
L1D WQ	ACCESS:    5991029	FORWARD:        878	MERGED:       2974	TO_CACHE:    5988055

L1D UNIQUE REGIONS ACCESSED: 0
L1D REGIONS CONFLICTS: 0
L1D Cross Page Prefetch Requests: 0
L1D Same Page Prefetch Requests: 0
L1D ROI Sum of L1D PQ occupancy: 0
L1D PREFETCHES PUSHED FROM L2C: 0
L1I SPEC fills:          0  NON-SPEC fills:          0
L1I Test counter :          0
L1I Leapfrog:          0
L1I MSHR merge:          1
L1I TOTAL     ACCESS:   60003757  HIT:   60003735  MISS:         22  HIT %:        100  MISS %: 3.66644e-05   MPKI: 0.00011
L1I LOAD      TOTAL       ACCESS:   60003757  HIT:   60003735  MISS:         22  HIT %:        100  MISS %: 3.66644e-05   MPKI: 0.00011
L1I LOAD      NON_SPEC    ACCESS:   60003757  HIT:   60003735  MISS:         22  HIT %:        100  MISS %: 3.66644e-05   MPKI: 0.00011
L1I PREFETCH  REQUESTED:          0  ISSUED:          0  USEFUL:          0  USELESS:          0
L1I USEFUL LOAD PREFETCHES:          0 PREFETCH ISSUED TO LOWER LEVEL:          0  ACCURACY: -nan
L1I TIMELY PREFETCHES:          0 LATE PREFETCHES: 0 DROPPED PREFETCHES: 0
L1I COMMIT LATE PREFETCHES: 0 MISSED OPPORTUNITY: 0 LATE IN PQ: 0 UNCOVERED: 0
L1I COMMIT LATE MSHR PREFETCHES: 0
L1I MPKI TOTAL: 0.000115 MSHR LATE: 0 PQ LATE: 0 COMMIT LATE: 0 MISSED OPPORTUNITY: 0 UNCOVERED: 0
L1I PREFETCHES SAME FILL-ORIGIN LEVEL: 0 DIFFERENT FILL-ORIGIN LEVEL: 0
L1I AVERAGE MISS LATENCY: 173.091 cycles
L1I AVERAGE MISS LATENCY LOAD: 173.091 cycles
L1I AVERAGE MISS LATENCY PREFETCH: -nan cycles
L1I AVERAGE MSHR OCCUPANCY: 1.33325e-07
L1I MSHR FULL: 0
L1I RQ	ACCESS:   71104711	FORWARD:          0	MERGED:   11100953	TO_CACHE:   60003758

BTB SPEC fills:          0  NON-SPEC fills:          0
BTB Test counter :          0
BTB Leapfrog:          0
BTB MSHR merge:          0
BTB TOTAL     ACCESS:   37026927  HIT:   37026756  MISS:        171  HIT %:    99.9995  MISS %: 0.000461826   MPKI: 0.000855
BTB BRANCH_DIRECT_JUMP	ACCESS:         66  HIT:         33  MISS:         33
BTB BRANCH_INDIRECT	ACCESS:          4  HIT:          0  MISS:          4
BTB BRANCH_CONDITIONAL	ACCESS:   37026791  HIT:   37026703  MISS:         88
BTB BRANCH_DIRECT_CALL	ACCESS:         28  HIT:         10  MISS:         18
BTB BRANCH_INDIRECT_CALL	ACCESS:          5  HIT:          1  MISS:          4
BTB BRANCH_RETURN	ACCESS:         33  HIT:          9  MISS:         24
BTB BRANCH_OTHER ACCESS:          0  HIT:          0  MISS:          0

L2C SPEC fills:          0  NON-SPEC fills:   23249950
L2C Test counter :          0
L2C Leapfrog:          0
L2C MSHR merge:     113925
L2C TOTAL     ACCESS:   60187972  HIT:   15276834  MISS:   44911138  HIT %:    25.3819  MISS %:    74.6181   MPKI: 224.556
L2C LOAD      TOTAL       ACCESS:   34481072  HIT:   11115689  MISS:   23365383  HIT %:    32.2371  MISS %:    67.7629   MPKI: 116.827
L2C LOAD      NON_SPEC    ACCESS:   31908141  HIT:    8658169  MISS:   23249972  HIT %:    27.1347  MISS %:    72.8653   MPKI: 116.25
L2C LOAD      SPEC        ACCESS:    2572931  HIT:    2457520  MISS:     115411  HIT %:    95.5144  MISS %:    4.48558   MPKI: 0.577055
L2C RFO       NON_SPEC    ACCESS:      65762  HIT:        390  MISS:      65372  HIT %:   0.593048  MISS %:     99.407   MPKI: 0.32686
L2C PREFETCH  NON_SPEC    ACCESS:   25056710  HIT:    3710963  MISS:   21345747  HIT %:    14.8103  MISS %:    85.1897   MPKI: 106.729
L2C WRITEBACK NON_SPEC    ACCESS:      73242  HIT:      73048  MISS:        194  HIT %:    99.7351  MISS %:   0.264875   MPKI: 0.00097
L2C CLEAN_EVICTION NON_SPEC    ACCESS:     306500  HIT:     188138  MISS:     118362  HIT %:    61.3827  MISS %:    38.6173   MPKI: 0.59181
L2C COMMIT LOAD NON_SPEC    ACCESS:        663  HIT:        647  MISS:         16  HIT %:    97.5867  MISS %:    2.41327   MPKI: 8e-05
L2C LOAD TRANSLATION NON_SPEC    ACCESS:     204023  HIT:     187959  MISS:      16064  HIT %:    92.1264  MISS %:    7.87362   MPKI: 0.08032
L2C PREFETCH  REQUESTED:   25175676  ISSUED:   25175676  USEFUL:    3836516  USELESS:   17509504
L2C USEFUL LOAD PREFETCHES:    3836516 PREFETCH ISSUED TO LOWER LEVEL:   21459673  ACCURACY: 17.8778
L2C TIMELY PREFETCHES:    3836516 LATE PREFETCHES: 113925 DROPPED PREFETCHES: 0
L2C COMMIT LATE PREFETCHES: 0 MISSED OPPORTUNITY: 0 LATE IN PQ: 0 UNCOVERED: 0
L2C COMMIT LATE MSHR PREFETCHES: 0
L2C MPKI TOTAL: 116.827 MSHR LATE: 0.569625 PQ LATE: 0 COMMIT LATE: 0 MISSED OPPORTUNITY: 0 UNCOVERED: 0
L2C PREFETCHES SAME FILL-ORIGIN LEVEL: 21459673 DIFFERENT FILL-ORIGIN LEVEL: 0
L2C AVERAGE MISS LATENCY: 114.94 cycles
L2C AVERAGE MISS LATENCY LOAD: 100.639 cycles
L2C AVERAGE MISS LATENCY PREFETCH: 131.08 cycles
L2C AVERAGE MSHR OCCUPANCY: 0.658995
L2C MSHR FULL: 2.87757e-07
L2C RQ	ACCESS:   34751521	FORWARD:          0	MERGED:          0	TO_CACHE:   34751520
L2C WQ	ACCESS:     379742	FORWARD:          1	MERGED:          0	TO_CACHE:     379742
L2C PQ	ACCESS:   25175676	FORWARD:          0	MERGED:          0	TO_CACHE:   25175676

L2C Instructions Evicting Data 22
L2C Translations Evicting Data 16064
L2C Data Evicting Data 44645060
L2C Instructions Evicting Instructions 0
L2C Translations Evicting Instructions 0
L2C Data Evicting Instructions 22
L2C Instructions Evicting Translations 0
L2C Translations Evicting Translations 0
L2C Data Evicting Translations 16003
L2C Dense regions hint from L2: 0
PSCL5 SPEC fills:          0  NON-SPEC fills:          0
PSCL5 Test counter :          0
PSCL5 Leapfrog:          0
PSCL5 MSHR merge:          0
PSCL5 TOTAL     ACCESS:          0  HIT:          0  MISS:          0  HIT %:       -nan  MISS %:       -nan   MPKI: 0
PSCL5 PREFETCH  REQUESTED:          0  ISSUED:          0  USEFUL:          0  USELESS:          0
PSCL5 USEFUL LOAD PREFETCHES:          0 PREFETCH ISSUED TO LOWER LEVEL:          0  ACCURACY: -nan
PSCL5 TIMELY PREFETCHES:          0 LATE PREFETCHES: 0 DROPPED PREFETCHES: 0
PSCL5 COMMIT LATE PREFETCHES: 0 MISSED OPPORTUNITY: 0 LATE IN PQ: 0 UNCOVERED: 0
PSCL5 COMMIT LATE MSHR PREFETCHES: 0
PSCL5 MPKI TOTAL: 0 MSHR LATE: 0 PQ LATE: 0 COMMIT LATE: 0 MISSED OPPORTUNITY: 0 UNCOVERED: 0
PSCL5 PREFETCHES SAME FILL-ORIGIN LEVEL: 0 DIFFERENT FILL-ORIGIN LEVEL: 0

PSCL4 SPEC fills:          0  NON-SPEC fills:          0
PSCL4 Test counter :          0
PSCL4 Leapfrog:          0
PSCL4 MSHR merge:          0
PSCL4 TOTAL     ACCESS:          0  HIT:          0  MISS:          0  HIT %:       -nan  MISS %:       -nan   MPKI: 0
PSCL4 PREFETCH  REQUESTED:          0  ISSUED:          0  USEFUL:          0  USELESS:          0
PSCL4 USEFUL LOAD PREFETCHES:          0 PREFETCH ISSUED TO LOWER LEVEL:          0  ACCURACY: -nan
PSCL4 TIMELY PREFETCHES:          0 LATE PREFETCHES: 0 DROPPED PREFETCHES: 0
PSCL4 COMMIT LATE PREFETCHES: 0 MISSED OPPORTUNITY: 0 LATE IN PQ: 0 UNCOVERED: 0
PSCL4 COMMIT LATE MSHR PREFETCHES: 0
PSCL4 MPKI TOTAL: 0 MSHR LATE: 0 PQ LATE: 0 COMMIT LATE: 0 MISSED OPPORTUNITY: 0 UNCOVERED: 0
PSCL4 PREFETCHES SAME FILL-ORIGIN LEVEL: 0 DIFFERENT FILL-ORIGIN LEVEL: 0

PSCL3 SPEC fills:          0  NON-SPEC fills:          0
PSCL3 Test counter :          0
PSCL3 Leapfrog:          0
PSCL3 MSHR merge:          0
PSCL3 TOTAL     ACCESS:          0  HIT:          0  MISS:          0  HIT %:       -nan  MISS %:       -nan   MPKI: 0
PSCL3 PREFETCH  REQUESTED:          0  ISSUED:          0  USEFUL:          0  USELESS:          0
PSCL3 USEFUL LOAD PREFETCHES:          0 PREFETCH ISSUED TO LOWER LEVEL:          0  ACCURACY: -nan
PSCL3 TIMELY PREFETCHES:          0 LATE PREFETCHES: 0 DROPPED PREFETCHES: 0
PSCL3 COMMIT LATE PREFETCHES: 0 MISSED OPPORTUNITY: 0 LATE IN PQ: 0 UNCOVERED: 0
PSCL3 COMMIT LATE MSHR PREFETCHES: 0
PSCL3 MPKI TOTAL: 0 MSHR LATE: 0 PQ LATE: 0 COMMIT LATE: 0 MISSED OPPORTUNITY: 0 UNCOVERED: 0
PSCL3 PREFETCHES SAME FILL-ORIGIN LEVEL: 0 DIFFERENT FILL-ORIGIN LEVEL: 0

PSCL2 SPEC fills:          0  NON-SPEC fills:          0
PSCL2 Test counter :          0
PSCL2 Leapfrog:          0
PSCL2 MSHR merge:          0
PSCL2 TOTAL     ACCESS:          0  HIT:          0  MISS:          0  HIT %:       -nan  MISS %:       -nan   MPKI: 0
PSCL2 PREFETCH  REQUESTED:          0  ISSUED:          0  USEFUL:          0  USELESS:          0
PSCL2 USEFUL LOAD PREFETCHES:          0 PREFETCH ISSUED TO LOWER LEVEL:          0  ACCURACY: -nan
PSCL2 TIMELY PREFETCHES:          0 LATE PREFETCHES: 0 DROPPED PREFETCHES: 0
PSCL2 COMMIT LATE PREFETCHES: 0 MISSED OPPORTUNITY: 0 LATE IN PQ: 0 UNCOVERED: 0
PSCL2 COMMIT LATE MSHR PREFETCHES: 0
PSCL2 MPKI TOTAL: 0 MSHR LATE: 0 PQ LATE: 0 COMMIT LATE: 0 MISSED OPPORTUNITY: 0 UNCOVERED: 0
PSCL2 PREFETCHES SAME FILL-ORIGIN LEVEL: 0 DIFFERENT FILL-ORIGIN LEVEL: 0

LLC SPEC fills:          0  NON-SPEC fills:   10489631
LLC Test counter :          0
LLC Leapfrog:          0
LLC MSHR merge:          0
LLC TOTAL     ACCESS:   45159326  HIT:   20847963  MISS:   24311363  HIT %:    46.1654  MISS %:    53.8346   MPKI: 121.557
LLC LOAD      TOTAL       ACCESS:   23251458  HIT:   12659409  MISS:   10592049  HIT %:    54.4457  MISS %:    45.5543   MPKI: 52.9602
LLC LOAD      NON_SPEC    ACCESS:   23145743  HIT:   12656090  MISS:   10489653  HIT %:      54.68  MISS %:      45.32   MPKI: 52.4483
LLC LOAD      SPEC        ACCESS:     105715  HIT:       3319  MISS:     102396  HIT %:    3.13957  MISS %:    96.8604   MPKI: 0.51198
LLC RFO       NON_SPEC    ACCESS:      65372  HIT:       1958  MISS:      63414  HIT %:    2.99517  MISS %:    97.0048   MPKI: 0.31707
LLC PREFETCH  NON_SPEC    ACCESS:   21459673  HIT:    7913628  MISS:   13546045  HIT %:    36.8767  MISS %:    63.1233   MPKI: 67.7302
LLC WRITEBACK NON_SPEC    ACCESS:      66252  HIT:      66104  MISS:        148  HIT %:    99.7766  MISS %:   0.223389   MPKI: 0.00074
LLC CLEAN_EVICTION NON_SPEC    ACCESS:     300491  HIT:     197739  MISS:     102752  HIT %:    65.8053  MISS %:    34.1947   MPKI: 0.51376
LLC COMMIT LOAD NON_SPEC    ACCESS:         16  HIT:         13  MISS:          3  HIT %:      81.25  MISS %:      18.75   MPKI: 1.5e-05
LLC LOAD TRANSLATION NON_SPEC    ACCESS:      16064  HIT:       9112  MISS:       6952  HIT %:    56.7231  MISS %:    43.2769   MPKI: 0.03476
LLC PREFETCH  REQUESTED:          0  ISSUED:          0  USEFUL:    1587179  USELESS:   11959251
LLC USEFUL LOAD PREFETCHES:    1587179 PREFETCH ISSUED TO LOWER LEVEL:   13546045  ACCURACY: 11.7169
LLC TIMELY PREFETCHES:    1587179 LATE PREFETCHES: 0 DROPPED PREFETCHES: 0
LLC COMMIT LATE PREFETCHES: 0 MISSED OPPORTUNITY: 0 LATE IN PQ: 0 UNCOVERED: 0
LLC COMMIT LATE MSHR PREFETCHES: 0
LLC MPKI TOTAL: 52.9602 MSHR LATE: 0 PQ LATE: 0 COMMIT LATE: 0 MISSED OPPORTUNITY: 0 UNCOVERED: 0
LLC PREFETCHES SAME FILL-ORIGIN LEVEL: 0 DIFFERENT FILL-ORIGIN LEVEL: 0
LLC AVERAGE MISS LATENCY: 157.32 cycles
LLC AVERAGE MISS LATENCY LOAD: 155.229 cycles
LLC AVERAGE MISS LATENCY PREFETCH: 160.217 cycles
LLC AVERAGE MSHR OCCUPANCY: 0.451039
LLC MSHR FULL: 0
LLC RQ	ACCESS:   23332910	FORWARD:          0	MERGED:          0	TO_CACHE:   23332910
LLC WQ	ACCESS:     366743	FORWARD:          0	MERGED:          0	TO_CACHE:     366743
LLC PQ	ACCESS:   21459673	FORWARD:          0	MERGED:          0	TO_CACHE:   21459673

LLC Dense regions hint to LLC: 0

RAW hits: 19
Loads Generated: 77353692
Loads sent to L1D: 77353672
Stores Generated: 3300237
Stores sent to L1D: 3300237
Major fault: 0 Minor fault: 34894
Allocated PAGES: 34894
Total Load insts: 95645034
Total Non-spec loads: 44921630
Percentage of speculative loads: 53.033

LeapFrogging counter: 0
Commit hits: 5588042 miss: 34100687
Commit hit %: 14.0797 miss %: 85.9203
Commits not translated: 0
Loads retired: 34481049
Stores retired: 3300237
Cache fills: 34481051
L1D response latency: 82.8736 cycles
Load retirement latency: 229.098 cycles
OOO test counter: 0
Discarded buffer inserts: 5588042 hits: 55890 hit %: 1.00017
Filter prediction accuracy: 99.9244
[Bingo] PHT Access: 24089359
[Bingo] PHT Hit PC+Addr: 1120646
[Bingo] PHT Hit PC+Offs: 22951398
[Bingo] PHT Miss: 17315
[Bingo] Prefetch PC+Addr: 0
[Bingo] Prefetch PC+Offs: 0
[Bingo] Useful PC+Addr: 0
[Bingo] Useful PC+Offs: 0
[Bingo] Useless PC+Addr: 0
[Bingo] Useless PC+Offs: 0
[Bingo] L1 Prefetch per Region: 0
[Bingo] L2 Prefetch per Region: 2.05141
[Bingo] L3 Prefetch per Region: 0
[Bingo] No Prefetch per Region: 29.9486
[Bingo] Number of Voters Mean: 16
[Bingo] Number of Voters SD: 7.24381
PHT read accesses: 376911539
PHT write accesses: 4172021
AT read accesses: 12386499
AT write accesses: 14563333
FT read accesses: 13694402
FT write accesses: 24089359
PS read accesses: 48279906
PS write accesses: 24072044
PHT tag read accesses: 508538206
PHT tag write accesses: 5292667
AT tag read accesses: 1452630507
AT tag write accesses: 16558522
FT tag read accesses: 1963740765
FT tag write accesses: 33611357
PS tag read accesses: 1349634436
PS tag write accesses: 72325781

DRAM Statistics
 CHANNEL 0
 RQ ROW_BUFFER_HIT:    6530720  ROW_BUFFER_MISS:   17677739
 DBUS_CONGESTED:        854
 WQ ROW_BUFFER_HIT:     179043  ROW_BUFFER_MISS:     188280  FULL:          0

 AVG_CONGESTED_CYCLE: 4
 All warmup complete: 2
Channel 0 Bank busy for read cycles: 0
Channel 0 Bank busy for write cycles: 0
Channel 0
Rank 0
0banks busy for read cycles: 1613416073
0banks busy for write cycles: 214094
1banks busy for read cycles: 1249452992
1banks busy for write cycles: 49864736
2banks busy for read cycles: 423257406
2banks busy for write cycles: 4202302
3banks busy for read cycles: 132938020
3banks busy for write cycles: 1373970
4banks busy for read cycles: 33982245
4banks busy for write cycles: 678729
5banks busy for read cycles: 12200098
5banks busy for write cycles: 418452
6banks busy for read cycles: 7153379
6banks busy for write cycles: 307519
7banks busy for read cycles: 7526432
7banks busy for write cycles: 359339
8banks busy for read cycles: 23862086
8banks busy for write cycles: 1120740

CPU 0 Branch Prediction Accuracy: 96.9587% MPKI: 5.6305 Average ROB Occupancy at Mispredict: 137.686
Branch types
NOT_BRANCH: 162972814 81.4864%
BRANCH_DIRECT_JUMP: 66 3.3e-05%
BRANCH_INDIRECT: 4 2e-06%
BRANCH_CONDITIONAL: 37027011 18.5135%
BRANCH_DIRECT_CALL: 28 1.4e-05%
BRANCH_INDIRECT_CALL: 5 2.5e-06%
BRANCH_RETURN: 33 1.65e-05%
BRANCH_OTHER: 0 0%

DRAM PAGES: 1048576
Allocated PAGES: 34894
