
*** ChampSim Multicore Out-of-Order Simulator ***

Warmup Instructions: 50000000
Simulation Instructions: 200000000
Number of CPUs: 1
LLC sets: 2048
LLC ways: 16
L0D sets: 16
L0D ways: 2
ROB size: 352
LQ size: 128
SQ size: 72
Secure Berti: OFF
Berti: OFF
Berti Fill: OFF
On commit prefetching: OFF
Hit-based filter: ON
Time-guarding: ON
Free-slotting: ON
Leap-frogging: ON
Train prefetcher on L0D bypass: OFF
No translation penalty for prefetchers: OFF
Prefetch to L0D only: OFF
Prefetch to L1D only: OFF
Clean evictions: ON
Commit loads: ON
Commit write: ON
Fill commit loads to L2C, LLC: ON
DRAM IO FREQUENCY: 6400
ROB SIZE: 352
Off-chip DRAM Size: 4096 MB Channels: 1 Width: 64-bit Data Rate: 6400 MT/s
CPU 0 runs /home/sumon/secure_berti/GhostMinion/../../traces/gap/bc-3.trace.gz
.gz
BTB has LRU replacement policy
ITLB has LRU replacement policy
DTLB has LRU replacement policy
STLB has LRU replacement policy
L1I has LRU replacement policy
L0D has LRU replacement policy
History Sets: 8
History Ways: 16
BERTI Size: 16
BERTI Stride Size: 16
L1D has LRU replacement policy
L2C has LRU replacement policy
LLC has LRU replacement policy
Heartbeat CPU 0 instructions: 10000002 cycles: 3738404 heartbeat IPC: 2.67494 cumulative IPC: 2.67494 (Simulation time: 0 hr 0 min 38 sec) 
Heartbeat CPU 0 instructions: 20000001 cycles: 7043807 heartbeat IPC: 3.02535 cumulative IPC: 2.83937 (Simulation time: 0 hr 1 min 15 sec) 
Heartbeat CPU 0 instructions: 30000002 cycles: 10430006 heartbeat IPC: 2.95316 cumulative IPC: 2.87632 (Simulation time: 0 hr 1 min 52 sec) 
Heartbeat CPU 0 instructions: 40000003 cycles: 13824685 heartbeat IPC: 2.94579 cumulative IPC: 2.89338 (Simulation time: 0 hr 2 min 29 sec) 
Heartbeat CPU 0 instructions: 50000003 cycles: 17217998 heartbeat IPC: 2.94697 cumulative IPC: 2.90394 (Simulation time: 0 hr 3 min 5 sec) 

Warmup complete CPU 0 instructions: 50000003 cycles: 17217998 (Simulation time: 0 hr 3 min 5 sec) 

Heartbeat CPU 0 instructions: 60000002 cycles: 69995573 heartbeat IPC: 0.189474 cumulative IPC: 0.189474 (Simulation time: 0 hr 4 min 5 sec) 
Heartbeat CPU 0 instructions: 70000000 cycles: 122643318 heartbeat IPC: 0.189942 cumulative IPC: 0.189708 (Simulation time: 0 hr 5 min 2 sec) 
Heartbeat CPU 0 instructions: 80000000 cycles: 175604547 heartbeat IPC: 0.188817 cumulative IPC: 0.18941 (Simulation time: 0 hr 6 min 1 sec) 
Heartbeat CPU 0 instructions: 90000002 cycles: 228517253 heartbeat IPC: 0.188991 cumulative IPC: 0.189305 (Simulation time: 0 hr 7 min 1 sec) 
Heartbeat CPU 0 instructions: 100000003 cycles: 280909733 heartbeat IPC: 0.190867 cumulative IPC: 0.189615 (Simulation time: 0 hr 7 min 59 sec) 
Heartbeat CPU 0 instructions: 110000000 cycles: 333770198 heartbeat IPC: 0.189177 cumulative IPC: 0.189542 (Simulation time: 0 hr 9 min 23 sec) 
Heartbeat CPU 0 instructions: 120000000 cycles: 385759472 heartbeat IPC: 0.192347 cumulative IPC: 0.189938 (Simulation time: 0 hr 11 min 17 sec) 
Heartbeat CPU 0 instructions: 130000002 cycles: 438905956 heartbeat IPC: 0.188159 cumulative IPC: 0.189714 (Simulation time: 0 hr 13 min 11 sec) 
Heartbeat CPU 0 instructions: 140000001 cycles: 491633245 heartbeat IPC: 0.189655 cumulative IPC: 0.189707 (Simulation time: 0 hr 15 min 3 sec) 
Heartbeat CPU 0 instructions: 150000000 cycles: 544617301 heartbeat IPC: 0.188736 cumulative IPC: 0.18961 (Simulation time: 0 hr 16 min 50 sec) 
Heartbeat CPU 0 instructions: 160000001 cycles: 596224230 heartbeat IPC: 0.193772 cumulative IPC: 0.189981 (Simulation time: 0 hr 17 min 53 sec) 
Heartbeat CPU 0 instructions: 170000000 cycles: 647188038 heartbeat IPC: 0.196218 cumulative IPC: 0.190485 (Simulation time: 0 hr 18 min 54 sec) 
Heartbeat CPU 0 instructions: 180000000 cycles: 697026661 heartbeat IPC: 0.200648 cumulative IPC: 0.19123 (Simulation time: 0 hr 19 min 54 sec) 
Heartbeat CPU 0 instructions: 190000001 cycles: 746380959 heartbeat IPC: 0.202617 cumulative IPC: 0.192001 (Simulation time: 0 hr 20 min 54 sec) 
Heartbeat CPU 0 instructions: 200000000 cycles: 795730083 heartbeat IPC: 0.202638 cumulative IPC: 0.192675 (Simulation time: 0 hr 21 min 52 sec) 
Heartbeat CPU 0 instructions: 210000000 cycles: 845134748 heartbeat IPC: 0.20241 cumulative IPC: 0.193256 (Simulation time: 0 hr 22 min 50 sec) 
Heartbeat CPU 0 instructions: 220000000 cycles: 894601069 heartbeat IPC: 0.202158 cumulative IPC: 0.193758 (Simulation time: 0 hr 23 min 47 sec) 
Heartbeat CPU 0 instructions: 230000000 cycles: 944196611 heartbeat IPC: 0.201631 cumulative IPC: 0.194179 (Simulation time: 0 hr 24 min 44 sec) 
Heartbeat CPU 0 instructions: 240000000 cycles: 993734218 heartbeat IPC: 0.201867 cumulative IPC: 0.194569 (Simulation time: 0 hr 25 min 40 sec) 
Heartbeat CPU 0 instructions: 250000003 cycles: 1043168807 heartbeat IPC: 0.202288 cumulative IPC: 0.194941 (Simulation time: 0 hr 26 min 34 sec) 
Finished CPU 0 instructions: 200000000 cycles: 1025950809 cumulative IPC: 0.194941 (Simulation time: 0 hr 26 min 34 sec) 
 Instruction ID: 250000227

ChampSim completed all CPUs

Region of Interest Statistics

CPU 0 cumulative IPC: 0.194941 instructions: 200000000 cycles: 1025950809
ITLB SPEC fills:          0  NON-SPEC fills:          0
ITLB Test counter :          0
ITLB Leapfrog:          0
ITLB MSHR merge:          0
ITLB TOTAL     ACCESS:   42178108  HIT:   42178108  MISS:          0  HIT %:        100  MISS %:          0   MPKI: 0
ITLB LOAD TRANSLATION NON_SPEC    ACCESS:   42178108  HIT:   42178108  MISS:          0  HIT %:        100  MISS %:          0   MPKI: 0
ITLB PREFETCH  REQUESTED:          0  ISSUED:          0  USEFUL:          0  USELESS:          0
ITLB USEFUL LOAD PREFETCHES:          0 PREFETCH ISSUED TO LOWER LEVEL:          0  ACCURACY: -nan
ITLB TIMELY PREFETCHES:          0 LATE PREFETCHES: 0 DROPPED PREFETCHES: 0
ITLB COMMIT LATE PREFETCHES: 0 MISSED OPPORTUNITY: 0 LATE IN PQ: 0 UNCOVERED: 0
ITLB COMMIT LATE MSHR PREFETCHES: 0
ITLB MPKI TOTAL: 0 MSHR LATE: 0 PQ LATE: 0 COMMIT LATE: 0 MISSED OPPORTUNITY: 0 UNCOVERED: 0
ITLB PREFETCHES SAME FILL-ORIGIN LEVEL: 0 DIFFERENT FILL-ORIGIN LEVEL: 0
ITLB AVERAGE MISS LATENCY: -nan cycles
ITLB AVERAGE MISS LATENCY LOAD: -nan cycles
ITLB AVERAGE MISS LATENCY PREFETCH: -nan cycles
ITLB AVERAGE MSHR OCCUPANCY: 0
ITLB MSHR FULL: 0
ITLB RQ	ACCESS:   42459762	FORWARD:          0	MERGED:     281655	TO_CACHE:   42178107

DTLB SPEC fills:          0  NON-SPEC fills:          0
DTLB Test counter :          0
DTLB Leapfrog:          0
DTLB MSHR merge:          0
DTLB TOTAL     ACCESS:   48627341  HIT:   38270866  MISS:   10356475  HIT %:    78.7024  MISS %:    21.2976   MPKI: 51.7824
DTLB LOAD TRANSLATION NON_SPEC    ACCESS:   48627341  HIT:   38270866  MISS:   10356475  HIT %:    78.7024  MISS %:    21.2976   MPKI: 51.7824
DTLB PREFETCH  REQUESTED:          0  ISSUED:          0  USEFUL:          0  USELESS:          0
DTLB USEFUL LOAD PREFETCHES:          0 PREFETCH ISSUED TO LOWER LEVEL:          0  ACCURACY: -nan
DTLB TIMELY PREFETCHES:          0 LATE PREFETCHES: 0 DROPPED PREFETCHES: 0
DTLB COMMIT LATE PREFETCHES: 0 MISSED OPPORTUNITY: 0 LATE IN PQ: 0 UNCOVERED: 0
DTLB COMMIT LATE MSHR PREFETCHES: 0
DTLB MPKI TOTAL: 0 MSHR LATE: 0 PQ LATE: 0 COMMIT LATE: 0 MISSED OPPORTUNITY: 0 UNCOVERED: 0
DTLB PREFETCHES SAME FILL-ORIGIN LEVEL: 0 DIFFERENT FILL-ORIGIN LEVEL: 0
DTLB AVERAGE MISS LATENCY: 27.084 cycles
DTLB AVERAGE MISS LATENCY LOAD: -nan cycles
DTLB AVERAGE MISS LATENCY PREFETCH: -nan cycles
DTLB AVERAGE MSHR OCCUPANCY: 0.481278
DTLB MSHR FULL: 0.00420516
DTLB RQ	ACCESS:   52989829	FORWARD:          0	MERGED:    3696210	TO_CACHE:   49293619

STLB SPEC fills:          0  NON-SPEC fills:          0
STLB Test counter :          0
STLB Leapfrog:          0
STLB MSHR merge:          0
STLB TOTAL     ACCESS:   19385903  HIT:   17197882  MISS:    2188021  HIT %:    88.7133  MISS %:    11.2867   MPKI: 10.9401
STLB LOAD TRANSLATION NON_SPEC    ACCESS:   10356474  HIT:    8230164  MISS:    2126310  HIT %:    79.4688  MISS %:    20.5312   MPKI: 10.6316
STLB TRANSLATION FROM L1D PREFETCHER NON_SPEC    ACCESS:    9029429  HIT:    8967718  MISS:      61711  HIT %:    99.3166  MISS %:   0.683443   MPKI: 0.308555
STLB PREFETCH  REQUESTED:          0  ISSUED:          0  USEFUL:      60746  USELESS:        965
STLB USEFUL LOAD PREFETCHES:      60746 PREFETCH ISSUED TO LOWER LEVEL:          0  ACCURACY: inf
STLB TIMELY PREFETCHES:      60746 LATE PREFETCHES: 14956 DROPPED PREFETCHES: 759038
STLB COMMIT LATE PREFETCHES: 0 MISSED OPPORTUNITY: 0 LATE IN PQ: 0 UNCOVERED: 0
STLB COMMIT LATE MSHR PREFETCHES: 0
STLB MPKI TOTAL: 0 MSHR LATE: 0.07478 PQ LATE: 0 COMMIT LATE: 0 MISSED OPPORTUNITY: 0 UNCOVERED: 0
STLB PREFETCHES SAME FILL-ORIGIN LEVEL: 0 DIFFERENT FILL-ORIGIN LEVEL: 0
STLB AVERAGE MISS LATENCY: 87.8349 cycles
STLB AVERAGE MISS LATENCY LOAD: -nan cycles
STLB AVERAGE MISS LATENCY PREFETCH: -nan cycles
STLB AVERAGE MSHR OCCUPANCY: 0.328924
STLB MSHR FULL: 0
STLB RQ	ACCESS:   55002146	FORWARD:          0	MERGED:   34728504	TO_CACHE:   20273642

STLB Hit, L1D data hit: 0
STLB Hit, L2C data hit: 0
STLB Hit, LLC data hit: 0
STLB Hit, LLC data miss: 0
STLB STLB hints to L2: 0
L0D SPEC fills:   28520646  NON-SPEC fills:          0
L0D TimeGuard Request with older TS:     333865 Restricted eviction:     398908 read:         22
L0D Test counter :          0
L0D Leapfrog:          0
L0D MSHR merge:     382084
L0D TOTAL     ACCESS:   45979241  HIT:   12051574  MISS:   33927667  HIT %:    26.2109  MISS %:    73.7891   MPKI: 169.638
L0D LOAD      TOTAL       ACCESS:   45979241  HIT:   12051574  MISS:   33927667  HIT %:    26.2109  MISS %:    73.7891   MPKI: 169.638
L0D LOAD      NON_SPEC    ACCESS:    5009978  HIT:       1667  MISS:    5008311  HIT %:  0.0332736  MISS %:    99.9667   MPKI: 25.0416
L0D LOAD      SPEC        ACCESS:   40969263  HIT:   12049907  MISS:   28919356  HIT %:    29.4121  MISS %:    70.5879   MPKI: 144.597
L0D PREFETCH  REQUESTED:          0  ISSUED:          0  USEFUL:          0  USELESS:          0
L0D USEFUL LOAD PREFETCHES:          0 PREFETCH ISSUED TO LOWER LEVEL:          0  ACCURACY: -nan
L0D TIMELY PREFETCHES:          0 LATE PREFETCHES: 0 DROPPED PREFETCHES: 0
L0D COMMIT LATE PREFETCHES: 0 MISSED OPPORTUNITY: 0 LATE IN PQ: 0 UNCOVERED: 0
L0D COMMIT LATE MSHR PREFETCHES: 0
L0D MPKI TOTAL: 171.549 MSHR LATE: 0 PQ LATE: 0 COMMIT LATE: 0 MISSED OPPORTUNITY: 0 UNCOVERED: 0
L0D PREFETCHES SAME FILL-ORIGIN LEVEL: 0 DIFFERENT FILL-ORIGIN LEVEL: 0
L0D AVERAGE MISS LATENCY: 54.8684 cycles
L0D AVERAGE MISS LATENCY LOAD: 54.8684 cycles
L0D AVERAGE MISS LATENCY PREFETCH: -nan cycles
L0D AVERAGE MSHR OCCUPANCY: 1.79794
L0D MSHR FULL: 0.0556167
L0D RQ	ACCESS:   47839614	FORWARD:          0	MERGED:    1478293	TO_CACHE:   46361321
L0D WQ	ACCESS:    6628508	FORWARD:          0	MERGED:          0	TO_CACHE:    6628508

L1D SPEC fills:          0  NON-SPEC fills:     694428
L1D Test counter :          0
L1D Leapfrog:          0
L1D MSHR merge:      10844
L1D TOTAL     ACCESS:   79384103  HIT:   44992879  MISS:   34391224  HIT %:    56.6774  MISS %:    43.3226   MPKI: 171.956
L1D LOAD      TOTAL       ACCESS:   33925975  HIT:   16954968  MISS:   16971007  HIT %:    49.9764  MISS %:    50.0236   MPKI: 84.855
L1D LOAD      NON_SPEC    ACCESS:    5007025  HIT:    4312597  MISS:     694428  HIT %:    86.1309  MISS %:    13.8691   MPKI: 3.47214
L1D LOAD      SPEC        ACCESS:   28918950  HIT:   12642371  MISS:   16276579  HIT %:    43.7166  MISS %:    56.2834   MPKI: 81.3829
L1D RFO       NON_SPEC    ACCESS:    3639509  HIT:    3609802  MISS:      29707  HIT %:    99.1838  MISS %:   0.816236   MPKI: 0.148535
L1D PREFETCH  NON_SPEC    ACCESS:   25207324  HIT:   24097577  MISS:    1109747  HIT %:    95.5975  MISS %:    4.40248   MPKI: 5.54873
L1D COMMIT LOAD NON_SPEC    ACCESS:     628074  HIT:     326180  MISS:     301894  HIT %:    51.9334  MISS %:    48.0666   MPKI: 1.50947
L1D COMMIT WRITE NON_SPEC    ACCESS:   15983221  HIT:       4352  MISS:   15978869  HIT %:  0.0272286  MISS %:    99.9728   MPKI: 79.8943
L1D PREFETCH  REQUESTED:   48333583  ISSUED:   47659990  USEFUL:     906754  USELESS:     203012
L1D USEFUL LOAD PREFETCHES:     906754 PREFETCH ISSUED TO LOWER LEVEL:   18303350  ACCURACY: 4.95403
L1D TIMELY PREFETCHES:     906754 LATE PREFETCHES: 9160 DROPPED PREFETCHES: 2087274
L1D COMMIT LATE PREFETCHES: 0 MISSED OPPORTUNITY: 0 LATE IN PQ: 0 UNCOVERED: 0
L1D COMMIT LATE MSHR PREFETCHES: 0
L1D MPKI TOTAL: 84.8635 MSHR LATE: 0.0458 PQ LATE: 0 COMMIT LATE: 0 MISSED OPPORTUNITY: 0 UNCOVERED: 0
L1D PREFETCHES SAME FILL-ORIGIN LEVEL: 1118907 DIFFERENT FILL-ORIGIN LEVEL: 17184443
L1D AVERAGE MISS LATENCY: 54.6196 cycles
L1D AVERAGE MISS LATENCY LOAD: 99.5161 cycles
L1D AVERAGE MISS LATENCY PREFETCH: 146.162 cycles
L1D AVERAGE MSHR OCCUPANCY: 1.50763
L1D MSHR FULL: 0.0187155
L1D RQ	ACCESS:   34624140	FORWARD:          0	MERGED:      67852	TO_CACHE:   34556288
L1D WQ	ACCESS:   22611731	FORWARD:          0	MERGED:    2936513	TO_CACHE:   19675218
L1D PQ	ACCESS:   47659990	FORWARD:          0	MERGED:    3014317	TO_CACHE:   44645673

L1D UNIQUE REGIONS ACCESSED: 0
L1D REGIONS CONFLICTS: 0
L1D Cross Page Prefetch Requests: 5830510
L1D Same Page Prefetch Requests: 51597835
L1D ROI Sum of L1D PQ occupancy: 984879583
L1D PREFETCHES PUSHED FROM L2C: 0
L1I SPEC fills:          0  NON-SPEC fills:          0
L1I Test counter :          0
L1I Leapfrog:          0
L1I MSHR merge:          0
L1I TOTAL     ACCESS:   42459762  HIT:   42459762  MISS:          0  HIT %:        100  MISS %:          0   MPKI: 0
L1I LOAD      TOTAL       ACCESS:   42459762  HIT:   42459762  MISS:          0  HIT %:        100  MISS %:          0   MPKI: 0
L1I LOAD      NON_SPEC    ACCESS:   42459762  HIT:   42459762  MISS:          0  HIT %:        100  MISS %:          0   MPKI: 0
L1I PREFETCH  REQUESTED:          0  ISSUED:          0  USEFUL:          0  USELESS:          0
L1I USEFUL LOAD PREFETCHES:          0 PREFETCH ISSUED TO LOWER LEVEL:          0  ACCURACY: -nan
L1I TIMELY PREFETCHES:          0 LATE PREFETCHES: 0 DROPPED PREFETCHES: 0
L1I COMMIT LATE PREFETCHES: 0 MISSED OPPORTUNITY: 0 LATE IN PQ: 0 UNCOVERED: 0
L1I COMMIT LATE MSHR PREFETCHES: 0
L1I MPKI TOTAL: 0 MSHR LATE: 0 PQ LATE: 0 COMMIT LATE: 0 MISSED OPPORTUNITY: 0 UNCOVERED: 0
L1I PREFETCHES SAME FILL-ORIGIN LEVEL: 0 DIFFERENT FILL-ORIGIN LEVEL: 0
L1I AVERAGE MISS LATENCY: -nan cycles
L1I AVERAGE MISS LATENCY LOAD: -nan cycles
L1I AVERAGE MISS LATENCY PREFETCH: -nan cycles
L1I AVERAGE MSHR OCCUPANCY: 0
L1I MSHR FULL: 0
L1I RQ	ACCESS:   56789380	FORWARD:          0	MERGED:   14329618	TO_CACHE:   42459762

BTB SPEC fills:          0  NON-SPEC fills:          0
BTB Test counter :          0
BTB Leapfrog:          0
BTB MSHR merge:          0
BTB TOTAL     ACCESS:   43358698  HIT:   43358684  MISS:         14  HIT %:        100  MISS %: 3.22888e-05   MPKI: 7e-05
BTB BRANCH_DIRECT_JUMP	ACCESS:     271551  HIT:     271547  MISS:          4
BTB BRANCH_INDIRECT	ACCESS:          0  HIT:          0  MISS:          0
BTB BRANCH_CONDITIONAL	ACCESS:   43087119  HIT:   43087111  MISS:          8
BTB BRANCH_DIRECT_CALL	ACCESS:         14  HIT:         13  MISS:          1
BTB BRANCH_INDIRECT_CALL	ACCESS:          0  HIT:          0  MISS:          0
BTB BRANCH_RETURN	ACCESS:         14  HIT:         13  MISS:          1
BTB BRANCH_OTHER ACCESS:          0  HIT:          0  MISS:          0

L2C SPEC fills:          0  NON-SPEC fills:     544049
L2C Test counter :          0
L2C Leapfrog:          0
L2C MSHR merge:      41193
L2C TOTAL     ACCESS:   63207527  HIT:   33962542  MISS:   29244985  HIT %:    53.7318  MISS %:    46.2682   MPKI: 146.225
L2C LOAD      TOTAL       ACCESS:   16961724  HIT:    3345032  MISS:   13616692  HIT %:    19.7211  MISS %:    80.2789   MPKI: 68.0835
L2C LOAD      NON_SPEC    ACCESS:     694384  HIT:     150335  MISS:     544049  HIT %:    21.6501  MISS %:    78.3499   MPKI: 2.72024
L2C LOAD      SPEC        ACCESS:   16267340  HIT:    3194697  MISS:   13072643  HIT %:    19.6387  MISS %:    80.3613   MPKI: 65.3632
L2C RFO       NON_SPEC    ACCESS:      29690  HIT:        968  MISS:      28722  HIT %:    3.26036  MISS %:    96.7396   MPKI: 0.14361
L2C PREFETCH  NON_SPEC    ACCESS:   18014457  HIT:   15627068  MISS:    2387389  HIT %:    86.7474  MISS %:    13.2526   MPKI: 11.9369
L2C WRITEBACK NON_SPEC    ACCESS:     239165  HIT:     238996  MISS:        169  HIT %:    99.9293  MISS %:  0.0706625   MPKI: 0.000845
L2C CLEAN_EVICTION NON_SPEC    ACCESS:   12905121  HIT:      29595  MISS:   12875526  HIT %:   0.229328  MISS %:    99.7707   MPKI: 64.3776
L2C COMMIT LOAD NON_SPEC    ACCESS:     301887  HIT:     105566  MISS:     196321  HIT %:    34.9687  MISS %:    65.0313   MPKI: 0.981605
L2C LOAD TRANSLATION NON_SPEC    ACCESS:   10576958  HIT:   10450042  MISS:     126916  HIT %:    98.8001  MISS %:    1.19993   MPKI: 0.63458
L2C TRANSLATION FROM L1D PREFETCHER NON_SPEC    ACCESS:    4178525  HIT:    4165275  MISS:      13250  HIT %:    99.6829  MISS %:   0.317098   MPKI: 0.06625
L2C PREFETCH  REQUESTED:          0  ISSUED:          0  USEFUL:     258808  USELESS:    2141684
L2C USEFUL LOAD PREFETCHES:     258808 PREFETCH ISSUED TO LOWER LEVEL:    2428600  ACCURACY: 10.6567
L2C TIMELY PREFETCHES:     258808 LATE PREFETCHES: 41211 DROPPED PREFETCHES: 0
L2C COMMIT LATE PREFETCHES: 0 MISSED OPPORTUNITY: 0 LATE IN PQ: 0 UNCOVERED: 0
L2C COMMIT LATE MSHR PREFETCHES: 0
L2C MPKI TOTAL: 68.0835 MSHR LATE: 0.206055 PQ LATE: 0 COMMIT LATE: 0 MISSED OPPORTUNITY: 0 UNCOVERED: 0
L2C PREFETCHES SAME FILL-ORIGIN LEVEL: 1773620 DIFFERENT FILL-ORIGIN LEVEL: 0
L2C AVERAGE MISS LATENCY: 71.3658 cycles
L2C AVERAGE MISS LATENCY LOAD: 109.764 cycles
L2C AVERAGE MISS LATENCY PREFETCH: 233.414 cycles
L2C AVERAGE MSHR OCCUPANCY: 1.83412
L2C MSHR FULL: 4.3744e-05
L2C RQ	ACCESS:   32048930	FORWARD:          0	MERGED:          0	TO_CACHE:   32048783
L2C WQ	ACCESS:   13144289	FORWARD:        147	MERGED:          0	TO_CACHE:   13144289
L2C PQ	ACCESS:   18302439	FORWARD:          0	MERGED:       1387	TO_CACHE:   18301052

L2C Instructions Evicting Data 0
L2C Translations Evicting Data 139872
L2C Data Evicting Data 3126061
L2C Instructions Evicting Instructions 0
L2C Translations Evicting Instructions 0
L2C Data Evicting Instructions 0
L2C Instructions Evicting Translations 0
L2C Translations Evicting Translations 294
L2C Data Evicting Translations 30420
L2C Dense regions hint from L2: 0
PSCL5 SPEC fills:          0  NON-SPEC fills:          0
PSCL5 Test counter :          0
PSCL5 Leapfrog:          0
PSCL5 MSHR merge:          0
PSCL5 TOTAL     ACCESS:          0  HIT:          0  MISS:          0  HIT %:       -nan  MISS %:       -nan   MPKI: 0
PSCL5 PREFETCH  REQUESTED:          0  ISSUED:          0  USEFUL:          0  USELESS:          0
PSCL5 USEFUL LOAD PREFETCHES:          0 PREFETCH ISSUED TO LOWER LEVEL:          0  ACCURACY: -nan
PSCL5 TIMELY PREFETCHES:          0 LATE PREFETCHES: 0 DROPPED PREFETCHES: 0
PSCL5 COMMIT LATE PREFETCHES: 0 MISSED OPPORTUNITY: 0 LATE IN PQ: 0 UNCOVERED: 0
PSCL5 COMMIT LATE MSHR PREFETCHES: 0
PSCL5 MPKI TOTAL: 0 MSHR LATE: 0 PQ LATE: 0 COMMIT LATE: 0 MISSED OPPORTUNITY: 0 UNCOVERED: 0
PSCL5 PREFETCHES SAME FILL-ORIGIN LEVEL: 0 DIFFERENT FILL-ORIGIN LEVEL: 0

PSCL4 SPEC fills:          0  NON-SPEC fills:          0
PSCL4 Test counter :          0
PSCL4 Leapfrog:          0
PSCL4 MSHR merge:          0
PSCL4 TOTAL     ACCESS:          0  HIT:          0  MISS:          0  HIT %:       -nan  MISS %:       -nan   MPKI: 0
PSCL4 PREFETCH  REQUESTED:          0  ISSUED:          0  USEFUL:          0  USELESS:          0
PSCL4 USEFUL LOAD PREFETCHES:          0 PREFETCH ISSUED TO LOWER LEVEL:          0  ACCURACY: -nan
PSCL4 TIMELY PREFETCHES:          0 LATE PREFETCHES: 0 DROPPED PREFETCHES: 0
PSCL4 COMMIT LATE PREFETCHES: 0 MISSED OPPORTUNITY: 0 LATE IN PQ: 0 UNCOVERED: 0
PSCL4 COMMIT LATE MSHR PREFETCHES: 0
PSCL4 MPKI TOTAL: 0 MSHR LATE: 0 PQ LATE: 0 COMMIT LATE: 0 MISSED OPPORTUNITY: 0 UNCOVERED: 0
PSCL4 PREFETCHES SAME FILL-ORIGIN LEVEL: 0 DIFFERENT FILL-ORIGIN LEVEL: 0

PSCL3 SPEC fills:          0  NON-SPEC fills:          0
PSCL3 Test counter :          0
PSCL3 Leapfrog:          0
PSCL3 MSHR merge:          0
PSCL3 TOTAL     ACCESS:          0  HIT:          0  MISS:          0  HIT %:       -nan  MISS %:       -nan   MPKI: 0
PSCL3 PREFETCH  REQUESTED:          0  ISSUED:          0  USEFUL:          0  USELESS:          0
PSCL3 USEFUL LOAD PREFETCHES:          0 PREFETCH ISSUED TO LOWER LEVEL:          0  ACCURACY: -nan
PSCL3 TIMELY PREFETCHES:          0 LATE PREFETCHES: 0 DROPPED PREFETCHES: 0
PSCL3 COMMIT LATE PREFETCHES: 0 MISSED OPPORTUNITY: 0 LATE IN PQ: 0 UNCOVERED: 0
PSCL3 COMMIT LATE MSHR PREFETCHES: 0
PSCL3 MPKI TOTAL: 0 MSHR LATE: 0 PQ LATE: 0 COMMIT LATE: 0 MISSED OPPORTUNITY: 0 UNCOVERED: 0
PSCL3 PREFETCHES SAME FILL-ORIGIN LEVEL: 0 DIFFERENT FILL-ORIGIN LEVEL: 0

PSCL2 SPEC fills:          0  NON-SPEC fills:          0
PSCL2 Test counter :          0
PSCL2 Leapfrog:          0
PSCL2 MSHR merge:          0
PSCL2 TOTAL     ACCESS:          0  HIT:          0  MISS:          0  HIT %:       -nan  MISS %:       -nan   MPKI: 0
PSCL2 PREFETCH  REQUESTED:          0  ISSUED:          0  USEFUL:          0  USELESS:          0
PSCL2 USEFUL LOAD PREFETCHES:          0 PREFETCH ISSUED TO LOWER LEVEL:          0  ACCURACY: -nan
PSCL2 TIMELY PREFETCHES:          0 LATE PREFETCHES: 0 DROPPED PREFETCHES: 0
PSCL2 COMMIT LATE PREFETCHES: 0 MISSED OPPORTUNITY: 0 LATE IN PQ: 0 UNCOVERED: 0
PSCL2 COMMIT LATE MSHR PREFETCHES: 0
PSCL2 MPKI TOTAL: 0 MSHR LATE: 0 PQ LATE: 0 COMMIT LATE: 0 MISSED OPPORTUNITY: 0 UNCOVERED: 0
PSCL2 PREFETCHES SAME FILL-ORIGIN LEVEL: 0 DIFFERENT FILL-ORIGIN LEVEL: 0

LLC SPEC fills:          0  NON-SPEC fills:     317309
LLC Test counter :          0
LLC Leapfrog:          0
LLC MSHR merge:          0
LLC TOTAL     ACCESS:   29495449  HIT:   12636765  MISS:   16858684  HIT %:    42.8431  MISS %:    57.1569   MPKI: 84.2934
LLC LOAD      TOTAL       ACCESS:   13575404  HIT:    6457563  MISS:    7117841  HIT %:    47.5681  MISS %:    52.4319   MPKI: 35.5892
LLC LOAD      NON_SPEC    ACCESS:     543550  HIT:     226241  MISS:     317309  HIT %:    41.6228  MISS %:    58.3772   MPKI: 1.58655
LLC LOAD      SPEC        ACCESS:   13031854  HIT:    6231322  MISS:    6800532  HIT %:    47.8161  MISS %:    52.1839   MPKI: 34.0027
LLC RFO       NON_SPEC    ACCESS:      28722  HIT:        558  MISS:      28164  HIT %:    1.94276  MISS %:    98.0572   MPKI: 0.14082
LLC PREFETCH  NON_SPEC    ACCESS:    2428600  HIT:     272723  MISS:    2155877  HIT %:    11.2296  MISS %:    88.7704   MPKI: 10.7794
LLC WRITEBACK NON_SPEC    ACCESS:     232322  HIT:     232302  MISS:         20  HIT %:    99.9914  MISS %: 0.00860874   MPKI: 0.0001
LLC CLEAN_EVICTION NON_SPEC    ACCESS:   12894070  HIT:    5405912  MISS:    7488158  HIT %:    41.9256  MISS %:    58.0744   MPKI: 37.4408
LLC COMMIT LOAD NON_SPEC    ACCESS:     196165  HIT:     170085  MISS:      26080  HIT %:    86.7051  MISS %:    13.2949   MPKI: 0.1304
LLC LOAD TRANSLATION NON_SPEC    ACCESS:     126916  HIT:      91111  MISS:      35805  HIT %:    71.7884  MISS %:    28.2116   MPKI: 0.179025
LLC TRANSLATION FROM L1D PREFETCHER NON_SPEC    ACCESS:      13250  HIT:       6511  MISS:       6739  HIT %:    49.1396  MISS %:    50.8604   MPKI: 0.033695
LLC PREFETCH  REQUESTED:          0  ISSUED:          0  USEFUL:     138222  USELESS:    2023751
LLC USEFUL LOAD PREFETCHES:     138222 PREFETCH ISSUED TO LOWER LEVEL:    2155877  ACCURACY: 6.4114
LLC TIMELY PREFETCHES:     138222 LATE PREFETCHES: 0 DROPPED PREFETCHES: 0
LLC COMMIT LATE PREFETCHES: 0 MISSED OPPORTUNITY: 0 LATE IN PQ: 0 UNCOVERED: 0
LLC COMMIT LATE MSHR PREFETCHES: 0
LLC MPKI TOTAL: 35.5892 MSHR LATE: 0 PQ LATE: 0 COMMIT LATE: 0 MISSED OPPORTUNITY: 0 UNCOVERED: 0
LLC PREFETCHES SAME FILL-ORIGIN LEVEL: 0 DIFFERENT FILL-ORIGIN LEVEL: 0
LLC AVERAGE MISS LATENCY: 101.938 cycles
LLC AVERAGE MISS LATENCY LOAD: 167.757 cycles
LLC AVERAGE MISS LATENCY PREFETCH: 232.038 cycles
LLC AVERAGE MSHR OCCUPANCY: 1.44207
LLC MSHR FULL: 0
LLC RQ	ACCESS:   13940690	FORWARD:          0	MERGED:          0	TO_CACHE:   13940457
LLC WQ	ACCESS:   13126394	FORWARD:        233	MERGED:          0	TO_CACHE:   13126394
LLC PQ	ACCESS:    2428600	FORWARD:          0	MERGED:          0	TO_CACHE:    2428600

LLC Dense regions hint to LLC: 0

RAW hits: 163330
Loads Generated: 48002947
Loads sent to L1D: 47839614
Stores Generated: 6628505
Stores sent to L1D: 6628508
Major fault: 0 Minor fault: 32429
Allocated PAGES: 32429
Total Load insts: 59404183
Total Non-spec loads: 5280602
Percentage of speculative loads: 91.1107

LeapFrogging counter: 387140
Commit hits: 28213265 miss: 14616387
Commit hit %: 65.8732 miss %: 34.1268
Commits not translated: 0
Loads retired: 16971005
Stores retired: 6628508
Cache fills: 16971007
L1D response latency: 99.5161 cycles
Load retirement latency: 224.155 cycles
OOO test counter: 0
Discarded buffer inserts: 28213265 hits: 23190 hit %: 0.0821954
Filter prediction accuracy: 99.9186
LATENCY_FILL: 99.3103 16946495

DRAM Statistics
 CHANNEL 0
 RQ ROW_BUFFER_HIT:     884576  ROW_BUFFER_MISS:    8483019
 DBUS_CONGESTED:       2582
 WQ ROW_BUFFER_HIT:    4107541  ROW_BUFFER_MISS:    3769022  FULL:      25759

 AVG_CONGESTED_CYCLE: 5
 All warmup complete: 2
Channel 0 Bank busy for read cycles: 0
Channel 0 Bank busy for write cycles: 0
Channel 0
Rank 0
0banks busy for read cycles: 4583214
0banks busy for write cycles: 14667
1banks busy for read cycles: 327346385
1banks busy for write cycles: 5681386
2banks busy for read cycles: 209208251
2banks busy for write cycles: 8578619
3banks busy for read cycles: 91302696
3banks busy for write cycles: 13244593
4banks busy for read cycles: 35126759
4banks busy for write cycles: 20328443
5banks busy for read cycles: 12721011
5banks busy for write cycles: 31131089
6banks busy for read cycles: 5489826
6banks busy for write cycles: 49791218
7banks busy for read cycles: 3354942
7banks busy for write cycles: 84191804
8banks busy for read cycles: 5612848
8banks busy for write cycles: 118243059

CPU 0 Branch Prediction Accuracy: 92.9184% MPKI: 15.3683 Average ROB Occupancy at Mispredict: 49.0924
Branch types
NOT_BRANCH: 156596356 78.2982%
BRANCH_DIRECT_JUMP: 271551 0.135775%
BRANCH_INDIRECT: 0 0%
BRANCH_CONDITIONAL: 43131919 21.566%
BRANCH_DIRECT_CALL: 14 7e-06%
BRANCH_INDIRECT_CALL: 0 0%
BRANCH_RETURN: 14 7e-06%
BRANCH_OTHER: 0 0%

DRAM PAGES: 1048576
Allocated PAGES: 32429
