
*** ChampSim Multicore Out-of-Order Simulator ***

Warmup Instructions: 50000000
Simulation Instructions: 200000000
Number of CPUs: 1
LLC sets: 2048
LLC ways: 16
L0D sets: 16
L0D ways: 2
ROB size: 352
LQ size: 128
SQ size: 72
Secure Berti: OFF
Berti: OFF
Berti Fill: OFF
On commit prefetching: OFF
Hit-based filter: ON
Time-guarding: ON
Free-slotting: ON
Leap-frogging: ON
Train prefetcher on L0D bypass: OFF
No translation penalty for prefetchers: OFF
Prefetch to L0D only: OFF
Prefetch to L1D only: OFF
Clean evictions: ON
Commit loads: ON
Commit write: ON
Fill commit loads to L2C, LLC: ON
DRAM IO FREQUENCY: 6400
ROB SIZE: 352
Off-chip DRAM Size: 4096 MB Channels: 1 Width: 64-bit Data Rate: 6400 MT/s
CPU 0 runs /home/sumon/secure_berti/GhostMinion/../../traces/gap/bfs-10.trace.gz
.gz
BTB has LRU replacement policy
ITLB has LRU replacement policy
DTLB has LRU replacement policy
STLB has LRU replacement policy
L1I has LRU replacement policy
L0D has LRU replacement policy
History Sets: 8
History Ways: 16
BERTI Size: 16
BERTI Stride Size: 16
L1D has LRU replacement policy
L2C has LRU replacement policy
LLC has LRU replacement policy
Heartbeat CPU 0 instructions: 10000002 cycles: 2972907 heartbeat IPC: 3.36371 cumulative IPC: 3.36371 (Simulation time: 0 hr 0 min 23 sec) 
Heartbeat CPU 0 instructions: 20000000 cycles: 6065358 heartbeat IPC: 3.23368 cumulative IPC: 3.29741 (Simulation time: 0 hr 0 min 55 sec) 
Heartbeat CPU 0 instructions: 30000003 cycles: 9148863 heartbeat IPC: 3.24306 cumulative IPC: 3.2791 (Simulation time: 0 hr 1 min 28 sec) 
Heartbeat CPU 0 instructions: 40000001 cycles: 12231039 heartbeat IPC: 3.24446 cumulative IPC: 3.27037 (Simulation time: 0 hr 2 min 0 sec) 
Heartbeat CPU 0 instructions: 50000000 cycles: 15313291 heartbeat IPC: 3.24438 cumulative IPC: 3.26514 (Simulation time: 0 hr 2 min 32 sec) 

Warmup complete CPU 0 instructions: 50000004 cycles: 15313292 (Simulation time: 0 hr 2 min 32 sec) 

Heartbeat CPU 0 instructions: 60000001 cycles: 51430266 heartbeat IPC: 0.276878 cumulative IPC: 0.276878 (Simulation time: 0 hr 3 min 17 sec) 
Heartbeat CPU 0 instructions: 70000003 cycles: 93105074 heartbeat IPC: 0.239953 cumulative IPC: 0.257097 (Simulation time: 0 hr 4 min 5 sec) 
Heartbeat CPU 0 instructions: 80000002 cycles: 122642896 heartbeat IPC: 0.338549 cumulative IPC: 0.279513 (Simulation time: 0 hr 4 min 46 sec) 
Heartbeat CPU 0 instructions: 90000000 cycles: 136816706 heartbeat IPC: 0.705526 cumulative IPC: 0.329209 (Simulation time: 0 hr 5 min 18 sec) 
Heartbeat CPU 0 instructions: 100000000 cycles: 154733596 heartbeat IPC: 0.558133 cumulative IPC: 0.358628 (Simulation time: 0 hr 5 min 53 sec) 
Heartbeat CPU 0 instructions: 110000000 cycles: 181121744 heartbeat IPC: 0.378958 cumulative IPC: 0.361863 (Simulation time: 0 hr 6 min 33 sec) 
Heartbeat CPU 0 instructions: 120000000 cycles: 218773307 heartbeat IPC: 0.265593 cumulative IPC: 0.344048 (Simulation time: 0 hr 7 min 16 sec) 
Heartbeat CPU 0 instructions: 130000002 cycles: 256287741 heartbeat IPC: 0.266564 cumulative IPC: 0.331985 (Simulation time: 0 hr 7 min 59 sec) 
Heartbeat CPU 0 instructions: 140000001 cycles: 298039590 heartbeat IPC: 0.23951 cumulative IPC: 0.318329 (Simulation time: 0 hr 8 min 49 sec) 
Heartbeat CPU 0 instructions: 150000003 cycles: 343289748 heartbeat IPC: 0.220994 cumulative IPC: 0.3049 (Simulation time: 0 hr 9 min 49 sec) 
Heartbeat CPU 0 instructions: 160000001 cycles: 367010007 heartbeat IPC: 0.42158 cumulative IPC: 0.312769 (Simulation time: 0 hr 10 min 37 sec) 
Heartbeat CPU 0 instructions: 170000001 cycles: 380686210 heartbeat IPC: 0.731197 cumulative IPC: 0.328432 (Simulation time: 0 hr 11 min 16 sec) 
Heartbeat CPU 0 instructions: 180000000 cycles: 400341103 heartbeat IPC: 0.508779 cumulative IPC: 0.337638 (Simulation time: 0 hr 12 min 3 sec) 
Heartbeat CPU 0 instructions: 190000000 cycles: 430318785 heartbeat IPC: 0.333582 cumulative IPC: 0.337345 (Simulation time: 0 hr 12 min 55 sec) 
Heartbeat CPU 0 instructions: 200000000 cycles: 467784867 heartbeat IPC: 0.266908 cumulative IPC: 0.331513 (Simulation time: 0 hr 13 min 50 sec) 
Heartbeat CPU 0 instructions: 210000002 cycles: 505131640 heartbeat IPC: 0.267761 cumulative IPC: 0.326652 (Simulation time: 0 hr 14 min 45 sec) 
Heartbeat CPU 0 instructions: 220000000 cycles: 549559166 heartbeat IPC: 0.225086 cumulative IPC: 0.318206 (Simulation time: 0 hr 15 min 44 sec) 
Heartbeat CPU 0 instructions: 230000000 cycles: 589151834 heartbeat IPC: 0.252572 cumulative IPC: 0.313677 (Simulation time: 0 hr 16 min 38 sec) 
Heartbeat CPU 0 instructions: 240000002 cycles: 609566452 heartbeat IPC: 0.489845 cumulative IPC: 0.319729 (Simulation time: 0 hr 17 min 21 sec) 
Heartbeat CPU 0 instructions: 250000001 cycles: 623666282 heartbeat IPC: 0.709228 cumulative IPC: 0.328756 (Simulation time: 0 hr 17 min 59 sec) 
Finished CPU 0 instructions: 200000002 cycles: 608352992 cumulative IPC: 0.328756 (Simulation time: 0 hr 17 min 59 sec) 
 Instruction ID: 250000030

ChampSim completed all CPUs

Region of Interest Statistics

CPU 0 cumulative IPC: 0.328756 instructions: 200000002 cycles: 608352992
ITLB SPEC fills:          0  NON-SPEC fills:          0
ITLB Test counter :          0
ITLB Leapfrog:          0
ITLB MSHR merge:          0
ITLB TOTAL     ACCESS:   33483392  HIT:   33483392  MISS:          0  HIT %:        100  MISS %:          0   MPKI: 0
ITLB LOAD TRANSLATION NON_SPEC    ACCESS:   33483392  HIT:   33483392  MISS:          0  HIT %:        100  MISS %:          0   MPKI: 0
ITLB PREFETCH  REQUESTED:          0  ISSUED:          0  USEFUL:          0  USELESS:          0
ITLB USEFUL LOAD PREFETCHES:          0 PREFETCH ISSUED TO LOWER LEVEL:          0  ACCURACY: -nan
ITLB TIMELY PREFETCHES:          0 LATE PREFETCHES: 0 DROPPED PREFETCHES: 0
ITLB COMMIT LATE PREFETCHES: 0 MISSED OPPORTUNITY: 0 LATE IN PQ: 0 UNCOVERED: 0
ITLB COMMIT LATE MSHR PREFETCHES: 0
ITLB MPKI TOTAL: 0 MSHR LATE: 0 PQ LATE: 0 COMMIT LATE: 0 MISSED OPPORTUNITY: 0 UNCOVERED: 0
ITLB PREFETCHES SAME FILL-ORIGIN LEVEL: 0 DIFFERENT FILL-ORIGIN LEVEL: 0
ITLB AVERAGE MISS LATENCY: -nan cycles
ITLB AVERAGE MISS LATENCY LOAD: -nan cycles
ITLB AVERAGE MISS LATENCY PREFETCH: -nan cycles
ITLB AVERAGE MSHR OCCUPANCY: 0
ITLB MSHR FULL: 0
ITLB RQ	ACCESS:   42010786	FORWARD:          0	MERGED:    8527395	TO_CACHE:   33483391

DTLB SPEC fills:          0  NON-SPEC fills:          0
DTLB Test counter :          0
DTLB Leapfrog:          0
DTLB MSHR merge:          0
DTLB TOTAL     ACCESS:   43850855  HIT:   43660717  MISS:     190138  HIT %:    99.5664  MISS %:   0.433602   MPKI: 0.95069
DTLB LOAD TRANSLATION NON_SPEC    ACCESS:   43850855  HIT:   43660717  MISS:     190138  HIT %:    99.5664  MISS %:   0.433602   MPKI: 0.95069
DTLB PREFETCH  REQUESTED:          0  ISSUED:          0  USEFUL:          0  USELESS:          0
DTLB USEFUL LOAD PREFETCHES:          0 PREFETCH ISSUED TO LOWER LEVEL:          0  ACCURACY: -nan
DTLB TIMELY PREFETCHES:          0 LATE PREFETCHES: 0 DROPPED PREFETCHES: 0
DTLB COMMIT LATE PREFETCHES: 0 MISSED OPPORTUNITY: 0 LATE IN PQ: 0 UNCOVERED: 0
DTLB COMMIT LATE MSHR PREFETCHES: 0
DTLB MPKI TOTAL: 0 MSHR LATE: 0 PQ LATE: 0 COMMIT LATE: 0 MISSED OPPORTUNITY: 0 UNCOVERED: 0
DTLB PREFETCHES SAME FILL-ORIGIN LEVEL: 0 DIFFERENT FILL-ORIGIN LEVEL: 0
DTLB AVERAGE MISS LATENCY: 81.7018 cycles
DTLB AVERAGE MISS LATENCY LOAD: -nan cycles
DTLB AVERAGE MISS LATENCY PREFETCH: -nan cycles
DTLB AVERAGE MSHR OCCUPANCY: 0.00795758
DTLB MSHR FULL: 0
DTLB RQ	ACCESS:   46759089	FORWARD:          0	MERGED:    2896986	TO_CACHE:   43862103

STLB SPEC fills:          0  NON-SPEC fills:          0
STLB Test counter :          0
STLB Leapfrog:          0
STLB MSHR merge:          0
STLB TOTAL     ACCESS:   20839967  HIT:   20672071  MISS:     167896  HIT %:    99.1944  MISS %:   0.805644   MPKI: 0.83948
STLB LOAD TRANSLATION NON_SPEC    ACCESS:     190138  HIT:      89838  MISS:     100300  HIT %:    47.2488  MISS %:    52.7512   MPKI: 0.5015
STLB TRANSLATION FROM L1D PREFETCHER NON_SPEC    ACCESS:   20649829  HIT:   20582233  MISS:      67596  HIT %:    99.6727  MISS %:   0.327344   MPKI: 0.33798
STLB PREFETCH  REQUESTED:          0  ISSUED:          0  USEFUL:      67144  USELESS:        456
STLB USEFUL LOAD PREFETCHES:      67144 PREFETCH ISSUED TO LOWER LEVEL:          0  ACCURACY: inf
STLB TIMELY PREFETCHES:      67144 LATE PREFETCHES: 652 DROPPED PREFETCHES: 26041
STLB COMMIT LATE PREFETCHES: 0 MISSED OPPORTUNITY: 0 LATE IN PQ: 0 UNCOVERED: 0
STLB COMMIT LATE MSHR PREFETCHES: 0
STLB MPKI TOTAL: 0 MSHR LATE: 0.00326 PQ LATE: 0 COMMIT LATE: 0 MISSED OPPORTUNITY: 0 UNCOVERED: 0
STLB PREFETCHES SAME FILL-ORIGIN LEVEL: 0 DIFFERENT FILL-ORIGIN LEVEL: 0
STLB AVERAGE MISS LATENCY: 118.736 cycles
STLB AVERAGE MISS LATENCY LOAD: -nan cycles
STLB AVERAGE MISS LATENCY PREFETCH: -nan cycles
STLB AVERAGE MSHR OCCUPANCY: 0.0112552
STLB MSHR FULL: 0
STLB RQ	ACCESS:  108067041	FORWARD:          0	MERGED:   87197254	TO_CACHE:   20869787

STLB Hit, L1D data hit: 0
STLB Hit, L2C data hit: 0
STLB Hit, LLC data hit: 0
STLB Hit, LLC data miss: 0
STLB STLB hints to L2: 0
L0D SPEC fills:   20169719  NON-SPEC fills:          0
L0D TimeGuard Request with older TS:      34049 Restricted eviction:       3720 read:        148
L0D Test counter :          0
L0D Leapfrog:          0
L0D MSHR merge:     291459
L0D TOTAL     ACCESS:   40925056  HIT:    3450177  MISS:   37474879  HIT %:    8.43048  MISS %:    91.5695   MPKI: 187.374
L0D LOAD      TOTAL       ACCESS:   40925056  HIT:    3450177  MISS:   37474879  HIT %:    8.43048  MISS %:    91.5695   MPKI: 187.374
L0D LOAD      NON_SPEC    ACCESS:   17301668  HIT:        228  MISS:   17301440  HIT %: 0.00131779  MISS %:    99.9987   MPKI: 86.5072
L0D LOAD      SPEC        ACCESS:   23623388  HIT:    3449949  MISS:   20173439  HIT %:     14.604  MISS %:     85.396   MPKI: 100.867
L0D PREFETCH  REQUESTED:          0  ISSUED:          0  USEFUL:          0  USELESS:          0
L0D USEFUL LOAD PREFETCHES:          0 PREFETCH ISSUED TO LOWER LEVEL:          0  ACCURACY: -nan
L0D TIMELY PREFETCHES:          0 LATE PREFETCHES: 0 DROPPED PREFETCHES: 0
L0D COMMIT LATE PREFETCHES: 0 MISSED OPPORTUNITY: 0 LATE IN PQ: 0 UNCOVERED: 0
L0D COMMIT LATE MSHR PREFETCHES: 0
L0D MPKI TOTAL: 188.832 MSHR LATE: 0 PQ LATE: 0 COMMIT LATE: 0 MISSED OPPORTUNITY: 0 UNCOVERED: 0
L0D PREFETCHES SAME FILL-ORIGIN LEVEL: 0 DIFFERENT FILL-ORIGIN LEVEL: 0
L0D AVERAGE MISS LATENCY: 9.20436 cycles
L0D AVERAGE MISS LATENCY LOAD: 9.20436 cycles
L0D AVERAGE MISS LATENCY PREFETCH: -nan cycles
L0D AVERAGE MSHR OCCUPANCY: 0.436413
L0D MSHR FULL: 0.00087181
L0D RQ	ACCESS:   49165958	FORWARD:          0	MERGED:    7949444	TO_CACHE:   41216514
L0D WQ	ACCESS:    5542575	FORWARD:          0	MERGED:          0	TO_CACHE:    5542575

L1D SPEC fills:          0  NON-SPEC fills:    2212085
L1D Test counter :          0
L1D Leapfrog:          0
L1D MSHR merge:       1094
L1D TOTAL     ACCESS:  122602762  HIT:  116189382  MISS:    6413380  HIT %:     94.769  MISS %:    5.23102   MPKI: 32.0669
L1D LOAD      TOTAL       ACCESS:   37474821  HIT:   34184681  MISS:    3290140  HIT %:    91.2204  MISS %:     8.7796   MPKI: 16.4507
L1D LOAD      NON_SPEC    ACCESS:   17301429  HIT:   15089344  MISS:    2212085  HIT %:    87.2144  MISS %:    12.7856   MPKI: 11.0604
L1D LOAD      SPEC        ACCESS:   20173392  HIT:   19095337  MISS:    1078055  HIT %:    94.6561  MISS %:    5.34395   MPKI: 5.39027
L1D RFO       NON_SPEC    ACCESS:    4443115  HIT:    4287857  MISS:     155258  HIT %:    96.5056  MISS %:    3.49435   MPKI: 0.77629
L1D PREFETCH  NON_SPEC    ACCESS:   79068753  HIT:   77177736  MISS:    1891017  HIT %:    97.6084  MISS %:    2.39161   MPKI: 9.45508
L1D COMMIT LOAD NON_SPEC    ACCESS:     515439  HIT:     512969  MISS:       2470  HIT %:    99.5208  MISS %:   0.479203   MPKI: 0.01235
L1D COMMIT WRITE NON_SPEC    ACCESS:    1100634  HIT:      26139  MISS:    1074495  HIT %:     2.3749  MISS %:    97.6251   MPKI: 5.37247
L1D PREFETCH  REQUESTED:  145515062  ISSUED:  136548732  USEFUL:    1853219  USELESS:      37806
L1D USEFUL LOAD PREFETCHES:    1853219 PREFETCH ISSUED TO LOWER LEVEL:   27647126  ACCURACY: 6.70312
L1D TIMELY PREFETCHES:    1853219 LATE PREFETCHES: 1040 DROPPED PREFETCHES: 50397
L1D COMMIT LATE PREFETCHES: 0 MISSED OPPORTUNITY: 0 LATE IN PQ: 0 UNCOVERED: 0
L1D COMMIT LATE MSHR PREFETCHES: 0
L1D MPKI TOTAL: 16.451 MSHR LATE: 0.0052 PQ LATE: 0 COMMIT LATE: 0 MISSED OPPORTUNITY: 0 UNCOVERED: 0
L1D PREFETCHES SAME FILL-ORIGIN LEVEL: 1892057 DIFFERENT FILL-ORIGIN LEVEL: 25755069
L1D AVERAGE MISS LATENCY: 61.2658 cycles
L1D AVERAGE MISS LATENCY LOAD: 47.0706 cycles
L1D AVERAGE MISS LATENCY PREFETCH: 111.516 cycles
L1D AVERAGE MSHR OCCUPANCY: 0.475631
L1D MSHR FULL: 0.000822199
L1D RQ	ACCESS:   38223224	FORWARD:          0	MERGED:     216899	TO_CACHE:   37990427
L1D WQ	ACCESS:    6630225	FORWARD:      15898	MERGED:      31736	TO_CACHE:    6598489
L1D PQ	ACCESS:  136548732	FORWARD:          0	MERGED:   28671829	TO_CACHE:  107876903

L1D UNIQUE REGIONS ACCESSED: 0
L1D REGIONS CONFLICTS: 0
L1D Cross Page Prefetch Requests: 12064277
L1D Same Page Prefetch Requests: 131862632
L1D ROI Sum of L1D PQ occupancy: 1636427772
L1D PREFETCHES PUSHED FROM L2C: 0
L1I SPEC fills:          0  NON-SPEC fills:          0
L1I Test counter :          0
L1I Leapfrog:          0
L1I MSHR merge:          1
L1I TOTAL     ACCESS:   42010785  HIT:   42010770  MISS:         15  HIT %:        100  MISS %: 3.57051e-05   MPKI: 7.5e-05
L1I LOAD      TOTAL       ACCESS:   42010785  HIT:   42010770  MISS:         15  HIT %:        100  MISS %: 3.57051e-05   MPKI: 7.5e-05
L1I LOAD      NON_SPEC    ACCESS:   42010785  HIT:   42010770  MISS:         15  HIT %:        100  MISS %: 3.57051e-05   MPKI: 7.5e-05
L1I PREFETCH  REQUESTED:          0  ISSUED:          0  USEFUL:          0  USELESS:          0
L1I USEFUL LOAD PREFETCHES:          0 PREFETCH ISSUED TO LOWER LEVEL:          0  ACCURACY: -nan
L1I TIMELY PREFETCHES:          0 LATE PREFETCHES: 0 DROPPED PREFETCHES: 0
L1I COMMIT LATE PREFETCHES: 0 MISSED OPPORTUNITY: 0 LATE IN PQ: 0 UNCOVERED: 0
L1I COMMIT LATE MSHR PREFETCHES: 0
L1I MPKI TOTAL: 8e-05 MSHR LATE: 0 PQ LATE: 0 COMMIT LATE: 0 MISSED OPPORTUNITY: 0 UNCOVERED: 0
L1I PREFETCHES SAME FILL-ORIGIN LEVEL: 0 DIFFERENT FILL-ORIGIN LEVEL: 0
L1I AVERAGE MISS LATENCY: 206.8 cycles
L1I AVERAGE MISS LATENCY LOAD: 206.8 cycles
L1I AVERAGE MISS LATENCY PREFETCH: -nan cycles
L1I AVERAGE MSHR OCCUPANCY: 1.90427e-07
L1I MSHR FULL: 0
L1I RQ	ACCESS:   65235487	FORWARD:          0	MERGED:   23224701	TO_CACHE:   42010786

BTB SPEC fills:          0  NON-SPEC fills:          0
BTB Test counter :          0
BTB Leapfrog:          0
BTB MSHR merge:          0
BTB TOTAL     ACCESS:   42321273  HIT:   42320954  MISS:        319  HIT %:    99.9992  MISS %: 0.000753758   MPKI: 0.001595
BTB BRANCH_DIRECT_JUMP	ACCESS:       5431  HIT:       5387  MISS:         44
BTB BRANCH_INDIRECT	ACCESS:          2  HIT:          1  MISS:          1
BTB BRANCH_CONDITIONAL	ACCESS:   42315328  HIT:   42315225  MISS:        103
BTB BRANCH_DIRECT_CALL	ACCESS:        250  HIT:        208  MISS:         42
BTB BRANCH_INDIRECT_CALL	ACCESS:          6  HIT:          3  MISS:          3
BTB BRANCH_RETURN	ACCESS:        256  HIT:        130  MISS:        126
BTB BRANCH_OTHER ACCESS:          0  HIT:          0  MISS:          0

L2C SPEC fills:          0  NON-SPEC fills:     748154
L2C Test counter :          0
L2C Leapfrog:          0
L2C MSHR merge:      37159
L2C TOTAL     ACCESS:   31308660  HIT:   26435521  MISS:    4873139  HIT %:    84.4352  MISS %:    15.5648   MPKI: 24.3657
L2C LOAD      TOTAL       ACCESS:    3289102  HIT:    2352323  MISS:     936779  HIT %:    71.5187  MISS %:    28.4813   MPKI: 4.68389
L2C LOAD      NON_SPEC    ACCESS:    2211512  HIT:    1463343  MISS:     748169  HIT %:    66.1693  MISS %:    33.8307   MPKI: 3.74084
L2C LOAD      SPEC        ACCESS:    1077590  HIT:     888980  MISS:     188610  HIT %:    82.4971  MISS %:    17.5029   MPKI: 0.94305
L2C RFO       NON_SPEC    ACCESS:     155258  HIT:       8662  MISS:     146596  HIT %:     5.5791  MISS %:    94.4209   MPKI: 0.73298
L2C PREFETCH  NON_SPEC    ACCESS:   26197092  HIT:   22628905  MISS:    3568187  HIT %:    86.3795  MISS %:    13.6205   MPKI: 17.8409
L2C WRITEBACK NON_SPEC    ACCESS:     496465  HIT:     496288  MISS:        177  HIT %:    99.9643  MISS %:  0.0356521   MPKI: 0.000885
L2C CLEAN_EVICTION NON_SPEC    ACCESS:     198083  HIT:      10179  MISS:     187904  HIT %:    5.13875  MISS %:    94.8612   MPKI: 0.93952
L2C COMMIT LOAD NON_SPEC    ACCESS:       2467  HIT:       1853  MISS:        614  HIT %:    75.1115  MISS %:    24.8885   MPKI: 0.00307
L2C LOAD TRANSLATION NON_SPEC    ACCESS:     498758  HIT:     475523  MISS:      23235  HIT %:    95.3414  MISS %:    4.65857   MPKI: 0.116175
L2C TRANSLATION FROM L1D PREFETCHER NON_SPEC    ACCESS:     471435  HIT:     461788  MISS:       9647  HIT %:    97.9537  MISS %:    2.04631   MPKI: 0.048235
L2C PREFETCH  REQUESTED:          0  ISSUED:          0  USEFUL:     700996  USELESS:    2872175
L2C USEFUL LOAD PREFETCHES:     700996 PREFETCH ISSUED TO LOWER LEVEL:    3605350  ACCURACY: 19.4432
L2C TIMELY PREFETCHES:     700996 LATE PREFETCHES: 37163 DROPPED PREFETCHES: 0
L2C COMMIT LATE PREFETCHES: 0 MISSED OPPORTUNITY: 0 LATE IN PQ: 0 UNCOVERED: 0
L2C COMMIT LATE MSHR PREFETCHES: 0
L2C MPKI TOTAL: 4.68389 MSHR LATE: 0.185815 PQ LATE: 0 COMMIT LATE: 0 MISSED OPPORTUNITY: 0 UNCOVERED: 0
L2C PREFETCHES SAME FILL-ORIGIN LEVEL: 2488818 DIFFERENT FILL-ORIGIN LEVEL: 0
L2C AVERAGE MISS LATENCY: 142.395 cycles
L2C AVERAGE MISS LATENCY LOAD: 117.437 cycles
L2C AVERAGE MISS LATENCY PREFETCH: 154.82 cycles
L2C AVERAGE MSHR OCCUPANCY: 1.14978
L2C MSHR FULL: 0
L2C RQ	ACCESS:    4417036	FORWARD:          0	MERGED:          0	TO_CACHE:    4417020
L2C WQ	ACCESS:     694548	FORWARD:         16	MERGED:          0	TO_CACHE:     694548
L2C PQ	ACCESS:   27647125	FORWARD:          0	MERGED:       1485	TO_CACHE:   27645640

L2C Instructions Evicting Data 14
L2C Translations Evicting Data 32435
L2C Data Evicting Data 4432745
L2C Instructions Evicting Instructions 0
L2C Translations Evicting Instructions 1
L2C Data Evicting Instructions 11
L2C Instructions Evicting Translations 1
L2C Translations Evicting Translations 446
L2C Data Evicting Translations 30795
L2C Dense regions hint from L2: 0
PSCL5 SPEC fills:          0  NON-SPEC fills:          0
PSCL5 Test counter :          0
PSCL5 Leapfrog:          0
PSCL5 MSHR merge:          0
PSCL5 TOTAL     ACCESS:          0  HIT:          0  MISS:          0  HIT %:       -nan  MISS %:       -nan   MPKI: 0
PSCL5 PREFETCH  REQUESTED:          0  ISSUED:          0  USEFUL:          0  USELESS:          0
PSCL5 USEFUL LOAD PREFETCHES:          0 PREFETCH ISSUED TO LOWER LEVEL:          0  ACCURACY: -nan
PSCL5 TIMELY PREFETCHES:          0 LATE PREFETCHES: 0 DROPPED PREFETCHES: 0
PSCL5 COMMIT LATE PREFETCHES: 0 MISSED OPPORTUNITY: 0 LATE IN PQ: 0 UNCOVERED: 0
PSCL5 COMMIT LATE MSHR PREFETCHES: 0
PSCL5 MPKI TOTAL: 0 MSHR LATE: 0 PQ LATE: 0 COMMIT LATE: 0 MISSED OPPORTUNITY: 0 UNCOVERED: 0
PSCL5 PREFETCHES SAME FILL-ORIGIN LEVEL: 0 DIFFERENT FILL-ORIGIN LEVEL: 0

PSCL4 SPEC fills:          0  NON-SPEC fills:          0
PSCL4 Test counter :          0
PSCL4 Leapfrog:          0
PSCL4 MSHR merge:          0
PSCL4 TOTAL     ACCESS:          0  HIT:          0  MISS:          0  HIT %:       -nan  MISS %:       -nan   MPKI: 0
PSCL4 PREFETCH  REQUESTED:          0  ISSUED:          0  USEFUL:          0  USELESS:          0
PSCL4 USEFUL LOAD PREFETCHES:          0 PREFETCH ISSUED TO LOWER LEVEL:          0  ACCURACY: -nan
PSCL4 TIMELY PREFETCHES:          0 LATE PREFETCHES: 0 DROPPED PREFETCHES: 0
PSCL4 COMMIT LATE PREFETCHES: 0 MISSED OPPORTUNITY: 0 LATE IN PQ: 0 UNCOVERED: 0
PSCL4 COMMIT LATE MSHR PREFETCHES: 0
PSCL4 MPKI TOTAL: 0 MSHR LATE: 0 PQ LATE: 0 COMMIT LATE: 0 MISSED OPPORTUNITY: 0 UNCOVERED: 0
PSCL4 PREFETCHES SAME FILL-ORIGIN LEVEL: 0 DIFFERENT FILL-ORIGIN LEVEL: 0

PSCL3 SPEC fills:          0  NON-SPEC fills:          0
PSCL3 Test counter :          0
PSCL3 Leapfrog:          0
PSCL3 MSHR merge:          0
PSCL3 TOTAL     ACCESS:          0  HIT:          0  MISS:          0  HIT %:       -nan  MISS %:       -nan   MPKI: 0
PSCL3 PREFETCH  REQUESTED:          0  ISSUED:          0  USEFUL:          0  USELESS:          0
PSCL3 USEFUL LOAD PREFETCHES:          0 PREFETCH ISSUED TO LOWER LEVEL:          0  ACCURACY: -nan
PSCL3 TIMELY PREFETCHES:          0 LATE PREFETCHES: 0 DROPPED PREFETCHES: 0
PSCL3 COMMIT LATE PREFETCHES: 0 MISSED OPPORTUNITY: 0 LATE IN PQ: 0 UNCOVERED: 0
PSCL3 COMMIT LATE MSHR PREFETCHES: 0
PSCL3 MPKI TOTAL: 0 MSHR LATE: 0 PQ LATE: 0 COMMIT LATE: 0 MISSED OPPORTUNITY: 0 UNCOVERED: 0
PSCL3 PREFETCHES SAME FILL-ORIGIN LEVEL: 0 DIFFERENT FILL-ORIGIN LEVEL: 0

PSCL2 SPEC fills:          0  NON-SPEC fills:          0
PSCL2 Test counter :          0
PSCL2 Leapfrog:          0
PSCL2 MSHR merge:          0
PSCL2 TOTAL     ACCESS:          0  HIT:          0  MISS:          0  HIT %:       -nan  MISS %:       -nan   MPKI: 0
PSCL2 PREFETCH  REQUESTED:          0  ISSUED:          0  USEFUL:          0  USELESS:          0
PSCL2 USEFUL LOAD PREFETCHES:          0 PREFETCH ISSUED TO LOWER LEVEL:          0  ACCURACY: -nan
PSCL2 TIMELY PREFETCHES:          0 LATE PREFETCHES: 0 DROPPED PREFETCHES: 0
PSCL2 COMMIT LATE PREFETCHES: 0 MISSED OPPORTUNITY: 0 LATE IN PQ: 0 UNCOVERED: 0
PSCL2 COMMIT LATE MSHR PREFETCHES: 0
PSCL2 MPKI TOTAL: 0 MSHR LATE: 0 PQ LATE: 0 COMMIT LATE: 0 MISSED OPPORTUNITY: 0 UNCOVERED: 0
PSCL2 PREFETCHES SAME FILL-ORIGIN LEVEL: 0 DIFFERENT FILL-ORIGIN LEVEL: 0

LLC SPEC fills:          0  NON-SPEC fills:     530642
LLC Test counter :          0
LLC Leapfrog:          0
LLC MSHR merge:          0
LLC TOTAL     ACCESS:    5378985  HIT:     943044  MISS:    4435941  HIT %:     17.532  MISS %:     82.468   MPKI: 22.1797
LLC LOAD      TOTAL       ACCESS:     899611  HIT:     312238  MISS:     587373  HIT %:    34.7081  MISS %:    65.2919   MPKI: 2.93686
LLC LOAD      NON_SPEC    ACCESS:     717901  HIT:     187244  MISS:     530657  HIT %:    26.0821  MISS %:    73.9179   MPKI: 2.65328
LLC LOAD      SPEC        ACCESS:     181710  HIT:     124994  MISS:      56716  HIT %:    68.7876  MISS %:    31.2124   MPKI: 0.28358
LLC RFO       NON_SPEC    ACCESS:     146596  HIT:       5185  MISS:     141411  HIT %:    3.53693  MISS %:    96.4631   MPKI: 0.707055
LLC PREFETCH  NON_SPEC    ACCESS:    3605351  HIT:       8702  MISS:    3596649  HIT %:   0.241363  MISS %:    99.7586   MPKI: 17.9832
LLC WRITEBACK NON_SPEC    ACCESS:     493240  HIT:     491754  MISS:       1486  HIT %:    99.6987  MISS %:   0.301273   MPKI: 0.00743
LLC CLEAN_EVICTION NON_SPEC    ACCESS:     200695  HIT:     123996  MISS:      76699  HIT %:    61.7833  MISS %:    38.2167   MPKI: 0.383495
LLC COMMIT LOAD NON_SPEC    ACCESS:        610  HIT:        222  MISS:        388  HIT %:    36.3934  MISS %:    63.6066   MPKI: 0.00194
LLC LOAD TRANSLATION NON_SPEC    ACCESS:      23235  HIT:        652  MISS:      22583  HIT %:    2.80611  MISS %:    97.1939   MPKI: 0.112915
LLC TRANSLATION FROM L1D PREFETCHER NON_SPEC    ACCESS:       9647  HIT:        295  MISS:       9352  HIT %:    3.05795  MISS %:    96.9421   MPKI: 0.04676
LLC PREFETCH  REQUESTED:          0  ISSUED:          0  USEFUL:       2968  USELESS:    3595756
LLC USEFUL LOAD PREFETCHES:       2968 PREFETCH ISSUED TO LOWER LEVEL:    3596649  ACCURACY: 0.0825213
LLC TIMELY PREFETCHES:       2968 LATE PREFETCHES: 0 DROPPED PREFETCHES: 0
LLC COMMIT LATE PREFETCHES: 0 MISSED OPPORTUNITY: 0 LATE IN PQ: 0 UNCOVERED: 0
LLC COMMIT LATE MSHR PREFETCHES: 0
LLC MPKI TOTAL: 2.93686 MSHR LATE: 0 PQ LATE: 0 COMMIT LATE: 0 MISSED OPPORTUNITY: 0 UNCOVERED: 0
LLC PREFETCHES SAME FILL-ORIGIN LEVEL: 0 DIFFERENT FILL-ORIGIN LEVEL: 0
LLC AVERAGE MISS LATENCY: 126.054 cycles
LLC AVERAGE MISS LATENCY LOAD: 139.405 cycles
LLC AVERAGE MISS LATENCY PREFETCH: 125.455 cycles
LLC AVERAGE MSHR OCCUPANCY: 0.857292
LLC MSHR FULL: 0
LLC RQ	ACCESS:    1079708	FORWARD:          0	MERGED:          0	TO_CACHE:    1079699
LLC WQ	ACCESS:     693935	FORWARD:          9	MERGED:          0	TO_CACHE:     693935
LLC PQ	ACCESS:    3605350	FORWARD:          0	MERGED:          0	TO_CACHE:    3605350

LLC Dense regions hint to LLC: 0

RAW hits: 15544
Loads Generated: 49181502
Loads sent to L1D: 49165958
Stores Generated: 5542573
Stores sent to L1D: 5542575
Major fault: 0 Minor fault: 27212
Allocated PAGES: 27212
Total Load insts: 61472849
Total Non-spec loads: 17520591
Percentage of speculative loads: 71.4986

LeapFrogging counter: 12664
Commit hits: 20160311 miss: 11703943
Commit hit %: 63.2694 miss %: 36.7306
Commits not translated: 0
Loads retired: 3290140
Stores retired: 5542575
Cache fills: 3290140
L1D response latency: 47.0706 cycles
Load retirement latency: 65.8019 cycles
OOO test counter: 0
Discarded buffer inserts: 20160311 hits: 16723 hit %: 0.0829501
Filter prediction accuracy: 99.964
LATENCY_FILL: 46.9903 3287921

DRAM Statistics
 CHANNEL 0
 RQ ROW_BUFFER_HIT:    2128511  ROW_BUFFER_MISS:    2229228
 DBUS_CONGESTED:       6891
 WQ ROW_BUFFER_HIT:     185603  ROW_BUFFER_MISS:     404413  FULL:        273

 AVG_CONGESTED_CYCLE: 4
 All warmup complete: 2
Channel 0 Bank busy for read cycles: 0
Channel 0 Bank busy for write cycles: 0
Channel 0
Rank 0
0banks busy for read cycles: 251914733
0banks busy for write cycles: 273605
1banks busy for read cycles: 182651081
1banks busy for write cycles: 42987222
2banks busy for read cycles: 70273800
2banks busy for write cycles: 12654885
3banks busy for read cycles: 20771877
3banks busy for write cycles: 4355522
4banks busy for read cycles: 7160079
4banks busy for write cycles: 1938031
5banks busy for read cycles: 2707093
5banks busy for write cycles: 1054609
6banks busy for read cycles: 1142914
6banks busy for write cycles: 770162
7banks busy for read cycles: 526893
7banks busy for write cycles: 868811
8banks busy for read cycles: 331851
8banks busy for write cycles: 5969825

CPU 0 Branch Prediction Accuracy: 85.7266% MPKI: 31.0332 Average ROB Occupancy at Mispredict: 6.73258
Branch types
NOT_BRANCH: 156515655 78.2578%
BRANCH_DIRECT_JUMP: 5431 0.0027155%
BRANCH_INDIRECT: 2 1e-06%
BRANCH_CONDITIONAL: 43478066 21.739%
BRANCH_DIRECT_CALL: 250 0.000125%
BRANCH_INDIRECT_CALL: 6 3e-06%
BRANCH_RETURN: 256 0.000128%
BRANCH_OTHER: 0 0%

DRAM PAGES: 1048576
Allocated PAGES: 27212
