
*** ChampSim Multicore Out-of-Order Simulator ***

Warmup Instructions: 50000000
Simulation Instructions: 200000000
Number of CPUs: 1
LLC sets: 2048
LLC ways: 16
L0D sets: 16
L0D ways: 2
ROB size: 352
LQ size: 128
SQ size: 72
Secure Berti: OFF
Berti: OFF
Berti Fill: OFF
On commit prefetching: OFF
Hit-based filter: ON
Time-guarding: ON
Free-slotting: ON
Leap-frogging: ON
Train prefetcher on L0D bypass: OFF
No translation penalty for prefetchers: OFF
Prefetch to L0D only: OFF
Prefetch to L1D only: OFF
Clean evictions: ON
Commit loads: ON
Commit write: ON
Fill commit loads to L2C, LLC: ON
DRAM IO FREQUENCY: 6400
ROB SIZE: 352
Off-chip DRAM Size: 4096 MB Channels: 1 Width: 64-bit Data Rate: 6400 MT/s
CPU 0 runs /home/sumon/secure_berti/GhostMinion/../../traces/gap/bfs-14.trace.gz
.gz
BTB has LRU replacement policy
ITLB has LRU replacement policy
DTLB has LRU replacement policy
STLB has LRU replacement policy
L1I has LRU replacement policy
L0D has LRU replacement policy
History Sets: 8
History Ways: 16
BERTI Size: 16
BERTI Stride Size: 16
L1D has LRU replacement policy
L2C has LRU replacement policy
LLC has LRU replacement policy
Heartbeat CPU 0 instructions: 10000001 cycles: 2973044 heartbeat IPC: 3.36356 cumulative IPC: 3.36356 (Simulation time: 0 hr 0 min 24 sec) 
Heartbeat CPU 0 instructions: 20000003 cycles: 6194224 heartbeat IPC: 3.10445 cumulative IPC: 3.22881 (Simulation time: 0 hr 0 min 58 sec) 
Heartbeat CPU 0 instructions: 30000003 cycles: 9413481 heartbeat IPC: 3.10631 cumulative IPC: 3.18692 (Simulation time: 0 hr 1 min 32 sec) 
Heartbeat CPU 0 instructions: 40000001 cycles: 12620081 heartbeat IPC: 3.11857 cumulative IPC: 3.16955 (Simulation time: 0 hr 2 min 7 sec) 
Heartbeat CPU 0 instructions: 50000002 cycles: 15757221 heartbeat IPC: 3.18762 cumulative IPC: 3.17315 (Simulation time: 0 hr 2 min 39 sec) 

Warmup complete CPU 0 instructions: 50000002 cycles: 15757221 (Simulation time: 0 hr 2 min 39 sec) 

Heartbeat CPU 0 instructions: 60000000 cycles: 40932279 heartbeat IPC: 0.397218 cumulative IPC: 0.397218 (Simulation time: 0 hr 3 min 17 sec) 
Heartbeat CPU 0 instructions: 70000001 cycles: 54220292 heartbeat IPC: 0.752558 cumulative IPC: 0.519979 (Simulation time: 0 hr 3 min 48 sec) 
Heartbeat CPU 0 instructions: 80000000 cycles: 72956733 heartbeat IPC: 0.533719 cumulative IPC: 0.52448 (Simulation time: 0 hr 4 min 22 sec) 
Heartbeat CPU 0 instructions: 90000000 cycles: 100355875 heartbeat IPC: 0.364975 cumulative IPC: 0.472821 (Simulation time: 0 hr 5 min 4 sec) 
Heartbeat CPU 0 instructions: 100000002 cycles: 137237891 heartbeat IPC: 0.271135 cumulative IPC: 0.411588 (Simulation time: 0 hr 5 min 50 sec) 
Heartbeat CPU 0 instructions: 110000000 cycles: 174034462 heartbeat IPC: 0.271764 cumulative IPC: 0.379082 (Simulation time: 0 hr 6 min 37 sec) 
Heartbeat CPU 0 instructions: 120000000 cycles: 216222537 heartbeat IPC: 0.237034 cumulative IPC: 0.349188 (Simulation time: 0 hr 7 min 24 sec) 
Heartbeat CPU 0 instructions: 130000001 cycles: 248593390 heartbeat IPC: 0.30892 cumulative IPC: 0.343589 (Simulation time: 0 hr 8 min 6 sec) 
Heartbeat CPU 0 instructions: 140000002 cycles: 265641996 heartbeat IPC: 0.586558 cumulative IPC: 0.360166 (Simulation time: 0 hr 8 min 42 sec) 
Heartbeat CPU 0 instructions: 150000000 cycles: 280282190 heartbeat IPC: 0.683051 cumulative IPC: 0.378036 (Simulation time: 0 hr 9 min 22 sec) 
Heartbeat CPU 0 instructions: 160000000 cycles: 304198790 heartbeat IPC: 0.41812 cumulative IPC: 0.38136 (Simulation time: 0 hr 10 min 8 sec) 
Heartbeat CPU 0 instructions: 170000000 cycles: 340894682 heartbeat IPC: 0.27251 cumulative IPC: 0.369075 (Simulation time: 0 hr 11 min 6 sec) 
Heartbeat CPU 0 instructions: 180000000 cycles: 378448937 heartbeat IPC: 0.266281 cumulative IPC: 0.358431 (Simulation time: 0 hr 12 min 4 sec) 
Heartbeat CPU 0 instructions: 190000003 cycles: 418502811 heartbeat IPC: 0.249664 cumulative IPC: 0.347614 (Simulation time: 0 hr 13 min 2 sec) 
Heartbeat CPU 0 instructions: 200000002 cycles: 459171244 heartbeat IPC: 0.245891 cumulative IPC: 0.338284 (Simulation time: 0 hr 13 min 57 sec) 
Heartbeat CPU 0 instructions: 210000001 cycles: 481747059 heartbeat IPC: 0.442952 cumulative IPC: 0.343355 (Simulation time: 0 hr 14 min 41 sec) 
Heartbeat CPU 0 instructions: 220000000 cycles: 495405272 heartbeat IPC: 0.73216 cumulative IPC: 0.354427 (Simulation time: 0 hr 15 min 18 sec) 
Heartbeat CPU 0 instructions: 230000001 cycles: 515755275 heartbeat IPC: 0.4914 cumulative IPC: 0.360001 (Simulation time: 0 hr 16 min 1 sec) 
Heartbeat CPU 0 instructions: 240000000 cycles: 546929990 heartbeat IPC: 0.320773 cumulative IPC: 0.357699 (Simulation time: 0 hr 16 min 52 sec) 
Heartbeat CPU 0 instructions: 250000002 cycles: 581983989 heartbeat IPC: 0.285274 cumulative IPC: 0.353215 (Simulation time: 0 hr 17 min 47 sec) 
Finished CPU 0 instructions: 200000000 cycles: 566226768 cumulative IPC: 0.353215 (Simulation time: 0 hr 17 min 47 sec) 
 Instruction ID: 250000017

ChampSim completed all CPUs

Region of Interest Statistics

CPU 0 cumulative IPC: 0.353215 instructions: 200000000 cycles: 566226768
ITLB SPEC fills:          0  NON-SPEC fills:          0
ITLB Test counter :          0
ITLB Leapfrog:          0
ITLB MSHR merge:          0
ITLB TOTAL     ACCESS:   34746350  HIT:   34746350  MISS:          0  HIT %:        100  MISS %:          0   MPKI: 0
ITLB LOAD TRANSLATION NON_SPEC    ACCESS:   34746350  HIT:   34746350  MISS:          0  HIT %:        100  MISS %:          0   MPKI: 0
ITLB PREFETCH  REQUESTED:          0  ISSUED:          0  USEFUL:          0  USELESS:          0
ITLB USEFUL LOAD PREFETCHES:          0 PREFETCH ISSUED TO LOWER LEVEL:          0  ACCURACY: -nan
ITLB TIMELY PREFETCHES:          0 LATE PREFETCHES: 0 DROPPED PREFETCHES: 0
ITLB COMMIT LATE PREFETCHES: 0 MISSED OPPORTUNITY: 0 LATE IN PQ: 0 UNCOVERED: 0
ITLB COMMIT LATE MSHR PREFETCHES: 0
ITLB MPKI TOTAL: 0 MSHR LATE: 0 PQ LATE: 0 COMMIT LATE: 0 MISSED OPPORTUNITY: 0 UNCOVERED: 0
ITLB PREFETCHES SAME FILL-ORIGIN LEVEL: 0 DIFFERENT FILL-ORIGIN LEVEL: 0
ITLB AVERAGE MISS LATENCY: -nan cycles
ITLB AVERAGE MISS LATENCY LOAD: -nan cycles
ITLB AVERAGE MISS LATENCY PREFETCH: -nan cycles
ITLB AVERAGE MSHR OCCUPANCY: 0
ITLB MSHR FULL: 0
ITLB RQ	ACCESS:   43106881	FORWARD:          0	MERGED:    8360532	TO_CACHE:   34746349

DTLB SPEC fills:          0  NON-SPEC fills:          0
DTLB Test counter :          0
DTLB Leapfrog:          0
DTLB MSHR merge:          0
DTLB TOTAL     ACCESS:   44778779  HIT:   44583537  MISS:     195242  HIT %:     99.564  MISS %:   0.436015   MPKI: 0.97621
DTLB LOAD TRANSLATION NON_SPEC    ACCESS:   44778779  HIT:   44583537  MISS:     195242  HIT %:     99.564  MISS %:   0.436015   MPKI: 0.97621
DTLB PREFETCH  REQUESTED:          0  ISSUED:          0  USEFUL:          0  USELESS:          0
DTLB USEFUL LOAD PREFETCHES:          0 PREFETCH ISSUED TO LOWER LEVEL:          0  ACCURACY: -nan
DTLB TIMELY PREFETCHES:          0 LATE PREFETCHES: 0 DROPPED PREFETCHES: 0
DTLB COMMIT LATE PREFETCHES: 0 MISSED OPPORTUNITY: 0 LATE IN PQ: 0 UNCOVERED: 0
DTLB COMMIT LATE MSHR PREFETCHES: 0
DTLB MPKI TOTAL: 0 MSHR LATE: 0 PQ LATE: 0 COMMIT LATE: 0 MISSED OPPORTUNITY: 0 UNCOVERED: 0
DTLB PREFETCHES SAME FILL-ORIGIN LEVEL: 0 DIFFERENT FILL-ORIGIN LEVEL: 0
DTLB AVERAGE MISS LATENCY: 61.073 cycles
DTLB AVERAGE MISS LATENCY LOAD: -nan cycles
DTLB AVERAGE MISS LATENCY PREFETCH: -nan cycles
DTLB AVERAGE MSHR OCCUPANCY: 0.00738759
DTLB MSHR FULL: 0
DTLB RQ	ACCESS:   47164317	FORWARD:          0	MERGED:    2365410	TO_CACHE:   44798907

STLB SPEC fills:          0  NON-SPEC fills:          0
STLB Test counter :          0
STLB Leapfrog:          0
STLB MSHR merge:          0
STLB TOTAL     ACCESS:   20841027  HIT:   20697506  MISS:     143521  HIT %:    99.3114  MISS %:   0.688646   MPKI: 0.717605
STLB LOAD TRANSLATION NON_SPEC    ACCESS:     195242  HIT:     113585  MISS:      81657  HIT %:    58.1765  MISS %:    41.8235   MPKI: 0.408285
STLB TRANSLATION FROM L1D PREFETCHER NON_SPEC    ACCESS:   20645785  HIT:   20583921  MISS:      61864  HIT %:    99.7004  MISS %:   0.299645   MPKI: 0.30932
STLB PREFETCH  REQUESTED:          0  ISSUED:          0  USEFUL:      61535  USELESS:        335
STLB USEFUL LOAD PREFETCHES:      61535 PREFETCH ISSUED TO LOWER LEVEL:          0  ACCURACY: inf
STLB TIMELY PREFETCHES:      61535 LATE PREFETCHES: 1463 DROPPED PREFETCHES: 18994
STLB COMMIT LATE PREFETCHES: 0 MISSED OPPORTUNITY: 0 LATE IN PQ: 0 UNCOVERED: 0
STLB COMMIT LATE MSHR PREFETCHES: 0
STLB MPKI TOTAL: 0 MSHR LATE: 0.007315 PQ LATE: 0 COMMIT LATE: 0 MISSED OPPORTUNITY: 0 UNCOVERED: 0
STLB PREFETCHES SAME FILL-ORIGIN LEVEL: 0 DIFFERENT FILL-ORIGIN LEVEL: 0
STLB AVERAGE MISS LATENCY: 109.715 cycles
STLB AVERAGE MISS LATENCY LOAD: -nan cycles
STLB AVERAGE MISS LATENCY PREFETCH: -nan cycles
STLB AVERAGE MSHR OCCUPANCY: 0.0101834
STLB MSHR FULL: 0
STLB RQ	ACCESS:  111699799	FORWARD:          0	MERGED:   90830776	TO_CACHE:   20869023

STLB Hit, L1D data hit: 0
STLB Hit, L2C data hit: 0
STLB Hit, LLC data hit: 0
STLB Hit, LLC data miss: 0
STLB STLB hints to L2: 0
L0D SPEC fills:   21086750  NON-SPEC fills:          0
L0D TimeGuard Request with older TS:      76691 Restricted eviction:      38995 read:        295
L0D Test counter :          0
L0D Leapfrog:          0
L0D MSHR merge:     105126
L0D TOTAL     ACCESS:   40256592  HIT:    3112226  MISS:   37144366  HIT %:    7.73097  MISS %:     92.269   MPKI: 185.722
L0D LOAD      TOTAL       ACCESS:   40256592  HIT:    3112226  MISS:   37144366  HIT %:    7.73097  MISS %:     92.269   MPKI: 185.722
L0D LOAD      NON_SPEC    ACCESS:   16018989  HIT:        368  MISS:   16018621  HIT %: 0.00229727  MISS %:    99.9977   MPKI: 80.0931
L0D LOAD      SPEC        ACCESS:   24237603  HIT:    3111858  MISS:   21125745  HIT %:     12.839  MISS %:     87.161   MPKI: 105.629
L0D PREFETCH  REQUESTED:          0  ISSUED:          0  USEFUL:          0  USELESS:          0
L0D USEFUL LOAD PREFETCHES:          0 PREFETCH ISSUED TO LOWER LEVEL:          0  ACCURACY: -nan
L0D TIMELY PREFETCHES:          0 LATE PREFETCHES: 0 DROPPED PREFETCHES: 0
L0D COMMIT LATE PREFETCHES: 0 MISSED OPPORTUNITY: 0 LATE IN PQ: 0 UNCOVERED: 0
L0D COMMIT LATE MSHR PREFETCHES: 0
L0D MPKI TOTAL: 186.247 MSHR LATE: 0 PQ LATE: 0 COMMIT LATE: 0 MISSED OPPORTUNITY: 0 UNCOVERED: 0
L0D PREFETCHES SAME FILL-ORIGIN LEVEL: 0 DIFFERENT FILL-ORIGIN LEVEL: 0
L0D AVERAGE MISS LATENCY: 8.72972 cycles
L0D AVERAGE MISS LATENCY LOAD: 8.72972 cycles
L0D AVERAGE MISS LATENCY PREFETCH: -nan cycles
L0D AVERAGE MSHR OCCUPANCY: 0.452252
L0D MSHR FULL: 0.00175439
L0D RQ	ACCESS:   48246921	FORWARD:          0	MERGED:    7885204	TO_CACHE:   40361717
L0D WQ	ACCESS:    6802600	FORWARD:          0	MERGED:          0	TO_CACHE:    6802600

L1D SPEC fills:          0  NON-SPEC fills:    2063929
L1D Test counter :          0
L1D Leapfrog:          0
L1D MSHR merge:       4310
L1D TOTAL     ACCESS:  127801859  HIT:  122355301  MISS:    5446558  HIT %:    95.7383  MISS %:    4.26172   MPKI: 27.2328
L1D LOAD      TOTAL       ACCESS:   37143875  HIT:   34508792  MISS:    2635083  HIT %:    92.9057  MISS %:    7.09426   MPKI: 13.1754
L1D LOAD      NON_SPEC    ACCESS:   16018548  HIT:   13954619  MISS:    2063929  HIT %:    87.1154  MISS %:    12.8846   MPKI: 10.3196
L1D LOAD      SPEC        ACCESS:   21125327  HIT:   20554173  MISS:     571154  HIT %:    97.2964  MISS %:    2.70365   MPKI: 2.85577
L1D RFO       NON_SPEC    ACCESS:    5075667  HIT:    4847146  MISS:     228521  HIT %:    95.4977  MISS %:    4.50229   MPKI: 1.14261
L1D PREFETCH  NON_SPEC    ACCESS:   84817958  HIT:   82803535  MISS:    2014423  HIT %:     97.625  MISS %:      2.375   MPKI: 10.0721
L1D COMMIT LOAD NON_SPEC    ACCESS:     194431  HIT:     189459  MISS:       4972  HIT %:    97.4428  MISS %:    2.55721   MPKI: 0.02486
L1D COMMIT WRITE NON_SPEC    ACCESS:     569928  HIT:       6369  MISS:     563559  HIT %:    1.11751  MISS %:    98.8825   MPKI: 2.81779
L1D PREFETCH  REQUESTED:  152408160  ISSUED:  142241673  USEFUL:    1968276  USELESS:      46145
L1D USEFUL LOAD PREFETCHES:    1968276 PREFETCH ISSUED TO LOWER LEVEL:   25049344  ACCURACY: 7.85759
L1D TIMELY PREFETCHES:    1968276 LATE PREFETCHES: 3820 DROPPED PREFETCHES: 47258
L1D COMMIT LATE PREFETCHES: 0 MISSED OPPORTUNITY: 0 LATE IN PQ: 0 UNCOVERED: 0
L1D COMMIT LATE MSHR PREFETCHES: 0
L1D MPKI TOTAL: 13.1779 MSHR LATE: 0.0191 PQ LATE: 0 COMMIT LATE: 0 MISSED OPPORTUNITY: 0 UNCOVERED: 0
L1D PREFETCHES SAME FILL-ORIGIN LEVEL: 2018244 DIFFERENT FILL-ORIGIN LEVEL: 23031100
L1D AVERAGE MISS LATENCY: 73.542 cycles
L1D AVERAGE MISS LATENCY LOAD: 51.5915 cycles
L1D AVERAGE MISS LATENCY PREFETCH: 109.911 cycles
L1D AVERAGE MSHR OCCUPANCY: 0.577291
L1D MSHR FULL: 0.00422131
L1D RQ	ACCESS:   37351474	FORWARD:          0	MERGED:      12543	TO_CACHE:   37338833
L1D WQ	ACCESS:    7340907	FORWARD:         98	MERGED:     109557	TO_CACHE:    7231350
L1D PQ	ACCESS:  142241673	FORWARD:          0	MERGED:   30737116	TO_CACHE:  111504557

L1D UNIQUE REGIONS ACCESSED: 0
L1D REGIONS CONFLICTS: 0
L1D Cross Page Prefetch Requests: 12872982
L1D Same Page Prefetch Requests: 140765703
L1D ROI Sum of L1D PQ occupancy: 1700649878
L1D PREFETCHES PUSHED FROM L2C: 0
L1I SPEC fills:          0  NON-SPEC fills:          0
L1I Test counter :          0
L1I Leapfrog:          0
L1I MSHR merge:          2
L1I TOTAL     ACCESS:   43106880  HIT:   43106865  MISS:         15  HIT %:        100  MISS %: 3.47972e-05   MPKI: 7.5e-05
L1I LOAD      TOTAL       ACCESS:   43106880  HIT:   43106865  MISS:         15  HIT %:        100  MISS %: 3.47972e-05   MPKI: 7.5e-05
L1I LOAD      NON_SPEC    ACCESS:   43106880  HIT:   43106865  MISS:         15  HIT %:        100  MISS %: 3.47972e-05   MPKI: 7.5e-05
L1I PREFETCH  REQUESTED:          0  ISSUED:          0  USEFUL:          0  USELESS:          0
L1I USEFUL LOAD PREFETCHES:          0 PREFETCH ISSUED TO LOWER LEVEL:          0  ACCURACY: -nan
L1I TIMELY PREFETCHES:          0 LATE PREFETCHES: 0 DROPPED PREFETCHES: 0
L1I COMMIT LATE PREFETCHES: 0 MISSED OPPORTUNITY: 0 LATE IN PQ: 0 UNCOVERED: 0
L1I COMMIT LATE MSHR PREFETCHES: 0
L1I MPKI TOTAL: 8.5e-05 MSHR LATE: 0 PQ LATE: 0 COMMIT LATE: 0 MISSED OPPORTUNITY: 0 UNCOVERED: 0
L1I PREFETCHES SAME FILL-ORIGIN LEVEL: 0 DIFFERENT FILL-ORIGIN LEVEL: 0
L1I AVERAGE MISS LATENCY: 222.6 cycles
L1I AVERAGE MISS LATENCY LOAD: 222.6 cycles
L1I AVERAGE MISS LATENCY PREFETCH: -nan cycles
L1I AVERAGE MSHR OCCUPANCY: 1.39189e-07
L1I MSHR FULL: 0
L1I RQ	ACCESS:   67098219	FORWARD:          0	MERGED:   23991338	TO_CACHE:   43106881

BTB SPEC fills:          0  NON-SPEC fills:          0
BTB Test counter :          0
BTB Leapfrog:          0
BTB MSHR merge:          0
BTB TOTAL     ACCESS:   41351678  HIT:   41351325  MISS:        353  HIT %:    99.9991  MISS %: 0.000853653   MPKI: 0.001765
BTB BRANCH_DIRECT_JUMP	ACCESS:       1976  HIT:       1931  MISS:         45
BTB BRANCH_INDIRECT	ACCESS:          3  HIT:          2  MISS:          1
BTB BRANCH_CONDITIONAL	ACCESS:   41349065  HIT:   41348961  MISS:        104
BTB BRANCH_DIRECT_CALL	ACCESS:        308  HIT:        265  MISS:         43
BTB BRANCH_INDIRECT_CALL	ACCESS:          9  HIT:          6  MISS:          3
BTB BRANCH_RETURN	ACCESS:        317  HIT:        160  MISS:        157
BTB BRANCH_OTHER ACCESS:          0  HIT:          0  MISS:          0

L2C SPEC fills:          0  NON-SPEC fills:     610334
L2C Test counter :          0
L2C Leapfrog:          0
L2C MSHR merge:      58682
L2C TOTAL     ACCESS:   27884258  HIT:   23001619  MISS:    4882639  HIT %:    82.4896  MISS %:    17.5104   MPKI: 24.4132
L2C LOAD      TOTAL       ACCESS:    2631251  HIT:    1811224  MISS:     820027  HIT %:    68.8351  MISS %:    31.1649   MPKI: 4.10013
L2C LOAD      NON_SPEC    ACCESS:    2063220  HIT:    1452871  MISS:     610349  HIT %:    70.4176  MISS %:    29.5824   MPKI: 3.05174
L2C LOAD      SPEC        ACCESS:     568031  HIT:     358353  MISS:     209678  HIT %:    63.0869  MISS %:    36.9131   MPKI: 1.04839
L2C RFO       NON_SPEC    ACCESS:     228521  HIT:       6012  MISS:     222509  HIT %:    2.63083  MISS %:    97.3692   MPKI: 1.11254
L2C PREFETCH  NON_SPEC    ACCESS:   23436744  HIT:   19833012  MISS:    3603732  HIT %:    84.6236  MISS %:    15.3764   MPKI: 18.0187
L2C WRITEBACK NON_SPEC    ACCESS:     547820  HIT:     547584  MISS:        236  HIT %:    99.9569  MISS %:  0.0430798   MPKI: 0.00118
L2C CLEAN_EVICTION NON_SPEC    ACCESS:     222076  HIT:      13895  MISS:     208181  HIT %:    6.25687  MISS %:    93.7431   MPKI: 1.0409
L2C COMMIT LOAD NON_SPEC    ACCESS:       4971  HIT:       3571  MISS:       1400  HIT %:    71.8367  MISS %:    28.1633   MPKI: 0.007
L2C LOAD TRANSLATION NON_SPEC    ACCESS:     401270  HIT:     383393  MISS:      17877  HIT %:    95.5449  MISS %:    4.45511   MPKI: 0.089385
L2C TRANSLATION FROM L1D PREFETCHER NON_SPEC    ACCESS:     411605  HIT:     402928  MISS:       8677  HIT %:    97.8919  MISS %:    2.10809   MPKI: 0.043385
L2C PREFETCH  REQUESTED:          0  ISSUED:          0  USEFUL:     634880  USELESS:    2977900
L2C USEFUL LOAD PREFETCHES:     634880 PREFETCH ISSUED TO LOWER LEVEL:    3662444  ACCURACY: 17.3349
L2C TIMELY PREFETCHES:     634880 LATE PREFETCHES: 58704 DROPPED PREFETCHES: 0
L2C COMMIT LATE PREFETCHES: 0 MISSED OPPORTUNITY: 0 LATE IN PQ: 0 UNCOVERED: 0
L2C COMMIT LATE MSHR PREFETCHES: 0
L2C MPKI TOTAL: 4.10013 MSHR LATE: 0.29352 PQ LATE: 0 COMMIT LATE: 0 MISSED OPPORTUNITY: 0 UNCOVERED: 0
L2C PREFETCHES SAME FILL-ORIGIN LEVEL: 2468893 DIFFERENT FILL-ORIGIN LEVEL: 0
L2C AVERAGE MISS LATENCY: 145.016 cycles
L2C AVERAGE MISS LATENCY LOAD: 120.488 cycles
L2C AVERAGE MISS LATENCY PREFETCH: 156.537 cycles
L2C AVERAGE MSHR OCCUPANCY: 1.44182
L2C MSHR FULL: 9.35308e-05
L2C RQ	ACCESS:    3677646	FORWARD:          0	MERGED:          0	TO_CACHE:    3677618
L2C WQ	ACCESS:     769896	FORWARD:         28	MERGED:          0	TO_CACHE:     769896
L2C PQ	ACCESS:   25049331	FORWARD:          0	MERGED:       1149	TO_CACHE:   25048182

L2C Instructions Evicting Data 15
L2C Translations Evicting Data 26427
L2C Data Evicting Data 4412371
L2C Instructions Evicting Instructions 0
L2C Translations Evicting Instructions 0
L2C Data Evicting Instructions 14
L2C Instructions Evicting Translations 0
L2C Translations Evicting Translations 127
L2C Data Evicting Translations 25590
L2C Dense regions hint from L2: 0
PSCL5 SPEC fills:          0  NON-SPEC fills:          0
PSCL5 Test counter :          0
PSCL5 Leapfrog:          0
PSCL5 MSHR merge:          0
PSCL5 TOTAL     ACCESS:          0  HIT:          0  MISS:          0  HIT %:       -nan  MISS %:       -nan   MPKI: 0
PSCL5 PREFETCH  REQUESTED:          0  ISSUED:          0  USEFUL:          0  USELESS:          0
PSCL5 USEFUL LOAD PREFETCHES:          0 PREFETCH ISSUED TO LOWER LEVEL:          0  ACCURACY: -nan
PSCL5 TIMELY PREFETCHES:          0 LATE PREFETCHES: 0 DROPPED PREFETCHES: 0
PSCL5 COMMIT LATE PREFETCHES: 0 MISSED OPPORTUNITY: 0 LATE IN PQ: 0 UNCOVERED: 0
PSCL5 COMMIT LATE MSHR PREFETCHES: 0
PSCL5 MPKI TOTAL: 0 MSHR LATE: 0 PQ LATE: 0 COMMIT LATE: 0 MISSED OPPORTUNITY: 0 UNCOVERED: 0
PSCL5 PREFETCHES SAME FILL-ORIGIN LEVEL: 0 DIFFERENT FILL-ORIGIN LEVEL: 0

PSCL4 SPEC fills:          0  NON-SPEC fills:          0
PSCL4 Test counter :          0
PSCL4 Leapfrog:          0
PSCL4 MSHR merge:          0
PSCL4 TOTAL     ACCESS:          0  HIT:          0  MISS:          0  HIT %:       -nan  MISS %:       -nan   MPKI: 0
PSCL4 PREFETCH  REQUESTED:          0  ISSUED:          0  USEFUL:          0  USELESS:          0
PSCL4 USEFUL LOAD PREFETCHES:          0 PREFETCH ISSUED TO LOWER LEVEL:          0  ACCURACY: -nan
PSCL4 TIMELY PREFETCHES:          0 LATE PREFETCHES: 0 DROPPED PREFETCHES: 0
PSCL4 COMMIT LATE PREFETCHES: 0 MISSED OPPORTUNITY: 0 LATE IN PQ: 0 UNCOVERED: 0
PSCL4 COMMIT LATE MSHR PREFETCHES: 0
PSCL4 MPKI TOTAL: 0 MSHR LATE: 0 PQ LATE: 0 COMMIT LATE: 0 MISSED OPPORTUNITY: 0 UNCOVERED: 0
PSCL4 PREFETCHES SAME FILL-ORIGIN LEVEL: 0 DIFFERENT FILL-ORIGIN LEVEL: 0

PSCL3 SPEC fills:          0  NON-SPEC fills:          0
PSCL3 Test counter :          0
PSCL3 Leapfrog:          0
PSCL3 MSHR merge:          0
PSCL3 TOTAL     ACCESS:          0  HIT:          0  MISS:          0  HIT %:       -nan  MISS %:       -nan   MPKI: 0
PSCL3 PREFETCH  REQUESTED:          0  ISSUED:          0  USEFUL:          0  USELESS:          0
PSCL3 USEFUL LOAD PREFETCHES:          0 PREFETCH ISSUED TO LOWER LEVEL:          0  ACCURACY: -nan
PSCL3 TIMELY PREFETCHES:          0 LATE PREFETCHES: 0 DROPPED PREFETCHES: 0
PSCL3 COMMIT LATE PREFETCHES: 0 MISSED OPPORTUNITY: 0 LATE IN PQ: 0 UNCOVERED: 0
PSCL3 COMMIT LATE MSHR PREFETCHES: 0
PSCL3 MPKI TOTAL: 0 MSHR LATE: 0 PQ LATE: 0 COMMIT LATE: 0 MISSED OPPORTUNITY: 0 UNCOVERED: 0
PSCL3 PREFETCHES SAME FILL-ORIGIN LEVEL: 0 DIFFERENT FILL-ORIGIN LEVEL: 0

PSCL2 SPEC fills:          0  NON-SPEC fills:          0
PSCL2 Test counter :          0
PSCL2 Leapfrog:          0
PSCL2 MSHR merge:          0
PSCL2 TOTAL     ACCESS:          0  HIT:          0  MISS:          0  HIT %:       -nan  MISS %:       -nan   MPKI: 0
PSCL2 PREFETCH  REQUESTED:          0  ISSUED:          0  USEFUL:          0  USELESS:          0
PSCL2 USEFUL LOAD PREFETCHES:          0 PREFETCH ISSUED TO LOWER LEVEL:          0  ACCURACY: -nan
PSCL2 TIMELY PREFETCHES:          0 LATE PREFETCHES: 0 DROPPED PREFETCHES: 0
PSCL2 COMMIT LATE PREFETCHES: 0 MISSED OPPORTUNITY: 0 LATE IN PQ: 0 UNCOVERED: 0
PSCL2 COMMIT LATE MSHR PREFETCHES: 0
PSCL2 MPKI TOTAL: 0 MSHR LATE: 0 PQ LATE: 0 COMMIT LATE: 0 MISSED OPPORTUNITY: 0 UNCOVERED: 0
PSCL2 PREFETCHES SAME FILL-ORIGIN LEVEL: 0 DIFFERENT FILL-ORIGIN LEVEL: 0

LLC SPEC fills:          0  NON-SPEC fills:     375162
LLC Test counter :          0
LLC Leapfrog:          0
LLC MSHR merge:          0
LLC TOTAL     ACCESS:    5421866  HIT:     900451  MISS:    4521415  HIT %:    16.6078  MISS %:    83.3922   MPKI: 22.6071
LLC LOAD      TOTAL       ACCESS:     761344  HIT:     262598  MISS:     498746  HIT %:    34.4914  MISS %:    65.5086   MPKI: 2.49373
LLC LOAD      NON_SPEC    ACCESS:     591605  HIT:     216428  MISS:     375177  HIT %:    36.5832  MISS %:    63.4168   MPKI: 1.87589
LLC LOAD      SPEC        ACCESS:     169739  HIT:      46170  MISS:     123569  HIT %:    27.2006  MISS %:    72.7994   MPKI: 0.617845
LLC RFO       NON_SPEC    ACCESS:     222509  HIT:       5035  MISS:     217474  HIT %:    2.26283  MISS %:    97.7372   MPKI: 1.08737
LLC PREFETCH  NON_SPEC    ACCESS:    3662436  HIT:      19266  MISS:    3643170  HIT %:   0.526043  MISS %:     99.474   MPKI: 18.2158
LLC WRITEBACK NON_SPEC    ACCESS:     528192  HIT:     526532  MISS:       1660  HIT %:    99.6857  MISS %:    0.31428   MPKI: 0.0083
LLC CLEAN_EVICTION NON_SPEC    ACCESS:     219453  HIT:      85542  MISS:     133911  HIT %:    38.9796  MISS %:    61.0204   MPKI: 0.669555
LLC COMMIT LOAD NON_SPEC    ACCESS:       1378  HIT:        897  MISS:        481  HIT %:    65.0943  MISS %:    34.9057   MPKI: 0.002405
LLC LOAD TRANSLATION NON_SPEC    ACCESS:      17877  HIT:        244  MISS:      17633  HIT %:    1.36488  MISS %:    98.6351   MPKI: 0.088165
LLC TRANSLATION FROM L1D PREFETCHER NON_SPEC    ACCESS:       8677  HIT:        337  MISS:       8340  HIT %:    3.88383  MISS %:    96.1162   MPKI: 0.0417
LLC PREFETCH  REQUESTED:          0  ISSUED:          0  USEFUL:       8209  USELESS:    3637985
LLC USEFUL LOAD PREFETCHES:       8209 PREFETCH ISSUED TO LOWER LEVEL:    3643178  ACCURACY: 0.225325
LLC TIMELY PREFETCHES:       8209 LATE PREFETCHES: 0 DROPPED PREFETCHES: 0
LLC COMMIT LATE PREFETCHES: 0 MISSED OPPORTUNITY: 0 LATE IN PQ: 0 UNCOVERED: 0
LLC COMMIT LATE MSHR PREFETCHES: 0
LLC MPKI TOTAL: 2.49373 MSHR LATE: 0 PQ LATE: 0 COMMIT LATE: 0 MISSED OPPORTUNITY: 0 UNCOVERED: 0
LLC PREFETCHES SAME FILL-ORIGIN LEVEL: 0 DIFFERENT FILL-ORIGIN LEVEL: 0
LLC AVERAGE MISS LATENCY: 126.947 cycles
LLC AVERAGE MISS LATENCY LOAD: 142.076 cycles
LLC AVERAGE MISS LATENCY PREFETCH: 127.773 cycles
LLC AVERAGE MSHR OCCUPANCY: 1.10714
LLC MSHR FULL: 0
LLC RQ	ACCESS:    1011786	FORWARD:          0	MERGED:          0	TO_CACHE:    1011785
LLC WQ	ACCESS:     747645	FORWARD:          1	MERGED:          0	TO_CACHE:     747645
LLC PQ	ACCESS:    3662444	FORWARD:          0	MERGED:          0	TO_CACHE:    3662444

LLC Dense regions hint to LLC: 0

RAW hits: 232887
Loads Generated: 48479808
Loads sent to L1D: 48246921
Stores Generated: 6802601
Stores sent to L1D: 6802600
Major fault: 0 Minor fault: 27134
Allocated PAGES: 27134
Total Load insts: 61201499
Total Non-spec loads: 16307081
Percentage of speculative loads: 73.3551

LeapFrogging counter: 29922
Commit hits: 21054413 miss: 11173411
Commit hit %: 65.3299 miss %: 34.6701
Commits not translated: 0
Loads retired: 2635083
Stores retired: 6802600
Cache fills: 2635083
L1D response latency: 51.5915 cycles
Load retirement latency: 71.1372 cycles
OOO test counter: 0
Discarded buffer inserts: 21054413 hits: 9808 hit %: 0.0465841
Filter prediction accuracy: 99.9873
LATENCY_FILL: 51.4687 2633539

DRAM Statistics
 CHANNEL 0
 RQ ROW_BUFFER_HIT:    2177079  ROW_BUFFER_MISS:    2208729
 DBUS_CONGESTED:       7715
 WQ ROW_BUFFER_HIT:     247851  ROW_BUFFER_MISS:     465934  FULL:        649

 AVG_CONGESTED_CYCLE: 4
 All warmup complete: 2
Channel 0 Bank busy for read cycles: 0
Channel 0 Bank busy for write cycles: 0
Channel 0
Rank 0
0banks busy for read cycles: 217673941
0banks busy for write cycles: 244967
1banks busy for read cycles: 171214773
1banks busy for write cycles: 37864561
2banks busy for read cycles: 67556523
2banks busy for write cycles: 13428947
3banks busy for read cycles: 20185916
3banks busy for write cycles: 5699901
4banks busy for read cycles: 7926598
4banks busy for write cycles: 2988367
5banks busy for read cycles: 3508983
5banks busy for write cycles: 1849724
6banks busy for read cycles: 1766223
6banks busy for write cycles: 1451385
7banks busy for read cycles: 996832
7banks busy for write cycles: 1651556
8banks busy for read cycles: 845164
8banks busy for write cycles: 9372408

CPU 0 Branch Prediction Accuracy: 86.6486% MPKI: 29.0033 Average ROB Occupancy at Mispredict: 7.39866
Branch types
NOT_BRANCH: 156554084 78.277%
BRANCH_DIRECT_JUMP: 1976 0.000988%
BRANCH_INDIRECT: 3 1.5e-06%
BRANCH_CONDITIONAL: 43443272 21.7216%
BRANCH_DIRECT_CALL: 308 0.000154%
BRANCH_INDIRECT_CALL: 9 4.5e-06%
BRANCH_RETURN: 317 0.0001585%
BRANCH_OTHER: 0 0%

DRAM PAGES: 1048576
Allocated PAGES: 27134
