
*** ChampSim Multicore Out-of-Order Simulator ***

Warmup Instructions: 50000000
Simulation Instructions: 200000000
Number of CPUs: 1
LLC sets: 2048
LLC ways: 16
L0D sets: 16
L0D ways: 2
ROB size: 352
LQ size: 128
SQ size: 72
Secure Berti: OFF
Berti: OFF
Berti Fill: OFF
On commit prefetching: OFF
Hit-based filter: ON
Time-guarding: ON
Free-slotting: ON
Leap-frogging: ON
Train prefetcher on L0D bypass: OFF
No translation penalty for prefetchers: OFF
Prefetch to L0D only: OFF
Prefetch to L1D only: OFF
Clean evictions: ON
Commit loads: ON
Commit write: ON
Fill commit loads to L2C, LLC: ON
DRAM IO FREQUENCY: 6400
ROB SIZE: 352
Off-chip DRAM Size: 4096 MB Channels: 1 Width: 64-bit Data Rate: 6400 MT/s
CPU 0 runs /home/sumon/secure_berti/GhostMinion/../../traces/gap/sssp-14.trace.gz
.gz
BTB has LRU replacement policy
ITLB has LRU replacement policy
DTLB has LRU replacement policy
STLB has LRU replacement policy
L1I has LRU replacement policy
L0D has LRU replacement policy
History Sets: 8
History Ways: 16
BERTI Size: 16
BERTI Stride Size: 16
L1D has LRU replacement policy
L2C has LRU replacement policy
LLC has LRU replacement policy
Heartbeat CPU 0 instructions: 10000000 cycles: 3981033 heartbeat IPC: 2.51191 cumulative IPC: 2.51191 (Simulation time: 0 hr 0 min 33 sec) 
Heartbeat CPU 0 instructions: 20000003 cycles: 7827105 heartbeat IPC: 2.60006 cumulative IPC: 2.55522 (Simulation time: 0 hr 1 min 7 sec) 
Heartbeat CPU 0 instructions: 30000001 cycles: 11618317 heartbeat IPC: 2.63768 cumulative IPC: 2.58213 (Simulation time: 0 hr 1 min 41 sec) 
Heartbeat CPU 0 instructions: 40000003 cycles: 15383696 heartbeat IPC: 2.65578 cumulative IPC: 2.60016 (Simulation time: 0 hr 2 min 15 sec) 
Heartbeat CPU 0 instructions: 50000000 cycles: 19129121 heartbeat IPC: 2.66992 cumulative IPC: 2.61382 (Simulation time: 0 hr 2 min 48 sec) 

Warmup complete CPU 0 instructions: 50000004 cycles: 19129122 (Simulation time: 0 hr 2 min 48 sec) 

Heartbeat CPU 0 instructions: 60000002 cycles: 46820078 heartbeat IPC: 0.361129 cumulative IPC: 0.361129 (Simulation time: 0 hr 3 min 37 sec) 
Heartbeat CPU 0 instructions: 70000001 cycles: 73332696 heartbeat IPC: 0.377179 cumulative IPC: 0.368979 (Simulation time: 0 hr 4 min 21 sec) 
Heartbeat CPU 0 instructions: 80000003 cycles: 99156269 heartbeat IPC: 0.387243 cumulative IPC: 0.374873 (Simulation time: 0 hr 5 min 4 sec) 
Heartbeat CPU 0 instructions: 90000003 cycles: 124300972 heartbeat IPC: 0.397698 cumulative IPC: 0.38033 (Simulation time: 0 hr 5 min 49 sec) 
Heartbeat CPU 0 instructions: 100000002 cycles: 148968884 heartbeat IPC: 0.405385 cumulative IPC: 0.38509 (Simulation time: 0 hr 6 min 34 sec) 
Heartbeat CPU 0 instructions: 110000000 cycles: 173826397 heartbeat IPC: 0.402293 cumulative IPC: 0.387854 (Simulation time: 0 hr 7 min 19 sec) 
Heartbeat CPU 0 instructions: 120000001 cycles: 198208869 heartbeat IPC: 0.410131 cumulative IPC: 0.390887 (Simulation time: 0 hr 8 min 3 sec) 
Heartbeat CPU 0 instructions: 130000003 cycles: 221914218 heartbeat IPC: 0.421846 cumulative IPC: 0.394506 (Simulation time: 0 hr 8 min 51 sec) 
Heartbeat CPU 0 instructions: 140000003 cycles: 246123842 heartbeat IPC: 0.413059 cumulative IPC: 0.396485 (Simulation time: 0 hr 9 min 44 sec) 
Heartbeat CPU 0 instructions: 150000000 cycles: 269918528 heartbeat IPC: 0.420262 cumulative IPC: 0.398741 (Simulation time: 0 hr 10 min 37 sec) 
Heartbeat CPU 0 instructions: 160000002 cycles: 293296618 heartbeat IPC: 0.427751 cumulative IPC: 0.401215 (Simulation time: 0 hr 11 min 29 sec) 
Heartbeat CPU 0 instructions: 170000003 cycles: 316751920 heartbeat IPC: 0.426343 cumulative IPC: 0.403195 (Simulation time: 0 hr 12 min 22 sec) 
Heartbeat CPU 0 instructions: 180000003 cycles: 339769908 heartbeat IPC: 0.434443 cumulative IPC: 0.405438 (Simulation time: 0 hr 13 min 14 sec) 
Heartbeat CPU 0 instructions: 190000001 cycles: 362794108 heartbeat IPC: 0.434326 cumulative IPC: 0.407373 (Simulation time: 0 hr 14 min 6 sec) 
Heartbeat CPU 0 instructions: 200000001 cycles: 385728357 heartbeat IPC: 0.436029 cumulative IPC: 0.409166 (Simulation time: 0 hr 14 min 58 sec) 
Heartbeat CPU 0 instructions: 210000002 cycles: 408972537 heartbeat IPC: 0.430215 cumulative IPC: 0.410421 (Simulation time: 0 hr 15 min 49 sec) 
Heartbeat CPU 0 instructions: 220000000 cycles: 431736749 heartbeat IPC: 0.439286 cumulative IPC: 0.412014 (Simulation time: 0 hr 16 min 40 sec) 
Heartbeat CPU 0 instructions: 230000001 cycles: 454116610 heartbeat IPC: 0.44683 cumulative IPC: 0.413805 (Simulation time: 0 hr 17 min 29 sec) 
Heartbeat CPU 0 instructions: 240000003 cycles: 476850034 heartbeat IPC: 0.439881 cumulative IPC: 0.4151 (Simulation time: 0 hr 18 min 19 sec) 
Heartbeat CPU 0 instructions: 250000001 cycles: 499294375 heartbeat IPC: 0.445547 cumulative IPC: 0.416523 (Simulation time: 0 hr 19 min 8 sec) 
Finished CPU 0 instructions: 200000001 cycles: 480165254 cumulative IPC: 0.416523 (Simulation time: 0 hr 19 min 8 sec) 
 Instruction ID: 250000171

ChampSim completed all CPUs

Region of Interest Statistics

CPU 0 cumulative IPC: 0.416523 instructions: 200000001 cycles: 480165254
ITLB SPEC fills:          0  NON-SPEC fills:          0
ITLB Test counter :          0
ITLB Leapfrog:          0
ITLB MSHR merge:          0
ITLB TOTAL     ACCESS:   24157006  HIT:   24157006  MISS:          0  HIT %:        100  MISS %:          0   MPKI: 0
ITLB LOAD TRANSLATION NON_SPEC    ACCESS:   24157006  HIT:   24157006  MISS:          0  HIT %:        100  MISS %:          0   MPKI: 0
ITLB PREFETCH  REQUESTED:          0  ISSUED:          0  USEFUL:          0  USELESS:          0
ITLB USEFUL LOAD PREFETCHES:          0 PREFETCH ISSUED TO LOWER LEVEL:          0  ACCURACY: -nan
ITLB TIMELY PREFETCHES:          0 LATE PREFETCHES: 0 DROPPED PREFETCHES: 0
ITLB COMMIT LATE PREFETCHES: 0 MISSED OPPORTUNITY: 0 LATE IN PQ: 0 UNCOVERED: 0
ITLB COMMIT LATE MSHR PREFETCHES: 0
ITLB MPKI TOTAL: 0 MSHR LATE: 0 PQ LATE: 0 COMMIT LATE: 0 MISSED OPPORTUNITY: 0 UNCOVERED: 0
ITLB PREFETCHES SAME FILL-ORIGIN LEVEL: 0 DIFFERENT FILL-ORIGIN LEVEL: 0
ITLB AVERAGE MISS LATENCY: -nan cycles
ITLB AVERAGE MISS LATENCY LOAD: -nan cycles
ITLB AVERAGE MISS LATENCY PREFETCH: -nan cycles
ITLB AVERAGE MSHR OCCUPANCY: 0
ITLB MSHR FULL: 0
ITLB RQ	ACCESS:   24825398	FORWARD:          0	MERGED:     668392	TO_CACHE:   24157006

DTLB SPEC fills:          0  NON-SPEC fills:          0
DTLB Test counter :          0
DTLB Leapfrog:          0
DTLB MSHR merge:          0
DTLB TOTAL     ACCESS:   48394138  HIT:   43845889  MISS:    4548249  HIT %:    90.6017  MISS %:    9.39835   MPKI: 22.7412
DTLB LOAD TRANSLATION NON_SPEC    ACCESS:   48394138  HIT:   43845889  MISS:    4548249  HIT %:    90.6017  MISS %:    9.39835   MPKI: 22.7412
DTLB PREFETCH  REQUESTED:          0  ISSUED:          0  USEFUL:          0  USELESS:          0
DTLB USEFUL LOAD PREFETCHES:          0 PREFETCH ISSUED TO LOWER LEVEL:          0  ACCURACY: -nan
DTLB TIMELY PREFETCHES:          0 LATE PREFETCHES: 0 DROPPED PREFETCHES: 0
DTLB COMMIT LATE PREFETCHES: 0 MISSED OPPORTUNITY: 0 LATE IN PQ: 0 UNCOVERED: 0
DTLB COMMIT LATE MSHR PREFETCHES: 0
DTLB MPKI TOTAL: 0 MSHR LATE: 0 PQ LATE: 0 COMMIT LATE: 0 MISSED OPPORTUNITY: 0 UNCOVERED: 0
DTLB PREFETCHES SAME FILL-ORIGIN LEVEL: 0 DIFFERENT FILL-ORIGIN LEVEL: 0
DTLB AVERAGE MISS LATENCY: 12.2405 cycles
DTLB AVERAGE MISS LATENCY LOAD: -nan cycles
DTLB AVERAGE MISS LATENCY PREFETCH: -nan cycles
DTLB AVERAGE MSHR OCCUPANCY: 0.228236
DTLB MSHR FULL: 2.25494e-07
DTLB RQ	ACCESS:   52826642	FORWARD:          0	MERGED:    4044921	TO_CACHE:   48781721

STLB SPEC fills:          0  NON-SPEC fills:          0
STLB Test counter :          0
STLB Leapfrog:          0
STLB MSHR merge:          0
STLB TOTAL     ACCESS:    8537508  HIT:    8476040  MISS:      61468  HIT %:      99.28  MISS %:   0.719976   MPKI: 0.30734
STLB LOAD TRANSLATION NON_SPEC    ACCESS:    4548250  HIT:    4489688  MISS:      58562  HIT %:    98.7124  MISS %:    1.28757   MPKI: 0.29281
STLB TRANSLATION FROM L1D PREFETCHER NON_SPEC    ACCESS:    3989258  HIT:    3986352  MISS:       2906  HIT %:    99.9272  MISS %:  0.0728456   MPKI: 0.01453
STLB PREFETCH  REQUESTED:          0  ISSUED:          0  USEFUL:       2746  USELESS:        159
STLB USEFUL LOAD PREFETCHES:       2746 PREFETCH ISSUED TO LOWER LEVEL:          0  ACCURACY: inf
STLB TIMELY PREFETCHES:       2746 LATE PREFETCHES: 7815 DROPPED PREFETCHES: 423660
STLB COMMIT LATE PREFETCHES: 0 MISSED OPPORTUNITY: 0 LATE IN PQ: 0 UNCOVERED: 0
STLB COMMIT LATE MSHR PREFETCHES: 0
STLB MPKI TOTAL: 0 MSHR LATE: 0.039075 PQ LATE: 0 COMMIT LATE: 0 MISSED OPPORTUNITY: 0 UNCOVERED: 0
STLB PREFETCHES SAME FILL-ORIGIN LEVEL: 0 DIFFERENT FILL-ORIGIN LEVEL: 0
STLB AVERAGE MISS LATENCY: 232.317 cycles
STLB AVERAGE MISS LATENCY LOAD: -nan cycles
STLB AVERAGE MISS LATENCY PREFETCH: -nan cycles
STLB AVERAGE MSHR OCCUPANCY: 0.140673
STLB MSHR FULL: 0
STLB RQ	ACCESS:   28132898	FORWARD:          0	MERGED:   19048562	TO_CACHE:    9084336

STLB Hit, L1D data hit: 0
STLB Hit, L2C data hit: 0
STLB Hit, LLC data hit: 0
STLB Hit, LLC data miss: 0
STLB STLB hints to L2: 0
L0D SPEC fills:   26370650  NON-SPEC fills:          0
L0D TimeGuard Request with older TS:    2295439 Restricted eviction:     232570 read:    4299497
L0D Test counter :          0
L0D Leapfrog:          0
L0D MSHR merge:    2020147
L0D TOTAL     ACCESS:   48575902  HIT:   16906821  MISS:   31669081  HIT %:     34.805  MISS %:     65.195   MPKI: 158.345
L0D LOAD      TOTAL       ACCESS:   48575902  HIT:   16906821  MISS:   31669081  HIT %:     34.805  MISS %:     65.195   MPKI: 158.345
L0D LOAD      NON_SPEC    ACCESS:    5163279  HIT:      97418  MISS:    5065861  HIT %:    1.88675  MISS %:    98.1133   MPKI: 25.3293
L0D LOAD      SPEC        ACCESS:   43412623  HIT:   16809403  MISS:   26603220  HIT %:    38.7201  MISS %:    61.2799   MPKI: 133.016
L0D PREFETCH  REQUESTED:          0  ISSUED:          0  USEFUL:          0  USELESS:          0
L0D USEFUL LOAD PREFETCHES:          0 PREFETCH ISSUED TO LOWER LEVEL:          0  ACCURACY: -nan
L0D TIMELY PREFETCHES:          0 LATE PREFETCHES: 0 DROPPED PREFETCHES: 0
L0D COMMIT LATE PREFETCHES: 0 MISSED OPPORTUNITY: 0 LATE IN PQ: 0 UNCOVERED: 0
L0D COMMIT LATE MSHR PREFETCHES: 0
L0D MPKI TOTAL: 168.446 MSHR LATE: 0 PQ LATE: 0 COMMIT LATE: 0 MISSED OPPORTUNITY: 0 UNCOVERED: 0
L0D PREFETCHES SAME FILL-ORIGIN LEVEL: 0 DIFFERENT FILL-ORIGIN LEVEL: 0
L0D AVERAGE MISS LATENCY: 28.2559 cycles
L0D AVERAGE MISS LATENCY LOAD: 28.2559 cycles
L0D AVERAGE MISS LATENCY PREFETCH: -nan cycles
L0D AVERAGE MSHR OCCUPANCY: 2.01366
L0D MSHR FULL: 0.030003
L0D RQ	ACCESS:   76717367	FORWARD:          0	MERGED:   26121313	TO_CACHE:   50596054
L0D WQ	ACCESS:    2230588	FORWARD:          0	MERGED:          0	TO_CACHE:    2230588

L1D SPEC fills:          0  NON-SPEC fills:    1723268
L1D Test counter :          0
L1D Leapfrog:          0
L1D MSHR merge:      28760
L1D TOTAL     ACCESS:   60447762  HIT:   41917420  MISS:   18530342  HIT %:    69.3449  MISS %:    30.6551   MPKI: 92.6517
L1D LOAD      TOTAL       ACCESS:   31667700  HIT:   22422852  MISS:    9244848  HIT %:    70.8067  MISS %:    29.1933   MPKI: 46.2242
L1D LOAD      NON_SPEC    ACCESS:    5065306  HIT:    3342038  MISS:    1723268  HIT %:     65.979  MISS %:     34.021   MPKI: 8.61634
L1D LOAD      SPEC        ACCESS:   26602394  HIT:   19080814  MISS:    7521580  HIT %:    71.7259  MISS %:    28.2741   MPKI: 37.6079
L1D RFO       NON_SPEC    ACCESS:    2041496  HIT:    1565738  MISS:     475758  HIT %:    76.6956  MISS %:    23.3044   MPKI: 2.37879
L1D PREFETCH  NON_SPEC    ACCESS:   18790614  HIT:   17512015  MISS:    1278599  HIT %:    93.1955  MISS %:    6.80446   MPKI: 6.39299
L1D COMMIT LOAD NON_SPEC    ACCESS:     504422  HIT:     386110  MISS:     118312  HIT %:     76.545  MISS %:     23.455   MPKI: 0.59156
L1D COMMIT WRITE NON_SPEC    ACCESS:    7443530  HIT:      30705  MISS:    7412825  HIT %:   0.412506  MISS %:    99.5875   MPKI: 37.0641
L1D PREFETCH  REQUESTED:   29696263  ISSUED:   29480293  USEFUL:    1138182  USELESS:     140403
L1D USEFUL LOAD PREFETCHES:    1138182 PREFETCH ISSUED TO LOWER LEVEL:    4216132  ACCURACY: 26.9959
L1D TIMELY PREFETCHES:    1138182 LATE PREFETCHES: 27410 DROPPED PREFETCHES: 1324231
L1D COMMIT LATE PREFETCHES: 0 MISSED OPPORTUNITY: 0 LATE IN PQ: 0 UNCOVERED: 0
L1D COMMIT LATE MSHR PREFETCHES: 0
L1D MPKI TOTAL: 46.2312 MSHR LATE: 0.13705 PQ LATE: 0 COMMIT LATE: 0 MISSED OPPORTUNITY: 0 UNCOVERED: 0
L1D PREFETCHES SAME FILL-ORIGIN LEVEL: 1306010 DIFFERENT FILL-ORIGIN LEVEL: 2910122
L1D AVERAGE MISS LATENCY: 55.2054 cycles
L1D AVERAGE MISS LATENCY LOAD: 79.1675 cycles
L1D AVERAGE MISS LATENCY PREFETCH: 189.554 cycles
L1D AVERAGE MSHR OCCUPANCY: 2.44257
L1D MSHR FULL: 0.0526129
L1D RQ	ACCESS:   32461227	FORWARD:          0	MERGED:     276836	TO_CACHE:   32175422
L1D WQ	ACCESS:    9674157	FORWARD:       8969	MERGED:       1209	TO_CACHE:    9672948
L1D PQ	ACCESS:   29480293	FORWARD:          0	MERGED:    5895645	TO_CACHE:   23584648

L1D UNIQUE REGIONS ACCESSED: 0
L1D REGIONS CONFLICTS: 0
L1D Cross Page Prefetch Requests: 3648695
L1D Same Page Prefetch Requests: 31902496
L1D ROI Sum of L1D PQ occupancy: 488499737
L1D PREFETCHES PUSHED FROM L2C: 0
L1I SPEC fills:          0  NON-SPEC fills:          0
L1I Test counter :          0
L1I Leapfrog:          0
L1I MSHR merge:          0
L1I TOTAL     ACCESS:   24825396  HIT:   24825396  MISS:          0  HIT %:        100  MISS %:          0   MPKI: 0
L1I LOAD      TOTAL       ACCESS:   24825396  HIT:   24825396  MISS:          0  HIT %:        100  MISS %:          0   MPKI: 0
L1I LOAD      NON_SPEC    ACCESS:   24825396  HIT:   24825396  MISS:          0  HIT %:        100  MISS %:          0   MPKI: 0
L1I PREFETCH  REQUESTED:          0  ISSUED:          0  USEFUL:          0  USELESS:          0
L1I USEFUL LOAD PREFETCHES:          0 PREFETCH ISSUED TO LOWER LEVEL:          0  ACCURACY: -nan
L1I TIMELY PREFETCHES:          0 LATE PREFETCHES: 0 DROPPED PREFETCHES: 0
L1I COMMIT LATE PREFETCHES: 0 MISSED OPPORTUNITY: 0 LATE IN PQ: 0 UNCOVERED: 0
L1I COMMIT LATE MSHR PREFETCHES: 0
L1I MPKI TOTAL: 0 MSHR LATE: 0 PQ LATE: 0 COMMIT LATE: 0 MISSED OPPORTUNITY: 0 UNCOVERED: 0
L1I PREFETCHES SAME FILL-ORIGIN LEVEL: 0 DIFFERENT FILL-ORIGIN LEVEL: 0
L1I AVERAGE MISS LATENCY: -nan cycles
L1I AVERAGE MISS LATENCY LOAD: -nan cycles
L1I AVERAGE MISS LATENCY PREFETCH: -nan cycles
L1I AVERAGE MSHR OCCUPANCY: 0
L1I MSHR FULL: 0
L1I RQ	ACCESS:   38834360	FORWARD:          0	MERGED:   14008962	TO_CACHE:   24825398

BTB SPEC fills:          0  NON-SPEC fills:          0
BTB Test counter :          0
BTB Leapfrog:          0
BTB MSHR merge:          0
BTB TOTAL     ACCESS:   29059515  HIT:   29059368  MISS:        147  HIT %:    99.9995  MISS %: 0.000505858   MPKI: 0.000735
BTB BRANCH_DIRECT_JUMP	ACCESS:    9220889  HIT:    9220848  MISS:         41
BTB BRANCH_INDIRECT	ACCESS:          0  HIT:          0  MISS:          0
BTB BRANCH_CONDITIONAL	ACCESS:   19836026  HIT:   19835944  MISS:         82
BTB BRANCH_DIRECT_CALL	ACCESS:       1300  HIT:       1290  MISS:         10
BTB BRANCH_INDIRECT_CALL	ACCESS:          0  HIT:          0  MISS:          0
BTB BRANCH_RETURN	ACCESS:       1300  HIT:       1286  MISS:         14
BTB BRANCH_OTHER ACCESS:          0  HIT:          0  MISS:          0

L2C SPEC fills:          0  NON-SPEC fills:    1136548
L2C Test counter :          0
L2C Leapfrog:          0
L2C MSHR merge:      72946
L2C TOTAL     ACCESS:   22680074  HIT:    7304657  MISS:   15375417  HIT %:    32.2074  MISS %:    67.7926   MPKI: 76.8771
L2C LOAD      TOTAL       ACCESS:    9215886  HIT:    2356408  MISS:    6859478  HIT %:     25.569  MISS %:     74.431   MPKI: 34.2974
L2C LOAD      NON_SPEC    ACCESS:    1723222  HIT:     586674  MISS:    1136548  HIT %:    34.0452  MISS %:    65.9548   MPKI: 5.68274
L2C LOAD      SPEC        ACCESS:    7492664  HIT:    1769734  MISS:    5722930  HIT %:    23.6196  MISS %:    76.3804   MPKI: 28.6146
L2C RFO       NON_SPEC    ACCESS:     475741  HIT:     300674  MISS:     175067  HIT %:    63.2012  MISS %:    36.7988   MPKI: 0.875335
L2C PREFETCH  NON_SPEC    ACCESS:    3852560  HIT:    1285379  MISS:    2567181  HIT %:    33.3643  MISS %:    66.6357   MPKI: 12.8359
L2C WRITEBACK NON_SPEC    ACCESS:     808902  HIT:     805161  MISS:       3741  HIT %:    99.5375  MISS %:   0.462479   MPKI: 0.018705
L2C CLEAN_EVICTION NON_SPEC    ACCESS:    5746572  HIT:      94766  MISS:    5651806  HIT %:    1.64909  MISS %:    98.3509   MPKI: 28.259
L2C COMMIT LOAD NON_SPEC    ACCESS:     118281  HIT:      46538  MISS:      71743  HIT %:    39.3453  MISS %:    60.6547   MPKI: 0.358715
L2C LOAD TRANSLATION NON_SPEC    ACCESS:     290223  HIT:     248211  MISS:      42012  HIT %:    85.5242  MISS %:    14.4758   MPKI: 0.21006
L2C TRANSLATION FROM L1D PREFETCHER NON_SPEC    ACCESS:    2171909  HIT:    2167520  MISS:       4389  HIT %:    99.7979  MISS %:    0.20208   MPKI: 0.021945
L2C PREFETCH  REQUESTED:          0  ISSUED:          0  USEFUL:     268941  USELESS:    2302927
L2C USEFUL LOAD PREFETCHES:     268941 PREFETCH ISSUED TO LOWER LEVEL:    2640162  ACCURACY: 10.1865
L2C TIMELY PREFETCHES:     268941 LATE PREFETCHES: 72981 DROPPED PREFETCHES: 0
L2C COMMIT LATE PREFETCHES: 0 MISSED OPPORTUNITY: 0 LATE IN PQ: 0 UNCOVERED: 0
L2C COMMIT LATE MSHR PREFETCHES: 0
L2C MPKI TOTAL: 34.2974 MSHR LATE: 0.364905 PQ LATE: 0 COMMIT LATE: 0 MISSED OPPORTUNITY: 0 UNCOVERED: 0
L2C PREFETCHES SAME FILL-ORIGIN LEVEL: 1570701 DIFFERENT FILL-ORIGIN LEVEL: 0
L2C AVERAGE MISS LATENCY: 77.5879 cycles
L2C AVERAGE MISS LATENCY LOAD: 89.1934 cycles
L2C AVERAGE MISS LATENCY PREFETCH: 207.805 cycles
L2C AVERAGE MSHR OCCUPANCY: 2.38502
L2C MSHR FULL: 8.10725e-05
L2C RQ	ACCESS:   12273643	FORWARD:          0	MERGED:          0	TO_CACHE:   12272043
L2C WQ	ACCESS:    6555474	FORWARD:       1605	MERGED:          0	TO_CACHE:    6555474
L2C PQ	ACCESS:    4216032	FORWARD:          0	MERGED:       3661	TO_CACHE:    4212366

L2C Instructions Evicting Data 0
L2C Translations Evicting Data 46171
L2C Data Evicting Data 3933279
L2C Instructions Evicting Instructions 0
L2C Translations Evicting Instructions 0
L2C Data Evicting Instructions 0
L2C Instructions Evicting Translations 0
L2C Translations Evicting Translations 230
L2C Data Evicting Translations 17260
L2C Dense regions hint from L2: 0
PSCL5 SPEC fills:          0  NON-SPEC fills:          0
PSCL5 Test counter :          0
PSCL5 Leapfrog:          0
PSCL5 MSHR merge:          0
PSCL5 TOTAL     ACCESS:          0  HIT:          0  MISS:          0  HIT %:       -nan  MISS %:       -nan   MPKI: 0
PSCL5 PREFETCH  REQUESTED:          0  ISSUED:          0  USEFUL:          0  USELESS:          0
PSCL5 USEFUL LOAD PREFETCHES:          0 PREFETCH ISSUED TO LOWER LEVEL:          0  ACCURACY: -nan
PSCL5 TIMELY PREFETCHES:          0 LATE PREFETCHES: 0 DROPPED PREFETCHES: 0
PSCL5 COMMIT LATE PREFETCHES: 0 MISSED OPPORTUNITY: 0 LATE IN PQ: 0 UNCOVERED: 0
PSCL5 COMMIT LATE MSHR PREFETCHES: 0
PSCL5 MPKI TOTAL: 0 MSHR LATE: 0 PQ LATE: 0 COMMIT LATE: 0 MISSED OPPORTUNITY: 0 UNCOVERED: 0
PSCL5 PREFETCHES SAME FILL-ORIGIN LEVEL: 0 DIFFERENT FILL-ORIGIN LEVEL: 0

PSCL4 SPEC fills:          0  NON-SPEC fills:          0
PSCL4 Test counter :          0
PSCL4 Leapfrog:          0
PSCL4 MSHR merge:          0
PSCL4 TOTAL     ACCESS:          0  HIT:          0  MISS:          0  HIT %:       -nan  MISS %:       -nan   MPKI: 0
PSCL4 PREFETCH  REQUESTED:          0  ISSUED:          0  USEFUL:          0  USELESS:          0
PSCL4 USEFUL LOAD PREFETCHES:          0 PREFETCH ISSUED TO LOWER LEVEL:          0  ACCURACY: -nan
PSCL4 TIMELY PREFETCHES:          0 LATE PREFETCHES: 0 DROPPED PREFETCHES: 0
PSCL4 COMMIT LATE PREFETCHES: 0 MISSED OPPORTUNITY: 0 LATE IN PQ: 0 UNCOVERED: 0
PSCL4 COMMIT LATE MSHR PREFETCHES: 0
PSCL4 MPKI TOTAL: 0 MSHR LATE: 0 PQ LATE: 0 COMMIT LATE: 0 MISSED OPPORTUNITY: 0 UNCOVERED: 0
PSCL4 PREFETCHES SAME FILL-ORIGIN LEVEL: 0 DIFFERENT FILL-ORIGIN LEVEL: 0

PSCL3 SPEC fills:          0  NON-SPEC fills:          0
PSCL3 Test counter :          0
PSCL3 Leapfrog:          0
PSCL3 MSHR merge:          0
PSCL3 TOTAL     ACCESS:          0  HIT:          0  MISS:          0  HIT %:       -nan  MISS %:       -nan   MPKI: 0
PSCL3 PREFETCH  REQUESTED:          0  ISSUED:          0  USEFUL:          0  USELESS:          0
PSCL3 USEFUL LOAD PREFETCHES:          0 PREFETCH ISSUED TO LOWER LEVEL:          0  ACCURACY: -nan
PSCL3 TIMELY PREFETCHES:          0 LATE PREFETCHES: 0 DROPPED PREFETCHES: 0
PSCL3 COMMIT LATE PREFETCHES: 0 MISSED OPPORTUNITY: 0 LATE IN PQ: 0 UNCOVERED: 0
PSCL3 COMMIT LATE MSHR PREFETCHES: 0
PSCL3 MPKI TOTAL: 0 MSHR LATE: 0 PQ LATE: 0 COMMIT LATE: 0 MISSED OPPORTUNITY: 0 UNCOVERED: 0
PSCL3 PREFETCHES SAME FILL-ORIGIN LEVEL: 0 DIFFERENT FILL-ORIGIN LEVEL: 0

PSCL2 SPEC fills:          0  NON-SPEC fills:          0
PSCL2 Test counter :          0
PSCL2 Leapfrog:          0
PSCL2 MSHR merge:          0
PSCL2 TOTAL     ACCESS:          0  HIT:          0  MISS:          0  HIT %:       -nan  MISS %:       -nan   MPKI: 0
PSCL2 PREFETCH  REQUESTED:          0  ISSUED:          0  USEFUL:          0  USELESS:          0
PSCL2 USEFUL LOAD PREFETCHES:          0 PREFETCH ISSUED TO LOWER LEVEL:          0  ACCURACY: -nan
PSCL2 TIMELY PREFETCHES:          0 LATE PREFETCHES: 0 DROPPED PREFETCHES: 0
PSCL2 COMMIT LATE PREFETCHES: 0 MISSED OPPORTUNITY: 0 LATE IN PQ: 0 UNCOVERED: 0
PSCL2 COMMIT LATE MSHR PREFETCHES: 0
PSCL2 MPKI TOTAL: 0 MSHR LATE: 0 PQ LATE: 0 COMMIT LATE: 0 MISSED OPPORTUNITY: 0 UNCOVERED: 0
PSCL2 PREFETCHES SAME FILL-ORIGIN LEVEL: 0 DIFFERENT FILL-ORIGIN LEVEL: 0

LLC SPEC fills:          0  NON-SPEC fills:     456776
LLC Test counter :          0
LLC Leapfrog:          0
LLC MSHR merge:          0
LLC TOTAL     ACCESS:   15740808  HIT:    7864345  MISS:    7876463  HIT %:    49.9615  MISS %:    50.0385   MPKI: 39.3823
LLC LOAD      TOTAL       ACCESS:    6786498  HIT:    4018174  MISS:    2768324  HIT %:    59.2084  MISS %:    40.7916   MPKI: 13.8416
LLC LOAD      NON_SPEC    ACCESS:    1131157  HIT:     674381  MISS:     456776  HIT %:    59.6187  MISS %:    40.3813   MPKI: 2.28388
LLC LOAD      SPEC        ACCESS:    5655341  HIT:    3343793  MISS:    2311548  HIT %:    59.1263  MISS %:    40.8737   MPKI: 11.5577
LLC RFO       NON_SPEC    ACCESS:     175066  HIT:      72117  MISS:     102949  HIT %:    41.1942  MISS %:    58.8058   MPKI: 0.514745
LLC PREFETCH  NON_SPEC    ACCESS:    2640162  HIT:     348703  MISS:    2291459  HIT %:    13.2076  MISS %:    86.7924   MPKI: 11.4573
LLC WRITEBACK NON_SPEC    ACCESS:     306609  HIT:     298360  MISS:       8249  HIT %:    97.3096  MISS %:     2.6904   MPKI: 0.041245
LLC CLEAN_EVICTION NON_SPEC    ACCESS:    5714380  HIT:    3053367  MISS:    2661013  HIT %:     53.433  MISS %:     46.567   MPKI: 13.3051
LLC COMMIT LOAD NON_SPEC    ACCESS:      71692  HIT:      62334  MISS:       9358  HIT %:    86.9469  MISS %:    13.0531   MPKI: 0.04679
LLC LOAD TRANSLATION NON_SPEC    ACCESS:      42012  HIT:      10890  MISS:      31122  HIT %:    25.9212  MISS %:    74.0788   MPKI: 0.15561
LLC TRANSLATION FROM L1D PREFETCHER NON_SPEC    ACCESS:       4389  HIT:        400  MISS:       3989  HIT %:    9.11369  MISS %:    90.8863   MPKI: 0.019945
LLC PREFETCH  REQUESTED:          0  ISSUED:          0  USEFUL:     174461  USELESS:    2120976
LLC USEFUL LOAD PREFETCHES:     174461 PREFETCH ISSUED TO LOWER LEVEL:    2291459  ACCURACY: 7.61353
LLC TIMELY PREFETCHES:     174461 LATE PREFETCHES: 0 DROPPED PREFETCHES: 0
LLC COMMIT LATE PREFETCHES: 0 MISSED OPPORTUNITY: 0 LATE IN PQ: 0 UNCOVERED: 0
LLC COMMIT LATE MSHR PREFETCHES: 0
LLC MPKI TOTAL: 13.8416 MSHR LATE: 0 PQ LATE: 0 COMMIT LATE: 0 MISSED OPPORTUNITY: 0 UNCOVERED: 0
LLC PREFETCHES SAME FILL-ORIGIN LEVEL: 0 DIFFERENT FILL-ORIGIN LEVEL: 0
LLC AVERAGE MISS LATENCY: 122.096 cycles
LLC AVERAGE MISS LATENCY LOAD: 160.174 cycles
LLC AVERAGE MISS LATENCY PREFETCH: 209.243 cycles
LLC AVERAGE MSHR OCCUPANCY: 1.82582
LLC MSHR FULL: 0
LLC RQ	ACCESS:    7079709	FORWARD:          0	MERGED:          0	TO_CACHE:    7079658
LLC WQ	ACCESS:    6020990	FORWARD:         51	MERGED:          0	TO_CACHE:    6020990
LLC PQ	ACCESS:    2640162	FORWARD:          0	MERGED:          0	TO_CACHE:    2640162

LLC Dense regions hint to LLC: 0

RAW hits: 62631
Loads Generated: 76780000
Loads sent to L1D: 76717367
Stores Generated: 2230585
Stores sent to L1D: 2230588
Major fault: 0 Minor fault: 36865
Allocated PAGES: 36865
Total Load insts: 93541790
Total Non-spec loads: 6332648
Percentage of speculative loads: 93.2301

LeapFrogging counter: 412574
Commit hits: 24211812 miss: 47239037
Commit hit %: 33.886 miss %: 66.114
Commits not translated: 0
Loads retired: 9244848
Stores retired: 2230588
Cache fills: 9244848
L1D response latency: 79.1675 cycles
Load retirement latency: 160.565 cycles
OOO test counter: 0
Discarded buffer inserts: 24211812 hits: 27947 hit %: 0.115427
Filter prediction accuracy: 99.8647
LATENCY_FILL: 78.8212 9234688

DRAM Statistics
 CHANNEL 0
 RQ ROW_BUFFER_HIT:    1108961  ROW_BUFFER_MISS:    4097318
 DBUS_CONGESTED:       3536
 WQ ROW_BUFFER_HIT:    1226798  ROW_BUFFER_MISS:    1936477  FULL:       6348

 AVG_CONGESTED_CYCLE: 5
 All warmup complete: 2
Channel 0 Bank busy for read cycles: 0
Channel 0 Bank busy for write cycles: 0
Channel 0
Rank 0
0banks busy for read cycles: 11484482
0banks busy for write cycles: 95626
1banks busy for read cycles: 132056686
1banks busy for write cycles: 17050042
2banks busy for read cycles: 84706182
2banks busy for write cycles: 18401052
3banks busy for read cycles: 46926249
3banks busy for write cycles: 18322053
4banks busy for read cycles: 20401199
4banks busy for write cycles: 18120733
5banks busy for read cycles: 8230706
5banks busy for write cycles: 18224362
6banks busy for read cycles: 4490707
6banks busy for write cycles: 18828413
7banks busy for read cycles: 3519439
7banks busy for write cycles: 21372932
8banks busy for read cycles: 7232613
8banks busy for write cycles: 30701779

CPU 0 Branch Prediction Accuracy: 97.7755% MPKI: 3.30878 Average ROB Occupancy at Mispredict: 161.312
Branch types
NOT_BRANCH: 170251427 85.1257%
BRANCH_DIRECT_JUMP: 9220889 4.61044%
BRANCH_INDIRECT: 0 0%
BRANCH_CONDITIONAL: 20524871 10.2624%
BRANCH_DIRECT_CALL: 1300 0.00065%
BRANCH_INDIRECT_CALL: 0 0%
BRANCH_RETURN: 1300 0.00065%
BRANCH_OTHER: 0 0%

DRAM PAGES: 1048576
Allocated PAGES: 36865
