
*** ChampSim Multicore Out-of-Order Simulator ***

Warmup Instructions: 50000000
Simulation Instructions: 200000000
Number of CPUs: 1
LLC sets: 2048
LLC ways: 16
L0D sets: 16
L0D ways: 2
ROB size: 352
LQ size: 128
SQ size: 72
Secure Berti: OFF
Berti: OFF
Berti Fill: OFF
On commit prefetching: OFF
Hit-based filter: ON
Time-guarding: ON
Free-slotting: ON
Leap-frogging: ON
Train prefetcher on L0D bypass: OFF
No translation penalty for prefetchers: OFF
Prefetch to L0D only: OFF
Prefetch to L1D only: OFF
Clean evictions: ON
Commit loads: ON
Commit write: ON
Fill commit loads to L2C, LLC: ON
DRAM IO FREQUENCY: 6400
ROB SIZE: 352
Off-chip DRAM Size: 4096 MB Channels: 1 Width: 64-bit Data Rate: 6400 MT/s
CPU 0 runs /home/sumon/secure_berti/GhostMinion/../../traces/gap/sssp-10.trace.gz
.gz
BTB has LRU replacement policy
ITLB has LRU replacement policy
DTLB has LRU replacement policy
STLB has LRU replacement policy
L1I has LRU replacement policy
L0D has LRU replacement policy
History Sets: 8
History Ways: 16
BERTI Size: 16
BERTI Stride Size: 16
L1D has LRU replacement policy
L2C has LRU replacement policy
LLC has LRU replacement policy
Heartbeat CPU 0 instructions: 10000000 cycles: 3950139 heartbeat IPC: 2.53156 cumulative IPC: 2.53156 (Simulation time: 0 hr 0 min 31 sec) 
Heartbeat CPU 0 instructions: 20000001 cycles: 7773193 heartbeat IPC: 2.61571 cumulative IPC: 2.57295 (Simulation time: 0 hr 1 min 5 sec) 
Heartbeat CPU 0 instructions: 30000003 cycles: 11549682 heartbeat IPC: 2.64796 cumulative IPC: 2.59747 (Simulation time: 0 hr 1 min 39 sec) 
Heartbeat CPU 0 instructions: 40000002 cycles: 15297018 heartbeat IPC: 2.66856 cumulative IPC: 2.61489 (Simulation time: 0 hr 2 min 12 sec) 
Heartbeat CPU 0 instructions: 50000001 cycles: 19025271 heartbeat IPC: 2.68222 cumulative IPC: 2.62808 (Simulation time: 0 hr 2 min 45 sec) 

Warmup complete CPU 0 instructions: 50000001 cycles: 19025271 (Simulation time: 0 hr 2 min 45 sec) 

Heartbeat CPU 0 instructions: 60000000 cycles: 46266181 heartbeat IPC: 0.367095 cumulative IPC: 0.367095 (Simulation time: 0 hr 3 min 30 sec) 
Heartbeat CPU 0 instructions: 70000000 cycles: 72426637 heartbeat IPC: 0.382256 cumulative IPC: 0.374522 (Simulation time: 0 hr 4 min 15 sec) 
Heartbeat CPU 0 instructions: 80000001 cycles: 98178896 heartbeat IPC: 0.388315 cumulative IPC: 0.37901 (Simulation time: 0 hr 4 min 59 sec) 
Heartbeat CPU 0 instructions: 90000000 cycles: 122487777 heartbeat IPC: 0.411372 cumulative IPC: 0.386613 (Simulation time: 0 hr 5 min 44 sec) 
Heartbeat CPU 0 instructions: 100000000 cycles: 147355146 heartbeat IPC: 0.402133 cumulative IPC: 0.389621 (Simulation time: 0 hr 6 min 29 sec) 
Heartbeat CPU 0 instructions: 110000000 cycles: 171677768 heartbeat IPC: 0.41114 cumulative IPC: 0.39305 (Simulation time: 0 hr 7 min 15 sec) 
Heartbeat CPU 0 instructions: 120000003 cycles: 196055531 heartbeat IPC: 0.41021 cumulative IPC: 0.395413 (Simulation time: 0 hr 8 min 0 sec) 
Heartbeat CPU 0 instructions: 130000002 cycles: 219773618 heartbeat IPC: 0.421619 cumulative IPC: 0.398509 (Simulation time: 0 hr 8 min 47 sec) 
Heartbeat CPU 0 instructions: 140000002 cycles: 243373918 heartbeat IPC: 0.423723 cumulative IPC: 0.401161 (Simulation time: 0 hr 9 min 39 sec) 
Heartbeat CPU 0 instructions: 150000000 cycles: 267378001 heartbeat IPC: 0.416596 cumulative IPC: 0.402653 (Simulation time: 0 hr 10 min 32 sec) 
Heartbeat CPU 0 instructions: 160000001 cycles: 290771696 heartbeat IPC: 0.427466 cumulative IPC: 0.404789 (Simulation time: 0 hr 11 min 25 sec) 
Heartbeat CPU 0 instructions: 170000002 cycles: 314329148 heartbeat IPC: 0.424494 cumulative IPC: 0.406361 (Simulation time: 0 hr 12 min 18 sec) 
Heartbeat CPU 0 instructions: 180000001 cycles: 338233333 heartbeat IPC: 0.418337 cumulative IPC: 0.407258 (Simulation time: 0 hr 13 min 11 sec) 
Heartbeat CPU 0 instructions: 190000002 cycles: 361906338 heartbeat IPC: 0.422422 cumulative IPC: 0.408305 (Simulation time: 0 hr 14 min 4 sec) 
Heartbeat CPU 0 instructions: 200000003 cycles: 384424453 heartbeat IPC: 0.444087 cumulative IPC: 0.41051 (Simulation time: 0 hr 14 min 55 sec) 
Heartbeat CPU 0 instructions: 210000003 cycles: 407283336 heartbeat IPC: 0.437467 cumulative IPC: 0.412097 (Simulation time: 0 hr 15 min 46 sec) 
Heartbeat CPU 0 instructions: 220000000 cycles: 430167170 heartbeat IPC: 0.43699 cumulative IPC: 0.413483 (Simulation time: 0 hr 16 min 38 sec) 
Heartbeat CPU 0 instructions: 230000001 cycles: 452603512 heartbeat IPC: 0.445706 cumulative IPC: 0.41515 (Simulation time: 0 hr 17 min 27 sec) 
Heartbeat CPU 0 instructions: 240000001 cycles: 475015628 heartbeat IPC: 0.446187 cumulative IPC: 0.416675 (Simulation time: 0 hr 18 min 16 sec) 
Heartbeat CPU 0 instructions: 250000000 cycles: 497502253 heartbeat IPC: 0.444709 cumulative IPC: 0.417993 (Simulation time: 0 hr 19 min 4 sec) 
Finished CPU 0 instructions: 200000003 cycles: 478476983 cumulative IPC: 0.417993 (Simulation time: 0 hr 19 min 4 sec) 
 Instruction ID: 250000054

ChampSim completed all CPUs

Region of Interest Statistics

CPU 0 cumulative IPC: 0.417993 instructions: 200000003 cycles: 478476983
ITLB SPEC fills:          0  NON-SPEC fills:          0
ITLB Test counter :          0
ITLB Leapfrog:          0
ITLB MSHR merge:          0
ITLB TOTAL     ACCESS:   24159803  HIT:   24159803  MISS:          0  HIT %:        100  MISS %:          0   MPKI: 0
ITLB LOAD TRANSLATION NON_SPEC    ACCESS:   24159803  HIT:   24159803  MISS:          0  HIT %:        100  MISS %:          0   MPKI: 0
ITLB PREFETCH  REQUESTED:          0  ISSUED:          0  USEFUL:          0  USELESS:          0
ITLB USEFUL LOAD PREFETCHES:          0 PREFETCH ISSUED TO LOWER LEVEL:          0  ACCURACY: -nan
ITLB TIMELY PREFETCHES:          0 LATE PREFETCHES: 0 DROPPED PREFETCHES: 0
ITLB COMMIT LATE PREFETCHES: 0 MISSED OPPORTUNITY: 0 LATE IN PQ: 0 UNCOVERED: 0
ITLB COMMIT LATE MSHR PREFETCHES: 0
ITLB MPKI TOTAL: 0 MSHR LATE: 0 PQ LATE: 0 COMMIT LATE: 0 MISSED OPPORTUNITY: 0 UNCOVERED: 0
ITLB PREFETCHES SAME FILL-ORIGIN LEVEL: 0 DIFFERENT FILL-ORIGIN LEVEL: 0
ITLB AVERAGE MISS LATENCY: -nan cycles
ITLB AVERAGE MISS LATENCY LOAD: -nan cycles
ITLB AVERAGE MISS LATENCY PREFETCH: -nan cycles
ITLB AVERAGE MSHR OCCUPANCY: 0
ITLB MSHR FULL: 0
ITLB RQ	ACCESS:   24824100	FORWARD:          0	MERGED:     664297	TO_CACHE:   24159803

DTLB SPEC fills:          0  NON-SPEC fills:          0
DTLB Test counter :          0
DTLB Leapfrog:          0
DTLB MSHR merge:          0
DTLB TOTAL     ACCESS:   48403520  HIT:   43728553  MISS:    4674967  HIT %:    90.3417  MISS %:    9.65832   MPKI: 23.3748
DTLB LOAD TRANSLATION NON_SPEC    ACCESS:   48403520  HIT:   43728553  MISS:    4674967  HIT %:    90.3417  MISS %:    9.65832   MPKI: 23.3748
DTLB PREFETCH  REQUESTED:          0  ISSUED:          0  USEFUL:          0  USELESS:          0
DTLB USEFUL LOAD PREFETCHES:          0 PREFETCH ISSUED TO LOWER LEVEL:          0  ACCURACY: -nan
DTLB TIMELY PREFETCHES:          0 LATE PREFETCHES: 0 DROPPED PREFETCHES: 0
DTLB COMMIT LATE PREFETCHES: 0 MISSED OPPORTUNITY: 0 LATE IN PQ: 0 UNCOVERED: 0
DTLB COMMIT LATE MSHR PREFETCHES: 0
DTLB MPKI TOTAL: 0 MSHR LATE: 0 PQ LATE: 0 COMMIT LATE: 0 MISSED OPPORTUNITY: 0 UNCOVERED: 0
DTLB PREFETCHES SAME FILL-ORIGIN LEVEL: 0 DIFFERENT FILL-ORIGIN LEVEL: 0
DTLB AVERAGE MISS LATENCY: 12.1792 cycles
DTLB AVERAGE MISS LATENCY LOAD: -nan cycles
DTLB AVERAGE MISS LATENCY PREFETCH: -nan cycles
DTLB AVERAGE MSHR OCCUPANCY: 0.233419
DTLB MSHR FULL: 4.09882e-07
DTLB RQ	ACCESS:   52786758	FORWARD:          0	MERGED:    3992245	TO_CACHE:   48794513

STLB SPEC fills:          0  NON-SPEC fills:          0
STLB Test counter :          0
STLB Leapfrog:          0
STLB MSHR merge:          0
STLB TOTAL     ACCESS:    8636160  HIT:    8574229  MISS:      61931  HIT %:    99.2829  MISS %:   0.717113   MPKI: 0.309655
STLB LOAD TRANSLATION NON_SPEC    ACCESS:    4674967  HIT:    4615831  MISS:      59136  HIT %:     98.735  MISS %:    1.26495   MPKI: 0.29568
STLB TRANSLATION FROM L1D PREFETCHER NON_SPEC    ACCESS:    3961193  HIT:    3958398  MISS:       2795  HIT %:    99.9294  MISS %:  0.0705596   MPKI: 0.013975
STLB PREFETCH  REQUESTED:          0  ISSUED:          0  USEFUL:       2678  USELESS:        116
STLB USEFUL LOAD PREFETCHES:       2678 PREFETCH ISSUED TO LOWER LEVEL:          0  ACCURACY: inf
STLB TIMELY PREFETCHES:       2678 LATE PREFETCHES: 7965 DROPPED PREFETCHES: 421429
STLB COMMIT LATE PREFETCHES: 0 MISSED OPPORTUNITY: 0 LATE IN PQ: 0 UNCOVERED: 0
STLB COMMIT LATE MSHR PREFETCHES: 0
STLB MPKI TOTAL: 0 MSHR LATE: 0.039825 PQ LATE: 0 COMMIT LATE: 0 MISSED OPPORTUNITY: 0 UNCOVERED: 0
STLB PREFETCHES SAME FILL-ORIGIN LEVEL: 0 DIFFERENT FILL-ORIGIN LEVEL: 0
STLB AVERAGE MISS LATENCY: 231.118 cycles
STLB AVERAGE MISS LATENCY LOAD: -nan cycles
STLB AVERAGE MISS LATENCY PREFETCH: -nan cycles
STLB AVERAGE MSHR OCCUPANCY: 0.141166
STLB MSHR FULL: 0
STLB RQ	ACCESS:   28135162	FORWARD:          0	MERGED:   18954869	TO_CACHE:    9180293

STLB Hit, L1D data hit: 0
STLB Hit, L2C data hit: 0
STLB Hit, LLC data hit: 0
STLB Hit, LLC data miss: 0
STLB STLB hints to L2: 0
L0D SPEC fills:   26383061  NON-SPEC fills:          0
L0D TimeGuard Request with older TS:    2316506 Restricted eviction:     236190 read:    4306354
L0D Test counter :          0
L0D Leapfrog:          0
L0D MSHR merge:    1995122
L0D TOTAL     ACCESS:   48574865  HIT:   16906332  MISS:   31668533  HIT %:    34.8047  MISS %:    65.1953   MPKI: 158.343
L0D LOAD      TOTAL       ACCESS:   48574865  HIT:   16906332  MISS:   31668533  HIT %:    34.8047  MISS %:    65.1953   MPKI: 158.343
L0D LOAD      NON_SPEC    ACCESS:    5136847  HIT:      87565  MISS:    5049282  HIT %:    1.70464  MISS %:    98.2954   MPKI: 25.2464
L0D LOAD      SPEC        ACCESS:   43438018  HIT:   16818767  MISS:   26619251  HIT %:     38.719  MISS %:     61.281   MPKI: 133.096
L0D PREFETCH  REQUESTED:          0  ISSUED:          0  USEFUL:          0  USELESS:          0
L0D USEFUL LOAD PREFETCHES:          0 PREFETCH ISSUED TO LOWER LEVEL:          0  ACCURACY: -nan
L0D TIMELY PREFETCHES:          0 LATE PREFETCHES: 0 DROPPED PREFETCHES: 0
L0D COMMIT LATE PREFETCHES: 0 MISSED OPPORTUNITY: 0 LATE IN PQ: 0 UNCOVERED: 0
L0D COMMIT LATE MSHR PREFETCHES: 0
L0D MPKI TOTAL: 168.318 MSHR LATE: 0 PQ LATE: 0 COMMIT LATE: 0 MISSED OPPORTUNITY: 0 UNCOVERED: 0
L0D PREFETCHES SAME FILL-ORIGIN LEVEL: 0 DIFFERENT FILL-ORIGIN LEVEL: 0
L0D AVERAGE MISS LATENCY: 28.0722 cycles
L0D AVERAGE MISS LATENCY LOAD: 28.0722 cycles
L0D AVERAGE MISS LATENCY PREFETCH: -nan cycles
L0D AVERAGE MSHR OCCUPANCY: 2.00799
L0D MSHR FULL: 0.029576
L0D RQ	ACCESS:   76742461	FORWARD:          0	MERGED:   26172475	TO_CACHE:   50569986
L0D WQ	ACCESS:    2216772	FORWARD:          0	MERGED:          0	TO_CACHE:    2216772

L1D SPEC fills:          0  NON-SPEC fills:    1713840
L1D Test counter :          0
L1D Leapfrog:          0
L1D MSHR merge:      31393
L1D TOTAL     ACCESS:   60400422  HIT:   41871330  MISS:   18529092  HIT %:    69.3229  MISS %:    30.6771   MPKI: 92.6455
L1D LOAD      TOTAL       ACCESS:   31667855  HIT:   22441742  MISS:    9226113  HIT %:     70.866  MISS %:     29.134   MPKI: 46.1306
L1D LOAD      NON_SPEC    ACCESS:    5048732  HIT:    3334892  MISS:    1713840  HIT %:    66.0541  MISS %:    33.9459   MPKI: 8.5692
L1D LOAD      SPEC        ACCESS:   26619123  HIT:   19106850  MISS:    7512273  HIT %:    71.7787  MISS %:    28.2213   MPKI: 37.5614
L1D RFO       NON_SPEC    ACCESS:    2024587  HIT:    1550788  MISS:     473799  HIT %:    76.5977  MISS %:    23.4023   MPKI: 2.36899
L1D PREFETCH  NON_SPEC    ACCESS:   18802484  HIT:   17499150  MISS:    1303334  HIT %:    93.0683  MISS %:    6.93171   MPKI: 6.51667
L1D COMMIT LOAD NON_SPEC    ACCESS:     474488  HIT:     356237  MISS:     118251  HIT %:    75.0782  MISS %:    24.9218   MPKI: 0.591255
L1D COMMIT WRITE NON_SPEC    ACCESS:    7431008  HIT:      23413  MISS:    7407595  HIT %:   0.315072  MISS %:    99.6849   MPKI: 37.038
L1D PREFETCH  REQUESTED:   29642407  ISSUED:   29371097  USEFUL:    1155314  USELESS:     148020
L1D USEFUL LOAD PREFETCHES:    1155314 PREFETCH ISSUED TO LOWER LEVEL:    4088468  ACCURACY: 28.2579
L1D TIMELY PREFETCHES:    1155314 LATE PREFETCHES: 30758 DROPPED PREFETCHES: 1312529
L1D COMMIT LATE PREFETCHES: 0 MISSED OPPORTUNITY: 0 LATE IN PQ: 0 UNCOVERED: 0
L1D COMMIT LATE MSHR PREFETCHES: 0
L1D MPKI TOTAL: 46.134 MSHR LATE: 0.15379 PQ LATE: 0 COMMIT LATE: 0 MISSED OPPORTUNITY: 0 UNCOVERED: 0
L1D PREFETCHES SAME FILL-ORIGIN LEVEL: 1334094 DIFFERENT FILL-ORIGIN LEVEL: 2754374
L1D AVERAGE MISS LATENCY: 55.0755 cycles
L1D AVERAGE MISS LATENCY LOAD: 78.6765 cycles
L1D AVERAGE MISS LATENCY PREFETCH: 187.832 cycles
L1D AVERAGE MSHR OCCUPANCY: 2.49333
L1D MSHR FULL: 0.055497
L1D RQ	ACCESS:   32397826	FORWARD:          0	MERGED:     249080	TO_CACHE:   32143573
L1D WQ	ACCESS:    9647771	FORWARD:       5173	MERGED:       1154	TO_CACHE:    9646617
L1D PQ	ACCESS:   29371097	FORWARD:          0	MERGED:    5910902	TO_CACHE:   23460195

L1D UNIQUE REGIONS ACCESSED: 0
L1D REGIONS CONFLICTS: 0
L1D Cross Page Prefetch Requests: 3774428
L1D Same Page Prefetch Requests: 31799101
L1D ROI Sum of L1D PQ occupancy: 487149964
L1D PREFETCHES PUSHED FROM L2C: 0
L1I SPEC fills:          0  NON-SPEC fills:          0
L1I Test counter :          0
L1I Leapfrog:          0
L1I MSHR merge:          0
L1I TOTAL     ACCESS:   24824100  HIT:   24824100  MISS:          0  HIT %:        100  MISS %:          0   MPKI: 0
L1I LOAD      TOTAL       ACCESS:   24824100  HIT:   24824100  MISS:          0  HIT %:        100  MISS %:          0   MPKI: 0
L1I LOAD      NON_SPEC    ACCESS:   24824100  HIT:   24824100  MISS:          0  HIT %:        100  MISS %:          0   MPKI: 0
L1I PREFETCH  REQUESTED:          0  ISSUED:          0  USEFUL:          0  USELESS:          0
L1I USEFUL LOAD PREFETCHES:          0 PREFETCH ISSUED TO LOWER LEVEL:          0  ACCURACY: -nan
L1I TIMELY PREFETCHES:          0 LATE PREFETCHES: 0 DROPPED PREFETCHES: 0
L1I COMMIT LATE PREFETCHES: 0 MISSED OPPORTUNITY: 0 LATE IN PQ: 0 UNCOVERED: 0
L1I COMMIT LATE MSHR PREFETCHES: 0
L1I MPKI TOTAL: 0 MSHR LATE: 0 PQ LATE: 0 COMMIT LATE: 0 MISSED OPPORTUNITY: 0 UNCOVERED: 0
L1I PREFETCHES SAME FILL-ORIGIN LEVEL: 0 DIFFERENT FILL-ORIGIN LEVEL: 0
L1I AVERAGE MISS LATENCY: -nan cycles
L1I AVERAGE MISS LATENCY LOAD: -nan cycles
L1I AVERAGE MISS LATENCY PREFETCH: -nan cycles
L1I AVERAGE MSHR OCCUPANCY: 0
L1I MSHR FULL: 0
L1I RQ	ACCESS:   38848606	FORWARD:          0	MERGED:   14024506	TO_CACHE:   24824100

BTB SPEC fills:          0  NON-SPEC fills:          0
BTB Test counter :          0
BTB Leapfrog:          0
BTB MSHR merge:          0
BTB TOTAL     ACCESS:   29056031  HIT:   29055886  MISS:        145  HIT %:    99.9995  MISS %: 0.000499036   MPKI: 0.000725
BTB BRANCH_DIRECT_JUMP	ACCESS:    9225403  HIT:    9225362  MISS:         41
BTB BRANCH_INDIRECT	ACCESS:          0  HIT:          0  MISS:          0
BTB BRANCH_CONDITIONAL	ACCESS:   19828000  HIT:   19827919  MISS:         81
BTB BRANCH_DIRECT_CALL	ACCESS:       1314  HIT:       1305  MISS:          9
BTB BRANCH_INDIRECT_CALL	ACCESS:          0  HIT:          0  MISS:          0
BTB BRANCH_RETURN	ACCESS:       1314  HIT:       1300  MISS:         14
BTB BRANCH_OTHER ACCESS:          0  HIT:          0  MISS:          0

L2C SPEC fills:          0  NON-SPEC fills:    1129494
L2C Test counter :          0
L2C Leapfrog:          0
L2C MSHR merge:      61385
L2C TOTAL     ACCESS:   22494864  HIT:    7340131  MISS:   15154733  HIT %:    32.6303  MISS %:    67.3697   MPKI: 75.7737
L2C LOAD      TOTAL       ACCESS:    9195366  HIT:    2360505  MISS:    6834861  HIT %:    25.6706  MISS %:    74.3294   MPKI: 34.1743
L2C LOAD      NON_SPEC    ACCESS:    1712913  HIT:     583419  MISS:    1129494  HIT %:      34.06  MISS %:      65.94   MPKI: 5.64747
L2C LOAD      SPEC        ACCESS:    7482453  HIT:    1777086  MISS:    5705367  HIT %:      23.75  MISS %:      76.25   MPKI: 28.5268
L2C RFO       NON_SPEC    ACCESS:     473783  HIT:     300856  MISS:     172927  HIT %:    63.5008  MISS %:    36.4992   MPKI: 0.864635
L2C PREFETCH  NON_SPEC    ACCESS:    3725743  HIT:    1334904  MISS:    2390839  HIT %:    35.8292  MISS %:    64.1708   MPKI: 11.9542
L2C WRITEBACK NON_SPEC    ACCESS:     804879  HIT:     801384  MISS:       3495  HIT %:    99.5658  MISS %:   0.434227   MPKI: 0.017475
L2C CLEAN_EVICTION NON_SPEC    ACCESS:    5722534  HIT:      88956  MISS:    5633578  HIT %:    1.55449  MISS %:    98.4455   MPKI: 28.1679
L2C COMMIT LOAD NON_SPEC    ACCESS:     118208  HIT:      45670  MISS:      72538  HIT %:    38.6353  MISS %:    61.3647   MPKI: 0.36269
L2C LOAD TRANSLATION NON_SPEC    ACCESS:     293406  HIT:     251002  MISS:      42404  HIT %:    85.5477  MISS %:    14.4523   MPKI: 0.21202
L2C TRANSLATION FROM L1D PREFETCHER NON_SPEC    ACCESS:    2160945  HIT:    2156854  MISS:       4091  HIT %:    99.8107  MISS %:   0.189315   MPKI: 0.020455
L2C PREFETCH  REQUESTED:          0  ISSUED:          0  USEFUL:     228229  USELESS:    2167740
L2C USEFUL LOAD PREFETCHES:     228229 PREFETCH ISSUED TO LOWER LEVEL:    2452250  ACCURACY: 9.30692
L2C TIMELY PREFETCHES:     228229 LATE PREFETCHES: 61410 DROPPED PREFETCHES: 0
L2C COMMIT LATE PREFETCHES: 0 MISSED OPPORTUNITY: 0 LATE IN PQ: 0 UNCOVERED: 0
L2C COMMIT LATE MSHR PREFETCHES: 0
L2C MPKI TOTAL: 34.1743 MSHR LATE: 0.30705 PQ LATE: 0 COMMIT LATE: 0 MISSED OPPORTUNITY: 0 UNCOVERED: 0
L2C PREFETCHES SAME FILL-ORIGIN LEVEL: 1374242 DIFFERENT FILL-ORIGIN LEVEL: 0
L2C AVERAGE MISS LATENCY: 75.9234 cycles
L2C AVERAGE MISS LATENCY LOAD: 88.5688 cycles
L2C AVERAGE MISS LATENCY PREFETCH: 207.658 cycles
L2C AVERAGE MSHR OCCUPANCY: 2.34942
L2C MSHR FULL: 9.50761e-05
L2C RQ	ACCESS:   12241758	FORWARD:          0	MERGED:          0	TO_CACHE:   12241710
L2C WQ	ACCESS:    6527416	FORWARD:         51	MERGED:          2	TO_CACHE:    6527414
L2C PQ	ACCESS:    4088231	FORWARD:          0	MERGED:       3544	TO_CACHE:    4084684

L2C Instructions Evicting Data 0
L2C Translations Evicting Data 46195
L2C Data Evicting Data 3748686
L2C Instructions Evicting Instructions 0
L2C Translations Evicting Instructions 0
L2C Data Evicting Instructions 0
L2C Instructions Evicting Translations 0
L2C Translations Evicting Translations 300
L2C Data Evicting Translations 17112
L2C Dense regions hint from L2: 0
PSCL5 SPEC fills:          0  NON-SPEC fills:          0
PSCL5 Test counter :          0
PSCL5 Leapfrog:          0
PSCL5 MSHR merge:          0
PSCL5 TOTAL     ACCESS:          0  HIT:          0  MISS:          0  HIT %:       -nan  MISS %:       -nan   MPKI: 0
PSCL5 PREFETCH  REQUESTED:          0  ISSUED:          0  USEFUL:          0  USELESS:          0
PSCL5 USEFUL LOAD PREFETCHES:          0 PREFETCH ISSUED TO LOWER LEVEL:          0  ACCURACY: -nan
PSCL5 TIMELY PREFETCHES:          0 LATE PREFETCHES: 0 DROPPED PREFETCHES: 0
PSCL5 COMMIT LATE PREFETCHES: 0 MISSED OPPORTUNITY: 0 LATE IN PQ: 0 UNCOVERED: 0
PSCL5 COMMIT LATE MSHR PREFETCHES: 0
PSCL5 MPKI TOTAL: 0 MSHR LATE: 0 PQ LATE: 0 COMMIT LATE: 0 MISSED OPPORTUNITY: 0 UNCOVERED: 0
PSCL5 PREFETCHES SAME FILL-ORIGIN LEVEL: 0 DIFFERENT FILL-ORIGIN LEVEL: 0

PSCL4 SPEC fills:          0  NON-SPEC fills:          0
PSCL4 Test counter :          0
PSCL4 Leapfrog:          0
PSCL4 MSHR merge:          0
PSCL4 TOTAL     ACCESS:          0  HIT:          0  MISS:          0  HIT %:       -nan  MISS %:       -nan   MPKI: 0
PSCL4 PREFETCH  REQUESTED:          0  ISSUED:          0  USEFUL:          0  USELESS:          0
PSCL4 USEFUL LOAD PREFETCHES:          0 PREFETCH ISSUED TO LOWER LEVEL:          0  ACCURACY: -nan
PSCL4 TIMELY PREFETCHES:          0 LATE PREFETCHES: 0 DROPPED PREFETCHES: 0
PSCL4 COMMIT LATE PREFETCHES: 0 MISSED OPPORTUNITY: 0 LATE IN PQ: 0 UNCOVERED: 0
PSCL4 COMMIT LATE MSHR PREFETCHES: 0
PSCL4 MPKI TOTAL: 0 MSHR LATE: 0 PQ LATE: 0 COMMIT LATE: 0 MISSED OPPORTUNITY: 0 UNCOVERED: 0
PSCL4 PREFETCHES SAME FILL-ORIGIN LEVEL: 0 DIFFERENT FILL-ORIGIN LEVEL: 0

PSCL3 SPEC fills:          0  NON-SPEC fills:          0
PSCL3 Test counter :          0
PSCL3 Leapfrog:          0
PSCL3 MSHR merge:          0
PSCL3 TOTAL     ACCESS:          0  HIT:          0  MISS:          0  HIT %:       -nan  MISS %:       -nan   MPKI: 0
PSCL3 PREFETCH  REQUESTED:          0  ISSUED:          0  USEFUL:          0  USELESS:          0
PSCL3 USEFUL LOAD PREFETCHES:          0 PREFETCH ISSUED TO LOWER LEVEL:          0  ACCURACY: -nan
PSCL3 TIMELY PREFETCHES:          0 LATE PREFETCHES: 0 DROPPED PREFETCHES: 0
PSCL3 COMMIT LATE PREFETCHES: 0 MISSED OPPORTUNITY: 0 LATE IN PQ: 0 UNCOVERED: 0
PSCL3 COMMIT LATE MSHR PREFETCHES: 0
PSCL3 MPKI TOTAL: 0 MSHR LATE: 0 PQ LATE: 0 COMMIT LATE: 0 MISSED OPPORTUNITY: 0 UNCOVERED: 0
PSCL3 PREFETCHES SAME FILL-ORIGIN LEVEL: 0 DIFFERENT FILL-ORIGIN LEVEL: 0

PSCL2 SPEC fills:          0  NON-SPEC fills:          0
PSCL2 Test counter :          0
PSCL2 Leapfrog:          0
PSCL2 MSHR merge:          0
PSCL2 TOTAL     ACCESS:          0  HIT:          0  MISS:          0  HIT %:       -nan  MISS %:       -nan   MPKI: 0
PSCL2 PREFETCH  REQUESTED:          0  ISSUED:          0  USEFUL:          0  USELESS:          0
PSCL2 USEFUL LOAD PREFETCHES:          0 PREFETCH ISSUED TO LOWER LEVEL:          0  ACCURACY: -nan
PSCL2 TIMELY PREFETCHES:          0 LATE PREFETCHES: 0 DROPPED PREFETCHES: 0
PSCL2 COMMIT LATE PREFETCHES: 0 MISSED OPPORTUNITY: 0 LATE IN PQ: 0 UNCOVERED: 0
PSCL2 COMMIT LATE MSHR PREFETCHES: 0
PSCL2 MPKI TOTAL: 0 MSHR LATE: 0 PQ LATE: 0 COMMIT LATE: 0 MISSED OPPORTUNITY: 0 UNCOVERED: 0
PSCL2 PREFETCHES SAME FILL-ORIGIN LEVEL: 0 DIFFERENT FILL-ORIGIN LEVEL: 0

LLC SPEC fills:          0  NON-SPEC fills:     449744
LLC Test counter :          0
LLC Leapfrog:          0
LLC MSHR merge:          0
LLC TOTAL     ACCESS:   15513753  HIT:    7827975  MISS:    7685778  HIT %:    50.4583  MISS %:    49.5417   MPKI: 38.4289
LLC LOAD      TOTAL       ACCESS:    6773414  HIT:    4030305  MISS:    2743109  HIT %:    59.5018  MISS %:    40.4982   MPKI: 13.7155
LLC LOAD      NON_SPEC    ACCESS:    1125199  HIT:     675455  MISS:     449744  HIT %:    60.0298  MISS %:    39.9702   MPKI: 2.24872
LLC LOAD      SPEC        ACCESS:    5648215  HIT:    3354850  MISS:    2293365  HIT %:    59.3966  MISS %:    40.6034   MPKI: 11.4668
LLC RFO       NON_SPEC    ACCESS:     172926  HIT:      67443  MISS:     105483  HIT %:    39.0011  MISS %:    60.9989   MPKI: 0.527415
LLC PREFETCH  NON_SPEC    ACCESS:    2452248  HIT:     304810  MISS:    2147438  HIT %:    12.4298  MISS %:    87.5702   MPKI: 10.7372
LLC WRITEBACK NON_SPEC    ACCESS:     304023  HIT:     296212  MISS:       7811  HIT %:    97.4308  MISS %:    2.56921   MPKI: 0.039055
LLC CLEAN_EVICTION NON_SPEC    ACCESS:    5692145  HIT:    3055023  MISS:    2637122  HIT %:    53.6709  MISS %:    46.3291   MPKI: 13.1856
LLC COMMIT LOAD NON_SPEC    ACCESS:      72502  HIT:      63236  MISS:       9266  HIT %:    87.2197  MISS %:    12.7803   MPKI: 0.04633
LLC LOAD TRANSLATION NON_SPEC    ACCESS:      42404  HIT:      10712  MISS:      31692  HIT %:    25.2618  MISS %:    74.7382   MPKI: 0.15846
LLC TRANSLATION FROM L1D PREFETCHER NON_SPEC    ACCESS:       4091  HIT:        234  MISS:       3857  HIT %:    5.71987  MISS %:    94.2801   MPKI: 0.019285
LLC PREFETCH  REQUESTED:          0  ISSUED:          0  USEFUL:     154015  USELESS:    1998389
LLC USEFUL LOAD PREFETCHES:     154015 PREFETCH ISSUED TO LOWER LEVEL:    2147439  ACCURACY: 7.17203
LLC TIMELY PREFETCHES:     154015 LATE PREFETCHES: 0 DROPPED PREFETCHES: 0
LLC COMMIT LATE PREFETCHES: 0 MISSED OPPORTUNITY: 0 LATE IN PQ: 0 UNCOVERED: 0
LLC COMMIT LATE MSHR PREFETCHES: 0
LLC MPKI TOTAL: 13.7155 MSHR LATE: 0 PQ LATE: 0 COMMIT LATE: 0 MISSED OPPORTUNITY: 0 UNCOVERED: 0
LLC PREFETCHES SAME FILL-ORIGIN LEVEL: 0 DIFFERENT FILL-ORIGIN LEVEL: 0
LLC AVERAGE MISS LATENCY: 120.258 cycles
LLC AVERAGE MISS LATENCY LOAD: 160.173 cycles
LLC AVERAGE MISS LATENCY PREFETCH: 207.201 cycles
LLC AVERAGE MSHR OCCUPANCY: 1.80136
LLC MSHR FULL: 0
LLC RQ	ACCESS:    7065413	FORWARD:          0	MERGED:          0	TO_CACHE:    7065339
LLC WQ	ACCESS:    5996169	FORWARD:         75	MERGED:          0	TO_CACHE:    5996169
LLC PQ	ACCESS:    2452250	FORWARD:          0	MERGED:          0	TO_CACHE:    2452249

LLC Dense regions hint to LLC: 0

RAW hits: 63257
Loads Generated: 76805718
Loads sent to L1D: 76742461
Stores Generated: 2216772
Stores sent to L1D: 2216772
Major fault: 0 Minor fault: 37080
Allocated PAGES: 37080
Total Load insts: 93563242
Total Non-spec loads: 6302818
Percentage of speculative loads: 93.2636

LeapFrogging counter: 439506
Commit hits: 24204589 miss: 47289992
Commit hit %: 33.8551 miss %: 66.1449
Commits not translated: 0
Loads retired: 9226112
Stores retired: 2216772
Cache fills: 9226113
L1D response latency: 78.6765 cycles
Load retirement latency: 160.474 cycles
OOO test counter: 0
Discarded buffer inserts: 24204589 hits: 23836 hit %: 0.0984772
Filter prediction accuracy: 99.9663
LATENCY_FILL: 78.3132 9215231

DRAM Statistics
 CHANNEL 0
 RQ ROW_BUFFER_HIT:    1011382  ROW_BUFFER_MISS:    4028566
 DBUS_CONGESTED:       3392
 WQ ROW_BUFFER_HIT:    1218669  ROW_BUFFER_MISS:    1900008  FULL:       3994

 AVG_CONGESTED_CYCLE: 5
 All warmup complete: 2
Channel 0 Bank busy for read cycles: 0
Channel 0 Bank busy for write cycles: 0
Channel 0
Rank 0
0banks busy for read cycles: 11949506
0banks busy for write cycles: 99486
1banks busy for read cycles: 132923195
1banks busy for write cycles: 17631831
2banks busy for read cycles: 84974213
2banks busy for write cycles: 18961329
3banks busy for read cycles: 46564292
3banks busy for write cycles: 18808279
4banks busy for read cycles: 19835633
4banks busy for write cycles: 18479813
5banks busy for read cycles: 7529494
5banks busy for write cycles: 18356868
6banks busy for read cycles: 3896693
6banks busy for write cycles: 18777217
7banks busy for read cycles: 2990145
7banks busy for write cycles: 20945264
8banks busy for read cycles: 6888165
8banks busy for write cycles: 28865561

CPU 0 Branch Prediction Accuracy: 97.7909% MPKI: 3.2859 Average ROB Occupancy at Mispredict: 161.716
Branch types
NOT_BRANCH: 170250761 85.1254%
BRANCH_DIRECT_JUMP: 9225403 4.6127%
BRANCH_INDIRECT: 0 0%
BRANCH_CONDITIONAL: 20520883 10.2604%
BRANCH_DIRECT_CALL: 1314 0.000657%
BRANCH_INDIRECT_CALL: 0 0%
BRANCH_RETURN: 1314 0.000657%
BRANCH_OTHER: 0 0%

DRAM PAGES: 1048576
Allocated PAGES: 37080
