
*** ChampSim Multicore Out-of-Order Simulator ***

Warmup Instructions: 50000000
Simulation Instructions: 200000000
Number of CPUs: 1
LLC sets: 2048
LLC ways: 16
L0D sets: 16
L0D ways: 2
ROB size: 352
LQ size: 128
SQ size: 72
Secure Berti: OFF
Berti: OFF
Berti Fill: OFF
On commit prefetching: OFF
Hit-based filter: ON
Time-guarding: ON
Free-slotting: ON
Leap-frogging: ON
Train prefetcher on L0D bypass: OFF
No translation penalty for prefetchers: OFF
Prefetch to L0D only: OFF
Prefetch to L1D only: OFF
Clean evictions: ON
Commit loads: ON
Commit write: ON
Fill commit loads to L2C, LLC: ON
DRAM IO FREQUENCY: 6400
ROB SIZE: 352
Off-chip DRAM Size: 4096 MB Channels: 1 Width: 64-bit Data Rate: 6400 MT/s
CPU 0 runs /home/sumon/secure_berti/GhostMinion/../../traces/gap/bc-12.trace.gz
.gz
BTB has LRU replacement policy
ITLB has LRU replacement policy
DTLB has LRU replacement policy
STLB has LRU replacement policy
L1I has LRU replacement policy
L0D has LRU replacement policy
L1D has LRU replacement policy
L2C has LRU replacement policy
LLC has LRU replacement policy
Heartbeat CPU 0 instructions: 10000001 cycles: 3888505 heartbeat IPC: 2.57168 cumulative IPC: 2.57168 (Simulation time: 0 hr 0 min 39 sec) 
Heartbeat CPU 0 instructions: 20000000 cycles: 7412062 heartbeat IPC: 2.83804 cumulative IPC: 2.6983 (Simulation time: 0 hr 1 min 15 sec) 
Heartbeat CPU 0 instructions: 30000002 cycles: 10961803 heartbeat IPC: 2.81711 cumulative IPC: 2.73678 (Simulation time: 0 hr 1 min 50 sec) 
Heartbeat CPU 0 instructions: 40000001 cycles: 14503319 heartbeat IPC: 2.82365 cumulative IPC: 2.75799 (Simulation time: 0 hr 2 min 26 sec) 
Heartbeat CPU 0 instructions: 50000001 cycles: 18020012 heartbeat IPC: 2.84358 cumulative IPC: 2.77469 (Simulation time: 0 hr 3 min 0 sec) 

Warmup complete CPU 0 instructions: 50000001 cycles: 18020012 (Simulation time: 0 hr 3 min 0 sec) 

Heartbeat CPU 0 instructions: 60000000 cycles: 88836607 heartbeat IPC: 0.14121 cumulative IPC: 0.14121 (Simulation time: 0 hr 3 min 56 sec) 
Heartbeat CPU 0 instructions: 70000002 cycles: 160537148 heartbeat IPC: 0.139469 cumulative IPC: 0.140334 (Simulation time: 0 hr 4 min 52 sec) 
Heartbeat CPU 0 instructions: 80000002 cycles: 232206416 heartbeat IPC: 0.13953 cumulative IPC: 0.140065 (Simulation time: 0 hr 5 min 47 sec) 
Heartbeat CPU 0 instructions: 90000002 cycles: 304626178 heartbeat IPC: 0.138084 cumulative IPC: 0.139564 (Simulation time: 0 hr 6 min 43 sec) 
Heartbeat CPU 0 instructions: 100000001 cycles: 376631566 heartbeat IPC: 0.138878 cumulative IPC: 0.139427 (Simulation time: 0 hr 7 min 37 sec) 
Heartbeat CPU 0 instructions: 110000000 cycles: 448998149 heartbeat IPC: 0.138185 cumulative IPC: 0.139218 (Simulation time: 0 hr 8 min 31 sec) 
Heartbeat CPU 0 instructions: 120000001 cycles: 520567830 heartbeat IPC: 0.139724 cumulative IPC: 0.13929 (Simulation time: 0 hr 9 min 23 sec) 
Heartbeat CPU 0 instructions: 130000003 cycles: 593046041 heartbeat IPC: 0.137973 cumulative IPC: 0.139124 (Simulation time: 0 hr 10 min 16 sec) 
Heartbeat CPU 0 instructions: 140000000 cycles: 664463794 heartbeat IPC: 0.140021 cumulative IPC: 0.139223 (Simulation time: 0 hr 11 min 15 sec) 
Heartbeat CPU 0 instructions: 150000001 cycles: 736980061 heartbeat IPC: 0.1379 cumulative IPC: 0.13909 (Simulation time: 0 hr 12 min 11 sec) 
Heartbeat CPU 0 instructions: 160000001 cycles: 808233828 heartbeat IPC: 0.140343 cumulative IPC: 0.139203 (Simulation time: 0 hr 13 min 3 sec) 
Heartbeat CPU 0 instructions: 170000003 cycles: 878942163 heartbeat IPC: 0.141426 cumulative IPC: 0.139385 (Simulation time: 0 hr 13 min 54 sec) 
Heartbeat CPU 0 instructions: 180000001 cycles: 950924037 heartbeat IPC: 0.138924 cumulative IPC: 0.13935 (Simulation time: 0 hr 14 min 45 sec) 
Heartbeat CPU 0 instructions: 190000000 cycles: 1020789611 heartbeat IPC: 0.143132 cumulative IPC: 0.139613 (Simulation time: 0 hr 15 min 35 sec) 
Heartbeat CPU 0 instructions: 200000000 cycles: 1093553485 heartbeat IPC: 0.137431 cumulative IPC: 0.139466 (Simulation time: 0 hr 16 min 25 sec) 
Heartbeat CPU 0 instructions: 210000002 cycles: 1166078332 heartbeat IPC: 0.137884 cumulative IPC: 0.139366 (Simulation time: 0 hr 17 min 16 sec) 
Heartbeat CPU 0 instructions: 220000000 cycles: 1238671052 heartbeat IPC: 0.137755 cumulative IPC: 0.13927 (Simulation time: 0 hr 18 min 6 sec) 
Heartbeat CPU 0 instructions: 230000001 cycles: 1311191141 heartbeat IPC: 0.137893 cumulative IPC: 0.139193 (Simulation time: 0 hr 18 min 57 sec) 
Heartbeat CPU 0 instructions: 240000001 cycles: 1384149261 heartbeat IPC: 0.137065 cumulative IPC: 0.139079 (Simulation time: 0 hr 19 min 46 sec) 
Heartbeat CPU 0 instructions: 250000003 cycles: 1456275003 heartbeat IPC: 0.138647 cumulative IPC: 0.139057 (Simulation time: 0 hr 20 min 38 sec) 
Finished CPU 0 instructions: 200000002 cycles: 1438254991 cumulative IPC: 0.139057 (Simulation time: 0 hr 20 min 38 sec) 
 Instruction ID: 250000045

ChampSim completed all CPUs

Region of Interest Statistics

CPU 0 cumulative IPC: 0.139057 instructions: 200000002 cycles: 1438254991
ITLB SPEC fills:          0  NON-SPEC fills:          0
ITLB Test counter :          0
ITLB Leapfrog:          0
ITLB MSHR merge:          0
ITLB TOTAL     ACCESS:   36669583  HIT:   36669583  MISS:          0  HIT %:        100  MISS %:          0   MPKI: 0
ITLB LOAD TRANSLATION NON_SPEC    ACCESS:   36669583  HIT:   36669583  MISS:          0  HIT %:        100  MISS %:          0   MPKI: 0
ITLB PREFETCH  REQUESTED:          0  ISSUED:          0  USEFUL:          0  USELESS:          0
ITLB USEFUL LOAD PREFETCHES:          0 PREFETCH ISSUED TO LOWER LEVEL:          0  ACCURACY: -nan
ITLB TIMELY PREFETCHES:          0 LATE PREFETCHES: 0 DROPPED PREFETCHES: 0
ITLB COMMIT LATE PREFETCHES: 0 MISSED OPPORTUNITY: 0 LATE IN PQ: 0 UNCOVERED: 0
ITLB COMMIT LATE MSHR PREFETCHES: 0
ITLB MPKI TOTAL: 0 MSHR LATE: 0 PQ LATE: 0 COMMIT LATE: 0 MISSED OPPORTUNITY: 0 UNCOVERED: 0
ITLB PREFETCHES SAME FILL-ORIGIN LEVEL: 0 DIFFERENT FILL-ORIGIN LEVEL: 0
ITLB AVERAGE MISS LATENCY: -nan cycles
ITLB AVERAGE MISS LATENCY LOAD: -nan cycles
ITLB AVERAGE MISS LATENCY PREFETCH: -nan cycles
ITLB AVERAGE MSHR OCCUPANCY: 0
ITLB MSHR FULL: 0
ITLB RQ	ACCESS:   36968414	FORWARD:          0	MERGED:     298831	TO_CACHE:   36669583

DTLB SPEC fills:          0  NON-SPEC fills:          0
DTLB Test counter :          0
DTLB Leapfrog:          0
DTLB MSHR merge:          0
DTLB TOTAL     ACCESS:   60009638  HIT:   51503489  MISS:    8506149  HIT %:    85.8254  MISS %:    14.1746   MPKI: 42.5307
DTLB LOAD TRANSLATION NON_SPEC    ACCESS:   60009638  HIT:   51503489  MISS:    8506149  HIT %:    85.8254  MISS %:    14.1746   MPKI: 42.5307
DTLB PREFETCH  REQUESTED:          0  ISSUED:          0  USEFUL:          0  USELESS:          0
DTLB USEFUL LOAD PREFETCHES:          0 PREFETCH ISSUED TO LOWER LEVEL:          0  ACCURACY: -nan
DTLB TIMELY PREFETCHES:          0 LATE PREFETCHES: 0 DROPPED PREFETCHES: 0
DTLB COMMIT LATE PREFETCHES: 0 MISSED OPPORTUNITY: 0 LATE IN PQ: 0 UNCOVERED: 0
DTLB COMMIT LATE MSHR PREFETCHES: 0
DTLB MPKI TOTAL: 0 MSHR LATE: 0 PQ LATE: 0 COMMIT LATE: 0 MISSED OPPORTUNITY: 0 UNCOVERED: 0
DTLB PREFETCHES SAME FILL-ORIGIN LEVEL: 0 DIFFERENT FILL-ORIGIN LEVEL: 0
DTLB AVERAGE MISS LATENCY: 39.7689 cycles
DTLB AVERAGE MISS LATENCY LOAD: -nan cycles
DTLB AVERAGE MISS LATENCY PREFETCH: -nan cycles
DTLB AVERAGE MSHR OCCUPANCY: 0.237877
DTLB MSHR FULL: 0.000394055
DTLB RQ	ACCESS:   66177412	FORWARD:          0	MERGED:    5577534	TO_CACHE:   60599878

STLB SPEC fills:          0  NON-SPEC fills:          0
STLB Test counter :          0
STLB Leapfrog:          0
STLB MSHR merge:          0
STLB TOTAL     ACCESS:    8506149  HIT:    5166707  MISS:    3339442  HIT %:    60.7408  MISS %:    39.2592   MPKI: 16.6972
STLB LOAD TRANSLATION NON_SPEC    ACCESS:    8506149  HIT:    5166707  MISS:    3339442  HIT %:    60.7408  MISS %:    39.2592   MPKI: 16.6972
STLB PREFETCH  REQUESTED:          0  ISSUED:          0  USEFUL:          0  USELESS:          0
STLB USEFUL LOAD PREFETCHES:          0 PREFETCH ISSUED TO LOWER LEVEL:          0  ACCURACY: -nan
STLB TIMELY PREFETCHES:          0 LATE PREFETCHES: 0 DROPPED PREFETCHES: 0
STLB COMMIT LATE PREFETCHES: 0 MISSED OPPORTUNITY: 0 LATE IN PQ: 0 UNCOVERED: 0
STLB COMMIT LATE MSHR PREFETCHES: 0
STLB MPKI TOTAL: 0 MSHR LATE: 0 PQ LATE: 0 COMMIT LATE: 0 MISSED OPPORTUNITY: 0 UNCOVERED: 0
STLB PREFETCHES SAME FILL-ORIGIN LEVEL: 0 DIFFERENT FILL-ORIGIN LEVEL: 0
STLB AVERAGE MISS LATENCY: 78.2443 cycles
STLB AVERAGE MISS LATENCY LOAD: -nan cycles
STLB AVERAGE MISS LATENCY PREFETCH: -nan cycles
STLB AVERAGE MSHR OCCUPANCY: 0.25137
STLB MSHR FULL: 0
STLB RQ	ACCESS:    8506149	FORWARD:          0	MERGED:          0	TO_CACHE:    8506149

STLB Hit, L1D data hit: 0
STLB Hit, L2C data hit: 0
STLB Hit, LLC data hit: 0
STLB Hit, LLC data miss: 0
STLB STLB hints to L2: 0
L0D SPEC fills:   36562541  NON-SPEC fills:          0
L0D TimeGuard Request with older TS:     347445 Restricted eviction:     284533 read:        206
L0D Test counter :          0
L0D Leapfrog:          0
L0D MSHR merge:     965808
L0D TOTAL     ACCESS:   53966667  HIT:    7830223  MISS:   46136444  HIT %:    14.5094  MISS %:    85.4906   MPKI: 230.682
L0D LOAD      TOTAL       ACCESS:   53966667  HIT:    7830223  MISS:   46136444  HIT %:    14.5094  MISS %:    85.4906   MPKI: 230.682
L0D LOAD      NON_SPEC    ACCESS:    9291696  HIT:       2286  MISS:    9289410  HIT %:  0.0246026  MISS %:    99.9754   MPKI: 46.447
L0D LOAD      SPEC        ACCESS:   44674971  HIT:    7827937  MISS:   36847034  HIT %:     17.522  MISS %:     82.478   MPKI: 184.235
L0D PREFETCH  REQUESTED:          0  ISSUED:          0  USEFUL:          0  USELESS:          0
L0D USEFUL LOAD PREFETCHES:          0 PREFETCH ISSUED TO LOWER LEVEL:          0  ACCURACY: -nan
L0D TIMELY PREFETCHES:          0 LATE PREFETCHES: 0 DROPPED PREFETCHES: 0
L0D COMMIT LATE PREFETCHES: 0 MISSED OPPORTUNITY: 0 LATE IN PQ: 0 UNCOVERED: 0
L0D COMMIT LATE MSHR PREFETCHES: 0
L0D MPKI TOTAL: 235.511 MSHR LATE: 0 PQ LATE: 0 COMMIT LATE: 0 MISSED OPPORTUNITY: 0 UNCOVERED: 0
L0D PREFETCHES SAME FILL-ORIGIN LEVEL: 0 DIFFERENT FILL-ORIGIN LEVEL: 0
L0D AVERAGE MISS LATENCY: 48.4379 cycles
L0D AVERAGE MISS LATENCY LOAD: 48.4379 cycles
L0D AVERAGE MISS LATENCY PREFETCH: -nan cycles
L0D AVERAGE MSHR OCCUPANCY: 1.46311
L0D MSHR FULL: 0.0506114
L0D RQ	ACCESS:   55623383	FORWARD:          0	MERGED:     690909	TO_CACHE:   54932474
L0D WQ	ACCESS:   11244938	FORWARD:          0	MERGED:          0	TO_CACHE:   11244938

L1D SPEC fills:          0  NON-SPEC fills:    4147783
L1D Test counter :   10976254
L1D Leapfrog:          0
L1D MSHR merge:       3770
L1D TOTAL     ACCESS:   68924109  HIT:   38542279  MISS:   30381830  HIT %:    55.9199  MISS %:    44.0801   MPKI: 151.909
L1D LOAD      TOTAL       ACCESS:   46132674  HIT:   28883679  MISS:   17248995  HIT %:      62.61  MISS %:      37.39   MPKI: 86.245
L1D LOAD      NON_SPEC    ACCESS:    9287958  HIT:    5140175  MISS:    4147783  HIT %:    55.3424  MISS %:    44.6576   MPKI: 20.7389
L1D LOAD      SPEC        ACCESS:   36844716  HIT:   23743504  MISS:   13101212  HIT %:    64.4421  MISS %:    35.5579   MPKI: 65.5061
L1D RFO       NON_SPEC    ACCESS:    8796298  HIT:    8766568  MISS:      29730  HIT %:     99.662  MISS %:   0.337983   MPKI: 0.14865
L1D COMMIT LOAD NON_SPEC    ACCESS:    1018664  HIT:     874513  MISS:     144151  HIT %:     85.849  MISS %:     14.151   MPKI: 0.720755
L1D COMMIT WRITE NON_SPEC    ACCESS:   12976473  HIT:      17519  MISS:   12958954  HIT %:   0.135006  MISS %:     99.865   MPKI: 64.7948
L1D PREFETCH  REQUESTED:          0  ISSUED:          0  USEFUL:          0  USELESS:          0
L1D USEFUL LOAD PREFETCHES:          0 PREFETCH ISSUED TO LOWER LEVEL:          0  ACCURACY: -nan
L1D TIMELY PREFETCHES:          0 LATE PREFETCHES: 0 DROPPED PREFETCHES: 0
L1D COMMIT LATE PREFETCHES: 0 MISSED OPPORTUNITY: 0 LATE IN PQ: 0 UNCOVERED: 0
L1D COMMIT LATE MSHR PREFETCHES: 0
L1D MPKI TOTAL: 86.2638 MSHR LATE: 0 PQ LATE: 0 COMMIT LATE: 0 MISSED OPPORTUNITY: 0 UNCOVERED: 0
L1D PREFETCHES SAME FILL-ORIGIN LEVEL: 0 DIFFERENT FILL-ORIGIN LEVEL: 0
L1D AVERAGE MISS LATENCY: 66.1684 cycles
L1D AVERAGE MISS LATENCY LOAD: 115.34 cycles
L1D AVERAGE MISS LATENCY PREFETCH: -nan cycles
L1D AVERAGE MSHR OCCUPANCY: 0.914744
L1D MSHR FULL: 0.0156038
L1D RQ	ACCESS:   47389494	FORWARD:          0	MERGED:     231567	TO_CACHE:   47157924
L1D WQ	ACCESS:   24221414	FORWARD:          3	MERGED:    2380047	TO_CACHE:   21841367

L1D UNIQUE REGIONS ACCESSED: 0
L1D REGIONS CONFLICTS: 0
L1D Cross Page Prefetch Requests: 0
L1D Same Page Prefetch Requests: 0
L1D ROI Sum of L1D PQ occupancy: 0
L1D PREFETCHES PUSHED FROM L2C: 0
L1I SPEC fills:          0  NON-SPEC fills:          0
L1I Test counter :          0
L1I Leapfrog:          0
L1I MSHR merge:          0
L1I TOTAL     ACCESS:   36968414  HIT:   36968414  MISS:          0  HIT %:        100  MISS %:          0   MPKI: 0
L1I LOAD      TOTAL       ACCESS:   36968414  HIT:   36968414  MISS:          0  HIT %:        100  MISS %:          0   MPKI: 0
L1I LOAD      NON_SPEC    ACCESS:   36968414  HIT:   36968414  MISS:          0  HIT %:        100  MISS %:          0   MPKI: 0
L1I PREFETCH  REQUESTED:          0  ISSUED:          0  USEFUL:          0  USELESS:          0
L1I USEFUL LOAD PREFETCHES:          0 PREFETCH ISSUED TO LOWER LEVEL:          0  ACCURACY: -nan
L1I TIMELY PREFETCHES:          0 LATE PREFETCHES: 0 DROPPED PREFETCHES: 0
L1I COMMIT LATE PREFETCHES: 0 MISSED OPPORTUNITY: 0 LATE IN PQ: 0 UNCOVERED: 0
L1I COMMIT LATE MSHR PREFETCHES: 0
L1I MPKI TOTAL: 0 MSHR LATE: 0 PQ LATE: 0 COMMIT LATE: 0 MISSED OPPORTUNITY: 0 UNCOVERED: 0
L1I PREFETCHES SAME FILL-ORIGIN LEVEL: 0 DIFFERENT FILL-ORIGIN LEVEL: 0
L1I AVERAGE MISS LATENCY: -nan cycles
L1I AVERAGE MISS LATENCY LOAD: -nan cycles
L1I AVERAGE MISS LATENCY PREFETCH: -nan cycles
L1I AVERAGE MSHR OCCUPANCY: 0
L1I MSHR FULL: 0
L1I RQ	ACCESS:   48284012	FORWARD:          0	MERGED:   11315598	TO_CACHE:   36968414

BTB SPEC fills:          0  NON-SPEC fills:          0
BTB Test counter :          0
BTB Leapfrog:          0
BTB MSHR merge:          0
BTB TOTAL     ACCESS:   35189020  HIT:   35189006  MISS:         14  HIT %:        100  MISS %: 3.97851e-05   MPKI: 7e-05
BTB BRANCH_DIRECT_JUMP	ACCESS:     253973  HIT:     253969  MISS:          4
BTB BRANCH_INDIRECT	ACCESS:          0  HIT:          0  MISS:          0
BTB BRANCH_CONDITIONAL	ACCESS:   34935019  HIT:   34935011  MISS:          8
BTB BRANCH_DIRECT_CALL	ACCESS:         14  HIT:         13  MISS:          1
BTB BRANCH_INDIRECT_CALL	ACCESS:          0  HIT:          0  MISS:          0
BTB BRANCH_RETURN	ACCESS:         14  HIT:         13  MISS:          1
BTB BRANCH_OTHER ACCESS:          0  HIT:          0  MISS:          0

L2C SPEC fills:          0  NON-SPEC fills:    3904093
L2C Test counter :   10972623
L2C Leapfrog:          0
L2C MSHR merge:          0
L2C TOTAL     ACCESS:   48218029  HIT:   22045361  MISS:   26172668  HIT %:    45.7202  MISS %:    54.2798   MPKI: 130.863
L2C LOAD      TOTAL       ACCESS:   17248793  HIT:    2274592  MISS:   14974201  HIT %:     13.187  MISS %:     86.813   MPKI: 74.871
L2C LOAD      NON_SPEC    ACCESS:    4147760  HIT:     243667  MISS:    3904093  HIT %:    5.87466  MISS %:    94.1253   MPKI: 19.5205
L2C LOAD      SPEC        ACCESS:   13101033  HIT:    2030925  MISS:   11070108  HIT %:     15.502  MISS %:     84.498   MPKI: 55.3505
L2C RFO       NON_SPEC    ACCESS:      29727  HIT:        684  MISS:      29043  HIT %:    2.30094  MISS %:    97.6991   MPKI: 0.145215
L2C WRITEBACK NON_SPEC    ACCESS:    3121931  HIT:    3121908  MISS:         23  HIT %:    99.9993  MISS %: 0.000736724   MPKI: 0.000115
L2C CLEAN_EVICTION NON_SPEC    ACCESS:   10976254  HIT:      13206  MISS:   10963048  HIT %:   0.120314  MISS %:    99.8797   MPKI: 54.8152
L2C COMMIT LOAD NON_SPEC    ACCESS:     144151  HIT:      38966  MISS:     105185  HIT %:    27.0314  MISS %:    72.9686   MPKI: 0.525925
L2C LOAD TRANSLATION NON_SPEC    ACCESS:   16697173  HIT:   16596005  MISS:     101168  HIT %:    99.3941  MISS %:   0.605899   MPKI: 0.50584
L2C PREFETCH  REQUESTED:          0  ISSUED:          0  USEFUL:          0  USELESS:          0
L2C USEFUL LOAD PREFETCHES:          0 PREFETCH ISSUED TO LOWER LEVEL:          0  ACCURACY: -nan
L2C TIMELY PREFETCHES:          0 LATE PREFETCHES: 0 DROPPED PREFETCHES: 0
L2C COMMIT LATE PREFETCHES: 0 MISSED OPPORTUNITY: 0 LATE IN PQ: 0 UNCOVERED: 0
L2C COMMIT LATE MSHR PREFETCHES: 0
L2C MPKI TOTAL: 74.871 MSHR LATE: 0 PQ LATE: 0 COMMIT LATE: 0 MISSED OPPORTUNITY: 0 UNCOVERED: 0
L2C PREFETCHES SAME FILL-ORIGIN LEVEL: 0 DIFFERENT FILL-ORIGIN LEVEL: 0
L2C AVERAGE MISS LATENCY: 69.1702 cycles
L2C AVERAGE MISS LATENCY LOAD: 118.94 cycles
L2C AVERAGE MISS LATENCY PREFETCH: -nan cycles
L2C AVERAGE MSHR OCCUPANCY: 1.06819
L2C MSHR FULL: 0
L2C RQ	ACCESS:   34120050	FORWARD:          0	MERGED:          0	TO_CACHE:   34119845
L2C WQ	ACCESS:   14098185	FORWARD:        205	MERGED:          0	TO_CACHE:   14098185

L2C Instructions Evicting Data 0
L2C Translations Evicting Data 101097
L2C Data Evicting Data 4010751
L2C Instructions Evicting Instructions 0
L2C Translations Evicting Instructions 0
L2C Data Evicting Instructions 0
L2C Instructions Evicting Translations 0
L2C Translations Evicting Translations 71
L2C Data Evicting Translations 27570
L2C Dense regions hint from L2: 0
PSCL5 SPEC fills:          0  NON-SPEC fills:          0
PSCL5 Test counter :          0
PSCL5 Leapfrog:          0
PSCL5 MSHR merge:          0
PSCL5 TOTAL     ACCESS:          0  HIT:          0  MISS:          0  HIT %:       -nan  MISS %:       -nan   MPKI: 0
PSCL5 PREFETCH  REQUESTED:          0  ISSUED:          0  USEFUL:          0  USELESS:          0
PSCL5 USEFUL LOAD PREFETCHES:          0 PREFETCH ISSUED TO LOWER LEVEL:          0  ACCURACY: -nan
PSCL5 TIMELY PREFETCHES:          0 LATE PREFETCHES: 0 DROPPED PREFETCHES: 0
PSCL5 COMMIT LATE PREFETCHES: 0 MISSED OPPORTUNITY: 0 LATE IN PQ: 0 UNCOVERED: 0
PSCL5 COMMIT LATE MSHR PREFETCHES: 0
PSCL5 MPKI TOTAL: 0 MSHR LATE: 0 PQ LATE: 0 COMMIT LATE: 0 MISSED OPPORTUNITY: 0 UNCOVERED: 0
PSCL5 PREFETCHES SAME FILL-ORIGIN LEVEL: 0 DIFFERENT FILL-ORIGIN LEVEL: 0

PSCL4 SPEC fills:          0  NON-SPEC fills:          0
PSCL4 Test counter :          0
PSCL4 Leapfrog:          0
PSCL4 MSHR merge:          0
PSCL4 TOTAL     ACCESS:          0  HIT:          0  MISS:          0  HIT %:       -nan  MISS %:       -nan   MPKI: 0
PSCL4 PREFETCH  REQUESTED:          0  ISSUED:          0  USEFUL:          0  USELESS:          0
PSCL4 USEFUL LOAD PREFETCHES:          0 PREFETCH ISSUED TO LOWER LEVEL:          0  ACCURACY: -nan
PSCL4 TIMELY PREFETCHES:          0 LATE PREFETCHES: 0 DROPPED PREFETCHES: 0
PSCL4 COMMIT LATE PREFETCHES: 0 MISSED OPPORTUNITY: 0 LATE IN PQ: 0 UNCOVERED: 0
PSCL4 COMMIT LATE MSHR PREFETCHES: 0
PSCL4 MPKI TOTAL: 0 MSHR LATE: 0 PQ LATE: 0 COMMIT LATE: 0 MISSED OPPORTUNITY: 0 UNCOVERED: 0
PSCL4 PREFETCHES SAME FILL-ORIGIN LEVEL: 0 DIFFERENT FILL-ORIGIN LEVEL: 0

PSCL3 SPEC fills:          0  NON-SPEC fills:          0
PSCL3 Test counter :          0
PSCL3 Leapfrog:          0
PSCL3 MSHR merge:          0
PSCL3 TOTAL     ACCESS:          0  HIT:          0  MISS:          0  HIT %:       -nan  MISS %:       -nan   MPKI: 0
PSCL3 PREFETCH  REQUESTED:          0  ISSUED:          0  USEFUL:          0  USELESS:          0
PSCL3 USEFUL LOAD PREFETCHES:          0 PREFETCH ISSUED TO LOWER LEVEL:          0  ACCURACY: -nan
PSCL3 TIMELY PREFETCHES:          0 LATE PREFETCHES: 0 DROPPED PREFETCHES: 0
PSCL3 COMMIT LATE PREFETCHES: 0 MISSED OPPORTUNITY: 0 LATE IN PQ: 0 UNCOVERED: 0
PSCL3 COMMIT LATE MSHR PREFETCHES: 0
PSCL3 MPKI TOTAL: 0 MSHR LATE: 0 PQ LATE: 0 COMMIT LATE: 0 MISSED OPPORTUNITY: 0 UNCOVERED: 0
PSCL3 PREFETCHES SAME FILL-ORIGIN LEVEL: 0 DIFFERENT FILL-ORIGIN LEVEL: 0

PSCL2 SPEC fills:          0  NON-SPEC fills:          0
PSCL2 Test counter :          0
PSCL2 Leapfrog:          0
PSCL2 MSHR merge:          0
PSCL2 TOTAL     ACCESS:          0  HIT:          0  MISS:          0  HIT %:       -nan  MISS %:       -nan   MPKI: 0
PSCL2 PREFETCH  REQUESTED:          0  ISSUED:          0  USEFUL:          0  USELESS:          0
PSCL2 USEFUL LOAD PREFETCHES:          0 PREFETCH ISSUED TO LOWER LEVEL:          0  ACCURACY: -nan
PSCL2 TIMELY PREFETCHES:          0 LATE PREFETCHES: 0 DROPPED PREFETCHES: 0
PSCL2 COMMIT LATE PREFETCHES: 0 MISSED OPPORTUNITY: 0 LATE IN PQ: 0 UNCOVERED: 0
PSCL2 COMMIT LATE MSHR PREFETCHES: 0
PSCL2 MPKI TOTAL: 0 MSHR LATE: 0 PQ LATE: 0 COMMIT LATE: 0 MISSED OPPORTUNITY: 0 UNCOVERED: 0
PSCL2 PREFETCHES SAME FILL-ORIGIN LEVEL: 0 DIFFERENT FILL-ORIGIN LEVEL: 0

LLC SPEC fills:          0  NON-SPEC fills:    2870191
LLC Test counter :    6855517
LLC Leapfrog:          0
LLC MSHR merge:          0
LLC TOTAL     ACCESS:   29173680  HIT:   13345626  MISS:   15828054  HIT %:    45.7454  MISS %:    54.2546   MPKI: 79.1403
LLC LOAD      TOTAL       ACCESS:   14974162  HIT:    5990734  MISS:    8983428  HIT %:    40.0071  MISS %:    59.9929   MPKI: 44.9171
LLC LOAD      NON_SPEC    ACCESS:    3904091  HIT:    1033900  MISS:    2870191  HIT %:    26.4825  MISS %:    73.5175   MPKI: 14.351
LLC LOAD      SPEC        ACCESS:   11070071  HIT:    4956834  MISS:    6113237  HIT %:    44.7769  MISS %:    55.2231   MPKI: 30.5662
LLC RFO       NON_SPEC    ACCESS:      29043  HIT:        661  MISS:      28382  HIT %:    2.27594  MISS %:    97.7241   MPKI: 0.14191
LLC WRITEBACK NON_SPEC    ACCESS:    2991524  HIT:    2991516  MISS:          8  HIT %:    99.9997  MISS %: 0.000267422   MPKI: 4e-05
LLC CLEAN_EVICTION NON_SPEC    ACCESS:   10972623  HIT:    4223694  MISS:    6748929  HIT %:     38.493  MISS %:     61.507   MPKI: 33.7446
LLC COMMIT LOAD NON_SPEC    ACCESS:     105160  HIT:      82800  MISS:      22360  HIT %:    78.7372  MISS %:    21.2628   MPKI: 0.1118
LLC LOAD TRANSLATION NON_SPEC    ACCESS:     101168  HIT:      56221  MISS:      44947  HIT %:    55.5719  MISS %:    44.4281   MPKI: 0.224735
LLC PREFETCH  REQUESTED:          0  ISSUED:          0  USEFUL:          0  USELESS:          0
LLC USEFUL LOAD PREFETCHES:          0 PREFETCH ISSUED TO LOWER LEVEL:          0  ACCURACY: -nan
LLC TIMELY PREFETCHES:          0 LATE PREFETCHES: 0 DROPPED PREFETCHES: 0
LLC COMMIT LATE PREFETCHES: 0 MISSED OPPORTUNITY: 0 LATE IN PQ: 0 UNCOVERED: 0
LLC COMMIT LATE MSHR PREFETCHES: 0
LLC MPKI TOTAL: 44.9171 MSHR LATE: 0 PQ LATE: 0 COMMIT LATE: 0 MISSED OPPORTUNITY: 0 UNCOVERED: 0
LLC PREFETCHES SAME FILL-ORIGIN LEVEL: 0 DIFFERENT FILL-ORIGIN LEVEL: 0
LLC AVERAGE MISS LATENCY: 91.8298 cycles
LLC AVERAGE MISS LATENCY LOAD: 159.319 cycles
LLC AVERAGE MISS LATENCY PREFETCH: -nan cycles
LLC AVERAGE MSHR OCCUPANCY: 0.778339
LLC MSHR FULL: 0
LLC RQ	ACCESS:   15209598	FORWARD:          0	MERGED:          0	TO_CACHE:   15209534
LLC WQ	ACCESS:   13964148	FORWARD:         64	MERGED:          0	TO_CACHE:   13964148

LLC Dense regions hint to LLC: 0

RAW hits: 713400
Loads Generated: 56336782
Loads sent to L1D: 55623383
Stores Generated: 11244939
Stores sent to L1D: 11244938
Major fault: 0 Minor fault: 31004
Allocated PAGES: 31004
Total Load insts: 68158074
Total Non-spec loads: 9666479
Percentage of speculative loads: 85.8176

LeapFrogging counter: 1152753
Commit hits: 36375999 miss: 9955699
Commit hit %: 78.5121 miss %: 21.4879
Commits not translated: 0
Loads retired: 17248993
Stores retired: 11244938
Cache fills: 17248995
L1D response latency: 115.34 cycles
Load retirement latency: 211.024 cycles
OOO test counter: 0
Discarded buffer inserts: 36375999 hits: 19044 hit %: 0.0523532

DRAM Statistics
 CHANNEL 0
 RQ ROW_BUFFER_HIT:     556690  ROW_BUFFER_MISS:    8521544
 DBUS_CONGESTED:       4149
 WQ ROW_BUFFER_HIT:    4591112  ROW_BUFFER_MISS:    4651174  FULL:       7844

 AVG_CONGESTED_CYCLE: 4
 All warmup complete: 2
Channel 0 Bank busy for read cycles: 0
Channel 0 Bank busy for write cycles: 0
Channel 0
Rank 0
0banks busy for read cycles: 9827091
0banks busy for write cycles: 92756
1banks busy for read cycles: 563176355
1banks busy for write cycles: 22958814
2banks busy for read cycles: 263925752
2banks busy for write cycles: 53237153
3banks busy for read cycles: 47706993
3banks busy for write cycles: 89481511
4banks busy for read cycles: 10457703
4banks busy for write cycles: 111869702
5banks busy for read cycles: 3654275
5banks busy for write cycles: 107366992
6banks busy for read cycles: 1245663
6banks busy for write cycles: 80999780
7banks busy for read cycles: 302395
7banks busy for write cycles: 48938993
8banks busy for read cycles: 351599
8banks busy for write cycles: 22661465

CPU 0 Branch Prediction Accuracy: 85.1853% MPKI: 26.0899 Average ROB Occupancy at Mispredict: 26.3893
Branch types
NOT_BRANCH: 164778075 82.389%
BRANCH_DIRECT_JUMP: 253973 0.126986%
BRANCH_INDIRECT: 0 0%
BRANCH_CONDITIONAL: 34967586 17.4838%
BRANCH_DIRECT_CALL: 14 7e-06%
BRANCH_INDIRECT_CALL: 0 0%
BRANCH_RETURN: 14 7e-06%
BRANCH_OTHER: 0 0%

DRAM PAGES: 1048576
Allocated PAGES: 31004
