
*** ChampSim Multicore Out-of-Order Simulator ***

Warmup Instructions: 50000000
Simulation Instructions: 200000000
Number of CPUs: 1
LLC sets: 2048
LLC ways: 16
L0D sets: 16
L0D ways: 2
ROB size: 352
LQ size: 128
SQ size: 72
Secure Berti: OFF
Berti: OFF
Berti Fill: OFF
On commit prefetching: OFF
Hit-based filter: ON
Time-guarding: ON
Free-slotting: ON
Leap-frogging: ON
Train prefetcher on L0D bypass: OFF
No translation penalty for prefetchers: OFF
Prefetch to L0D only: OFF
Prefetch to L1D only: OFF
Clean evictions: ON
Commit loads: ON
Commit write: ON
Fill commit loads to L2C, LLC: ON
DRAM IO FREQUENCY: 6400
ROB SIZE: 352
Off-chip DRAM Size: 4096 MB Channels: 1 Width: 64-bit Data Rate: 6400 MT/s
CPU 0 runs /home/sumon/secure_berti/GhostMinion/../../traces/gap/bfs-8.trace.gz
.gz
BTB has LRU replacement policy
ITLB has LRU replacement policy
DTLB has LRU replacement policy
STLB has LRU replacement policy
L1I has LRU replacement policy
L0D has LRU replacement policy
L1D has LRU replacement policy
L2C has LRU replacement policy
LLC has LRU replacement policy
Heartbeat CPU 0 instructions: 10000003 cycles: 2972529 heartbeat IPC: 3.36414 cumulative IPC: 3.36414 (Simulation time: 0 hr 0 min 29 sec) 
Heartbeat CPU 0 instructions: 20000001 cycles: 6205599 heartbeat IPC: 3.09303 cumulative IPC: 3.2229 (Simulation time: 0 hr 1 min 13 sec) 
Heartbeat CPU 0 instructions: 30000003 cycles: 9476834 heartbeat IPC: 3.05695 cumulative IPC: 3.16561 (Simulation time: 0 hr 1 min 58 sec) 
Heartbeat CPU 0 instructions: 40000003 cycles: 12742724 heartbeat IPC: 3.06195 cumulative IPC: 3.13905 (Simulation time: 0 hr 2 min 26 sec) 
Heartbeat CPU 0 instructions: 50000003 cycles: 15913645 heartbeat IPC: 3.15366 cumulative IPC: 3.14196 (Simulation time: 0 hr 2 min 47 sec) 

Warmup complete CPU 0 instructions: 50000003 cycles: 15913645 (Simulation time: 0 hr 2 min 47 sec) 

Heartbeat CPU 0 instructions: 60000000 cycles: 39753941 heartbeat IPC: 0.419458 cumulative IPC: 0.419458 (Simulation time: 0 hr 3 min 19 sec) 
Heartbeat CPU 0 instructions: 70000000 cycles: 70617475 heartbeat IPC: 0.324007 cumulative IPC: 0.365605 (Simulation time: 0 hr 3 min 54 sec) 
Heartbeat CPU 0 instructions: 80000001 cycles: 116351188 heartbeat IPC: 0.218657 cumulative IPC: 0.298693 (Simulation time: 0 hr 4 min 30 sec) 
Heartbeat CPU 0 instructions: 90000001 cycles: 171166658 heartbeat IPC: 0.18243 cumulative IPC: 0.257644 (Simulation time: 0 hr 5 min 10 sec) 
Heartbeat CPU 0 instructions: 100000000 cycles: 225999754 heartbeat IPC: 0.182372 cumulative IPC: 0.237998 (Simulation time: 0 hr 5 min 49 sec) 
Heartbeat CPU 0 instructions: 110000000 cycles: 292322287 heartbeat IPC: 0.150778 cumulative IPC: 0.21707 (Simulation time: 0 hr 6 min 27 sec) 
Heartbeat CPU 0 instructions: 120000002 cycles: 349752486 heartbeat IPC: 0.174124 cumulative IPC: 0.209682 (Simulation time: 0 hr 7 min 1 sec) 
Heartbeat CPU 0 instructions: 130000001 cycles: 369561672 heartbeat IPC: 0.504816 cumulative IPC: 0.226214 (Simulation time: 0 hr 7 min 26 sec) 
Heartbeat CPU 0 instructions: 140000000 cycles: 390282193 heartbeat IPC: 0.482613 cumulative IPC: 0.240405 (Simulation time: 0 hr 7 min 58 sec) 
Heartbeat CPU 0 instructions: 150000001 cycles: 433796855 heartbeat IPC: 0.229808 cumulative IPC: 0.239301 (Simulation time: 0 hr 8 min 29 sec) 
Heartbeat CPU 0 instructions: 160000000 cycles: 489755659 heartbeat IPC: 0.178703 cumulative IPC: 0.232145 (Simulation time: 0 hr 9 min 3 sec) 
Heartbeat CPU 0 instructions: 170000001 cycles: 545736366 heartbeat IPC: 0.178633 cumulative IPC: 0.226491 (Simulation time: 0 hr 9 min 38 sec) 
Heartbeat CPU 0 instructions: 180000000 cycles: 602783497 heartbeat IPC: 0.175294 cumulative IPC: 0.221514 (Simulation time: 0 hr 10 min 14 sec) 
Heartbeat CPU 0 instructions: 190000001 cycles: 672539015 heartbeat IPC: 0.143358 cumulative IPC: 0.213211 (Simulation time: 0 hr 10 min 54 sec) 
Heartbeat CPU 0 instructions: 200000001 cycles: 730639973 heartbeat IPC: 0.172114 cumulative IPC: 0.209871 (Simulation time: 0 hr 11 min 28 sec) 
Heartbeat CPU 0 instructions: 210000000 cycles: 751018612 heartbeat IPC: 0.49071 cumulative IPC: 0.217656 (Simulation time: 0 hr 11 min 52 sec) 
Heartbeat CPU 0 instructions: 220000000 cycles: 771454471 heartbeat IPC: 0.489336 cumulative IPC: 0.225004 (Simulation time: 0 hr 12 min 23 sec) 
Heartbeat CPU 0 instructions: 230000000 cycles: 815151026 heartbeat IPC: 0.228851 cumulative IPC: 0.225215 (Simulation time: 0 hr 12 min 54 sec) 
Heartbeat CPU 0 instructions: 240000001 cycles: 866633263 heartbeat IPC: 0.194242 cumulative IPC: 0.22334 (Simulation time: 0 hr 13 min 30 sec) 
Heartbeat CPU 0 instructions: 250000002 cycles: 919761541 heartbeat IPC: 0.188224 cumulative IPC: 0.221276 (Simulation time: 0 hr 14 min 6 sec) 
Finished CPU 0 instructions: 200000003 cycles: 903847897 cumulative IPC: 0.221276 (Simulation time: 0 hr 14 min 6 sec) 
 Instruction ID: 250000021

ChampSim completed all CPUs

Region of Interest Statistics

CPU 0 cumulative IPC: 0.221276 instructions: 200000003 cycles: 903847897
ITLB SPEC fills:          0  NON-SPEC fills:          0
ITLB Test counter :          0
ITLB Leapfrog:          0
ITLB MSHR merge:          0
ITLB TOTAL     ACCESS:   34045698  HIT:   34045698  MISS:          0  HIT %:        100  MISS %:          0   MPKI: 0
ITLB LOAD TRANSLATION NON_SPEC    ACCESS:   34045698  HIT:   34045698  MISS:          0  HIT %:        100  MISS %:          0   MPKI: 0
ITLB PREFETCH  REQUESTED:          0  ISSUED:          0  USEFUL:          0  USELESS:          0
ITLB USEFUL LOAD PREFETCHES:          0 PREFETCH ISSUED TO LOWER LEVEL:          0  ACCURACY: -nan
ITLB TIMELY PREFETCHES:          0 LATE PREFETCHES: 0 DROPPED PREFETCHES: 0
ITLB COMMIT LATE PREFETCHES: 0 MISSED OPPORTUNITY: 0 LATE IN PQ: 0 UNCOVERED: 0
ITLB COMMIT LATE MSHR PREFETCHES: 0
ITLB MPKI TOTAL: 0 MSHR LATE: 0 PQ LATE: 0 COMMIT LATE: 0 MISSED OPPORTUNITY: 0 UNCOVERED: 0
ITLB PREFETCHES SAME FILL-ORIGIN LEVEL: 0 DIFFERENT FILL-ORIGIN LEVEL: 0
ITLB AVERAGE MISS LATENCY: -nan cycles
ITLB AVERAGE MISS LATENCY LOAD: -nan cycles
ITLB AVERAGE MISS LATENCY PREFETCH: -nan cycles
ITLB AVERAGE MSHR OCCUPANCY: 0
ITLB MSHR FULL: 0
ITLB RQ	ACCESS:   43043586	FORWARD:          0	MERGED:    8997888	TO_CACHE:   34045698

DTLB SPEC fills:          0  NON-SPEC fills:          0
DTLB Test counter :          0
DTLB Leapfrog:          0
DTLB MSHR merge:          0
DTLB TOTAL     ACCESS:   43823613  HIT:   43554643  MISS:     268970  HIT %:    99.3862  MISS %:   0.613756   MPKI: 1.34485
DTLB LOAD TRANSLATION NON_SPEC    ACCESS:   43823613  HIT:   43554643  MISS:     268970  HIT %:    99.3862  MISS %:   0.613756   MPKI: 1.34485
DTLB PREFETCH  REQUESTED:          0  ISSUED:          0  USEFUL:          0  USELESS:          0
DTLB USEFUL LOAD PREFETCHES:          0 PREFETCH ISSUED TO LOWER LEVEL:          0  ACCURACY: -nan
DTLB TIMELY PREFETCHES:          0 LATE PREFETCHES: 0 DROPPED PREFETCHES: 0
DTLB COMMIT LATE PREFETCHES: 0 MISSED OPPORTUNITY: 0 LATE IN PQ: 0 UNCOVERED: 0
DTLB COMMIT LATE MSHR PREFETCHES: 0
DTLB MPKI TOTAL: 0 MSHR LATE: 0 PQ LATE: 0 COMMIT LATE: 0 MISSED OPPORTUNITY: 0 UNCOVERED: 0
DTLB PREFETCHES SAME FILL-ORIGIN LEVEL: 0 DIFFERENT FILL-ORIGIN LEVEL: 0
DTLB AVERAGE MISS LATENCY: 82.1802 cycles
DTLB AVERAGE MISS LATENCY LOAD: -nan cycles
DTLB AVERAGE MISS LATENCY PREFETCH: -nan cycles
DTLB AVERAGE MSHR OCCUPANCY: 0.0117645
DTLB MSHR FULL: 2.50881e-07
DTLB RQ	ACCESS:   46715957	FORWARD:          0	MERGED:    2870437	TO_CACHE:   43845520

STLB SPEC fills:          0  NON-SPEC fills:          0
STLB Test counter :          0
STLB Leapfrog:          0
STLB MSHR merge:          0
STLB TOTAL     ACCESS:     268970  HIT:      94140  MISS:     174830  HIT %:    35.0002  MISS %:    64.9998   MPKI: 0.87415
STLB LOAD TRANSLATION NON_SPEC    ACCESS:     268970  HIT:      94140  MISS:     174830  HIT %:    35.0002  MISS %:    64.9998   MPKI: 0.87415
STLB PREFETCH  REQUESTED:          0  ISSUED:          0  USEFUL:          0  USELESS:          0
STLB USEFUL LOAD PREFETCHES:          0 PREFETCH ISSUED TO LOWER LEVEL:          0  ACCURACY: -nan
STLB TIMELY PREFETCHES:          0 LATE PREFETCHES: 0 DROPPED PREFETCHES: 0
STLB COMMIT LATE PREFETCHES: 0 MISSED OPPORTUNITY: 0 LATE IN PQ: 0 UNCOVERED: 0
STLB COMMIT LATE MSHR PREFETCHES: 0
STLB MPKI TOTAL: 0 MSHR LATE: 0 PQ LATE: 0 COMMIT LATE: 0 MISSED OPPORTUNITY: 0 UNCOVERED: 0
STLB PREFETCHES SAME FILL-ORIGIN LEVEL: 0 DIFFERENT FILL-ORIGIN LEVEL: 0
STLB AVERAGE MISS LATENCY: 112.558 cycles
STLB AVERAGE MISS LATENCY LOAD: -nan cycles
STLB AVERAGE MISS LATENCY PREFETCH: -nan cycles
STLB AVERAGE MSHR OCCUPANCY: 0.118801
STLB MSHR FULL: 0
STLB RQ	ACCESS:     268970	FORWARD:          0	MERGED:          0	TO_CACHE:     268970

STLB Hit, L1D data hit: 0
STLB Hit, L2C data hit: 0
STLB Hit, LLC data hit: 0
STLB Hit, LLC data miss: 0
STLB STLB hints to L2: 0
L0D SPEC fills:   18408599  NON-SPEC fills:          0
L0D TimeGuard Request with older TS:      67139 Restricted eviction:      13028 read:       1202
L0D Test counter :          0
L0D Leapfrog:          0
L0D MSHR merge:    2894123
L0D TOTAL     ACCESS:   36712424  HIT:    4249417  MISS:   32463007  HIT %:    11.5749  MISS %:    88.4251   MPKI: 162.315
L0D LOAD      TOTAL       ACCESS:   36712424  HIT:    4249417  MISS:   32463007  HIT %:    11.5749  MISS %:    88.4251   MPKI: 162.315
L0D LOAD      NON_SPEC    ACCESS:   14041972  HIT:        592  MISS:   14041380  HIT %: 0.00421593  MISS %:    99.9958   MPKI: 70.2069
L0D LOAD      SPEC        ACCESS:   22670452  HIT:    4248825  MISS:   18421627  HIT %:    18.7417  MISS %:    81.2583   MPKI: 92.1081
L0D PREFETCH  REQUESTED:          0  ISSUED:          0  USEFUL:          0  USELESS:          0
L0D USEFUL LOAD PREFETCHES:          0 PREFETCH ISSUED TO LOWER LEVEL:          0  ACCURACY: -nan
L0D TIMELY PREFETCHES:          0 LATE PREFETCHES: 0 DROPPED PREFETCHES: 0
L0D COMMIT LATE PREFETCHES: 0 MISSED OPPORTUNITY: 0 LATE IN PQ: 0 UNCOVERED: 0
L0D COMMIT LATE MSHR PREFETCHES: 0
L0D MPKI TOTAL: 176.786 MSHR LATE: 0 PQ LATE: 0 COMMIT LATE: 0 MISSED OPPORTUNITY: 0 UNCOVERED: 0
L0D PREFETCHES SAME FILL-ORIGIN LEVEL: 0 DIFFERENT FILL-ORIGIN LEVEL: 0
L0D AVERAGE MISS LATENCY: 23.5106 cycles
L0D AVERAGE MISS LATENCY LOAD: 23.5106 cycles
L0D AVERAGE MISS LATENCY PREFETCH: -nan cycles
L0D AVERAGE MSHR OCCUPANCY: 0.658762
L0D MSHR FULL: 0.00701606
L0D RQ	ACCESS:   48945527	FORWARD:          0	MERGED:    9338981	TO_CACHE:   39606546
L0D WQ	ACCESS:    7109411	FORWARD:          0	MERGED:          0	TO_CACHE:    7109411

L1D SPEC fills:          0  NON-SPEC fills:    2514765
L1D Test counter :    1946721
L1D Leapfrog:          0
L1D MSHR merge:       1422
L1D TOTAL     ACCESS:   44313459  HIT:   36398910  MISS:    7914549  HIT %:    82.1396  MISS %:    17.8604   MPKI: 39.5727
L1D LOAD      TOTAL       ACCESS:   32461585  HIT:   27360612  MISS:    5100973  HIT %:    84.2861  MISS %:    15.7139   MPKI: 25.5049
L1D LOAD      NON_SPEC    ACCESS:   14040716  HIT:   11525951  MISS:    2514765  HIT %:    82.0895  MISS %:    17.9105   MPKI: 12.5738
L1D LOAD      SPEC        ACCESS:   18420869  HIT:   15834661  MISS:    2586208  HIT %:    85.9604  MISS %:    14.0396   MPKI: 12.931
L1D RFO       NON_SPEC    ACCESS:    6603191  HIT:    6376378  MISS:     226813  HIT %:    96.5651  MISS %:     3.4349   MPKI: 1.13406
L1D COMMIT LOAD NON_SPEC    ACCESS:    2651191  HIT:    2639667  MISS:      11524  HIT %:    99.5653  MISS %:   0.434673   MPKI: 0.05762
L1D COMMIT WRITE NON_SPEC    ACCESS:    2597492  HIT:      22253  MISS:    2575239  HIT %:   0.856711  MISS %:    99.1433   MPKI: 12.8762
L1D PREFETCH  REQUESTED:          0  ISSUED:          0  USEFUL:          0  USELESS:          0
L1D USEFUL LOAD PREFETCHES:          0 PREFETCH ISSUED TO LOWER LEVEL:          0  ACCURACY: -nan
L1D TIMELY PREFETCHES:          0 LATE PREFETCHES: 0 DROPPED PREFETCHES: 0
L1D COMMIT LATE PREFETCHES: 0 MISSED OPPORTUNITY: 0 LATE IN PQ: 0 UNCOVERED: 0
L1D COMMIT LATE MSHR PREFETCHES: 0
L1D MPKI TOTAL: 25.512 MSHR LATE: 0 PQ LATE: 0 COMMIT LATE: 0 MISSED OPPORTUNITY: 0 UNCOVERED: 0
L1D PREFETCHES SAME FILL-ORIGIN LEVEL: 0 DIFFERENT FILL-ORIGIN LEVEL: 0
L1D AVERAGE MISS LATENCY: 81.0475 cycles
L1D AVERAGE MISS LATENCY LOAD: 117.224 cycles
L1D AVERAGE MISS LATENCY PREFETCH: -nan cycles
L1D AVERAGE MSHR OCCUPANCY: 0.431902
L1D MSHR FULL: 0.0132305
L1D RQ	ACCESS:   37665593	FORWARD:          0	MERGED:    2421791	TO_CACHE:   35114565
L1D WQ	ACCESS:    9657265	FORWARD:     129237	MERGED:     116547	TO_CACHE:    9540718

L1D UNIQUE REGIONS ACCESSED: 0
L1D REGIONS CONFLICTS: 0
L1D Cross Page Prefetch Requests: 0
L1D Same Page Prefetch Requests: 0
L1D ROI Sum of L1D PQ occupancy: 0
L1D PREFETCHES PUSHED FROM L2C: 0
L1I SPEC fills:          0  NON-SPEC fills:          0
L1I Test counter :          0
L1I Leapfrog:          0
L1I MSHR merge:          3
L1I TOTAL     ACCESS:   43043583  HIT:   43043570  MISS:         13  HIT %:        100  MISS %: 3.02019e-05   MPKI: 6.5e-05
L1I LOAD      TOTAL       ACCESS:   43043583  HIT:   43043570  MISS:         13  HIT %:        100  MISS %: 3.02019e-05   MPKI: 6.5e-05
L1I LOAD      NON_SPEC    ACCESS:   43043583  HIT:   43043570  MISS:         13  HIT %:        100  MISS %: 3.02019e-05   MPKI: 6.5e-05
L1I PREFETCH  REQUESTED:          0  ISSUED:          0  USEFUL:          0  USELESS:          0
L1I USEFUL LOAD PREFETCHES:          0 PREFETCH ISSUED TO LOWER LEVEL:          0  ACCURACY: -nan
L1I TIMELY PREFETCHES:          0 LATE PREFETCHES: 0 DROPPED PREFETCHES: 0
L1I COMMIT LATE PREFETCHES: 0 MISSED OPPORTUNITY: 0 LATE IN PQ: 0 UNCOVERED: 0
L1I COMMIT LATE MSHR PREFETCHES: 0
L1I MPKI TOTAL: 8e-05 MSHR LATE: 0 PQ LATE: 0 COMMIT LATE: 0 MISSED OPPORTUNITY: 0 UNCOVERED: 0
L1I PREFETCHES SAME FILL-ORIGIN LEVEL: 0 DIFFERENT FILL-ORIGIN LEVEL: 0
L1I AVERAGE MISS LATENCY: 214 cycles
L1I AVERAGE MISS LATENCY LOAD: 214 cycles
L1I AVERAGE MISS LATENCY PREFETCH: -nan cycles
L1I AVERAGE MSHR OCCUPANCY: 2.0909e-07
L1I MSHR FULL: 0
L1I RQ	ACCESS:   65202112	FORWARD:          0	MERGED:   22158526	TO_CACHE:   43043586

BTB SPEC fills:          0  NON-SPEC fills:          0
BTB Test counter :          0
BTB Leapfrog:          0
BTB MSHR merge:          0
BTB TOTAL     ACCESS:   40501976  HIT:   40501622  MISS:        354  HIT %:    99.9991  MISS %: 0.000874031   MPKI: 0.00177
BTB BRANCH_DIRECT_JUMP	ACCESS:      40166  HIT:      40120  MISS:         46
BTB BRANCH_INDIRECT	ACCESS:          3  HIT:          2  MISS:          1
BTB BRANCH_CONDITIONAL	ACCESS:   40461166  HIT:   40461063  MISS:        103
BTB BRANCH_DIRECT_CALL	ACCESS:        311  HIT:        267  MISS:         44
BTB BRANCH_INDIRECT_CALL	ACCESS:          9  HIT:          6  MISS:          3
BTB BRANCH_RETURN	ACCESS:        321  HIT:        164  MISS:        157
BTB BRANCH_OTHER ACCESS:          0  HIT:          0  MISS:          0

L2C SPEC fills:          0  NON-SPEC fills:    1462605
L2C Test counter :    1939237
L2C Leapfrog:          0
L2C MSHR merge:          0
L2C TOTAL     ACCESS:    8552273  HIT:    2964372  MISS:    5587901  HIT %:    34.6618  MISS %:    65.3382   MPKI: 27.9395
L2C LOAD      TOTAL       ACCESS:    5100966  HIT:    1699563  MISS:    3401403  HIT %:    33.3185  MISS %:    66.6815   MPKI: 17.007
L2C LOAD      NON_SPEC    ACCESS:    2514777  HIT:    1052159  MISS:    1462618  HIT %:    41.8391  MISS %:    58.1609   MPKI: 7.31309
L2C LOAD      SPEC        ACCESS:    2586189  HIT:     647404  MISS:    1938785  HIT %:    25.0331  MISS %:    74.9669   MPKI: 9.69392
L2C RFO       NON_SPEC    ACCESS:     226813  HIT:       8550  MISS:     218263  HIT %:    3.76963  MISS %:    96.2304   MPKI: 1.09131
L2C WRITEBACK NON_SPEC    ACCESS:     392099  HIT:     392096  MISS:          3  HIT %:    99.9992  MISS %: 0.000765113   MPKI: 1.5e-05
L2C CLEAN_EVICTION NON_SPEC    ACCESS:    1946721  HIT:      15210  MISS:    1931511  HIT %:   0.781314  MISS %:    99.2187   MPKI: 9.65755
L2C COMMIT LOAD NON_SPEC    ACCESS:      11524  HIT:       5810  MISS:       5714  HIT %:    50.4165  MISS %:    49.5835   MPKI: 0.02857
L2C LOAD TRANSLATION NON_SPEC    ACCESS:     874150  HIT:     843143  MISS:      31007  HIT %:    96.4529  MISS %:     3.5471   MPKI: 0.155035
L2C PREFETCH  REQUESTED:          0  ISSUED:          0  USEFUL:          0  USELESS:          0
L2C USEFUL LOAD PREFETCHES:          0 PREFETCH ISSUED TO LOWER LEVEL:          0  ACCURACY: -nan
L2C TIMELY PREFETCHES:          0 LATE PREFETCHES: 0 DROPPED PREFETCHES: 0
L2C COMMIT LATE PREFETCHES: 0 MISSED OPPORTUNITY: 0 LATE IN PQ: 0 UNCOVERED: 0
L2C COMMIT LATE MSHR PREFETCHES: 0
L2C MPKI TOTAL: 17.007 MSHR LATE: 0 PQ LATE: 0 COMMIT LATE: 0 MISSED OPPORTUNITY: 0 UNCOVERED: 0
L2C PREFETCHES SAME FILL-ORIGIN LEVEL: 0 DIFFERENT FILL-ORIGIN LEVEL: 0
L2C AVERAGE MISS LATENCY: 103.361 cycles
L2C AVERAGE MISS LATENCY LOAD: 156.2 cycles
L2C AVERAGE MISS LATENCY PREFETCH: -nan cycles
L2C AVERAGE MSHR OCCUPANCY: 0.364949
L2C MSHR FULL: 0
L2C RQ	ACCESS:    6213473	FORWARD:          0	MERGED:          0	TO_CACHE:    6213453
L2C WQ	ACCESS:    2338820	FORWARD:         20	MERGED:          0	TO_CACHE:    2338820

L2C Instructions Evicting Data 13
L2C Translations Evicting Data 30773
L2C Data Evicting Data 1674188
L2C Instructions Evicting Instructions 0
L2C Translations Evicting Instructions 1
L2C Data Evicting Instructions 8
L2C Instructions Evicting Translations 0
L2C Translations Evicting Translations 233
L2C Data Evicting Translations 12386
L2C Dense regions hint from L2: 0
PSCL5 SPEC fills:          0  NON-SPEC fills:          0
PSCL5 Test counter :          0
PSCL5 Leapfrog:          0
PSCL5 MSHR merge:          0
PSCL5 TOTAL     ACCESS:          0  HIT:          0  MISS:          0  HIT %:       -nan  MISS %:       -nan   MPKI: 0
PSCL5 PREFETCH  REQUESTED:          0  ISSUED:          0  USEFUL:          0  USELESS:          0
PSCL5 USEFUL LOAD PREFETCHES:          0 PREFETCH ISSUED TO LOWER LEVEL:          0  ACCURACY: -nan
PSCL5 TIMELY PREFETCHES:          0 LATE PREFETCHES: 0 DROPPED PREFETCHES: 0
PSCL5 COMMIT LATE PREFETCHES: 0 MISSED OPPORTUNITY: 0 LATE IN PQ: 0 UNCOVERED: 0
PSCL5 COMMIT LATE MSHR PREFETCHES: 0
PSCL5 MPKI TOTAL: 0 MSHR LATE: 0 PQ LATE: 0 COMMIT LATE: 0 MISSED OPPORTUNITY: 0 UNCOVERED: 0
PSCL5 PREFETCHES SAME FILL-ORIGIN LEVEL: 0 DIFFERENT FILL-ORIGIN LEVEL: 0

PSCL4 SPEC fills:          0  NON-SPEC fills:          0
PSCL4 Test counter :          0
PSCL4 Leapfrog:          0
PSCL4 MSHR merge:          0
PSCL4 TOTAL     ACCESS:          0  HIT:          0  MISS:          0  HIT %:       -nan  MISS %:       -nan   MPKI: 0
PSCL4 PREFETCH  REQUESTED:          0  ISSUED:          0  USEFUL:          0  USELESS:          0
PSCL4 USEFUL LOAD PREFETCHES:          0 PREFETCH ISSUED TO LOWER LEVEL:          0  ACCURACY: -nan
PSCL4 TIMELY PREFETCHES:          0 LATE PREFETCHES: 0 DROPPED PREFETCHES: 0
PSCL4 COMMIT LATE PREFETCHES: 0 MISSED OPPORTUNITY: 0 LATE IN PQ: 0 UNCOVERED: 0
PSCL4 COMMIT LATE MSHR PREFETCHES: 0
PSCL4 MPKI TOTAL: 0 MSHR LATE: 0 PQ LATE: 0 COMMIT LATE: 0 MISSED OPPORTUNITY: 0 UNCOVERED: 0
PSCL4 PREFETCHES SAME FILL-ORIGIN LEVEL: 0 DIFFERENT FILL-ORIGIN LEVEL: 0

PSCL3 SPEC fills:          0  NON-SPEC fills:          0
PSCL3 Test counter :          0
PSCL3 Leapfrog:          0
PSCL3 MSHR merge:          0
PSCL3 TOTAL     ACCESS:          0  HIT:          0  MISS:          0  HIT %:       -nan  MISS %:       -nan   MPKI: 0
PSCL3 PREFETCH  REQUESTED:          0  ISSUED:          0  USEFUL:          0  USELESS:          0
PSCL3 USEFUL LOAD PREFETCHES:          0 PREFETCH ISSUED TO LOWER LEVEL:          0  ACCURACY: -nan
PSCL3 TIMELY PREFETCHES:          0 LATE PREFETCHES: 0 DROPPED PREFETCHES: 0
PSCL3 COMMIT LATE PREFETCHES: 0 MISSED OPPORTUNITY: 0 LATE IN PQ: 0 UNCOVERED: 0
PSCL3 COMMIT LATE MSHR PREFETCHES: 0
PSCL3 MPKI TOTAL: 0 MSHR LATE: 0 PQ LATE: 0 COMMIT LATE: 0 MISSED OPPORTUNITY: 0 UNCOVERED: 0
PSCL3 PREFETCHES SAME FILL-ORIGIN LEVEL: 0 DIFFERENT FILL-ORIGIN LEVEL: 0

PSCL2 SPEC fills:          0  NON-SPEC fills:          0
PSCL2 Test counter :          0
PSCL2 Leapfrog:          0
PSCL2 MSHR merge:          0
PSCL2 TOTAL     ACCESS:          0  HIT:          0  MISS:          0  HIT %:       -nan  MISS %:       -nan   MPKI: 0
PSCL2 PREFETCH  REQUESTED:          0  ISSUED:          0  USEFUL:          0  USELESS:          0
PSCL2 USEFUL LOAD PREFETCHES:          0 PREFETCH ISSUED TO LOWER LEVEL:          0  ACCURACY: -nan
PSCL2 TIMELY PREFETCHES:          0 LATE PREFETCHES: 0 DROPPED PREFETCHES: 0
PSCL2 COMMIT LATE PREFETCHES: 0 MISSED OPPORTUNITY: 0 LATE IN PQ: 0 UNCOVERED: 0
PSCL2 COMMIT LATE MSHR PREFETCHES: 0
PSCL2 MPKI TOTAL: 0 MSHR LATE: 0 PQ LATE: 0 COMMIT LATE: 0 MISSED OPPORTUNITY: 0 UNCOVERED: 0
PSCL2 PREFETCHES SAME FILL-ORIGIN LEVEL: 0 DIFFERENT FILL-ORIGIN LEVEL: 0

LLC SPEC fills:          0  NON-SPEC fills:    1327798
LLC Test counter :    1881670
LLC Leapfrog:          0
LLC MSHR merge:          0
LLC TOTAL     ACCESS:    5971221  HIT:     680292  MISS:    5290929  HIT %:    11.3928  MISS %:    88.6072   MPKI: 26.4546
LLC LOAD      TOTAL       ACCESS:    3401400  HIT:     223734  MISS:    3177666  HIT %:     6.5777  MISS %:    93.4223   MPKI: 15.8883
LLC LOAD      NON_SPEC    ACCESS:    1462615  HIT:     134804  MISS:    1327811  HIT %:    9.21664  MISS %:    90.7834   MPKI: 6.63905
LLC LOAD      SPEC        ACCESS:    1938785  HIT:      88930  MISS:    1849855  HIT %:    4.58689  MISS %:    95.4131   MPKI: 9.24927
LLC RFO       NON_SPEC    ACCESS:     218263  HIT:       4192  MISS:     214071  HIT %:    1.92062  MISS %:    98.0794   MPKI: 1.07035
LLC WRITEBACK NON_SPEC    ACCESS:     375600  HIT:     374194  MISS:       1406  HIT %:    99.6257  MISS %:   0.374334   MPKI: 0.00703
LLC CLEAN_EVICTION NON_SPEC    ACCESS:    1939237  HIT:      76199  MISS:    1863038  HIT %:    3.92933  MISS %:    96.0707   MPKI: 9.31519
LLC COMMIT LOAD NON_SPEC    ACCESS:       5714  HIT:       1181  MISS:       4533  HIT %:    20.6685  MISS %:    79.3315   MPKI: 0.022665
LLC LOAD TRANSLATION NON_SPEC    ACCESS:      31007  HIT:        792  MISS:      30215  HIT %:    2.55426  MISS %:    97.4457   MPKI: 0.151075
LLC PREFETCH  REQUESTED:          0  ISSUED:          0  USEFUL:          0  USELESS:          0
LLC USEFUL LOAD PREFETCHES:          0 PREFETCH ISSUED TO LOWER LEVEL:          0  ACCURACY: -nan
LLC TIMELY PREFETCHES:          0 LATE PREFETCHES: 0 DROPPED PREFETCHES: 0
LLC COMMIT LATE PREFETCHES: 0 MISSED OPPORTUNITY: 0 LATE IN PQ: 0 UNCOVERED: 0
LLC COMMIT LATE MSHR PREFETCHES: 0
LLC MPKI TOTAL: 15.8883 MSHR LATE: 0 PQ LATE: 0 COMMIT LATE: 0 MISSED OPPORTUNITY: 0 UNCOVERED: 0
LLC PREFETCHES SAME FILL-ORIGIN LEVEL: 0 DIFFERENT FILL-ORIGIN LEVEL: 0
LLC AVERAGE MISS LATENCY: 91.7266 cycles
LLC AVERAGE MISS LATENCY LOAD: 140.576 cycles
LLC AVERAGE MISS LATENCY PREFETCH: -nan cycles
LLC AVERAGE MSHR OCCUPANCY: 0.356161
LLC MSHR FULL: 0
LLC RQ	ACCESS:    3656387	FORWARD:          0	MERGED:          0	TO_CACHE:    3656384
LLC WQ	ACCESS:    2314837	FORWARD:          3	MERGED:          0	TO_CACHE:    2314837

LLC Dense regions hint to LLC: 0

RAW hits: 202616
Loads Generated: 49148143
Loads sent to L1D: 48945527
Stores Generated: 7109412
Stores sent to L1D: 7109411
Major fault: 0 Minor fault: 27368
Allocated PAGES: 27368
Total Load insts: 61480486
Total Non-spec loads: 14326299
Percentage of speculative loads: 76.6978

LeapFrogging counter: 66314
Commit hits: 18378032 miss: 16525388
Commit hit %: 52.654 miss %: 47.346
Commits not translated: 0
Loads retired: 5100973
Stores retired: 7109411
Cache fills: 5100973
L1D response latency: 117.224 cycles
Load retirement latency: 144.157 cycles
OOO test counter: 0
Discarded buffer inserts: 18378032 hits: 17617 hit %: 0.095859

DRAM Statistics
 CHANNEL 0
 RQ ROW_BUFFER_HIT:     831112  ROW_BUFFER_MISS:    2595349
 DBUS_CONGESTED:        565
 WQ ROW_BUFFER_HIT:     721884  ROW_BUFFER_MISS:    1521870  FULL:      18597

 AVG_CONGESTED_CYCLE: 6
 All warmup complete: 2
Channel 0 Bank busy for read cycles: 0
Channel 0 Bank busy for write cycles: 0
Channel 0
Rank 0
0banks busy for read cycles: 258898572
0banks busy for write cycles: 1125374
1banks busy for read cycles: 296978620
1banks busy for write cycles: 202186706
2banks busy for read cycles: 54258080
2banks busy for write cycles: 60677464
3banks busy for read cycles: 4984927
3banks busy for write cycles: 9449816
4banks busy for read cycles: 1463441
4banks busy for write cycles: 1280886
5banks busy for read cycles: 505996
5banks busy for write cycles: 391836
6banks busy for read cycles: 126239
6banks busy for write cycles: 618919
7banks busy for read cycles: 41570
7banks busy for write cycles: 2092236
8banks busy for read cycles: 162795
8banks busy for write cycles: 8604421

CPU 0 Branch Prediction Accuracy: 86.5484% MPKI: 28.7876 Average ROB Occupancy at Mispredict: 8.81924
Branch types
NOT_BRANCH: 157198299 78.5991%
BRANCH_DIRECT_JUMP: 40166 0.020083%
BRANCH_INDIRECT: 3 1.5e-06%
BRANCH_CONDITIONAL: 42760831 21.3804%
BRANCH_DIRECT_CALL: 311 0.0001555%
BRANCH_INDIRECT_CALL: 9 4.5e-06%
BRANCH_RETURN: 321 0.0001605%
BRANCH_OTHER: 0 0%

DRAM PAGES: 1048576
Allocated PAGES: 27368
