
*** ChampSim Multicore Out-of-Order Simulator ***

Warmup Instructions: 50000000
Simulation Instructions: 200000000
Number of CPUs: 1
LLC sets: 2048
LLC ways: 16
L0D sets: 16
L0D ways: 2
ROB size: 352
LQ size: 128
SQ size: 72
Secure Berti: OFF
Berti: OFF
Berti Fill: OFF
On commit prefetching: OFF
Hit-based filter: ON
Time-guarding: ON
Free-slotting: ON
Leap-frogging: ON
Train prefetcher on L0D bypass: OFF
No translation penalty for prefetchers: OFF
Prefetch to L0D only: OFF
Prefetch to L1D only: OFF
Clean evictions: ON
Commit loads: ON
Commit write: ON
Fill commit loads to L2C, LLC: ON
DRAM IO FREQUENCY: 6400
ROB SIZE: 352
Off-chip DRAM Size: 4096 MB Channels: 1 Width: 64-bit Data Rate: 6400 MT/s
CPU 0 runs /home/sumon/secure_berti/GhostMinion/../../traces/gap/cc-5.trace.gz
.gz
BTB has LRU replacement policy
ITLB has LRU replacement policy
DTLB has LRU replacement policy
STLB has LRU replacement policy
L1I has LRU replacement policy
L0D has LRU replacement policy
L1D has LRU replacement policy
L2C has LRU replacement policy
LLC has LRU replacement policy
Heartbeat CPU 0 instructions: 10000001 cycles: 3242172 heartbeat IPC: 3.08435 cumulative IPC: 3.08435 (Simulation time: 0 hr 0 min 29 sec) 
Heartbeat CPU 0 instructions: 20000000 cycles: 6479125 heartbeat IPC: 3.08932 cumulative IPC: 3.08684 (Simulation time: 0 hr 0 min 59 sec) 
Heartbeat CPU 0 instructions: 30000002 cycles: 9721526 heartbeat IPC: 3.08413 cumulative IPC: 3.08594 (Simulation time: 0 hr 1 min 30 sec) 
Heartbeat CPU 0 instructions: 40000001 cycles: 12962274 heartbeat IPC: 3.08571 cumulative IPC: 3.08588 (Simulation time: 0 hr 2 min 1 sec) 
Heartbeat CPU 0 instructions: 50000001 cycles: 16200991 heartbeat IPC: 3.08764 cumulative IPC: 3.08623 (Simulation time: 0 hr 2 min 31 sec) 

Warmup complete CPU 0 instructions: 50000001 cycles: 16200991 (Simulation time: 0 hr 2 min 31 sec) 

Heartbeat CPU 0 instructions: 60000001 cycles: 57004993 heartbeat IPC: 0.245074 cumulative IPC: 0.245074 (Simulation time: 0 hr 3 min 18 sec) 
Heartbeat CPU 0 instructions: 70000002 cycles: 96333158 heartbeat IPC: 0.254271 cumulative IPC: 0.249588 (Simulation time: 0 hr 4 min 6 sec) 
Heartbeat CPU 0 instructions: 80000000 cycles: 135911071 heartbeat IPC: 0.252666 cumulative IPC: 0.250605 (Simulation time: 0 hr 5 min 18 sec) 
Heartbeat CPU 0 instructions: 90000000 cycles: 175821602 heartbeat IPC: 0.25056 cumulative IPC: 0.250594 (Simulation time: 0 hr 6 min 3 sec) 
Heartbeat CPU 0 instructions: 100000003 cycles: 214734487 heartbeat IPC: 0.256984 cumulative IPC: 0.251847 (Simulation time: 0 hr 6 min 48 sec) 
Heartbeat CPU 0 instructions: 110000000 cycles: 253771453 heartbeat IPC: 0.256167 cumulative IPC: 0.252557 (Simulation time: 0 hr 7 min 34 sec) 
Heartbeat CPU 0 instructions: 120000000 cycles: 292774343 heartbeat IPC: 0.256391 cumulative IPC: 0.253097 (Simulation time: 0 hr 8 min 18 sec) 
Heartbeat CPU 0 instructions: 130000003 cycles: 330225242 heartbeat IPC: 0.267016 cumulative IPC: 0.254757 (Simulation time: 0 hr 9 min 3 sec) 
Heartbeat CPU 0 instructions: 140000001 cycles: 368870065 heartbeat IPC: 0.258767 cumulative IPC: 0.255197 (Simulation time: 0 hr 9 min 48 sec) 
Heartbeat CPU 0 instructions: 150000000 cycles: 406970951 heartbeat IPC: 0.262461 cumulative IPC: 0.255905 (Simulation time: 0 hr 10 min 35 sec) 
Heartbeat CPU 0 instructions: 160000000 cycles: 445697377 heartbeat IPC: 0.258222 cumulative IPC: 0.256114 (Simulation time: 0 hr 11 min 22 sec) 
Heartbeat CPU 0 instructions: 170000000 cycles: 484299483 heartbeat IPC: 0.259053 cumulative IPC: 0.256356 (Simulation time: 0 hr 12 min 9 sec) 
Heartbeat CPU 0 instructions: 180000001 cycles: 523117664 heartbeat IPC: 0.257611 cumulative IPC: 0.256452 (Simulation time: 0 hr 12 min 52 sec) 
Heartbeat CPU 0 instructions: 190000001 cycles: 561690761 heartbeat IPC: 0.259248 cumulative IPC: 0.25665 (Simulation time: 0 hr 13 min 34 sec) 
Heartbeat CPU 0 instructions: 200000000 cycles: 599857414 heartbeat IPC: 0.262009 cumulative IPC: 0.257001 (Simulation time: 0 hr 14 min 16 sec) 
Heartbeat CPU 0 instructions: 210000001 cycles: 638323965 heartbeat IPC: 0.259966 cumulative IPC: 0.257184 (Simulation time: 0 hr 14 min 58 sec) 
Heartbeat CPU 0 instructions: 220000000 cycles: 676178270 heartbeat IPC: 0.264171 cumulative IPC: 0.257585 (Simulation time: 0 hr 15 min 40 sec) 
Heartbeat CPU 0 instructions: 230000001 cycles: 713949992 heartbeat IPC: 0.264748 cumulative IPC: 0.257972 (Simulation time: 0 hr 16 min 22 sec) 
Heartbeat CPU 0 instructions: 240000003 cycles: 751403169 heartbeat IPC: 0.267 cumulative IPC: 0.258432 (Simulation time: 0 hr 17 min 4 sec) 
Heartbeat CPU 0 instructions: 250000002 cycles: 788393473 heartbeat IPC: 0.270341 cumulative IPC: 0.259003 (Simulation time: 0 hr 17 min 47 sec) 
Finished CPU 0 instructions: 200000001 cycles: 772192482 cumulative IPC: 0.259003 (Simulation time: 0 hr 17 min 47 sec) 
 Instruction ID: 250000027

ChampSim completed all CPUs

Region of Interest Statistics

CPU 0 cumulative IPC: 0.259003 instructions: 200000001 cycles: 772192482
ITLB SPEC fills:          0  NON-SPEC fills:          0
ITLB Test counter :          0
ITLB Leapfrog:          0
ITLB MSHR merge:          0
ITLB TOTAL     ACCESS:   30173644  HIT:   30173644  MISS:          0  HIT %:        100  MISS %:          0   MPKI: 0
ITLB LOAD TRANSLATION NON_SPEC    ACCESS:   30173644  HIT:   30173644  MISS:          0  HIT %:        100  MISS %:          0   MPKI: 0
ITLB PREFETCH  REQUESTED:          0  ISSUED:          0  USEFUL:          0  USELESS:          0
ITLB USEFUL LOAD PREFETCHES:          0 PREFETCH ISSUED TO LOWER LEVEL:          0  ACCURACY: -nan
ITLB TIMELY PREFETCHES:          0 LATE PREFETCHES: 0 DROPPED PREFETCHES: 0
ITLB COMMIT LATE PREFETCHES: 0 MISSED OPPORTUNITY: 0 LATE IN PQ: 0 UNCOVERED: 0
ITLB COMMIT LATE MSHR PREFETCHES: 0
ITLB MPKI TOTAL: 0 MSHR LATE: 0 PQ LATE: 0 COMMIT LATE: 0 MISSED OPPORTUNITY: 0 UNCOVERED: 0
ITLB PREFETCHES SAME FILL-ORIGIN LEVEL: 0 DIFFERENT FILL-ORIGIN LEVEL: 0
ITLB AVERAGE MISS LATENCY: -nan cycles
ITLB AVERAGE MISS LATENCY LOAD: -nan cycles
ITLB AVERAGE MISS LATENCY PREFETCH: -nan cycles
ITLB AVERAGE MSHR OCCUPANCY: 0
ITLB MSHR FULL: 0
ITLB RQ	ACCESS:   30811042	FORWARD:          0	MERGED:     637398	TO_CACHE:   30173644

DTLB SPEC fills:          0  NON-SPEC fills:          0
DTLB Test counter :          0
DTLB Leapfrog:          0
DTLB MSHR merge:          0
DTLB TOTAL     ACCESS:   45510971  HIT:   36033050  MISS:    9477921  HIT %:    79.1744  MISS %:    20.8256   MPKI: 47.3896
DTLB LOAD TRANSLATION NON_SPEC    ACCESS:   45510971  HIT:   36033050  MISS:    9477921  HIT %:    79.1744  MISS %:    20.8256   MPKI: 47.3896
DTLB PREFETCH  REQUESTED:          0  ISSUED:          0  USEFUL:          0  USELESS:          0
DTLB USEFUL LOAD PREFETCHES:          0 PREFETCH ISSUED TO LOWER LEVEL:          0  ACCURACY: -nan
DTLB TIMELY PREFETCHES:          0 LATE PREFETCHES: 0 DROPPED PREFETCHES: 0
DTLB COMMIT LATE PREFETCHES: 0 MISSED OPPORTUNITY: 0 LATE IN PQ: 0 UNCOVERED: 0
DTLB COMMIT LATE MSHR PREFETCHES: 0
DTLB MPKI TOTAL: 0 MSHR LATE: 0 PQ LATE: 0 COMMIT LATE: 0 MISSED OPPORTUNITY: 0 UNCOVERED: 0
DTLB PREFETCHES SAME FILL-ORIGIN LEVEL: 0 DIFFERENT FILL-ORIGIN LEVEL: 0
DTLB AVERAGE MISS LATENCY: 9.72051 cycles
DTLB AVERAGE MISS LATENCY LOAD: -nan cycles
DTLB AVERAGE MISS LATENCY PREFETCH: -nan cycles
DTLB AVERAGE MSHR OCCUPANCY: 0.446079
DTLB MSHR FULL: 0.00829813
DTLB RQ	ACCESS:   48225629	FORWARD:          0	MERGED:    2477632	TO_CACHE:   45747997

STLB SPEC fills:          0  NON-SPEC fills:          0
STLB Test counter :          0
STLB Leapfrog:          0
STLB MSHR merge:          0
STLB TOTAL     ACCESS:    9477921  HIT:    9463652  MISS:      14269  HIT %:    99.8495  MISS %:    0.15055   MPKI: 0.071345
STLB LOAD TRANSLATION NON_SPEC    ACCESS:    9477921  HIT:    9463652  MISS:      14269  HIT %:    99.8495  MISS %:    0.15055   MPKI: 0.071345
STLB PREFETCH  REQUESTED:          0  ISSUED:          0  USEFUL:          0  USELESS:          0
STLB USEFUL LOAD PREFETCHES:          0 PREFETCH ISSUED TO LOWER LEVEL:          0  ACCURACY: -nan
STLB TIMELY PREFETCHES:          0 LATE PREFETCHES: 0 DROPPED PREFETCHES: 0
STLB COMMIT LATE PREFETCHES: 0 MISSED OPPORTUNITY: 0 LATE IN PQ: 0 UNCOVERED: 0
STLB COMMIT LATE MSHR PREFETCHES: 0
STLB MPKI TOTAL: 0 MSHR LATE: 0 PQ LATE: 0 COMMIT LATE: 0 MISSED OPPORTUNITY: 0 UNCOVERED: 0
STLB PREFETCHES SAME FILL-ORIGIN LEVEL: 0 DIFFERENT FILL-ORIGIN LEVEL: 0
STLB AVERAGE MISS LATENCY: 187.457 cycles
STLB AVERAGE MISS LATENCY LOAD: -nan cycles
STLB AVERAGE MISS LATENCY PREFETCH: -nan cycles
STLB AVERAGE MSHR OCCUPANCY: 0.0013964
STLB MSHR FULL: 0
STLB RQ	ACCESS:    9477921	FORWARD:          0	MERGED:          0	TO_CACHE:    9477921

STLB Hit, L1D data hit: 0
STLB Hit, L2C data hit: 0
STLB Hit, LLC data hit: 0
STLB Hit, LLC data miss: 0
STLB STLB hints to L2: 0
L0D SPEC fills:   24155814  NON-SPEC fills:          0
L0D TimeGuard Request with older TS:     596615 Restricted eviction:     257669 read:     603134
L0D Test counter :          0
L0D Leapfrog:          0
L0D MSHR merge:    3292260
L0D TOTAL     ACCESS:   44685094  HIT:   11111182  MISS:   33573912  HIT %:    24.8655  MISS %:    75.1345   MPKI: 167.87
L0D LOAD      TOTAL       ACCESS:   44685094  HIT:   11111182  MISS:   33573912  HIT %:    24.8655  MISS %:    75.1345   MPKI: 167.87
L0D LOAD      NON_SPEC    ACCESS:   10083715  HIT:     923286  MISS:    9160429  HIT %:    9.15621  MISS %:    90.8438   MPKI: 45.8021
L0D LOAD      SPEC        ACCESS:   34601379  HIT:   10187896  MISS:   24413483  HIT %:    29.4436  MISS %:    70.5564   MPKI: 122.067
L0D PREFETCH  REQUESTED:          0  ISSUED:          0  USEFUL:          0  USELESS:          0
L0D USEFUL LOAD PREFETCHES:          0 PREFETCH ISSUED TO LOWER LEVEL:          0  ACCURACY: -nan
L0D TIMELY PREFETCHES:          0 LATE PREFETCHES: 0 DROPPED PREFETCHES: 0
L0D COMMIT LATE PREFETCHES: 0 MISSED OPPORTUNITY: 0 LATE IN PQ: 0 UNCOVERED: 0
L0D COMMIT LATE MSHR PREFETCHES: 0
L0D MPKI TOTAL: 184.331 MSHR LATE: 0 PQ LATE: 0 COMMIT LATE: 0 MISSED OPPORTUNITY: 0 UNCOVERED: 0
L0D PREFETCHES SAME FILL-ORIGIN LEVEL: 0 DIFFERENT FILL-ORIGIN LEVEL: 0
L0D AVERAGE MISS LATENCY: 36.6249 cycles
L0D AVERAGE MISS LATENCY LOAD: 36.6249 cycles
L0D AVERAGE MISS LATENCY PREFETCH: -nan cycles
L0D AVERAGE MSHR OCCUPANCY: 2.24837
L0D MSHR FULL: 0.0592843
L0D RQ	ACCESS:   54337436	FORWARD:          0	MERGED:    6360089	TO_CACHE:   47977347
L0D WQ	ACCESS:     248282	FORWARD:          0	MERGED:          0	TO_CACHE:     248282

L1D SPEC fills:          0  NON-SPEC fills:    3163356
L1D Test counter :    8151236
L1D Leapfrog:          0
L1D MSHR merge:       4374
L1D TOTAL     ACCESS:   47739313  HIT:   21366362  MISS:   26372951  HIT %:    44.7563  MISS %:    55.2437   MPKI: 131.865
L1D LOAD      TOTAL       ACCESS:   33569539  HIT:   18784738  MISS:   14784801  HIT %:    55.9577  MISS %:    44.0423   MPKI: 73.924
L1D LOAD      NON_SPEC    ACCESS:    9158315  HIT:    5994959  MISS:    3163356  HIT %:    65.4592  MISS %:    34.5408   MPKI: 15.8168
L1D LOAD      SPEC        ACCESS:   24411224  HIT:   12789779  MISS:   11621445  HIT %:     52.393  MISS %:     47.607   MPKI: 58.1072
L1D RFO       NON_SPEC    ACCESS:     247154  HIT:     247152  MISS:          2  HIT %:    99.9992  MISS %: 0.000809212   MPKI: 1e-05
L1D COMMIT LOAD NON_SPEC    ACCESS:    2160013  HIT:    1926043  MISS:     233970  HIT %:    89.1681  MISS %:    10.8319   MPKI: 1.16985
L1D COMMIT WRITE NON_SPEC    ACCESS:   11762607  HIT:     408429  MISS:   11354178  HIT %:    3.47227  MISS %:    96.5277   MPKI: 56.7709
L1D PREFETCH  REQUESTED:          0  ISSUED:          0  USEFUL:          0  USELESS:          0
L1D USEFUL LOAD PREFETCHES:          0 PREFETCH ISSUED TO LOWER LEVEL:          0  ACCURACY: -nan
L1D TIMELY PREFETCHES:          0 LATE PREFETCHES: 0 DROPPED PREFETCHES: 0
L1D COMMIT LATE PREFETCHES: 0 MISSED OPPORTUNITY: 0 LATE IN PQ: 0 UNCOVERED: 0
L1D COMMIT LATE MSHR PREFETCHES: 0
L1D MPKI TOTAL: 73.9459 MSHR LATE: 0 PQ LATE: 0 COMMIT LATE: 0 MISSED OPPORTUNITY: 0 UNCOVERED: 0
L1D PREFETCHES SAME FILL-ORIGIN LEVEL: 0 DIFFERENT FILL-ORIGIN LEVEL: 0
L1D AVERAGE MISS LATENCY: 40.4564 cycles
L1D AVERAGE MISS LATENCY LOAD: 71.4891 cycles
L1D AVERAGE MISS LATENCY PREFETCH: -nan cycles
L1D AVERAGE MSHR OCCUPANCY: 1.47268
L1D MSHR FULL: 0
L1D RQ	ACCESS:   36753577	FORWARD:          0	MERGED:     984331	TO_CACHE:   35752043
L1D WQ	ACCESS:   12012143	FORWARD:      17203	MERGED:       1292	TO_CACHE:   12010851

L1D UNIQUE REGIONS ACCESSED: 0
L1D REGIONS CONFLICTS: 0
L1D Cross Page Prefetch Requests: 0
L1D Same Page Prefetch Requests: 0
L1D ROI Sum of L1D PQ occupancy: 0
L1D PREFETCHES PUSHED FROM L2C: 0
L1I SPEC fills:          0  NON-SPEC fills:          0
L1I Test counter :          0
L1I Leapfrog:          0
L1I MSHR merge:          0
L1I TOTAL     ACCESS:   30811042  HIT:   30811042  MISS:          0  HIT %:        100  MISS %:          0   MPKI: 0
L1I LOAD      TOTAL       ACCESS:   30811042  HIT:   30811042  MISS:          0  HIT %:        100  MISS %:          0   MPKI: 0
L1I LOAD      NON_SPEC    ACCESS:   30811042  HIT:   30811042  MISS:          0  HIT %:        100  MISS %:          0   MPKI: 0
L1I PREFETCH  REQUESTED:          0  ISSUED:          0  USEFUL:          0  USELESS:          0
L1I USEFUL LOAD PREFETCHES:          0 PREFETCH ISSUED TO LOWER LEVEL:          0  ACCURACY: -nan
L1I TIMELY PREFETCHES:          0 LATE PREFETCHES: 0 DROPPED PREFETCHES: 0
L1I COMMIT LATE PREFETCHES: 0 MISSED OPPORTUNITY: 0 LATE IN PQ: 0 UNCOVERED: 0
L1I COMMIT LATE MSHR PREFETCHES: 0
L1I MPKI TOTAL: 0 MSHR LATE: 0 PQ LATE: 0 COMMIT LATE: 0 MISSED OPPORTUNITY: 0 UNCOVERED: 0
L1I PREFETCHES SAME FILL-ORIGIN LEVEL: 0 DIFFERENT FILL-ORIGIN LEVEL: 0
L1I AVERAGE MISS LATENCY: -nan cycles
L1I AVERAGE MISS LATENCY LOAD: -nan cycles
L1I AVERAGE MISS LATENCY PREFETCH: -nan cycles
L1I AVERAGE MSHR OCCUPANCY: 0
L1I MSHR FULL: 0
L1I RQ	ACCESS:   55857902	FORWARD:          0	MERGED:   25046860	TO_CACHE:   30811042

BTB SPEC fills:          0  NON-SPEC fills:          0
BTB Test counter :          0
BTB Leapfrog:          0
BTB MSHR merge:          0
BTB TOTAL     ACCESS:   40039424  HIT:   40039419  MISS:          5  HIT %:        100  MISS %: 1.24877e-05   MPKI: 2.5e-05
BTB BRANCH_DIRECT_JUMP	ACCESS:          0  HIT:          0  MISS:          0
BTB BRANCH_INDIRECT	ACCESS:          0  HIT:          0  MISS:          0
BTB BRANCH_CONDITIONAL	ACCESS:   40039424  HIT:   40039419  MISS:          5
BTB BRANCH_DIRECT_CALL	ACCESS:          0  HIT:          0  MISS:          0
BTB BRANCH_INDIRECT_CALL	ACCESS:          0  HIT:          0  MISS:          0
BTB BRANCH_RETURN	ACCESS:          0  HIT:          0  MISS:          0
BTB BRANCH_OTHER ACCESS:          0  HIT:          0  MISS:          0

L2C SPEC fills:          0  NON-SPEC fills:    2097360
L2C Test counter :    8138471
L2C Leapfrog:          0
L2C MSHR merge:          0
L2C TOTAL     ACCESS:   23276538  HIT:    4635115  MISS:   18641423  HIT %:    19.9132  MISS %:    80.0868   MPKI: 93.2071
L2C LOAD      TOTAL       ACCESS:   14784470  HIT:    4403682  MISS:   10380788  HIT %:    29.7859  MISS %:    70.2141   MPKI: 51.9039
L2C LOAD      NON_SPEC    ACCESS:    3163351  HIT:    1065991  MISS:    2097360  HIT %:    33.6982  MISS %:    66.3018   MPKI: 10.4868
L2C LOAD      SPEC        ACCESS:   11621119  HIT:    3337691  MISS:    8283428  HIT %:    28.7209  MISS %:    71.2791   MPKI: 41.4171
L2C RFO       NON_SPEC    ACCESS:          1  HIT:          1  MISS:          0  HIT %:        100  MISS %:          0   MPKI: 0
L2C WRITEBACK NON_SPEC    ACCESS:      35546  HIT:      35544  MISS:          2  HIT %:    99.9944  MISS %: 0.00562651   MPKI: 1e-05
L2C CLEAN_EVICTION NON_SPEC    ACCESS:    8151233  HIT:      34221  MISS:    8117012  HIT %:   0.419826  MISS %:    99.5802   MPKI: 40.5851
L2C COMMIT LOAD NON_SPEC    ACCESS:     233970  HIT:      95072  MISS:     138898  HIT %:    40.6343  MISS %:    59.3657   MPKI: 0.69449
L2C LOAD TRANSLATION NON_SPEC    ACCESS:      71318  HIT:      66595  MISS:       4723  HIT %:    93.3775  MISS %:    6.62245   MPKI: 0.023615
L2C PREFETCH  REQUESTED:          0  ISSUED:          0  USEFUL:          0  USELESS:          0
L2C USEFUL LOAD PREFETCHES:          0 PREFETCH ISSUED TO LOWER LEVEL:          0  ACCURACY: -nan
L2C TIMELY PREFETCHES:          0 LATE PREFETCHES: 0 DROPPED PREFETCHES: 0
L2C COMMIT LATE PREFETCHES: 0 MISSED OPPORTUNITY: 0 LATE IN PQ: 0 UNCOVERED: 0
L2C COMMIT LATE MSHR PREFETCHES: 0
L2C MPKI TOTAL: 51.9039 MSHR LATE: 0 PQ LATE: 0 COMMIT LATE: 0 MISSED OPPORTUNITY: 0 UNCOVERED: 0
L2C PREFETCHES SAME FILL-ORIGIN LEVEL: 0 DIFFERENT FILL-ORIGIN LEVEL: 0
L2C AVERAGE MISS LATENCY: 47.4816 cycles
L2C AVERAGE MISS LATENCY LOAD: 84.5965 cycles
L2C AVERAGE MISS LATENCY PREFETCH: -nan cycles
L2C AVERAGE MSHR OCCUPANCY: 1.50501
L2C MSHR FULL: 0
L2C RQ	ACCESS:   15090089	FORWARD:          0	MERGED:          0	TO_CACHE:   15089758
L2C WQ	ACCESS:    8186782	FORWARD:        331	MERGED:          0	TO_CACHE:    8186782

L2C Instructions Evicting Data 0
L2C Translations Evicting Data 4723
L2C Data Evicting Data 2235224
L2C Instructions Evicting Instructions 0
L2C Translations Evicting Instructions 0
L2C Data Evicting Instructions 0
L2C Instructions Evicting Translations 0
L2C Translations Evicting Translations 0
L2C Data Evicting Translations 1034
L2C Dense regions hint from L2: 0
PSCL5 SPEC fills:          0  NON-SPEC fills:          0
PSCL5 Test counter :          0
PSCL5 Leapfrog:          0
PSCL5 MSHR merge:          0
PSCL5 TOTAL     ACCESS:          0  HIT:          0  MISS:          0  HIT %:       -nan  MISS %:       -nan   MPKI: 0
PSCL5 PREFETCH  REQUESTED:          0  ISSUED:          0  USEFUL:          0  USELESS:          0
PSCL5 USEFUL LOAD PREFETCHES:          0 PREFETCH ISSUED TO LOWER LEVEL:          0  ACCURACY: -nan
PSCL5 TIMELY PREFETCHES:          0 LATE PREFETCHES: 0 DROPPED PREFETCHES: 0
PSCL5 COMMIT LATE PREFETCHES: 0 MISSED OPPORTUNITY: 0 LATE IN PQ: 0 UNCOVERED: 0
PSCL5 COMMIT LATE MSHR PREFETCHES: 0
PSCL5 MPKI TOTAL: 0 MSHR LATE: 0 PQ LATE: 0 COMMIT LATE: 0 MISSED OPPORTUNITY: 0 UNCOVERED: 0
PSCL5 PREFETCHES SAME FILL-ORIGIN LEVEL: 0 DIFFERENT FILL-ORIGIN LEVEL: 0

PSCL4 SPEC fills:          0  NON-SPEC fills:          0
PSCL4 Test counter :          0
PSCL4 Leapfrog:          0
PSCL4 MSHR merge:          0
PSCL4 TOTAL     ACCESS:          0  HIT:          0  MISS:          0  HIT %:       -nan  MISS %:       -nan   MPKI: 0
PSCL4 PREFETCH  REQUESTED:          0  ISSUED:          0  USEFUL:          0  USELESS:          0
PSCL4 USEFUL LOAD PREFETCHES:          0 PREFETCH ISSUED TO LOWER LEVEL:          0  ACCURACY: -nan
PSCL4 TIMELY PREFETCHES:          0 LATE PREFETCHES: 0 DROPPED PREFETCHES: 0
PSCL4 COMMIT LATE PREFETCHES: 0 MISSED OPPORTUNITY: 0 LATE IN PQ: 0 UNCOVERED: 0
PSCL4 COMMIT LATE MSHR PREFETCHES: 0
PSCL4 MPKI TOTAL: 0 MSHR LATE: 0 PQ LATE: 0 COMMIT LATE: 0 MISSED OPPORTUNITY: 0 UNCOVERED: 0
PSCL4 PREFETCHES SAME FILL-ORIGIN LEVEL: 0 DIFFERENT FILL-ORIGIN LEVEL: 0

PSCL3 SPEC fills:          0  NON-SPEC fills:          0
PSCL3 Test counter :          0
PSCL3 Leapfrog:          0
PSCL3 MSHR merge:          0
PSCL3 TOTAL     ACCESS:          0  HIT:          0  MISS:          0  HIT %:       -nan  MISS %:       -nan   MPKI: 0
PSCL3 PREFETCH  REQUESTED:          0  ISSUED:          0  USEFUL:          0  USELESS:          0
PSCL3 USEFUL LOAD PREFETCHES:          0 PREFETCH ISSUED TO LOWER LEVEL:          0  ACCURACY: -nan
PSCL3 TIMELY PREFETCHES:          0 LATE PREFETCHES: 0 DROPPED PREFETCHES: 0
PSCL3 COMMIT LATE PREFETCHES: 0 MISSED OPPORTUNITY: 0 LATE IN PQ: 0 UNCOVERED: 0
PSCL3 COMMIT LATE MSHR PREFETCHES: 0
PSCL3 MPKI TOTAL: 0 MSHR LATE: 0 PQ LATE: 0 COMMIT LATE: 0 MISSED OPPORTUNITY: 0 UNCOVERED: 0
PSCL3 PREFETCHES SAME FILL-ORIGIN LEVEL: 0 DIFFERENT FILL-ORIGIN LEVEL: 0

PSCL2 SPEC fills:          0  NON-SPEC fills:          0
PSCL2 Test counter :          0
PSCL2 Leapfrog:          0
PSCL2 MSHR merge:          0
PSCL2 TOTAL     ACCESS:          0  HIT:          0  MISS:          0  HIT %:       -nan  MISS %:       -nan   MPKI: 0
PSCL2 PREFETCH  REQUESTED:          0  ISSUED:          0  USEFUL:          0  USELESS:          0
PSCL2 USEFUL LOAD PREFETCHES:          0 PREFETCH ISSUED TO LOWER LEVEL:          0  ACCURACY: -nan
PSCL2 TIMELY PREFETCHES:          0 LATE PREFETCHES: 0 DROPPED PREFETCHES: 0
PSCL2 COMMIT LATE PREFETCHES: 0 MISSED OPPORTUNITY: 0 LATE IN PQ: 0 UNCOVERED: 0
PSCL2 COMMIT LATE MSHR PREFETCHES: 0
PSCL2 MPKI TOTAL: 0 MSHR LATE: 0 PQ LATE: 0 COMMIT LATE: 0 MISSED OPPORTUNITY: 0 UNCOVERED: 0
PSCL2 PREFETCHES SAME FILL-ORIGIN LEVEL: 0 DIFFERENT FILL-ORIGIN LEVEL: 0

LLC SPEC fills:          0  NON-SPEC fills:     766788
LLC Test counter :    3889446
LLC Leapfrog:          0
LLC MSHR merge:          0
LLC TOTAL     ACCESS:   18695233  HIT:   10910904  MISS:    7784329  HIT %:     58.362  MISS %:     41.638   MPKI: 38.9216
LLC LOAD      TOTAL       ACCESS:   10380677  HIT:    6290291  MISS:    4090386  HIT %:    60.5962  MISS %:    39.4038   MPKI: 20.4519
LLC LOAD      NON_SPEC    ACCESS:    2097342  HIT:    1330554  MISS:     766788  HIT %:      63.44  MISS %:      36.56   MPKI: 3.83394
LLC LOAD      SPEC        ACCESS:    8283335  HIT:    4959737  MISS:    3323598  HIT %:    59.8761  MISS %:    40.1239   MPKI: 16.618
LLC WRITEBACK NON_SPEC    ACCESS:      32502  HIT:      32501  MISS:          1  HIT %:    99.9969  MISS %: 0.00307673   MPKI: 5e-06
LLC CLEAN_EVICTION NON_SPEC    ACCESS:    8138471  HIT:    4464114  MISS:    3674357  HIT %:     54.852  MISS %:     45.148   MPKI: 18.3718
LLC COMMIT LOAD NON_SPEC    ACCESS:     138860  HIT:     121078  MISS:      17782  HIT %:    87.1943  MISS %:    12.8057   MPKI: 0.08891
LLC LOAD TRANSLATION NON_SPEC    ACCESS:       4723  HIT:       2920  MISS:       1803  HIT %:    61.8251  MISS %:    38.1749   MPKI: 0.009015
LLC PREFETCH  REQUESTED:          0  ISSUED:          0  USEFUL:          0  USELESS:          0
LLC USEFUL LOAD PREFETCHES:          0 PREFETCH ISSUED TO LOWER LEVEL:          0  ACCURACY: -nan
LLC TIMELY PREFETCHES:          0 LATE PREFETCHES: 0 DROPPED PREFETCHES: 0
LLC COMMIT LATE PREFETCHES: 0 MISSED OPPORTUNITY: 0 LATE IN PQ: 0 UNCOVERED: 0
LLC COMMIT LATE MSHR PREFETCHES: 0
LLC MPKI TOTAL: 20.4519 MSHR LATE: 0 PQ LATE: 0 COMMIT LATE: 0 MISSED OPPORTUNITY: 0 UNCOVERED: 0
LLC PREFETCHES SAME FILL-ORIGIN LEVEL: 0 DIFFERENT FILL-ORIGIN LEVEL: 0
LLC AVERAGE MISS LATENCY: 82.6974 cycles
LLC AVERAGE MISS LATENCY LOAD: 156.737 cycles
LLC AVERAGE MISS LATENCY PREFETCH: -nan cycles
LLC AVERAGE MSHR OCCUPANCY: 0.707947
LLC MSHR FULL: 0
LLC RQ	ACCESS:   10524408	FORWARD:          0	MERGED:          0	TO_CACHE:   10524259
LLC WQ	ACCESS:    8170973	FORWARD:        149	MERGED:          0	TO_CACHE:    8170973

LLC Dense regions hint to LLC: 0

RAW hits: 30134
Loads Generated: 54367570
Loads sent to L1D: 54337436
Stores Generated: 248282
Stores sent to L1D: 248282
Major fault: 0 Minor fault: 18714
Allocated PAGES: 18714
Total Load insts: 66974679
Total Non-spec loads: 10575462
Percentage of speculative loads: 84.2098

LeapFrogging counter: 773849
Commit hits: 23685622 miss: 20423594
Commit hit %: 53.6977 miss %: 46.3023
Commits not translated: 0
Loads retired: 14784799
Stores retired: 248282
Cache fills: 14784801
L1D response latency: 71.4891 cycles
Load retirement latency: 149.721 cycles
OOO test counter: 0
Discarded buffer inserts: 23685622 hits: 57845 hit %: 0.24422

DRAM Statistics
 CHANNEL 0
 RQ ROW_BUFFER_HIT:     314790  ROW_BUFFER_MISS:    3794573
 DBUS_CONGESTED:        840
 WQ ROW_BUFFER_HIT:    1496080  ROW_BUFFER_MISS:    2414926  FULL:          0

 AVG_CONGESTED_CYCLE: 5
 All warmup complete: 2
Channel 0 Bank busy for read cycles: 0
Channel 0 Bank busy for write cycles: 0
Channel 0
Rank 0
0banks busy for read cycles: 48375921
0banks busy for write cycles: 499989
1banks busy for read cycles: 266372853
1banks busy for write cycles: 93099215
2banks busy for read cycles: 95268557
2banks busy for write cycles: 83587866
3banks busy for read cycles: 30894685
3banks busy for write cycles: 54567792
4banks busy for read cycles: 7221480
4banks busy for write cycles: 34084347
5banks busy for read cycles: 1118282
5banks busy for write cycles: 22390036
6banks busy for read cycles: 129589
6banks busy for write cycles: 15489759
7banks busy for read cycles: 11374
7banks busy for write cycles: 11233757
8banks busy for read cycles: 391
8banks busy for write cycles: 7846590

CPU 0 Branch Prediction Accuracy: 94.3308% MPKI: 11.3996 Average ROB Occupancy at Mispredict: 49.2476
Branch types
NOT_BRANCH: 159783723 79.8919%
BRANCH_DIRECT_JUMP: 0 0%
BRANCH_INDIRECT: 0 0%
BRANCH_CONDITIONAL: 40215925 20.108%
BRANCH_DIRECT_CALL: 0 0%
BRANCH_INDIRECT_CALL: 0 0%
BRANCH_RETURN: 0 0%
BRANCH_OTHER: 0 0%

DRAM PAGES: 1048576
Allocated PAGES: 18714
