
*** ChampSim Multicore Out-of-Order Simulator ***

Warmup Instructions: 50000000
Simulation Instructions: 200000000
Number of CPUs: 1
LLC sets: 2048
LLC ways: 16
L0D sets: 16
L0D ways: 2
ROB size: 352
LQ size: 128
SQ size: 72
Secure Berti: OFF
Berti: OFF
Berti Fill: OFF
On commit prefetching: OFF
Hit-based filter: ON
Time-guarding: ON
Free-slotting: ON
Leap-frogging: ON
Train prefetcher on L0D bypass: OFF
No translation penalty for prefetchers: OFF
Prefetch to L0D only: OFF
Prefetch to L1D only: OFF
Clean evictions: ON
Commit loads: ON
Commit write: ON
Fill commit loads to L2C, LLC: ON
DRAM IO FREQUENCY: 6400
ROB SIZE: 352
Off-chip DRAM Size: 4096 MB Channels: 1 Width: 64-bit Data Rate: 6400 MT/s
CPU 0 runs /home/sumon/secure_berti/GhostMinion/../../traces/gap/pr-10.trace.gz
.gz
BTB has LRU replacement policy
ITLB has LRU replacement policy
DTLB has LRU replacement policy
STLB has LRU replacement policy
L1I has LRU replacement policy
L0D has LRU replacement policy
L1D has LRU replacement policy
L2C has LRU replacement policy
LLC has LRU replacement policy
Heartbeat CPU 0 instructions: 10000002 cycles: 3333823 heartbeat IPC: 2.99956 cumulative IPC: 2.99956 (Simulation time: 0 hr 0 min 28 sec) 
Heartbeat CPU 0 instructions: 20000000 cycles: 17894755 heartbeat IPC: 0.686769 cumulative IPC: 1.11765 (Simulation time: 0 hr 1 min 37 sec) 
Heartbeat CPU 0 instructions: 30000003 cycles: 34472887 heartbeat IPC: 0.603204 cumulative IPC: 0.870249 (Simulation time: 0 hr 2 min 52 sec) 
Heartbeat CPU 0 instructions: 40000001 cycles: 51046303 heartbeat IPC: 0.603376 cumulative IPC: 0.783602 (Simulation time: 0 hr 3 min 53 sec) 
Heartbeat CPU 0 instructions: 50000001 cycles: 67604843 heartbeat IPC: 0.603918 cumulative IPC: 0.739592 (Simulation time: 0 hr 4 min 40 sec) 

Warmup complete CPU 0 instructions: 50000001 cycles: 67604843 (Simulation time: 0 hr 4 min 40 sec) 

Heartbeat CPU 0 instructions: 60000000 cycles: 256444347 heartbeat IPC: 0.052955 cumulative IPC: 0.052955 (Simulation time: 0 hr 6 min 48 sec) 
Heartbeat CPU 0 instructions: 70000000 cycles: 445333892 heartbeat IPC: 0.052941 cumulative IPC: 0.052948 (Simulation time: 0 hr 8 min 54 sec) 
Heartbeat CPU 0 instructions: 80000000 cycles: 634058941 heartbeat IPC: 0.0529871 cumulative IPC: 0.052961 (Simulation time: 0 hr 11 min 4 sec) 
Heartbeat CPU 0 instructions: 90000000 cycles: 822279854 heartbeat IPC: 0.0531291 cumulative IPC: 0.0530029 (Simulation time: 0 hr 13 min 5 sec) 
Heartbeat CPU 0 instructions: 100000002 cycles: 1011638409 heartbeat IPC: 0.0528099 cumulative IPC: 0.0529642 (Simulation time: 0 hr 15 min 3 sec) 
Heartbeat CPU 0 instructions: 110000000 cycles: 1199623049 heartbeat IPC: 0.0531958 cumulative IPC: 0.0530027 (Simulation time: 0 hr 17 min 0 sec) 
Heartbeat CPU 0 instructions: 120000000 cycles: 1388161427 heartbeat IPC: 0.0530396 cumulative IPC: 0.053008 (Simulation time: 0 hr 18 min 56 sec) 
Heartbeat CPU 0 instructions: 130000001 cycles: 1577786880 heartbeat IPC: 0.0527355 cumulative IPC: 0.0529737 (Simulation time: 0 hr 20 min 53 sec) 
Heartbeat CPU 0 instructions: 140000000 cycles: 1766216613 heartbeat IPC: 0.0530702 cumulative IPC: 0.0529844 (Simulation time: 0 hr 22 min 47 sec) 
Heartbeat CPU 0 instructions: 150000000 cycles: 1954929187 heartbeat IPC: 0.0529906 cumulative IPC: 0.0529851 (Simulation time: 0 hr 24 min 41 sec) 
Heartbeat CPU 0 instructions: 160000000 cycles: 2143663780 heartbeat IPC: 0.0529845 cumulative IPC: 0.052985 (Simulation time: 0 hr 26 min 34 sec) 
Heartbeat CPU 0 instructions: 170000001 cycles: 2331455564 heartbeat IPC: 0.0532505 cumulative IPC: 0.053007 (Simulation time: 0 hr 28 min 27 sec) 
Heartbeat CPU 0 instructions: 180000001 cycles: 2520489342 heartbeat IPC: 0.0529006 cumulative IPC: 0.0529988 (Simulation time: 0 hr 30 min 21 sec) 
Heartbeat CPU 0 instructions: 190000001 cycles: 2659142637 heartbeat IPC: 0.0721223 cumulative IPC: 0.054022 (Simulation time: 0 hr 31 min 51 sec) 
Heartbeat CPU 0 instructions: 200000003 cycles: 2703994873 heartbeat IPC: 0.222954 cumulative IPC: 0.056896 (Simulation time: 0 hr 32 min 39 sec) 
Heartbeat CPU 0 instructions: 210000000 cycles: 2893185435 heartbeat IPC: 0.0528567 cumulative IPC: 0.0566255 (Simulation time: 0 hr 34 min 32 sec) 
Heartbeat CPU 0 instructions: 220000000 cycles: 3082098731 heartbeat IPC: 0.0529343 cumulative IPC: 0.0563942 (Simulation time: 0 hr 36 min 25 sec) 
Heartbeat CPU 0 instructions: 230000001 cycles: 3271320199 heartbeat IPC: 0.0528481 cumulative IPC: 0.0561848 (Simulation time: 0 hr 38 min 18 sec) 
Heartbeat CPU 0 instructions: 240000001 cycles: 3461157825 heartbeat IPC: 0.0526766 cumulative IPC: 0.0559885 (Simulation time: 0 hr 40 min 12 sec) 
Heartbeat CPU 0 instructions: 250000001 cycles: 3649862981 heartbeat IPC: 0.0529927 cumulative IPC: 0.0558307 (Simulation time: 0 hr 42 min 4 sec) 
Finished CPU 0 instructions: 200000000 cycles: 3582258138 cumulative IPC: 0.0558307 (Simulation time: 0 hr 42 min 4 sec) 
 Instruction ID: 250000130

ChampSim completed all CPUs

Region of Interest Statistics

CPU 0 cumulative IPC: 0.0558307 instructions: 200000000 cycles: 3582258138
ITLB SPEC fills:          0  NON-SPEC fills:          0
ITLB Test counter :          0
ITLB Leapfrog:          0
ITLB MSHR merge:          0
ITLB TOTAL     ACCESS:   58944865  HIT:   58944865  MISS:          0  HIT %:        100  MISS %:          0   MPKI: 0
ITLB LOAD TRANSLATION NON_SPEC    ACCESS:   58944865  HIT:   58944865  MISS:          0  HIT %:        100  MISS %:          0   MPKI: 0
ITLB PREFETCH  REQUESTED:          0  ISSUED:          0  USEFUL:          0  USELESS:          0
ITLB USEFUL LOAD PREFETCHES:          0 PREFETCH ISSUED TO LOWER LEVEL:          0  ACCURACY: -nan
ITLB TIMELY PREFETCHES:          0 LATE PREFETCHES: 0 DROPPED PREFETCHES: 0
ITLB COMMIT LATE PREFETCHES: 0 MISSED OPPORTUNITY: 0 LATE IN PQ: 0 UNCOVERED: 0
ITLB COMMIT LATE MSHR PREFETCHES: 0
ITLB MPKI TOTAL: 0 MSHR LATE: 0 PQ LATE: 0 COMMIT LATE: 0 MISSED OPPORTUNITY: 0 UNCOVERED: 0
ITLB PREFETCHES SAME FILL-ORIGIN LEVEL: 0 DIFFERENT FILL-ORIGIN LEVEL: 0
ITLB AVERAGE MISS LATENCY: -nan cycles
ITLB AVERAGE MISS LATENCY LOAD: -nan cycles
ITLB AVERAGE MISS LATENCY PREFETCH: -nan cycles
ITLB AVERAGE MSHR OCCUPANCY: 0
ITLB MSHR FULL: 0
ITLB RQ	ACCESS:   60069797	FORWARD:          0	MERGED:    1124932	TO_CACHE:   58944865

DTLB SPEC fills:          0  NON-SPEC fills:          0
DTLB Test counter :          0
DTLB Leapfrog:          0
DTLB MSHR merge:          0
DTLB TOTAL     ACCESS:   70082994  HIT:   47128549  MISS:   22954445  HIT %:    67.2468  MISS %:    32.7532   MPKI: 114.772
DTLB LOAD TRANSLATION NON_SPEC    ACCESS:   70082994  HIT:   47128549  MISS:   22954445  HIT %:    67.2468  MISS %:    32.7532   MPKI: 114.772
DTLB PREFETCH  REQUESTED:          0  ISSUED:          0  USEFUL:          0  USELESS:          0
DTLB USEFUL LOAD PREFETCHES:          0 PREFETCH ISSUED TO LOWER LEVEL:          0  ACCURACY: -nan
DTLB TIMELY PREFETCHES:          0 LATE PREFETCHES: 0 DROPPED PREFETCHES: 0
DTLB COMMIT LATE PREFETCHES: 0 MISSED OPPORTUNITY: 0 LATE IN PQ: 0 UNCOVERED: 0
DTLB COMMIT LATE MSHR PREFETCHES: 0
DTLB MPKI TOTAL: 0 MSHR LATE: 0 PQ LATE: 0 COMMIT LATE: 0 MISSED OPPORTUNITY: 0 UNCOVERED: 0
DTLB PREFETCHES SAME FILL-ORIGIN LEVEL: 0 DIFFERENT FILL-ORIGIN LEVEL: 0
DTLB AVERAGE MISS LATENCY: 9.28562 cycles
DTLB AVERAGE MISS LATENCY LOAD: -nan cycles
DTLB AVERAGE MISS LATENCY PREFETCH: -nan cycles
DTLB AVERAGE MSHR OCCUPANCY: 0.198685
DTLB MSHR FULL: 0
DTLB RQ	ACCESS:   71079320	FORWARD:          0	MERGED:     979132	TO_CACHE:   70100188

STLB SPEC fills:          0  NON-SPEC fills:          0
STLB Test counter :          0
STLB Leapfrog:          0
STLB MSHR merge:          0
STLB TOTAL     ACCESS:   22954445  HIT:   22913655  MISS:      40790  HIT %:    99.8223  MISS %:     0.1777   MPKI: 0.20395
STLB LOAD TRANSLATION NON_SPEC    ACCESS:   22954445  HIT:   22913655  MISS:      40790  HIT %:    99.8223  MISS %:     0.1777   MPKI: 0.20395
STLB PREFETCH  REQUESTED:          0  ISSUED:          0  USEFUL:          0  USELESS:          0
STLB USEFUL LOAD PREFETCHES:          0 PREFETCH ISSUED TO LOWER LEVEL:          0  ACCURACY: -nan
STLB TIMELY PREFETCHES:          0 LATE PREFETCHES: 0 DROPPED PREFETCHES: 0
STLB COMMIT LATE PREFETCHES: 0 MISSED OPPORTUNITY: 0 LATE IN PQ: 0 UNCOVERED: 0
STLB COMMIT LATE MSHR PREFETCHES: 0
STLB MPKI TOTAL: 0 MSHR LATE: 0 PQ LATE: 0 COMMIT LATE: 0 MISSED OPPORTUNITY: 0 UNCOVERED: 0
STLB PREFETCHES SAME FILL-ORIGIN LEVEL: 0 DIFFERENT FILL-ORIGIN LEVEL: 0
STLB AVERAGE MISS LATENCY: 151.741 cycles
STLB AVERAGE MISS LATENCY LOAD: -nan cycles
STLB AVERAGE MISS LATENCY PREFETCH: -nan cycles
STLB AVERAGE MSHR OCCUPANCY: 0.00103884
STLB MSHR FULL: 0
STLB RQ	ACCESS:   22954445	FORWARD:          0	MERGED:          0	TO_CACHE:   22954445

STLB Hit, L1D data hit: 0
STLB Hit, L2C data hit: 0
STLB Hit, LLC data hit: 0
STLB Hit, LLC data miss: 0
STLB STLB hints to L2: 0
L0D SPEC fills:    4610725  NON-SPEC fills:          0
L0D TimeGuard Request with older TS:      62483 Restricted eviction:       6152 read:       1890
L0D Test counter :          0
L0D Leapfrog:          0
L0D MSHR merge:    7022970
L0D TOTAL     ACCESS:   60756672  HIT:   18783987  MISS:   41972685  HIT %:    30.9167  MISS %:    69.0833   MPKI: 209.863
L0D LOAD      TOTAL       ACCESS:   60756672  HIT:   18783987  MISS:   41972685  HIT %:    30.9167  MISS %:    69.0833   MPKI: 209.863
L0D LOAD      NON_SPEC    ACCESS:   37389393  HIT:      33585  MISS:   37355808  HIT %:  0.0898249  MISS %:    99.9102   MPKI: 186.779
L0D LOAD      SPEC        ACCESS:   23367279  HIT:   18750402  MISS:    4616877  HIT %:    80.2421  MISS %:    19.7579   MPKI: 23.0844
L0D PREFETCH  REQUESTED:          0  ISSUED:          0  USEFUL:          0  USELESS:          0
L0D USEFUL LOAD PREFETCHES:          0 PREFETCH ISSUED TO LOWER LEVEL:          0  ACCURACY: -nan
L0D TIMELY PREFETCHES:          0 LATE PREFETCHES: 0 DROPPED PREFETCHES: 0
L0D COMMIT LATE PREFETCHES: 0 MISSED OPPORTUNITY: 0 LATE IN PQ: 0 UNCOVERED: 0
L0D COMMIT LATE MSHR PREFETCHES: 0
L0D MPKI TOTAL: 244.978 MSHR LATE: 0 PQ LATE: 0 COMMIT LATE: 0 MISSED OPPORTUNITY: 0 UNCOVERED: 0
L0D PREFETCHES SAME FILL-ORIGIN LEVEL: 0 DIFFERENT FILL-ORIGIN LEVEL: 0
L0D AVERAGE MISS LATENCY: 83.3664 cycles
L0D AVERAGE MISS LATENCY LOAD: 83.3664 cycles
L0D AVERAGE MISS LATENCY PREFETCH: -nan cycles
L0D AVERAGE MSHR OCCUPANCY: 0.423172
L0D MSHR FULL: 0
L0D RQ	ACCESS:   77353834	FORWARD:          0	MERGED:    9574194	TO_CACHE:   67779640
L0D WQ	ACCESS:    3299680	FORWARD:          0	MERGED:          0	TO_CACHE:    3299680

L1D SPEC fills:          0  NON-SPEC fills:   31934901
L1D Test counter :    2524042
L1D Leapfrog:          0
L1D MSHR merge:        108
L1D TOTAL     ACCESS:   58962324  HIT:   21879450  MISS:   37082874  HIT %:    37.1075  MISS %:    62.8925   MPKI: 185.414
L1D LOAD      TOTAL       ACCESS:   41972577  HIT:    7491996  MISS:   34480581  HIT %:    17.8497  MISS %:    82.1503   MPKI: 172.403
L1D LOAD      NON_SPEC    ACCESS:   37355802  HIT:    5420901  MISS:   31934901  HIT %:    14.5115  MISS %:    85.4885   MPKI: 159.675
L1D LOAD      SPEC        ACCESS:    4616775  HIT:    2071095  MISS:    2545680  HIT %:    44.8602  MISS %:    55.1398   MPKI: 12.7284
L1D RFO       NON_SPEC    ACCESS:    2544889  HIT:    2479090  MISS:      65799  HIT %:    97.4145  MISS %:    2.58554   MPKI: 0.328995
L1D COMMIT LOAD NON_SPEC    ACCESS:   11608071  HIT:   11607504  MISS:        567  HIT %:    99.9951  MISS %: 0.00488453   MPKI: 0.002835
L1D COMMIT WRITE NON_SPEC    ACCESS:    2836787  HIT:     300860  MISS:    2535927  HIT %:    10.6057  MISS %:    89.3943   MPKI: 12.6796
L1D PREFETCH  REQUESTED:          0  ISSUED:          0  USEFUL:          0  USELESS:          0
L1D USEFUL LOAD PREFETCHES:          0 PREFETCH ISSUED TO LOWER LEVEL:          0  ACCURACY: -nan
L1D TIMELY PREFETCHES:          0 LATE PREFETCHES: 0 DROPPED PREFETCHES: 0
L1D COMMIT LATE PREFETCHES: 0 MISSED OPPORTUNITY: 0 LATE IN PQ: 0 UNCOVERED: 0
L1D COMMIT LATE MSHR PREFETCHES: 0
L1D MPKI TOTAL: 172.403 MSHR LATE: 0 PQ LATE: 0 COMMIT LATE: 0 MISSED OPPORTUNITY: 0 UNCOVERED: 0
L1D PREFETCHES SAME FILL-ORIGIN LEVEL: 0 DIFFERENT FILL-ORIGIN LEVEL: 0
L1D AVERAGE MISS LATENCY: 89.1265 cycles
L1D AVERAGE MISS LATENCY LOAD: 95.3847 cycles
L1D AVERAGE MISS LATENCY PREFETCH: -nan cycles
L1D AVERAGE MSHR OCCUPANCY: 0.189986
L1D MSHR FULL: 0
L1D RQ	ACCESS:   54022037	FORWARD:          0	MERGED:     440806	TO_CACHE:   53581226
L1D WQ	ACCESS:    6136469	FORWARD:          5	MERGED:       6021	TO_CACHE:    6130448

L1D UNIQUE REGIONS ACCESSED: 0
L1D REGIONS CONFLICTS: 0
L1D Cross Page Prefetch Requests: 0
L1D Same Page Prefetch Requests: 0
L1D ROI Sum of L1D PQ occupancy: 0
L1D PREFETCHES PUSHED FROM L2C: 0
L1I SPEC fills:          0  NON-SPEC fills:          0
L1I Test counter :          0
L1I Leapfrog:          0
L1I MSHR merge:          1
L1I TOTAL     ACCESS:   60069796  HIT:   60069773  MISS:         23  HIT %:        100  MISS %: 3.82888e-05   MPKI: 0.000115
L1I LOAD      TOTAL       ACCESS:   60069796  HIT:   60069773  MISS:         23  HIT %:        100  MISS %: 3.82888e-05   MPKI: 0.000115
L1I LOAD      NON_SPEC    ACCESS:   60069796  HIT:   60069773  MISS:         23  HIT %:        100  MISS %: 3.82888e-05   MPKI: 0.000115
L1I PREFETCH  REQUESTED:          0  ISSUED:          0  USEFUL:          0  USELESS:          0
L1I USEFUL LOAD PREFETCHES:          0 PREFETCH ISSUED TO LOWER LEVEL:          0  ACCURACY: -nan
L1I TIMELY PREFETCHES:          0 LATE PREFETCHES: 0 DROPPED PREFETCHES: 0
L1I COMMIT LATE PREFETCHES: 0 MISSED OPPORTUNITY: 0 LATE IN PQ: 0 UNCOVERED: 0
L1I COMMIT LATE MSHR PREFETCHES: 0
L1I MPKI TOTAL: 0.00012 MSHR LATE: 0 PQ LATE: 0 COMMIT LATE: 0 MISSED OPPORTUNITY: 0 UNCOVERED: 0
L1I PREFETCHES SAME FILL-ORIGIN LEVEL: 0 DIFFERENT FILL-ORIGIN LEVEL: 0
L1I AVERAGE MISS LATENCY: 179.217 cycles
L1I AVERAGE MISS LATENCY LOAD: 179.217 cycles
L1I AVERAGE MISS LATENCY PREFETCH: -nan cycles
L1I AVERAGE MSHR OCCUPANCY: 1.33178e-07
L1I MSHR FULL: 0
L1I RQ	ACCESS:   71178609	FORWARD:          0	MERGED:   11108812	TO_CACHE:   60069797

BTB SPEC fills:          0  NON-SPEC fills:          0
BTB Test counter :          0
BTB Leapfrog:          0
BTB MSHR merge:          0
BTB TOTAL     ACCESS:   37027234  HIT:   37027062  MISS:        172  HIT %:    99.9995  MISS %: 0.000464523   MPKI: 0.00086
BTB BRANCH_DIRECT_JUMP	ACCESS:         67  HIT:         33  MISS:         34
BTB BRANCH_INDIRECT	ACCESS:          4  HIT:          0  MISS:          4
BTB BRANCH_CONDITIONAL	ACCESS:   37027097  HIT:   37027009  MISS:         88
BTB BRANCH_DIRECT_CALL	ACCESS:         28  HIT:         10  MISS:         18
BTB BRANCH_INDIRECT_CALL	ACCESS:          5  HIT:          1  MISS:          4
BTB BRANCH_RETURN	ACCESS:         33  HIT:          9  MISS:         24
BTB BRANCH_OTHER ACCESS:          0  HIT:          0  MISS:          0

L2C SPEC fills:          0  NON-SPEC fills:   22884129
L2C Test counter :    2517596
L2C Leapfrog:          0
L2C MSHR merge:          0
L2C TOTAL     ACCESS:   37348311  HIT:    9341526  MISS:   28006785  HIT %:    25.0119  MISS %:    74.9881   MPKI: 140.034
L2C LOAD      TOTAL       ACCESS:   34480602  HIT:    9070218  MISS:   25410384  HIT %:    26.3053  MISS %:    73.6947   MPKI: 127.052
L2C LOAD      NON_SPEC    ACCESS:   31934924  HIT:    9050772  MISS:   22884152  HIT %:    28.3413  MISS %:    71.6587   MPKI: 114.421
L2C LOAD      SPEC        ACCESS:    2545678  HIT:      19446  MISS:    2526232  HIT %:   0.763883  MISS %:    99.2361   MPKI: 12.6312
L2C RFO       NON_SPEC    ACCESS:      65799  HIT:        295  MISS:      65504  HIT %:   0.448335  MISS %:    99.5517   MPKI: 0.32752
L2C WRITEBACK NON_SPEC    ACCESS:      73398  HIT:      73164  MISS:        234  HIT %:    99.6812  MISS %:    0.31881   MPKI: 0.00117
L2C CLEAN_EVICTION NON_SPEC    ACCESS:    2524042  HIT:       7339  MISS:    2516703  HIT %:   0.290764  MISS %:    99.7092   MPKI: 12.5835
L2C COMMIT LOAD NON_SPEC    ACCESS:        567  HIT:         79  MISS:        488  HIT %:     13.933  MISS %:     86.067   MPKI: 0.00244
L2C LOAD TRANSLATION NON_SPEC    ACCESS:     203903  HIT:     190431  MISS:      13472  HIT %:    93.3929  MISS %:    6.60706   MPKI: 0.06736
L2C PREFETCH  REQUESTED:          0  ISSUED:          0  USEFUL:          0  USELESS:          0
L2C USEFUL LOAD PREFETCHES:          0 PREFETCH ISSUED TO LOWER LEVEL:          0  ACCURACY: -nan
L2C TIMELY PREFETCHES:          0 LATE PREFETCHES: 0 DROPPED PREFETCHES: 0
L2C COMMIT LATE PREFETCHES: 0 MISSED OPPORTUNITY: 0 LATE IN PQ: 0 UNCOVERED: 0
L2C COMMIT LATE MSHR PREFETCHES: 0
L2C MPKI TOTAL: 127.052 MSHR LATE: 0 PQ LATE: 0 COMMIT LATE: 0 MISSED OPPORTUNITY: 0 UNCOVERED: 0
L2C PREFETCHES SAME FILL-ORIGIN LEVEL: 0 DIFFERENT FILL-ORIGIN LEVEL: 0
L2C AVERAGE MISS LATENCY: 99.9095 cycles
L2C AVERAGE MISS LATENCY LOAD: 109.466 cycles
L2C AVERAGE MISS LATENCY PREFETCH: -nan cycles
L2C AVERAGE MSHR OCCUPANCY: 0.174141
L2C MSHR FULL: 0
L2C RQ	ACCESS:   34750872	FORWARD:          0	MERGED:          0	TO_CACHE:   34750870
L2C WQ	ACCESS:    2597440	FORWARD:          2	MERGED:          0	TO_CACHE:    2597440

L2C Instructions Evicting Data 23
L2C Translations Evicting Data 13467
L2C Data Evicting Data 22938603
L2C Instructions Evicting Instructions 0
L2C Translations Evicting Instructions 0
L2C Data Evicting Instructions 9
L2C Instructions Evicting Translations 0
L2C Translations Evicting Translations 5
L2C Data Evicting Translations 11509
L2C Dense regions hint from L2: 0
PSCL5 SPEC fills:          0  NON-SPEC fills:          0
PSCL5 Test counter :          0
PSCL5 Leapfrog:          0
PSCL5 MSHR merge:          0
PSCL5 TOTAL     ACCESS:          0  HIT:          0  MISS:          0  HIT %:       -nan  MISS %:       -nan   MPKI: 0
PSCL5 PREFETCH  REQUESTED:          0  ISSUED:          0  USEFUL:          0  USELESS:          0
PSCL5 USEFUL LOAD PREFETCHES:          0 PREFETCH ISSUED TO LOWER LEVEL:          0  ACCURACY: -nan
PSCL5 TIMELY PREFETCHES:          0 LATE PREFETCHES: 0 DROPPED PREFETCHES: 0
PSCL5 COMMIT LATE PREFETCHES: 0 MISSED OPPORTUNITY: 0 LATE IN PQ: 0 UNCOVERED: 0
PSCL5 COMMIT LATE MSHR PREFETCHES: 0
PSCL5 MPKI TOTAL: 0 MSHR LATE: 0 PQ LATE: 0 COMMIT LATE: 0 MISSED OPPORTUNITY: 0 UNCOVERED: 0
PSCL5 PREFETCHES SAME FILL-ORIGIN LEVEL: 0 DIFFERENT FILL-ORIGIN LEVEL: 0

PSCL4 SPEC fills:          0  NON-SPEC fills:          0
PSCL4 Test counter :          0
PSCL4 Leapfrog:          0
PSCL4 MSHR merge:          0
PSCL4 TOTAL     ACCESS:          0  HIT:          0  MISS:          0  HIT %:       -nan  MISS %:       -nan   MPKI: 0
PSCL4 PREFETCH  REQUESTED:          0  ISSUED:          0  USEFUL:          0  USELESS:          0
PSCL4 USEFUL LOAD PREFETCHES:          0 PREFETCH ISSUED TO LOWER LEVEL:          0  ACCURACY: -nan
PSCL4 TIMELY PREFETCHES:          0 LATE PREFETCHES: 0 DROPPED PREFETCHES: 0
PSCL4 COMMIT LATE PREFETCHES: 0 MISSED OPPORTUNITY: 0 LATE IN PQ: 0 UNCOVERED: 0
PSCL4 COMMIT LATE MSHR PREFETCHES: 0
PSCL4 MPKI TOTAL: 0 MSHR LATE: 0 PQ LATE: 0 COMMIT LATE: 0 MISSED OPPORTUNITY: 0 UNCOVERED: 0
PSCL4 PREFETCHES SAME FILL-ORIGIN LEVEL: 0 DIFFERENT FILL-ORIGIN LEVEL: 0

PSCL3 SPEC fills:          0  NON-SPEC fills:          0
PSCL3 Test counter :          0
PSCL3 Leapfrog:          0
PSCL3 MSHR merge:          0
PSCL3 TOTAL     ACCESS:          0  HIT:          0  MISS:          0  HIT %:       -nan  MISS %:       -nan   MPKI: 0
PSCL3 PREFETCH  REQUESTED:          0  ISSUED:          0  USEFUL:          0  USELESS:          0
PSCL3 USEFUL LOAD PREFETCHES:          0 PREFETCH ISSUED TO LOWER LEVEL:          0  ACCURACY: -nan
PSCL3 TIMELY PREFETCHES:          0 LATE PREFETCHES: 0 DROPPED PREFETCHES: 0
PSCL3 COMMIT LATE PREFETCHES: 0 MISSED OPPORTUNITY: 0 LATE IN PQ: 0 UNCOVERED: 0
PSCL3 COMMIT LATE MSHR PREFETCHES: 0
PSCL3 MPKI TOTAL: 0 MSHR LATE: 0 PQ LATE: 0 COMMIT LATE: 0 MISSED OPPORTUNITY: 0 UNCOVERED: 0
PSCL3 PREFETCHES SAME FILL-ORIGIN LEVEL: 0 DIFFERENT FILL-ORIGIN LEVEL: 0

PSCL2 SPEC fills:          0  NON-SPEC fills:          0
PSCL2 Test counter :          0
PSCL2 Leapfrog:          0
PSCL2 MSHR merge:          0
PSCL2 TOTAL     ACCESS:          0  HIT:          0  MISS:          0  HIT %:       -nan  MISS %:       -nan   MPKI: 0
PSCL2 PREFETCH  REQUESTED:          0  ISSUED:          0  USEFUL:          0  USELESS:          0
PSCL2 USEFUL LOAD PREFETCHES:          0 PREFETCH ISSUED TO LOWER LEVEL:          0  ACCURACY: -nan
PSCL2 TIMELY PREFETCHES:          0 LATE PREFETCHES: 0 DROPPED PREFETCHES: 0
PSCL2 COMMIT LATE PREFETCHES: 0 MISSED OPPORTUNITY: 0 LATE IN PQ: 0 UNCOVERED: 0
PSCL2 COMMIT LATE MSHR PREFETCHES: 0
PSCL2 MPKI TOTAL: 0 MSHR LATE: 0 PQ LATE: 0 COMMIT LATE: 0 MISSED OPPORTUNITY: 0 UNCOVERED: 0
PSCL2 PREFETCHES SAME FILL-ORIGIN LEVEL: 0 DIFFERENT FILL-ORIGIN LEVEL: 0

LLC SPEC fills:          0  NON-SPEC fills:   10327733
LLC Test counter :    2519034
LLC Leapfrog:          0
LLC MSHR merge:          0
LLC TOTAL     ACCESS:   28073828  HIT:   12642182  MISS:   15431646  HIT %:    45.0319  MISS %:    54.9681   MPKI: 77.1582
LLC LOAD      TOTAL       ACCESS:   25410384  HIT:   12561239  MISS:   12849145  HIT %:    49.4335  MISS %:    50.5665   MPKI: 64.2457
LLC LOAD      NON_SPEC    ACCESS:   22884152  HIT:   12556396  MISS:   10327756  HIT %:    54.8694  MISS %:    45.1306   MPKI: 51.6388
LLC LOAD      SPEC        ACCESS:    2526232  HIT:       4843  MISS:    2521389  HIT %:   0.191708  MISS %:    99.8083   MPKI: 12.6069
LLC RFO       NON_SPEC    ACCESS:      65504  HIT:       1924  MISS:      63580  HIT %:    2.93723  MISS %:    97.0628   MPKI: 0.3179
LLC WRITEBACK NON_SPEC    ACCESS:      66384  HIT:      66178  MISS:        206  HIT %:    99.6897  MISS %:   0.310316   MPKI: 0.00103
LLC CLEAN_EVICTION NON_SPEC    ACCESS:    2517596  HIT:       4955  MISS:    2512641  HIT %:   0.196815  MISS %:    99.8032   MPKI: 12.5632
LLC COMMIT LOAD NON_SPEC    ACCESS:        488  HIT:         26  MISS:        462  HIT %:    5.32787  MISS %:    94.6721   MPKI: 0.00231
LLC LOAD TRANSLATION NON_SPEC    ACCESS:      13472  HIT:       7860  MISS:       5612  HIT %:    58.3432  MISS %:    41.6568   MPKI: 0.02806
LLC PREFETCH  REQUESTED:          0  ISSUED:          0  USEFUL:          0  USELESS:          0
LLC USEFUL LOAD PREFETCHES:          0 PREFETCH ISSUED TO LOWER LEVEL:          0  ACCURACY: -nan
LLC TIMELY PREFETCHES:          0 LATE PREFETCHES: 0 DROPPED PREFETCHES: 0
LLC COMMIT LATE PREFETCHES: 0 MISSED OPPORTUNITY: 0 LATE IN PQ: 0 UNCOVERED: 0
LLC COMMIT LATE MSHR PREFETCHES: 0
LLC MPKI TOTAL: 64.2457 MSHR LATE: 0 PQ LATE: 0 COMMIT LATE: 0 MISSED OPPORTUNITY: 0 UNCOVERED: 0
LLC PREFETCHES SAME FILL-ORIGIN LEVEL: 0 DIFFERENT FILL-ORIGIN LEVEL: 0
LLC AVERAGE MISS LATENCY: 133.22 cycles
LLC AVERAGE MISS LATENCY LOAD: 158.893 cycles
LLC AVERAGE MISS LATENCY PREFETCH: -nan cycles
LLC AVERAGE MSHR OCCUPANCY: 0.155713
LLC MSHR FULL: 0
LLC RQ	ACCESS:   25489847	FORWARD:          0	MERGED:          0	TO_CACHE:   25489847
LLC WQ	ACCESS:    2583980	FORWARD:          0	MERGED:          0	TO_CACHE:    2583980

LLC Dense regions hint to LLC: 0

RAW hits: 21
Loads Generated: 77353857
Loads sent to L1D: 77353834
Stores Generated: 3299680
Stores sent to L1D: 3299680
Major fault: 0 Minor fault: 34900
Allocated PAGES: 34900
Total Load insts: 95651032
Total Non-spec loads: 44714314
Percentage of speculative loads: 53.2527

LeapFrogging counter: 0
Commit hits: 4609734 miss: 35354604
Commit hit %: 11.5346 miss %: 88.4654
Commits not translated: 0
Loads retired: 34480579
Stores retired: 3299680
Cache fills: 34480581
L1D response latency: 95.3847 cycles
Load retirement latency: 231.172 cycles
OOO test counter: 0
Discarded buffer inserts: 4609734 hits: 27832 hit %: 0.603766

DRAM Statistics
 CHANNEL 0
 RQ ROW_BUFFER_HIT:    1248082  ROW_BUFFER_MISS:   11670715
 DBUS_CONGESTED:        581
 WQ ROW_BUFFER_HIT:     771072  ROW_BUFFER_MISS:    1813945  FULL:          0

 AVG_CONGESTED_CYCLE: 5
 All warmup complete: 2
Channel 0 Bank busy for read cycles: 0
Channel 0 Bank busy for write cycles: 0
Channel 0
Rank 0
0banks busy for read cycles: 1513808780
0banks busy for write cycles: 1838373
1banks busy for read cycles: 1483254360
1banks busy for write cycles: 369550478
2banks busy for read cycles: 130680987
2banks busy for write cycles: 47887837
3banks busy for read cycles: 16964455
3banks busy for write cycles: 5589991
4banks busy for read cycles: 4398981
4banks busy for write cycles: 1112425
5banks busy for read cycles: 4005
5banks busy for write cycles: 474467
6banks busy for read cycles: 0
6banks busy for write cycles: 347923
7banks busy for read cycles: 0
7banks busy for write cycles: 588456
8banks busy for read cycles: 0
8banks busy for write cycles: 5756621

CPU 0 Branch Prediction Accuracy: 96.9594% MPKI: 5.62926 Average ROB Occupancy at Mispredict: 136.19
Branch types
NOT_BRANCH: 162972286 81.4861%
BRANCH_DIRECT_JUMP: 67 3.35e-05%
BRANCH_INDIRECT: 4 2e-06%
BRANCH_CONDITIONAL: 37027324 18.5137%
BRANCH_DIRECT_CALL: 28 1.4e-05%
BRANCH_INDIRECT_CALL: 5 2.5e-06%
BRANCH_RETURN: 33 1.65e-05%
BRANCH_OTHER: 0 0%

DRAM PAGES: 1048576
Allocated PAGES: 34900
