
*** ChampSim Multicore Out-of-Order Simulator ***

Warmup Instructions: 50000000
Simulation Instructions: 200000000
Number of CPUs: 1
LLC sets: 2048
LLC ways: 16
L0D sets: 16
L0D ways: 2
ROB size: 352
LQ size: 128
SQ size: 72
Secure Berti: OFF
Berti: OFF
Berti Fill: OFF
On commit prefetching: OFF
Hit-based filter: ON
Time-guarding: ON
Free-slotting: ON
Leap-frogging: ON
Train prefetcher on L0D bypass: OFF
No translation penalty for prefetchers: OFF
Prefetch to L0D only: OFF
Prefetch to L1D only: OFF
Clean evictions: ON
Commit loads: ON
Commit write: ON
Fill commit loads to L2C, LLC: ON
DRAM IO FREQUENCY: 6400
ROB SIZE: 352
Off-chip DRAM Size: 4096 MB Channels: 1 Width: 64-bit Data Rate: 6400 MT/s
CPU 0 runs /home/sumon/secure_berti/GhostMinion/../../traces/gap/pr-14.trace.gz
.gz
BTB has LRU replacement policy
ITLB has LRU replacement policy
DTLB has LRU replacement policy
STLB has LRU replacement policy
L1I has LRU replacement policy
L0D has LRU replacement policy
L1D has LRU replacement policy
L2C has LRU replacement policy
LLC has LRU replacement policy
Heartbeat CPU 0 instructions: 10000001 cycles: 3333820 heartbeat IPC: 2.99956 cumulative IPC: 2.99956 (Simulation time: 0 hr 0 min 35 sec) 
Heartbeat CPU 0 instructions: 20000001 cycles: 17833432 heartbeat IPC: 0.689674 cumulative IPC: 1.12149 (Simulation time: 0 hr 1 min 55 sec) 
Heartbeat CPU 0 instructions: 30000003 cycles: 34342852 heartbeat IPC: 0.605715 cumulative IPC: 0.873544 (Simulation time: 0 hr 2 min 54 sec) 
Heartbeat CPU 0 instructions: 40000003 cycles: 50847235 heartbeat IPC: 0.6059 cumulative IPC: 0.78667 (Simulation time: 0 hr 3 min 54 sec) 
Heartbeat CPU 0 instructions: 50000000 cycles: 67343119 heartbeat IPC: 0.606212 cumulative IPC: 0.742466 (Simulation time: 0 hr 4 min 52 sec) 

Warmup complete CPU 0 instructions: 50000004 cycles: 67343126 (Simulation time: 0 hr 4 min 52 sec) 

Heartbeat CPU 0 instructions: 60000000 cycles: 247086253 heartbeat IPC: 0.0556349 cumulative IPC: 0.0556349 (Simulation time: 0 hr 7 min 25 sec) 
Heartbeat CPU 0 instructions: 70000000 cycles: 427365985 heartbeat IPC: 0.0554694 cumulative IPC: 0.055552 (Simulation time: 0 hr 9 min 55 sec) 
Heartbeat CPU 0 instructions: 80000001 cycles: 607616181 heartbeat IPC: 0.0554784 cumulative IPC: 0.0555275 (Simulation time: 0 hr 12 min 15 sec) 
Heartbeat CPU 0 instructions: 90000000 cycles: 787719213 heartbeat IPC: 0.0555238 cumulative IPC: 0.0555265 (Simulation time: 0 hr 14 min 23 sec) 
Heartbeat CPU 0 instructions: 100000001 cycles: 968179274 heartbeat IPC: 0.0554139 cumulative IPC: 0.055504 (Simulation time: 0 hr 16 min 20 sec) 
Heartbeat CPU 0 instructions: 110000000 cycles: 1148084719 heartbeat IPC: 0.0555847 cumulative IPC: 0.0555174 (Simulation time: 0 hr 18 min 14 sec) 
Heartbeat CPU 0 instructions: 120000001 cycles: 1328042405 heartbeat IPC: 0.0555686 cumulative IPC: 0.0555247 (Simulation time: 0 hr 20 min 7 sec) 
Heartbeat CPU 0 instructions: 130000000 cycles: 1507632759 heartbeat IPC: 0.0556823 cumulative IPC: 0.0555444 (Simulation time: 0 hr 21 min 58 sec) 
Heartbeat CPU 0 instructions: 140000002 cycles: 1688911624 heartbeat IPC: 0.0551636 cumulative IPC: 0.0555018 (Simulation time: 0 hr 23 min 51 sec) 
Heartbeat CPU 0 instructions: 150000001 cycles: 1869013347 heartbeat IPC: 0.0555242 cumulative IPC: 0.0555041 (Simulation time: 0 hr 25 min 41 sec) 
Heartbeat CPU 0 instructions: 160000001 cycles: 2049467666 heartbeat IPC: 0.0554157 cumulative IPC: 0.055496 (Simulation time: 0 hr 27 min 32 sec) 
Heartbeat CPU 0 instructions: 170000003 cycles: 2228284002 heartbeat IPC: 0.0559233 cumulative IPC: 0.0555314 (Simulation time: 0 hr 29 min 21 sec) 
Heartbeat CPU 0 instructions: 180000001 cycles: 2408004039 heartbeat IPC: 0.0556421 cumulative IPC: 0.0555399 (Simulation time: 0 hr 31 min 11 sec) 
Heartbeat CPU 0 instructions: 190000000 cycles: 2541185930 heartbeat IPC: 0.0750853 cumulative IPC: 0.0565921 (Simulation time: 0 hr 32 min 40 sec) 
Heartbeat CPU 0 instructions: 200000002 cycles: 2588050383 heartbeat IPC: 0.213381 cumulative IPC: 0.0595071 (Simulation time: 0 hr 33 min 31 sec) 
Heartbeat CPU 0 instructions: 210000001 cycles: 2768147023 heartbeat IPC: 0.0555257 cumulative IPC: 0.0592416 (Simulation time: 0 hr 35 min 21 sec) 
Heartbeat CPU 0 instructions: 220000000 cycles: 2948574961 heartbeat IPC: 0.0554238 cumulative IPC: 0.0590025 (Simulation time: 0 hr 37 min 11 sec) 
Heartbeat CPU 0 instructions: 230000000 cycles: 3128616545 heartbeat IPC: 0.0555427 cumulative IPC: 0.0587991 (Simulation time: 0 hr 39 min 0 sec) 
Heartbeat CPU 0 instructions: 240000002 cycles: 3308765169 heartbeat IPC: 0.0555097 cumulative IPC: 0.0586162 (Simulation time: 0 hr 40 min 50 sec) 
Heartbeat CPU 0 instructions: 250000003 cycles: 3488288378 heartbeat IPC: 0.0557031 cumulative IPC: 0.0584634 (Simulation time: 0 hr 42 min 39 sec) 
Finished CPU 0 instructions: 200000000 cycles: 3420945253 cumulative IPC: 0.0584634 (Simulation time: 0 hr 42 min 39 sec) 
 Instruction ID: 250000385

ChampSim completed all CPUs

Region of Interest Statistics

CPU 0 cumulative IPC: 0.0584634 instructions: 200000000 cycles: 3420945253
ITLB SPEC fills:          0  NON-SPEC fills:          0
ITLB Test counter :          0
ITLB Leapfrog:          0
ITLB MSHR merge:          0
ITLB TOTAL     ACCESS:   58905608  HIT:   58905608  MISS:          0  HIT %:        100  MISS %:          0   MPKI: 0
ITLB LOAD TRANSLATION NON_SPEC    ACCESS:   58905608  HIT:   58905608  MISS:          0  HIT %:        100  MISS %:          0   MPKI: 0
ITLB PREFETCH  REQUESTED:          0  ISSUED:          0  USEFUL:          0  USELESS:          0
ITLB USEFUL LOAD PREFETCHES:          0 PREFETCH ISSUED TO LOWER LEVEL:          0  ACCURACY: -nan
ITLB TIMELY PREFETCHES:          0 LATE PREFETCHES: 0 DROPPED PREFETCHES: 0
ITLB COMMIT LATE PREFETCHES: 0 MISSED OPPORTUNITY: 0 LATE IN PQ: 0 UNCOVERED: 0
ITLB COMMIT LATE MSHR PREFETCHES: 0
ITLB MPKI TOTAL: 0 MSHR LATE: 0 PQ LATE: 0 COMMIT LATE: 0 MISSED OPPORTUNITY: 0 UNCOVERED: 0
ITLB PREFETCHES SAME FILL-ORIGIN LEVEL: 0 DIFFERENT FILL-ORIGIN LEVEL: 0
ITLB AVERAGE MISS LATENCY: -nan cycles
ITLB AVERAGE MISS LATENCY LOAD: -nan cycles
ITLB AVERAGE MISS LATENCY PREFETCH: -nan cycles
ITLB AVERAGE MSHR OCCUPANCY: 0
ITLB MSHR FULL: 0
ITLB RQ	ACCESS:   60033616	FORWARD:          0	MERGED:    1128007	TO_CACHE:   58905609

DTLB SPEC fills:          0  NON-SPEC fills:          0
DTLB Test counter :          0
DTLB Leapfrog:          0
DTLB MSHR merge:          0
DTLB TOTAL     ACCESS:   70119531  HIT:   47122230  MISS:   22997301  HIT %:    67.2027  MISS %:    32.7973   MPKI: 114.987
DTLB LOAD TRANSLATION NON_SPEC    ACCESS:   70119531  HIT:   47122230  MISS:   22997301  HIT %:    67.2027  MISS %:    32.7973   MPKI: 114.987
DTLB PREFETCH  REQUESTED:          0  ISSUED:          0  USEFUL:          0  USELESS:          0
DTLB USEFUL LOAD PREFETCHES:          0 PREFETCH ISSUED TO LOWER LEVEL:          0  ACCURACY: -nan
DTLB TIMELY PREFETCHES:          0 LATE PREFETCHES: 0 DROPPED PREFETCHES: 0
DTLB COMMIT LATE PREFETCHES: 0 MISSED OPPORTUNITY: 0 LATE IN PQ: 0 UNCOVERED: 0
DTLB COMMIT LATE MSHR PREFETCHES: 0
DTLB MPKI TOTAL: 0 MSHR LATE: 0 PQ LATE: 0 COMMIT LATE: 0 MISSED OPPORTUNITY: 0 UNCOVERED: 0
DTLB PREFETCHES SAME FILL-ORIGIN LEVEL: 0 DIFFERENT FILL-ORIGIN LEVEL: 0
DTLB AVERAGE MISS LATENCY: 9.2898 cycles
DTLB AVERAGE MISS LATENCY LOAD: -nan cycles
DTLB AVERAGE MISS LATENCY PREFETCH: -nan cycles
DTLB AVERAGE MSHR OCCUPANCY: 0.19836
DTLB MSHR FULL: 0
DTLB RQ	ACCESS:   71202695	FORWARD:          0	MERGED:    1072152	TO_CACHE:   70130543

STLB SPEC fills:          0  NON-SPEC fills:          0
STLB Test counter :          0
STLB Leapfrog:          0
STLB MSHR merge:          0
STLB TOTAL     ACCESS:   22997300  HIT:   22956527  MISS:      40773  HIT %:    99.8227  MISS %:   0.177295   MPKI: 0.203865
STLB LOAD TRANSLATION NON_SPEC    ACCESS:   22997300  HIT:   22956527  MISS:      40773  HIT %:    99.8227  MISS %:   0.177295   MPKI: 0.203865
STLB PREFETCH  REQUESTED:          0  ISSUED:          0  USEFUL:          0  USELESS:          0
STLB USEFUL LOAD PREFETCHES:          0 PREFETCH ISSUED TO LOWER LEVEL:          0  ACCURACY: -nan
STLB TIMELY PREFETCHES:          0 LATE PREFETCHES: 0 DROPPED PREFETCHES: 0
STLB COMMIT LATE PREFETCHES: 0 MISSED OPPORTUNITY: 0 LATE IN PQ: 0 UNCOVERED: 0
STLB COMMIT LATE MSHR PREFETCHES: 0
STLB MPKI TOTAL: 0 MSHR LATE: 0 PQ LATE: 0 COMMIT LATE: 0 MISSED OPPORTUNITY: 0 UNCOVERED: 0
STLB PREFETCHES SAME FILL-ORIGIN LEVEL: 0 DIFFERENT FILL-ORIGIN LEVEL: 0
STLB AVERAGE MISS LATENCY: 154.388 cycles
STLB AVERAGE MISS LATENCY LOAD: -nan cycles
STLB AVERAGE MISS LATENCY PREFETCH: -nan cycles
STLB AVERAGE MSHR OCCUPANCY: 0.00114218
STLB MSHR FULL: 0
STLB RQ	ACCESS:   22997300	FORWARD:          0	MERGED:          0	TO_CACHE:   22997300

STLB Hit, L1D data hit: 0
STLB Hit, L2C data hit: 0
STLB Hit, LLC data hit: 0
STLB Hit, LLC data miss: 0
STLB STLB hints to L2: 0
L0D SPEC fills:    4744513  NON-SPEC fills:          0
L0D TimeGuard Request with older TS:      62243 Restricted eviction:       5828 read:      19083
L0D Test counter :          0
L0D Leapfrog:          0
L0D MSHR merge:    7313854
L0D TOTAL     ACCESS:   60583025  HIT:   18571229  MISS:   42011796  HIT %:    30.6542  MISS %:    69.3458   MPKI: 210.059
L0D LOAD      TOTAL       ACCESS:   60583025  HIT:   18571229  MISS:   42011796  HIT %:    30.6542  MISS %:    69.3458   MPKI: 210.059
L0D LOAD      NON_SPEC    ACCESS:   37295824  HIT:      34369  MISS:   37261455  HIT %:  0.0921524  MISS %:    99.9078   MPKI: 186.307
L0D LOAD      SPEC        ACCESS:   23287201  HIT:   18536860  MISS:    4750341  HIT %:    79.6011  MISS %:    20.3989   MPKI: 23.7517
L0D PREFETCH  REQUESTED:          0  ISSUED:          0  USEFUL:          0  USELESS:          0
L0D USEFUL LOAD PREFETCHES:          0 PREFETCH ISSUED TO LOWER LEVEL:          0  ACCURACY: -nan
L0D TIMELY PREFETCHES:          0 LATE PREFETCHES: 0 DROPPED PREFETCHES: 0
L0D COMMIT LATE PREFETCHES: 0 MISSED OPPORTUNITY: 0 LATE IN PQ: 0 UNCOVERED: 0
L0D COMMIT LATE MSHR PREFETCHES: 0
L0D MPKI TOTAL: 246.628 MSHR LATE: 0 PQ LATE: 0 COMMIT LATE: 0 MISSED OPPORTUNITY: 0 UNCOVERED: 0
L0D PREFETCHES SAME FILL-ORIGIN LEVEL: 0 DIFFERENT FILL-ORIGIN LEVEL: 0
L0D AVERAGE MISS LATENCY: 79.5193 cycles
L0D AVERAGE MISS LATENCY LOAD: 79.5193 cycles
L0D AVERAGE MISS LATENCY PREFETCH: -nan cycles
L0D AVERAGE MSHR OCCUPANCY: 0.435623
L0D MSHR FULL: 0
L0D RQ	ACCESS:   77350918	FORWARD:          0	MERGED:    9454040	TO_CACHE:   67896878
L0D WQ	ACCESS:    3305817	FORWARD:          0	MERGED:          0	TO_CACHE:    3305817

L1D SPEC fills:          0  NON-SPEC fills:   31938656
L1D Test counter :    2524403
L1D Leapfrog:          0
L1D MSHR merge:        104
L1D TOTAL     ACCESS:   59414016  HIT:   22300283  MISS:   37113733  HIT %:    37.5337  MISS %:    62.4663   MPKI: 185.569
L1D LOAD      TOTAL       ACCESS:   42011692  HIT:    7500947  MISS:   34510745  HIT %:    17.8544  MISS %:    82.1456   MPKI: 172.554
L1D LOAD      NON_SPEC    ACCESS:   37261452  HIT:    5322796  MISS:   31938656  HIT %:     14.285  MISS %:     85.715   MPKI: 159.693
L1D LOAD      SPEC        ACCESS:    4750240  HIT:    2178151  MISS:    2572089  HIT %:    45.8535  MISS %:    54.1465   MPKI: 12.8604
L1D RFO       NON_SPEC    ACCESS:    2522046  HIT:    2456264  MISS:      65782  HIT %:    97.3917  MISS %:    2.60828   MPKI: 0.32891
L1D COMMIT LOAD NON_SPEC    ACCESS:   11964977  HIT:   11964375  MISS:        602  HIT %:     99.995  MISS %: 0.00503135   MPKI: 0.00301
L1D COMMIT WRITE NON_SPEC    ACCESS:    2915301  HIT:     378697  MISS:    2536604  HIT %:      12.99  MISS %:      87.01   MPKI: 12.683
L1D PREFETCH  REQUESTED:          0  ISSUED:          0  USEFUL:          0  USELESS:          0
L1D USEFUL LOAD PREFETCHES:          0 PREFETCH ISSUED TO LOWER LEVEL:          0  ACCURACY: -nan
L1D TIMELY PREFETCHES:          0 LATE PREFETCHES: 0 DROPPED PREFETCHES: 0
L1D COMMIT LATE PREFETCHES: 0 MISSED OPPORTUNITY: 0 LATE IN PQ: 0 UNCOVERED: 0
L1D COMMIT LATE MSHR PREFETCHES: 0
L1D MPKI TOTAL: 172.554 MSHR LATE: 0 PQ LATE: 0 COMMIT LATE: 0 MISSED OPPORTUNITY: 0 UNCOVERED: 0
L1D PREFETCHES SAME FILL-ORIGIN LEVEL: 0 DIFFERENT FILL-ORIGIN LEVEL: 0
L1D AVERAGE MISS LATENCY: 84.8203 cycles
L1D AVERAGE MISS LATENCY LOAD: 90.7067 cycles
L1D AVERAGE MISS LATENCY PREFETCH: -nan cycles
L1D AVERAGE MSHR OCCUPANCY: 0.202601
L1D MSHR FULL: 0
L1D RQ	ACCESS:   54532034	FORWARD:          0	MERGED:     554572	TO_CACHE:   53977324
L1D WQ	ACCESS:    6221118	FORWARD:        138	MERGED:       6435	TO_CACHE:    6214683

L1D UNIQUE REGIONS ACCESSED: 0
L1D REGIONS CONFLICTS: 0
L1D Cross Page Prefetch Requests: 0
L1D Same Page Prefetch Requests: 0
L1D ROI Sum of L1D PQ occupancy: 0
L1D PREFETCHES PUSHED FROM L2C: 0
L1I SPEC fills:          0  NON-SPEC fills:          0
L1I Test counter :          0
L1I Leapfrog:          0
L1I MSHR merge:          1
L1I TOTAL     ACCESS:   60033614  HIT:   60033593  MISS:         21  HIT %:        100  MISS %: 3.49804e-05   MPKI: 0.000105
L1I LOAD      TOTAL       ACCESS:   60033614  HIT:   60033593  MISS:         21  HIT %:        100  MISS %: 3.49804e-05   MPKI: 0.000105
L1I LOAD      NON_SPEC    ACCESS:   60033614  HIT:   60033593  MISS:         21  HIT %:        100  MISS %: 3.49804e-05   MPKI: 0.000105
L1I PREFETCH  REQUESTED:          0  ISSUED:          0  USEFUL:          0  USELESS:          0
L1I USEFUL LOAD PREFETCHES:          0 PREFETCH ISSUED TO LOWER LEVEL:          0  ACCURACY: -nan
L1I TIMELY PREFETCHES:          0 LATE PREFETCHES: 0 DROPPED PREFETCHES: 0
L1I COMMIT LATE PREFETCHES: 0 MISSED OPPORTUNITY: 0 LATE IN PQ: 0 UNCOVERED: 0
L1I COMMIT LATE MSHR PREFETCHES: 0
L1I MPKI TOTAL: 0.00011 MSHR LATE: 0 PQ LATE: 0 COMMIT LATE: 0 MISSED OPPORTUNITY: 0 UNCOVERED: 0
L1I PREFETCHES SAME FILL-ORIGIN LEVEL: 0 DIFFERENT FILL-ORIGIN LEVEL: 0
L1I AVERAGE MISS LATENCY: 185.429 cycles
L1I AVERAGE MISS LATENCY LOAD: 185.429 cycles
L1I AVERAGE MISS LATENCY PREFETCH: -nan cycles
L1I AVERAGE MSHR OCCUPANCY: 1.33259e-07
L1I MSHR FULL: 0
L1I RQ	ACCESS:   71138277	FORWARD:          0	MERGED:   11104661	TO_CACHE:   60033616

BTB SPEC fills:          0  NON-SPEC fills:          0
BTB Test counter :          0
BTB Leapfrog:          0
BTB MSHR merge:          0
BTB TOTAL     ACCESS:   37022761  HIT:   37022589  MISS:        172  HIT %:    99.9995  MISS %: 0.000464579   MPKI: 0.00086
BTB BRANCH_DIRECT_JUMP	ACCESS:         66  HIT:         33  MISS:         33
BTB BRANCH_INDIRECT	ACCESS:          4  HIT:          0  MISS:          4
BTB BRANCH_CONDITIONAL	ACCESS:   37022625  HIT:   37022536  MISS:         89
BTB BRANCH_DIRECT_CALL	ACCESS:         28  HIT:         10  MISS:         18
BTB BRANCH_INDIRECT_CALL	ACCESS:          5  HIT:          1  MISS:          4
BTB BRANCH_RETURN	ACCESS:         33  HIT:          9  MISS:         24
BTB BRANCH_OTHER ACCESS:          0  HIT:          0  MISS:          0

L2C SPEC fills:          0  NON-SPEC fills:   22459979
L2C Test counter :    2517838
L2C Leapfrog:          0
L2C MSHR merge:          0
L2C TOTAL     ACCESS:   37379534  HIT:    9781111  MISS:   27598423  HIT %:     26.167  MISS %:     73.833   MPKI: 137.992
L2C LOAD      TOTAL       ACCESS:   34510762  HIT:    9498344  MISS:   25012418  HIT %:    27.5228  MISS %:    72.4772   MPKI: 125.062
L2C LOAD      NON_SPEC    ACCESS:   31938677  HIT:    9478677  MISS:   22460000  HIT %:    29.6777  MISS %:    70.3223   MPKI: 112.3
L2C LOAD      SPEC        ACCESS:    2572085  HIT:      19667  MISS:    2552418  HIT %:   0.764633  MISS %:    99.2354   MPKI: 12.7621
L2C RFO       NON_SPEC    ACCESS:      65782  HIT:        306  MISS:      65476  HIT %:   0.465173  MISS %:    99.5348   MPKI: 0.32738
L2C WRITEBACK NON_SPEC    ACCESS:      74167  HIT:      73437  MISS:        730  HIT %:    99.0157  MISS %:   0.984265   MPKI: 0.00365
L2C CLEAN_EVICTION NON_SPEC    ACCESS:    2524403  HIT:      17658  MISS:    2506745  HIT %:   0.699492  MISS %:    99.3005   MPKI: 12.5337
L2C COMMIT LOAD NON_SPEC    ACCESS:        602  HIT:         91  MISS:        511  HIT %:    15.1163  MISS %:    84.8837   MPKI: 0.002555
L2C LOAD TRANSLATION NON_SPEC    ACCESS:     203818  HIT:     191275  MISS:      12543  HIT %:     93.846  MISS %:    6.15402   MPKI: 0.062715
L2C PREFETCH  REQUESTED:          0  ISSUED:          0  USEFUL:          0  USELESS:          0
L2C USEFUL LOAD PREFETCHES:          0 PREFETCH ISSUED TO LOWER LEVEL:          0  ACCURACY: -nan
L2C TIMELY PREFETCHES:          0 LATE PREFETCHES: 0 DROPPED PREFETCHES: 0
L2C COMMIT LATE PREFETCHES: 0 MISSED OPPORTUNITY: 0 LATE IN PQ: 0 UNCOVERED: 0
L2C COMMIT LATE MSHR PREFETCHES: 0
L2C MPKI TOTAL: 125.062 MSHR LATE: 0 PQ LATE: 0 COMMIT LATE: 0 MISSED OPPORTUNITY: 0 UNCOVERED: 0
L2C PREFETCHES SAME FILL-ORIGIN LEVEL: 0 DIFFERENT FILL-ORIGIN LEVEL: 0
L2C AVERAGE MISS LATENCY: 95.6855 cycles
L2C AVERAGE MISS LATENCY LOAD: 104.854 cycles
L2C AVERAGE MISS LATENCY PREFETCH: -nan cycles
L2C AVERAGE MSHR OCCUPANCY: 0.182114
L2C MSHR FULL: 0
L2C RQ	ACCESS:   34780968	FORWARD:          0	MERGED:          0	TO_CACHE:   34780964
L2C WQ	ACCESS:    2598570	FORWARD:          4	MERGED:          0	TO_CACHE:    2598570

L2C Instructions Evicting Data 21
L2C Translations Evicting Data 12543
L2C Data Evicting Data 22514891
L2C Instructions Evicting Instructions 0
L2C Translations Evicting Instructions 0
L2C Data Evicting Instructions 2
L2C Instructions Evicting Translations 0
L2C Translations Evicting Translations 0
L2C Data Evicting Translations 11073
L2C Dense regions hint from L2: 0
PSCL5 SPEC fills:          0  NON-SPEC fills:          0
PSCL5 Test counter :          0
PSCL5 Leapfrog:          0
PSCL5 MSHR merge:          0
PSCL5 TOTAL     ACCESS:          0  HIT:          0  MISS:          0  HIT %:       -nan  MISS %:       -nan   MPKI: 0
PSCL5 PREFETCH  REQUESTED:          0  ISSUED:          0  USEFUL:          0  USELESS:          0
PSCL5 USEFUL LOAD PREFETCHES:          0 PREFETCH ISSUED TO LOWER LEVEL:          0  ACCURACY: -nan
PSCL5 TIMELY PREFETCHES:          0 LATE PREFETCHES: 0 DROPPED PREFETCHES: 0
PSCL5 COMMIT LATE PREFETCHES: 0 MISSED OPPORTUNITY: 0 LATE IN PQ: 0 UNCOVERED: 0
PSCL5 COMMIT LATE MSHR PREFETCHES: 0
PSCL5 MPKI TOTAL: 0 MSHR LATE: 0 PQ LATE: 0 COMMIT LATE: 0 MISSED OPPORTUNITY: 0 UNCOVERED: 0
PSCL5 PREFETCHES SAME FILL-ORIGIN LEVEL: 0 DIFFERENT FILL-ORIGIN LEVEL: 0

PSCL4 SPEC fills:          0  NON-SPEC fills:          0
PSCL4 Test counter :          0
PSCL4 Leapfrog:          0
PSCL4 MSHR merge:          0
PSCL4 TOTAL     ACCESS:          0  HIT:          0  MISS:          0  HIT %:       -nan  MISS %:       -nan   MPKI: 0
PSCL4 PREFETCH  REQUESTED:          0  ISSUED:          0  USEFUL:          0  USELESS:          0
PSCL4 USEFUL LOAD PREFETCHES:          0 PREFETCH ISSUED TO LOWER LEVEL:          0  ACCURACY: -nan
PSCL4 TIMELY PREFETCHES:          0 LATE PREFETCHES: 0 DROPPED PREFETCHES: 0
PSCL4 COMMIT LATE PREFETCHES: 0 MISSED OPPORTUNITY: 0 LATE IN PQ: 0 UNCOVERED: 0
PSCL4 COMMIT LATE MSHR PREFETCHES: 0
PSCL4 MPKI TOTAL: 0 MSHR LATE: 0 PQ LATE: 0 COMMIT LATE: 0 MISSED OPPORTUNITY: 0 UNCOVERED: 0
PSCL4 PREFETCHES SAME FILL-ORIGIN LEVEL: 0 DIFFERENT FILL-ORIGIN LEVEL: 0

PSCL3 SPEC fills:          0  NON-SPEC fills:          0
PSCL3 Test counter :          0
PSCL3 Leapfrog:          0
PSCL3 MSHR merge:          0
PSCL3 TOTAL     ACCESS:          0  HIT:          0  MISS:          0  HIT %:       -nan  MISS %:       -nan   MPKI: 0
PSCL3 PREFETCH  REQUESTED:          0  ISSUED:          0  USEFUL:          0  USELESS:          0
PSCL3 USEFUL LOAD PREFETCHES:          0 PREFETCH ISSUED TO LOWER LEVEL:          0  ACCURACY: -nan
PSCL3 TIMELY PREFETCHES:          0 LATE PREFETCHES: 0 DROPPED PREFETCHES: 0
PSCL3 COMMIT LATE PREFETCHES: 0 MISSED OPPORTUNITY: 0 LATE IN PQ: 0 UNCOVERED: 0
PSCL3 COMMIT LATE MSHR PREFETCHES: 0
PSCL3 MPKI TOTAL: 0 MSHR LATE: 0 PQ LATE: 0 COMMIT LATE: 0 MISSED OPPORTUNITY: 0 UNCOVERED: 0
PSCL3 PREFETCHES SAME FILL-ORIGIN LEVEL: 0 DIFFERENT FILL-ORIGIN LEVEL: 0

PSCL2 SPEC fills:          0  NON-SPEC fills:          0
PSCL2 Test counter :          0
PSCL2 Leapfrog:          0
PSCL2 MSHR merge:          0
PSCL2 TOTAL     ACCESS:          0  HIT:          0  MISS:          0  HIT %:       -nan  MISS %:       -nan   MPKI: 0
PSCL2 PREFETCH  REQUESTED:          0  ISSUED:          0  USEFUL:          0  USELESS:          0
PSCL2 USEFUL LOAD PREFETCHES:          0 PREFETCH ISSUED TO LOWER LEVEL:          0  ACCURACY: -nan
PSCL2 TIMELY PREFETCHES:          0 LATE PREFETCHES: 0 DROPPED PREFETCHES: 0
PSCL2 COMMIT LATE PREFETCHES: 0 MISSED OPPORTUNITY: 0 LATE IN PQ: 0 UNCOVERED: 0
PSCL2 COMMIT LATE MSHR PREFETCHES: 0
PSCL2 MPKI TOTAL: 0 MSHR LATE: 0 PQ LATE: 0 COMMIT LATE: 0 MISSED OPPORTUNITY: 0 UNCOVERED: 0
PSCL2 PREFETCHES SAME FILL-ORIGIN LEVEL: 0 DIFFERENT FILL-ORIGIN LEVEL: 0

LLC SPEC fills:          0  NON-SPEC fills:    9263321
LLC Test counter :    2518675
LLC Leapfrog:          0
LLC MSHR merge:          0
LLC TOTAL     ACCESS:   27675881  HIT:   13291996  MISS:   14383885  HIT %:    48.0274  MISS %:    51.9726   MPKI: 71.9194
LLC LOAD      TOTAL       ACCESS:   25012418  HIT:   13201939  MISS:   11810479  HIT %:    52.7815  MISS %:    47.2185   MPKI: 59.0524
LLC LOAD      NON_SPEC    ACCESS:   22460000  HIT:   13196658  MISS:    9263342  HIT %:    58.7563  MISS %:    41.2437   MPKI: 46.3167
LLC LOAD      SPEC        ACCESS:    2552418  HIT:       5281  MISS:    2547137  HIT %:   0.206902  MISS %:    99.7931   MPKI: 12.7357
LLC RFO       NON_SPEC    ACCESS:      65476  HIT:       1286  MISS:      64190  HIT %:    1.96408  MISS %:    98.0359   MPKI: 0.32095
LLC WRITEBACK NON_SPEC    ACCESS:      67095  HIT:      66679  MISS:        416  HIT %:      99.38  MISS %:   0.620016   MPKI: 0.00208
LLC CLEAN_EVICTION NON_SPEC    ACCESS:    2517838  HIT:      15677  MISS:    2502161  HIT %:   0.622637  MISS %:    99.3774   MPKI: 12.5108
LLC COMMIT LOAD NON_SPEC    ACCESS:        511  HIT:         22  MISS:        489  HIT %:    4.30528  MISS %:    95.6947   MPKI: 0.002445
LLC LOAD TRANSLATION NON_SPEC    ACCESS:      12543  HIT:       6393  MISS:       6150  HIT %:    50.9687  MISS %:    49.0313   MPKI: 0.03075
LLC PREFETCH  REQUESTED:          0  ISSUED:          0  USEFUL:          0  USELESS:          0
LLC USEFUL LOAD PREFETCHES:          0 PREFETCH ISSUED TO LOWER LEVEL:          0  ACCURACY: -nan
LLC TIMELY PREFETCHES:          0 LATE PREFETCHES: 0 DROPPED PREFETCHES: 0
LLC COMMIT LATE PREFETCHES: 0 MISSED OPPORTUNITY: 0 LATE IN PQ: 0 UNCOVERED: 0
LLC COMMIT LATE MSHR PREFETCHES: 0
LLC MPKI TOTAL: 59.0524 MSHR LATE: 0 PQ LATE: 0 COMMIT LATE: 0 MISSED OPPORTUNITY: 0 UNCOVERED: 0
LLC PREFETCHES SAME FILL-ORIGIN LEVEL: 0 DIFFERENT FILL-ORIGIN LEVEL: 0
LLC AVERAGE MISS LATENCY: 132.832 cycles
LLC AVERAGE MISS LATENCY LOAD: 160.441 cycles
LLC AVERAGE MISS LATENCY PREFETCH: -nan cycles
LLC AVERAGE MSHR OCCUPANCY: 0.162205
LLC MSHR FULL: 0
LLC RQ	ACCESS:   25090948	FORWARD:          0	MERGED:          0	TO_CACHE:   25090948
LLC WQ	ACCESS:    2584933	FORWARD:          0	MERGED:          0	TO_CACHE:    2584933

LLC Dense regions hint to LLC: 0

RAW hits: 23
Loads Generated: 77350942
Loads sent to L1D: 77350918
Stores Generated: 3305817
Stores sent to L1D: 3305817
Major fault: 0 Minor fault: 34901
Allocated PAGES: 34901
Total Load insts: 95645186
Total Non-spec loads: 44562529
Percentage of speculative loads: 53.4085

LeapFrogging counter: 0
Commit hits: 4743570 miss: 35310274
Commit hit %: 11.843 miss %: 88.157
Commits not translated: 0
Loads retired: 34510742
Stores retired: 3305817
Cache fills: 34510745
L1D response latency: 90.7067 cycles
Load retirement latency: 220.079 cycles
OOO test counter: 0
Discarded buffer inserts: 4743570 hits: 57023 hit %: 1.20211

DRAM Statistics
 CHANNEL 0
 RQ ROW_BUFFER_HIT:     988947  ROW_BUFFER_MISS:   10892358
 DBUS_CONGESTED:        388
 WQ ROW_BUFFER_HIT:     781662  ROW_BUFFER_MISS:    1803224  FULL:          0

 AVG_CONGESTED_CYCLE: 4
 All warmup complete: 2
Channel 0 Bank busy for read cycles: 0
Channel 0 Bank busy for write cycles: 0
Channel 0
Rank 0
0banks busy for read cycles: 1477048207
0banks busy for write cycles: 1887467
1banks busy for read cycles: 1365612979
1banks busy for write cycles: 370974118
2banks busy for read cycles: 127115585
2banks busy for write cycles: 44542454
3banks busy for read cycles: 20697306
3banks busy for write cycles: 4570752
4banks busy for read cycles: 352566
4banks busy for write cycles: 771365
5banks busy for read cycles: 4340
5banks busy for write cycles: 377781
6banks busy for read cycles: 0
6banks busy for write cycles: 330032
7banks busy for read cycles: 0
7banks busy for write cycles: 701383
8banks busy for read cycles: 0
8banks busy for write cycles: 5958919

CPU 0 Branch Prediction Accuracy: 96.9509% MPKI: 5.6443 Average ROB Occupancy at Mispredict: 135.587
Branch types
NOT_BRANCH: 162977012 81.4885%
BRANCH_DIRECT_JUMP: 66 3.3e-05%
BRANCH_INDIRECT: 4 2e-06%
BRANCH_CONDITIONAL: 37022851 18.5114%
BRANCH_DIRECT_CALL: 28 1.4e-05%
BRANCH_INDIRECT_CALL: 5 2.5e-06%
BRANCH_RETURN: 33 1.65e-05%
BRANCH_OTHER: 0 0%

DRAM PAGES: 1048576
Allocated PAGES: 34901
