
*** ChampSim Multicore Out-of-Order Simulator ***

Warmup Instructions: 50000000
Simulation Instructions: 200000000
Number of CPUs: 1
LLC sets: 2048
LLC ways: 16
L0D sets: 16
L0D ways: 2
ROB size: 352
LQ size: 128
SQ size: 72
Secure Berti: OFF
Berti: OFF
Berti Fill: OFF
On commit prefetching: OFF
Hit-based filter: ON
Time-guarding: ON
Free-slotting: ON
Leap-frogging: ON
Train prefetcher on L0D bypass: OFF
No translation penalty for prefetchers: OFF
Prefetch to L0D only: OFF
Prefetch to L1D only: OFF
Clean evictions: ON
Commit loads: ON
Commit write: ON
Fill commit loads to L2C, LLC: ON
DRAM IO FREQUENCY: 6400
ROB SIZE: 352
Off-chip DRAM Size: 4096 MB Channels: 1 Width: 64-bit Data Rate: 6400 MT/s
CPU 0 runs /home/sumon/secure_berti/GhostMinion/../../traces/gap/pr-5.trace.gz
.gz
BTB has LRU replacement policy
ITLB has LRU replacement policy
DTLB has LRU replacement policy
STLB has LRU replacement policy
L1I has LRU replacement policy
L0D has LRU replacement policy
L1D has LRU replacement policy
L2C has LRU replacement policy
LLC has LRU replacement policy
Heartbeat CPU 0 instructions: 10000001 cycles: 3333816 heartbeat IPC: 2.99957 cumulative IPC: 2.99957 (Simulation time: 0 hr 0 min 42 sec) 
Heartbeat CPU 0 instructions: 20000001 cycles: 17856251 heartbeat IPC: 0.68859 cumulative IPC: 1.12006 (Simulation time: 0 hr 1 min 46 sec) 
Heartbeat CPU 0 instructions: 30000000 cycles: 34372500 heartbeat IPC: 0.605464 cumulative IPC: 0.872791 (Simulation time: 0 hr 2 min 42 sec) 
Heartbeat CPU 0 instructions: 40000001 cycles: 50918171 heartbeat IPC: 0.604388 cumulative IPC: 0.785574 (Simulation time: 0 hr 3 min 41 sec) 
Heartbeat CPU 0 instructions: 50000003 cycles: 67445009 heartbeat IPC: 0.605077 cumulative IPC: 0.741345 (Simulation time: 0 hr 4 min 40 sec) 

Warmup complete CPU 0 instructions: 50000003 cycles: 67445009 (Simulation time: 0 hr 4 min 40 sec) 

Heartbeat CPU 0 instructions: 60000000 cycles: 251062907 heartbeat IPC: 0.0544609 cumulative IPC: 0.0544609 (Simulation time: 0 hr 7 min 25 sec) 
Heartbeat CPU 0 instructions: 70000002 cycles: 433872922 heartbeat IPC: 0.0547016 cumulative IPC: 0.054581 (Simulation time: 0 hr 10 min 9 sec) 
Heartbeat CPU 0 instructions: 80000001 cycles: 616930121 heartbeat IPC: 0.0546277 cumulative IPC: 0.0545966 (Simulation time: 0 hr 12 min 45 sec) 
Heartbeat CPU 0 instructions: 90000000 cycles: 801079243 heartbeat IPC: 0.0543038 cumulative IPC: 0.0545231 (Simulation time: 0 hr 14 min 59 sec) 
Heartbeat CPU 0 instructions: 100000000 cycles: 984552158 heartbeat IPC: 0.054504 cumulative IPC: 0.0545193 (Simulation time: 0 hr 16 min 55 sec) 
Heartbeat CPU 0 instructions: 110000000 cycles: 1168929910 heartbeat IPC: 0.0542365 cumulative IPC: 0.0544719 (Simulation time: 0 hr 18 min 50 sec) 
Heartbeat CPU 0 instructions: 120000002 cycles: 1352328449 heartbeat IPC: 0.0545261 cumulative IPC: 0.0544796 (Simulation time: 0 hr 20 min 44 sec) 
Heartbeat CPU 0 instructions: 130000003 cycles: 1536817993 heartbeat IPC: 0.0542036 cumulative IPC: 0.054445 (Simulation time: 0 hr 22 min 38 sec) 
Heartbeat CPU 0 instructions: 140000000 cycles: 1720242829 heartbeat IPC: 0.0545182 cumulative IPC: 0.0544531 (Simulation time: 0 hr 24 min 30 sec) 
Heartbeat CPU 0 instructions: 150000001 cycles: 1903883239 heartbeat IPC: 0.0544543 cumulative IPC: 0.0544532 (Simulation time: 0 hr 26 min 22 sec) 
Heartbeat CPU 0 instructions: 160000001 cycles: 2087423801 heartbeat IPC: 0.0544839 cumulative IPC: 0.054456 (Simulation time: 0 hr 28 min 14 sec) 
Heartbeat CPU 0 instructions: 170000001 cycles: 2271440022 heartbeat IPC: 0.054343 cumulative IPC: 0.0544466 (Simulation time: 0 hr 30 min 6 sec) 
Heartbeat CPU 0 instructions: 180000000 cycles: 2454584853 heartbeat IPC: 0.0546016 cumulative IPC: 0.0544585 (Simulation time: 0 hr 31 min 57 sec) 
Heartbeat CPU 0 instructions: 190000000 cycles: 2588355108 heartbeat IPC: 0.074755 cumulative IPC: 0.0555355 (Simulation time: 0 hr 33 min 25 sec) 
Heartbeat CPU 0 instructions: 200000003 cycles: 2633190423 heartbeat IPC: 0.223039 cumulative IPC: 0.0584625 (Simulation time: 0 hr 34 min 13 sec) 
Heartbeat CPU 0 instructions: 210000001 cycles: 2816292180 heartbeat IPC: 0.0546144 cumulative IPC: 0.0582062 (Simulation time: 0 hr 36 min 5 sec) 
Heartbeat CPU 0 instructions: 220000000 cycles: 3000286385 heartbeat IPC: 0.0543495 cumulative IPC: 0.0579643 (Simulation time: 0 hr 37 min 57 sec) 
Heartbeat CPU 0 instructions: 230000001 cycles: 3184301381 heartbeat IPC: 0.0543434 cumulative IPC: 0.0577505 (Simulation time: 0 hr 39 min 49 sec) 
Heartbeat CPU 0 instructions: 240000000 cycles: 3368041567 heartbeat IPC: 0.0544247 cumulative IPC: 0.0575654 (Simulation time: 0 hr 41 min 41 sec) 
Heartbeat CPU 0 instructions: 250000003 cycles: 3551435924 heartbeat IPC: 0.0545273 cumulative IPC: 0.0574054 (Simulation time: 0 hr 43 min 32 sec) 
Finished CPU 0 instructions: 200000000 cycles: 3483990915 cumulative IPC: 0.0574054 (Simulation time: 0 hr 43 min 32 sec) 
 Instruction ID: 250000346

ChampSim completed all CPUs

Region of Interest Statistics

CPU 0 cumulative IPC: 0.0574054 instructions: 200000000 cycles: 3483990915
ITLB SPEC fills:          0  NON-SPEC fills:          0
ITLB Test counter :          0
ITLB Leapfrog:          0
ITLB MSHR merge:          0
ITLB TOTAL     ACCESS:   58924342  HIT:   58924342  MISS:          0  HIT %:        100  MISS %:          0   MPKI: 0
ITLB LOAD TRANSLATION NON_SPEC    ACCESS:   58924342  HIT:   58924342  MISS:          0  HIT %:        100  MISS %:          0   MPKI: 0
ITLB PREFETCH  REQUESTED:          0  ISSUED:          0  USEFUL:          0  USELESS:          0
ITLB USEFUL LOAD PREFETCHES:          0 PREFETCH ISSUED TO LOWER LEVEL:          0  ACCURACY: -nan
ITLB TIMELY PREFETCHES:          0 LATE PREFETCHES: 0 DROPPED PREFETCHES: 0
ITLB COMMIT LATE PREFETCHES: 0 MISSED OPPORTUNITY: 0 LATE IN PQ: 0 UNCOVERED: 0
ITLB COMMIT LATE MSHR PREFETCHES: 0
ITLB MPKI TOTAL: 0 MSHR LATE: 0 PQ LATE: 0 COMMIT LATE: 0 MISSED OPPORTUNITY: 0 UNCOVERED: 0
ITLB PREFETCHES SAME FILL-ORIGIN LEVEL: 0 DIFFERENT FILL-ORIGIN LEVEL: 0
ITLB AVERAGE MISS LATENCY: -nan cycles
ITLB AVERAGE MISS LATENCY LOAD: -nan cycles
ITLB AVERAGE MISS LATENCY PREFETCH: -nan cycles
ITLB AVERAGE MSHR OCCUPANCY: 0
ITLB MSHR FULL: 0
ITLB RQ	ACCESS:   60049334	FORWARD:          0	MERGED:    1124992	TO_CACHE:   58924342

DTLB SPEC fills:          0  NON-SPEC fills:          0
DTLB Test counter :          0
DTLB Leapfrog:          0
DTLB MSHR merge:          0
DTLB TOTAL     ACCESS:   69951490  HIT:   47037872  MISS:   22913618  HIT %:    67.2436  MISS %:    32.7564   MPKI: 114.568
DTLB LOAD TRANSLATION NON_SPEC    ACCESS:   69951490  HIT:   47037872  MISS:   22913618  HIT %:    67.2436  MISS %:    32.7564   MPKI: 114.568
DTLB PREFETCH  REQUESTED:          0  ISSUED:          0  USEFUL:          0  USELESS:          0
DTLB USEFUL LOAD PREFETCHES:          0 PREFETCH ISSUED TO LOWER LEVEL:          0  ACCURACY: -nan
DTLB TIMELY PREFETCHES:          0 LATE PREFETCHES: 0 DROPPED PREFETCHES: 0
DTLB COMMIT LATE PREFETCHES: 0 MISSED OPPORTUNITY: 0 LATE IN PQ: 0 UNCOVERED: 0
DTLB COMMIT LATE MSHR PREFETCHES: 0
DTLB MPKI TOTAL: 0 MSHR LATE: 0 PQ LATE: 0 COMMIT LATE: 0 MISSED OPPORTUNITY: 0 UNCOVERED: 0
DTLB PREFETCHES SAME FILL-ORIGIN LEVEL: 0 DIFFERENT FILL-ORIGIN LEVEL: 0
DTLB AVERAGE MISS LATENCY: 9.28469 cycles
DTLB AVERAGE MISS LATENCY LOAD: -nan cycles
DTLB AVERAGE MISS LATENCY PREFETCH: -nan cycles
DTLB AVERAGE MSHR OCCUPANCY: 0.198586
DTLB MSHR FULL: 0
DTLB RQ	ACCESS:   70950918	FORWARD:          0	MERGED:     985217	TO_CACHE:   69965701

STLB SPEC fills:          0  NON-SPEC fills:          0
STLB Test counter :          0
STLB Leapfrog:          0
STLB MSHR merge:          0
STLB TOTAL     ACCESS:   22913617  HIT:   22872813  MISS:      40804  HIT %:    99.8219  MISS %:   0.178078   MPKI: 0.20402
STLB LOAD TRANSLATION NON_SPEC    ACCESS:   22913617  HIT:   22872813  MISS:      40804  HIT %:    99.8219  MISS %:   0.178078   MPKI: 0.20402
STLB PREFETCH  REQUESTED:          0  ISSUED:          0  USEFUL:          0  USELESS:          0
STLB USEFUL LOAD PREFETCHES:          0 PREFETCH ISSUED TO LOWER LEVEL:          0  ACCURACY: -nan
STLB TIMELY PREFETCHES:          0 LATE PREFETCHES: 0 DROPPED PREFETCHES: 0
STLB COMMIT LATE PREFETCHES: 0 MISSED OPPORTUNITY: 0 LATE IN PQ: 0 UNCOVERED: 0
STLB COMMIT LATE MSHR PREFETCHES: 0
STLB MPKI TOTAL: 0 MSHR LATE: 0 PQ LATE: 0 COMMIT LATE: 0 MISSED OPPORTUNITY: 0 UNCOVERED: 0
STLB PREFETCHES SAME FILL-ORIGIN LEVEL: 0 DIFFERENT FILL-ORIGIN LEVEL: 0
STLB AVERAGE MISS LATENCY: 150.977 cycles
STLB AVERAGE MISS LATENCY LOAD: -nan cycles
STLB AVERAGE MISS LATENCY PREFETCH: -nan cycles
STLB AVERAGE MSHR OCCUPANCY: 0.00105265
STLB MSHR FULL: 0
STLB RQ	ACCESS:   22913617	FORWARD:          0	MERGED:          0	TO_CACHE:   22913617

STLB Hit, L1D data hit: 0
STLB Hit, L2C data hit: 0
STLB Hit, LLC data hit: 0
STLB Hit, LLC data miss: 0
STLB STLB hints to L2: 0
L0D SPEC fills:    4644535  NON-SPEC fills:          0
L0D TimeGuard Request with older TS:      63124 Restricted eviction:       5696 read:       7555
L0D Test counter :          0
L0D Leapfrog:          0
L0D MSHR merge:    7079280
L0D TOTAL     ACCESS:   60571402  HIT:   18568973  MISS:   42002429  HIT %:    30.6563  MISS %:    69.3437   MPKI: 210.012
L0D LOAD      TOTAL       ACCESS:   60571402  HIT:   18568973  MISS:   42002429  HIT %:    30.6563  MISS %:    69.3437   MPKI: 210.012
L0D LOAD      NON_SPEC    ACCESS:   37358679  HIT:       6481  MISS:   37352198  HIT %:   0.017348  MISS %:    99.9827   MPKI: 186.761
L0D LOAD      SPEC        ACCESS:   23212723  HIT:   18562492  MISS:    4650231  HIT %:    79.9669  MISS %:    20.0331   MPKI: 23.2512
L0D PREFETCH  REQUESTED:          0  ISSUED:          0  USEFUL:          0  USELESS:          0
L0D USEFUL LOAD PREFETCHES:          0 PREFETCH ISSUED TO LOWER LEVEL:          0  ACCURACY: -nan
L0D TIMELY PREFETCHES:          0 LATE PREFETCHES: 0 DROPPED PREFETCHES: 0
L0D COMMIT LATE PREFETCHES: 0 MISSED OPPORTUNITY: 0 LATE IN PQ: 0 UNCOVERED: 0
L0D COMMIT LATE MSHR PREFETCHES: 0
L0D MPKI TOTAL: 245.409 MSHR LATE: 0 PQ LATE: 0 COMMIT LATE: 0 MISSED OPPORTUNITY: 0 UNCOVERED: 0
L0D PREFETCHES SAME FILL-ORIGIN LEVEL: 0 DIFFERENT FILL-ORIGIN LEVEL: 0
L0D AVERAGE MISS LATENCY: 80.9797 cycles
L0D AVERAGE MISS LATENCY LOAD: 80.9797 cycles
L0D AVERAGE MISS LATENCY PREFETCH: -nan cycles
L0D AVERAGE MSHR OCCUPANCY: 0.424982
L0D MSHR FULL: 0
L0D RQ	ACCESS:   77353672	FORWARD:          0	MERGED:    9702991	TO_CACHE:   67650681
L0D WQ	ACCESS:    3300237	FORWARD:          0	MERGED:          0	TO_CACHE:    3300237

L1D SPEC fills:          0  NON-SPEC fills:   31898628
L1D Test counter :    2524375
L1D Leapfrog:          0
L1D MSHR merge:        113
L1D TOTAL     ACCESS:   59122857  HIT:   22065495  MISS:   37057362  HIT %:    37.3214  MISS %:    62.6786   MPKI: 185.287
L1D LOAD      TOTAL       ACCESS:   42002316  HIT:    7548125  MISS:   34454191  HIT %:    17.9707  MISS %:    82.0293   MPKI: 172.271
L1D LOAD      NON_SPEC    ACCESS:   37352197  HIT:    5453569  MISS:   31898628  HIT %:    14.6004  MISS %:    85.3996   MPKI: 159.493
L1D LOAD      SPEC        ACCESS:    4650119  HIT:    2094556  MISS:    2555563  HIT %:    45.0431  MISS %:    54.9569   MPKI: 12.7778
L1D RFO       NON_SPEC    ACCESS:    2584722  HIT:    2518950  MISS:      65772  HIT %:    97.4554  MISS %:    2.54465   MPKI: 0.32886
L1D COMMIT LOAD NON_SPEC    ACCESS:   11691871  HIT:   11691270  MISS:        601  HIT %:    99.9949  MISS %: 0.00514032   MPKI: 0.003005
L1D COMMIT WRITE NON_SPEC    ACCESS:    2843948  HIT:     307150  MISS:    2536798  HIT %:    10.8001  MISS %:    89.1999   MPKI: 12.684
L1D PREFETCH  REQUESTED:          0  ISSUED:          0  USEFUL:          0  USELESS:          0
L1D USEFUL LOAD PREFETCHES:          0 PREFETCH ISSUED TO LOWER LEVEL:          0  ACCURACY: -nan
L1D TIMELY PREFETCHES:          0 LATE PREFETCHES: 0 DROPPED PREFETCHES: 0
L1D COMMIT LATE PREFETCHES: 0 MISSED OPPORTUNITY: 0 LATE IN PQ: 0 UNCOVERED: 0
L1D COMMIT LATE MSHR PREFETCHES: 0
L1D MPKI TOTAL: 172.272 MSHR LATE: 0 PQ LATE: 0 COMMIT LATE: 0 MISSED OPPORTUNITY: 0 UNCOVERED: 0
L1D PREFETCHES SAME FILL-ORIGIN LEVEL: 0 DIFFERENT FILL-ORIGIN LEVEL: 0
L1D AVERAGE MISS LATENCY: 86.5531 cycles
L1D AVERAGE MISS LATENCY LOAD: 92.6156 cycles
L1D AVERAGE MISS LATENCY PREFETCH: -nan cycles
L1D AVERAGE MSHR OCCUPANCY: 0.195839
L1D MSHR FULL: 0
L1D RQ	ACCESS:   54052622	FORWARD:          0	MERGED:     351795	TO_CACHE:   53694794
L1D WQ	ACCESS:    6144185	FORWARD:       6033	MERGED:       6147	TO_CACHE:    6138038

L1D UNIQUE REGIONS ACCESSED: 0
L1D REGIONS CONFLICTS: 0
L1D Cross Page Prefetch Requests: 0
L1D Same Page Prefetch Requests: 0
L1D ROI Sum of L1D PQ occupancy: 0
L1D PREFETCHES PUSHED FROM L2C: 0
L1I SPEC fills:          0  NON-SPEC fills:          0
L1I Test counter :          0
L1I Leapfrog:          0
L1I MSHR merge:          1
L1I TOTAL     ACCESS:   60049333  HIT:   60049311  MISS:         22  HIT %:        100  MISS %: 3.66365e-05   MPKI: 0.00011
L1I LOAD      TOTAL       ACCESS:   60049333  HIT:   60049311  MISS:         22  HIT %:        100  MISS %: 3.66365e-05   MPKI: 0.00011
L1I LOAD      NON_SPEC    ACCESS:   60049333  HIT:   60049311  MISS:         22  HIT %:        100  MISS %: 3.66365e-05   MPKI: 0.00011
L1I PREFETCH  REQUESTED:          0  ISSUED:          0  USEFUL:          0  USELESS:          0
L1I USEFUL LOAD PREFETCHES:          0 PREFETCH ISSUED TO LOWER LEVEL:          0  ACCURACY: -nan
L1I TIMELY PREFETCHES:          0 LATE PREFETCHES: 0 DROPPED PREFETCHES: 0
L1I COMMIT LATE PREFETCHES: 0 MISSED OPPORTUNITY: 0 LATE IN PQ: 0 UNCOVERED: 0
L1I COMMIT LATE MSHR PREFETCHES: 0
L1I MPKI TOTAL: 0.000115 MSHR LATE: 0 PQ LATE: 0 COMMIT LATE: 0 MISSED OPPORTUNITY: 0 UNCOVERED: 0
L1I PREFETCHES SAME FILL-ORIGIN LEVEL: 0 DIFFERENT FILL-ORIGIN LEVEL: 0
L1I AVERAGE MISS LATENCY: 195.818 cycles
L1I AVERAGE MISS LATENCY LOAD: 195.818 cycles
L1I AVERAGE MISS LATENCY PREFETCH: -nan cycles
L1I AVERAGE MSHR OCCUPANCY: 1.33224e-07
L1I MSHR FULL: 0
L1I RQ	ACCESS:   71161743	FORWARD:          0	MERGED:   11112409	TO_CACHE:   60049334

BTB SPEC fills:          0  NON-SPEC fills:          0
BTB Test counter :          0
BTB Leapfrog:          0
BTB MSHR merge:          0
BTB TOTAL     ACCESS:   37026927  HIT:   37026756  MISS:        171  HIT %:    99.9995  MISS %: 0.000461826   MPKI: 0.000855
BTB BRANCH_DIRECT_JUMP	ACCESS:         66  HIT:         33  MISS:         33
BTB BRANCH_INDIRECT	ACCESS:          4  HIT:          0  MISS:          4
BTB BRANCH_CONDITIONAL	ACCESS:   37026791  HIT:   37026703  MISS:         88
BTB BRANCH_DIRECT_CALL	ACCESS:         28  HIT:         10  MISS:         18
BTB BRANCH_INDIRECT_CALL	ACCESS:          5  HIT:          1  MISS:          4
BTB BRANCH_RETURN	ACCESS:         33  HIT:          9  MISS:         24
BTB BRANCH_OTHER ACCESS:          0  HIT:          0  MISS:          0

L2C SPEC fills:          0  NON-SPEC fills:   22543551
L2C Test counter :    2518022
L2C Leapfrog:          0
L2C MSHR merge:          0
L2C TOTAL     ACCESS:   37322189  HIT:    9646682  MISS:   27675507  HIT %:     25.847  MISS %:     74.153   MPKI: 138.378
L2C LOAD      TOTAL       ACCESS:   34454212  HIT:    9374944  MISS:   25079268  HIT %:    27.2099  MISS %:    72.7901   MPKI: 125.396
L2C LOAD      NON_SPEC    ACCESS:   31898650  HIT:    9355077  MISS:   22543573  HIT %:    29.3275  MISS %:    70.6725   MPKI: 112.718
L2C LOAD      SPEC        ACCESS:    2555562  HIT:      19867  MISS:    2535695  HIT %:   0.777402  MISS %:    99.2226   MPKI: 12.6785
L2C RFO       NON_SPEC    ACCESS:      65772  HIT:        358  MISS:      65414  HIT %:   0.544305  MISS %:    99.4557   MPKI: 0.32707
L2C WRITEBACK NON_SPEC    ACCESS:      73256  HIT:      73226  MISS:         30  HIT %:     99.959  MISS %:  0.0409523   MPKI: 0.00015
L2C CLEAN_EVICTION NON_SPEC    ACCESS:    2524375  HIT:       7228  MISS:    2517147  HIT %:   0.286328  MISS %:    99.7137   MPKI: 12.5857
L2C COMMIT LOAD NON_SPEC    ACCESS:        601  HIT:        105  MISS:        496  HIT %:    17.4709  MISS %:    82.5291   MPKI: 0.00248
L2C LOAD TRANSLATION NON_SPEC    ACCESS:     203973  HIT:     190821  MISS:      13152  HIT %:    93.5521  MISS %:    6.44791   MPKI: 0.06576
L2C PREFETCH  REQUESTED:          0  ISSUED:          0  USEFUL:          0  USELESS:          0
L2C USEFUL LOAD PREFETCHES:          0 PREFETCH ISSUED TO LOWER LEVEL:          0  ACCURACY: -nan
L2C TIMELY PREFETCHES:          0 LATE PREFETCHES: 0 DROPPED PREFETCHES: 0
L2C COMMIT LATE PREFETCHES: 0 MISSED OPPORTUNITY: 0 LATE IN PQ: 0 UNCOVERED: 0
L2C COMMIT LATE MSHR PREFETCHES: 0
L2C MPKI TOTAL: 125.396 MSHR LATE: 0 PQ LATE: 0 COMMIT LATE: 0 MISSED OPPORTUNITY: 0 UNCOVERED: 0
L2C PREFETCHES SAME FILL-ORIGIN LEVEL: 0 DIFFERENT FILL-ORIGIN LEVEL: 0
L2C AVERAGE MISS LATENCY: 97.5913 cycles
L2C AVERAGE MISS LATENCY LOAD: 107.024 cycles
L2C AVERAGE MISS LATENCY PREFETCH: -nan cycles
L2C AVERAGE MSHR OCCUPANCY: 0.177482
L2C MSHR FULL: 0
L2C RQ	ACCESS:   34724559	FORWARD:          0	MERGED:          0	TO_CACHE:   34724558
L2C WQ	ACCESS:    2597631	FORWARD:          1	MERGED:          0	TO_CACHE:    2597631

L2C Instructions Evicting Data 22
L2C Translations Evicting Data 13151
L2C Data Evicting Data 22598005
L2C Instructions Evicting Instructions 0
L2C Translations Evicting Instructions 0
L2C Data Evicting Instructions 9
L2C Instructions Evicting Translations 0
L2C Translations Evicting Translations 1
L2C Data Evicting Translations 11447
L2C Dense regions hint from L2: 0
PSCL5 SPEC fills:          0  NON-SPEC fills:          0
PSCL5 Test counter :          0
PSCL5 Leapfrog:          0
PSCL5 MSHR merge:          0
PSCL5 TOTAL     ACCESS:          0  HIT:          0  MISS:          0  HIT %:       -nan  MISS %:       -nan   MPKI: 0
PSCL5 PREFETCH  REQUESTED:          0  ISSUED:          0  USEFUL:          0  USELESS:          0
PSCL5 USEFUL LOAD PREFETCHES:          0 PREFETCH ISSUED TO LOWER LEVEL:          0  ACCURACY: -nan
PSCL5 TIMELY PREFETCHES:          0 LATE PREFETCHES: 0 DROPPED PREFETCHES: 0
PSCL5 COMMIT LATE PREFETCHES: 0 MISSED OPPORTUNITY: 0 LATE IN PQ: 0 UNCOVERED: 0
PSCL5 COMMIT LATE MSHR PREFETCHES: 0
PSCL5 MPKI TOTAL: 0 MSHR LATE: 0 PQ LATE: 0 COMMIT LATE: 0 MISSED OPPORTUNITY: 0 UNCOVERED: 0
PSCL5 PREFETCHES SAME FILL-ORIGIN LEVEL: 0 DIFFERENT FILL-ORIGIN LEVEL: 0

PSCL4 SPEC fills:          0  NON-SPEC fills:          0
PSCL4 Test counter :          0
PSCL4 Leapfrog:          0
PSCL4 MSHR merge:          0
PSCL4 TOTAL     ACCESS:          0  HIT:          0  MISS:          0  HIT %:       -nan  MISS %:       -nan   MPKI: 0
PSCL4 PREFETCH  REQUESTED:          0  ISSUED:          0  USEFUL:          0  USELESS:          0
PSCL4 USEFUL LOAD PREFETCHES:          0 PREFETCH ISSUED TO LOWER LEVEL:          0  ACCURACY: -nan
PSCL4 TIMELY PREFETCHES:          0 LATE PREFETCHES: 0 DROPPED PREFETCHES: 0
PSCL4 COMMIT LATE PREFETCHES: 0 MISSED OPPORTUNITY: 0 LATE IN PQ: 0 UNCOVERED: 0
PSCL4 COMMIT LATE MSHR PREFETCHES: 0
PSCL4 MPKI TOTAL: 0 MSHR LATE: 0 PQ LATE: 0 COMMIT LATE: 0 MISSED OPPORTUNITY: 0 UNCOVERED: 0
PSCL4 PREFETCHES SAME FILL-ORIGIN LEVEL: 0 DIFFERENT FILL-ORIGIN LEVEL: 0

PSCL3 SPEC fills:          0  NON-SPEC fills:          0
PSCL3 Test counter :          0
PSCL3 Leapfrog:          0
PSCL3 MSHR merge:          0
PSCL3 TOTAL     ACCESS:          0  HIT:          0  MISS:          0  HIT %:       -nan  MISS %:       -nan   MPKI: 0
PSCL3 PREFETCH  REQUESTED:          0  ISSUED:          0  USEFUL:          0  USELESS:          0
PSCL3 USEFUL LOAD PREFETCHES:          0 PREFETCH ISSUED TO LOWER LEVEL:          0  ACCURACY: -nan
PSCL3 TIMELY PREFETCHES:          0 LATE PREFETCHES: 0 DROPPED PREFETCHES: 0
PSCL3 COMMIT LATE PREFETCHES: 0 MISSED OPPORTUNITY: 0 LATE IN PQ: 0 UNCOVERED: 0
PSCL3 COMMIT LATE MSHR PREFETCHES: 0
PSCL3 MPKI TOTAL: 0 MSHR LATE: 0 PQ LATE: 0 COMMIT LATE: 0 MISSED OPPORTUNITY: 0 UNCOVERED: 0
PSCL3 PREFETCHES SAME FILL-ORIGIN LEVEL: 0 DIFFERENT FILL-ORIGIN LEVEL: 0

PSCL2 SPEC fills:          0  NON-SPEC fills:          0
PSCL2 Test counter :          0
PSCL2 Leapfrog:          0
PSCL2 MSHR merge:          0
PSCL2 TOTAL     ACCESS:          0  HIT:          0  MISS:          0  HIT %:       -nan  MISS %:       -nan   MPKI: 0
PSCL2 PREFETCH  REQUESTED:          0  ISSUED:          0  USEFUL:          0  USELESS:          0
PSCL2 USEFUL LOAD PREFETCHES:          0 PREFETCH ISSUED TO LOWER LEVEL:          0  ACCURACY: -nan
PSCL2 TIMELY PREFETCHES:          0 LATE PREFETCHES: 0 DROPPED PREFETCHES: 0
PSCL2 COMMIT LATE PREFETCHES: 0 MISSED OPPORTUNITY: 0 LATE IN PQ: 0 UNCOVERED: 0
PSCL2 COMMIT LATE MSHR PREFETCHES: 0
PSCL2 MPKI TOTAL: 0 MSHR LATE: 0 PQ LATE: 0 COMMIT LATE: 0 MISSED OPPORTUNITY: 0 UNCOVERED: 0
PSCL2 PREFETCHES SAME FILL-ORIGIN LEVEL: 0 DIFFERENT FILL-ORIGIN LEVEL: 0

LLC SPEC fills:          0  NON-SPEC fills:    9742741
LLC Test counter :    2519615
LLC Leapfrog:          0
LLC MSHR merge:          0
LLC TOTAL     ACCESS:   27742290  HIT:   12887386  MISS:   14854904  HIT %:    46.4539  MISS %:    53.5461   MPKI: 74.2745
LLC LOAD      TOTAL       ACCESS:   25079268  HIT:   12806248  MISS:   12273020  HIT %:    51.0631  MISS %:    48.9369   MPKI: 61.3651
LLC LOAD      NON_SPEC    ACCESS:   22543573  HIT:   12800810  MISS:    9742763  HIT %:    56.7825  MISS %:    43.2175   MPKI: 48.7138
LLC LOAD      SPEC        ACCESS:    2535695  HIT:       5438  MISS:    2530257  HIT %:   0.214458  MISS %:    99.7855   MPKI: 12.6513
LLC RFO       NON_SPEC    ACCESS:      65414  HIT:       2075  MISS:      63339  HIT %:     3.1721  MISS %:    96.8279   MPKI: 0.316695
LLC WRITEBACK NON_SPEC    ACCESS:      65938  HIT:      65857  MISS:         81  HIT %:    99.8772  MISS %:   0.122843   MPKI: 0.000405
LLC CLEAN_EVICTION NON_SPEC    ACCESS:    2518022  HIT:       5554  MISS:    2512468  HIT %:    0.22057  MISS %:    99.7794   MPKI: 12.5623
LLC COMMIT LOAD NON_SPEC    ACCESS:        496  HIT:         23  MISS:        473  HIT %:     4.6371  MISS %:    95.3629   MPKI: 0.002365
LLC LOAD TRANSLATION NON_SPEC    ACCESS:      13152  HIT:       7629  MISS:       5523  HIT %:    58.0064  MISS %:    41.9936   MPKI: 0.027615
LLC PREFETCH  REQUESTED:          0  ISSUED:          0  USEFUL:          0  USELESS:          0
LLC USEFUL LOAD PREFETCHES:          0 PREFETCH ISSUED TO LOWER LEVEL:          0  ACCURACY: -nan
LLC TIMELY PREFETCHES:          0 LATE PREFETCHES: 0 DROPPED PREFETCHES: 0
LLC COMMIT LATE PREFETCHES: 0 MISSED OPPORTUNITY: 0 LATE IN PQ: 0 UNCOVERED: 0
LLC COMMIT LATE MSHR PREFETCHES: 0
LLC MPKI TOTAL: 61.3651 MSHR LATE: 0 PQ LATE: 0 COMMIT LATE: 0 MISSED OPPORTUNITY: 0 UNCOVERED: 0
LLC PREFETCHES SAME FILL-ORIGIN LEVEL: 0 DIFFERENT FILL-ORIGIN LEVEL: 0
LLC AVERAGE MISS LATENCY: 132.521 cycles
LLC AVERAGE MISS LATENCY LOAD: 159.222 cycles
LLC AVERAGE MISS LATENCY PREFETCH: -nan cycles
LLC AVERAGE MSHR OCCUPANCY: 0.158653
LLC MSHR FULL: 0
LLC RQ	ACCESS:   25158330	FORWARD:          0	MERGED:          0	TO_CACHE:   25158330
LLC WQ	ACCESS:    2583960	FORWARD:          0	MERGED:          0	TO_CACHE:    2583960

LLC Dense regions hint to LLC: 0

RAW hits: 19
Loads Generated: 77353692
Loads sent to L1D: 77353672
Stores Generated: 3300237
Stores sent to L1D: 3300237
Major fault: 0 Minor fault: 34894
Allocated PAGES: 34894
Total Load insts: 95645034
Total Non-spec loads: 44617668
Percentage of speculative loads: 53.3508

LeapFrogging counter: 0
Commit hits: 4643564 miss: 35351303
Commit hit %: 11.6104 miss %: 88.3896
Commits not translated: 0
Loads retired: 34454189
Stores retired: 3300237
Cache fills: 34454191
L1D response latency: 92.6156 cycles
Load retirement latency: 224.751 cycles
OOO test counter: 0
Discarded buffer inserts: 4643564 hits: 29886 hit %: 0.6436

DRAM Statistics
 CHANNEL 0
 RQ ROW_BUFFER_HIT:    1140318  ROW_BUFFER_MISS:   11202036
 DBUS_CONGESTED:        548
 WQ ROW_BUFFER_HIT:     772655  ROW_BUFFER_MISS:    1812811  FULL:          0

 AVG_CONGESTED_CYCLE: 4
 All warmup complete: 2
Channel 0 Bank busy for read cycles: 0
Channel 0 Bank busy for write cycles: 0
Channel 0
Rank 0
0banks busy for read cycles: 1488391796
0banks busy for write cycles: 1866904
1banks busy for read cycles: 1415953746
1banks busy for write cycles: 369804120
2banks busy for read cycles: 127588571
2banks busy for write cycles: 46210129
3banks busy for read cycles: 18014714
3banks busy for write cycles: 5085146
4banks busy for read cycles: 3055117
4banks busy for write cycles: 996093
5banks busy for read cycles: 4144
5banks busy for write cycles: 447599
6banks busy for read cycles: 10
6banks busy for write cycles: 340108
7banks busy for read cycles: 0
7banks busy for write cycles: 594183
8banks busy for read cycles: 0
8banks busy for write cycles: 5638536

CPU 0 Branch Prediction Accuracy: 96.9587% MPKI: 5.6305 Average ROB Occupancy at Mispredict: 135.777
Branch types
NOT_BRANCH: 162972814 81.4864%
BRANCH_DIRECT_JUMP: 66 3.3e-05%
BRANCH_INDIRECT: 4 2e-06%
BRANCH_CONDITIONAL: 37027011 18.5135%
BRANCH_DIRECT_CALL: 28 1.4e-05%
BRANCH_INDIRECT_CALL: 5 2.5e-06%
BRANCH_RETURN: 33 1.65e-05%
BRANCH_OTHER: 0 0%

DRAM PAGES: 1048576
Allocated PAGES: 34894
