
*** ChampSim Multicore Out-of-Order Simulator ***

Warmup Instructions: 50000000
Simulation Instructions: 200000000
Number of CPUs: 1
LLC sets: 2048
LLC ways: 16
L0D sets: 16
L0D ways: 2
ROB size: 352
LQ size: 128
SQ size: 72
Secure Berti: OFF
Berti: OFF
Berti Fill: OFF
On commit prefetching: OFF
Hit-based filter: ON
Time-guarding: ON
Free-slotting: ON
Leap-frogging: ON
Train prefetcher on L0D bypass: OFF
No translation penalty for prefetchers: OFF
Prefetch to L0D only: OFF
Prefetch to L1D only: OFF
Clean evictions: ON
Commit loads: ON
Commit write: ON
Fill commit loads to L2C, LLC: ON
DRAM IO FREQUENCY: 6400
ROB SIZE: 352
Off-chip DRAM Size: 4096 MB Channels: 1 Width: 64-bit Data Rate: 6400 MT/s
CPU 0 runs /home/sumon/secure_berti/GhostMinion/../../traces/gap/sssp-10.trace.gz
.gz
BTB has LRU replacement policy
ITLB has LRU replacement policy
DTLB has LRU replacement policy
STLB has LRU replacement policy
L1I has LRU replacement policy
L0D has LRU replacement policy
L1D has LRU replacement policy
L2C has LRU replacement policy
LLC has LRU replacement policy
Heartbeat CPU 0 instructions: 10000000 cycles: 3963711 heartbeat IPC: 2.52289 cumulative IPC: 2.52289 (Simulation time: 0 hr 1 min 0 sec) 
Heartbeat CPU 0 instructions: 20000001 cycles: 7805280 heartbeat IPC: 2.6031 cumulative IPC: 2.56237 (Simulation time: 0 hr 1 min 54 sec) 
Heartbeat CPU 0 instructions: 30000003 cycles: 11607340 heartbeat IPC: 2.63015 cumulative IPC: 2.58457 (Simulation time: 0 hr 2 min 30 sec) 
Heartbeat CPU 0 instructions: 40000002 cycles: 15384192 heartbeat IPC: 2.64771 cumulative IPC: 2.60007 (Simulation time: 0 hr 3 min 8 sec) 
Heartbeat CPU 0 instructions: 50000001 cycles: 19144980 heartbeat IPC: 2.65902 cumulative IPC: 2.61165 (Simulation time: 0 hr 3 min 44 sec) 

Warmup complete CPU 0 instructions: 50000001 cycles: 19144980 (Simulation time: 0 hr 3 min 44 sec) 

Heartbeat CPU 0 instructions: 60000000 cycles: 52305673 heartbeat IPC: 0.301562 cumulative IPC: 0.301562 (Simulation time: 0 hr 4 min 38 sec) 
Heartbeat CPU 0 instructions: 70000000 cycles: 84406864 heartbeat IPC: 0.311515 cumulative IPC: 0.306458 (Simulation time: 0 hr 5 min 31 sec) 
Heartbeat CPU 0 instructions: 80000001 cycles: 115968602 heartbeat IPC: 0.316839 cumulative IPC: 0.309842 (Simulation time: 0 hr 6 min 23 sec) 
Heartbeat CPU 0 instructions: 90000000 cycles: 148099816 heartbeat IPC: 0.311224 cumulative IPC: 0.310186 (Simulation time: 0 hr 7 min 17 sec) 
Heartbeat CPU 0 instructions: 100000003 cycles: 178772866 heartbeat IPC: 0.326019 cumulative IPC: 0.313228 (Simulation time: 0 hr 8 min 9 sec) 
Heartbeat CPU 0 instructions: 110000000 cycles: 208850368 heartbeat IPC: 0.332474 cumulative IPC: 0.31628 (Simulation time: 0 hr 9 min 2 sec) 
Heartbeat CPU 0 instructions: 120000003 cycles: 238940113 heartbeat IPC: 0.332339 cumulative IPC: 0.318478 (Simulation time: 0 hr 9 min 57 sec) 
Heartbeat CPU 0 instructions: 130000002 cycles: 268484214 heartbeat IPC: 0.338477 cumulative IPC: 0.320848 (Simulation time: 0 hr 10 min 50 sec) 
Heartbeat CPU 0 instructions: 140000002 cycles: 297844934 heartbeat IPC: 0.340591 cumulative IPC: 0.322928 (Simulation time: 0 hr 11 min 41 sec) 
Heartbeat CPU 0 instructions: 150000000 cycles: 327287722 heartbeat IPC: 0.339642 cumulative IPC: 0.324525 (Simulation time: 0 hr 12 min 31 sec) 
Heartbeat CPU 0 instructions: 160000001 cycles: 356372845 heartbeat IPC: 0.343818 cumulative IPC: 0.326189 (Simulation time: 0 hr 13 min 19 sec) 
Heartbeat CPU 0 instructions: 170000003 cycles: 385636976 heartbeat IPC: 0.341715 cumulative IPC: 0.327429 (Simulation time: 0 hr 14 min 7 sec) 
Heartbeat CPU 0 instructions: 180000001 cycles: 415008516 heartbeat IPC: 0.340466 cumulative IPC: 0.328396 (Simulation time: 0 hr 14 min 52 sec) 
Heartbeat CPU 0 instructions: 190000002 cycles: 443873198 heartbeat IPC: 0.346444 cumulative IPC: 0.329623 (Simulation time: 0 hr 15 min 36 sec) 
Heartbeat CPU 0 instructions: 200000003 cycles: 472171899 heartbeat IPC: 0.353373 cumulative IPC: 0.331106 (Simulation time: 0 hr 16 min 19 sec) 
Heartbeat CPU 0 instructions: 210000003 cycles: 500765921 heartbeat IPC: 0.349723 cumulative IPC: 0.332211 (Simulation time: 0 hr 17 min 2 sec) 
Heartbeat CPU 0 instructions: 220000000 cycles: 529394120 heartbeat IPC: 0.349306 cumulative IPC: 0.333171 (Simulation time: 0 hr 17 min 45 sec) 
Heartbeat CPU 0 instructions: 230000001 cycles: 557620389 heartbeat IPC: 0.35428 cumulative IPC: 0.334277 (Simulation time: 0 hr 18 min 28 sec) 
Heartbeat CPU 0 instructions: 240000001 cycles: 585819953 heartbeat IPC: 0.354615 cumulative IPC: 0.335289 (Simulation time: 0 hr 19 min 10 sec) 
Heartbeat CPU 0 instructions: 250000000 cycles: 614073336 heartbeat IPC: 0.35394 cumulative IPC: 0.336175 (Simulation time: 0 hr 19 min 53 sec) 
Finished CPU 0 instructions: 200000001 cycles: 594928357 cumulative IPC: 0.336175 (Simulation time: 0 hr 19 min 53 sec) 
 Instruction ID: 250000054

ChampSim completed all CPUs

Region of Interest Statistics

CPU 0 cumulative IPC: 0.336175 instructions: 200000001 cycles: 594928357
ITLB SPEC fills:          0  NON-SPEC fills:          0
ITLB Test counter :          0
ITLB Leapfrog:          0
ITLB MSHR merge:          0
ITLB TOTAL     ACCESS:   24690548  HIT:   24690548  MISS:          0  HIT %:        100  MISS %:          0   MPKI: 0
ITLB LOAD TRANSLATION NON_SPEC    ACCESS:   24690548  HIT:   24690548  MISS:          0  HIT %:        100  MISS %:          0   MPKI: 0
ITLB PREFETCH  REQUESTED:          0  ISSUED:          0  USEFUL:          0  USELESS:          0
ITLB USEFUL LOAD PREFETCHES:          0 PREFETCH ISSUED TO LOWER LEVEL:          0  ACCURACY: -nan
ITLB TIMELY PREFETCHES:          0 LATE PREFETCHES: 0 DROPPED PREFETCHES: 0
ITLB COMMIT LATE PREFETCHES: 0 MISSED OPPORTUNITY: 0 LATE IN PQ: 0 UNCOVERED: 0
ITLB COMMIT LATE MSHR PREFETCHES: 0
ITLB MPKI TOTAL: 0 MSHR LATE: 0 PQ LATE: 0 COMMIT LATE: 0 MISSED OPPORTUNITY: 0 UNCOVERED: 0
ITLB PREFETCHES SAME FILL-ORIGIN LEVEL: 0 DIFFERENT FILL-ORIGIN LEVEL: 0
ITLB AVERAGE MISS LATENCY: -nan cycles
ITLB AVERAGE MISS LATENCY LOAD: -nan cycles
ITLB AVERAGE MISS LATENCY PREFETCH: -nan cycles
ITLB AVERAGE MSHR OCCUPANCY: 0
ITLB MSHR FULL: 0
ITLB RQ	ACCESS:   25354672	FORWARD:          0	MERGED:     664124	TO_CACHE:   24690548

DTLB SPEC fills:          0  NON-SPEC fills:          0
DTLB Test counter :          0
DTLB Leapfrog:          0
DTLB MSHR merge:          0
DTLB TOTAL     ACCESS:   48331073  HIT:   43656161  MISS:    4674912  HIT %:    90.3273  MISS %:    9.67268   MPKI: 23.3746
DTLB LOAD TRANSLATION NON_SPEC    ACCESS:   48331073  HIT:   43656161  MISS:    4674912  HIT %:    90.3273  MISS %:    9.67268   MPKI: 23.3746
DTLB PREFETCH  REQUESTED:          0  ISSUED:          0  USEFUL:          0  USELESS:          0
DTLB USEFUL LOAD PREFETCHES:          0 PREFETCH ISSUED TO LOWER LEVEL:          0  ACCURACY: -nan
DTLB TIMELY PREFETCHES:          0 LATE PREFETCHES: 0 DROPPED PREFETCHES: 0
DTLB COMMIT LATE PREFETCHES: 0 MISSED OPPORTUNITY: 0 LATE IN PQ: 0 UNCOVERED: 0
DTLB COMMIT LATE MSHR PREFETCHES: 0
DTLB MPKI TOTAL: 0 MSHR LATE: 0 PQ LATE: 0 COMMIT LATE: 0 MISSED OPPORTUNITY: 0 UNCOVERED: 0
DTLB PREFETCHES SAME FILL-ORIGIN LEVEL: 0 DIFFERENT FILL-ORIGIN LEVEL: 0
DTLB AVERAGE MISS LATENCY: 12.3111 cycles
DTLB AVERAGE MISS LATENCY LOAD: -nan cycles
DTLB AVERAGE MISS LATENCY PREFETCH: -nan cycles
DTLB AVERAGE MSHR OCCUPANCY: 0.2256
DTLB MSHR FULL: 8.65596e-07
DTLB RQ	ACCESS:   53151463	FORWARD:          0	MERGED:    4630000	TO_CACHE:   48521463

STLB SPEC fills:          0  NON-SPEC fills:          0
STLB Test counter :          0
STLB Leapfrog:          0
STLB MSHR merge:          0
STLB TOTAL     ACCESS:    4674912  HIT:    4614371  MISS:      60541  HIT %:     98.705  MISS %:    1.29502   MPKI: 0.302705
STLB LOAD TRANSLATION NON_SPEC    ACCESS:    4674912  HIT:    4614371  MISS:      60541  HIT %:     98.705  MISS %:    1.29502   MPKI: 0.302705
STLB PREFETCH  REQUESTED:          0  ISSUED:          0  USEFUL:          0  USELESS:          0
STLB USEFUL LOAD PREFETCHES:          0 PREFETCH ISSUED TO LOWER LEVEL:          0  ACCURACY: -nan
STLB TIMELY PREFETCHES:          0 LATE PREFETCHES: 0 DROPPED PREFETCHES: 0
STLB COMMIT LATE PREFETCHES: 0 MISSED OPPORTUNITY: 0 LATE IN PQ: 0 UNCOVERED: 0
STLB COMMIT LATE MSHR PREFETCHES: 0
STLB MPKI TOTAL: 0 MSHR LATE: 0 PQ LATE: 0 COMMIT LATE: 0 MISSED OPPORTUNITY: 0 UNCOVERED: 0
STLB PREFETCHES SAME FILL-ORIGIN LEVEL: 0 DIFFERENT FILL-ORIGIN LEVEL: 0
STLB AVERAGE MISS LATENCY: 228.855 cycles
STLB AVERAGE MISS LATENCY LOAD: -nan cycles
STLB AVERAGE MISS LATENCY PREFETCH: -nan cycles
STLB AVERAGE MSHR OCCUPANCY: 0.00787822
STLB MSHR FULL: 0
STLB RQ	ACCESS:    4674912	FORWARD:          0	MERGED:          0	TO_CACHE:    4674912

STLB Hit, L1D data hit: 0
STLB Hit, L2C data hit: 0
STLB Hit, LLC data hit: 0
STLB Hit, LLC data miss: 0
STLB STLB hints to L2: 0
L0D SPEC fills:   24478864  NON-SPEC fills:          0
L0D TimeGuard Request with older TS:    1701486 Restricted eviction:     131264 read:    3357604
L0D Test counter :          0
L0D Leapfrog:          0
L0D MSHR merge:    7447613
L0D TOTAL     ACCESS:   43487081  HIT:   13545258  MISS:   29941823  HIT %:    31.1478  MISS %:    68.8522   MPKI: 149.709
L0D LOAD      TOTAL       ACCESS:   43487081  HIT:   13545258  MISS:   29941823  HIT %:    31.1478  MISS %:    68.8522   MPKI: 149.709
L0D LOAD      NON_SPEC    ACCESS:    5408226  HIT:      76531  MISS:    5331695  HIT %:    1.41509  MISS %:    98.5849   MPKI: 26.6585
L0D LOAD      SPEC        ACCESS:   38078855  HIT:   13468727  MISS:   24610128  HIT %:    35.3706  MISS %:    64.6294   MPKI: 123.051
L0D PREFETCH  REQUESTED:          0  ISSUED:          0  USEFUL:          0  USELESS:          0
L0D USEFUL LOAD PREFETCHES:          0 PREFETCH ISSUED TO LOWER LEVEL:          0  ACCURACY: -nan
L0D TIMELY PREFETCHES:          0 LATE PREFETCHES: 0 DROPPED PREFETCHES: 0
L0D COMMIT LATE PREFETCHES: 0 MISSED OPPORTUNITY: 0 LATE IN PQ: 0 UNCOVERED: 0
L0D COMMIT LATE MSHR PREFETCHES: 0
L0D MPKI TOTAL: 186.947 MSHR LATE: 0 PQ LATE: 0 COMMIT LATE: 0 MISSED OPPORTUNITY: 0 UNCOVERED: 0
L0D PREFETCHES SAME FILL-ORIGIN LEVEL: 0 DIFFERENT FILL-ORIGIN LEVEL: 0
L0D AVERAGE MISS LATENCY: 36.8056 cycles
L0D AVERAGE MISS LATENCY LOAD: 36.8056 cycles
L0D AVERAGE MISS LATENCY PREFETCH: -nan cycles
L0D AVERAGE MSHR OCCUPANCY: 2.47647
L0D MSHR FULL: 0.0826504
L0D RQ	ACCESS:   76740826	FORWARD:          0	MERGED:   25806135	TO_CACHE:   50934691
L0D WQ	ACCESS:    2216772	FORWARD:          0	MERGED:          0	TO_CACHE:    2216772

L1D SPEC fills:          0  NON-SPEC fills:    2161180
L1D Test counter :    6620469
L1D Leapfrog:          0
L1D MSHR merge:       2722
L1D TOTAL     ACCESS:   44640618  HIT:   25475248  MISS:   19165370  HIT %:    57.0674  MISS %:    42.9326   MPKI: 95.8268
L1D LOAD      TOTAL       ACCESS:   29939100  HIT:   19494903  MISS:   10444197  HIT %:    65.1152  MISS %:    34.8848   MPKI: 52.221
L1D LOAD      NON_SPEC    ACCESS:    5331405  HIT:    3170225  MISS:    2161180  HIT %:    59.4632  MISS %:    40.5368   MPKI: 10.8059
L1D LOAD      SPEC        ACCESS:   24607695  HIT:   16324678  MISS:    8283017  HIT %:    66.3397  MISS %:    33.6603   MPKI: 41.4151
L1D RFO       NON_SPEC    ACCESS:    2029049  HIT:    1559909  MISS:     469140  HIT %:    76.8788  MISS %:    23.1212   MPKI: 2.3457
L1D COMMIT LOAD NON_SPEC    ACCESS:    3802200  HIT:    3721072  MISS:      81128  HIT %:    97.8663  MISS %:    2.13371   MPKI: 0.40564
L1D COMMIT WRITE NON_SPEC    ACCESS:    8870269  HIT:     699364  MISS:    8170905  HIT %:    7.88436  MISS %:    92.1156   MPKI: 40.8545
L1D PREFETCH  REQUESTED:          0  ISSUED:          0  USEFUL:          0  USELESS:          0
L1D USEFUL LOAD PREFETCHES:          0 PREFETCH ISSUED TO LOWER LEVEL:          0  ACCURACY: -nan
L1D TIMELY PREFETCHES:          0 LATE PREFETCHES: 0 DROPPED PREFETCHES: 0
L1D COMMIT LATE PREFETCHES: 0 MISSED OPPORTUNITY: 0 LATE IN PQ: 0 UNCOVERED: 0
L1D COMMIT LATE MSHR PREFETCHES: 0
L1D MPKI TOTAL: 52.2346 MSHR LATE: 0 PQ LATE: 0 COMMIT LATE: 0 MISSED OPPORTUNITY: 0 UNCOVERED: 0
L1D PREFETCHES SAME FILL-ORIGIN LEVEL: 0 DIFFERENT FILL-ORIGIN LEVEL: 0
L1D AVERAGE MISS LATENCY: 52.4738 cycles
L1D AVERAGE MISS LATENCY LOAD: 90.6456 cycles
L1D AVERAGE MISS LATENCY PREFETCH: -nan cycles
L1D AVERAGE MSHR OCCUPANCY: 2.42348
L1D MSHR FULL: 0.0705961
L1D RQ	ACCESS:   38645702	FORWARD:          0	MERGED:    4887605	TO_CACHE:   33752937
L1D WQ	ACCESS:   11087043	FORWARD:       5160	MERGED:       1156	TO_CACHE:   11085887

L1D UNIQUE REGIONS ACCESSED: 0
L1D REGIONS CONFLICTS: 0
L1D Cross Page Prefetch Requests: 0
L1D Same Page Prefetch Requests: 0
L1D ROI Sum of L1D PQ occupancy: 0
L1D PREFETCHES PUSHED FROM L2C: 0
L1I SPEC fills:          0  NON-SPEC fills:          0
L1I Test counter :          0
L1I Leapfrog:          0
L1I MSHR merge:          0
L1I TOTAL     ACCESS:   25354672  HIT:   25354672  MISS:          0  HIT %:        100  MISS %:          0   MPKI: 0
L1I LOAD      TOTAL       ACCESS:   25354672  HIT:   25354672  MISS:          0  HIT %:        100  MISS %:          0   MPKI: 0
L1I LOAD      NON_SPEC    ACCESS:   25354672  HIT:   25354672  MISS:          0  HIT %:        100  MISS %:          0   MPKI: 0
L1I PREFETCH  REQUESTED:          0  ISSUED:          0  USEFUL:          0  USELESS:          0
L1I USEFUL LOAD PREFETCHES:          0 PREFETCH ISSUED TO LOWER LEVEL:          0  ACCURACY: -nan
L1I TIMELY PREFETCHES:          0 LATE PREFETCHES: 0 DROPPED PREFETCHES: 0
L1I COMMIT LATE PREFETCHES: 0 MISSED OPPORTUNITY: 0 LATE IN PQ: 0 UNCOVERED: 0
L1I COMMIT LATE MSHR PREFETCHES: 0
L1I MPKI TOTAL: 0 MSHR LATE: 0 PQ LATE: 0 COMMIT LATE: 0 MISSED OPPORTUNITY: 0 UNCOVERED: 0
L1I PREFETCHES SAME FILL-ORIGIN LEVEL: 0 DIFFERENT FILL-ORIGIN LEVEL: 0
L1I AVERAGE MISS LATENCY: -nan cycles
L1I AVERAGE MISS LATENCY LOAD: -nan cycles
L1I AVERAGE MISS LATENCY PREFETCH: -nan cycles
L1I AVERAGE MSHR OCCUPANCY: 0
L1I MSHR FULL: 0
L1I RQ	ACCESS:   39216758	FORWARD:          0	MERGED:   13862086	TO_CACHE:   25354672

BTB SPEC fills:          0  NON-SPEC fills:          0
BTB Test counter :          0
BTB Leapfrog:          0
BTB MSHR merge:          0
BTB TOTAL     ACCESS:   29056031  HIT:   29055886  MISS:        145  HIT %:    99.9995  MISS %: 0.000499036   MPKI: 0.000725
BTB BRANCH_DIRECT_JUMP	ACCESS:    9225403  HIT:    9225362  MISS:         41
BTB BRANCH_INDIRECT	ACCESS:          0  HIT:          0  MISS:          0
BTB BRANCH_CONDITIONAL	ACCESS:   19828000  HIT:   19827919  MISS:         81
BTB BRANCH_DIRECT_CALL	ACCESS:       1314  HIT:       1305  MISS:          9
BTB BRANCH_INDIRECT_CALL	ACCESS:          0  HIT:          0  MISS:          0
BTB BRANCH_RETURN	ACCESS:       1314  HIT:       1300  MISS:         14
BTB BRANCH_OTHER ACCESS:          0  HIT:          0  MISS:          0

L2C SPEC fills:          0  NON-SPEC fills:    1497553
L2C Test counter :    6590758
L2C Leapfrog:          0
L2C MSHR merge:          0
L2C TOTAL     ACCESS:   18761694  HIT:    3767474  MISS:   14994220  HIT %:    20.0807  MISS %:    79.9193   MPKI: 74.9711
L2C LOAD      TOTAL       ACCESS:   10444182  HIT:    2279331  MISS:    8164851  HIT %:    21.8239  MISS %:    78.1761   MPKI: 40.8243
L2C LOAD      NON_SPEC    ACCESS:    2161175  HIT:     663622  MISS:    1497553  HIT %:    30.7065  MISS %:    69.2935   MPKI: 7.48776
L2C LOAD      SPEC        ACCESS:    8283007  HIT:    1615709  MISS:    6667298  HIT %:    19.5063  MISS %:    80.4937   MPKI: 33.3365
L2C RFO       NON_SPEC    ACCESS:     469132  HIT:     305190  MISS:     163942  HIT %:    65.0542  MISS %:    34.9458   MPKI: 0.81971
L2C WRITEBACK NON_SPEC    ACCESS:     844085  HIT:     842871  MISS:       1214  HIT %:    99.8562  MISS %:   0.143824   MPKI: 0.00607
L2C CLEAN_EVICTION NON_SPEC    ACCESS:    6620466  HIT:      61295  MISS:    6559171  HIT %:   0.925841  MISS %:    99.0742   MPKI: 32.7959
L2C COMMIT LOAD NON_SPEC    ACCESS:      81128  HIT:      20853  MISS:      60275  HIT %:    25.7038  MISS %:    74.2962   MPKI: 0.301375
L2C LOAD TRANSLATION NON_SPEC    ACCESS:     302701  HIT:     257934  MISS:      44767  HIT %:    85.2108  MISS %:    14.7892   MPKI: 0.223835
L2C PREFETCH  REQUESTED:          0  ISSUED:          0  USEFUL:          0  USELESS:          0
L2C USEFUL LOAD PREFETCHES:          0 PREFETCH ISSUED TO LOWER LEVEL:          0  ACCURACY: -nan
L2C TIMELY PREFETCHES:          0 LATE PREFETCHES: 0 DROPPED PREFETCHES: 0
L2C COMMIT LATE PREFETCHES: 0 MISSED OPPORTUNITY: 0 LATE IN PQ: 0 UNCOVERED: 0
L2C COMMIT LATE MSHR PREFETCHES: 0
L2C MPKI TOTAL: 40.8243 MSHR LATE: 0 PQ LATE: 0 COMMIT LATE: 0 MISSED OPPORTUNITY: 0 UNCOVERED: 0
L2C PREFETCHES SAME FILL-ORIGIN LEVEL: 0 DIFFERENT FILL-ORIGIN LEVEL: 0
L2C AVERAGE MISS LATENCY: 58.2816 cycles
L2C AVERAGE MISS LATENCY LOAD: 99.9435 cycles
L2C AVERAGE MISS LATENCY PREFETCH: -nan cycles
L2C AVERAGE MSHR OCCUPANCY: 1.61761
L2C MSHR FULL: 0
L2C RQ	ACCESS:   11297167	FORWARD:          0	MERGED:          0	TO_CACHE:   11297144
L2C WQ	ACCESS:    7464554	FORWARD:         23	MERGED:          1	TO_CACHE:    7464553

L2C Instructions Evicting Data 0
L2C Translations Evicting Data 44485
L2C Data Evicting Data 1712662
L2C Instructions Evicting Instructions 0
L2C Translations Evicting Instructions 0
L2C Data Evicting Instructions 0
L2C Instructions Evicting Translations 0
L2C Translations Evicting Translations 282
L2C Data Evicting Translations 9108
L2C Dense regions hint from L2: 0
PSCL5 SPEC fills:          0  NON-SPEC fills:          0
PSCL5 Test counter :          0
PSCL5 Leapfrog:          0
PSCL5 MSHR merge:          0
PSCL5 TOTAL     ACCESS:          0  HIT:          0  MISS:          0  HIT %:       -nan  MISS %:       -nan   MPKI: 0
PSCL5 PREFETCH  REQUESTED:          0  ISSUED:          0  USEFUL:          0  USELESS:          0
PSCL5 USEFUL LOAD PREFETCHES:          0 PREFETCH ISSUED TO LOWER LEVEL:          0  ACCURACY: -nan
PSCL5 TIMELY PREFETCHES:          0 LATE PREFETCHES: 0 DROPPED PREFETCHES: 0
PSCL5 COMMIT LATE PREFETCHES: 0 MISSED OPPORTUNITY: 0 LATE IN PQ: 0 UNCOVERED: 0
PSCL5 COMMIT LATE MSHR PREFETCHES: 0
PSCL5 MPKI TOTAL: 0 MSHR LATE: 0 PQ LATE: 0 COMMIT LATE: 0 MISSED OPPORTUNITY: 0 UNCOVERED: 0
PSCL5 PREFETCHES SAME FILL-ORIGIN LEVEL: 0 DIFFERENT FILL-ORIGIN LEVEL: 0

PSCL4 SPEC fills:          0  NON-SPEC fills:          0
PSCL4 Test counter :          0
PSCL4 Leapfrog:          0
PSCL4 MSHR merge:          0
PSCL4 TOTAL     ACCESS:          0  HIT:          0  MISS:          0  HIT %:       -nan  MISS %:       -nan   MPKI: 0
PSCL4 PREFETCH  REQUESTED:          0  ISSUED:          0  USEFUL:          0  USELESS:          0
PSCL4 USEFUL LOAD PREFETCHES:          0 PREFETCH ISSUED TO LOWER LEVEL:          0  ACCURACY: -nan
PSCL4 TIMELY PREFETCHES:          0 LATE PREFETCHES: 0 DROPPED PREFETCHES: 0
PSCL4 COMMIT LATE PREFETCHES: 0 MISSED OPPORTUNITY: 0 LATE IN PQ: 0 UNCOVERED: 0
PSCL4 COMMIT LATE MSHR PREFETCHES: 0
PSCL4 MPKI TOTAL: 0 MSHR LATE: 0 PQ LATE: 0 COMMIT LATE: 0 MISSED OPPORTUNITY: 0 UNCOVERED: 0
PSCL4 PREFETCHES SAME FILL-ORIGIN LEVEL: 0 DIFFERENT FILL-ORIGIN LEVEL: 0

PSCL3 SPEC fills:          0  NON-SPEC fills:          0
PSCL3 Test counter :          0
PSCL3 Leapfrog:          0
PSCL3 MSHR merge:          0
PSCL3 TOTAL     ACCESS:          0  HIT:          0  MISS:          0  HIT %:       -nan  MISS %:       -nan   MPKI: 0
PSCL3 PREFETCH  REQUESTED:          0  ISSUED:          0  USEFUL:          0  USELESS:          0
PSCL3 USEFUL LOAD PREFETCHES:          0 PREFETCH ISSUED TO LOWER LEVEL:          0  ACCURACY: -nan
PSCL3 TIMELY PREFETCHES:          0 LATE PREFETCHES: 0 DROPPED PREFETCHES: 0
PSCL3 COMMIT LATE PREFETCHES: 0 MISSED OPPORTUNITY: 0 LATE IN PQ: 0 UNCOVERED: 0
PSCL3 COMMIT LATE MSHR PREFETCHES: 0
PSCL3 MPKI TOTAL: 0 MSHR LATE: 0 PQ LATE: 0 COMMIT LATE: 0 MISSED OPPORTUNITY: 0 UNCOVERED: 0
PSCL3 PREFETCHES SAME FILL-ORIGIN LEVEL: 0 DIFFERENT FILL-ORIGIN LEVEL: 0

PSCL2 SPEC fills:          0  NON-SPEC fills:          0
PSCL2 Test counter :          0
PSCL2 Leapfrog:          0
PSCL2 MSHR merge:          0
PSCL2 TOTAL     ACCESS:          0  HIT:          0  MISS:          0  HIT %:       -nan  MISS %:       -nan   MPKI: 0
PSCL2 PREFETCH  REQUESTED:          0  ISSUED:          0  USEFUL:          0  USELESS:          0
PSCL2 USEFUL LOAD PREFETCHES:          0 PREFETCH ISSUED TO LOWER LEVEL:          0  ACCURACY: -nan
PSCL2 TIMELY PREFETCHES:          0 LATE PREFETCHES: 0 DROPPED PREFETCHES: 0
PSCL2 COMMIT LATE PREFETCHES: 0 MISSED OPPORTUNITY: 0 LATE IN PQ: 0 UNCOVERED: 0
PSCL2 COMMIT LATE MSHR PREFETCHES: 0
PSCL2 MPKI TOTAL: 0 MSHR LATE: 0 PQ LATE: 0 COMMIT LATE: 0 MISSED OPPORTUNITY: 0 UNCOVERED: 0
PSCL2 PREFETCHES SAME FILL-ORIGIN LEVEL: 0 DIFFERENT FILL-ORIGIN LEVEL: 0

LLC SPEC fills:          0  NON-SPEC fills:     579504
LLC Test counter :    3782295
LLC Leapfrog:          0
LLC MSHR merge:          0
LLC TOTAL     ACCESS:   15342711  HIT:    7606955  MISS:    7735756  HIT %:    49.5803  MISS %:    50.4197   MPKI: 38.6788
LLC LOAD      TOTAL       ACCESS:    8164792  HIT:    4215077  MISS:    3949715  HIT %:     51.625  MISS %:     48.375   MPKI: 19.7486
LLC LOAD      NON_SPEC    ACCESS:    1497542  HIT:     918038  MISS:     579504  HIT %:     61.303  MISS %:     38.697   MPKI: 2.89752
LLC LOAD      SPEC        ACCESS:    6667250  HIT:    3297039  MISS:    3370211  HIT %:    49.4513  MISS %:    50.5487   MPKI: 16.8511
LLC RFO       NON_SPEC    ACCESS:     163941  HIT:      61948  MISS:     101993  HIT %:    37.7868  MISS %:    62.2132   MPKI: 0.509965
LLC WRITEBACK NON_SPEC    ACCESS:     318194  HIT:     313142  MISS:       5052  HIT %:    98.4123  MISS %:    1.58771   MPKI: 0.02526
LLC CLEAN_EVICTION NON_SPEC    ACCESS:    6590758  HIT:    2971454  MISS:    3619304  HIT %:    45.0852  MISS %:    54.9148   MPKI: 18.0965
LLC COMMIT LOAD NON_SPEC    ACCESS:      60259  HIT:      33689  MISS:      26570  HIT %:     55.907  MISS %:     44.093   MPKI: 0.13285
LLC LOAD TRANSLATION NON_SPEC    ACCESS:      44767  HIT:      11645  MISS:      33122  HIT %:    26.0125  MISS %:    73.9875   MPKI: 0.16561
LLC PREFETCH  REQUESTED:          0  ISSUED:          0  USEFUL:          0  USELESS:          0
LLC USEFUL LOAD PREFETCHES:          0 PREFETCH ISSUED TO LOWER LEVEL:          0  ACCURACY: -nan
LLC TIMELY PREFETCHES:          0 LATE PREFETCHES: 0 DROPPED PREFETCHES: 0
LLC COMMIT LATE PREFETCHES: 0 MISSED OPPORTUNITY: 0 LATE IN PQ: 0 UNCOVERED: 0
LLC COMMIT LATE MSHR PREFETCHES: 0
LLC MPKI TOTAL: 19.7486 MSHR LATE: 0 PQ LATE: 0 COMMIT LATE: 0 MISSED OPPORTUNITY: 0 UNCOVERED: 0
LLC PREFETCHES SAME FILL-ORIGIN LEVEL: 0 DIFFERENT FILL-ORIGIN LEVEL: 0
LLC AVERAGE MISS LATENCY: 87.9142 cycles
LLC AVERAGE MISS LATENCY LOAD: 159.592 cycles
LLC AVERAGE MISS LATENCY PREFETCH: -nan cycles
LLC AVERAGE MSHR OCCUPANCY: 0.944132
LLC MSHR FULL: 0
LLC RQ	ACCESS:    8433836	FORWARD:          0	MERGED:          0	TO_CACHE:    8433760
LLC WQ	ACCESS:    6908952	FORWARD:         76	MERGED:          0	TO_CACHE:    6908952

LLC Dense regions hint to LLC: 0

RAW hits: 64889
Loads Generated: 76805715
Loads sent to L1D: 76740826
Stores Generated: 2216772
Stores sent to L1D: 2216772
Major fault: 0 Minor fault: 37080
Allocated PAGES: 37080
Total Load insts: 93561536
Total Non-spec loads: 6535100
Percentage of speculative loads: 93.0152

LeapFrogging counter: 345453
Commit hits: 22904313 miss: 48357932
Commit hit %: 32.1409 miss %: 67.8591
Commits not translated: 0
Loads retired: 10444197
Stores retired: 2216772
Cache fills: 10444197
L1D response latency: 90.6456 cycles
Load retirement latency: 158.722 cycles
OOO test counter: 0
Discarded buffer inserts: 22904313 hits: 53004 hit %: 0.231415

DRAM Statistics
 CHANNEL 0
 RQ ROW_BUFFER_HIT:     343458  ROW_BUFFER_MISS:    3767098
 DBUS_CONGESTED:       5247
 WQ ROW_BUFFER_HIT:    1782880  ROW_BUFFER_MISS:    2195632  FULL:      18330

 AVG_CONGESTED_CYCLE: 5
 All warmup complete: 2
Channel 0 Bank busy for read cycles: 0
Channel 0 Bank busy for write cycles: 0
Channel 0
Rank 0
0banks busy for read cycles: 4194967
0banks busy for write cycles: 35479
1banks busy for read cycles: 235877453
1banks busy for write cycles: 8671231
2banks busy for read cycles: 100776162
2banks busy for write cycles: 16121324
3banks busy for read cycles: 32313003
3banks busy for write cycles: 23321332
4banks busy for read cycles: 6975413
4banks busy for write cycles: 28870595
5banks busy for read cycles: 1050958
5banks busy for write cycles: 32886604
6banks busy for read cycles: 361819
6banks busy for write cycles: 35637105
7banks busy for read cycles: 441542
7banks busy for write cycles: 36370283
8banks busy for read cycles: 1473091
8banks busy for write cycles: 29549997

CPU 0 Branch Prediction Accuracy: 97.7909% MPKI: 3.2859 Average ROB Occupancy at Mispredict: 166.611
Branch types
NOT_BRANCH: 170250761 85.1254%
BRANCH_DIRECT_JUMP: 9225403 4.6127%
BRANCH_INDIRECT: 0 0%
BRANCH_CONDITIONAL: 20520883 10.2604%
BRANCH_DIRECT_CALL: 1314 0.000657%
BRANCH_INDIRECT_CALL: 0 0%
BRANCH_RETURN: 1314 0.000657%
BRANCH_OTHER: 0 0%

DRAM PAGES: 1048576
Allocated PAGES: 37080
