
*** ChampSim Multicore Out-of-Order Simulator ***

Warmup Instructions: 50000000
Simulation Instructions: 200000000
Number of CPUs: 1
LLC sets: 2048
LLC ways: 16
L0D sets: 16
L0D ways: 2
ROB size: 352
LQ size: 128
SQ size: 72
Secure Berti: OFF
Berti: OFF
Berti Fill: OFF
On commit prefetching: OFF
Hit-based filter: ON
Time-guarding: ON
Free-slotting: ON
Leap-frogging: ON
Train prefetcher on L0D bypass: OFF
No translation penalty for prefetchers: OFF
Prefetch to L0D only: OFF
Prefetch to L1D only: OFF
Clean evictions: ON
Commit loads: ON
Commit write: ON
Fill commit loads to L2C, LLC: ON
DRAM IO FREQUENCY: 6400
ROB SIZE: 352
Off-chip DRAM Size: 4096 MB Channels: 1 Width: 64-bit Data Rate: 6400 MT/s
CPU 0 runs /home/sumon/secure_berti/GhostMinion/../../traces/spec/603.bwaves_s-2609B.champsimtrace.xz
.xz
BTB has LRU replacement policy
ITLB has LRU replacement policy
DTLB has LRU replacement policy
STLB has LRU replacement policy
L1I has LRU replacement policy
L0D has LRU replacement policy
History Sets: 8
History Ways: 16
BERTI Size: 16
BERTI Stride Size: 16
L1D has LRU replacement policy
L2C has LRU replacement policy
LLC has LRU replacement policy
Heartbeat CPU 0 instructions: 10000002 cycles: 3571659 heartbeat IPC: 2.79982 cumulative IPC: 2.79982 (Simulation time: 0 hr 0 min 42 sec) 
Heartbeat CPU 0 instructions: 20000003 cycles: 7140471 heartbeat IPC: 2.80205 cumulative IPC: 2.80094 (Simulation time: 0 hr 1 min 25 sec) 
Heartbeat CPU 0 instructions: 30000001 cycles: 10711997 heartbeat IPC: 2.79992 cumulative IPC: 2.8006 (Simulation time: 0 hr 2 min 8 sec) 
Heartbeat CPU 0 instructions: 40000002 cycles: 14283177 heartbeat IPC: 2.8002 cumulative IPC: 2.8005 (Simulation time: 0 hr 2 min 50 sec) 
Heartbeat CPU 0 instructions: 50000003 cycles: 17853075 heartbeat IPC: 2.8012 cumulative IPC: 2.80064 (Simulation time: 0 hr 3 min 31 sec) 

Warmup complete CPU 0 instructions: 50000003 cycles: 17853075 (Simulation time: 0 hr 3 min 31 sec) 

Heartbeat CPU 0 instructions: 60000000 cycles: 27651715 heartbeat IPC: 1.02055 cumulative IPC: 1.02055 (Simulation time: 0 hr 4 min 17 sec) 
Heartbeat CPU 0 instructions: 70000000 cycles: 37428690 heartbeat IPC: 1.02281 cumulative IPC: 1.02168 (Simulation time: 0 hr 5 min 2 sec) 
Heartbeat CPU 0 instructions: 80000003 cycles: 47211327 heartbeat IPC: 1.02222 cumulative IPC: 1.02186 (Simulation time: 0 hr 5 min 47 sec) 
Heartbeat CPU 0 instructions: 90000003 cycles: 56996960 heartbeat IPC: 1.02191 cumulative IPC: 1.02187 (Simulation time: 0 hr 6 min 32 sec) 
Heartbeat CPU 0 instructions: 100000001 cycles: 66788636 heartbeat IPC: 1.02128 cumulative IPC: 1.02175 (Simulation time: 0 hr 7 min 17 sec) 
Heartbeat CPU 0 instructions: 110000000 cycles: 76582368 heartbeat IPC: 1.02106 cumulative IPC: 1.02164 (Simulation time: 0 hr 8 min 2 sec) 
Heartbeat CPU 0 instructions: 120000000 cycles: 86370210 heartbeat IPC: 1.02168 cumulative IPC: 1.02164 (Simulation time: 0 hr 8 min 46 sec) 
Heartbeat CPU 0 instructions: 130000003 cycles: 96178768 heartbeat IPC: 1.01952 cumulative IPC: 1.02138 (Simulation time: 0 hr 9 min 31 sec) 
Heartbeat CPU 0 instructions: 140000000 cycles: 105960292 heartbeat IPC: 1.02234 cumulative IPC: 1.02148 (Simulation time: 0 hr 10 min 16 sec) 
Heartbeat CPU 0 instructions: 150000002 cycles: 115753557 heartbeat IPC: 1.02111 cumulative IPC: 1.02145 (Simulation time: 0 hr 11 min 1 sec) 
Heartbeat CPU 0 instructions: 160000000 cycles: 125532114 heartbeat IPC: 1.02265 cumulative IPC: 1.02155 (Simulation time: 0 hr 11 min 45 sec) 
Heartbeat CPU 0 instructions: 170000000 cycles: 135315950 heartbeat IPC: 1.02209 cumulative IPC: 1.0216 (Simulation time: 0 hr 12 min 30 sec) 
Heartbeat CPU 0 instructions: 180000001 cycles: 145113804 heartbeat IPC: 1.02063 cumulative IPC: 1.02152 (Simulation time: 0 hr 13 min 13 sec) 
Heartbeat CPU 0 instructions: 190000001 cycles: 154886594 heartbeat IPC: 1.02325 cumulative IPC: 1.02165 (Simulation time: 0 hr 13 min 56 sec) 
Heartbeat CPU 0 instructions: 200000001 cycles: 164670734 heartbeat IPC: 1.02206 cumulative IPC: 1.02168 (Simulation time: 0 hr 14 min 40 sec) 
Heartbeat CPU 0 instructions: 210000003 cycles: 174443231 heartbeat IPC: 1.02328 cumulative IPC: 1.02178 (Simulation time: 0 hr 15 min 23 sec) 
Heartbeat CPU 0 instructions: 220000000 cycles: 184231234 heartbeat IPC: 1.02166 cumulative IPC: 1.02177 (Simulation time: 0 hr 16 min 4 sec) 
Heartbeat CPU 0 instructions: 230000002 cycles: 194012790 heartbeat IPC: 1.02233 cumulative IPC: 1.0218 (Simulation time: 0 hr 16 min 45 sec) 
Heartbeat CPU 0 instructions: 240000000 cycles: 203796314 heartbeat IPC: 1.02213 cumulative IPC: 1.02182 (Simulation time: 0 hr 17 min 24 sec) 
Heartbeat CPU 0 instructions: 250000002 cycles: 213584540 heartbeat IPC: 1.02164 cumulative IPC: 1.02181 (Simulation time: 0 hr 18 min 3 sec) 
Finished CPU 0 instructions: 200000003 cycles: 195731470 cumulative IPC: 1.02181 (Simulation time: 0 hr 18 min 3 sec) 
 Instruction ID: 250000052

ChampSim completed all CPUs

Region of Interest Statistics

CPU 0 cumulative IPC: 1.02181 instructions: 200000003 cycles: 195731470
ITLB SPEC fills:          0  NON-SPEC fills:          0
ITLB Test counter :          0
ITLB Leapfrog:          0
ITLB MSHR merge:          0
ITLB TOTAL     ACCESS:   25339092  HIT:   25339092  MISS:          0  HIT %:        100  MISS %:          0   MPKI: 0
ITLB LOAD TRANSLATION NON_SPEC    ACCESS:   25339092  HIT:   25339092  MISS:          0  HIT %:        100  MISS %:          0   MPKI: 0
ITLB PREFETCH  REQUESTED:          0  ISSUED:          0  USEFUL:          0  USELESS:          0
ITLB USEFUL LOAD PREFETCHES:          0 PREFETCH ISSUED TO LOWER LEVEL:          0  ACCURACY: -nan
ITLB TIMELY PREFETCHES:          0 LATE PREFETCHES: 0 DROPPED PREFETCHES: 0
ITLB COMMIT LATE PREFETCHES: 0 MISSED OPPORTUNITY: 0 LATE IN PQ: 0 UNCOVERED: 0
ITLB COMMIT LATE MSHR PREFETCHES: 0
ITLB MPKI TOTAL: 0 MSHR LATE: 0 PQ LATE: 0 COMMIT LATE: 0 MISSED OPPORTUNITY: 0 UNCOVERED: 0
ITLB PREFETCHES SAME FILL-ORIGIN LEVEL: 0 DIFFERENT FILL-ORIGIN LEVEL: 0
ITLB AVERAGE MISS LATENCY: -nan cycles
ITLB AVERAGE MISS LATENCY LOAD: -nan cycles
ITLB AVERAGE MISS LATENCY PREFETCH: -nan cycles
ITLB AVERAGE MSHR OCCUPANCY: 0
ITLB MSHR FULL: 0
ITLB RQ	ACCESS:   34382801	FORWARD:          0	MERGED:    9043709	TO_CACHE:   25339092

DTLB SPEC fills:          0  NON-SPEC fills:          0
DTLB Test counter :          0
DTLB Leapfrog:          0
DTLB MSHR merge:          0
DTLB TOTAL     ACCESS:   74270316  HIT:   74128616  MISS:     141700  HIT %:    99.8092  MISS %:    0.19079   MPKI: 0.7085
DTLB LOAD TRANSLATION NON_SPEC    ACCESS:   74270316  HIT:   74128616  MISS:     141700  HIT %:    99.8092  MISS %:    0.19079   MPKI: 0.7085
DTLB PREFETCH  REQUESTED:          0  ISSUED:          0  USEFUL:          0  USELESS:          0
DTLB USEFUL LOAD PREFETCHES:          0 PREFETCH ISSUED TO LOWER LEVEL:          0  ACCURACY: -nan
DTLB TIMELY PREFETCHES:          0 LATE PREFETCHES: 0 DROPPED PREFETCHES: 0
DTLB COMMIT LATE PREFETCHES: 0 MISSED OPPORTUNITY: 0 LATE IN PQ: 0 UNCOVERED: 0
DTLB COMMIT LATE MSHR PREFETCHES: 0
DTLB MPKI TOTAL: 0 MSHR LATE: 0 PQ LATE: 0 COMMIT LATE: 0 MISSED OPPORTUNITY: 0 UNCOVERED: 0
DTLB PREFETCHES SAME FILL-ORIGIN LEVEL: 0 DIFFERENT FILL-ORIGIN LEVEL: 0
DTLB AVERAGE MISS LATENCY: 270.419 cycles
DTLB AVERAGE MISS LATENCY LOAD: -nan cycles
DTLB AVERAGE MISS LATENCY PREFETCH: -nan cycles
DTLB AVERAGE MSHR OCCUPANCY: 0.020629
DTLB MSHR FULL: 3.45891e-06
DTLB RQ	ACCESS:   86711809	FORWARD:          0	MERGED:   12410948	TO_CACHE:   74300861

STLB SPEC fills:          0  NON-SPEC fills:          0
STLB Test counter :          0
STLB Leapfrog:          0
STLB MSHR merge:          0
STLB TOTAL     ACCESS:   33396537  HIT:   33337154  MISS:      59383  HIT %:    99.8222  MISS %:   0.177812   MPKI: 0.296915
STLB LOAD TRANSLATION NON_SPEC    ACCESS:     141700  HIT:      85341  MISS:      56359  HIT %:    60.2265  MISS %:    39.7735   MPKI: 0.281795
STLB TRANSLATION FROM L1D PREFETCHER NON_SPEC    ACCESS:   33254837  HIT:   33251813  MISS:       3024  HIT %:    99.9909  MISS %: 0.00909341   MPKI: 0.01512
STLB PREFETCH  REQUESTED:          0  ISSUED:          0  USEFUL:       3024  USELESS:          0
STLB USEFUL LOAD PREFETCHES:       3024 PREFETCH ISSUED TO LOWER LEVEL:          0  ACCURACY: inf
STLB TIMELY PREFETCHES:       3024 LATE PREFETCHES: 15338 DROPPED PREFETCHES: 388851
STLB COMMIT LATE PREFETCHES: 0 MISSED OPPORTUNITY: 0 LATE IN PQ: 0 UNCOVERED: 0
STLB COMMIT LATE MSHR PREFETCHES: 0
STLB MPKI TOTAL: 0 MSHR LATE: 0.07669 PQ LATE: 0 COMMIT LATE: 0 MISSED OPPORTUNITY: 0 UNCOVERED: 0
STLB PREFETCHES SAME FILL-ORIGIN LEVEL: 0 DIFFERENT FILL-ORIGIN LEVEL: 0
STLB AVERAGE MISS LATENCY: 629.086 cycles
STLB AVERAGE MISS LATENCY LOAD: -nan cycles
STLB AVERAGE MISS LATENCY PREFETCH: -nan cycles
STLB AVERAGE MSHR OCCUPANCY: 0.0729054
STLB MSHR FULL: 0
STLB RQ	ACCESS:  100670230	FORWARD:          0	MERGED:   66836957	TO_CACHE:   33833273

STLB Hit, L1D data hit: 0
STLB Hit, L2C data hit: 0
STLB Hit, LLC data hit: 0
STLB Hit, LLC data miss: 0
STLB STLB hints to L2: 0
L0D SPEC fills:   49000912  NON-SPEC fills:          0
L0D TimeGuard Request with older TS:    1547299 Restricted eviction:   12185549 read:     163847
L0D Test counter :          0
L0D Leapfrog:          0
L0D MSHR merge:    2265383
L0D TOTAL     ACCESS:   73179627  HIT:    6319370  MISS:   66860257  HIT %:    8.63542  MISS %:    91.3646   MPKI: 334.301
L0D LOAD      TOTAL       ACCESS:   73179627  HIT:    6319370  MISS:   66860257  HIT %:    8.63542  MISS %:    91.3646   MPKI: 334.301
L0D LOAD      NON_SPEC    ACCESS:    6019665  HIT:     344143  MISS:    5675522  HIT %:    5.71698  MISS %:     94.283   MPKI: 28.3776
L0D LOAD      SPEC        ACCESS:   67159962  HIT:    5975227  MISS:   61184735  HIT %:    8.89701  MISS %:     91.103   MPKI: 305.924
L0D PREFETCH  REQUESTED:          0  ISSUED:          0  USEFUL:          0  USELESS:          0
L0D USEFUL LOAD PREFETCHES:          0 PREFETCH ISSUED TO LOWER LEVEL:          0  ACCURACY: -nan
L0D TIMELY PREFETCHES:          0 LATE PREFETCHES: 0 DROPPED PREFETCHES: 0
L0D COMMIT LATE PREFETCHES: 0 MISSED OPPORTUNITY: 0 LATE IN PQ: 0 UNCOVERED: 0
L0D COMMIT LATE MSHR PREFETCHES: 0
L0D MPKI TOTAL: 345.628 MSHR LATE: 0 PQ LATE: 0 COMMIT LATE: 0 MISSED OPPORTUNITY: 0 UNCOVERED: 0
L0D PREFETCHES SAME FILL-ORIGIN LEVEL: 0 DIFFERENT FILL-ORIGIN LEVEL: 0
L0D AVERAGE MISS LATENCY: 5.60581 cycles
L0D AVERAGE MISS LATENCY LOAD: 5.60581 cycles
L0D AVERAGE MISS LATENCY PREFETCH: -nan cycles
L0D AVERAGE MSHR OCCUPANCY: 1.67892
L0D MSHR FULL: 0.00648142
L0D RQ	ACCESS:   85476013	FORWARD:          0	MERGED:   10031019	TO_CACHE:   75444994
L0D WQ	ACCESS:   11266815	FORWARD:          0	MERGED:          0	TO_CACHE:   11266815

L1D SPEC fills:          0  NON-SPEC fills:       1044
L1D Test counter :          0
L1D Leapfrog:          0
L1D MSHR merge:      92878
L1D TOTAL     ACCESS:  174317335  HIT:  170103802  MISS:    4213533  HIT %:    97.5828  MISS %:    2.41716   MPKI: 21.0677
L1D LOAD      TOTAL       ACCESS:   66834280  HIT:   66620069  MISS:     214211  HIT %:    99.6795  MISS %:   0.320511   MPKI: 1.07105
L1D LOAD      NON_SPEC    ACCESS:    5675242  HIT:    5674198  MISS:       1044  HIT %:    99.9816  MISS %:  0.0183957   MPKI: 0.00522
L1D LOAD      SPEC        ACCESS:   61159038  HIT:   60945871  MISS:     213167  HIT %:    99.6515  MISS %:   0.348545   MPKI: 1.06583
L1D RFO       NON_SPEC    ACCESS:   11181167  HIT:   11083719  MISS:      97448  HIT %:    99.1285  MISS %:   0.871537   MPKI: 0.48724
L1D PREFETCH  NON_SPEC    ACCESS:   96007623  HIT:   92313259  MISS:    3694364  HIT %:     96.152  MISS %:    3.84799   MPKI: 18.4718
L1D COMMIT LOAD NON_SPEC    ACCESS:     118500  HIT:      63652  MISS:      54848  HIT %:    53.7148  MISS %:    46.2852   MPKI: 0.27424
L1D COMMIT WRITE NON_SPEC    ACCESS:     175765  HIT:      23103  MISS:     152662  HIT %:    13.1443  MISS %:    86.8557   MPKI: 0.76331
L1D PREFETCH  REQUESTED:  251503390  ISSUED:  102103371  USEFUL:    3693571  USELESS:        825
L1D USEFUL LOAD PREFETCHES:    3693571 PREFETCH ISSUED TO LOWER LEVEL:    5308271  ACCURACY: 69.5814
L1D TIMELY PREFETCHES:    3693571 LATE PREFETCHES: 68675 DROPPED PREFETCHES: 1017375
L1D COMMIT LATE PREFETCHES: 0 MISSED OPPORTUNITY: 0 LATE IN PQ: 0 UNCOVERED: 0
L1D COMMIT LATE MSHR PREFETCHES: 0
L1D MPKI TOTAL: 1.20093 MSHR LATE: 0.343375 PQ LATE: 0 COMMIT LATE: 0 MISSED OPPORTUNITY: 0 UNCOVERED: 0
L1D PREFETCHES SAME FILL-ORIGIN LEVEL: 3764003 DIFFERENT FILL-ORIGIN LEVEL: 1544268
L1D AVERAGE MISS LATENCY: 141.877 cycles
L1D AVERAGE MISS LATENCY LOAD: 130.307 cycles
L1D AVERAGE MISS LATENCY PREFETCH: 146.44 cycles
L1D AVERAGE MSHR OCCUPANCY: 2.98531
L1D MSHR FULL: 0.00626091
L1D RQ	ACCESS:   66994156	FORWARD:          0	MERGED:       1944	TO_CACHE:   66992212
L1D WQ	ACCESS:   11442579	FORWARD:          0	MERGED:        174	TO_CACHE:   11442405
L1D PQ	ACCESS:  102103371	FORWARD:          0	MERGED:    1574841	TO_CACHE:  100528530

L1D UNIQUE REGIONS ACCESSED: 0
L1D REGIONS CONFLICTS: 0
L1D Cross Page Prefetch Requests: 3141359
L1D Same Page Prefetch Requests: 118829569
L1D ROI Sum of L1D PQ occupancy: 1882720052
L1D PREFETCHES PUSHED FROM L2C: 0
L1I SPEC fills:          0  NON-SPEC fills:          0
L1I Test counter :          0
L1I Leapfrog:          0
L1I MSHR merge:          0
L1I TOTAL     ACCESS:   34382800  HIT:   34382800  MISS:          0  HIT %:        100  MISS %:          0   MPKI: 0
L1I LOAD      TOTAL       ACCESS:   34382800  HIT:   34382800  MISS:          0  HIT %:        100  MISS %:          0   MPKI: 0
L1I LOAD      NON_SPEC    ACCESS:   34382800  HIT:   34382800  MISS:          0  HIT %:        100  MISS %:          0   MPKI: 0
L1I PREFETCH  REQUESTED:          0  ISSUED:          0  USEFUL:          0  USELESS:          0
L1I USEFUL LOAD PREFETCHES:          0 PREFETCH ISSUED TO LOWER LEVEL:          0  ACCURACY: -nan
L1I TIMELY PREFETCHES:          0 LATE PREFETCHES: 0 DROPPED PREFETCHES: 0
L1I COMMIT LATE PREFETCHES: 0 MISSED OPPORTUNITY: 0 LATE IN PQ: 0 UNCOVERED: 0
L1I COMMIT LATE MSHR PREFETCHES: 0
L1I MPKI TOTAL: 0 MSHR LATE: 0 PQ LATE: 0 COMMIT LATE: 0 MISSED OPPORTUNITY: 0 UNCOVERED: 0
L1I PREFETCHES SAME FILL-ORIGIN LEVEL: 0 DIFFERENT FILL-ORIGIN LEVEL: 0
L1I AVERAGE MISS LATENCY: -nan cycles
L1I AVERAGE MISS LATENCY LOAD: -nan cycles
L1I AVERAGE MISS LATENCY PREFETCH: -nan cycles
L1I AVERAGE MSHR OCCUPANCY: 0
L1I MSHR FULL: 0
L1I RQ	ACCESS:   45809009	FORWARD:          0	MERGED:   11426208	TO_CACHE:   34382801

BTB SPEC fills:          0  NON-SPEC fills:          0
BTB Test counter :          0
BTB Leapfrog:          0
BTB MSHR merge:          0
BTB TOTAL     ACCESS:    4834901  HIT:    4834896  MISS:          5  HIT %:    99.9999  MISS %: 0.000103415   MPKI: 2.5e-05
BTB BRANCH_DIRECT_JUMP	ACCESS:          0  HIT:          0  MISS:          0
BTB BRANCH_INDIRECT	ACCESS:          0  HIT:          0  MISS:          0
BTB BRANCH_CONDITIONAL	ACCESS:    4834901  HIT:    4834896  MISS:          5
BTB BRANCH_DIRECT_CALL	ACCESS:          0  HIT:          0  MISS:          0
BTB BRANCH_INDIRECT_CALL	ACCESS:          0  HIT:          0  MISS:          0
BTB BRANCH_RETURN	ACCESS:          0  HIT:          0  MISS:          0
BTB BRANCH_OTHER ACCESS:          0  HIT:          0  MISS:          0

L2C SPEC fills:          0  NON-SPEC fills:        691
L2C Test counter :          0
L2C Leapfrog:          0
L2C MSHR merge:       1570
L2C TOTAL     ACCESS:    7924014  HIT:    3996446  MISS:    3927568  HIT %:    50.4346  MISS %:    49.5654   MPKI: 19.6378
L2C LOAD      TOTAL       ACCESS:     147307  HIT:      27566  MISS:     119741  HIT %:    18.7133  MISS %:    81.2867   MPKI: 0.598705
L2C LOAD      NON_SPEC    ACCESS:        833  HIT:        142  MISS:        691  HIT %:    17.0468  MISS %:    82.9532   MPKI: 0.003455
L2C LOAD      SPEC        ACCESS:     146474  HIT:      27424  MISS:     119050  HIT %:    18.7228  MISS %:    81.2772   MPKI: 0.59525
L2C RFO       NON_SPEC    ACCESS:      97448  HIT:          0  MISS:      97448  HIT %:          0  MISS %:        100   MPKI: 0.48724
L2C PREFETCH  NON_SPEC    ACCESS:    5055592  HIT:    1467398  MISS:    3588194  HIT %:    29.0252  MISS %:    70.9748   MPKI: 17.941
L2C WRITEBACK NON_SPEC    ACCESS:      97465  HIT:      97465  MISS:          0  HIT %:        100  MISS %:          0   MPKI: 0
L2C CLEAN_EVICTION NON_SPEC    ACCESS:     156215  HIT:      80326  MISS:      75889  HIT %:    51.4202  MISS %:    48.5798   MPKI: 0.379445
L2C COMMIT LOAD NON_SPEC    ACCESS:      53075  HIT:      14216  MISS:      38859  HIT %:    26.7847  MISS %:    73.2153   MPKI: 0.194295
L2C LOAD TRANSLATION NON_SPEC    ACCESS:     281684  HIT:     281356  MISS:        328  HIT %:    99.8836  MISS %:   0.116443   MPKI: 0.00164
L2C TRANSLATION FROM L1D PREFETCHER NON_SPEC    ACCESS:    2035228  HIT:    2028119  MISS:       7109  HIT %:    99.6507  MISS %:   0.349297   MPKI: 0.035545
L2C PREFETCH  REQUESTED:          0  ISSUED:          0  USEFUL:      39126  USELESS:    3556312
L2C USEFUL LOAD PREFETCHES:      39126 PREFETCH ISSUED TO LOWER LEVEL:    3589979  ACCURACY: 1.08987
L2C TIMELY PREFETCHES:      39126 LATE PREFETCHES: 1785 DROPPED PREFETCHES: 0
L2C COMMIT LATE PREFETCHES: 0 MISSED OPPORTUNITY: 0 LATE IN PQ: 0 UNCOVERED: 0
L2C COMMIT LATE MSHR PREFETCHES: 0
L2C MPKI TOTAL: 0.598705 MSHR LATE: 0.008925 PQ LATE: 0 COMMIT LATE: 0 MISSED OPPORTUNITY: 0 UNCOVERED: 0
L2C PREFETCHES SAME FILL-ORIGIN LEVEL: 641157 DIFFERENT FILL-ORIGIN LEVEL: 0
L2C AVERAGE MISS LATENCY: 163.352 cycles
L2C AVERAGE MISS LATENCY LOAD: 141.166 cycles
L2C AVERAGE MISS LATENCY PREFETCH: 166.216 cycles
L2C AVERAGE MSHR OCCUPANCY: 2.02585
L2C MSHR FULL: 0.000480913
L2C RQ	ACCESS:    2614745	FORWARD:          0	MERGED:          0	TO_CACHE:    2614743
L2C WQ	ACCESS:     253680	FORWARD:          2	MERGED:          0	TO_CACHE:     253680
L2C PQ	ACCESS:    5303133	FORWARD:          0	MERGED:        166	TO_CACHE:    5302967

L2C Instructions Evicting Data 0
L2C Translations Evicting Data 7434
L2C Data Evicting Data 3717893
L2C Instructions Evicting Instructions 0
L2C Translations Evicting Instructions 0
L2C Data Evicting Instructions 0
L2C Instructions Evicting Translations 0
L2C Translations Evicting Translations 3
L2C Data Evicting Translations 7299
L2C Dense regions hint from L2: 0
PSCL5 SPEC fills:          0  NON-SPEC fills:          0
PSCL5 Test counter :          0
PSCL5 Leapfrog:          0
PSCL5 MSHR merge:          0
PSCL5 TOTAL     ACCESS:          0  HIT:          0  MISS:          0  HIT %:       -nan  MISS %:       -nan   MPKI: 0
PSCL5 PREFETCH  REQUESTED:          0  ISSUED:          0  USEFUL:          0  USELESS:          0
PSCL5 USEFUL LOAD PREFETCHES:          0 PREFETCH ISSUED TO LOWER LEVEL:          0  ACCURACY: -nan
PSCL5 TIMELY PREFETCHES:          0 LATE PREFETCHES: 0 DROPPED PREFETCHES: 0
PSCL5 COMMIT LATE PREFETCHES: 0 MISSED OPPORTUNITY: 0 LATE IN PQ: 0 UNCOVERED: 0
PSCL5 COMMIT LATE MSHR PREFETCHES: 0
PSCL5 MPKI TOTAL: 0 MSHR LATE: 0 PQ LATE: 0 COMMIT LATE: 0 MISSED OPPORTUNITY: 0 UNCOVERED: 0
PSCL5 PREFETCHES SAME FILL-ORIGIN LEVEL: 0 DIFFERENT FILL-ORIGIN LEVEL: 0

PSCL4 SPEC fills:          0  NON-SPEC fills:          0
PSCL4 Test counter :          0
PSCL4 Leapfrog:          0
PSCL4 MSHR merge:          0
PSCL4 TOTAL     ACCESS:          0  HIT:          0  MISS:          0  HIT %:       -nan  MISS %:       -nan   MPKI: 0
PSCL4 PREFETCH  REQUESTED:          0  ISSUED:          0  USEFUL:          0  USELESS:          0
PSCL4 USEFUL LOAD PREFETCHES:          0 PREFETCH ISSUED TO LOWER LEVEL:          0  ACCURACY: -nan
PSCL4 TIMELY PREFETCHES:          0 LATE PREFETCHES: 0 DROPPED PREFETCHES: 0
PSCL4 COMMIT LATE PREFETCHES: 0 MISSED OPPORTUNITY: 0 LATE IN PQ: 0 UNCOVERED: 0
PSCL4 COMMIT LATE MSHR PREFETCHES: 0
PSCL4 MPKI TOTAL: 0 MSHR LATE: 0 PQ LATE: 0 COMMIT LATE: 0 MISSED OPPORTUNITY: 0 UNCOVERED: 0
PSCL4 PREFETCHES SAME FILL-ORIGIN LEVEL: 0 DIFFERENT FILL-ORIGIN LEVEL: 0

PSCL3 SPEC fills:          0  NON-SPEC fills:          0
PSCL3 Test counter :          0
PSCL3 Leapfrog:          0
PSCL3 MSHR merge:          0
PSCL3 TOTAL     ACCESS:          0  HIT:          0  MISS:          0  HIT %:       -nan  MISS %:       -nan   MPKI: 0
PSCL3 PREFETCH  REQUESTED:          0  ISSUED:          0  USEFUL:          0  USELESS:          0
PSCL3 USEFUL LOAD PREFETCHES:          0 PREFETCH ISSUED TO LOWER LEVEL:          0  ACCURACY: -nan
PSCL3 TIMELY PREFETCHES:          0 LATE PREFETCHES: 0 DROPPED PREFETCHES: 0
PSCL3 COMMIT LATE PREFETCHES: 0 MISSED OPPORTUNITY: 0 LATE IN PQ: 0 UNCOVERED: 0
PSCL3 COMMIT LATE MSHR PREFETCHES: 0
PSCL3 MPKI TOTAL: 0 MSHR LATE: 0 PQ LATE: 0 COMMIT LATE: 0 MISSED OPPORTUNITY: 0 UNCOVERED: 0
PSCL3 PREFETCHES SAME FILL-ORIGIN LEVEL: 0 DIFFERENT FILL-ORIGIN LEVEL: 0

PSCL2 SPEC fills:          0  NON-SPEC fills:          0
PSCL2 Test counter :          0
PSCL2 Leapfrog:          0
PSCL2 MSHR merge:          0
PSCL2 TOTAL     ACCESS:          0  HIT:          0  MISS:          0  HIT %:       -nan  MISS %:       -nan   MPKI: 0
PSCL2 PREFETCH  REQUESTED:          0  ISSUED:          0  USEFUL:          0  USELESS:          0
PSCL2 USEFUL LOAD PREFETCHES:          0 PREFETCH ISSUED TO LOWER LEVEL:          0  ACCURACY: -nan
PSCL2 TIMELY PREFETCHES:          0 LATE PREFETCHES: 0 DROPPED PREFETCHES: 0
PSCL2 COMMIT LATE PREFETCHES: 0 MISSED OPPORTUNITY: 0 LATE IN PQ: 0 UNCOVERED: 0
PSCL2 COMMIT LATE MSHR PREFETCHES: 0
PSCL2 MPKI TOTAL: 0 MSHR LATE: 0 PQ LATE: 0 COMMIT LATE: 0 MISSED OPPORTUNITY: 0 UNCOVERED: 0
PSCL2 PREFETCHES SAME FILL-ORIGIN LEVEL: 0 DIFFERENT FILL-ORIGIN LEVEL: 0

LLC SPEC fills:          0  NON-SPEC fills:        688
LLC Test counter :          0
LLC Leapfrog:          0
LLC MSHR merge:          0
LLC TOTAL     ACCESS:    4103460  HIT:     178553  MISS:    3924907  HIT %:    4.35128  MISS %:    95.6487   MPKI: 19.6245
LLC LOAD      TOTAL       ACCESS:     118171  HIT:        423  MISS:     117748  HIT %:   0.357956  MISS %:     99.642   MPKI: 0.58874
LLC LOAD      NON_SPEC    ACCESS:        688  HIT:          0  MISS:        688  HIT %:          0  MISS %:        100   MPKI: 0.00344
LLC LOAD      SPEC        ACCESS:     117483  HIT:        423  MISS:     117060  HIT %:   0.360052  MISS %:    99.6399   MPKI: 0.5853
LLC RFO       NON_SPEC    ACCESS:      97448  HIT:          0  MISS:      97448  HIT %:          0  MISS %:        100   MPKI: 0.48724
LLC PREFETCH  NON_SPEC    ACCESS:    3589979  HIT:         54  MISS:    3589925  HIT %: 0.00150419  MISS %:    99.9985   MPKI: 17.9496
LLC WRITEBACK NON_SPEC    ACCESS:      97485  HIT:      97485  MISS:          0  HIT %:        100  MISS %:          0   MPKI: 0
LLC CLEAN_EVICTION NON_SPEC    ACCESS:     154296  HIT:      80132  MISS:      74164  HIT %:    51.9339  MISS %:    48.0661   MPKI: 0.37082
LLC COMMIT LOAD NON_SPEC    ACCESS:      38644  HIT:        459  MISS:      38185  HIT %:    1.18777  MISS %:    98.8122   MPKI: 0.190925
LLC LOAD TRANSLATION NON_SPEC    ACCESS:        328  HIT:          0  MISS:        328  HIT %:          0  MISS %:        100   MPKI: 0.00164
LLC TRANSLATION FROM L1D PREFETCHER NON_SPEC    ACCESS:       7109  HIT:          0  MISS:       7109  HIT %:          0  MISS %:        100   MPKI: 0.035545
LLC PREFETCH  REQUESTED:          0  ISSUED:          0  USEFUL:        471  USELESS:    3597030
LLC USEFUL LOAD PREFETCHES:        471 PREFETCH ISSUED TO LOWER LEVEL:    3589925  ACCURACY: 0.0131201
LLC TIMELY PREFETCHES:        471 LATE PREFETCHES: 0 DROPPED PREFETCHES: 0
LLC COMMIT LATE PREFETCHES: 0 MISSED OPPORTUNITY: 0 LATE IN PQ: 0 UNCOVERED: 0
LLC COMMIT LATE MSHR PREFETCHES: 0
LLC MPKI TOTAL: 0.58874 MSHR LATE: 0 PQ LATE: 0 COMMIT LATE: 0 MISSED OPPORTUNITY: 0 UNCOVERED: 0
LLC PREFETCHES SAME FILL-ORIGIN LEVEL: 0 DIFFERENT FILL-ORIGIN LEVEL: 0
LLC AVERAGE MISS LATENCY: 132.977 cycles
LLC AVERAGE MISS LATENCY LOAD: 96.9825 cycles
LLC AVERAGE MISS LATENCY PREFETCH: 135.55 cycles
LLC AVERAGE MSHR OCCUPANCY: 3.30956
LLC MSHR FULL: 0
LLC RQ	ACCESS:     261700	FORWARD:          0	MERGED:          0	TO_CACHE:     261700
LLC WQ	ACCESS:     251781	FORWARD:          0	MERGED:          0	TO_CACHE:     251781
LLC PQ	ACCESS:    3589979	FORWARD:          0	MERGED:          0	TO_CACHE:    3589979

LLC Dense regions hint to LLC: 0

RAW hits: 484178
Loads Generated: 85960192
Loads sent to L1D: 85476013
Stores Generated: 11266823
Stores sent to L1D: 11266815
Major fault: 0 Minor fault: 70872
Allocated PAGES: 70872
Total Load insts: 106186809
Total Non-spec loads: 6488880
Percentage of speculative loads: 93.8892

LeapFrogging counter: 371799
Commit hits: 47719627 miss: 31665508
Commit hit %: 60.1115 miss %: 39.8885
Commits not translated: 0
Loads retired: 214211
Stores retired: 11266815
Cache fills: 214211
L1D response latency: 130.307 cycles
Load retirement latency: 539.587 cycles
OOO test counter: 0
Discarded buffer inserts: 47719627 hits: 23 hit %: 4.81982e-05
Filter prediction accuracy: 99.9995
LATENCY_FILL: 130.93 239689

DRAM Statistics
 CHANNEL 0
 RQ ROW_BUFFER_HIT:    2460046  ROW_BUFFER_MISS:    1390697
 DBUS_CONGESTED:       9165
 WQ ROW_BUFFER_HIT:      48148  ROW_BUFFER_MISS:     202159  FULL:          0

 AVG_CONGESTED_CYCLE: 4
 All warmup complete: 2
Channel 0 Bank busy for read cycles: 0
Channel 0 Bank busy for write cycles: 0
Channel 0
Rank 0
0banks busy for read cycles: 47171524
0banks busy for write cycles: 85351
1banks busy for read cycles: 39442080
1banks busy for write cycles: 12506597
2banks busy for read cycles: 29501942
2banks busy for write cycles: 5851825
3banks busy for read cycles: 21131738
3banks busy for write cycles: 3269186
4banks busy for read cycles: 14075842
4banks busy for write cycles: 1535000
5banks busy for read cycles: 8771598
5banks busy for write cycles: 792741
6banks busy for read cycles: 5451636
6banks busy for write cycles: 488372
7banks busy for read cycles: 3093493
7banks busy for write cycles: 327848
8banks busy for read cycles: 1917536
8banks busy for write cycles: 317162

CPU 0 Branch Prediction Accuracy: 99.9706% MPKI: 0.00733 Average ROB Occupancy at Mispredict: 30.1944
Branch types
NOT_BRANCH: 195007396 97.5037%
BRANCH_DIRECT_JUMP: 0 0%
BRANCH_INDIRECT: 0 0%
BRANCH_CONDITIONAL: 4992275 2.49614%
BRANCH_DIRECT_CALL: 0 0%
BRANCH_INDIRECT_CALL: 0 0%
BRANCH_RETURN: 0 0%
BRANCH_OTHER: 0 0%

DRAM PAGES: 1048576
Allocated PAGES: 70872
