
*** ChampSim Multicore Out-of-Order Simulator ***

Warmup Instructions: 50000000
Simulation Instructions: 200000000
Number of CPUs: 1
LLC sets: 2048
LLC ways: 16
L0D sets: 16
L0D ways: 2
ROB size: 352
LQ size: 128
SQ size: 72
Secure Berti: OFF
Berti: OFF
Berti Fill: OFF
On commit prefetching: OFF
Hit-based filter: ON
Time-guarding: ON
Free-slotting: ON
Leap-frogging: ON
Train prefetcher on L0D bypass: OFF
No translation penalty for prefetchers: OFF
Prefetch to L0D only: OFF
Prefetch to L1D only: OFF
Clean evictions: ON
Commit loads: ON
Commit write: ON
Fill commit loads to L2C, LLC: ON
DRAM IO FREQUENCY: 6400
ROB SIZE: 352
Off-chip DRAM Size: 4096 MB Channels: 1 Width: 64-bit Data Rate: 6400 MT/s
CPU 0 runs /home/sumon/secure_berti/GhostMinion/../../traces/spec/605.mcf_s-1536B.champsimtrace.xz
.xz
BTB has LRU replacement policy
ITLB has LRU replacement policy
DTLB has LRU replacement policy
STLB has LRU replacement policy
L1I has LRU replacement policy
L0D has LRU replacement policy
History Sets: 8
History Ways: 16
BERTI Size: 16
BERTI Stride Size: 16
L1D has LRU replacement policy
L2C has LRU replacement policy
LLC has LRU replacement policy
Heartbeat CPU 0 instructions: 10000003 cycles: 4495358 heartbeat IPC: 2.22452 cumulative IPC: 2.22452 (Simulation time: 0 hr 0 min 34 sec) 
Heartbeat CPU 0 instructions: 20000003 cycles: 8967202 heartbeat IPC: 2.23621 cumulative IPC: 2.23035 (Simulation time: 0 hr 1 min 9 sec) 
Heartbeat CPU 0 instructions: 30000001 cycles: 13473450 heartbeat IPC: 2.21914 cumulative IPC: 2.2266 (Simulation time: 0 hr 1 min 43 sec) 
Heartbeat CPU 0 instructions: 40000002 cycles: 18001487 heartbeat IPC: 2.20846 cumulative IPC: 2.22204 (Simulation time: 0 hr 2 min 19 sec) 
Heartbeat CPU 0 instructions: 50000003 cycles: 22566556 heartbeat IPC: 2.19055 cumulative IPC: 2.21567 (Simulation time: 0 hr 2 min 57 sec) 

Warmup complete CPU 0 instructions: 50000003 cycles: 22566556 (Simulation time: 0 hr 2 min 57 sec) 

Heartbeat CPU 0 instructions: 60000003 cycles: 75325350 heartbeat IPC: 0.189542 cumulative IPC: 0.189542 (Simulation time: 0 hr 4 min 14 sec) 
Heartbeat CPU 0 instructions: 70000003 cycles: 128295043 heartbeat IPC: 0.188787 cumulative IPC: 0.189164 (Simulation time: 0 hr 5 min 33 sec) 
Heartbeat CPU 0 instructions: 80000001 cycles: 180989790 heartbeat IPC: 0.189772 cumulative IPC: 0.189366 (Simulation time: 0 hr 6 min 55 sec) 
Heartbeat CPU 0 instructions: 90000000 cycles: 233997547 heartbeat IPC: 0.188652 cumulative IPC: 0.189187 (Simulation time: 0 hr 8 min 19 sec) 
Heartbeat CPU 0 instructions: 100000002 cycles: 286809464 heartbeat IPC: 0.189351 cumulative IPC: 0.18922 (Simulation time: 0 hr 9 min 43 sec) 
Heartbeat CPU 0 instructions: 110000000 cycles: 339674339 heartbeat IPC: 0.189161 cumulative IPC: 0.18921 (Simulation time: 0 hr 11 min 7 sec) 
Heartbeat CPU 0 instructions: 120000000 cycles: 392844867 heartbeat IPC: 0.188074 cumulative IPC: 0.189047 (Simulation time: 0 hr 12 min 32 sec) 
Heartbeat CPU 0 instructions: 130000003 cycles: 445855109 heartbeat IPC: 0.188643 cumulative IPC: 0.188996 (Simulation time: 0 hr 13 min 56 sec) 
Heartbeat CPU 0 instructions: 140000003 cycles: 499038684 heartbeat IPC: 0.188028 cumulative IPC: 0.188888 (Simulation time: 0 hr 15 min 15 sec) 
Heartbeat CPU 0 instructions: 150000001 cycles: 551908636 heartbeat IPC: 0.189143 cumulative IPC: 0.188914 (Simulation time: 0 hr 16 min 28 sec) 
Heartbeat CPU 0 instructions: 160000000 cycles: 604670011 heartbeat IPC: 0.189533 cumulative IPC: 0.18897 (Simulation time: 0 hr 17 min 33 sec) 
Heartbeat CPU 0 instructions: 170000002 cycles: 657390258 heartbeat IPC: 0.18968 cumulative IPC: 0.189029 (Simulation time: 0 hr 18 min 36 sec) 
Heartbeat CPU 0 instructions: 180000001 cycles: 709714771 heartbeat IPC: 0.191115 cumulative IPC: 0.189188 (Simulation time: 0 hr 19 min 38 sec) 
Heartbeat CPU 0 instructions: 190000000 cycles: 762014888 heartbeat IPC: 0.191204 cumulative IPC: 0.18933 (Simulation time: 0 hr 20 min 42 sec) 
Heartbeat CPU 0 instructions: 200000003 cycles: 814388170 heartbeat IPC: 0.190937 cumulative IPC: 0.189437 (Simulation time: 0 hr 21 min 46 sec) 
Heartbeat CPU 0 instructions: 210000000 cycles: 866834388 heartbeat IPC: 0.190671 cumulative IPC: 0.189513 (Simulation time: 0 hr 22 min 49 sec) 
Heartbeat CPU 0 instructions: 220000000 cycles: 919411034 heartbeat IPC: 0.190199 cumulative IPC: 0.189553 (Simulation time: 0 hr 23 min 50 sec) 
Heartbeat CPU 0 instructions: 230000000 cycles: 972687659 heartbeat IPC: 0.1877 cumulative IPC: 0.18945 (Simulation time: 0 hr 24 min 51 sec) 
Heartbeat CPU 0 instructions: 240000002 cycles: 1026229750 heartbeat IPC: 0.186769 cumulative IPC: 0.189307 (Simulation time: 0 hr 25 min 51 sec) 
Heartbeat CPU 0 instructions: 250000001 cycles: 1080088812 heartbeat IPC: 0.18567 cumulative IPC: 0.189121 (Simulation time: 0 hr 26 min 52 sec) 
Finished CPU 0 instructions: 200000002 cycles: 1057522257 cumulative IPC: 0.189121 (Simulation time: 0 hr 26 min 52 sec) 
 Instruction ID: 250000381

ChampSim completed all CPUs

Region of Interest Statistics

CPU 0 cumulative IPC: 0.189121 instructions: 200000002 cycles: 1057522257
ITLB SPEC fills:          0  NON-SPEC fills:          0
ITLB Test counter :          0
ITLB Leapfrog:          0
ITLB MSHR merge:          0
ITLB TOTAL     ACCESS:   38163244  HIT:   38163244  MISS:          0  HIT %:        100  MISS %:          0   MPKI: 0
ITLB LOAD TRANSLATION NON_SPEC    ACCESS:   38163244  HIT:   38163244  MISS:          0  HIT %:        100  MISS %:          0   MPKI: 0
ITLB PREFETCH  REQUESTED:          0  ISSUED:          0  USEFUL:          0  USELESS:          0
ITLB USEFUL LOAD PREFETCHES:          0 PREFETCH ISSUED TO LOWER LEVEL:          0  ACCURACY: -nan
ITLB TIMELY PREFETCHES:          0 LATE PREFETCHES: 0 DROPPED PREFETCHES: 0
ITLB COMMIT LATE PREFETCHES: 0 MISSED OPPORTUNITY: 0 LATE IN PQ: 0 UNCOVERED: 0
ITLB COMMIT LATE MSHR PREFETCHES: 0
ITLB MPKI TOTAL: 0 MSHR LATE: 0 PQ LATE: 0 COMMIT LATE: 0 MISSED OPPORTUNITY: 0 UNCOVERED: 0
ITLB PREFETCHES SAME FILL-ORIGIN LEVEL: 0 DIFFERENT FILL-ORIGIN LEVEL: 0
ITLB AVERAGE MISS LATENCY: -nan cycles
ITLB AVERAGE MISS LATENCY LOAD: -nan cycles
ITLB AVERAGE MISS LATENCY PREFETCH: -nan cycles
ITLB AVERAGE MSHR OCCUPANCY: 0
ITLB MSHR FULL: 0
ITLB RQ	ACCESS:   39394770	FORWARD:          0	MERGED:    1231526	TO_CACHE:   38163244

DTLB SPEC fills:          0  NON-SPEC fills:          0
DTLB Test counter :          0
DTLB Leapfrog:          0
DTLB MSHR merge:          0
DTLB TOTAL     ACCESS:   33842875  HIT:   28968538  MISS:    4874337  HIT %:    85.5972  MISS %:    14.4028   MPKI: 24.3717
DTLB LOAD TRANSLATION NON_SPEC    ACCESS:   33842875  HIT:   28968538  MISS:    4874337  HIT %:    85.5972  MISS %:    14.4028   MPKI: 24.3717
DTLB PREFETCH  REQUESTED:          0  ISSUED:          0  USEFUL:          0  USELESS:          0
DTLB USEFUL LOAD PREFETCHES:          0 PREFETCH ISSUED TO LOWER LEVEL:          0  ACCURACY: -nan
DTLB TIMELY PREFETCHES:          0 LATE PREFETCHES: 0 DROPPED PREFETCHES: 0
DTLB COMMIT LATE PREFETCHES: 0 MISSED OPPORTUNITY: 0 LATE IN PQ: 0 UNCOVERED: 0
DTLB COMMIT LATE MSHR PREFETCHES: 0
DTLB MPKI TOTAL: 0 MSHR LATE: 0 PQ LATE: 0 COMMIT LATE: 0 MISSED OPPORTUNITY: 0 UNCOVERED: 0
DTLB PREFETCHES SAME FILL-ORIGIN LEVEL: 0 DIFFERENT FILL-ORIGIN LEVEL: 0
DTLB AVERAGE MISS LATENCY: 127.386 cycles
DTLB AVERAGE MISS LATENCY LOAD: -nan cycles
DTLB AVERAGE MISS LATENCY PREFETCH: -nan cycles
DTLB AVERAGE MSHR OCCUPANCY: 0.482597
DTLB MSHR FULL: 0
DTLB RQ	ACCESS:   38821757	FORWARD:          0	MERGED:    4957228	TO_CACHE:   33864529

STLB SPEC fills:          0  NON-SPEC fills:          0
STLB Test counter :          0
STLB Leapfrog:          0
STLB MSHR merge:          0
STLB TOTAL     ACCESS:    8850356  HIT:    4204368  MISS:    4645988  HIT %:    47.5051  MISS %:    52.4949   MPKI: 23.2299
STLB LOAD TRANSLATION NON_SPEC    ACCESS:    4874337  HIT:     340683  MISS:    4533654  HIT %:    6.98932  MISS %:    93.0107   MPKI: 22.6683
STLB TRANSLATION FROM L1D PREFETCHER NON_SPEC    ACCESS:    3976019  HIT:    3863685  MISS:     112334  HIT %:    97.1747  MISS %:    2.82529   MPKI: 0.56167
STLB PREFETCH  REQUESTED:          0  ISSUED:          0  USEFUL:     110347  USELESS:       1985
STLB USEFUL LOAD PREFETCHES:     110347 PREFETCH ISSUED TO LOWER LEVEL:          0  ACCURACY: inf
STLB TIMELY PREFETCHES:     110347 LATE PREFETCHES: 1239 DROPPED PREFETCHES: 0
STLB COMMIT LATE PREFETCHES: 0 MISSED OPPORTUNITY: 0 LATE IN PQ: 0 UNCOVERED: 0
STLB COMMIT LATE MSHR PREFETCHES: 0
STLB MPKI TOTAL: 0 MSHR LATE: 0.006195 PQ LATE: 0 COMMIT LATE: 0 MISSED OPPORTUNITY: 0 UNCOVERED: 0
STLB PREFETCHES SAME FILL-ORIGIN LEVEL: 0 DIFFERENT FILL-ORIGIN LEVEL: 0
STLB AVERAGE MISS LATENCY: 126.022 cycles
STLB AVERAGE MISS LATENCY LOAD: -nan cycles
STLB AVERAGE MISS LATENCY PREFETCH: -nan cycles
STLB AVERAGE MSHR OCCUPANCY: 0.341688
STLB MSHR FULL: 0
STLB RQ	ACCESS:   20338271	FORWARD:          0	MERGED:   11470875	TO_CACHE:    8867396

STLB Hit, L1D data hit: 0
STLB Hit, L2C data hit: 0
STLB Hit, LLC data hit: 0
STLB Hit, LLC data miss: 0
STLB STLB hints to L2: 0
L0D SPEC fills:   19641189  NON-SPEC fills:          0
L0D TimeGuard Request with older TS:     614897 Restricted eviction:       7621 read:    2485178
L0D Test counter :          0
L0D Leapfrog:          0
L0D MSHR merge:     894933
L0D TOTAL     ACCESS:   29058413  HIT:    1811537  MISS:   27246876  HIT %:    6.23412  MISS %:    93.7659   MPKI: 136.234
L0D LOAD      TOTAL       ACCESS:   29058413  HIT:    1811537  MISS:   27246876  HIT %:    6.23412  MISS %:    93.7659   MPKI: 136.234
L0D LOAD      NON_SPEC    ACCESS:    7911747  HIT:     313681  MISS:    7598066  HIT %:    3.96475  MISS %:    96.0352   MPKI: 37.9903
L0D LOAD      SPEC        ACCESS:   21146666  HIT:    1497856  MISS:   19648810  HIT %:    7.08318  MISS %:    92.9168   MPKI: 98.244
L0D PREFETCH  REQUESTED:          0  ISSUED:          0  USEFUL:          0  USELESS:          0
L0D USEFUL LOAD PREFETCHES:          0 PREFETCH ISSUED TO LOWER LEVEL:          0  ACCURACY: -nan
L0D TIMELY PREFETCHES:          0 LATE PREFETCHES: 0 DROPPED PREFETCHES: 0
L0D COMMIT LATE PREFETCHES: 0 MISSED OPPORTUNITY: 0 LATE IN PQ: 0 UNCOVERED: 0
L0D COMMIT LATE MSHR PREFETCHES: 0
L0D MPKI TOTAL: 140.709 MSHR LATE: 0 PQ LATE: 0 COMMIT LATE: 0 MISSED OPPORTUNITY: 0 UNCOVERED: 0
L0D PREFETCHES SAME FILL-ORIGIN LEVEL: 0 DIFFERENT FILL-ORIGIN LEVEL: 0
L0D AVERAGE MISS LATENCY: 43.1568 cycles
L0D AVERAGE MISS LATENCY LOAD: 43.1568 cycles
L0D AVERAGE MISS LATENCY PREFETCH: -nan cycles
L0D AVERAGE MSHR OCCUPANCY: 0.871819
L0D MSHR FULL: 0
L0D RQ	ACCESS:   49151107	FORWARD:          0	MERGED:   19197764	TO_CACHE:   29953343
L0D WQ	ACCESS:    8868414	FORWARD:          0	MERGED:          0	TO_CACHE:    8868414

L1D SPEC fills:          0  NON-SPEC fills:    3390150
L1D Test counter :          0
L1D Leapfrog:          0
L1D MSHR merge:       1037
L1D TOTAL     ACCESS:   52270984  HIT:   34026138  MISS:   18244846  HIT %:    65.0957  MISS %:    34.9043   MPKI: 91.2242
L1D LOAD      TOTAL       ACCESS:   27246162  HIT:   16973154  MISS:   10273008  HIT %:    62.2956  MISS %:    37.7044   MPKI: 51.365
L1D LOAD      NON_SPEC    ACCESS:    7598010  HIT:    4207860  MISS:    3390150  HIT %:    55.3811  MISS %:    44.6189   MPKI: 16.9507
L1D LOAD      SPEC        ACCESS:   19648152  HIT:   12765294  MISS:    6882858  HIT %:    64.9694  MISS %:    35.0306   MPKI: 34.4143
L1D RFO       NON_SPEC    ACCESS:    8867787  HIT:    8313440  MISS:     554347  HIT %:    93.7488  MISS %:    6.25124   MPKI: 2.77173
L1D PREFETCH  NON_SPEC    ACCESS:    1384425  HIT:     840286  MISS:     544139  HIT %:    60.6957  MISS %:    39.3043   MPKI: 2.72069
L1D COMMIT LOAD NON_SPEC    ACCESS:    7890954  HIT:    7884525  MISS:       6429  HIT %:    99.9185  MISS %:   0.081473   MPKI: 0.032145
L1D COMMIT WRITE NON_SPEC    ACCESS:    6881656  HIT:      14733  MISS:    6866923  HIT %:   0.214091  MISS %:    99.7859   MPKI: 34.3346
L1D PREFETCH  REQUESTED:   15642827  ISSUED:   15640253  USEFUL:     282428  USELESS:     261732
L1D USEFUL LOAD PREFETCHES:     282428 PREFETCH ISSUED TO LOWER LEVEL:   14597574  ACCURACY: 1.93476
L1D TIMELY PREFETCHES:     282428 LATE PREFETCHES: 323 DROPPED PREFETCHES: 0
L1D COMMIT LATE PREFETCHES: 0 MISSED OPPORTUNITY: 0 LATE IN PQ: 0 UNCOVERED: 0
L1D COMMIT LATE MSHR PREFETCHES: 0
L1D MPKI TOTAL: 51.3686 MSHR LATE: 0.001615 PQ LATE: 0 COMMIT LATE: 0 MISSED OPPORTUNITY: 0 UNCOVERED: 0
L1D PREFETCHES SAME FILL-ORIGIN LEVEL: 544462 DIFFERENT FILL-ORIGIN LEVEL: 14053112
L1D AVERAGE MISS LATENCY: 58.5255 cycles
L1D AVERAGE MISS LATENCY LOAD: 100.834 cycles
L1D AVERAGE MISS LATENCY PREFETCH: 23.3398 cycles
L1D AVERAGE MSHR OCCUPANCY: 0.715244
L1D MSHR FULL: 0
L1D RQ	ACCESS:   37993156	FORWARD:          0	MERGED:    2854768	TO_CACHE:   35138388
L1D WQ	ACCESS:   15750069	FORWARD:          0	MERGED:          0	TO_CACHE:   15750069
L1D PQ	ACCESS:   15640253	FORWARD:          0	MERGED:     176318	TO_CACHE:   15463935

L1D UNIQUE REGIONS ACCESSED: 0
L1D REGIONS CONFLICTS: 0
L1D Cross Page Prefetch Requests: 3179360
L1D Same Page Prefetch Requests: 14739630
L1D ROI Sum of L1D PQ occupancy: 236252766
L1D PREFETCHES PUSHED FROM L2C: 0
L1I SPEC fills:          0  NON-SPEC fills:          0
L1I Test counter :          0
L1I Leapfrog:          0
L1I MSHR merge:          0
L1I TOTAL     ACCESS:   39394768  HIT:   39394768  MISS:          0  HIT %:        100  MISS %:          0   MPKI: 0
L1I LOAD      TOTAL       ACCESS:   39394768  HIT:   39394768  MISS:          0  HIT %:        100  MISS %:          0   MPKI: 0
L1I LOAD      NON_SPEC    ACCESS:   39394768  HIT:   39394768  MISS:          0  HIT %:        100  MISS %:          0   MPKI: 0
L1I PREFETCH  REQUESTED:          0  ISSUED:          0  USEFUL:          0  USELESS:          0
L1I USEFUL LOAD PREFETCHES:          0 PREFETCH ISSUED TO LOWER LEVEL:          0  ACCURACY: -nan
L1I TIMELY PREFETCHES:          0 LATE PREFETCHES: 0 DROPPED PREFETCHES: 0
L1I COMMIT LATE PREFETCHES: 0 MISSED OPPORTUNITY: 0 LATE IN PQ: 0 UNCOVERED: 0
L1I COMMIT LATE MSHR PREFETCHES: 0
L1I MPKI TOTAL: 0 MSHR LATE: 0 PQ LATE: 0 COMMIT LATE: 0 MISSED OPPORTUNITY: 0 UNCOVERED: 0
L1I PREFETCHES SAME FILL-ORIGIN LEVEL: 0 DIFFERENT FILL-ORIGIN LEVEL: 0
L1I AVERAGE MISS LATENCY: -nan cycles
L1I AVERAGE MISS LATENCY LOAD: -nan cycles
L1I AVERAGE MISS LATENCY PREFETCH: -nan cycles
L1I AVERAGE MSHR OCCUPANCY: 0
L1I MSHR FULL: 0
L1I RQ	ACCESS:   61099922	FORWARD:          0	MERGED:   21705152	TO_CACHE:   39394770

BTB SPEC fills:          0  NON-SPEC fills:          0
BTB Test counter :          0
BTB Leapfrog:          0
BTB MSHR merge:          0
BTB TOTAL     ACCESS:   26649158  HIT:   26649150  MISS:          8  HIT %:        100  MISS %: 3.00197e-05   MPKI: 4e-05
BTB BRANCH_DIRECT_JUMP	ACCESS:    4549688  HIT:    4549686  MISS:          2
BTB BRANCH_INDIRECT	ACCESS:          0  HIT:          0  MISS:          0
BTB BRANCH_CONDITIONAL	ACCESS:   13231060  HIT:   13231056  MISS:          4
BTB BRANCH_DIRECT_CALL	ACCESS:    4434205  HIT:    4434204  MISS:          1
BTB BRANCH_INDIRECT_CALL	ACCESS:          0  HIT:          0  MISS:          0
BTB BRANCH_RETURN	ACCESS:    4434205  HIT:    4434204  MISS:          1
BTB BRANCH_OTHER ACCESS:          0  HIT:          0  MISS:          0

L2C SPEC fills:          0  NON-SPEC fills:     825701
L2C Test counter :          0
L2C Leapfrog:          0
L2C MSHR merge:       1680
L2C TOTAL     ACCESS:   55390928  HIT:   35708828  MISS:   19682100  HIT %:    64.4669  MISS %:    35.5331   MPKI: 98.4105
L2C LOAD      TOTAL       ACCESS:   10271661  HIT:    3793186  MISS:    6478475  HIT %:    36.9287  MISS %:    63.0713   MPKI: 32.3924
L2C LOAD      NON_SPEC    ACCESS:    3390123  HIT:    2564422  MISS:     825701  HIT %:    75.6439  MISS %:    24.3561   MPKI: 4.1285
L2C LOAD      SPEC        ACCESS:    6881538  HIT:    1228764  MISS:    5652774  HIT %:     17.856  MISS %:     82.144   MPKI: 28.2639
L2C RFO       NON_SPEC    ACCESS:     554347  HIT:     199505  MISS:     354842  HIT %:    35.9892  MISS %:    64.0108   MPKI: 1.77421
L2C PREFETCH  NON_SPEC    ACCESS:   14574040  HIT:   11421601  MISS:    3152439  HIT %:    78.3695  MISS %:    21.6305   MPKI: 15.7622
L2C WRITEBACK NON_SPEC    ACCESS:     717613  HIT:     717607  MISS:          6  HIT %:    99.9992  MISS %: 0.000836105   MPKI: 3e-05
L2C CLEAN_EVICTION NON_SPEC    ACCESS:    6036903  HIT:     292393  MISS:    5744510  HIT %:    4.84343  MISS %:    95.1566   MPKI: 28.7225
L2C COMMIT LOAD NON_SPEC    ACCESS:       6429  HIT:       5055  MISS:       1374  HIT %:    78.6281  MISS %:    21.3719   MPKI: 0.00687
L2C LOAD TRANSLATION NON_SPEC    ACCESS:   22662070  HIT:   18721809  MISS:    3940261  HIT %:     82.613  MISS %:     17.387   MPKI: 19.7013
L2C TRANSLATION FROM L1D PREFETCHER NON_SPEC    ACCESS:     567865  HIT:     557672  MISS:      10193  HIT %:     98.205  MISS %:    1.79497   MPKI: 0.050965
L2C PREFETCH  REQUESTED:          0  ISSUED:          0  USEFUL:     783845  USELESS:    2377835
L2C USEFUL LOAD PREFETCHES:     783845 PREFETCH ISSUED TO LOWER LEVEL:    3154122  ACCURACY: 24.8514
L2C TIMELY PREFETCHES:     783845 LATE PREFETCHES: 1681 DROPPED PREFETCHES: 0
L2C COMMIT LATE PREFETCHES: 0 MISSED OPPORTUNITY: 0 LATE IN PQ: 0 UNCOVERED: 0
L2C COMMIT LATE MSHR PREFETCHES: 0
L2C MPKI TOTAL: 32.3924 MSHR LATE: 0.008405 PQ LATE: 0 COMMIT LATE: 0 MISSED OPPORTUNITY: 0 UNCOVERED: 0
L2C PREFETCHES SAME FILL-ORIGIN LEVEL: 3070996 DIFFERENT FILL-ORIGIN LEVEL: 0
L2C AVERAGE MISS LATENCY: 59.5949 cycles
L2C AVERAGE MISS LATENCY LOAD: 140.114 cycles
L2C AVERAGE MISS LATENCY PREFETCH: 42.0618 cycles
L2C AVERAGE MSHR OCCUPANCY: 0.717361
L2C MSHR FULL: 0
L2C RQ	ACCESS:   34063396	FORWARD:          0	MERGED:          0	TO_CACHE:   34062372
L2C WQ	ACCESS:    6754516	FORWARD:       1024	MERGED:          0	TO_CACHE:    6754516
L2C PQ	ACCESS:   14597574	FORWARD:          0	MERGED:        102	TO_CACHE:   14597472

L2C Instructions Evicting Data 0
L2C Translations Evicting Data 2511204
L2C Data Evicting Data 3210090
L2C Instructions Evicting Instructions 0
L2C Translations Evicting Instructions 0
L2C Data Evicting Instructions 0
L2C Instructions Evicting Translations 0
L2C Translations Evicting Translations 1439250
L2C Data Evicting Translations 1124266
L2C Dense regions hint from L2: 0
PSCL5 SPEC fills:          0  NON-SPEC fills:          0
PSCL5 Test counter :          0
PSCL5 Leapfrog:          0
PSCL5 MSHR merge:          0
PSCL5 TOTAL     ACCESS:          0  HIT:          0  MISS:          0  HIT %:       -nan  MISS %:       -nan   MPKI: 0
PSCL5 PREFETCH  REQUESTED:          0  ISSUED:          0  USEFUL:          0  USELESS:          0
PSCL5 USEFUL LOAD PREFETCHES:          0 PREFETCH ISSUED TO LOWER LEVEL:          0  ACCURACY: -nan
PSCL5 TIMELY PREFETCHES:          0 LATE PREFETCHES: 0 DROPPED PREFETCHES: 0
PSCL5 COMMIT LATE PREFETCHES: 0 MISSED OPPORTUNITY: 0 LATE IN PQ: 0 UNCOVERED: 0
PSCL5 COMMIT LATE MSHR PREFETCHES: 0
PSCL5 MPKI TOTAL: 0 MSHR LATE: 0 PQ LATE: 0 COMMIT LATE: 0 MISSED OPPORTUNITY: 0 UNCOVERED: 0
PSCL5 PREFETCHES SAME FILL-ORIGIN LEVEL: 0 DIFFERENT FILL-ORIGIN LEVEL: 0

PSCL4 SPEC fills:          0  NON-SPEC fills:          0
PSCL4 Test counter :          0
PSCL4 Leapfrog:          0
PSCL4 MSHR merge:          0
PSCL4 TOTAL     ACCESS:          0  HIT:          0  MISS:          0  HIT %:       -nan  MISS %:       -nan   MPKI: 0
PSCL4 PREFETCH  REQUESTED:          0  ISSUED:          0  USEFUL:          0  USELESS:          0
PSCL4 USEFUL LOAD PREFETCHES:          0 PREFETCH ISSUED TO LOWER LEVEL:          0  ACCURACY: -nan
PSCL4 TIMELY PREFETCHES:          0 LATE PREFETCHES: 0 DROPPED PREFETCHES: 0
PSCL4 COMMIT LATE PREFETCHES: 0 MISSED OPPORTUNITY: 0 LATE IN PQ: 0 UNCOVERED: 0
PSCL4 COMMIT LATE MSHR PREFETCHES: 0
PSCL4 MPKI TOTAL: 0 MSHR LATE: 0 PQ LATE: 0 COMMIT LATE: 0 MISSED OPPORTUNITY: 0 UNCOVERED: 0
PSCL4 PREFETCHES SAME FILL-ORIGIN LEVEL: 0 DIFFERENT FILL-ORIGIN LEVEL: 0

PSCL3 SPEC fills:          0  NON-SPEC fills:          0
PSCL3 Test counter :          0
PSCL3 Leapfrog:          0
PSCL3 MSHR merge:          0
PSCL3 TOTAL     ACCESS:          0  HIT:          0  MISS:          0  HIT %:       -nan  MISS %:       -nan   MPKI: 0
PSCL3 PREFETCH  REQUESTED:          0  ISSUED:          0  USEFUL:          0  USELESS:          0
PSCL3 USEFUL LOAD PREFETCHES:          0 PREFETCH ISSUED TO LOWER LEVEL:          0  ACCURACY: -nan
PSCL3 TIMELY PREFETCHES:          0 LATE PREFETCHES: 0 DROPPED PREFETCHES: 0
PSCL3 COMMIT LATE PREFETCHES: 0 MISSED OPPORTUNITY: 0 LATE IN PQ: 0 UNCOVERED: 0
PSCL3 COMMIT LATE MSHR PREFETCHES: 0
PSCL3 MPKI TOTAL: 0 MSHR LATE: 0 PQ LATE: 0 COMMIT LATE: 0 MISSED OPPORTUNITY: 0 UNCOVERED: 0
PSCL3 PREFETCHES SAME FILL-ORIGIN LEVEL: 0 DIFFERENT FILL-ORIGIN LEVEL: 0

PSCL2 SPEC fills:          0  NON-SPEC fills:          0
PSCL2 Test counter :          0
PSCL2 Leapfrog:          0
PSCL2 MSHR merge:          0
PSCL2 TOTAL     ACCESS:          0  HIT:          0  MISS:          0  HIT %:       -nan  MISS %:       -nan   MPKI: 0
PSCL2 PREFETCH  REQUESTED:          0  ISSUED:          0  USEFUL:          0  USELESS:          0
PSCL2 USEFUL LOAD PREFETCHES:          0 PREFETCH ISSUED TO LOWER LEVEL:          0  ACCURACY: -nan
PSCL2 TIMELY PREFETCHES:          0 LATE PREFETCHES: 0 DROPPED PREFETCHES: 0
PSCL2 COMMIT LATE PREFETCHES: 0 MISSED OPPORTUNITY: 0 LATE IN PQ: 0 UNCOVERED: 0
PSCL2 COMMIT LATE MSHR PREFETCHES: 0
PSCL2 MPKI TOTAL: 0 MSHR LATE: 0 PQ LATE: 0 COMMIT LATE: 0 MISSED OPPORTUNITY: 0 UNCOVERED: 0
PSCL2 PREFETCHES SAME FILL-ORIGIN LEVEL: 0 DIFFERENT FILL-ORIGIN LEVEL: 0

LLC SPEC fills:          0  NON-SPEC fills:     311258
LLC Test counter :          0
LLC Leapfrog:          0
LLC MSHR merge:          0
LLC TOTAL     ACCESS:   20229783  HIT:   10311483  MISS:    9918300  HIT %:    50.9718  MISS %:    49.0282   MPKI: 49.5915
LLC LOAD      TOTAL       ACCESS:    6476759  HIT:    1473840  MISS:    5002919  HIT %:    22.7558  MISS %:    77.2442   MPKI: 25.0146
LLC LOAD      NON_SPEC    ACCESS:     825281  HIT:     514023  MISS:     311258  HIT %:    62.2846  MISS %:    37.7154   MPKI: 1.55629
LLC LOAD      SPEC        ACCESS:    5651478  HIT:     959817  MISS:    4691661  HIT %:    16.9835  MISS %:    83.0165   MPKI: 23.4583
LLC RFO       NON_SPEC    ACCESS:     354829  HIT:     354827  MISS:          2  HIT %:    99.9994  MISS %: 0.000563652   MPKI: 1e-05
LLC PREFETCH  NON_SPEC    ACCESS:    3154118  HIT:    2954248  MISS:     199870  HIT %:    93.6632  MISS %:     6.3368   MPKI: 0.99935
LLC WRITEBACK NON_SPEC    ACCESS:     526108  HIT:     526108  MISS:          0  HIT %:        100  MISS %:          0   MPKI: 0
LLC CLEAN_EVICTION NON_SPEC    ACCESS:    5766142  HIT:    1069770  MISS:    4696372  HIT %:    18.5526  MISS %:    81.4474   MPKI: 23.4819
LLC COMMIT LOAD NON_SPEC    ACCESS:       1373  HIT:        866  MISS:        507  HIT %:    63.0736  MISS %:    36.9264   MPKI: 0.002535
LLC LOAD TRANSLATION NON_SPEC    ACCESS:    3940261  HIT:    3921873  MISS:      18388  HIT %:    99.5333  MISS %:    0.46667   MPKI: 0.09194
LLC TRANSLATION FROM L1D PREFETCHER NON_SPEC    ACCESS:      10193  HIT:       9951  MISS:        242  HIT %:    97.6258  MISS %:    2.37418   MPKI: 0.00121
LLC PREFETCH  REQUESTED:          0  ISSUED:          0  USEFUL:       4288  USELESS:     191430
LLC USEFUL LOAD PREFETCHES:       4288 PREFETCH ISSUED TO LOWER LEVEL:     199870  ACCURACY: 2.14539
LLC TIMELY PREFETCHES:       4288 LATE PREFETCHES: 0 DROPPED PREFETCHES: 0
LLC COMMIT LATE PREFETCHES: 0 MISSED OPPORTUNITY: 0 LATE IN PQ: 0 UNCOVERED: 0
LLC COMMIT LATE MSHR PREFETCHES: 0
LLC MPKI TOTAL: 25.0146 MSHR LATE: 0 PQ LATE: 0 COMMIT LATE: 0 MISSED OPPORTUNITY: 0 UNCOVERED: 0
LLC PREFETCHES SAME FILL-ORIGIN LEVEL: 0 DIFFERENT FILL-ORIGIN LEVEL: 0
LLC AVERAGE MISS LATENCY: 81.1066 cycles
LLC AVERAGE MISS LATENCY LOAD: 152.59 cycles
LLC AVERAGE MISS LATENCY PREFETCH: 188.321 cycles
LLC AVERAGE MSHR OCCUPANCY: 0.652774
LLC MSHR FULL: 0
LLC RQ	ACCESS:   10783464	FORWARD:          0	MERGED:          0	TO_CACHE:   10783415
LLC WQ	ACCESS:    6292250	FORWARD:         51	MERGED:          0	TO_CACHE:    6292250
LLC PQ	ACCESS:    3154122	FORWARD:          0	MERGED:          0	TO_CACHE:    3154120

LLC Dense regions hint to LLC: 0

RAW hits: 4057612
Loads Generated: 53208719
Loads sent to L1D: 49151107
Stores Generated: 8868414
Stores sent to L1D: 8868414
Major fault: 0 Minor fault: 101164
Allocated PAGES: 101164
Total Load insts: 61391529
Total Non-spec loads: 9373429
Percentage of speculative loads: 84.7317

LeapFrogging counter: 0
Commit hits: 19300166 miss: 21850719
Commit hit %: 46.901 miss %: 53.099
Commits not translated: 0
Loads retired: 10273008
Stores retired: 8868414
Cache fills: 10273008
L1D response latency: 100.834 cycles
Load retirement latency: 231.981 cycles
OOO test counter: 0
Discarded buffer inserts: 19300166 hits: 11366 hit %: 0.0588907
Filter prediction accuracy: 97.4526
LATENCY_FILL: 100.723 10258048

DRAM Statistics
 CHANNEL 0
 RQ ROW_BUFFER_HIT:      20056  ROW_BUFFER_MISS:    5201867
 DBUS_CONGESTED:        114
 WQ ROW_BUFFER_HIT:    1300351  ROW_BUFFER_MISS:    3668642  FULL:        249

 AVG_CONGESTED_CYCLE: 6
 All warmup complete: 2
Channel 0 Bank busy for read cycles: 0
Channel 0 Bank busy for write cycles: 0
Channel 0
Rank 0
0banks busy for read cycles: 82654799
0banks busy for write cycles: 740856
1banks busy for read cycles: 420945809
1banks busy for write cycles: 124906033
2banks busy for read cycles: 133624978
2banks busy for write cycles: 98610611
3banks busy for read cycles: 28499700
3banks busy for write cycles: 67026612
4banks busy for read cycles: 1521401
4banks busy for write cycles: 44722937
5banks busy for read cycles: 251204
5banks busy for write cycles: 27412726
6banks busy for read cycles: 79338
6banks busy for write cycles: 14700879
7banks busy for read cycles: 21822
7banks busy for write cycles: 7171966
8banks busy for read cycles: 4650
8banks busy for write cycles: 4625937

CPU 0 Branch Prediction Accuracy: 99.988% MPKI: 0.01864 Average ROB Occupancy at Mispredict: 328.105
Branch types
NOT_BRANCH: 168845084 84.4225%
BRANCH_DIRECT_JUMP: 4549688 2.27484%
BRANCH_INDIRECT: 0 0%
BRANCH_CONDITIONAL: 17736819 8.86841%
BRANCH_DIRECT_CALL: 4434205 2.2171%
BRANCH_INDIRECT_CALL: 0 0%
BRANCH_RETURN: 4434205 2.2171%
BRANCH_OTHER: 0 0%

DRAM PAGES: 1048576
Allocated PAGES: 101164
