
*** ChampSim Multicore Out-of-Order Simulator ***

Warmup Instructions: 50000000
Simulation Instructions: 200000000
Number of CPUs: 1
LLC sets: 2048
LLC ways: 16
L0D sets: 16
L0D ways: 2
ROB size: 352
LQ size: 128
SQ size: 72
Secure Berti: OFF
Berti: OFF
Berti Fill: OFF
On commit prefetching: OFF
Hit-based filter: ON
Time-guarding: ON
Free-slotting: ON
Leap-frogging: ON
Train prefetcher on L0D bypass: OFF
No translation penalty for prefetchers: OFF
Prefetch to L0D only: OFF
Prefetch to L1D only: OFF
Clean evictions: ON
Commit loads: ON
Commit write: ON
Fill commit loads to L2C, LLC: ON
DRAM IO FREQUENCY: 6400
ROB SIZE: 352
Off-chip DRAM Size: 4096 MB Channels: 1 Width: 64-bit Data Rate: 6400 MT/s
CPU 0 runs /home/sumon/secure_berti/GhostMinion/../../traces/spec/605.mcf_s-1644B.champsimtrace.xz
.xz
BTB has LRU replacement policy
ITLB has LRU replacement policy
DTLB has LRU replacement policy
STLB has LRU replacement policy
L1I has LRU replacement policy
L0D has LRU replacement policy
History Sets: 8
History Ways: 16
BERTI Size: 16
BERTI Stride Size: 16
L1D has LRU replacement policy
L2C has LRU replacement policy
LLC has LRU replacement policy
Heartbeat CPU 0 instructions: 10000003 cycles: 14284218 heartbeat IPC: 0.700074 cumulative IPC: 0.700074 (Simulation time: 0 hr 1 min 10 sec) 
Heartbeat CPU 0 instructions: 20000001 cycles: 28561427 heartbeat IPC: 0.700417 cumulative IPC: 0.700245 (Simulation time: 0 hr 2 min 19 sec) 
Heartbeat CPU 0 instructions: 30000002 cycles: 42846694 heartbeat IPC: 0.700022 cumulative IPC: 0.700171 (Simulation time: 0 hr 3 min 33 sec) 
Heartbeat CPU 0 instructions: 40000001 cycles: 57126234 heartbeat IPC: 0.700303 cumulative IPC: 0.700204 (Simulation time: 0 hr 4 min 45 sec) 
Heartbeat CPU 0 instructions: 50000000 cycles: 71409334 heartbeat IPC: 0.700128 cumulative IPC: 0.700189 (Simulation time: 0 hr 5 min 59 sec) 

Warmup complete CPU 0 instructions: 50000004 cycles: 71409335 (Simulation time: 0 hr 5 min 59 sec) 

Heartbeat CPU 0 instructions: 60000001 cycles: 140908827 heartbeat IPC: 0.143886 cumulative IPC: 0.143886 (Simulation time: 0 hr 7 min 55 sec) 
Heartbeat CPU 0 instructions: 70000003 cycles: 210495414 heartbeat IPC: 0.143706 cumulative IPC: 0.143796 (Simulation time: 0 hr 9 min 52 sec) 
Heartbeat CPU 0 instructions: 80000000 cycles: 280735644 heartbeat IPC: 0.142369 cumulative IPC: 0.143317 (Simulation time: 0 hr 11 min 51 sec) 
Heartbeat CPU 0 instructions: 90000000 cycles: 350868279 heartbeat IPC: 0.142587 cumulative IPC: 0.143134 (Simulation time: 0 hr 13 min 47 sec) 
Heartbeat CPU 0 instructions: 100000003 cycles: 422029231 heartbeat IPC: 0.140527 cumulative IPC: 0.142605 (Simulation time: 0 hr 15 min 35 sec) 
Heartbeat CPU 0 instructions: 110000000 cycles: 493318921 heartbeat IPC: 0.140273 cumulative IPC: 0.142211 (Simulation time: 0 hr 17 min 14 sec) 
Heartbeat CPU 0 instructions: 120000001 cycles: 564815337 heartbeat IPC: 0.139867 cumulative IPC: 0.141871 (Simulation time: 0 hr 18 min 45 sec) 
Heartbeat CPU 0 instructions: 130000001 cycles: 635805678 heartbeat IPC: 0.140864 cumulative IPC: 0.141744 (Simulation time: 0 hr 20 min 16 sec) 
Heartbeat CPU 0 instructions: 140000003 cycles: 705205823 heartbeat IPC: 0.144092 cumulative IPC: 0.142001 (Simulation time: 0 hr 21 min 44 sec) 
Heartbeat CPU 0 instructions: 150000002 cycles: 771878813 heartbeat IPC: 0.149986 cumulative IPC: 0.142761 (Simulation time: 0 hr 23 min 9 sec) 
Heartbeat CPU 0 instructions: 160000002 cycles: 837306474 heartbeat IPC: 0.152841 cumulative IPC: 0.143622 (Simulation time: 0 hr 24 min 34 sec) 
Heartbeat CPU 0 instructions: 170000002 cycles: 905376303 heartbeat IPC: 0.146908 cumulative IPC: 0.143891 (Simulation time: 0 hr 25 min 56 sec) 
Heartbeat CPU 0 instructions: 180000002 cycles: 973727855 heartbeat IPC: 0.146302 cumulative IPC: 0.144073 (Simulation time: 0 hr 27 min 19 sec) 
Heartbeat CPU 0 instructions: 190000003 cycles: 1041691568 heartbeat IPC: 0.147137 cumulative IPC: 0.144288 (Simulation time: 0 hr 28 min 42 sec) 
Heartbeat CPU 0 instructions: 200000001 cycles: 1110795044 heartbeat IPC: 0.14471 cumulative IPC: 0.144316 (Simulation time: 0 hr 30 min 6 sec) 
Heartbeat CPU 0 instructions: 210000003 cycles: 1179841534 heartbeat IPC: 0.14483 cumulative IPC: 0.144348 (Simulation time: 0 hr 31 min 29 sec) 
Heartbeat CPU 0 instructions: 220000000 cycles: 1248538397 heartbeat IPC: 0.145567 cumulative IPC: 0.144419 (Simulation time: 0 hr 32 min 53 sec) 
Heartbeat CPU 0 instructions: 230000003 cycles: 1317409984 heartbeat IPC: 0.145198 cumulative IPC: 0.144462 (Simulation time: 0 hr 34 min 17 sec) 
Heartbeat CPU 0 instructions: 240000000 cycles: 1386583500 heartbeat IPC: 0.144564 cumulative IPC: 0.144468 (Simulation time: 0 hr 35 min 40 sec) 
Heartbeat CPU 0 instructions: 250000000 cycles: 1455982790 heartbeat IPC: 0.144094 cumulative IPC: 0.144449 (Simulation time: 0 hr 37 min 4 sec) 
Finished CPU 0 instructions: 200000000 cycles: 1384573457 cumulative IPC: 0.144449 (Simulation time: 0 hr 37 min 4 sec) 
 Instruction ID: 250000247

ChampSim completed all CPUs

Region of Interest Statistics

CPU 0 cumulative IPC: 0.144449 instructions: 200000000 cycles: 1384573457
ITLB SPEC fills:          0  NON-SPEC fills:          0
ITLB Test counter :          0
ITLB Leapfrog:          0
ITLB MSHR merge:          0
ITLB TOTAL     ACCESS:   33600523  HIT:   33600523  MISS:          0  HIT %:        100  MISS %:          0   MPKI: 0
ITLB LOAD TRANSLATION NON_SPEC    ACCESS:   33600523  HIT:   33600523  MISS:          0  HIT %:        100  MISS %:          0   MPKI: 0
ITLB PREFETCH  REQUESTED:          0  ISSUED:          0  USEFUL:          0  USELESS:          0
ITLB USEFUL LOAD PREFETCHES:          0 PREFETCH ISSUED TO LOWER LEVEL:          0  ACCURACY: -nan
ITLB TIMELY PREFETCHES:          0 LATE PREFETCHES: 0 DROPPED PREFETCHES: 0
ITLB COMMIT LATE PREFETCHES: 0 MISSED OPPORTUNITY: 0 LATE IN PQ: 0 UNCOVERED: 0
ITLB COMMIT LATE MSHR PREFETCHES: 0
ITLB MPKI TOTAL: 0 MSHR LATE: 0 PQ LATE: 0 COMMIT LATE: 0 MISSED OPPORTUNITY: 0 UNCOVERED: 0
ITLB PREFETCHES SAME FILL-ORIGIN LEVEL: 0 DIFFERENT FILL-ORIGIN LEVEL: 0
ITLB AVERAGE MISS LATENCY: -nan cycles
ITLB AVERAGE MISS LATENCY LOAD: -nan cycles
ITLB AVERAGE MISS LATENCY PREFETCH: -nan cycles
ITLB AVERAGE MSHR OCCUPANCY: 0
ITLB MSHR FULL: 0
ITLB RQ	ACCESS:   33603043	FORWARD:          0	MERGED:       2521	TO_CACHE:   33600522

DTLB SPEC fills:          0  NON-SPEC fills:          0
DTLB Test counter :          0
DTLB Leapfrog:          0
DTLB MSHR merge:          0
DTLB TOTAL     ACCESS:   78779211  HIT:   73145485  MISS:    5633726  HIT %:    92.8487  MISS %:    7.15129   MPKI: 28.1686
DTLB LOAD TRANSLATION NON_SPEC    ACCESS:   78779211  HIT:   73145485  MISS:    5633726  HIT %:    92.8487  MISS %:    7.15129   MPKI: 28.1686
DTLB PREFETCH  REQUESTED:          0  ISSUED:          0  USEFUL:          0  USELESS:          0
DTLB USEFUL LOAD PREFETCHES:          0 PREFETCH ISSUED TO LOWER LEVEL:          0  ACCURACY: -nan
DTLB TIMELY PREFETCHES:          0 LATE PREFETCHES: 0 DROPPED PREFETCHES: 0
DTLB COMMIT LATE PREFETCHES: 0 MISSED OPPORTUNITY: 0 LATE IN PQ: 0 UNCOVERED: 0
DTLB COMMIT LATE MSHR PREFETCHES: 0
DTLB MPKI TOTAL: 0 MSHR LATE: 0 PQ LATE: 0 COMMIT LATE: 0 MISSED OPPORTUNITY: 0 UNCOVERED: 0
DTLB PREFETCHES SAME FILL-ORIGIN LEVEL: 0 DIFFERENT FILL-ORIGIN LEVEL: 0
DTLB AVERAGE MISS LATENCY: 885.161 cycles
DTLB AVERAGE MISS LATENCY LOAD: -nan cycles
DTLB AVERAGE MISS LATENCY PREFETCH: -nan cycles
DTLB AVERAGE MSHR OCCUPANCY: 3.16935
DTLB MSHR FULL: 9.28275e-05
DTLB RQ	ACCESS:  125575577	FORWARD:          0	MERGED:   27227315	TO_CACHE:   98348262

STLB SPEC fills:          0  NON-SPEC fills:          0
STLB Test counter :          0
STLB Leapfrog:          0
STLB MSHR merge:          0
STLB TOTAL     ACCESS:   14568793  HIT:    9740168  MISS:    4828625  HIT %:    66.8564  MISS %:    33.1436   MPKI: 24.1431
STLB LOAD TRANSLATION NON_SPEC    ACCESS:    5633726  HIT:     832890  MISS:    4800836  HIT %:     14.784  MISS %:     85.216   MPKI: 24.0042
STLB TRANSLATION FROM L1D PREFETCHER NON_SPEC    ACCESS:    8935067  HIT:    8907278  MISS:      27789  HIT %:     99.689  MISS %:   0.311011   MPKI: 0.138945
STLB PREFETCH  REQUESTED:          0  ISSUED:          0  USEFUL:      25650  USELESS:       2139
STLB USEFUL LOAD PREFETCHES:      25650 PREFETCH ISSUED TO LOWER LEVEL:          0  ACCURACY: inf
STLB TIMELY PREFETCHES:      25650 LATE PREFETCHES: 67830 DROPPED PREFETCHES: 863160
STLB COMMIT LATE PREFETCHES: 0 MISSED OPPORTUNITY: 0 LATE IN PQ: 0 UNCOVERED: 0
STLB COMMIT LATE MSHR PREFETCHES: 0
STLB MPKI TOTAL: 0 MSHR LATE: 0.33915 PQ LATE: 0 COMMIT LATE: 0 MISSED OPPORTUNITY: 0 UNCOVERED: 0
STLB PREFETCHES SAME FILL-ORIGIN LEVEL: 0 DIFFERENT FILL-ORIGIN LEVEL: 0
STLB AVERAGE MISS LATENCY: 1027.12 cycles
STLB AVERAGE MISS LATENCY LOAD: -nan cycles
STLB AVERAGE MISS LATENCY PREFETCH: -nan cycles
STLB AVERAGE MSHR OCCUPANCY: 3.387
STLB MSHR FULL: 0
STLB RQ	ACCESS:   38402704	FORWARD:          0	MERGED:   22604277	TO_CACHE:   15798427

STLB Hit, L1D data hit: 0
STLB Hit, L2C data hit: 0
STLB Hit, LLC data hit: 0
STLB Hit, LLC data miss: 0
STLB STLB hints to L2: 0
L0D SPEC fills:   22076136  NON-SPEC fills:          0
L0D TimeGuard Request with older TS:    2794779 Restricted eviction:     562023 read:    5360041
L0D Test counter :          0
L0D Leapfrog:          0
L0D MSHR merge:    1604398
L0D TOTAL     ACCESS:   53998079  HIT:   17084620  MISS:   36913459  HIT %:    31.6393  MISS %:    68.3607   MPKI: 184.567
L0D LOAD      TOTAL       ACCESS:   53998079  HIT:   17084620  MISS:   36913459  HIT %:    31.6393  MISS %:    68.3607   MPKI: 184.567
L0D LOAD      NON_SPEC    ACCESS:   18332688  HIT:    4056554  MISS:   14276134  HIT %:    22.1274  MISS %:    77.8726   MPKI: 71.3807
L0D LOAD      SPEC        ACCESS:   35665391  HIT:   13028066  MISS:   22637325  HIT %:    36.5286  MISS %:    63.4714   MPKI: 113.187
L0D PREFETCH  REQUESTED:          0  ISSUED:          0  USEFUL:          0  USELESS:          0
L0D USEFUL LOAD PREFETCHES:          0 PREFETCH ISSUED TO LOWER LEVEL:          0  ACCURACY: -nan
L0D TIMELY PREFETCHES:          0 LATE PREFETCHES: 0 DROPPED PREFETCHES: 0
L0D COMMIT LATE PREFETCHES: 0 MISSED OPPORTUNITY: 0 LATE IN PQ: 0 UNCOVERED: 0
L0D COMMIT LATE MSHR PREFETCHES: 0
L0D MPKI TOTAL: 192.589 MSHR LATE: 0 PQ LATE: 0 COMMIT LATE: 0 MISSED OPPORTUNITY: 0 UNCOVERED: 0
L0D PREFETCHES SAME FILL-ORIGIN LEVEL: 0 DIFFERENT FILL-ORIGIN LEVEL: 0
L0D AVERAGE MISS LATENCY: 15.7639 cycles
L0D AVERAGE MISS LATENCY LOAD: 15.7639 cycles
L0D AVERAGE MISS LATENCY PREFETCH: -nan cycles
L0D AVERAGE MSHR OCCUPANCY: 0.800971
L0D MSHR FULL: 7.19392e-08
L0D RQ	ACCESS:   69506660	FORWARD:          0	MERGED:   13904185	TO_CACHE:   55602475
L0D WQ	ACCESS:   69973102	FORWARD:          0	MERGED:          0	TO_CACHE:   69973102

L1D SPEC fills:          0  NON-SPEC fills:     166221
L1D Test counter :          0
L1D Leapfrog:          0
L1D MSHR merge:     134711
L1D TOTAL     ACCESS:  105340928  HIT:   83011077  MISS:   22329851  HIT %:    78.8023  MISS %:    21.1977   MPKI: 111.649
L1D LOAD      TOTAL       ACCESS:   36912889  HIT:   32381845  MISS:    4531044  HIT %:     87.725  MISS %:     12.275   MPKI: 22.6552
L1D LOAD      NON_SPEC    ACCESS:   14275816  HIT:   14109595  MISS:     166221  HIT %:    98.8356  MISS %:    1.16435   MPKI: 0.831105
L1D LOAD      SPEC        ACCESS:   22637073  HIT:   18272250  MISS:    4364823  HIT %:    80.7183  MISS %:    19.2817   MPKI: 21.8241
L1D RFO       NON_SPEC    ACCESS:   37786560  HIT:   29038060  MISS:    8748500  HIT %:    76.8476  MISS %:    23.1524   MPKI: 43.7425
L1D PREFETCH  NON_SPEC    ACCESS:   26004320  HIT:   21279743  MISS:    4724577  HIT %:    81.8316  MISS %:    18.1684   MPKI: 23.6229
L1D COMMIT LOAD NON_SPEC    ACCESS:     465440  HIT:     241242  MISS:     224198  HIT %:     51.831  MISS %:     48.169   MPKI: 1.12099
L1D COMMIT WRITE NON_SPEC    ACCESS:    4171719  HIT:      70187  MISS:    4101532  HIT %:    1.68245  MISS %:    98.3176   MPKI: 20.5077
L1D PREFETCH  REQUESTED:   67058364  ISSUED:   41862984  USEFUL:    4705530  USELESS:      19041
L1D USEFUL LOAD PREFETCHES:    4705530 PREFETCH ISSUED TO LOWER LEVEL:    7056594  ACCURACY: 66.6827
L1D TIMELY PREFETCHES:    4705530 LATE PREFETCHES: 134150 DROPPED PREFETCHES: 3265297
L1D COMMIT LATE PREFETCHES: 0 MISSED OPPORTUNITY: 0 LATE IN PQ: 0 UNCOVERED: 0
L1D COMMIT LATE MSHR PREFETCHES: 0
L1D MPKI TOTAL: 22.6581 MSHR LATE: 0.67075 PQ LATE: 0 COMMIT LATE: 0 MISSED OPPORTUNITY: 0 UNCOVERED: 0
L1D PREFETCHES SAME FILL-ORIGIN LEVEL: 4858728 DIFFERENT FILL-ORIGIN LEVEL: 2197866
L1D AVERAGE MISS LATENCY: 201.178 cycles
L1D AVERAGE MISS LATENCY LOAD: 86.729 cycles
L1D AVERAGE MISS LATENCY PREFETCH: 319.055 cycles
L1D AVERAGE MSHR OCCUPANCY: 4.6758
L1D MSHR FULL: 0.0574136
L1D RQ	ACCESS:   37519677	FORWARD:          0	MERGED:     140463	TO_CACHE:   37379150
L1D WQ	ACCESS:   74144796	FORWARD:         64	MERGED:    1352218	TO_CACHE:   72792578
L1D PQ	ACCESS:   41862984	FORWARD:          0	MERGED:    9094009	TO_CACHE:   32768975

L1D UNIQUE REGIONS ACCESSED: 0
L1D REGIONS CONFLICTS: 0
L1D Cross Page Prefetch Requests: 7428372
L1D Same Page Prefetch Requests: 55608338
L1D ROI Sum of L1D PQ occupancy: 9872648830
L1D PREFETCHES PUSHED FROM L2C: 0
L1I SPEC fills:          0  NON-SPEC fills:          0
L1I Test counter :          0
L1I Leapfrog:          0
L1I MSHR merge:          0
L1I TOTAL     ACCESS:   33603044  HIT:   33603044  MISS:          0  HIT %:        100  MISS %:          0   MPKI: 0
L1I LOAD      TOTAL       ACCESS:   33603044  HIT:   33603044  MISS:          0  HIT %:        100  MISS %:          0   MPKI: 0
L1I LOAD      NON_SPEC    ACCESS:   33603044  HIT:   33603044  MISS:          0  HIT %:        100  MISS %:          0   MPKI: 0
L1I PREFETCH  REQUESTED:          0  ISSUED:          0  USEFUL:          0  USELESS:          0
L1I USEFUL LOAD PREFETCHES:          0 PREFETCH ISSUED TO LOWER LEVEL:          0  ACCURACY: -nan
L1I TIMELY PREFETCHES:          0 LATE PREFETCHES: 0 DROPPED PREFETCHES: 0
L1I COMMIT LATE PREFETCHES: 0 MISSED OPPORTUNITY: 0 LATE IN PQ: 0 UNCOVERED: 0
L1I COMMIT LATE MSHR PREFETCHES: 0
L1I MPKI TOTAL: 0 MSHR LATE: 0 PQ LATE: 0 COMMIT LATE: 0 MISSED OPPORTUNITY: 0 UNCOVERED: 0
L1I PREFETCHES SAME FILL-ORIGIN LEVEL: 0 DIFFERENT FILL-ORIGIN LEVEL: 0
L1I AVERAGE MISS LATENCY: -nan cycles
L1I AVERAGE MISS LATENCY LOAD: -nan cycles
L1I AVERAGE MISS LATENCY PREFETCH: -nan cycles
L1I AVERAGE MSHR OCCUPANCY: 0
L1I MSHR FULL: 0
L1I RQ	ACCESS:   57231262	FORWARD:          0	MERGED:   23628219	TO_CACHE:   33603043

BTB SPEC fills:          0  NON-SPEC fills:          0
BTB Test counter :          0
BTB Leapfrog:          0
BTB MSHR merge:          0
BTB TOTAL     ACCESS:   20480052  HIT:   20480047  MISS:          5  HIT %:        100  MISS %: 2.4414e-05   MPKI: 2.5e-05
BTB BRANCH_DIRECT_JUMP	ACCESS:    2986818  HIT:    2986817  MISS:          1
BTB BRANCH_INDIRECT	ACCESS:          0  HIT:          0  MISS:          0
BTB BRANCH_CONDITIONAL	ACCESS:    8746602  HIT:    8746600  MISS:          2
BTB BRANCH_DIRECT_CALL	ACCESS:    4373316  HIT:    4373315  MISS:          1
BTB BRANCH_INDIRECT_CALL	ACCESS:          0  HIT:          0  MISS:          0
BTB BRANCH_RETURN	ACCESS:    4373316  HIT:    4373315  MISS:          1
BTB BRANCH_OTHER ACCESS:          0  HIT:          0  MISS:          0

L2C SPEC fills:          0  NON-SPEC fills:     112580
L2C Test counter :          0
L2C Leapfrog:          0
L2C MSHR merge:      18300
L2C TOTAL     ACCESS:   66231547  HIT:   41504869  MISS:   24726678  HIT %:    62.6663  MISS %:    37.3337   MPKI: 123.633
L2C LOAD      TOTAL       ACCESS:    4396845  HIT:    1370660  MISS:    3026185  HIT %:    31.1737  MISS %:    68.8263   MPKI: 15.1309
L2C LOAD      NON_SPEC    ACCESS:     165976  HIT:      53396  MISS:     112580  HIT %:    32.1709  MISS %:    67.8291   MPKI: 0.5629
L2C LOAD      SPEC        ACCESS:    4230869  HIT:    1317264  MISS:    2913605  HIT %:    31.1346  MISS %:    68.8654   MPKI: 14.568
L2C RFO       NON_SPEC    ACCESS:    8748461  HIT:       3156  MISS:    8745305  HIT %:  0.0360749  MISS %:    99.9639   MPKI: 43.7265
L2C PREFETCH  NON_SPEC    ACCESS:    6773068  HIT:     885984  MISS:    5887084  HIT %:     13.081  MISS %:     86.919   MPKI: 29.4354
L2C WRITEBACK NON_SPEC    ACCESS:   13617757  HIT:   13617296  MISS:        461  HIT %:    99.9966  MISS %: 0.00338529   MPKI: 0.002305
L2C CLEAN_EVICTION NON_SPEC    ACCESS:    3737973  HIT:     948112  MISS:    2789861  HIT %:    25.3643  MISS %:    74.6357   MPKI: 13.9493
L2C COMMIT LOAD NON_SPEC    ACCESS:     224189  HIT:      85398  MISS:     138791  HIT %:     38.092  MISS %:     61.908   MPKI: 0.693955
L2C LOAD TRANSLATION NON_SPEC    ACCESS:   23941431  HIT:   19817753  MISS:    4123678  HIT %:     82.776  MISS %:     17.224   MPKI: 20.6184
L2C TRANSLATION FROM L1D PREFETCHER NON_SPEC    ACCESS:    4791823  HIT:    4776510  MISS:      15313  HIT %:    99.6804  MISS %:   0.319565   MPKI: 0.076565
L2C PREFETCH  REQUESTED:          0  ISSUED:          0  USEFUL:     297647  USELESS:    5604819
L2C USEFUL LOAD PREFETCHES:     297647 PREFETCH ISSUED TO LOWER LEVEL:    5905576  ACCURACY: 5.0401
L2C TIMELY PREFETCHES:     297647 LATE PREFETCHES: 18492 DROPPED PREFETCHES: 0
L2C COMMIT LATE PREFETCHES: 0 MISSED OPPORTUNITY: 0 LATE IN PQ: 0 UNCOVERED: 0
L2C COMMIT LATE MSHR PREFETCHES: 0
L2C MPKI TOTAL: 15.1309 MSHR LATE: 0.09246 PQ LATE: 0 COMMIT LATE: 0 MISSED OPPORTUNITY: 0 UNCOVERED: 0
L2C PREFETCHES SAME FILL-ORIGIN LEVEL: 1495827 DIFFERENT FILL-ORIGIN LEVEL: 0
L2C AVERAGE MISS LATENCY: 228.163 cycles
L2C AVERAGE MISS LATENCY LOAD: 101.923 cycles
L2C AVERAGE MISS LATENCY PREFETCH: 315.93 cycles
L2C AVERAGE MSHR OCCUPANCY: 3.11368
L2C MSHR FULL: 0.000107131
L2C RQ	ACCESS:   42102849	FORWARD:          0	MERGED:          0	TO_CACHE:   42102752
L2C WQ	ACCESS:   17355732	FORWARD:        100	MERGED:          2	TO_CACHE:   17355730
L2C PQ	ACCESS:    7055877	FORWARD:          0	MERGED:        302	TO_CACHE:    7055572

L2C Instructions Evicting Data 0
L2C Translations Evicting Data 3351340
L2C Data Evicting Data 12059172
L2C Instructions Evicting Instructions 0
L2C Translations Evicting Instructions 0
L2C Data Evicting Instructions 0
L2C Instructions Evicting Translations 0
L2C Translations Evicting Translations 787651
L2C Data Evicting Translations 2824588
L2C Dense regions hint from L2: 0
PSCL5 SPEC fills:          0  NON-SPEC fills:          0
PSCL5 Test counter :          0
PSCL5 Leapfrog:          0
PSCL5 MSHR merge:          0
PSCL5 TOTAL     ACCESS:          0  HIT:          0  MISS:          0  HIT %:       -nan  MISS %:       -nan   MPKI: 0
PSCL5 PREFETCH  REQUESTED:          0  ISSUED:          0  USEFUL:          0  USELESS:          0
PSCL5 USEFUL LOAD PREFETCHES:          0 PREFETCH ISSUED TO LOWER LEVEL:          0  ACCURACY: -nan
PSCL5 TIMELY PREFETCHES:          0 LATE PREFETCHES: 0 DROPPED PREFETCHES: 0
PSCL5 COMMIT LATE PREFETCHES: 0 MISSED OPPORTUNITY: 0 LATE IN PQ: 0 UNCOVERED: 0
PSCL5 COMMIT LATE MSHR PREFETCHES: 0
PSCL5 MPKI TOTAL: 0 MSHR LATE: 0 PQ LATE: 0 COMMIT LATE: 0 MISSED OPPORTUNITY: 0 UNCOVERED: 0
PSCL5 PREFETCHES SAME FILL-ORIGIN LEVEL: 0 DIFFERENT FILL-ORIGIN LEVEL: 0

PSCL4 SPEC fills:          0  NON-SPEC fills:          0
PSCL4 Test counter :          0
PSCL4 Leapfrog:          0
PSCL4 MSHR merge:          0
PSCL4 TOTAL     ACCESS:          0  HIT:          0  MISS:          0  HIT %:       -nan  MISS %:       -nan   MPKI: 0
PSCL4 PREFETCH  REQUESTED:          0  ISSUED:          0  USEFUL:          0  USELESS:          0
PSCL4 USEFUL LOAD PREFETCHES:          0 PREFETCH ISSUED TO LOWER LEVEL:          0  ACCURACY: -nan
PSCL4 TIMELY PREFETCHES:          0 LATE PREFETCHES: 0 DROPPED PREFETCHES: 0
PSCL4 COMMIT LATE PREFETCHES: 0 MISSED OPPORTUNITY: 0 LATE IN PQ: 0 UNCOVERED: 0
PSCL4 COMMIT LATE MSHR PREFETCHES: 0
PSCL4 MPKI TOTAL: 0 MSHR LATE: 0 PQ LATE: 0 COMMIT LATE: 0 MISSED OPPORTUNITY: 0 UNCOVERED: 0
PSCL4 PREFETCHES SAME FILL-ORIGIN LEVEL: 0 DIFFERENT FILL-ORIGIN LEVEL: 0

PSCL3 SPEC fills:          0  NON-SPEC fills:          0
PSCL3 Test counter :          0
PSCL3 Leapfrog:          0
PSCL3 MSHR merge:          0
PSCL3 TOTAL     ACCESS:          0  HIT:          0  MISS:          0  HIT %:       -nan  MISS %:       -nan   MPKI: 0
PSCL3 PREFETCH  REQUESTED:          0  ISSUED:          0  USEFUL:          0  USELESS:          0
PSCL3 USEFUL LOAD PREFETCHES:          0 PREFETCH ISSUED TO LOWER LEVEL:          0  ACCURACY: -nan
PSCL3 TIMELY PREFETCHES:          0 LATE PREFETCHES: 0 DROPPED PREFETCHES: 0
PSCL3 COMMIT LATE PREFETCHES: 0 MISSED OPPORTUNITY: 0 LATE IN PQ: 0 UNCOVERED: 0
PSCL3 COMMIT LATE MSHR PREFETCHES: 0
PSCL3 MPKI TOTAL: 0 MSHR LATE: 0 PQ LATE: 0 COMMIT LATE: 0 MISSED OPPORTUNITY: 0 UNCOVERED: 0
PSCL3 PREFETCHES SAME FILL-ORIGIN LEVEL: 0 DIFFERENT FILL-ORIGIN LEVEL: 0

PSCL2 SPEC fills:          0  NON-SPEC fills:          0
PSCL2 Test counter :          0
PSCL2 Leapfrog:          0
PSCL2 MSHR merge:          0
PSCL2 TOTAL     ACCESS:          0  HIT:          0  MISS:          0  HIT %:       -nan  MISS %:       -nan   MPKI: 0
PSCL2 PREFETCH  REQUESTED:          0  ISSUED:          0  USEFUL:          0  USELESS:          0
PSCL2 USEFUL LOAD PREFETCHES:          0 PREFETCH ISSUED TO LOWER LEVEL:          0  ACCURACY: -nan
PSCL2 TIMELY PREFETCHES:          0 LATE PREFETCHES: 0 DROPPED PREFETCHES: 0
PSCL2 COMMIT LATE PREFETCHES: 0 MISSED OPPORTUNITY: 0 LATE IN PQ: 0 UNCOVERED: 0
PSCL2 COMMIT LATE MSHR PREFETCHES: 0
PSCL2 MPKI TOTAL: 0 MSHR LATE: 0 PQ LATE: 0 COMMIT LATE: 0 MISSED OPPORTUNITY: 0 UNCOVERED: 0
PSCL2 PREFETCHES SAME FILL-ORIGIN LEVEL: 0 DIFFERENT FILL-ORIGIN LEVEL: 0

LLC SPEC fills:          0  NON-SPEC fills:      30178
LLC Test counter :          0
LLC Leapfrog:          0
LLC MSHR merge:          0
LLC TOTAL     ACCESS:   38671416  HIT:   19398143  MISS:   19273273  HIT %:    50.1614  MISS %:    49.8386   MPKI: 96.3664
LLC LOAD      TOTAL       ACCESS:    3007850  HIT:    2121065  MISS:     886785  HIT %:    70.5176  MISS %:    29.4824   MPKI: 4.43393
LLC LOAD      NON_SPEC    ACCESS:     112280  HIT:      82102  MISS:      30178  HIT %:    73.1226  MISS %:    26.8774   MPKI: 0.15089
LLC LOAD      SPEC        ACCESS:    2895570  HIT:    2038963  MISS:     856607  HIT %:    70.4166  MISS %:    29.5834   MPKI: 4.28303
LLC RFO       NON_SPEC    ACCESS:    8745305  HIT:      47558  MISS:    8697747  HIT %:   0.543812  MISS %:    99.4562   MPKI: 43.4887
LLC PREFETCH  NON_SPEC    ACCESS:    5905573  HIT:     490887  MISS:    5414686  HIT %:    8.31227  MISS %:    91.6877   MPKI: 27.0734
LLC WRITEBACK NON_SPEC    ACCESS:   13569523  HIT:   13569237  MISS:        286  HIT %:    99.9979  MISS %: 0.00210766   MPKI: 0.00143
LLC CLEAN_EVICTION NON_SPEC    ACCESS:    3165575  HIT:    2087812  MISS:    1077763  HIT %:    65.9536  MISS %:    34.0464   MPKI: 5.38882
LLC COMMIT LOAD NON_SPEC    ACCESS:     138599  HIT:     112214  MISS:      26385  HIT %:    80.9631  MISS %:    19.0369   MPKI: 0.131925
LLC LOAD TRANSLATION NON_SPEC    ACCESS:    4123678  HIT:     965732  MISS:    3157946  HIT %:    23.4192  MISS %:    76.5808   MPKI: 15.7897
LLC TRANSLATION FROM L1D PREFETCHER NON_SPEC    ACCESS:      15313  HIT:       3638  MISS:      11675  HIT %:    23.7576  MISS %:    76.2424   MPKI: 0.058375
LLC PREFETCH  REQUESTED:          0  ISSUED:          0  USEFUL:      62495  USELESS:    5363226
LLC USEFUL LOAD PREFETCHES:      62495 PREFETCH ISSUED TO LOWER LEVEL:    5414686  ACCURACY: 1.15418
LLC TIMELY PREFETCHES:      62495 LATE PREFETCHES: 0 DROPPED PREFETCHES: 0
LLC COMMIT LATE PREFETCHES: 0 MISSED OPPORTUNITY: 0 LATE IN PQ: 0 UNCOVERED: 0
LLC COMMIT LATE MSHR PREFETCHES: 0
LLC MPKI TOTAL: 4.43393 MSHR LATE: 0 PQ LATE: 0 COMMIT LATE: 0 MISSED OPPORTUNITY: 0 UNCOVERED: 0
LLC PREFETCHES SAME FILL-ORIGIN LEVEL: 0 DIFFERENT FILL-ORIGIN LEVEL: 0
LLC AVERAGE MISS LATENCY: 259.923 cycles
LLC AVERAGE MISS LATENCY LOAD: 270.936 cycles
LLC AVERAGE MISS LATENCY PREFETCH: 311.748 cycles
LLC AVERAGE MSHR OCCUPANCY: 2.83383
LLC MSHR FULL: 0
LLC RQ	ACCESS:   16030780	FORWARD:          0	MERGED:          0	TO_CACHE:   16030745
LLC WQ	ACCESS:   16735098	FORWARD:         38	MERGED:          0	TO_CACHE:   16735098
LLC PQ	ACCESS:    5905576	FORWARD:          0	MERGED:          0	TO_CACHE:    5905573

LLC Dense regions hint to LLC: 0

RAW hits: 13586427
Loads Generated: 83093086
Loads sent to L1D: 69506660
Stores Generated: 69973136
Stores sent to L1D: 69973102
Major fault: 0 Minor fault: 318411
Allocated PAGES: 318411
Total Load insts: 88770795
Total Non-spec loads: 28033913
Percentage of speculative loads: 68.4199

LeapFrogging counter: 282978
Commit hits: 19586374 miss: 31545952
Commit hit %: 38.3053 miss %: 61.6947
Commits not translated: 0
Loads retired: 4531042
Stores retired: 69973102
Cache fills: 4531044
L1D response latency: 86.729 cycles
Load retirement latency: 658.186 cycles
OOO test counter: 0
Discarded buffer inserts: 19586374 hits: 2370 hit %: 0.0121002
Filter prediction accuracy: 99.9809
LATENCY_FILL: 86.1524 4525558

DRAM Statistics
 CHANNEL 0
 RQ ROW_BUFFER_HIT:     958277  ROW_BUFFER_MISS:   17234685
 DBUS_CONGESTED:        122
 WQ ROW_BUFFER_HIT:    4430214  ROW_BUFFER_MISS:   10328107  FULL:       1458

 AVG_CONGESTED_CYCLE: 5
 All warmup complete: 2
Channel 0 Bank busy for read cycles: 0
Channel 0 Bank busy for write cycles: 0
Channel 0
Rank 0
0banks busy for read cycles: 3032252
0banks busy for write cycles: 339
1banks busy for read cycles: 192173771
1banks busy for write cycles: 3031491
2banks busy for read cycles: 208973688
2banks busy for write cycles: 3029601
3banks busy for read cycles: 254593984
3banks busy for write cycles: 3112675
4banks busy for read cycles: 123699451
4banks busy for write cycles: 5466253
5banks busy for read cycles: 66714516
5banks busy for write cycles: 11033230
6banks busy for read cycles: 35385902
6banks busy for write cycles: 26284704
7banks busy for read cycles: 19832324
7banks busy for write cycles: 96241224
8banks busy for read cycles: 22014284
8banks busy for write cycles: 309953769

CPU 0 Branch Prediction Accuracy: 95.2594% MPKI: 5.89096 Average ROB Occupancy at Mispredict: 145.829
Branch types
NOT_BRANCH: 175146465 87.5732%
BRANCH_DIRECT_JUMP: 2986818 1.49341%
BRANCH_INDIRECT: 0 0%
BRANCH_CONDITIONAL: 13119949 6.55997%
BRANCH_DIRECT_CALL: 4373316 2.18666%
BRANCH_INDIRECT_CALL: 0 0%
BRANCH_RETURN: 4373316 2.18666%
BRANCH_OTHER: 0 0%

DRAM PAGES: 1048576
Allocated PAGES: 318411
