
*** ChampSim Multicore Out-of-Order Simulator ***

Warmup Instructions: 50000000
Simulation Instructions: 200000000
Number of CPUs: 1
LLC sets: 2048
LLC ways: 16
L0D sets: 16
L0D ways: 2
ROB size: 352
LQ size: 128
SQ size: 72
Secure Berti: OFF
Berti: OFF
Berti Fill: OFF
On commit prefetching: OFF
Hit-based filter: ON
Time-guarding: ON
Free-slotting: ON
Leap-frogging: ON
Train prefetcher on L0D bypass: OFF
No translation penalty for prefetchers: OFF
Prefetch to L0D only: OFF
Prefetch to L1D only: OFF
Clean evictions: ON
Commit loads: ON
Commit write: ON
Fill commit loads to L2C, LLC: ON
DRAM IO FREQUENCY: 6400
ROB SIZE: 352
Off-chip DRAM Size: 4096 MB Channels: 1 Width: 64-bit Data Rate: 6400 MT/s
CPU 0 runs /home/sumon/secure_berti/GhostMinion/../../traces/spec/605.mcf_s-472B.champsimtrace.xz
.xz
BTB has LRU replacement policy
ITLB has LRU replacement policy
DTLB has LRU replacement policy
STLB has LRU replacement policy
L1I has LRU replacement policy
L0D has LRU replacement policy
History Sets: 8
History Ways: 16
BERTI Size: 16
BERTI Stride Size: 16
L1D has LRU replacement policy
L2C has LRU replacement policy
LLC has LRU replacement policy
Heartbeat CPU 0 instructions: 10000001 cycles: 5534499 heartbeat IPC: 1.80685 cumulative IPC: 1.80685 (Simulation time: 0 hr 0 min 44 sec) 
Heartbeat CPU 0 instructions: 20000001 cycles: 10709159 heartbeat IPC: 1.93249 cumulative IPC: 1.86756 (Simulation time: 0 hr 1 min 33 sec) 
Heartbeat CPU 0 instructions: 30000003 cycles: 15739736 heartbeat IPC: 1.98784 cumulative IPC: 1.906 (Simulation time: 0 hr 2 min 23 sec) 
Heartbeat CPU 0 instructions: 40000001 cycles: 21291288 heartbeat IPC: 1.8013 cumulative IPC: 1.8787 (Simulation time: 0 hr 3 min 6 sec) 
Heartbeat CPU 0 instructions: 50000001 cycles: 26698291 heartbeat IPC: 1.84945 cumulative IPC: 1.87278 (Simulation time: 0 hr 3 min 50 sec) 

Warmup complete CPU 0 instructions: 50000001 cycles: 26698291 (Simulation time: 0 hr 3 min 50 sec) 

Heartbeat CPU 0 instructions: 60000001 cycles: 47589776 heartbeat IPC: 0.478664 cumulative IPC: 0.478664 (Simulation time: 0 hr 4 min 49 sec) 
Heartbeat CPU 0 instructions: 70000003 cycles: 67696997 heartbeat IPC: 0.497334 cumulative IPC: 0.48782 (Simulation time: 0 hr 5 min 45 sec) 
Heartbeat CPU 0 instructions: 80000002 cycles: 91805412 heartbeat IPC: 0.414793 cumulative IPC: 0.460779 (Simulation time: 0 hr 6 min 49 sec) 
Heartbeat CPU 0 instructions: 90000000 cycles: 111420722 heartbeat IPC: 0.509806 cumulative IPC: 0.47213 (Simulation time: 0 hr 7 min 45 sec) 
Heartbeat CPU 0 instructions: 100000002 cycles: 134675434 heartbeat IPC: 0.43002 cumulative IPC: 0.463061 (Simulation time: 0 hr 8 min 49 sec) 
Heartbeat CPU 0 instructions: 110000000 cycles: 155932505 heartbeat IPC: 0.470432 cumulative IPC: 0.464273 (Simulation time: 0 hr 9 min 44 sec) 
Heartbeat CPU 0 instructions: 120000002 cycles: 178610563 heartbeat IPC: 0.440955 cumulative IPC: 0.460792 (Simulation time: 0 hr 10 min 42 sec) 
Heartbeat CPU 0 instructions: 130000002 cycles: 202780174 heartbeat IPC: 0.413743 cumulative IPC: 0.454334 (Simulation time: 0 hr 11 min 44 sec) 
Heartbeat CPU 0 instructions: 140000000 cycles: 225888343 heartbeat IPC: 0.432747 cumulative IPC: 0.45183 (Simulation time: 0 hr 12 min 46 sec) 
Heartbeat CPU 0 instructions: 150000002 cycles: 248992251 heartbeat IPC: 0.432827 cumulative IPC: 0.449855 (Simulation time: 0 hr 13 min 46 sec) 
Heartbeat CPU 0 instructions: 160000003 cycles: 272252093 heartbeat IPC: 0.429926 cumulative IPC: 0.447967 (Simulation time: 0 hr 14 min 44 sec) 
Heartbeat CPU 0 instructions: 170000001 cycles: 294261712 heartbeat IPC: 0.454347 cumulative IPC: 0.448492 (Simulation time: 0 hr 15 min 39 sec) 
Heartbeat CPU 0 instructions: 180000002 cycles: 312982737 heartbeat IPC: 0.534159 cumulative IPC: 0.454094 (Simulation time: 0 hr 16 min 31 sec) 
Heartbeat CPU 0 instructions: 190000001 cycles: 338248159 heartbeat IPC: 0.395798 cumulative IPC: 0.449366 (Simulation time: 0 hr 17 min 32 sec) 
Heartbeat CPU 0 instructions: 200000002 cycles: 358983039 heartbeat IPC: 0.482279 cumulative IPC: 0.45142 (Simulation time: 0 hr 18 min 25 sec) 
Heartbeat CPU 0 instructions: 210000003 cycles: 381420641 heartbeat IPC: 0.44568 cumulative IPC: 0.451057 (Simulation time: 0 hr 19 min 17 sec) 
Heartbeat CPU 0 instructions: 220000000 cycles: 404288492 heartbeat IPC: 0.437295 cumulative IPC: 0.450224 (Simulation time: 0 hr 20 min 12 sec) 
Heartbeat CPU 0 instructions: 230000001 cycles: 426236321 heartbeat IPC: 0.455626 cumulative IPC: 0.45052 (Simulation time: 0 hr 21 min 5 sec) 
Heartbeat CPU 0 instructions: 240000002 cycles: 453329742 heartbeat IPC: 0.369093 cumulative IPC: 0.445349 (Simulation time: 0 hr 22 min 2 sec) 
Heartbeat CPU 0 instructions: 250000000 cycles: 482692623 heartbeat IPC: 0.340566 cumulative IPC: 0.438602 (Simulation time: 0 hr 22 min 59 sec) 
Finished CPU 0 instructions: 200000000 cycles: 455994333 cumulative IPC: 0.438602 (Simulation time: 0 hr 22 min 59 sec) 
 Instruction ID: 250000198

ChampSim completed all CPUs

Region of Interest Statistics

CPU 0 cumulative IPC: 0.438602 instructions: 200000000 cycles: 455994333
ITLB SPEC fills:          0  NON-SPEC fills:          0
ITLB Test counter :          0
ITLB Leapfrog:          0
ITLB MSHR merge:          0
ITLB TOTAL     ACCESS:   33966677  HIT:   33966677  MISS:          0  HIT %:        100  MISS %:          0   MPKI: 0
ITLB LOAD TRANSLATION NON_SPEC    ACCESS:   33966677  HIT:   33966677  MISS:          0  HIT %:        100  MISS %:          0   MPKI: 0
ITLB PREFETCH  REQUESTED:          0  ISSUED:          0  USEFUL:          0  USELESS:          0
ITLB USEFUL LOAD PREFETCHES:          0 PREFETCH ISSUED TO LOWER LEVEL:          0  ACCURACY: -nan
ITLB TIMELY PREFETCHES:          0 LATE PREFETCHES: 0 DROPPED PREFETCHES: 0
ITLB COMMIT LATE PREFETCHES: 0 MISSED OPPORTUNITY: 0 LATE IN PQ: 0 UNCOVERED: 0
ITLB COMMIT LATE MSHR PREFETCHES: 0
ITLB MPKI TOTAL: 0 MSHR LATE: 0 PQ LATE: 0 COMMIT LATE: 0 MISSED OPPORTUNITY: 0 UNCOVERED: 0
ITLB PREFETCHES SAME FILL-ORIGIN LEVEL: 0 DIFFERENT FILL-ORIGIN LEVEL: 0
ITLB AVERAGE MISS LATENCY: -nan cycles
ITLB AVERAGE MISS LATENCY LOAD: -nan cycles
ITLB AVERAGE MISS LATENCY PREFETCH: -nan cycles
ITLB AVERAGE MSHR OCCUPANCY: 0
ITLB MSHR FULL: 0
ITLB RQ	ACCESS:   43993847	FORWARD:          0	MERGED:   10027171	TO_CACHE:   33966676

DTLB SPEC fills:          0  NON-SPEC fills:          0
DTLB Test counter :          0
DTLB Leapfrog:          0
DTLB MSHR merge:          0
DTLB TOTAL     ACCESS:   57249403  HIT:   56533921  MISS:     715482  HIT %:    98.7502  MISS %:    1.24976   MPKI: 3.57741
DTLB LOAD TRANSLATION NON_SPEC    ACCESS:   57249403  HIT:   56533921  MISS:     715482  HIT %:    98.7502  MISS %:    1.24976   MPKI: 3.57741
DTLB PREFETCH  REQUESTED:          0  ISSUED:          0  USEFUL:          0  USELESS:          0
DTLB USEFUL LOAD PREFETCHES:          0 PREFETCH ISSUED TO LOWER LEVEL:          0  ACCURACY: -nan
DTLB TIMELY PREFETCHES:          0 LATE PREFETCHES: 0 DROPPED PREFETCHES: 0
DTLB COMMIT LATE PREFETCHES: 0 MISSED OPPORTUNITY: 0 LATE IN PQ: 0 UNCOVERED: 0
DTLB COMMIT LATE MSHR PREFETCHES: 0
DTLB MPKI TOTAL: 0 MSHR LATE: 0 PQ LATE: 0 COMMIT LATE: 0 MISSED OPPORTUNITY: 0 UNCOVERED: 0
DTLB PREFETCHES SAME FILL-ORIGIN LEVEL: 0 DIFFERENT FILL-ORIGIN LEVEL: 0
DTLB AVERAGE MISS LATENCY: 24.5875 cycles
DTLB AVERAGE MISS LATENCY LOAD: -nan cycles
DTLB AVERAGE MISS LATENCY PREFETCH: -nan cycles
DTLB AVERAGE MSHR OCCUPANCY: 0.0196076
DTLB MSHR FULL: 0
DTLB RQ	ACCESS:   92333760	FORWARD:          0	MERGED:   34970301	TO_CACHE:   57363459

STLB SPEC fills:          0  NON-SPEC fills:          0
STLB Test counter :          0
STLB Leapfrog:          0
STLB MSHR merge:          0
STLB TOTAL     ACCESS:   13148943  HIT:   12889527  MISS:     259416  HIT %:    98.0271  MISS %:     1.9729   MPKI: 1.29708
STLB LOAD TRANSLATION NON_SPEC    ACCESS:     715482  HIT:     656875  MISS:      58607  HIT %:    91.8087  MISS %:    8.19126   MPKI: 0.293035
STLB TRANSLATION FROM L1D PREFETCHER NON_SPEC    ACCESS:   12433461  HIT:   12232652  MISS:     200809  HIT %:    98.3849  MISS %:    1.61507   MPKI: 1.00405
STLB PREFETCH  REQUESTED:          0  ISSUED:          0  USEFUL:     200766  USELESS:         44
STLB USEFUL LOAD PREFETCHES:     200766 PREFETCH ISSUED TO LOWER LEVEL:          0  ACCURACY: inf
STLB TIMELY PREFETCHES:     200766 LATE PREFETCHES: 15315 DROPPED PREFETCHES: 163788
STLB COMMIT LATE PREFETCHES: 0 MISSED OPPORTUNITY: 0 LATE IN PQ: 0 UNCOVERED: 0
STLB COMMIT LATE MSHR PREFETCHES: 0
STLB MPKI TOTAL: 0 MSHR LATE: 0.076575 PQ LATE: 0 COMMIT LATE: 0 MISSED OPPORTUNITY: 0 UNCOVERED: 0
STLB PREFETCHES SAME FILL-ORIGIN LEVEL: 0 DIFFERENT FILL-ORIGIN LEVEL: 0
STLB AVERAGE MISS LATENCY: 130.563 cycles
STLB AVERAGE MISS LATENCY LOAD: -nan cycles
STLB AVERAGE MISS LATENCY PREFETCH: -nan cycles
STLB AVERAGE MSHR OCCUPANCY: 0.0862861
STLB MSHR FULL: 0
STLB RQ	ACCESS:   46475566	FORWARD:          0	MERGED:   33020412	TO_CACHE:   13455154

STLB Hit, L1D data hit: 0
STLB Hit, L2C data hit: 0
STLB Hit, LLC data hit: 0
STLB Hit, LLC data miss: 0
STLB STLB hints to L2: 0
L0D SPEC fills:   29855982  NON-SPEC fills:          0
L0D TimeGuard Request with older TS:     769202 Restricted eviction:     279332 read:     830848
L0D Test counter :          0
L0D Leapfrog:          0
L0D MSHR merge:    2205947
L0D TOTAL     ACCESS:   43879397  HIT:    6339753  MISS:   37539644  HIT %:    14.4481  MISS %:    85.5519   MPKI: 187.698
L0D LOAD      TOTAL       ACCESS:   43879397  HIT:    6339753  MISS:   37539644  HIT %:    14.4481  MISS %:    85.5519   MPKI: 187.698
L0D LOAD      NON_SPEC    ACCESS:    7899988  HIT:     495658  MISS:    7404330  HIT %:    6.27416  MISS %:    93.7258   MPKI: 37.0217
L0D LOAD      SPEC        ACCESS:   35979409  HIT:    5844095  MISS:   30135314  HIT %:    16.2429  MISS %:    83.7571   MPKI: 150.677
L0D PREFETCH  REQUESTED:          0  ISSUED:          0  USEFUL:          0  USELESS:          0
L0D USEFUL LOAD PREFETCHES:          0 PREFETCH ISSUED TO LOWER LEVEL:          0  ACCURACY: -nan
L0D TIMELY PREFETCHES:          0 LATE PREFETCHES: 0 DROPPED PREFETCHES: 0
L0D COMMIT LATE PREFETCHES: 0 MISSED OPPORTUNITY: 0 LATE IN PQ: 0 UNCOVERED: 0
L0D COMMIT LATE MSHR PREFETCHES: 0
L0D MPKI TOTAL: 198.728 MSHR LATE: 0 PQ LATE: 0 COMMIT LATE: 0 MISSED OPPORTUNITY: 0 UNCOVERED: 0
L0D PREFETCHES SAME FILL-ORIGIN LEVEL: 0 DIFFERENT FILL-ORIGIN LEVEL: 0
L0D AVERAGE MISS LATENCY: 20.2736 cycles
L0D AVERAGE MISS LATENCY LOAD: 20.2736 cycles
L0D AVERAGE MISS LATENCY PREFETCH: -nan cycles
L0D AVERAGE MSHR OCCUPANCY: 2.6862
L0D MSHR FULL: 0.159566
L0D RQ	ACCESS:   66810549	FORWARD:          0	MERGED:   20725207	TO_CACHE:   46085342
L0D WQ	ACCESS:   46248418	FORWARD:          0	MERGED:          0	TO_CACHE:   46248418

L1D SPEC fills:          0  NON-SPEC fills:     560074
L1D Test counter :          0
L1D Leapfrog:          0
L1D MSHR merge:    1175982
L1D TOTAL     ACCESS:  106856647  HIT:   90901055  MISS:   15955592  HIT %:    85.0682  MISS %:    14.9318   MPKI: 79.778
L1D LOAD      TOTAL       ACCESS:   37536690  HIT:   32095045  MISS:    5441645  HIT %:    85.5031  MISS %:    14.4969   MPKI: 27.2082
L1D LOAD      NON_SPEC    ACCESS:    7403120  HIT:    6843046  MISS:     560074  HIT %:    92.4346  MISS %:    7.56538   MPKI: 2.80037
L1D LOAD      SPEC        ACCESS:   30133570  HIT:   25251999  MISS:    4881571  HIT %:    83.8002  MISS %:    16.1998   MPKI: 24.4079
L1D RFO       NON_SPEC    ACCESS:   44207478  HIT:   43769533  MISS:     437945  HIT %:    99.0093  MISS %:   0.990658   MPKI: 2.18973
L1D PREFETCH  NON_SPEC    ACCESS:   18907505  HIT:   13390434  MISS:    5517071  HIT %:    70.8207  MISS %:    29.1793   MPKI: 27.5854
L1D COMMIT LOAD NON_SPEC    ACCESS:    1472099  HIT:    1355792  MISS:     116307  HIT %:    92.0992  MISS %:    7.90076   MPKI: 0.581535
L1D COMMIT WRITE NON_SPEC    ACCESS:    4732875  HIT:     290251  MISS:    4442624  HIT %:    6.13266  MISS %:    93.8673   MPKI: 22.2131
L1D PREFETCH  REQUESTED:   87580908  ISSUED:   52645337  USEFUL:    4928349  USELESS:     588866
L1D USEFUL LOAD PREFETCHES:    4928349 PREFETCH ISSUED TO LOWER LEVEL:   43036181  ACCURACY: 11.4516
L1D TIMELY PREFETCHES:    4928349 LATE PREFETCHES: 1174838 DROPPED PREFETCHES: 384926
L1D COMMIT LATE PREFETCHES: 0 MISSED OPPORTUNITY: 0 LATE IN PQ: 0 UNCOVERED: 0
L1D COMMIT LATE MSHR PREFETCHES: 0
L1D MPKI TOTAL: 27.223 MSHR LATE: 5.87419 PQ LATE: 0 COMMIT LATE: 0 MISSED OPPORTUNITY: 0 UNCOVERED: 0
L1D PREFETCHES SAME FILL-ORIGIN LEVEL: 8103712 DIFFERENT FILL-ORIGIN LEVEL: 34932469
L1D AVERAGE MISS LATENCY: 100.535 cycles
L1D AVERAGE MISS LATENCY LOAD: 100.441 cycles
L1D AVERAGE MISS LATENCY PREFETCH: 166.922 cycles
L1D AVERAGE MSHR OCCUPANCY: 4.94563
L1D MSHR FULL: 0.104152
L1D RQ	ACCESS:   39156746	FORWARD:          0	MERGED:     135932	TO_CACHE:   39018249
L1D WQ	ACCESS:   50981294	FORWARD:       2565	MERGED:     516680	TO_CACHE:   50464614
L1D PQ	ACCESS:   52645337	FORWARD:          0	MERGED:    6885253	TO_CACHE:   45760084

L1D UNIQUE REGIONS ACCESSED: 0
L1D REGIONS CONFLICTS: 0
L1D Cross Page Prefetch Requests: 12337903
L1D Same Page Prefetch Requests: 51719696
L1D ROI Sum of L1D PQ occupancy: 1252055038
L1D PREFETCHES PUSHED FROM L2C: 0
L1I SPEC fills:          0  NON-SPEC fills:          0
L1I Test counter :          0
L1I Leapfrog:          0
L1I MSHR merge:          0
L1I TOTAL     ACCESS:   43993846  HIT:   43993840  MISS:          6  HIT %:        100  MISS %: 1.36383e-05   MPKI: 3e-05
L1I LOAD      TOTAL       ACCESS:   43993846  HIT:   43993840  MISS:          6  HIT %:        100  MISS %: 1.36383e-05   MPKI: 3e-05
L1I LOAD      NON_SPEC    ACCESS:   43993846  HIT:   43993840  MISS:          6  HIT %:        100  MISS %: 1.36383e-05   MPKI: 3e-05
L1I PREFETCH  REQUESTED:          0  ISSUED:          0  USEFUL:          0  USELESS:          0
L1I USEFUL LOAD PREFETCHES:          0 PREFETCH ISSUED TO LOWER LEVEL:          0  ACCURACY: -nan
L1I TIMELY PREFETCHES:          0 LATE PREFETCHES: 0 DROPPED PREFETCHES: 0
L1I COMMIT LATE PREFETCHES: 0 MISSED OPPORTUNITY: 0 LATE IN PQ: 0 UNCOVERED: 0
L1I COMMIT LATE MSHR PREFETCHES: 0
L1I MPKI TOTAL: 3e-05 MSHR LATE: 0 PQ LATE: 0 COMMIT LATE: 0 MISSED OPPORTUNITY: 0 UNCOVERED: 0
L1I PREFETCHES SAME FILL-ORIGIN LEVEL: 0 DIFFERENT FILL-ORIGIN LEVEL: 0
L1I AVERAGE MISS LATENCY: 214 cycles
L1I AVERAGE MISS LATENCY LOAD: 214 cycles
L1I AVERAGE MISS LATENCY PREFETCH: -nan cycles
L1I AVERAGE MSHR OCCUPANCY: 4.54609e-08
L1I MSHR FULL: 0
L1I RQ	ACCESS:   57948680	FORWARD:          0	MERGED:   13954833	TO_CACHE:   43993847

BTB SPEC fills:          0  NON-SPEC fills:          0
BTB Test counter :          0
BTB Leapfrog:          0
BTB MSHR merge:          0
BTB TOTAL     ACCESS:   25427233  HIT:   25427194  MISS:         39  HIT %:    99.9998  MISS %: 0.000153379   MPKI: 0.000195
BTB BRANCH_DIRECT_JUMP	ACCESS:    2120382  HIT:    2120376  MISS:          6
BTB BRANCH_INDIRECT	ACCESS:          0  HIT:          0  MISS:          0
BTB BRANCH_CONDITIONAL	ACCESS:   23306370  HIT:   23306342  MISS:         28
BTB BRANCH_DIRECT_CALL	ACCESS:        241  HIT:        238  MISS:          3
BTB BRANCH_INDIRECT_CALL	ACCESS:          0  HIT:          0  MISS:          0
BTB BRANCH_RETURN	ACCESS:        240  HIT:        238  MISS:          2
BTB BRANCH_OTHER ACCESS:          0  HIT:          0  MISS:          0

L2C SPEC fills:          0  NON-SPEC fills:     217424
L2C Test counter :          0
L2C Leapfrog:          0
L2C MSHR merge:     750728
L2C TOTAL     ACCESS:   31546759  HIT:   17026188  MISS:   14520571  HIT %:    53.9713  MISS %:    46.0287   MPKI: 72.6029
L2C LOAD      TOTAL       ACCESS:    4267856  HIT:    2592379  MISS:    1675477  HIT %:     60.742  MISS %:     39.258   MPKI: 8.37739
L2C LOAD      NON_SPEC    ACCESS:     530063  HIT:     312633  MISS:     217430  HIT %:    58.9803  MISS %:    41.0197   MPKI: 1.08715
L2C LOAD      SPEC        ACCESS:    3737793  HIT:    2279746  MISS:    1458047  HIT %:    60.9918  MISS %:    39.0082   MPKI: 7.29024
L2C RFO       NON_SPEC    ACCESS:     437855  HIT:      24534  MISS:     413321  HIT %:    5.60322  MISS %:    94.3968   MPKI: 2.06661
L2C PREFETCH  NON_SPEC    ACCESS:   21218410  HIT:   10157040  MISS:   11061370  HIT %:     47.869  MISS %:     52.131   MPKI: 55.3068
L2C WRITEBACK NON_SPEC    ACCESS:     612742  HIT:     610343  MISS:       2399  HIT %:    99.6085  MISS %:   0.391519   MPKI: 0.011995
L2C CLEAN_EVICTION NON_SPEC    ACCESS:    2725243  HIT:    1421348  MISS:    1303895  HIT %:    52.1549  MISS %:    47.8451   MPKI: 6.51947
L2C COMMIT LOAD NON_SPEC    ACCESS:     114498  HIT:      91305  MISS:      23193  HIT %:    79.7438  MISS %:    20.2562   MPKI: 0.115965
L2C LOAD TRANSLATION NON_SPEC    ACCESS:     271914  HIT:     262690  MISS:       9224  HIT %:    96.6078  MISS %:    3.39225   MPKI: 0.04612
L2C TRANSLATION FROM L1D PREFETCHER NON_SPEC    ACCESS:    1898241  HIT:    1866549  MISS:      31692  HIT %:    98.3305  MISS %:    1.66955   MPKI: 0.15846
L2C PREFETCH  REQUESTED:          0  ISSUED:          0  USEFUL:    2336194  USELESS:    8759705
L2C USEFUL LOAD PREFETCHES:    2336194 PREFETCH ISSUED TO LOWER LEVEL:   11817545  ACCURACY: 19.7689
L2C TIMELY PREFETCHES:    2336194 LATE PREFETCHES: 756168 DROPPED PREFETCHES: 0
L2C COMMIT LATE PREFETCHES: 0 MISSED OPPORTUNITY: 0 LATE IN PQ: 0 UNCOVERED: 0
L2C COMMIT LATE MSHR PREFETCHES: 0
L2C MPKI TOTAL: 8.37739 MSHR LATE: 3.78084 PQ LATE: 0 COMMIT LATE: 0 MISSED OPPORTUNITY: 0 UNCOVERED: 0
L2C PREFETCHES SAME FILL-ORIGIN LEVEL: 8759170 DIFFERENT FILL-ORIGIN LEVEL: 0
L2C AVERAGE MISS LATENCY: 258.672 cycles
L2C AVERAGE MISS LATENCY LOAD: 181.754 cycles
L2C AVERAGE MISS LATENCY PREFETCH: 299.378 cycles
L2C AVERAGE MSHR OCCUPANCY: 17.9542
L2C MSHR FULL: 0.312986
L2C RQ	ACCESS:    6991182	FORWARD:          0	MERGED:          0	TO_CACHE:    6990367
L2C WQ	ACCESS:    3337986	FORWARD:        817	MERGED:          0	TO_CACHE:    3337986
L2C PQ	ACCESS:   27578366	FORWARD:          0	MERGED:     317501	TO_CACHE:   27260863

L2C Instructions Evicting Data 6
L2C Translations Evicting Data 40875
L2C Data Evicting Data 11678396
L2C Instructions Evicting Instructions 0
L2C Translations Evicting Instructions 0
L2C Data Evicting Instructions 3
L2C Instructions Evicting Translations 0
L2C Translations Evicting Translations 41
L2C Data Evicting Translations 36909
L2C Dense regions hint from L2: 0
PSCL5 SPEC fills:          0  NON-SPEC fills:          0
PSCL5 Test counter :          0
PSCL5 Leapfrog:          0
PSCL5 MSHR merge:          0
PSCL5 TOTAL     ACCESS:          0  HIT:          0  MISS:          0  HIT %:       -nan  MISS %:       -nan   MPKI: 0
PSCL5 PREFETCH  REQUESTED:          0  ISSUED:          0  USEFUL:          0  USELESS:          0
PSCL5 USEFUL LOAD PREFETCHES:          0 PREFETCH ISSUED TO LOWER LEVEL:          0  ACCURACY: -nan
PSCL5 TIMELY PREFETCHES:          0 LATE PREFETCHES: 0 DROPPED PREFETCHES: 0
PSCL5 COMMIT LATE PREFETCHES: 0 MISSED OPPORTUNITY: 0 LATE IN PQ: 0 UNCOVERED: 0
PSCL5 COMMIT LATE MSHR PREFETCHES: 0
PSCL5 MPKI TOTAL: 0 MSHR LATE: 0 PQ LATE: 0 COMMIT LATE: 0 MISSED OPPORTUNITY: 0 UNCOVERED: 0
PSCL5 PREFETCHES SAME FILL-ORIGIN LEVEL: 0 DIFFERENT FILL-ORIGIN LEVEL: 0

PSCL4 SPEC fills:          0  NON-SPEC fills:          0
PSCL4 Test counter :          0
PSCL4 Leapfrog:          0
PSCL4 MSHR merge:          0
PSCL4 TOTAL     ACCESS:          0  HIT:          0  MISS:          0  HIT %:       -nan  MISS %:       -nan   MPKI: 0
PSCL4 PREFETCH  REQUESTED:          0  ISSUED:          0  USEFUL:          0  USELESS:          0
PSCL4 USEFUL LOAD PREFETCHES:          0 PREFETCH ISSUED TO LOWER LEVEL:          0  ACCURACY: -nan
PSCL4 TIMELY PREFETCHES:          0 LATE PREFETCHES: 0 DROPPED PREFETCHES: 0
PSCL4 COMMIT LATE PREFETCHES: 0 MISSED OPPORTUNITY: 0 LATE IN PQ: 0 UNCOVERED: 0
PSCL4 COMMIT LATE MSHR PREFETCHES: 0
PSCL4 MPKI TOTAL: 0 MSHR LATE: 0 PQ LATE: 0 COMMIT LATE: 0 MISSED OPPORTUNITY: 0 UNCOVERED: 0
PSCL4 PREFETCHES SAME FILL-ORIGIN LEVEL: 0 DIFFERENT FILL-ORIGIN LEVEL: 0

PSCL3 SPEC fills:          0  NON-SPEC fills:          0
PSCL3 Test counter :          0
PSCL3 Leapfrog:          0
PSCL3 MSHR merge:          0
PSCL3 TOTAL     ACCESS:          0  HIT:          0  MISS:          0  HIT %:       -nan  MISS %:       -nan   MPKI: 0
PSCL3 PREFETCH  REQUESTED:          0  ISSUED:          0  USEFUL:          0  USELESS:          0
PSCL3 USEFUL LOAD PREFETCHES:          0 PREFETCH ISSUED TO LOWER LEVEL:          0  ACCURACY: -nan
PSCL3 TIMELY PREFETCHES:          0 LATE PREFETCHES: 0 DROPPED PREFETCHES: 0
PSCL3 COMMIT LATE PREFETCHES: 0 MISSED OPPORTUNITY: 0 LATE IN PQ: 0 UNCOVERED: 0
PSCL3 COMMIT LATE MSHR PREFETCHES: 0
PSCL3 MPKI TOTAL: 0 MSHR LATE: 0 PQ LATE: 0 COMMIT LATE: 0 MISSED OPPORTUNITY: 0 UNCOVERED: 0
PSCL3 PREFETCHES SAME FILL-ORIGIN LEVEL: 0 DIFFERENT FILL-ORIGIN LEVEL: 0

PSCL2 SPEC fills:          0  NON-SPEC fills:          0
PSCL2 Test counter :          0
PSCL2 Leapfrog:          0
PSCL2 MSHR merge:          0
PSCL2 TOTAL     ACCESS:          0  HIT:          0  MISS:          0  HIT %:       -nan  MISS %:       -nan   MPKI: 0
PSCL2 PREFETCH  REQUESTED:          0  ISSUED:          0  USEFUL:          0  USELESS:          0
PSCL2 USEFUL LOAD PREFETCHES:          0 PREFETCH ISSUED TO LOWER LEVEL:          0  ACCURACY: -nan
PSCL2 TIMELY PREFETCHES:          0 LATE PREFETCHES: 0 DROPPED PREFETCHES: 0
PSCL2 COMMIT LATE PREFETCHES: 0 MISSED OPPORTUNITY: 0 LATE IN PQ: 0 UNCOVERED: 0
PSCL2 COMMIT LATE MSHR PREFETCHES: 0
PSCL2 MPKI TOTAL: 0 MSHR LATE: 0 PQ LATE: 0 COMMIT LATE: 0 MISSED OPPORTUNITY: 0 UNCOVERED: 0
PSCL2 PREFETCHES SAME FILL-ORIGIN LEVEL: 0 DIFFERENT FILL-ORIGIN LEVEL: 0

LLC SPEC fills:          0  NON-SPEC fills:     197582
LLC Test counter :          0
LLC Leapfrog:          0
LLC MSHR merge:          0
LLC TOTAL     ACCESS:   16440039  HIT:    2715354  MISS:   13724685  HIT %:    16.5167  MISS %:    83.4833   MPKI: 68.6234
LLC LOAD      TOTAL       ACCESS:     924749  HIT:      41289  MISS:     883460  HIT %:    4.46489  MISS %:    95.5351   MPKI: 4.4173
LLC LOAD      NON_SPEC    ACCESS:     200849  HIT:       3261  MISS:     197588  HIT %:    1.62361  MISS %:    98.3764   MPKI: 0.98794
LLC LOAD      SPEC        ACCESS:     723900  HIT:      38028  MISS:     685872  HIT %:    5.25321  MISS %:    94.7468   MPKI: 3.42936
LLC RFO       NON_SPEC    ACCESS:     409302  HIT:        390  MISS:     408912  HIT %:  0.0952842  MISS %:    99.9047   MPKI: 2.04456
LLC PREFETCH  NON_SPEC    ACCESS:   11817538  HIT:      85678  MISS:   11731860  HIT %:   0.725007  MISS %:     99.275   MPKI: 58.6593
LLC WRITEBACK NON_SPEC    ACCESS:     588890  HIT:     587161  MISS:       1729  HIT %:    99.7064  MISS %:   0.293603   MPKI: 0.008645
LLC CLEAN_EVICTION NON_SPEC    ACCESS:    2636872  HIT:    1981239  MISS:     655633  HIT %:     75.136  MISS %:     24.864   MPKI: 3.27816
LLC COMMIT LOAD NON_SPEC    ACCESS:      21772  HIT:      16864  MISS:       4908  HIT %:    77.4573  MISS %:    22.5427   MPKI: 0.02454
LLC LOAD TRANSLATION NON_SPEC    ACCESS:       9224  HIT:       1670  MISS:       7554  HIT %:    18.1049  MISS %:    81.8951   MPKI: 0.03777
LLC TRANSLATION FROM L1D PREFETCHER NON_SPEC    ACCESS:      31692  HIT:       1063  MISS:      30629  HIT %:    3.35416  MISS %:    96.6458   MPKI: 0.153145
LLC PREFETCH  REQUESTED:          0  ISSUED:          0  USEFUL:      45758  USELESS:   11720612
LLC USEFUL LOAD PREFETCHES:      45758 PREFETCH ISSUED TO LOWER LEVEL:   11731867  ACCURACY: 0.390032
LLC TIMELY PREFETCHES:      45758 LATE PREFETCHES: 0 DROPPED PREFETCHES: 0
LLC COMMIT LATE PREFETCHES: 0 MISSED OPPORTUNITY: 0 LATE IN PQ: 0 UNCOVERED: 0
LLC COMMIT LATE MSHR PREFETCHES: 0
LLC MPKI TOTAL: 4.4173 MSHR LATE: 0 PQ LATE: 0 COMMIT LATE: 0 MISSED OPPORTUNITY: 0 UNCOVERED: 0
LLC PREFETCHES SAME FILL-ORIGIN LEVEL: 0 DIFFERENT FILL-ORIGIN LEVEL: 0
LLC AVERAGE MISS LATENCY: 254.177 cycles
LLC AVERAGE MISS LATENCY LOAD: 161.746 cycles
LLC AVERAGE MISS LATENCY PREFETCH: 274.514 cycles
LLC AVERAGE MSHR OCCUPANCY: 6.70478
LLC MSHR FULL: 0
LLC RQ	ACCESS:    1396739	FORWARD:          0	MERGED:          0	TO_CACHE:    1396739
LLC WQ	ACCESS:    3225763	FORWARD:          0	MERGED:          0	TO_CACHE:    3225763
LLC PQ	ACCESS:   11817545	FORWARD:          0	MERGED:          0	TO_CACHE:   11817545

LLC Dense regions hint to LLC: 0

RAW hits: 2407899
Loads Generated: 69218449
Loads sent to L1D: 66810549
Stores Generated: 46248414
Stores sent to L1D: 46248418
Major fault: 0 Minor fault: 63874
Allocated PAGES: 63874
Total Load insts: 83608516
Total Non-spec loads: 10531743
Percentage of speculative loads: 87.4035

LeapFrogging counter: 5660722
Commit hits: 29193923 miss: 28576732
Commit hit %: 50.5342 miss %: 49.4658
Commits not translated: 0
Loads retired: 5441642
Stores retired: 46248418
Cache fills: 5441645
L1D response latency: 100.441 cycles
Load retirement latency: 247.166 cycles
OOO test counter: 0
Discarded buffer inserts: 29193923 hits: 19172 hit %: 0.0656712
Filter prediction accuracy: 99.3469
LATENCY_FILL: 98.3579 5435787

DRAM Statistics
 CHANNEL 0
 RQ ROW_BUFFER_HIT:    8745433  ROW_BUFFER_MISS:    4321885
 DBUS_CONGESTED:       2513
 WQ ROW_BUFFER_HIT:     627286  ROW_BUFFER_MISS:    2571439  FULL:      19246

 AVG_CONGESTED_CYCLE: 4
 All warmup complete: 2
Channel 0 Bank busy for read cycles: 0
Channel 0 Bank busy for write cycles: 0
Channel 0
Rank 0
0banks busy for read cycles: 95990089
0banks busy for write cycles: 173605
1banks busy for read cycles: 65069692
1banks busy for write cycles: 22077891
2banks busy for read cycles: 28832639
2banks busy for write cycles: 11978213
3banks busy for read cycles: 19645905
3banks busy for write cycles: 6990150
4banks busy for read cycles: 17971776
4banks busy for write cycles: 4548452
5banks busy for read cycles: 16566644
5banks busy for write cycles: 3764349
6banks busy for read cycles: 17919441
6banks busy for write cycles: 4123742
7banks busy for read cycles: 28478560
7banks busy for write cycles: 8740004
8banks busy for read cycles: 58936640
8banks busy for write cycles: 44186542

CPU 0 Branch Prediction Accuracy: 99.1418% MPKI: 1.10599 Average ROB Occupancy at Mispredict: 154.782
Branch types
NOT_BRANCH: 174224482 87.1122%
BRANCH_DIRECT_JUMP: 2120382 1.06019%
BRANCH_INDIRECT: 0 0%
BRANCH_CONDITIONAL: 23654471 11.8272%
BRANCH_DIRECT_CALL: 241 0.0001205%
BRANCH_INDIRECT_CALL: 0 0%
BRANCH_RETURN: 240 0.00012%
BRANCH_OTHER: 0 0%

DRAM PAGES: 1048576
Allocated PAGES: 63874
