
*** ChampSim Multicore Out-of-Order Simulator ***

Warmup Instructions: 50000000
Simulation Instructions: 200000000
Number of CPUs: 1
LLC sets: 2048
LLC ways: 16
L0D sets: 16
L0D ways: 2
ROB size: 352
LQ size: 128
SQ size: 72
Secure Berti: OFF
Berti: OFF
Berti Fill: OFF
On commit prefetching: OFF
Hit-based filter: ON
Time-guarding: ON
Free-slotting: ON
Leap-frogging: ON
Train prefetcher on L0D bypass: OFF
No translation penalty for prefetchers: OFF
Prefetch to L0D only: OFF
Prefetch to L1D only: OFF
Clean evictions: ON
Commit loads: ON
Commit write: ON
Fill commit loads to L2C, LLC: ON
DRAM IO FREQUENCY: 6400
ROB SIZE: 352
Off-chip DRAM Size: 4096 MB Channels: 1 Width: 64-bit Data Rate: 6400 MT/s
CPU 0 runs /home/sumon/secure_berti/GhostMinion/../../traces/spec/605.mcf_s-1554B.champsimtrace.xz
.xz
BTB has LRU replacement policy
ITLB has LRU replacement policy
DTLB has LRU replacement policy
STLB has LRU replacement policy
L1I has LRU replacement policy
L0D has LRU replacement policy
History Sets: 8
History Ways: 16
BERTI Size: 16
BERTI Stride Size: 16
L1D has LRU replacement policy
L2C has LRU replacement policy
LLC has LRU replacement policy
Heartbeat CPU 0 instructions: 10000002 cycles: 4094486 heartbeat IPC: 2.44231 cumulative IPC: 2.44231 (Simulation time: 0 hr 0 min 55 sec) 
Heartbeat CPU 0 instructions: 20000001 cycles: 8195495 heartbeat IPC: 2.43842 cumulative IPC: 2.44037 (Simulation time: 0 hr 1 min 51 sec) 
Heartbeat CPU 0 instructions: 30000000 cycles: 12311168 heartbeat IPC: 2.42974 cumulative IPC: 2.43681 (Simulation time: 0 hr 2 min 47 sec) 
Heartbeat CPU 0 instructions: 40000000 cycles: 16413645 heartbeat IPC: 2.43755 cumulative IPC: 2.437 (Simulation time: 0 hr 3 min 44 sec) 
Heartbeat CPU 0 instructions: 50000001 cycles: 20515052 heartbeat IPC: 2.43819 cumulative IPC: 2.43723 (Simulation time: 0 hr 4 min 41 sec) 

Warmup complete CPU 0 instructions: 50000001 cycles: 20515052 (Simulation time: 0 hr 4 min 41 sec) 

Heartbeat CPU 0 instructions: 60000002 cycles: 52603781 heartbeat IPC: 0.311636 cumulative IPC: 0.311636 (Simulation time: 0 hr 6 min 24 sec) 
Heartbeat CPU 0 instructions: 70000002 cycles: 84445619 heartbeat IPC: 0.314052 cumulative IPC: 0.312839 (Simulation time: 0 hr 8 min 8 sec) 
Heartbeat CPU 0 instructions: 80000000 cycles: 116452620 heartbeat IPC: 0.312432 cumulative IPC: 0.312703 (Simulation time: 0 hr 9 min 53 sec) 
Heartbeat CPU 0 instructions: 90000000 cycles: 148596200 heartbeat IPC: 0.311104 cumulative IPC: 0.312302 (Simulation time: 0 hr 11 min 39 sec) 
Heartbeat CPU 0 instructions: 100000000 cycles: 180803540 heartbeat IPC: 0.310488 cumulative IPC: 0.311938 (Simulation time: 0 hr 13 min 25 sec) 
Heartbeat CPU 0 instructions: 110000000 cycles: 213179288 heartbeat IPC: 0.308873 cumulative IPC: 0.311423 (Simulation time: 0 hr 15 min 4 sec) 
Heartbeat CPU 0 instructions: 120000000 cycles: 246376561 heartbeat IPC: 0.30123 cumulative IPC: 0.309924 (Simulation time: 0 hr 16 min 39 sec) 
Heartbeat CPU 0 instructions: 130000000 cycles: 279070493 heartbeat IPC: 0.305867 cumulative IPC: 0.309411 (Simulation time: 0 hr 18 min 3 sec) 
Heartbeat CPU 0 instructions: 140000000 cycles: 312078500 heartbeat IPC: 0.302957 cumulative IPC: 0.308681 (Simulation time: 0 hr 19 min 26 sec) 
Heartbeat CPU 0 instructions: 150000001 cycles: 345124117 heartbeat IPC: 0.302612 cumulative IPC: 0.308063 (Simulation time: 0 hr 20 min 48 sec) 
Heartbeat CPU 0 instructions: 160000000 cycles: 378868526 heartbeat IPC: 0.296345 cumulative IPC: 0.306959 (Simulation time: 0 hr 22 min 12 sec) 
Heartbeat CPU 0 instructions: 170000002 cycles: 412869187 heartbeat IPC: 0.294112 cumulative IPC: 0.305846 (Simulation time: 0 hr 23 min 35 sec) 
Heartbeat CPU 0 instructions: 180000001 cycles: 446725079 heartbeat IPC: 0.29537 cumulative IPC: 0.305014 (Simulation time: 0 hr 24 min 56 sec) 
Heartbeat CPU 0 instructions: 190000000 cycles: 480384135 heartbeat IPC: 0.297097 cumulative IPC: 0.304434 (Simulation time: 0 hr 26 min 16 sec) 
Heartbeat CPU 0 instructions: 200000001 cycles: 514720703 heartbeat IPC: 0.291235 cumulative IPC: 0.303517 (Simulation time: 0 hr 27 min 37 sec) 
Heartbeat CPU 0 instructions: 210000001 cycles: 547846828 heartbeat IPC: 0.301877 cumulative IPC: 0.303414 (Simulation time: 0 hr 28 min 54 sec) 
Heartbeat CPU 0 instructions: 220000000 cycles: 580708399 heartbeat IPC: 0.304307 cumulative IPC: 0.303467 (Simulation time: 0 hr 30 min 11 sec) 
Heartbeat CPU 0 instructions: 230000002 cycles: 614773620 heartbeat IPC: 0.293555 cumulative IPC: 0.302898 (Simulation time: 0 hr 31 min 31 sec) 
Heartbeat CPU 0 instructions: 240000002 cycles: 647618778 heartbeat IPC: 0.304459 cumulative IPC: 0.30298 (Simulation time: 0 hr 32 min 48 sec) 
Heartbeat CPU 0 instructions: 250000001 cycles: 680831395 heartbeat IPC: 0.30109 cumulative IPC: 0.302885 (Simulation time: 0 hr 34 min 6 sec) 
Finished CPU 0 instructions: 200000000 cycles: 660316343 cumulative IPC: 0.302885 (Simulation time: 0 hr 34 min 6 sec) 
 Instruction ID: 250000363

ChampSim completed all CPUs

Region of Interest Statistics

CPU 0 cumulative IPC: 0.302885 instructions: 200000000 cycles: 660316343
ITLB SPEC fills:          0  NON-SPEC fills:          0
ITLB Test counter :          0
ITLB Leapfrog:          0
ITLB MSHR merge:          0
ITLB TOTAL     ACCESS:   41400841  HIT:   41400841  MISS:          0  HIT %:        100  MISS %:          0   MPKI: 0
ITLB LOAD TRANSLATION NON_SPEC    ACCESS:   41400841  HIT:   41400841  MISS:          0  HIT %:        100  MISS %:          0   MPKI: 0
ITLB PREFETCH  REQUESTED:          0  ISSUED:          0  USEFUL:          0  USELESS:          0
ITLB USEFUL LOAD PREFETCHES:          0 PREFETCH ISSUED TO LOWER LEVEL:          0  ACCURACY: -nan
ITLB TIMELY PREFETCHES:          0 LATE PREFETCHES: 0 DROPPED PREFETCHES: 0
ITLB COMMIT LATE PREFETCHES: 0 MISSED OPPORTUNITY: 0 LATE IN PQ: 0 UNCOVERED: 0
ITLB COMMIT LATE MSHR PREFETCHES: 0
ITLB MPKI TOTAL: 0 MSHR LATE: 0 PQ LATE: 0 COMMIT LATE: 0 MISSED OPPORTUNITY: 0 UNCOVERED: 0
ITLB PREFETCHES SAME FILL-ORIGIN LEVEL: 0 DIFFERENT FILL-ORIGIN LEVEL: 0
ITLB AVERAGE MISS LATENCY: -nan cycles
ITLB AVERAGE MISS LATENCY LOAD: -nan cycles
ITLB AVERAGE MISS LATENCY PREFETCH: -nan cycles
ITLB AVERAGE MSHR OCCUPANCY: 0
ITLB MSHR FULL: 0
ITLB RQ	ACCESS:   50486972	FORWARD:          0	MERGED:    9086131	TO_CACHE:   41400841

DTLB SPEC fills:          0  NON-SPEC fills:          0
DTLB Test counter :          0
DTLB Leapfrog:          0
DTLB MSHR merge:          0
DTLB TOTAL     ACCESS:   68206278  HIT:   67405653  MISS:     800625  HIT %:    98.8262  MISS %:    1.17383   MPKI: 4.00312
DTLB LOAD TRANSLATION NON_SPEC    ACCESS:   68206278  HIT:   67405653  MISS:     800625  HIT %:    98.8262  MISS %:    1.17383   MPKI: 4.00312
DTLB PREFETCH  REQUESTED:          0  ISSUED:          0  USEFUL:          0  USELESS:          0
DTLB USEFUL LOAD PREFETCHES:          0 PREFETCH ISSUED TO LOWER LEVEL:          0  ACCURACY: -nan
DTLB TIMELY PREFETCHES:          0 LATE PREFETCHES: 0 DROPPED PREFETCHES: 0
DTLB COMMIT LATE PREFETCHES: 0 MISSED OPPORTUNITY: 0 LATE IN PQ: 0 UNCOVERED: 0
DTLB COMMIT LATE MSHR PREFETCHES: 0
DTLB MPKI TOTAL: 0 MSHR LATE: 0 PQ LATE: 0 COMMIT LATE: 0 MISSED OPPORTUNITY: 0 UNCOVERED: 0
DTLB PREFETCHES SAME FILL-ORIGIN LEVEL: 0 DIFFERENT FILL-ORIGIN LEVEL: 0
DTLB AVERAGE MISS LATENCY: 11.7452 cycles
DTLB AVERAGE MISS LATENCY LOAD: -nan cycles
DTLB AVERAGE MISS LATENCY PREFETCH: -nan cycles
DTLB AVERAGE MSHR OCCUPANCY: 0.0217121
DTLB MSHR FULL: 0
DTLB RQ	ACCESS:   84391684	FORWARD:          0	MERGED:   16156779	TO_CACHE:   68234905

STLB SPEC fills:          0  NON-SPEC fills:          0
STLB Test counter :          0
STLB Leapfrog:          0
STLB MSHR merge:          0
STLB TOTAL     ACCESS:   32453246  HIT:   32440955  MISS:      12291  HIT %:    99.9621  MISS %:  0.0378729   MPKI: 0.061455
STLB LOAD TRANSLATION NON_SPEC    ACCESS:     800625  HIT:     788712  MISS:      11913  HIT %:     98.512  MISS %:    1.48796   MPKI: 0.059565
STLB TRANSLATION FROM L1D PREFETCHER NON_SPEC    ACCESS:   31652621  HIT:   31652243  MISS:        378  HIT %:    99.9988  MISS %: 0.00119421   MPKI: 0.00189
STLB PREFETCH  REQUESTED:          0  ISSUED:          0  USEFUL:        378  USELESS:          0
STLB USEFUL LOAD PREFETCHES:        378 PREFETCH ISSUED TO LOWER LEVEL:          0  ACCURACY: inf
STLB TIMELY PREFETCHES:        378 LATE PREFETCHES: 733 DROPPED PREFETCHES: 50084
STLB COMMIT LATE PREFETCHES: 0 MISSED OPPORTUNITY: 0 LATE IN PQ: 0 UNCOVERED: 0
STLB COMMIT LATE MSHR PREFETCHES: 0
STLB MPKI TOTAL: 0 MSHR LATE: 0.003665 PQ LATE: 0 COMMIT LATE: 0 MISSED OPPORTUNITY: 0 UNCOVERED: 0
STLB PREFETCHES SAME FILL-ORIGIN LEVEL: 0 DIFFERENT FILL-ORIGIN LEVEL: 0
STLB AVERAGE MISS LATENCY: 275.605 cycles
STLB AVERAGE MISS LATENCY LOAD: -nan cycles
STLB AVERAGE MISS LATENCY PREFETCH: -nan cycles
STLB AVERAGE MSHR OCCUPANCY: 0.00696218
STLB MSHR FULL: 0
STLB RQ	ACCESS:  148819154	FORWARD:          0	MERGED:  116313661	TO_CACHE:   32505493

STLB Hit, L1D data hit: 0
STLB Hit, L2C data hit: 0
STLB Hit, LLC data hit: 0
STLB Hit, LLC data miss: 0
STLB STLB hints to L2: 0
L0D SPEC fills:   42242475  NON-SPEC fills:          0
L0D TimeGuard Request with older TS:    2243693 Restricted eviction:     974501 read:    1863332
L0D Test counter :          0
L0D Leapfrog:          0
L0D MSHR merge:    3732753
L0D TOTAL     ACCESS:   67140234  HIT:   15294274  MISS:   51845960  HIT %:    22.7796  MISS %:    77.2204   MPKI: 259.23
L0D LOAD      TOTAL       ACCESS:   67140234  HIT:   15294274  MISS:   51845960  HIT %:    22.7796  MISS %:    77.2204   MPKI: 259.23
L0D LOAD      NON_SPEC    ACCESS:    9357695  HIT:     728709  MISS:    8628986  HIT %:    7.78727  MISS %:    92.2127   MPKI: 43.1449
L0D LOAD      SPEC        ACCESS:   57782539  HIT:   14565565  MISS:   43216974  HIT %:    25.2076  MISS %:    74.7924   MPKI: 216.085
L0D PREFETCH  REQUESTED:          0  ISSUED:          0  USEFUL:          0  USELESS:          0
L0D USEFUL LOAD PREFETCHES:          0 PREFETCH ISSUED TO LOWER LEVEL:          0  ACCURACY: -nan
L0D TIMELY PREFETCHES:          0 LATE PREFETCHES: 0 DROPPED PREFETCHES: 0
L0D COMMIT LATE PREFETCHES: 0 MISSED OPPORTUNITY: 0 LATE IN PQ: 0 UNCOVERED: 0
L0D COMMIT LATE MSHR PREFETCHES: 0
L0D MPKI TOTAL: 277.894 MSHR LATE: 0 PQ LATE: 0 COMMIT LATE: 0 MISSED OPPORTUNITY: 0 UNCOVERED: 0
L0D PREFETCHES SAME FILL-ORIGIN LEVEL: 0 DIFFERENT FILL-ORIGIN LEVEL: 0
L0D AVERAGE MISS LATENCY: 31.1337 cycles
L0D AVERAGE MISS LATENCY LOAD: 31.1337 cycles
L0D AVERAGE MISS LATENCY PREFETCH: -nan cycles
L0D AVERAGE MSHR OCCUPANCY: 2.96379
L0D MSHR FULL: 0.0855279
L0D RQ	ACCESS:   83230442	FORWARD:          0	MERGED:   12357460	TO_CACHE:   70872982
L0D WQ	ACCESS:   13518702	FORWARD:          0	MERGED:          0	TO_CACHE:   13518702

L1D SPEC fills:          0  NON-SPEC fills:     988259
L1D Test counter :          0
L1D Leapfrog:          0
L1D MSHR merge:    3857662
L1D TOTAL     ACCESS:  134106718  HIT:   87746820  MISS:   46359898  HIT %:    65.4306  MISS %:    34.5694   MPKI: 231.799
L1D LOAD      TOTAL       ACCESS:   51832015  HIT:   37776283  MISS:   14055732  HIT %:    72.8821  MISS %:    27.1179   MPKI: 70.2787
L1D LOAD      NON_SPEC    ACCESS:    8624409  HIT:    7636150  MISS:     988259  HIT %:    88.5411  MISS %:    11.4589   MPKI: 4.9413
L1D LOAD      SPEC        ACCESS:   43207606  HIT:   30140133  MISS:   13067473  HIT %:    69.7565  MISS %:    30.2435   MPKI: 65.3374
L1D RFO       NON_SPEC    ACCESS:    9982030  HIT:    9579634  MISS:     402396  HIT %:    95.9688  MISS %:     4.0312   MPKI: 2.01198
L1D PREFETCH  NON_SPEC    ACCESS:   56495907  HIT:   36504550  MISS:   19991357  HIT %:    64.6145  MISS %:    35.3855   MPKI: 99.9568
L1D COMMIT LOAD NON_SPEC    ACCESS:    3137149  HIT:    2752702  MISS:     384447  HIT %:    87.7453  MISS %:    12.2547   MPKI: 1.92223
L1D COMMIT WRITE NON_SPEC    ACCESS:   12659617  HIT:    1133651  MISS:   11525966  HIT %:    8.95486  MISS %:    91.0451   MPKI: 57.6298
L1D PREFETCH  REQUESTED:  275823052  ISSUED:  167730226  USEFUL:   17738115  USELESS:    2253349
L1D USEFUL LOAD PREFETCHES:   17738115 PREFETCH ISSUED TO LOWER LEVEL:  205703190  ACCURACY: 8.62316
L1D TIMELY PREFETCHES:   17738115 LATE PREFETCHES: 3851751 DROPPED PREFETCHES: 141251
L1D COMMIT LATE PREFETCHES: 0 MISSED OPPORTUNITY: 0 LATE IN PQ: 0 UNCOVERED: 0
L1D COMMIT LATE MSHR PREFETCHES: 0
L1D MPKI TOTAL: 70.3484 MSHR LATE: 19.2588 PQ LATE: 0 COMMIT LATE: 0 MISSED OPPORTUNITY: 0 UNCOVERED: 0
L1D PREFETCHES SAME FILL-ORIGIN LEVEL: 34630808 DIFFERENT FILL-ORIGIN LEVEL: 171072382
L1D AVERAGE MISS LATENCY: 108.923 cycles
L1D AVERAGE MISS LATENCY LOAD: 93.1658 cycles
L1D AVERAGE MISS LATENCY PREFETCH: 177.462 cycles
L1D AVERAGE MSHR OCCUPANCY: 11.176
L1D MSHR FULL: 0.300947
L1D RQ	ACCESS:   55131275	FORWARD:          0	MERGED:     115281	TO_CACHE:   55006573
L1D WQ	ACCESS:   26178319	FORWARD:       9421	MERGED:    1724979	TO_CACHE:   24453340
L1D PQ	ACCESS:  167730226	FORWARD:          0	MERGED:   19711697	TO_CACHE:  148018529

L1D UNIQUE REGIONS ACCESSED: 0
L1D REGIONS CONFLICTS: 0
L1D Cross Page Prefetch Requests: 42208062
L1D Same Page Prefetch Requests: 155229533
L1D ROI Sum of L1D PQ occupancy: 3337785710
L1D PREFETCHES PUSHED FROM L2C: 0
L1I SPEC fills:          0  NON-SPEC fills:          0
L1I Test counter :          0
L1I Leapfrog:          0
L1I MSHR merge:          0
L1I TOTAL     ACCESS:   50486969  HIT:   50486969  MISS:          0  HIT %:        100  MISS %:          0   MPKI: 0
L1I LOAD      TOTAL       ACCESS:   50486969  HIT:   50486969  MISS:          0  HIT %:        100  MISS %:          0   MPKI: 0
L1I LOAD      NON_SPEC    ACCESS:   50486969  HIT:   50486969  MISS:          0  HIT %:        100  MISS %:          0   MPKI: 0
L1I PREFETCH  REQUESTED:          0  ISSUED:          0  USEFUL:          0  USELESS:          0
L1I USEFUL LOAD PREFETCHES:          0 PREFETCH ISSUED TO LOWER LEVEL:          0  ACCURACY: -nan
L1I TIMELY PREFETCHES:          0 LATE PREFETCHES: 0 DROPPED PREFETCHES: 0
L1I COMMIT LATE PREFETCHES: 0 MISSED OPPORTUNITY: 0 LATE IN PQ: 0 UNCOVERED: 0
L1I COMMIT LATE MSHR PREFETCHES: 0
L1I MPKI TOTAL: 0 MSHR LATE: 0 PQ LATE: 0 COMMIT LATE: 0 MISSED OPPORTUNITY: 0 UNCOVERED: 0
L1I PREFETCHES SAME FILL-ORIGIN LEVEL: 0 DIFFERENT FILL-ORIGIN LEVEL: 0
L1I AVERAGE MISS LATENCY: -nan cycles
L1I AVERAGE MISS LATENCY LOAD: -nan cycles
L1I AVERAGE MISS LATENCY PREFETCH: -nan cycles
L1I AVERAGE MSHR OCCUPANCY: 0
L1I MSHR FULL: 0
L1I RQ	ACCESS:   67189212	FORWARD:          0	MERGED:   16702240	TO_CACHE:   50486972

BTB SPEC fills:          0  NON-SPEC fills:          0
BTB Test counter :          0
BTB Leapfrog:          0
BTB MSHR merge:          0
BTB TOTAL     ACCESS:   35943474  HIT:   35943442  MISS:         32  HIT %:    99.9999  MISS %: 8.90287e-05   MPKI: 0.00016
BTB BRANCH_DIRECT_JUMP	ACCESS:    8413978  HIT:    8413972  MISS:          6
BTB BRANCH_INDIRECT	ACCESS:          0  HIT:          0  MISS:          0
BTB BRANCH_CONDITIONAL	ACCESS:   27526340  HIT:   27526318  MISS:         22
BTB BRANCH_DIRECT_CALL	ACCESS:       1578  HIT:       1576  MISS:          2
BTB BRANCH_INDIRECT_CALL	ACCESS:          0  HIT:          0  MISS:          0
BTB BRANCH_RETURN	ACCESS:       1578  HIT:       1576  MISS:          2
BTB BRANCH_OTHER ACCESS:          0  HIT:          0  MISS:          0

L2C SPEC fills:          0  NON-SPEC fills:      70102
L2C Test counter :          0
L2C Leapfrog:          0
L2C MSHR merge:    2164567
L2C TOTAL     ACCESS:   86214940  HIT:   42019732  MISS:   44195208  HIT %:    48.7383  MISS %:    51.2617   MPKI: 220.976
L2C LOAD      TOTAL       ACCESS:   10208943  HIT:    7694024  MISS:    2514919  HIT %:    75.3655  MISS %:    24.6345   MPKI: 12.5746
L2C LOAD      NON_SPEC    ACCESS:     852319  HIT:     782217  MISS:      70102  HIT %:    91.7751  MISS %:    8.22485   MPKI: 0.35051
L2C LOAD      SPEC        ACCESS:    9356624  HIT:    6911807  MISS:    2444817  HIT %:    73.8707  MISS %:    26.1293   MPKI: 12.2241
L2C RFO       NON_SPEC    ACCESS:     400729  HIT:       4578  MISS:     396151  HIT %:    1.14242  MISS %:    98.8576   MPKI: 1.98076
L2C PREFETCH  NON_SPEC    ACCESS:   68266411  HIT:   28985498  MISS:   39280913  HIT %:    42.4594  MISS %:    57.5406   MPKI: 196.405
L2C WRITEBACK NON_SPEC    ACCESS:     522789  HIT:     522083  MISS:        706  HIT %:     99.865  MISS %:   0.135045   MPKI: 0.00353
L2C CLEAN_EVICTION NON_SPEC    ACCESS:    6124402  HIT:    4184569  MISS:    1939833  HIT %:    68.3262  MISS %:    31.6738   MPKI: 9.69917
L2C COMMIT LOAD NON_SPEC    ACCESS:     376413  HIT:     322711  MISS:      53702  HIT %:    85.7332  MISS %:    14.2668   MPKI: 0.26851
L2C LOAD TRANSLATION NON_SPEC    ACCESS:      59405  HIT:      57069  MISS:       2336  HIT %:    96.0677  MISS %:    3.93233   MPKI: 0.01168
L2C TRANSLATION FROM L1D PREFETCHER NON_SPEC    ACCESS:     255848  HIT:     249200  MISS:       6648  HIT %:    97.4016  MISS %:    2.59842   MPKI: 0.03324
L2C PREFETCH  REQUESTED:          0  ISSUED:          0  USEFUL:    7199953  USELESS:   32089194
L2C USEFUL LOAD PREFETCHES:    7199953 PREFETCH ISSUED TO LOWER LEVEL:   41450464  ACCURACY: 17.37
L2C TIMELY PREFETCHES:    7199953 LATE PREFETCHES: 2169534 DROPPED PREFETCHES: 0
L2C COMMIT LATE PREFETCHES: 0 MISSED OPPORTUNITY: 0 LATE IN PQ: 0 UNCOVERED: 0
L2C COMMIT LATE MSHR PREFETCHES: 0
L2C MPKI TOTAL: 12.5746 MSHR LATE: 10.8477 PQ LATE: 0 COMMIT LATE: 0 MISSED OPPORTUNITY: 0 UNCOVERED: 0
L2C PREFETCHES SAME FILL-ORIGIN LEVEL: 31476671 DIFFERENT FILL-ORIGIN LEVEL: 0
L2C AVERAGE MISS LATENCY: 299.867 cycles
L2C AVERAGE MISS LATENCY LOAD: 192.497 cycles
L2C AVERAGE MISS LATENCY PREFETCH: 320.5 cycles
L2C AVERAGE MSHR OCCUPANCY: 26.8121
L2C MSHR FULL: 0.564347
L2C RQ	ACCESS:   11304414	FORWARD:          0	MERGED:          0	TO_CACHE:   11301338
L2C WQ	ACCESS:    6647192	FORWARD:       3076	MERGED:          1	TO_CACHE:    6647191
L2C PQ	ACCESS:   94647991	FORWARD:          0	MERGED:    2150730	TO_CACHE:   92497261

L2C Instructions Evicting Data 0
L2C Translations Evicting Data 8984
L2C Data Evicting Data 39792168
L2C Instructions Evicting Instructions 0
L2C Translations Evicting Instructions 0
L2C Data Evicting Instructions 0
L2C Instructions Evicting Translations 0
L2C Translations Evicting Translations 0
L2C Data Evicting Translations 8700
L2C Dense regions hint from L2: 0
PSCL5 SPEC fills:          0  NON-SPEC fills:          0
PSCL5 Test counter :          0
PSCL5 Leapfrog:          0
PSCL5 MSHR merge:          0
PSCL5 TOTAL     ACCESS:          0  HIT:          0  MISS:          0  HIT %:       -nan  MISS %:       -nan   MPKI: 0
PSCL5 PREFETCH  REQUESTED:          0  ISSUED:          0  USEFUL:          0  USELESS:          0
PSCL5 USEFUL LOAD PREFETCHES:          0 PREFETCH ISSUED TO LOWER LEVEL:          0  ACCURACY: -nan
PSCL5 TIMELY PREFETCHES:          0 LATE PREFETCHES: 0 DROPPED PREFETCHES: 0
PSCL5 COMMIT LATE PREFETCHES: 0 MISSED OPPORTUNITY: 0 LATE IN PQ: 0 UNCOVERED: 0
PSCL5 COMMIT LATE MSHR PREFETCHES: 0
PSCL5 MPKI TOTAL: 0 MSHR LATE: 0 PQ LATE: 0 COMMIT LATE: 0 MISSED OPPORTUNITY: 0 UNCOVERED: 0
PSCL5 PREFETCHES SAME FILL-ORIGIN LEVEL: 0 DIFFERENT FILL-ORIGIN LEVEL: 0

PSCL4 SPEC fills:          0  NON-SPEC fills:          0
PSCL4 Test counter :          0
PSCL4 Leapfrog:          0
PSCL4 MSHR merge:          0
PSCL4 TOTAL     ACCESS:          0  HIT:          0  MISS:          0  HIT %:       -nan  MISS %:       -nan   MPKI: 0
PSCL4 PREFETCH  REQUESTED:          0  ISSUED:          0  USEFUL:          0  USELESS:          0
PSCL4 USEFUL LOAD PREFETCHES:          0 PREFETCH ISSUED TO LOWER LEVEL:          0  ACCURACY: -nan
PSCL4 TIMELY PREFETCHES:          0 LATE PREFETCHES: 0 DROPPED PREFETCHES: 0
PSCL4 COMMIT LATE PREFETCHES: 0 MISSED OPPORTUNITY: 0 LATE IN PQ: 0 UNCOVERED: 0
PSCL4 COMMIT LATE MSHR PREFETCHES: 0
PSCL4 MPKI TOTAL: 0 MSHR LATE: 0 PQ LATE: 0 COMMIT LATE: 0 MISSED OPPORTUNITY: 0 UNCOVERED: 0
PSCL4 PREFETCHES SAME FILL-ORIGIN LEVEL: 0 DIFFERENT FILL-ORIGIN LEVEL: 0

PSCL3 SPEC fills:          0  NON-SPEC fills:          0
PSCL3 Test counter :          0
PSCL3 Leapfrog:          0
PSCL3 MSHR merge:          0
PSCL3 TOTAL     ACCESS:          0  HIT:          0  MISS:          0  HIT %:       -nan  MISS %:       -nan   MPKI: 0
PSCL3 PREFETCH  REQUESTED:          0  ISSUED:          0  USEFUL:          0  USELESS:          0
PSCL3 USEFUL LOAD PREFETCHES:          0 PREFETCH ISSUED TO LOWER LEVEL:          0  ACCURACY: -nan
PSCL3 TIMELY PREFETCHES:          0 LATE PREFETCHES: 0 DROPPED PREFETCHES: 0
PSCL3 COMMIT LATE PREFETCHES: 0 MISSED OPPORTUNITY: 0 LATE IN PQ: 0 UNCOVERED: 0
PSCL3 COMMIT LATE MSHR PREFETCHES: 0
PSCL3 MPKI TOTAL: 0 MSHR LATE: 0 PQ LATE: 0 COMMIT LATE: 0 MISSED OPPORTUNITY: 0 UNCOVERED: 0
PSCL3 PREFETCHES SAME FILL-ORIGIN LEVEL: 0 DIFFERENT FILL-ORIGIN LEVEL: 0

PSCL2 SPEC fills:          0  NON-SPEC fills:          0
PSCL2 Test counter :          0
PSCL2 Leapfrog:          0
PSCL2 MSHR merge:          0
PSCL2 TOTAL     ACCESS:          0  HIT:          0  MISS:          0  HIT %:       -nan  MISS %:       -nan   MPKI: 0
PSCL2 PREFETCH  REQUESTED:          0  ISSUED:          0  USEFUL:          0  USELESS:          0
PSCL2 USEFUL LOAD PREFETCHES:          0 PREFETCH ISSUED TO LOWER LEVEL:          0  ACCURACY: -nan
PSCL2 TIMELY PREFETCHES:          0 LATE PREFETCHES: 0 DROPPED PREFETCHES: 0
PSCL2 COMMIT LATE PREFETCHES: 0 MISSED OPPORTUNITY: 0 LATE IN PQ: 0 UNCOVERED: 0
PSCL2 COMMIT LATE MSHR PREFETCHES: 0
PSCL2 MPKI TOTAL: 0 MSHR LATE: 0 PQ LATE: 0 COMMIT LATE: 0 MISSED OPPORTUNITY: 0 UNCOVERED: 0
PSCL2 PREFETCHES SAME FILL-ORIGIN LEVEL: 0 DIFFERENT FILL-ORIGIN LEVEL: 0

LLC SPEC fills:          0  NON-SPEC fills:      16550
LLC Test counter :          0
LLC Leapfrog:          0
LLC MSHR merge:          0
LLC TOTAL     ACCESS:   48884297  HIT:    6934748  MISS:   41949549  HIT %:     14.186  MISS %:     85.814   MPKI: 209.748
LLC LOAD      TOTAL       ACCESS:     350352  HIT:     114937  MISS:     235415  HIT %:    32.8061  MISS %:    67.1939   MPKI: 1.17708
LLC LOAD      NON_SPEC    ACCESS:      16762  HIT:        212  MISS:      16550  HIT %:    1.26477  MISS %:    98.7352   MPKI: 0.08275
LLC LOAD      SPEC        ACCESS:     333590  HIT:     114725  MISS:     218865  HIT %:     34.391  MISS %:     65.609   MPKI: 1.09432
LLC RFO       NON_SPEC    ACCESS:     395571  HIT:         79  MISS:     395492  HIT %:  0.0199711  MISS %:      99.98   MPKI: 1.97746
LLC PREFETCH  NON_SPEC    ACCESS:   41450447  HIT:     344335  MISS:   41106112  HIT %:   0.830715  MISS %:    99.1693   MPKI: 205.531
LLC WRITEBACK NON_SPEC    ACCESS:     521956  HIT:     521253  MISS:        703  HIT %:    99.8653  MISS %:   0.134686   MPKI: 0.003515
LLC CLEAN_EVICTION NON_SPEC    ACCESS:    6107672  HIT:    5907233  MISS:     200439  HIT %:    96.7182  MISS %:    3.28176   MPKI: 1.00219
LLC COMMIT LOAD NON_SPEC    ACCESS:      49315  HIT:      46490  MISS:       2825  HIT %:    94.2715  MISS %:    5.72848   MPKI: 0.014125
LLC LOAD TRANSLATION NON_SPEC    ACCESS:       2336  HIT:         63  MISS:       2273  HIT %:    2.69692  MISS %:    97.3031   MPKI: 0.011365
LLC TRANSLATION FROM L1D PREFETCHER NON_SPEC    ACCESS:       6648  HIT:        358  MISS:       6290  HIT %:    5.38508  MISS %:    94.6149   MPKI: 0.03145
LLC PREFETCH  REQUESTED:          0  ISSUED:          0  USEFUL:     159218  USELESS:   40951510
LLC USEFUL LOAD PREFETCHES:     159218 PREFETCH ISSUED TO LOWER LEVEL:   41106119  ACCURACY: 0.387334
LLC TIMELY PREFETCHES:     159218 LATE PREFETCHES: 0 DROPPED PREFETCHES: 0
LLC COMMIT LATE PREFETCHES: 0 MISSED OPPORTUNITY: 0 LATE IN PQ: 0 UNCOVERED: 0
LLC COMMIT LATE MSHR PREFETCHES: 0
LLC MPKI TOTAL: 1.17708 MSHR LATE: 0 PQ LATE: 0 COMMIT LATE: 0 MISSED OPPORTUNITY: 0 UNCOVERED: 0
LLC PREFETCHES SAME FILL-ORIGIN LEVEL: 0 DIFFERENT FILL-ORIGIN LEVEL: 0
LLC AVERAGE MISS LATENCY: 295.8 cycles
LLC AVERAGE MISS LATENCY LOAD: 253.865 cycles
LLC AVERAGE MISS LATENCY PREFETCH: 296.407 cycles
LLC AVERAGE MSHR OCCUPANCY: 17.7212
LLC MSHR FULL: 0
LLC RQ	ACCESS:     804222	FORWARD:          0	MERGED:          0	TO_CACHE:     804222
LLC WQ	ACCESS:    6629628	FORWARD:          0	MERGED:          0	TO_CACHE:    6629628
LLC PQ	ACCESS:   41450464	FORWARD:          0	MERGED:          0	TO_CACHE:   41450464

LLC Dense regions hint to LLC: 0

RAW hits: 8302516
Loads Generated: 91532964
Loads sent to L1D: 83230442
Stores Generated: 13518701
Stores sent to L1D: 13518702
Major fault: 0 Minor fault: 17320
Allocated PAGES: 17320
Total Load insts: 103528928
Total Non-spec loads: 10215170
Percentage of speculative loads: 90.133

LeapFrogging counter: 15381942
Commit hits: 40291093 miss: 33461510
Commit hit %: 54.6301 miss %: 45.3699
Commits not translated: 0
Loads retired: 14055729
Stores retired: 13518702
Cache fills: 14055732
L1D response latency: 93.1658 cycles
Load retirement latency: 228.265 cycles
OOO test counter: 0
Discarded buffer inserts: 40291093 hits: 44530 hit %: 0.110521
Filter prediction accuracy: 98.286
LATENCY_FILL: 89.5739 14046161

DRAM Statistics
 CHANNEL 0
 RQ ROW_BUFFER_HIT:   32324128  ROW_BUFFER_MISS:    9424116
 DBUS_CONGESTED:        812
 WQ ROW_BUFFER_HIT:    1106192  ROW_BUFFER_MISS:    5519674  FULL:          0

 AVG_CONGESTED_CYCLE: 5
 All warmup complete: 2
Channel 0 Bank busy for read cycles: 0
Channel 0 Bank busy for write cycles: 0
Channel 0
Rank 0
0banks busy for read cycles: 35288117
0banks busy for write cycles: 48405
1banks busy for read cycles: 10752215
1banks busy for write cycles: 5354155
2banks busy for read cycles: 12252916
2banks busy for write cycles: 3984465
3banks busy for read cycles: 15565743
3banks busy for write cycles: 3632523
4banks busy for read cycles: 21030028
4banks busy for write cycles: 3634051
5banks busy for read cycles: 30310287
5banks busy for write cycles: 3901761
6banks busy for read cycles: 49577041
6banks busy for write cycles: 5222151
7banks busy for read cycles: 104573254
7banks busy for write cycles: 18888330
8banks busy for read cycles: 224672921
8banks busy for write cycles: 111627981

CPU 0 Branch Prediction Accuracy: 98.8241% MPKI: 2.1554 Average ROB Occupancy at Mispredict: 57.3748
Branch types
NOT_BRANCH: 163339829 81.6699%
BRANCH_DIRECT_JUMP: 8413978 4.20699%
BRANCH_INDIRECT: 0 0%
BRANCH_CONDITIONAL: 28243017 14.1215%
BRANCH_DIRECT_CALL: 1578 0.000789%
BRANCH_INDIRECT_CALL: 0 0%
BRANCH_RETURN: 1578 0.000789%
BRANCH_OTHER: 0 0%

DRAM PAGES: 1048576
Allocated PAGES: 17320
