
*** ChampSim Multicore Out-of-Order Simulator ***

Warmup Instructions: 50000000
Simulation Instructions: 200000000
Number of CPUs: 1
LLC sets: 2048
LLC ways: 16
L0D sets: 16
L0D ways: 2
ROB size: 352
LQ size: 128
SQ size: 72
Secure Berti: OFF
Berti: OFF
Berti Fill: OFF
On commit prefetching: OFF
Hit-based filter: ON
Time-guarding: ON
Free-slotting: ON
Leap-frogging: ON
Train prefetcher on L0D bypass: OFF
No translation penalty for prefetchers: OFF
Prefetch to L0D only: OFF
Prefetch to L1D only: OFF
Clean evictions: ON
Commit loads: ON
Commit write: ON
Fill commit loads to L2C, LLC: ON
DRAM IO FREQUENCY: 6400
ROB SIZE: 352
Off-chip DRAM Size: 4096 MB Channels: 1 Width: 64-bit Data Rate: 6400 MT/s
CPU 0 runs /home/sumon/secure_berti/GhostMinion/../../traces/spec/605.mcf_s-782B.champsimtrace.xz
.xz
BTB has LRU replacement policy
ITLB has LRU replacement policy
DTLB has LRU replacement policy
STLB has LRU replacement policy
L1I has LRU replacement policy
L0D has LRU replacement policy
History Sets: 8
History Ways: 16
BERTI Size: 16
BERTI Stride Size: 16
L1D has LRU replacement policy
L2C has LRU replacement policy
LLC has LRU replacement policy
Heartbeat CPU 0 instructions: 10000001 cycles: 5022358 heartbeat IPC: 1.9911 cumulative IPC: 1.9911 (Simulation time: 0 hr 0 min 48 sec) 
Heartbeat CPU 0 instructions: 20000000 cycles: 9843684 heartbeat IPC: 2.07412 cumulative IPC: 2.03176 (Simulation time: 0 hr 1 min 36 sec) 
Heartbeat CPU 0 instructions: 30000000 cycles: 14670234 heartbeat IPC: 2.07187 cumulative IPC: 2.04496 (Simulation time: 0 hr 2 min 25 sec) 
Heartbeat CPU 0 instructions: 40000002 cycles: 19443444 heartbeat IPC: 2.09503 cumulative IPC: 2.05725 (Simulation time: 0 hr 3 min 15 sec) 
Heartbeat CPU 0 instructions: 50000000 cycles: 24328718 heartbeat IPC: 2.04697 cumulative IPC: 2.05518 (Simulation time: 0 hr 4 min 5 sec) 

Warmup complete CPU 0 instructions: 50000001 cycles: 24328719 (Simulation time: 0 hr 4 min 5 sec) 

Heartbeat CPU 0 instructions: 60000000 cycles: 75847001 heartbeat IPC: 0.194106 cumulative IPC: 0.194106 (Simulation time: 0 hr 5 min 22 sec) 
Heartbeat CPU 0 instructions: 70000002 cycles: 126818055 heartbeat IPC: 0.19619 cumulative IPC: 0.195142 (Simulation time: 0 hr 6 min 40 sec) 
Heartbeat CPU 0 instructions: 80000002 cycles: 177823832 heartbeat IPC: 0.196056 cumulative IPC: 0.195446 (Simulation time: 0 hr 7 min 58 sec) 
Heartbeat CPU 0 instructions: 90000000 cycles: 231982034 heartbeat IPC: 0.184644 cumulative IPC: 0.192629 (Simulation time: 0 hr 9 min 18 sec) 
Heartbeat CPU 0 instructions: 100000001 cycles: 288414791 heartbeat IPC: 0.177202 cumulative IPC: 0.189332 (Simulation time: 0 hr 10 min 39 sec) 
Heartbeat CPU 0 instructions: 110000000 cycles: 346559640 heartbeat IPC: 0.171984 cumulative IPC: 0.186202 (Simulation time: 0 hr 12 min 0 sec) 
Heartbeat CPU 0 instructions: 120000000 cycles: 400590673 heartbeat IPC: 0.185079 cumulative IPC: 0.186041 (Simulation time: 0 hr 13 min 19 sec) 
Heartbeat CPU 0 instructions: 130000000 cycles: 453394072 heartbeat IPC: 0.189382 cumulative IPC: 0.186452 (Simulation time: 0 hr 14 min 36 sec) 
Heartbeat CPU 0 instructions: 140000001 cycles: 505007145 heartbeat IPC: 0.193749 cumulative IPC: 0.187235 (Simulation time: 0 hr 15 min 48 sec) 
Heartbeat CPU 0 instructions: 150000000 cycles: 557595970 heartbeat IPC: 0.190154 cumulative IPC: 0.187523 (Simulation time: 0 hr 16 min 55 sec) 
Heartbeat CPU 0 instructions: 160000002 cycles: 610787272 heartbeat IPC: 0.188001 cumulative IPC: 0.187567 (Simulation time: 0 hr 17 min 59 sec) 
Heartbeat CPU 0 instructions: 170000001 cycles: 664762880 heartbeat IPC: 0.185269 cumulative IPC: 0.187373 (Simulation time: 0 hr 19 min 0 sec) 
Heartbeat CPU 0 instructions: 180000002 cycles: 718136993 heartbeat IPC: 0.187357 cumulative IPC: 0.187372 (Simulation time: 0 hr 20 min 1 sec) 
Heartbeat CPU 0 instructions: 190000003 cycles: 777531086 heartbeat IPC: 0.168367 cumulative IPC: 0.185873 (Simulation time: 0 hr 21 min 3 sec) 
Heartbeat CPU 0 instructions: 200000002 cycles: 836854047 heartbeat IPC: 0.168569 cumulative IPC: 0.18461 (Simulation time: 0 hr 22 min 6 sec) 
Heartbeat CPU 0 instructions: 210000003 cycles: 893916095 heartbeat IPC: 0.175248 cumulative IPC: 0.183995 (Simulation time: 0 hr 23 min 6 sec) 
Heartbeat CPU 0 instructions: 220000000 cycles: 950019644 heartbeat IPC: 0.178242 cumulative IPC: 0.183647 (Simulation time: 0 hr 24 min 5 sec) 
Heartbeat CPU 0 instructions: 230000001 cycles: 1005634424 heartbeat IPC: 0.179808 cumulative IPC: 0.183429 (Simulation time: 0 hr 25 min 3 sec) 
Heartbeat CPU 0 instructions: 240000003 cycles: 1060426971 heartbeat IPC: 0.182507 cumulative IPC: 0.18338 (Simulation time: 0 hr 26 min 0 sec) 
Heartbeat CPU 0 instructions: 250000002 cycles: 1113975213 heartbeat IPC: 0.186747 cumulative IPC: 0.183546 (Simulation time: 0 hr 26 min 57 sec) 
Finished CPU 0 instructions: 200000001 cycles: 1089646494 cumulative IPC: 0.183546 (Simulation time: 0 hr 26 min 57 sec) 
 Instruction ID: 250000129

ChampSim completed all CPUs

Region of Interest Statistics

CPU 0 cumulative IPC: 0.183546 instructions: 200000001 cycles: 1089646494
ITLB SPEC fills:          0  NON-SPEC fills:          0
ITLB Test counter :          0
ITLB Leapfrog:          0
ITLB MSHR merge:          0
ITLB TOTAL     ACCESS:   32545673  HIT:   32545673  MISS:          0  HIT %:        100  MISS %:          0   MPKI: 0
ITLB LOAD TRANSLATION NON_SPEC    ACCESS:   32545673  HIT:   32545673  MISS:          0  HIT %:        100  MISS %:          0   MPKI: 0
ITLB PREFETCH  REQUESTED:          0  ISSUED:          0  USEFUL:          0  USELESS:          0
ITLB USEFUL LOAD PREFETCHES:          0 PREFETCH ISSUED TO LOWER LEVEL:          0  ACCURACY: -nan
ITLB TIMELY PREFETCHES:          0 LATE PREFETCHES: 0 DROPPED PREFETCHES: 0
ITLB COMMIT LATE PREFETCHES: 0 MISSED OPPORTUNITY: 0 LATE IN PQ: 0 UNCOVERED: 0
ITLB COMMIT LATE MSHR PREFETCHES: 0
ITLB MPKI TOTAL: 0 MSHR LATE: 0 PQ LATE: 0 COMMIT LATE: 0 MISSED OPPORTUNITY: 0 UNCOVERED: 0
ITLB PREFETCHES SAME FILL-ORIGIN LEVEL: 0 DIFFERENT FILL-ORIGIN LEVEL: 0
ITLB AVERAGE MISS LATENCY: -nan cycles
ITLB AVERAGE MISS LATENCY LOAD: -nan cycles
ITLB AVERAGE MISS LATENCY PREFETCH: -nan cycles
ITLB AVERAGE MSHR OCCUPANCY: 0
ITLB MSHR FULL: 0
ITLB RQ	ACCESS:   32904735	FORWARD:          0	MERGED:     359062	TO_CACHE:   32545673

DTLB SPEC fills:          0  NON-SPEC fills:          0
DTLB Test counter :          0
DTLB Leapfrog:          0
DTLB MSHR merge:          0
DTLB TOTAL     ACCESS:   46047297  HIT:   28425795  MISS:   17621502  HIT %:    61.7317  MISS %:    38.2683   MPKI: 88.1075
DTLB LOAD TRANSLATION NON_SPEC    ACCESS:   46047297  HIT:   28425795  MISS:   17621502  HIT %:    61.7317  MISS %:    38.2683   MPKI: 88.1075
DTLB PREFETCH  REQUESTED:          0  ISSUED:          0  USEFUL:          0  USELESS:          0
DTLB USEFUL LOAD PREFETCHES:          0 PREFETCH ISSUED TO LOWER LEVEL:          0  ACCURACY: -nan
DTLB TIMELY PREFETCHES:          0 LATE PREFETCHES: 0 DROPPED PREFETCHES: 0
DTLB COMMIT LATE PREFETCHES: 0 MISSED OPPORTUNITY: 0 LATE IN PQ: 0 UNCOVERED: 0
DTLB COMMIT LATE MSHR PREFETCHES: 0
DTLB MPKI TOTAL: 0 MSHR LATE: 0 PQ LATE: 0 COMMIT LATE: 0 MISSED OPPORTUNITY: 0 UNCOVERED: 0
DTLB PREFETCHES SAME FILL-ORIGIN LEVEL: 0 DIFFERENT FILL-ORIGIN LEVEL: 0
DTLB AVERAGE MISS LATENCY: 11.6218 cycles
DTLB AVERAGE MISS LATENCY LOAD: -nan cycles
DTLB AVERAGE MISS LATENCY PREFETCH: -nan cycles
DTLB AVERAGE MSHR OCCUPANCY: 0.29012
DTLB MSHR FULL: 8.81798e-07
DTLB RQ	ACCESS:   51800406	FORWARD:          0	MERGED:    5304521	TO_CACHE:   46495885

STLB SPEC fills:          0  NON-SPEC fills:          0
STLB Test counter :          0
STLB Leapfrog:          0
STLB MSHR merge:          0
STLB TOTAL     ACCESS:   25107632  HIT:   24868929  MISS:     238703  HIT %:    99.0493  MISS %:   0.950719   MPKI: 1.19351
STLB LOAD TRANSLATION NON_SPEC    ACCESS:   17621501  HIT:   17384087  MISS:     237414  HIT %:    98.6527  MISS %:     1.3473   MPKI: 1.18707
STLB TRANSLATION FROM L1D PREFETCHER NON_SPEC    ACCESS:    7486131  HIT:    7484842  MISS:       1289  HIT %:    99.9828  MISS %:  0.0172185   MPKI: 0.006445
STLB PREFETCH  REQUESTED:          0  ISSUED:          0  USEFUL:       1118  USELESS:        171
STLB USEFUL LOAD PREFETCHES:       1118 PREFETCH ISSUED TO LOWER LEVEL:          0  ACCURACY: inf
STLB TIMELY PREFETCHES:       1118 LATE PREFETCHES: 79116 DROPPED PREFETCHES: 2885892
STLB COMMIT LATE PREFETCHES: 0 MISSED OPPORTUNITY: 0 LATE IN PQ: 0 UNCOVERED: 0
STLB COMMIT LATE MSHR PREFETCHES: 0
STLB MPKI TOTAL: 0 MSHR LATE: 0.39558 PQ LATE: 0 COMMIT LATE: 0 MISSED OPPORTUNITY: 0 UNCOVERED: 0
STLB PREFETCHES SAME FILL-ORIGIN LEVEL: 0 DIFFERENT FILL-ORIGIN LEVEL: 0
STLB AVERAGE MISS LATENCY: 184.414 cycles
STLB AVERAGE MISS LATENCY LOAD: -nan cycles
STLB AVERAGE MISS LATENCY PREFETCH: -nan cycles
STLB AVERAGE MSHR OCCUPANCY: 0.548563
STLB MSHR FULL: 0
STLB RQ	ACCESS:   82156855	FORWARD:          0	MERGED:   53613486	TO_CACHE:   28543369

STLB Hit, L1D data hit: 0
STLB Hit, L2C data hit: 0
STLB Hit, LLC data hit: 0
STLB Hit, LLC data miss: 0
STLB STLB hints to L2: 0
L0D SPEC fills:   30631966  NON-SPEC fills:          0
L0D TimeGuard Request with older TS:    1178768 Restricted eviction:     741416 read:     126188
L0D Test counter :          0
L0D Leapfrog:          0
L0D MSHR merge:    4150699
L0D TOTAL     ACCESS:   44071263  HIT:    2796022  MISS:   41275241  HIT %:    6.34432  MISS %:    93.6557   MPKI: 206.376
L0D LOAD      TOTAL       ACCESS:   44071263  HIT:    2796022  MISS:   41275241  HIT %:    6.34432  MISS %:    93.6557   MPKI: 206.376
L0D LOAD      NON_SPEC    ACCESS:   10162239  HIT:     260374  MISS:    9901865  HIT %:    2.56217  MISS %:    97.4378   MPKI: 49.5093
L0D LOAD      SPEC        ACCESS:   33909024  HIT:    2535648  MISS:   31373376  HIT %:     7.4778  MISS %:    92.5222   MPKI: 156.867
L0D PREFETCH  REQUESTED:          0  ISSUED:          0  USEFUL:          0  USELESS:          0
L0D USEFUL LOAD PREFETCHES:          0 PREFETCH ISSUED TO LOWER LEVEL:          0  ACCURACY: -nan
L0D TIMELY PREFETCHES:          0 LATE PREFETCHES: 0 DROPPED PREFETCHES: 0
L0D COMMIT LATE PREFETCHES: 0 MISSED OPPORTUNITY: 0 LATE IN PQ: 0 UNCOVERED: 0
L0D COMMIT LATE MSHR PREFETCHES: 0
L0D MPKI TOTAL: 227.13 MSHR LATE: 0 PQ LATE: 0 COMMIT LATE: 0 MISSED OPPORTUNITY: 0 UNCOVERED: 0
L0D PREFETCHES SAME FILL-ORIGIN LEVEL: 0 DIFFERENT FILL-ORIGIN LEVEL: 0
L0D AVERAGE MISS LATENCY: 49.3894 cycles
L0D AVERAGE MISS LATENCY LOAD: 49.3894 cycles
L0D AVERAGE MISS LATENCY PREFETCH: -nan cycles
L0D AVERAGE MSHR OCCUPANCY: 3.14339
L0D MSHR FULL: 0.18576
L0D RQ	ACCESS:   71282318	FORWARD:          0	MERGED:   23060361	TO_CACHE:   48221957
L0D WQ	ACCESS:    3578449	FORWARD:          0	MERGED:          0	TO_CACHE:    3578449

L1D SPEC fills:          0  NON-SPEC fills:    6059596
L1D Test counter :          0
L1D Leapfrog:          0
L1D MSHR merge:    1296435
L1D TOTAL     ACCESS:  103845848  HIT:   57030381  MISS:   46815467  HIT %:    54.9183  MISS %:    45.0817   MPKI: 234.077
L1D LOAD      TOTAL       ACCESS:   41267333  HIT:   19368277  MISS:   21899056  HIT %:    46.9337  MISS %:    53.0663   MPKI: 109.495
L1D LOAD      NON_SPEC    ACCESS:    9900671  HIT:    3841075  MISS:    6059596  HIT %:    38.7961  MISS %:    61.2039   MPKI: 30.298
L1D LOAD      SPEC        ACCESS:   31366662  HIT:   15527202  MISS:   15839460  HIT %:    49.5022  MISS %:    50.4978   MPKI: 79.1973
L1D RFO       NON_SPEC    ACCESS:    3277081  HIT:    3216300  MISS:      60781  HIT %:    98.1453  MISS %:    1.85473   MPKI: 0.303905
L1D PREFETCH  NON_SPEC    ACCESS:   40541444  HIT:   31361788  MISS:    9179656  HIT %:    77.3574  MISS %:    22.6426   MPKI: 45.8983
L1D COMMIT LOAD NON_SPEC    ACCESS:    3952316  HIT:    2947976  MISS:    1004340  HIT %:    74.5886  MISS %:    25.4114   MPKI: 5.0217
L1D COMMIT WRITE NON_SPEC    ACCESS:   14807674  HIT:     136040  MISS:   14671634  HIT %:   0.918713  MISS %:    99.0813   MPKI: 73.3582
L1D PREFETCH  REQUESTED:  105330395  ISSUED:   88092510  USEFUL:    9170728  USELESS:       8922
L1D USEFUL LOAD PREFETCHES:    9170728 PREFETCH ISSUED TO LOWER LEVEL:   16362694  ACCURACY: 56.0466
L1D TIMELY PREFETCHES:    9170728 LATE PREFETCHES: 1288672 DROPPED PREFETCHES: 9186556
L1D COMMIT LATE PREFETCHES: 0 MISSED OPPORTUNITY: 0 LATE IN PQ: 0 UNCOVERED: 0
L1D COMMIT LATE MSHR PREFETCHES: 0
L1D MPKI TOTAL: 109.535 MSHR LATE: 6.44336 PQ LATE: 0 COMMIT LATE: 0 MISSED OPPORTUNITY: 0 UNCOVERED: 0
L1D PREFETCHES SAME FILL-ORIGIN LEVEL: 10468328 DIFFERENT FILL-ORIGIN LEVEL: 5894366
L1D AVERAGE MISS LATENCY: 71.18 cycles
L1D AVERAGE MISS LATENCY LOAD: 81.2601 cycles
L1D AVERAGE MISS LATENCY PREFETCH: 162.79 cycles
L1D AVERAGE MSHR OCCUPANCY: 4.91209
L1D MSHR FULL: 0.125725
L1D RQ	ACCESS:   48169309	FORWARD:          0	MERGED:    2912840	TO_CACHE:   45239287
L1D WQ	ACCESS:   18394787	FORWARD:      17182	MERGED:     157672	TO_CACHE:   18237115
L1D PQ	ACCESS:   88092510	FORWARD:          0	MERGED:   23557156	TO_CACHE:   64535354

L1D UNIQUE REGIONS ACCESSED: 0
L1D REGIONS CONFLICTS: 0
L1D Cross Page Prefetch Requests: 16275450
L1D Same Page Prefetch Requests: 93710114
L1D ROI Sum of L1D PQ occupancy: 2586863390
L1D PREFETCHES PUSHED FROM L2C: 0
L1I SPEC fills:          0  NON-SPEC fills:          0
L1I Test counter :          0
L1I Leapfrog:          0
L1I MSHR merge:          0
L1I TOTAL     ACCESS:   32904734  HIT:   32904734  MISS:          0  HIT %:        100  MISS %:          0   MPKI: 0
L1I LOAD      TOTAL       ACCESS:   32904734  HIT:   32904734  MISS:          0  HIT %:        100  MISS %:          0   MPKI: 0
L1I LOAD      NON_SPEC    ACCESS:   32904734  HIT:   32904734  MISS:          0  HIT %:        100  MISS %:          0   MPKI: 0
L1I PREFETCH  REQUESTED:          0  ISSUED:          0  USEFUL:          0  USELESS:          0
L1I USEFUL LOAD PREFETCHES:          0 PREFETCH ISSUED TO LOWER LEVEL:          0  ACCURACY: -nan
L1I TIMELY PREFETCHES:          0 LATE PREFETCHES: 0 DROPPED PREFETCHES: 0
L1I COMMIT LATE PREFETCHES: 0 MISSED OPPORTUNITY: 0 LATE IN PQ: 0 UNCOVERED: 0
L1I COMMIT LATE MSHR PREFETCHES: 0
L1I MPKI TOTAL: 0 MSHR LATE: 0 PQ LATE: 0 COMMIT LATE: 0 MISSED OPPORTUNITY: 0 UNCOVERED: 0
L1I PREFETCHES SAME FILL-ORIGIN LEVEL: 0 DIFFERENT FILL-ORIGIN LEVEL: 0
L1I AVERAGE MISS LATENCY: -nan cycles
L1I AVERAGE MISS LATENCY LOAD: -nan cycles
L1I AVERAGE MISS LATENCY PREFETCH: -nan cycles
L1I AVERAGE MSHR OCCUPANCY: 0
L1I MSHR FULL: 0
L1I RQ	ACCESS:   43279614	FORWARD:          0	MERGED:   10374879	TO_CACHE:   32904735

BTB SPEC fills:          0  NON-SPEC fills:          0
BTB Test counter :          0
BTB Leapfrog:          0
BTB MSHR merge:          0
BTB TOTAL     ACCESS:   60210745  HIT:   60015900  MISS:     194845  HIT %:    99.6764  MISS %:   0.323605   MPKI: 0.974225
BTB BRANCH_DIRECT_JUMP	ACCESS:    7722186  HIT:    7722149  MISS:         37
BTB BRANCH_INDIRECT	ACCESS:          0  HIT:          0  MISS:          0
BTB BRANCH_CONDITIONAL	ACCESS:   51083203  HIT:   51083121  MISS:         82
BTB BRANCH_DIRECT_CALL	ACCESS:     648845  HIT:     648827  MISS:         18
BTB BRANCH_INDIRECT_CALL	ACCESS:      53834  HIT:      53826  MISS:          8
BTB BRANCH_RETURN	ACCESS:     702677  HIT:     507977  MISS:     194700
BTB BRANCH_OTHER ACCESS:          0  HIT:          0  MISS:          0

L2C SPEC fills:          0  NON-SPEC fills:    4950596
L2C Test counter :          0
L2C Leapfrog:          0
L2C MSHR merge:      75423
L2C TOTAL     ACCESS:   64054087  HIT:   23800359  MISS:   40253728  HIT %:    37.1567  MISS %:    62.8433   MPKI: 201.269
L2C LOAD      TOTAL       ACCESS:   20610272  HIT:    3723043  MISS:   16887229  HIT %:     18.064  MISS %:     81.936   MPKI: 84.4361
L2C LOAD      NON_SPEC    ACCESS:    6057624  HIT:    1107028  MISS:    4950596  HIT %:     18.275  MISS %:     81.725   MPKI: 24.753
L2C LOAD      SPEC        ACCESS:   14552648  HIT:    2616015  MISS:   11936633  HIT %:    17.9762  MISS %:    82.0238   MPKI: 59.6832
L2C RFO       NON_SPEC    ACCESS:      60756  HIT:       6145  MISS:      54611  HIT %:    10.1142  MISS %:    89.8858   MPKI: 0.273055
L2C PREFETCH  NON_SPEC    ACCESS:   13731406  HIT:    2377113  MISS:   11354293  HIT %:    17.3115  MISS %:    82.6885   MPKI: 56.7715
L2C WRITEBACK NON_SPEC    ACCESS:     234968  HIT:     234968  MISS:          0  HIT %:        100  MISS %:          0   MPKI: 0
L2C CLEAN_EVICTION NON_SPEC    ACCESS:   12398522  HIT:    1253262  MISS:   11145260  HIT %:    10.1082  MISS %:    89.8918   MPKI: 55.7263
L2C COMMIT LOAD NON_SPEC    ACCESS:    1004195  HIT:     278310  MISS:     725885  HIT %:    27.7147  MISS %:    72.2853   MPKI: 3.62942
L2C LOAD TRANSLATION NON_SPEC    ACCESS:    1186217  HIT:    1122562  MISS:      63655  HIT %:    94.6338  MISS %:    5.36622   MPKI: 0.318275
L2C TRANSLATION FROM L1D PREFETCHER NON_SPEC    ACCESS:   14827751  HIT:   14804956  MISS:      22795  HIT %:    99.8463  MISS %:   0.153732   MPKI: 0.113975
L2C PREFETCH  REQUESTED:          0  ISSUED:          0  USEFUL:     593471  USELESS:   10783746
L2C USEFUL LOAD PREFETCHES:     593471 PREFETCH ISSUED TO LOWER LEVEL:   11430144  ACCURACY: 5.19216
L2C TIMELY PREFETCHES:     593471 LATE PREFETCHES: 75851 DROPPED PREFETCHES: 0
L2C COMMIT LATE PREFETCHES: 0 MISSED OPPORTUNITY: 0 LATE IN PQ: 0 UNCOVERED: 0
L2C COMMIT LATE MSHR PREFETCHES: 0
L2C MPKI TOTAL: 84.4361 MSHR LATE: 0.379255 PQ LATE: 0 COMMIT LATE: 0 MISSED OPPORTUNITY: 0 UNCOVERED: 0
L2C PREFETCHES SAME FILL-ORIGIN LEVEL: 4126541 DIFFERENT FILL-ORIGIN LEVEL: 0
L2C AVERAGE MISS LATENCY: 85.8507 cycles
L2C AVERAGE MISS LATENCY LOAD: 79.4975 cycles
L2C AVERAGE MISS LATENCY PREFETCH: 181.403 cycles
L2C AVERAGE MSHR OCCUPANCY: 4.34766
L2C MSHR FULL: 5.30653e-06
L2C RQ	ACCESS:   37689470	FORWARD:          0	MERGED:          0	TO_CACHE:   37689189
L2C WQ	ACCESS:   12633490	FORWARD:        282	MERGED:          0	TO_CACHE:   12633490
L2C PQ	ACCESS:   16362589	FORWARD:          0	MERGED:       1521	TO_CACHE:   16361067

L2C Instructions Evicting Data 0
L2C Translations Evicting Data 86252
L2C Data Evicting Data 17032053
L2C Instructions Evicting Instructions 0
L2C Translations Evicting Instructions 0
L2C Data Evicting Instructions 0
L2C Instructions Evicting Translations 0
L2C Translations Evicting Translations 198
L2C Data Evicting Translations 53332
L2C Dense regions hint from L2: 0
PSCL5 SPEC fills:          0  NON-SPEC fills:          0
PSCL5 Test counter :          0
PSCL5 Leapfrog:          0
PSCL5 MSHR merge:          0
PSCL5 TOTAL     ACCESS:          0  HIT:          0  MISS:          0  HIT %:       -nan  MISS %:       -nan   MPKI: 0
PSCL5 PREFETCH  REQUESTED:          0  ISSUED:          0  USEFUL:          0  USELESS:          0
PSCL5 USEFUL LOAD PREFETCHES:          0 PREFETCH ISSUED TO LOWER LEVEL:          0  ACCURACY: -nan
PSCL5 TIMELY PREFETCHES:          0 LATE PREFETCHES: 0 DROPPED PREFETCHES: 0
PSCL5 COMMIT LATE PREFETCHES: 0 MISSED OPPORTUNITY: 0 LATE IN PQ: 0 UNCOVERED: 0
PSCL5 COMMIT LATE MSHR PREFETCHES: 0
PSCL5 MPKI TOTAL: 0 MSHR LATE: 0 PQ LATE: 0 COMMIT LATE: 0 MISSED OPPORTUNITY: 0 UNCOVERED: 0
PSCL5 PREFETCHES SAME FILL-ORIGIN LEVEL: 0 DIFFERENT FILL-ORIGIN LEVEL: 0

PSCL4 SPEC fills:          0  NON-SPEC fills:          0
PSCL4 Test counter :          0
PSCL4 Leapfrog:          0
PSCL4 MSHR merge:          0
PSCL4 TOTAL     ACCESS:          0  HIT:          0  MISS:          0  HIT %:       -nan  MISS %:       -nan   MPKI: 0
PSCL4 PREFETCH  REQUESTED:          0  ISSUED:          0  USEFUL:          0  USELESS:          0
PSCL4 USEFUL LOAD PREFETCHES:          0 PREFETCH ISSUED TO LOWER LEVEL:          0  ACCURACY: -nan
PSCL4 TIMELY PREFETCHES:          0 LATE PREFETCHES: 0 DROPPED PREFETCHES: 0
PSCL4 COMMIT LATE PREFETCHES: 0 MISSED OPPORTUNITY: 0 LATE IN PQ: 0 UNCOVERED: 0
PSCL4 COMMIT LATE MSHR PREFETCHES: 0
PSCL4 MPKI TOTAL: 0 MSHR LATE: 0 PQ LATE: 0 COMMIT LATE: 0 MISSED OPPORTUNITY: 0 UNCOVERED: 0
PSCL4 PREFETCHES SAME FILL-ORIGIN LEVEL: 0 DIFFERENT FILL-ORIGIN LEVEL: 0

PSCL3 SPEC fills:          0  NON-SPEC fills:          0
PSCL3 Test counter :          0
PSCL3 Leapfrog:          0
PSCL3 MSHR merge:          0
PSCL3 TOTAL     ACCESS:          0  HIT:          0  MISS:          0  HIT %:       -nan  MISS %:       -nan   MPKI: 0
PSCL3 PREFETCH  REQUESTED:          0  ISSUED:          0  USEFUL:          0  USELESS:          0
PSCL3 USEFUL LOAD PREFETCHES:          0 PREFETCH ISSUED TO LOWER LEVEL:          0  ACCURACY: -nan
PSCL3 TIMELY PREFETCHES:          0 LATE PREFETCHES: 0 DROPPED PREFETCHES: 0
PSCL3 COMMIT LATE PREFETCHES: 0 MISSED OPPORTUNITY: 0 LATE IN PQ: 0 UNCOVERED: 0
PSCL3 COMMIT LATE MSHR PREFETCHES: 0
PSCL3 MPKI TOTAL: 0 MSHR LATE: 0 PQ LATE: 0 COMMIT LATE: 0 MISSED OPPORTUNITY: 0 UNCOVERED: 0
PSCL3 PREFETCHES SAME FILL-ORIGIN LEVEL: 0 DIFFERENT FILL-ORIGIN LEVEL: 0

PSCL2 SPEC fills:          0  NON-SPEC fills:          0
PSCL2 Test counter :          0
PSCL2 Leapfrog:          0
PSCL2 MSHR merge:          0
PSCL2 TOTAL     ACCESS:          0  HIT:          0  MISS:          0  HIT %:       -nan  MISS %:       -nan   MPKI: 0
PSCL2 PREFETCH  REQUESTED:          0  ISSUED:          0  USEFUL:          0  USELESS:          0
PSCL2 USEFUL LOAD PREFETCHES:          0 PREFETCH ISSUED TO LOWER LEVEL:          0  ACCURACY: -nan
PSCL2 TIMELY PREFETCHES:          0 LATE PREFETCHES: 0 DROPPED PREFETCHES: 0
PSCL2 COMMIT LATE PREFETCHES: 0 MISSED OPPORTUNITY: 0 LATE IN PQ: 0 UNCOVERED: 0
PSCL2 COMMIT LATE MSHR PREFETCHES: 0
PSCL2 MPKI TOTAL: 0 MSHR LATE: 0 PQ LATE: 0 COMMIT LATE: 0 MISSED OPPORTUNITY: 0 UNCOVERED: 0
PSCL2 PREFETCHES SAME FILL-ORIGIN LEVEL: 0 DIFFERENT FILL-ORIGIN LEVEL: 0

LLC SPEC fills:          0  NON-SPEC fills:    1191596
LLC Test counter :          0
LLC Leapfrog:          0
LLC MSHR merge:          0
LLC TOTAL     ACCESS:   41702452  HIT:   21898947  MISS:   19803505  HIT %:    52.5124  MISS %:    47.4876   MPKI: 99.0175
LLC LOAD      TOTAL       ACCESS:   16811486  HIT:   11962894  MISS:    4848592  HIT %:    71.1591  MISS %:    28.8409   MPKI: 24.243
LLC LOAD      NON_SPEC    ACCESS:    4950026  HIT:    3758430  MISS:    1191596  HIT %:    75.9275  MISS %:    24.0725   MPKI: 5.95798
LLC LOAD      SPEC        ACCESS:   11861460  HIT:    8204464  MISS:    3656996  HIT %:    69.1691  MISS %:    30.8309   MPKI: 18.285
LLC RFO       NON_SPEC    ACCESS:      54611  HIT:      46270  MISS:       8341  HIT %:    84.7265  MISS %:    15.2735   MPKI: 0.041705
LLC PREFETCH  NON_SPEC    ACCESS:   11430137  HIT:     579905  MISS:   10850232  HIT %:    5.07347  MISS %:    94.9265   MPKI: 54.2512
LLC WRITEBACK NON_SPEC    ACCESS:     220136  HIT:     220030  MISS:        106  HIT %:    99.9518  MISS %:  0.0481521   MPKI: 0.00053
LLC CLEAN_EVICTION NON_SPEC    ACCESS:   12374293  HIT:    8416060  MISS:    3958233  HIT %:    68.0125  MISS %:    31.9875   MPKI: 19.7912
LLC COMMIT LOAD NON_SPEC    ACCESS:     725339  HIT:     631283  MISS:      94056  HIT %:    87.0328  MISS %:    12.9672   MPKI: 0.47028
LLC LOAD TRANSLATION NON_SPEC    ACCESS:      63655  HIT:      42080  MISS:      21575  HIT %:    66.1064  MISS %:    33.8936   MPKI: 0.107875
LLC TRANSLATION FROM L1D PREFETCHER NON_SPEC    ACCESS:      22795  HIT:        425  MISS:      22370  HIT %:    1.86444  MISS %:    98.1356   MPKI: 0.11185
LLC PREFETCH  REQUESTED:          0  ISSUED:          0  USEFUL:      15144  USELESS:   10857747
LLC USEFUL LOAD PREFETCHES:      15144 PREFETCH ISSUED TO LOWER LEVEL:   10850232  ACCURACY: 0.139573
LLC TIMELY PREFETCHES:      15144 LATE PREFETCHES: 0 DROPPED PREFETCHES: 0
LLC COMMIT LATE PREFETCHES: 0 MISSED OPPORTUNITY: 0 LATE IN PQ: 0 UNCOVERED: 0
LLC COMMIT LATE MSHR PREFETCHES: 0
LLC MPKI TOTAL: 24.243 MSHR LATE: 0 PQ LATE: 0 COMMIT LATE: 0 MISSED OPPORTUNITY: 0 UNCOVERED: 0
LLC PREFETCHES SAME FILL-ORIGIN LEVEL: 0 DIFFERENT FILL-ORIGIN LEVEL: 0
LLC AVERAGE MISS LATENCY: 135.742 cycles
LLC AVERAGE MISS LATENCY LOAD: 191.918 cycles
LLC AVERAGE MISS LATENCY PREFETCH: 159.502 cycles
LLC AVERAGE MSHR OCCUPANCY: 3.44868
LLC MSHR FULL: 0
LLC RQ	ACCESS:   17678324	FORWARD:          0	MERGED:          0	TO_CACHE:   17677886
LLC WQ	ACCESS:   12594429	FORWARD:        445	MERGED:          0	TO_CACHE:   12594429
LLC PQ	ACCESS:   11430144	FORWARD:          0	MERGED:          0	TO_CACHE:   11430137

LLC Dense regions hint to LLC: 0

RAW hits: 470185
Loads Generated: 71752505
Loads sent to L1D: 71282318
Stores Generated: 3578449
Stores sent to L1D: 3578449
Major fault: 0 Minor fault: 219750
Allocated PAGES: 219750
Total Load insts: 89108163
Total Non-spec loads: 10773688
Percentage of speculative loads: 87.9094

LeapFrogging counter: 12110594
Commit hits: 29865599 miss: 31226217
Commit hit %: 48.8864 miss %: 51.1136
Commits not translated: 0
Loads retired: 21899056
Stores retired: 3578449
Cache fills: 21899056
L1D response latency: 81.2601 cycles
Load retirement latency: 229.579 cycles
OOO test counter: 0
Discarded buffer inserts: 29865599 hits: 24487 hit %: 0.0819907
Filter prediction accuracy: 99.9035
LATENCY_FILL: 80.818 21879780

DRAM Statistics
 CHANNEL 0
 RQ ROW_BUFFER_HIT:    4795488  ROW_BUFFER_MISS:   11046429
 DBUS_CONGESTED:      15069
 WQ ROW_BUFFER_HIT:    1337079  ROW_BUFFER_MISS:    4290276  FULL:       2794

 AVG_CONGESTED_CYCLE: 4
 All warmup complete: 2
Channel 0 Bank busy for read cycles: 0
Channel 0 Bank busy for write cycles: 0
Channel 0
Rank 0
0banks busy for read cycles: 110039503
0banks busy for write cycles: 289511
1banks busy for read cycles: 250615007
1banks busy for write cycles: 42293496
2banks busy for read cycles: 150245509
2banks busy for write cycles: 34828785
3banks busy for read cycles: 92320024
3banks busy for write cycles: 31922040
4banks busy for read cycles: 65093560
4banks busy for write cycles: 31224955
5banks busy for read cycles: 47940282
5banks busy for write cycles: 31850031
6banks busy for read cycles: 34114320
6banks busy for write cycles: 33762342
7banks busy for read cycles: 22898834
7banks busy for write cycles: 37409685
8banks busy for read cycles: 25631008
8banks busy for write cycles: 47167603

CPU 0 Branch Prediction Accuracy: 96.9705% MPKI: 9.2675 Average ROB Occupancy at Mispredict: 53.3155
Branch types
NOT_BRANCH: 138818916 69.4095%
BRANCH_DIRECT_JUMP: 7722186 3.86109%
BRANCH_INDIRECT: 0 0%
BRANCH_CONDITIONAL: 52053293 26.0266%
BRANCH_DIRECT_CALL: 648845 0.324422%
BRANCH_INDIRECT_CALL: 53834 0.026917%
BRANCH_RETURN: 702677 0.351338%
BRANCH_OTHER: 0 0%

DRAM PAGES: 1048576
Allocated PAGES: 219750
