
*** ChampSim Multicore Out-of-Order Simulator ***

Warmup Instructions: 50000000
Simulation Instructions: 200000000
Number of CPUs: 1
LLC sets: 2048
LLC ways: 16
L0D sets: 16
L0D ways: 2
ROB size: 352
LQ size: 128
SQ size: 72
Secure Berti: OFF
Berti: OFF
Berti Fill: OFF
On commit prefetching: OFF
Hit-based filter: ON
Time-guarding: ON
Free-slotting: ON
Leap-frogging: ON
Train prefetcher on L0D bypass: OFF
No translation penalty for prefetchers: OFF
Prefetch to L0D only: OFF
Prefetch to L1D only: OFF
Clean evictions: ON
Commit loads: ON
Commit write: ON
Fill commit loads to L2C, LLC: ON
DRAM IO FREQUENCY: 6400
ROB SIZE: 352
Off-chip DRAM Size: 4096 MB Channels: 1 Width: 64-bit Data Rate: 6400 MT/s
CPU 0 runs /home/sumon/secure_berti/GhostMinion/../../traces/spec/607.cactuBSSN_s-4004B.champsimtrace.xz
.xz
BTB has LRU replacement policy
ITLB has LRU replacement policy
DTLB has LRU replacement policy
STLB has LRU replacement policy
L1I has LRU replacement policy
L0D has LRU replacement policy
History Sets: 8
History Ways: 16
BERTI Size: 16
BERTI Stride Size: 16
L1D has LRU replacement policy
L2C has LRU replacement policy
LLC has LRU replacement policy
Heartbeat CPU 0 instructions: 10000001 cycles: 4396504 heartbeat IPC: 2.27453 cumulative IPC: 2.27453 (Simulation time: 0 hr 0 min 41 sec) 
Heartbeat CPU 0 instructions: 20000002 cycles: 8785472 heartbeat IPC: 2.27844 cumulative IPC: 2.27649 (Simulation time: 0 hr 1 min 21 sec) 
Heartbeat CPU 0 instructions: 30000001 cycles: 13181324 heartbeat IPC: 2.27487 cumulative IPC: 2.27595 (Simulation time: 0 hr 2 min 1 sec) 
Heartbeat CPU 0 instructions: 40000002 cycles: 17564483 heartbeat IPC: 2.28146 cumulative IPC: 2.27732 (Simulation time: 0 hr 2 min 42 sec) 
Heartbeat CPU 0 instructions: 50000001 cycles: 21968876 heartbeat IPC: 2.27046 cumulative IPC: 2.27595 (Simulation time: 0 hr 3 min 25 sec) 

Warmup complete CPU 0 instructions: 50000001 cycles: 21968876 (Simulation time: 0 hr 3 min 25 sec) 

Heartbeat CPU 0 instructions: 60000001 cycles: 40758209 heartbeat IPC: 0.532217 cumulative IPC: 0.532217 (Simulation time: 0 hr 4 min 22 sec) 
Heartbeat CPU 0 instructions: 70000003 cycles: 59205017 heartbeat IPC: 0.542099 cumulative IPC: 0.537113 (Simulation time: 0 hr 5 min 20 sec) 
Heartbeat CPU 0 instructions: 80000003 cycles: 78652207 heartbeat IPC: 0.514213 cumulative IPC: 0.529256 (Simulation time: 0 hr 6 min 19 sec) 
Heartbeat CPU 0 instructions: 90000003 cycles: 97021921 heartbeat IPC: 0.544374 cumulative IPC: 0.532956 (Simulation time: 0 hr 7 min 18 sec) 
Heartbeat CPU 0 instructions: 100000000 cycles: 115446448 heartbeat IPC: 0.542755 cumulative IPC: 0.534888 (Simulation time: 0 hr 8 min 17 sec) 
Heartbeat CPU 0 instructions: 110000000 cycles: 133904678 heartbeat IPC: 0.541764 cumulative IPC: 0.536022 (Simulation time: 0 hr 9 min 18 sec) 
Heartbeat CPU 0 instructions: 120000001 cycles: 152436625 heartbeat IPC: 0.539609 cumulative IPC: 0.536531 (Simulation time: 0 hr 10 min 18 sec) 
Heartbeat CPU 0 instructions: 130000000 cycles: 170997652 heartbeat IPC: 0.538763 cumulative IPC: 0.536809 (Simulation time: 0 hr 11 min 18 sec) 
Heartbeat CPU 0 instructions: 140000001 cycles: 189785634 heartbeat IPC: 0.532255 cumulative IPC: 0.536299 (Simulation time: 0 hr 12 min 19 sec) 
Heartbeat CPU 0 instructions: 150000002 cycles: 208374074 heartbeat IPC: 0.537969 cumulative IPC: 0.536466 (Simulation time: 0 hr 13 min 19 sec) 
Heartbeat CPU 0 instructions: 160000002 cycles: 227037971 heartbeat IPC: 0.535794 cumulative IPC: 0.536405 (Simulation time: 0 hr 14 min 17 sec) 
Heartbeat CPU 0 instructions: 170000001 cycles: 245482829 heartbeat IPC: 0.542156 cumulative IPC: 0.536879 (Simulation time: 0 hr 15 min 9 sec) 
Heartbeat CPU 0 instructions: 180000001 cycles: 264057086 heartbeat IPC: 0.53838 cumulative IPC: 0.536994 (Simulation time: 0 hr 16 min 1 sec) 
Heartbeat CPU 0 instructions: 190000001 cycles: 282544981 heartbeat IPC: 0.540894 cumulative IPC: 0.537271 (Simulation time: 0 hr 16 min 51 sec) 
Heartbeat CPU 0 instructions: 200000003 cycles: 301079324 heartbeat IPC: 0.539539 cumulative IPC: 0.537422 (Simulation time: 0 hr 17 min 36 sec) 
Heartbeat CPU 0 instructions: 210000003 cycles: 319716566 heartbeat IPC: 0.53656 cumulative IPC: 0.537368 (Simulation time: 0 hr 18 min 22 sec) 
Heartbeat CPU 0 instructions: 220000000 cycles: 338156886 heartbeat IPC: 0.54229 cumulative IPC: 0.537655 (Simulation time: 0 hr 19 min 7 sec) 
Heartbeat CPU 0 instructions: 230000000 cycles: 356587881 heartbeat IPC: 0.542564 cumulative IPC: 0.537925 (Simulation time: 0 hr 19 min 51 sec) 
Heartbeat CPU 0 instructions: 240000001 cycles: 375642094 heartbeat IPC: 0.524818 cumulative IPC: 0.537219 (Simulation time: 0 hr 20 min 36 sec) 
Heartbeat CPU 0 instructions: 250000000 cycles: 394247871 heartbeat IPC: 0.537467 cumulative IPC: 0.537232 (Simulation time: 0 hr 21 min 21 sec) 
Finished CPU 0 instructions: 200000003 cycles: 372278996 cumulative IPC: 0.537231 (Simulation time: 0 hr 21 min 21 sec) 
 Instruction ID: 250000373

ChampSim completed all CPUs

Region of Interest Statistics

CPU 0 cumulative IPC: 0.537231 instructions: 200000003 cycles: 372278996
ITLB SPEC fills:          0  NON-SPEC fills:          0
ITLB Test counter :          0
ITLB Leapfrog:          0
ITLB MSHR merge:          0
ITLB TOTAL     ACCESS:   28806100  HIT:   28806100  MISS:          0  HIT %:        100  MISS %:          0   MPKI: 0
ITLB LOAD TRANSLATION NON_SPEC    ACCESS:   28806100  HIT:   28806100  MISS:          0  HIT %:        100  MISS %:          0   MPKI: 0
ITLB PREFETCH  REQUESTED:          0  ISSUED:          0  USEFUL:          0  USELESS:          0
ITLB USEFUL LOAD PREFETCHES:          0 PREFETCH ISSUED TO LOWER LEVEL:          0  ACCURACY: -nan
ITLB TIMELY PREFETCHES:          0 LATE PREFETCHES: 0 DROPPED PREFETCHES: 0
ITLB COMMIT LATE PREFETCHES: 0 MISSED OPPORTUNITY: 0 LATE IN PQ: 0 UNCOVERED: 0
ITLB COMMIT LATE MSHR PREFETCHES: 0
ITLB MPKI TOTAL: 0 MSHR LATE: 0 PQ LATE: 0 COMMIT LATE: 0 MISSED OPPORTUNITY: 0 UNCOVERED: 0
ITLB PREFETCHES SAME FILL-ORIGIN LEVEL: 0 DIFFERENT FILL-ORIGIN LEVEL: 0
ITLB AVERAGE MISS LATENCY: -nan cycles
ITLB AVERAGE MISS LATENCY LOAD: -nan cycles
ITLB AVERAGE MISS LATENCY PREFETCH: -nan cycles
ITLB AVERAGE MSHR OCCUPANCY: 0
ITLB MSHR FULL: 0
ITLB RQ	ACCESS:   34738312	FORWARD:          0	MERGED:    5932213	TO_CACHE:   28806099

DTLB SPEC fills:          0  NON-SPEC fills:          0
DTLB Test counter :          0
DTLB Leapfrog:          0
DTLB MSHR merge:          0
DTLB TOTAL     ACCESS:   57698059  HIT:   49974673  MISS:    7723386  HIT %:    86.6141  MISS %:    13.3859   MPKI: 38.6169
DTLB LOAD TRANSLATION NON_SPEC    ACCESS:   57698059  HIT:   49974673  MISS:    7723386  HIT %:    86.6141  MISS %:    13.3859   MPKI: 38.6169
DTLB PREFETCH  REQUESTED:          0  ISSUED:          0  USEFUL:          0  USELESS:          0
DTLB USEFUL LOAD PREFETCHES:          0 PREFETCH ISSUED TO LOWER LEVEL:          0  ACCURACY: -nan
DTLB TIMELY PREFETCHES:          0 LATE PREFETCHES: 0 DROPPED PREFETCHES: 0
DTLB COMMIT LATE PREFETCHES: 0 MISSED OPPORTUNITY: 0 LATE IN PQ: 0 UNCOVERED: 0
DTLB COMMIT LATE MSHR PREFETCHES: 0
DTLB MPKI TOTAL: 0 MSHR LATE: 0 PQ LATE: 0 COMMIT LATE: 0 MISSED OPPORTUNITY: 0 UNCOVERED: 0
DTLB PREFETCHES SAME FILL-ORIGIN LEVEL: 0 DIFFERENT FILL-ORIGIN LEVEL: 0
DTLB AVERAGE MISS LATENCY: 10.0467 cycles
DTLB AVERAGE MISS LATENCY LOAD: -nan cycles
DTLB AVERAGE MISS LATENCY PREFETCH: -nan cycles
DTLB AVERAGE MSHR OCCUPANCY: 0.912197
DTLB MSHR FULL: 0.0298665
DTLB RQ	ACCESS:   83517041	FORWARD:          0	MERGED:   24754785	TO_CACHE:   58762256

STLB SPEC fills:          0  NON-SPEC fills:          0
STLB Test counter :          0
STLB Leapfrog:          0
STLB MSHR merge:          0
STLB TOTAL     ACCESS:    7964216  HIT:    7955688  MISS:       8528  HIT %:    99.8929  MISS %:   0.107079   MPKI: 0.04264
STLB LOAD TRANSLATION NON_SPEC    ACCESS:    7723386  HIT:    7715007  MISS:       8379  HIT %:    99.8915  MISS %:   0.108489   MPKI: 0.041895
STLB TRANSLATION FROM L1D PREFETCHER NON_SPEC    ACCESS:     240830  HIT:     240681  MISS:        149  HIT %:    99.9381  MISS %:  0.0618694   MPKI: 0.000745
STLB PREFETCH  REQUESTED:          0  ISSUED:          0  USEFUL:        145  USELESS:          0
STLB USEFUL LOAD PREFETCHES:        145 PREFETCH ISSUED TO LOWER LEVEL:          0  ACCURACY: inf
STLB TIMELY PREFETCHES:        145 LATE PREFETCHES: 6 DROPPED PREFETCHES: 51868
STLB COMMIT LATE PREFETCHES: 0 MISSED OPPORTUNITY: 0 LATE IN PQ: 0 UNCOVERED: 0
STLB COMMIT LATE MSHR PREFETCHES: 0
STLB MPKI TOTAL: 0 MSHR LATE: 3e-05 PQ LATE: 0 COMMIT LATE: 0 MISSED OPPORTUNITY: 0 UNCOVERED: 0
STLB PREFETCHES SAME FILL-ORIGIN LEVEL: 0 DIFFERENT FILL-ORIGIN LEVEL: 0
STLB AVERAGE MISS LATENCY: 640.721 cycles
STLB AVERAGE MISS LATENCY LOAD: -nan cycles
STLB AVERAGE MISS LATENCY PREFETCH: -nan cycles
STLB AVERAGE MSHR OCCUPANCY: 0.0124871
STLB MSHR FULL: 0
STLB RQ	ACCESS:    8098764	FORWARD:          0	MERGED:      82651	TO_CACHE:    8016113

STLB Hit, L1D data hit: 0
STLB Hit, L2C data hit: 0
STLB Hit, LLC data hit: 0
STLB Hit, LLC data miss: 0
STLB STLB hints to L2: 0
L0D SPEC fills:   46069035  NON-SPEC fills:          0
L0D TimeGuard Request with older TS:    2886455 Restricted eviction:    2761942 read:    2955227
L0D Test counter :          0
L0D Leapfrog:          0
L0D MSHR merge:    3037027
L0D TOTAL     ACCESS:   64267440  HIT:    9268800  MISS:   54998640  HIT %:    14.4222  MISS %:    85.5778   MPKI: 274.993
L0D LOAD      TOTAL       ACCESS:   64267440  HIT:    9268800  MISS:   54998640  HIT %:    14.4222  MISS %:    85.5778   MPKI: 274.993
L0D LOAD      NON_SPEC    ACCESS:    6504807  HIT:     336857  MISS:    6167950  HIT %:    5.17859  MISS %:    94.8214   MPKI: 30.8397
L0D LOAD      SPEC        ACCESS:   57762633  HIT:    8931943  MISS:   48830690  HIT %:    15.4632  MISS %:    84.5368   MPKI: 244.153
L0D PREFETCH  REQUESTED:          0  ISSUED:          0  USEFUL:          0  USELESS:          0
L0D USEFUL LOAD PREFETCHES:          0 PREFETCH ISSUED TO LOWER LEVEL:          0  ACCURACY: -nan
L0D TIMELY PREFETCHES:          0 LATE PREFETCHES: 0 DROPPED PREFETCHES: 0
L0D COMMIT LATE PREFETCHES: 0 MISSED OPPORTUNITY: 0 LATE IN PQ: 0 UNCOVERED: 0
L0D COMMIT LATE MSHR PREFETCHES: 0
L0D MPKI TOTAL: 290.178 MSHR LATE: 0 PQ LATE: 0 COMMIT LATE: 0 MISSED OPPORTUNITY: 0 UNCOVERED: 0
L0D PREFETCHES SAME FILL-ORIGIN LEVEL: 0 DIFFERENT FILL-ORIGIN LEVEL: 0
L0D AVERAGE MISS LATENCY: 16.1765 cycles
L0D AVERAGE MISS LATENCY LOAD: 16.1765 cycles
L0D AVERAGE MISS LATENCY PREFETCH: -nan cycles
L0D AVERAGE MSHR OCCUPANCY: 5.34874
L0D MSHR FULL: 0.456719
L0D RQ	ACCESS:   77807037	FORWARD:          0	MERGED:   10502578	TO_CACHE:   67304459
L0D WQ	ACCESS:   16212582	FORWARD:          0	MERGED:          0	TO_CACHE:   16212582

L1D SPEC fills:          0  NON-SPEC fills:     618287
L1D Test counter :          0
L1D Leapfrog:          0
L1D MSHR merge:      77580
L1D TOTAL     ACCESS:   87862679  HIT:   59215118  MISS:   28647561  HIT %:    67.3951  MISS %:    32.6049   MPKI: 143.238
L1D LOAD      TOTAL       ACCESS:   54921117  HIT:   40494369  MISS:   14426748  HIT %:    73.7319  MISS %:    26.2681   MPKI: 72.1337
L1D LOAD      NON_SPEC    ACCESS:    6155155  HIT:    5536868  MISS:     618287  HIT %:     89.955  MISS %:     10.045   MPKI: 3.09143
L1D LOAD      SPEC        ACCESS:   48765962  HIT:   34957501  MISS:   13808461  HIT %:    71.6842  MISS %:    28.3158   MPKI: 69.0423
L1D RFO       NON_SPEC    ACCESS:   15958573  HIT:   14717709  MISS:    1240864  HIT %:    92.2245  MISS %:    7.77553   MPKI: 6.20432
L1D PREFETCH  NON_SPEC    ACCESS:     157459  HIT:     137873  MISS:      19586  HIT %:    87.5612  MISS %:    12.4388   MPKI: 0.09793
L1D COMMIT LOAD NON_SPEC    ACCESS:    5818662  HIT:    3322628  MISS:    2496034  HIT %:     57.103  MISS %:     42.897   MPKI: 12.4802
L1D COMMIT WRITE NON_SPEC    ACCESS:   11006868  HIT:     542539  MISS:   10464329  HIT %:     4.9291  MISS %:    95.0709   MPKI: 52.3216
L1D PREFETCH  REQUESTED:     375378  ISSUED:     375378  USEFUL:      17736  USELESS:       1850
L1D USEFUL LOAD PREFETCHES:      17736 PREFETCH ISSUED TO LOWER LEVEL:     149371  ACCURACY: 11.8738
L1D TIMELY PREFETCHES:      17736 LATE PREFETCHES: 58 DROPPED PREFETCHES: 77715
L1D COMMIT LATE PREFETCHES: 0 MISSED OPPORTUNITY: 0 LATE IN PQ: 0 UNCOVERED: 0
L1D COMMIT LATE MSHR PREFETCHES: 0
L1D MPKI TOTAL: 72.5213 MSHR LATE: 0.00029 PQ LATE: 0 COMMIT LATE: 0 MISSED OPPORTUNITY: 0 UNCOVERED: 0
L1D PREFETCHES SAME FILL-ORIGIN LEVEL: 19644 DIFFERENT FILL-ORIGIN LEVEL: 129727
L1D AVERAGE MISS LATENCY: 14.6035 cycles
L1D AVERAGE MISS LATENCY LOAD: 18.0698 cycles
L1D AVERAGE MISS LATENCY PREFETCH: 15.561 cycles
L1D AVERAGE MSHR OCCUPANCY: 3.30494
L1D MSHR FULL: 0.120888
L1D RQ	ACCESS:   62200701	FORWARD:          0	MERGED:    1255284	TO_CACHE:   60945417
L1D WQ	ACCESS:   27219451	FORWARD:          0	MERGED:     128928	TO_CACHE:   27090523
L1D PQ	ACCESS:     375378	FORWARD:          0	MERGED:          0	TO_CACHE:     375378

L1D UNIQUE REGIONS ACCESSED: 0
L1D REGIONS CONFLICTS: 0
L1D Cross Page Prefetch Requests: 283799
L1D Same Page Prefetch Requests: 187884
L1D ROI Sum of L1D PQ occupancy: 9229459
L1D PREFETCHES PUSHED FROM L2C: 0
L1I SPEC fills:          0  NON-SPEC fills:          0
L1I Test counter :          0
L1I Leapfrog:          0
L1I MSHR merge:    2615011
L1I TOTAL     ACCESS:   32123301  HIT:   26923291  MISS:    5200010  HIT %:    83.8123  MISS %:    16.1877   MPKI: 26
L1I LOAD      TOTAL       ACCESS:   32123301  HIT:   26923291  MISS:    5200010  HIT %:    83.8123  MISS %:    16.1877   MPKI: 26
L1I LOAD      NON_SPEC    ACCESS:   32123301  HIT:   26923291  MISS:    5200010  HIT %:    83.8123  MISS %:    16.1877   MPKI: 26
L1I PREFETCH  REQUESTED:          0  ISSUED:          0  USEFUL:          0  USELESS:          0
L1I USEFUL LOAD PREFETCHES:          0 PREFETCH ISSUED TO LOWER LEVEL:          0  ACCURACY: -nan
L1I TIMELY PREFETCHES:          0 LATE PREFETCHES: 0 DROPPED PREFETCHES: 0
L1I COMMIT LATE PREFETCHES: 0 MISSED OPPORTUNITY: 0 LATE IN PQ: 0 UNCOVERED: 0
L1I COMMIT LATE MSHR PREFETCHES: 0
L1I MPKI TOTAL: 39.0751 MSHR LATE: 0 PQ LATE: 0 COMMIT LATE: 0 MISSED OPPORTUNITY: 0 UNCOVERED: 0
L1I PREFETCHES SAME FILL-ORIGIN LEVEL: 0 DIFFERENT FILL-ORIGIN LEVEL: 0
L1I AVERAGE MISS LATENCY: 14.0361 cycles
L1I AVERAGE MISS LATENCY LOAD: 14.0361 cycles
L1I AVERAGE MISS LATENCY PREFETCH: -nan cycles
L1I AVERAGE MSHR OCCUPANCY: 0.204853
L1I MSHR FULL: 0
L1I RQ	ACCESS:   49874377	FORWARD:          0	MERGED:   15136065	TO_CACHE:   34738312

BTB SPEC fills:          0  NON-SPEC fills:          0
BTB Test counter :          0
BTB Leapfrog:          0
BTB MSHR merge:          0
BTB TOTAL     ACCESS:    1127062  HIT:    1054337  MISS:      72725  HIT %:    93.5474  MISS %:    6.45262   MPKI: 0.363625
BTB BRANCH_DIRECT_JUMP	ACCESS:     218098  HIT:     218093  MISS:          5
BTB BRANCH_INDIRECT	ACCESS:      36350  HIT:      36349  MISS:          1
BTB BRANCH_CONDITIONAL	ACCESS:     436418  HIT:     436406  MISS:         12
BTB BRANCH_DIRECT_CALL	ACCESS:     218098  HIT:     218093  MISS:          5
BTB BRANCH_INDIRECT_CALL	ACCESS:          0  HIT:          0  MISS:          0
BTB BRANCH_RETURN	ACCESS:     218098  HIT:     145396  MISS:      72702
BTB BRANCH_OTHER ACCESS:          0  HIT:          0  MISS:          0

L2C SPEC fills:          0  NON-SPEC fills:      48894
L2C Test counter :          0
L2C Leapfrog:          0
L2C MSHR merge:        102
L2C TOTAL     ACCESS:   26327370  HIT:   24307903  MISS:    2019467  HIT %:    92.3294  MISS %:     7.6706   MPKI: 10.0973
L2C LOAD      TOTAL       ACCESS:   19621618  HIT:   18656821  MISS:     964797  HIT %:     95.083  MISS %:    4.91701   MPKI: 4.82398
L2C LOAD      NON_SPEC    ACCESS:    5817926  HIT:    5767837  MISS:      50089  HIT %:    99.1391  MISS %:   0.860943   MPKI: 0.250445
L2C LOAD      SPEC        ACCESS:   13803692  HIT:   12888984  MISS:     914708  HIT %:    93.3735  MISS %:    6.62655   MPKI: 4.57354
L2C RFO       NON_SPEC    ACCESS:    1238678  HIT:    1120904  MISS:     117774  HIT %:     90.492  MISS %:    9.50804   MPKI: 0.58887
L2C PREFETCH  NON_SPEC    ACCESS:     149259  HIT:     138626  MISS:      10633  HIT %:    92.8761  MISS %:    7.12386   MPKI: 0.053165
L2C WRITEBACK NON_SPEC    ACCESS:    1255926  HIT:    1255865  MISS:         61  HIT %:    99.9951  MISS %: 0.00485697   MPKI: 0.000305
L2C CLEAN_EVICTION NON_SPEC    ACCESS:    1300320  HIT:     547550  MISS:     752770  HIT %:    42.1089  MISS %:    57.8911   MPKI: 3.76385
L2C COMMIT LOAD NON_SPEC    ACCESS:    2495754  HIT:    2334047  MISS:     161707  HIT %:    93.5207  MISS %:    6.47928   MPKI: 0.808535
L2C LOAD TRANSLATION NON_SPEC    ACCESS:      41881  HIT:      30778  MISS:      11103  HIT %:    73.4892  MISS %:    26.5108   MPKI: 0.055515
L2C TRANSLATION FROM L1D PREFETCHER NON_SPEC    ACCESS:     223934  HIT:     223312  MISS:        622  HIT %:    99.7222  MISS %:    0.27776   MPKI: 0.00311
L2C PREFETCH  REQUESTED:          0  ISSUED:          0  USEFUL:       6621  USELESS:       4647
L2C USEFUL LOAD PREFETCHES:       6621 PREFETCH ISSUED TO LOWER LEVEL:      10735  ACCURACY: 61.6768
L2C TIMELY PREFETCHES:       6621 LATE PREFETCHES: 102 DROPPED PREFETCHES: 0
L2C COMMIT LATE PREFETCHES: 0 MISSED OPPORTUNITY: 0 LATE IN PQ: 0 UNCOVERED: 0
L2C COMMIT LATE MSHR PREFETCHES: 0
L2C MPKI TOTAL: 4.82398 MSHR LATE: 0.00051 PQ LATE: 0 COMMIT LATE: 0 MISSED OPPORTUNITY: 0 UNCOVERED: 0
L2C PREFETCHES SAME FILL-ORIGIN LEVEL: 10679 DIFFERENT FILL-ORIGIN LEVEL: 0
L2C AVERAGE MISS LATENCY: 93.2474 cycles
L2C AVERAGE MISS LATENCY LOAD: 89.738 cycles
L2C AVERAGE MISS LATENCY PREFETCH: 170.804 cycles
L2C AVERAGE MSHR OCCUPANCY: 0.567005
L2C MSHR FULL: 0
L2C RQ	ACCESS:   23629413	FORWARD:          0	MERGED:          0	TO_CACHE:   23621865
L2C WQ	ACCESS:    2556535	FORWARD:       7552	MERGED:        289	TO_CACHE:    2556246
L2C PQ	ACCESS:     149371	FORWARD:          0	MERGED:          0	TO_CACHE:     149367

L2C Instructions Evicting Data 1126
L2C Translations Evicting Data 11629
L2C Data Evicting Data 334927
L2C Instructions Evicting Instructions 59
L2C Translations Evicting Instructions 5
L2C Data Evicting Instructions 432
L2C Instructions Evicting Translations 10
L2C Translations Evicting Translations 91
L2C Data Evicting Translations 3649
L2C Dense regions hint from L2: 0
PSCL5 SPEC fills:          0  NON-SPEC fills:          0
PSCL5 Test counter :          0
PSCL5 Leapfrog:          0
PSCL5 MSHR merge:          0
PSCL5 TOTAL     ACCESS:          0  HIT:          0  MISS:          0  HIT %:       -nan  MISS %:       -nan   MPKI: 0
PSCL5 PREFETCH  REQUESTED:          0  ISSUED:          0  USEFUL:          0  USELESS:          0
PSCL5 USEFUL LOAD PREFETCHES:          0 PREFETCH ISSUED TO LOWER LEVEL:          0  ACCURACY: -nan
PSCL5 TIMELY PREFETCHES:          0 LATE PREFETCHES: 0 DROPPED PREFETCHES: 0
PSCL5 COMMIT LATE PREFETCHES: 0 MISSED OPPORTUNITY: 0 LATE IN PQ: 0 UNCOVERED: 0
PSCL5 COMMIT LATE MSHR PREFETCHES: 0
PSCL5 MPKI TOTAL: 0 MSHR LATE: 0 PQ LATE: 0 COMMIT LATE: 0 MISSED OPPORTUNITY: 0 UNCOVERED: 0
PSCL5 PREFETCHES SAME FILL-ORIGIN LEVEL: 0 DIFFERENT FILL-ORIGIN LEVEL: 0

PSCL4 SPEC fills:          0  NON-SPEC fills:          0
PSCL4 Test counter :          0
PSCL4 Leapfrog:          0
PSCL4 MSHR merge:          0
PSCL4 TOTAL     ACCESS:          0  HIT:          0  MISS:          0  HIT %:       -nan  MISS %:       -nan   MPKI: 0
PSCL4 PREFETCH  REQUESTED:          0  ISSUED:          0  USEFUL:          0  USELESS:          0
PSCL4 USEFUL LOAD PREFETCHES:          0 PREFETCH ISSUED TO LOWER LEVEL:          0  ACCURACY: -nan
PSCL4 TIMELY PREFETCHES:          0 LATE PREFETCHES: 0 DROPPED PREFETCHES: 0
PSCL4 COMMIT LATE PREFETCHES: 0 MISSED OPPORTUNITY: 0 LATE IN PQ: 0 UNCOVERED: 0
PSCL4 COMMIT LATE MSHR PREFETCHES: 0
PSCL4 MPKI TOTAL: 0 MSHR LATE: 0 PQ LATE: 0 COMMIT LATE: 0 MISSED OPPORTUNITY: 0 UNCOVERED: 0
PSCL4 PREFETCHES SAME FILL-ORIGIN LEVEL: 0 DIFFERENT FILL-ORIGIN LEVEL: 0

PSCL3 SPEC fills:          0  NON-SPEC fills:          0
PSCL3 Test counter :          0
PSCL3 Leapfrog:          0
PSCL3 MSHR merge:          0
PSCL3 TOTAL     ACCESS:          0  HIT:          0  MISS:          0  HIT %:       -nan  MISS %:       -nan   MPKI: 0
PSCL3 PREFETCH  REQUESTED:          0  ISSUED:          0  USEFUL:          0  USELESS:          0
PSCL3 USEFUL LOAD PREFETCHES:          0 PREFETCH ISSUED TO LOWER LEVEL:          0  ACCURACY: -nan
PSCL3 TIMELY PREFETCHES:          0 LATE PREFETCHES: 0 DROPPED PREFETCHES: 0
PSCL3 COMMIT LATE PREFETCHES: 0 MISSED OPPORTUNITY: 0 LATE IN PQ: 0 UNCOVERED: 0
PSCL3 COMMIT LATE MSHR PREFETCHES: 0
PSCL3 MPKI TOTAL: 0 MSHR LATE: 0 PQ LATE: 0 COMMIT LATE: 0 MISSED OPPORTUNITY: 0 UNCOVERED: 0
PSCL3 PREFETCHES SAME FILL-ORIGIN LEVEL: 0 DIFFERENT FILL-ORIGIN LEVEL: 0

PSCL2 SPEC fills:          0  NON-SPEC fills:          0
PSCL2 Test counter :          0
PSCL2 Leapfrog:          0
PSCL2 MSHR merge:          0
PSCL2 TOTAL     ACCESS:          0  HIT:          0  MISS:          0  HIT %:       -nan  MISS %:       -nan   MPKI: 0
PSCL2 PREFETCH  REQUESTED:          0  ISSUED:          0  USEFUL:          0  USELESS:          0
PSCL2 USEFUL LOAD PREFETCHES:          0 PREFETCH ISSUED TO LOWER LEVEL:          0  ACCURACY: -nan
PSCL2 TIMELY PREFETCHES:          0 LATE PREFETCHES: 0 DROPPED PREFETCHES: 0
PSCL2 COMMIT LATE PREFETCHES: 0 MISSED OPPORTUNITY: 0 LATE IN PQ: 0 UNCOVERED: 0
PSCL2 COMMIT LATE MSHR PREFETCHES: 0
PSCL2 MPKI TOTAL: 0 MSHR LATE: 0 PQ LATE: 0 COMMIT LATE: 0 MISSED OPPORTUNITY: 0 UNCOVERED: 0
PSCL2 PREFETCHES SAME FILL-ORIGIN LEVEL: 0 DIFFERENT FILL-ORIGIN LEVEL: 0

LLC SPEC fills:          0  NON-SPEC fills:      10995
LLC Test counter :          0
LLC Leapfrog:          0
LLC MSHR merge:          0
LLC TOTAL     ACCESS:    2182083  HIT:    1251103  MISS:     930980  HIT %:    57.3353  MISS %:    42.6647   MPKI: 4.6549
LLC LOAD      TOTAL       ACCESS:     964200  HIT:     556859  MISS:     407341  HIT %:    57.7535  MISS %:    42.2465   MPKI: 2.0367
LLC LOAD      NON_SPEC    ACCESS:      50074  HIT:      39027  MISS:      11047  HIT %:    77.9387  MISS %:    22.0613   MPKI: 0.055235
LLC LOAD      SPEC        ACCESS:     914126  HIT:     517832  MISS:     396294  HIT %:    56.6478  MISS %:    43.3522   MPKI: 1.98147
LLC RFO       NON_SPEC    ACCESS:     117760  HIT:         60  MISS:     117700  HIT %:  0.0509511  MISS %:     99.949   MPKI: 0.5885
LLC PREFETCH  NON_SPEC    ACCESS:      10735  HIT:       1876  MISS:       8859  HIT %:    17.4755  MISS %:    82.5245   MPKI: 0.044295
LLC WRITEBACK NON_SPEC    ACCESS:     117885  HIT:     117872  MISS:         13  HIT %:     99.989  MISS %:  0.0110277   MPKI: 6.5e-05
LLC CLEAN_EVICTION NON_SPEC    ACCESS:     798235  HIT:     454764  MISS:     343471  HIT %:    56.9712  MISS %:    43.0288   MPKI: 1.71735
LLC COMMIT LOAD NON_SPEC    ACCESS:     161543  HIT:     109111  MISS:      52432  HIT %:     67.543  MISS %:     32.457   MPKI: 0.26216
LLC LOAD TRANSLATION NON_SPEC    ACCESS:      11103  HIT:       9990  MISS:       1113  HIT %:    89.9757  MISS %:    10.0243   MPKI: 0.005565
LLC TRANSLATION FROM L1D PREFETCHER NON_SPEC    ACCESS:        622  HIT:        571  MISS:         51  HIT %:    91.8006  MISS %:    8.19936   MPKI: 0.000255
LLC PREFETCH  REQUESTED:          0  ISSUED:          0  USEFUL:       7374  USELESS:       1496
LLC USEFUL LOAD PREFETCHES:       7374 PREFETCH ISSUED TO LOWER LEVEL:       8859  ACCURACY: 83.2374
LLC TIMELY PREFETCHES:       7374 LATE PREFETCHES: 0 DROPPED PREFETCHES: 0
LLC COMMIT LATE PREFETCHES: 0 MISSED OPPORTUNITY: 0 LATE IN PQ: 0 UNCOVERED: 0
LLC COMMIT LATE MSHR PREFETCHES: 0
LLC MPKI TOTAL: 2.0367 MSHR LATE: 0 PQ LATE: 0 COMMIT LATE: 0 MISSED OPPORTUNITY: 0 UNCOVERED: 0
LLC PREFETCHES SAME FILL-ORIGIN LEVEL: 0 DIFFERENT FILL-ORIGIN LEVEL: 0
LLC AVERAGE MISS LATENCY: 170.029 cycles
LLC AVERAGE MISS LATENCY LOAD: 161.127 cycles
LLC AVERAGE MISS LATENCY PREFETCH: 170.39 cycles
LLC AVERAGE MSHR OCCUPANCY: 2.03019
LLC MSHR FULL: 0
LLC RQ	ACCESS:    1255901	FORWARD:          0	MERGED:          0	TO_CACHE:    1255228
LLC WQ	ACCESS:     916120	FORWARD:        673	MERGED:          0	TO_CACHE:     916120
LLC PQ	ACCESS:      10735	FORWARD:          0	MERGED:          0	TO_CACHE:      10735

LLC Dense regions hint to LLC: 0

RAW hits: 564962
Loads Generated: 78372000
Loads sent to L1D: 77807037
Stores Generated: 16212582
Stores sent to L1D: 16212582
Major fault: 0 Minor fault: 8463
Allocated PAGES: 8463
Total Load insts: 138097777
Total Non-spec loads: 9380610
Percentage of speculative loads: 93.2073

LeapFrogging counter: 37009883
Commit hits: 43496107 miss: 27656818
Commit hit %: 61.1305 miss %: 38.8695
Commits not translated: 0
Loads retired: 14426730
Stores retired: 16212582
Cache fills: 14426748
L1D response latency: 18.0698 cycles
Load retirement latency: 225.679 cycles
OOO test counter: 0
Discarded buffer inserts: 43496107 hits: 464468 hit %: 1.06784
Filter prediction accuracy: 98.3947
LATENCY_FILL: 17.9394 14446217

DRAM Statistics
 CHANNEL 0
 RQ ROW_BUFFER_HIT:     325859  ROW_BUFFER_MISS:     261637
 DBUS_CONGESTED:        698
 WQ ROW_BUFFER_HIT:     116700  ROW_BUFFER_MISS:     378090  FULL:          0

 AVG_CONGESTED_CYCLE: 5
 All warmup complete: 2
Channel 0 Bank busy for read cycles: 0
Channel 0 Bank busy for write cycles: 0
Channel 0
Rank 0
0banks busy for read cycles: 284743776
0banks busy for write cycles: 289111
1banks busy for read cycles: 28607914
1banks busy for write cycles: 34775392
2banks busy for read cycles: 6301295
2banks busy for write cycles: 8541711
3banks busy for read cycles: 2750341
3banks busy for write cycles: 3174563
4banks busy for read cycles: 934538
4banks busy for write cycles: 1094360
5banks busy for read cycles: 389090
5banks busy for write cycles: 371928
6banks busy for read cycles: 62559
6banks busy for write cycles: 164263
7banks busy for read cycles: 3201
7banks busy for write cycles: 60723
8banks busy for read cycles: 0
8banks busy for write cycles: 14232

CPU 0 Branch Prediction Accuracy: 99.9875% MPKI: 0.001115 Average ROB Occupancy at Mispredict: 24.3991
Branch types
NOT_BRANCH: 198218417 99.1092%
BRANCH_DIRECT_JUMP: 218098 0.109049%
BRANCH_INDIRECT: 36350 0.018175%
BRANCH_CONDITIONAL: 1090933 0.545466%
BRANCH_DIRECT_CALL: 218098 0.109049%
BRANCH_INDIRECT_CALL: 0 0%
BRANCH_RETURN: 218098 0.109049%
BRANCH_OTHER: 0 0%

DRAM PAGES: 1048576
Allocated PAGES: 8463
