
*** ChampSim Multicore Out-of-Order Simulator ***

Warmup Instructions: 50000000
Simulation Instructions: 200000000
Number of CPUs: 1
LLC sets: 2048
LLC ways: 16
L0D sets: 16
L0D ways: 2
ROB size: 352
LQ size: 128
SQ size: 72
Secure Berti: OFF
Berti: OFF
Berti Fill: OFF
On commit prefetching: OFF
Hit-based filter: ON
Time-guarding: ON
Free-slotting: ON
Leap-frogging: ON
Train prefetcher on L0D bypass: OFF
No translation penalty for prefetchers: OFF
Prefetch to L0D only: OFF
Prefetch to L1D only: OFF
Clean evictions: ON
Commit loads: ON
Commit write: ON
Fill commit loads to L2C, LLC: ON
DRAM IO FREQUENCY: 6400
ROB SIZE: 352
Off-chip DRAM Size: 4096 MB Channels: 1 Width: 64-bit Data Rate: 6400 MT/s
CPU 0 runs /home/sumon/secure_berti/GhostMinion/../../traces/spec/621.wrf_s-6673B.champsimtrace.xz
.xz
BTB has LRU replacement policy
ITLB has LRU replacement policy
DTLB has LRU replacement policy
STLB has LRU replacement policy
L1I has LRU replacement policy
L0D has LRU replacement policy
History Sets: 8
History Ways: 16
BERTI Size: 16
BERTI Stride Size: 16
L1D has LRU replacement policy
L2C has LRU replacement policy
LLC has LRU replacement policy
Heartbeat CPU 0 instructions: 10000002 cycles: 5232080 heartbeat IPC: 1.91129 cumulative IPC: 1.91129 (Simulation time: 0 hr 0 min 42 sec) 
Heartbeat CPU 0 instructions: 20000002 cycles: 8427473 heartbeat IPC: 3.12951 cumulative IPC: 2.37319 (Simulation time: 0 hr 1 min 16 sec) 
Heartbeat CPU 0 instructions: 30000001 cycles: 11529335 heartbeat IPC: 3.22387 cumulative IPC: 2.60206 (Simulation time: 0 hr 1 min 45 sec) 
Heartbeat CPU 0 instructions: 40000002 cycles: 14594606 heartbeat IPC: 3.26235 cumulative IPC: 2.74074 (Simulation time: 0 hr 2 min 18 sec) 
Heartbeat CPU 0 instructions: 50000001 cycles: 17684984 heartbeat IPC: 3.23585 cumulative IPC: 2.82726 (Simulation time: 0 hr 2 min 48 sec) 

Warmup complete CPU 0 instructions: 50000001 cycles: 17684984 (Simulation time: 0 hr 2 min 48 sec) 

Heartbeat CPU 0 instructions: 60000000 cycles: 32156067 heartbeat IPC: 0.691033 cumulative IPC: 0.691033 (Simulation time: 0 hr 3 min 37 sec) 
Heartbeat CPU 0 instructions: 70000000 cycles: 47602265 heartbeat IPC: 0.647408 cumulative IPC: 0.66851 (Simulation time: 0 hr 4 min 27 sec) 
Heartbeat CPU 0 instructions: 80000000 cycles: 60992823 heartbeat IPC: 0.746795 cumulative IPC: 0.692715 (Simulation time: 0 hr 5 min 11 sec) 
Heartbeat CPU 0 instructions: 90000003 cycles: 74670412 heartbeat IPC: 0.731123 cumulative IPC: 0.701934 (Simulation time: 0 hr 6 min 1 sec) 
Heartbeat CPU 0 instructions: 100000000 cycles: 91624731 heartbeat IPC: 0.58982 cumulative IPC: 0.676226 (Simulation time: 0 hr 6 min 58 sec) 
Heartbeat CPU 0 instructions: 110000000 cycles: 99961912 heartbeat IPC: 1.19945 cumulative IPC: 0.729245 (Simulation time: 0 hr 7 min 35 sec) 
Heartbeat CPU 0 instructions: 120000003 cycles: 110409612 heartbeat IPC: 0.957149 cumulative IPC: 0.754924 (Simulation time: 0 hr 8 min 16 sec) 
Heartbeat CPU 0 instructions: 130000000 cycles: 119520580 heartbeat IPC: 1.09758 cumulative IPC: 0.78558 (Simulation time: 0 hr 8 min 52 sec) 
Heartbeat CPU 0 instructions: 140000001 cycles: 129021042 heartbeat IPC: 1.05258 cumulative IPC: 0.808363 (Simulation time: 0 hr 9 min 33 sec) 
Heartbeat CPU 0 instructions: 150000001 cycles: 139465429 heartbeat IPC: 0.957452 cumulative IPC: 0.82115 (Simulation time: 0 hr 10 min 12 sec) 
Heartbeat CPU 0 instructions: 160000001 cycles: 148134020 heartbeat IPC: 1.15359 cumulative IPC: 0.843241 (Simulation time: 0 hr 10 min 51 sec) 
Heartbeat CPU 0 instructions: 170000001 cycles: 158571204 heartbeat IPC: 0.958113 cumulative IPC: 0.851751 (Simulation time: 0 hr 11 min 31 sec) 
Heartbeat CPU 0 instructions: 180000000 cycles: 167506031 heartbeat IPC: 1.11922 cumulative IPC: 0.867702 (Simulation time: 0 hr 12 min 9 sec) 
Heartbeat CPU 0 instructions: 190000000 cycles: 179916843 heartbeat IPC: 0.805749 cumulative IPC: 0.862962 (Simulation time: 0 hr 12 min 53 sec) 
Heartbeat CPU 0 instructions: 200000003 cycles: 191938368 heartbeat IPC: 0.831841 cumulative IPC: 0.860815 (Simulation time: 0 hr 13 min 35 sec) 
Heartbeat CPU 0 instructions: 210000000 cycles: 203985674 heartbeat IPC: 0.830061 cumulative IPC: 0.858827 (Simulation time: 0 hr 14 min 16 sec) 
Heartbeat CPU 0 instructions: 220000000 cycles: 216135382 heartbeat IPC: 0.823065 cumulative IPC: 0.856637 (Simulation time: 0 hr 14 min 55 sec) 
Heartbeat CPU 0 instructions: 230000001 cycles: 230599903 heartbeat IPC: 0.691347 cumulative IPC: 0.845408 (Simulation time: 0 hr 15 min 35 sec) 
Heartbeat CPU 0 instructions: 240000000 cycles: 243861351 heartbeat IPC: 0.754065 cumulative IPC: 0.840052 (Simulation time: 0 hr 16 min 17 sec) 
Heartbeat CPU 0 instructions: 250000000 cycles: 252374478 heartbeat IPC: 1.17466 cumulative IPC: 0.85219 (Simulation time: 0 hr 16 min 49 sec) 
Finished CPU 0 instructions: 200000003 cycles: 234689495 cumulative IPC: 0.85219 (Simulation time: 0 hr 16 min 49 sec) 
 Instruction ID: 250000091

ChampSim completed all CPUs

Region of Interest Statistics

CPU 0 cumulative IPC: 0.85219 instructions: 200000003 cycles: 234689495
ITLB SPEC fills:          0  NON-SPEC fills:          0
ITLB Test counter :          0
ITLB Leapfrog:          0
ITLB MSHR merge:          0
ITLB TOTAL     ACCESS:   28994025  HIT:   28993854  MISS:        171  HIT %:    99.9994  MISS %: 0.000589777   MPKI: 0.000855
ITLB LOAD TRANSLATION NON_SPEC    ACCESS:   28994025  HIT:   28993854  MISS:        171  HIT %:    99.9994  MISS %: 0.000589777   MPKI: 0.000855
ITLB PREFETCH  REQUESTED:          0  ISSUED:          0  USEFUL:          0  USELESS:          0
ITLB USEFUL LOAD PREFETCHES:          0 PREFETCH ISSUED TO LOWER LEVEL:          0  ACCURACY: -nan
ITLB TIMELY PREFETCHES:          0 LATE PREFETCHES: 0 DROPPED PREFETCHES: 0
ITLB COMMIT LATE PREFETCHES: 0 MISSED OPPORTUNITY: 0 LATE IN PQ: 0 UNCOVERED: 0
ITLB COMMIT LATE MSHR PREFETCHES: 0
ITLB MPKI TOTAL: 0 MSHR LATE: 0 PQ LATE: 0 COMMIT LATE: 0 MISSED OPPORTUNITY: 0 UNCOVERED: 0
ITLB PREFETCHES SAME FILL-ORIGIN LEVEL: 0 DIFFERENT FILL-ORIGIN LEVEL: 0
ITLB AVERAGE MISS LATENCY: 332.561 cycles
ITLB AVERAGE MISS LATENCY LOAD: -nan cycles
ITLB AVERAGE MISS LATENCY PREFETCH: -nan cycles
ITLB AVERAGE MSHR OCCUPANCY: 2.31082e-06
ITLB MSHR FULL: 0
ITLB RQ	ACCESS:   35158135	FORWARD:          0	MERGED:    6164054	TO_CACHE:   28994081

DTLB SPEC fills:          0  NON-SPEC fills:          0
DTLB Test counter :          0
DTLB Leapfrog:          0
DTLB MSHR merge:          0
DTLB TOTAL     ACCESS:   51221835  HIT:   51021796  MISS:     200039  HIT %:    99.6095  MISS %:   0.390535   MPKI: 1.00019
DTLB LOAD TRANSLATION NON_SPEC    ACCESS:   51221835  HIT:   51021796  MISS:     200039  HIT %:    99.6095  MISS %:   0.390535   MPKI: 1.00019
DTLB PREFETCH  REQUESTED:          0  ISSUED:          0  USEFUL:          0  USELESS:          0
DTLB USEFUL LOAD PREFETCHES:          0 PREFETCH ISSUED TO LOWER LEVEL:          0  ACCURACY: -nan
DTLB TIMELY PREFETCHES:          0 LATE PREFETCHES: 0 DROPPED PREFETCHES: 0
DTLB COMMIT LATE PREFETCHES: 0 MISSED OPPORTUNITY: 0 LATE IN PQ: 0 UNCOVERED: 0
DTLB COMMIT LATE MSHR PREFETCHES: 0
DTLB MPKI TOTAL: 0 MSHR LATE: 0 PQ LATE: 0 COMMIT LATE: 0 MISSED OPPORTUNITY: 0 UNCOVERED: 0
DTLB PREFETCHES SAME FILL-ORIGIN LEVEL: 0 DIFFERENT FILL-ORIGIN LEVEL: 0
DTLB AVERAGE MISS LATENCY: 22.0085 cycles
DTLB AVERAGE MISS LATENCY LOAD: -nan cycles
DTLB AVERAGE MISS LATENCY PREFETCH: -nan cycles
DTLB AVERAGE MSHR OCCUPANCY: 0.0231079
DTLB MSHR FULL: 0.000976876
DTLB RQ	ACCESS:   58869740	FORWARD:          0	MERGED:    7580957	TO_CACHE:   51288783

STLB SPEC fills:          0  NON-SPEC fills:          0
STLB Test counter :          0
STLB Leapfrog:          0
STLB MSHR merge:          0
STLB TOTAL     ACCESS:   12947545  HIT:   12919578  MISS:      27967  HIT %:     99.784  MISS %:   0.216002   MPKI: 0.139835
STLB LOAD TRANSLATION NON_SPEC    ACCESS:     200210  HIT:     188379  MISS:      11831  HIT %:    94.0907  MISS %:     5.9093   MPKI: 0.059155
STLB TRANSLATION FROM L1D PREFETCHER NON_SPEC    ACCESS:   12747335  HIT:   12731199  MISS:      16136  HIT %:    99.8734  MISS %:   0.126583   MPKI: 0.08068
STLB PREFETCH  REQUESTED:          0  ISSUED:          0  USEFUL:      16072  USELESS:         63
STLB USEFUL LOAD PREFETCHES:      16072 PREFETCH ISSUED TO LOWER LEVEL:          0  ACCURACY: inf
STLB TIMELY PREFETCHES:      16072 LATE PREFETCHES: 2234 DROPPED PREFETCHES: 67310
STLB COMMIT LATE PREFETCHES: 0 MISSED OPPORTUNITY: 0 LATE IN PQ: 0 UNCOVERED: 0
STLB COMMIT LATE MSHR PREFETCHES: 0
STLB MPKI TOTAL: 0 MSHR LATE: 0.01117 PQ LATE: 0 COMMIT LATE: 0 MISSED OPPORTUNITY: 0 UNCOVERED: 0
STLB PREFETCHES SAME FILL-ORIGIN LEVEL: 0 DIFFERENT FILL-ORIGIN LEVEL: 0
STLB AVERAGE MISS LATENCY: 170.725 cycles
STLB AVERAGE MISS LATENCY LOAD: -nan cycles
STLB AVERAGE MISS LATENCY PREFETCH: -nan cycles
STLB AVERAGE MSHR OCCUPANCY: 0.0403191
STLB MSHR FULL: 0.000118755
STLB RQ	ACCESS:   61850621	FORWARD:          0	MERGED:   48825369	TO_CACHE:   13025252

STLB Hit, L1D data hit: 0
STLB Hit, L2C data hit: 0
STLB Hit, LLC data hit: 0
STLB Hit, LLC data miss: 0
STLB STLB hints to L2: 0
L0D SPEC fills:   33063067  NON-SPEC fills:          0
L0D TimeGuard Request with older TS:     609967 Restricted eviction:     530215 read:    1253434
L0D Test counter :          0
L0D Leapfrog:          0
L0D MSHR merge:    2048016
L0D TOTAL     ACCESS:   45966427  HIT:    6492354  MISS:   39474073  HIT %:    14.1241  MISS %:    85.8759   MPKI: 197.37
L0D LOAD      TOTAL       ACCESS:   45966427  HIT:    6492354  MISS:   39474073  HIT %:    14.1241  MISS %:    85.8759   MPKI: 197.37
L0D LOAD      NON_SPEC    ACCESS:    6830220  HIT:     949152  MISS:    5881068  HIT %:    13.8964  MISS %:    86.1036   MPKI: 29.4053
L0D LOAD      SPEC        ACCESS:   39136207  HIT:    5543202  MISS:   33593005  HIT %:    14.1639  MISS %:    85.8361   MPKI: 167.965
L0D PREFETCH  REQUESTED:          0  ISSUED:          0  USEFUL:          0  USELESS:          0
L0D USEFUL LOAD PREFETCHES:          0 PREFETCH ISSUED TO LOWER LEVEL:          0  ACCURACY: -nan
L0D TIMELY PREFETCHES:          0 LATE PREFETCHES: 0 DROPPED PREFETCHES: 0
L0D COMMIT LATE PREFETCHES: 0 MISSED OPPORTUNITY: 0 LATE IN PQ: 0 UNCOVERED: 0
L0D COMMIT LATE MSHR PREFETCHES: 0
L0D MPKI TOTAL: 207.61 MSHR LATE: 0 PQ LATE: 0 COMMIT LATE: 0 MISSED OPPORTUNITY: 0 UNCOVERED: 0
L0D PREFETCHES SAME FILL-ORIGIN LEVEL: 0 DIFFERENT FILL-ORIGIN LEVEL: 0
L0D AVERAGE MISS LATENCY: 7.59389 cycles
L0D AVERAGE MISS LATENCY LOAD: 7.59389 cycles
L0D AVERAGE MISS LATENCY PREFETCH: -nan cycles
L0D AVERAGE MSHR OCCUPANCY: 1.86027
L0D MSHR FULL: 0.059555
L0D RQ	ACCESS:   58960721	FORWARD:          0	MERGED:   10946276	TO_CACHE:   48014445
L0D WQ	ACCESS:   10855295	FORWARD:          0	MERGED:          0	TO_CACHE:   10855295

L1D SPEC fills:          0  NON-SPEC fills:      26183
L1D Test counter :          0
L1D Leapfrog:          0
L1D MSHR merge:     137121
L1D TOTAL     ACCESS:  100627678  HIT:   96172506  MISS:    4455172  HIT %:    95.5726  MISS %:    4.42738   MPKI: 22.2759
L1D LOAD      TOTAL       ACCESS:   39464351  HIT:   38632668  MISS:     831683  HIT %:    97.8926  MISS %:    2.10743   MPKI: 4.15841
L1D LOAD      NON_SPEC    ACCESS:    5880649  HIT:    5854466  MISS:      26183  HIT %:    99.5548  MISS %:    0.44524   MPKI: 0.130915
L1D LOAD      SPEC        ACCESS:   33583702  HIT:   32778202  MISS:     805500  HIT %:    97.6015  MISS %:    2.39848   MPKI: 4.0275
L1D RFO       NON_SPEC    ACCESS:    8562230  HIT:    7989952  MISS:     572278  HIT %:    93.3163  MISS %:    6.68375   MPKI: 2.86139
L1D PREFETCH  NON_SPEC    ACCESS:   51130529  HIT:   48854385  MISS:    2276144  HIT %:    95.5484  MISS %:    4.45163   MPKI: 11.3807
L1D COMMIT LOAD NON_SPEC    ACCESS:     695287  HIT:     637826  MISS:      57461  HIT %:    91.7356  MISS %:    8.26436   MPKI: 0.287305
L1D COMMIT WRITE NON_SPEC    ACCESS:     775281  HIT:      57675  MISS:     717606  HIT %:    7.43924  MISS %:    92.5608   MPKI: 3.58803
L1D PREFETCH  REQUESTED:  119989384  ISSUED:   65509025  USEFUL:    2130215  USELESS:     145940
L1D USEFUL LOAD PREFETCHES:    2130215 PREFETCH ISSUED TO LOWER LEVEL:   11061226  ACCURACY: 19.2584
L1D TIMELY PREFETCHES:    2130215 LATE PREFETCHES: 127478 DROPPED PREFETCHES: 152371
L1D COMMIT LATE PREFETCHES: 0 MISSED OPPORTUNITY: 0 LATE IN PQ: 0 UNCOVERED: 0
L1D COMMIT LATE MSHR PREFETCHES: 0
L1D MPKI TOTAL: 4.20702 MSHR LATE: 0.63739 PQ LATE: 0 COMMIT LATE: 0 MISSED OPPORTUNITY: 0 UNCOVERED: 0
L1D PREFETCHES SAME FILL-ORIGIN LEVEL: 2413948 DIFFERENT FILL-ORIGIN LEVEL: 8647278
L1D AVERAGE MISS LATENCY: 109.26 cycles
L1D AVERAGE MISS LATENCY LOAD: 105.708 cycles
L1D AVERAGE MISS LATENCY PREFETCH: 109.779 cycles
L1D AVERAGE MSHR OCCUPANCY: 1.831
L1D MSHR FULL: 0.0270927
L1D RQ	ACCESS:   40590178	FORWARD:          0	MERGED:     320536	TO_CACHE:   40184565
L1D WQ	ACCESS:   10988054	FORWARD:      85077	MERGED:      87503	TO_CACHE:   10900551
L1D PQ	ACCESS:   65509025	FORWARD:          0	MERGED:    3858614	TO_CACHE:   61650411

L1D UNIQUE REGIONS ACCESSED: 0
L1D REGIONS CONFLICTS: 0
L1D Cross Page Prefetch Requests: 11313069
L1D Same Page Prefetch Requests: 71194264
L1D ROI Sum of L1D PQ occupancy: 1071987432
L1D PREFETCHES PUSHED FROM L2C: 0
L1I SPEC fills:          0  NON-SPEC fills:          0
L1I Test counter :          0
L1I Leapfrog:          0
L1I MSHR merge:       2998
L1I TOTAL     ACCESS:   35155135  HIT:   35148972  MISS:       6163  HIT %:    99.9825  MISS %:  0.0175309   MPKI: 0.030815
L1I LOAD      TOTAL       ACCESS:   35155135  HIT:   35148972  MISS:       6163  HIT %:    99.9825  MISS %:  0.0175309   MPKI: 0.030815
L1I LOAD      NON_SPEC    ACCESS:   35155135  HIT:   35148972  MISS:       6163  HIT %:    99.9825  MISS %:  0.0175309   MPKI: 0.030815
L1I PREFETCH  REQUESTED:          0  ISSUED:          0  USEFUL:          0  USELESS:          0
L1I USEFUL LOAD PREFETCHES:          0 PREFETCH ISSUED TO LOWER LEVEL:          0  ACCURACY: -nan
L1I TIMELY PREFETCHES:          0 LATE PREFETCHES: 0 DROPPED PREFETCHES: 0
L1I COMMIT LATE PREFETCHES: 0 MISSED OPPORTUNITY: 0 LATE IN PQ: 0 UNCOVERED: 0
L1I COMMIT LATE MSHR PREFETCHES: 0
L1I MPKI TOTAL: 0.045805 MSHR LATE: 0 PQ LATE: 0 COMMIT LATE: 0 MISSED OPPORTUNITY: 0 UNCOVERED: 0
L1I PREFETCHES SAME FILL-ORIGIN LEVEL: 0 DIFFERENT FILL-ORIGIN LEVEL: 0
L1I AVERAGE MISS LATENCY: 225.336 cycles
L1I AVERAGE MISS LATENCY LOAD: 225.336 cycles
L1I AVERAGE MISS LATENCY PREFETCH: -nan cycles
L1I AVERAGE MSHR OCCUPANCY: 0.000231924
L1I MSHR FULL: 0
L1I RQ	ACCESS:   51954076	FORWARD:          0	MERGED:   16795941	TO_CACHE:   35158135

BTB SPEC fills:          0  NON-SPEC fills:          0
BTB Test counter :          0
BTB Leapfrog:          0
BTB MSHR merge:          0
BTB TOTAL     ACCESS:    9141034  HIT:    9133637  MISS:       7397  HIT %:    99.9191  MISS %:  0.0809208   MPKI: 0.036985
BTB BRANCH_DIRECT_JUMP	ACCESS:     290387  HIT:     290283  MISS:        104
BTB BRANCH_INDIRECT	ACCESS:         12  HIT:          8  MISS:          4
BTB BRANCH_CONDITIONAL	ACCESS:    8250534  HIT:    8249659  MISS:        875
BTB BRANCH_DIRECT_CALL	ACCESS:     300051  HIT:     299561  MISS:        490
BTB BRANCH_INDIRECT_CALL	ACCESS:          0  HIT:          0  MISS:          0
BTB BRANCH_RETURN	ACCESS:     300050  HIT:     294126  MISS:       5924
BTB BRANCH_OTHER ACCESS:          0  HIT:          0  MISS:          0

L2C SPEC fills:          0  NON-SPEC fills:       5521
L2C Test counter :          0
L2C Leapfrog:          0
L2C MSHR merge:      68901
L2C TOTAL     ACCESS:   12867346  HIT:    9923824  MISS:    2943522  HIT %:    77.1241  MISS %:    22.8759   MPKI: 14.7176
L2C LOAD      TOTAL       ACCESS:     710115  HIT:     464340  MISS:     245775  HIT %:    65.3894  MISS %:    34.6106   MPKI: 1.22887
L2C LOAD      NON_SPEC    ACCESS:      30056  HIT:      18372  MISS:      11684  HIT %:    61.1259  MISS %:    38.8741   MPKI: 0.05842
L2C LOAD      SPEC        ACCESS:     680059  HIT:     445968  MISS:     234091  HIT %:    65.5778  MISS %:    34.4222   MPKI: 1.17045
L2C RFO       NON_SPEC    ACCESS:     572032  HIT:     154896  MISS:     417136  HIT %:    27.0782  MISS %:    72.9218   MPKI: 2.08568
L2C PREFETCH  NON_SPEC    ACCESS:    9545093  HIT:    7499962  MISS:    2045131  HIT %:     78.574  MISS %:     21.426   MPKI: 10.2257
L2C WRITEBACK NON_SPEC    ACCESS:    1087067  HIT:    1085318  MISS:       1749  HIT %:    99.8391  MISS %:   0.160892   MPKI: 0.008745
L2C CLEAN_EVICTION NON_SPEC    ACCESS:     413226  HIT:     193359  MISS:     219867  HIT %:    46.7926  MISS %:    53.2074   MPKI: 1.09933
L2C COMMIT LOAD NON_SPEC    ACCESS:      57382  HIT:      48862  MISS:       8520  HIT %:    85.1521  MISS %:    14.8479   MPKI: 0.0426
L2C LOAD TRANSLATION NON_SPEC    ACCESS:      54081  HIT:      51864  MISS:       2217  HIT %:    95.9006  MISS %:    4.09941   MPKI: 0.011085
L2C TRANSLATION FROM L1D PREFETCHER NON_SPEC    ACCESS:     428350  HIT:     425223  MISS:       3127  HIT %:      99.27  MISS %:   0.730011   MPKI: 0.015635
L2C PREFETCH  REQUESTED:          0  ISSUED:          0  USEFUL:     298021  USELESS:    1746235
L2C USEFUL LOAD PREFETCHES:     298021 PREFETCH ISSUED TO LOWER LEVEL:    2115415  ACCURACY: 14.0881
L2C TIMELY PREFETCHES:     298021 LATE PREFETCHES: 70283 DROPPED PREFETCHES: 0
L2C COMMIT LATE PREFETCHES: 0 MISSED OPPORTUNITY: 0 LATE IN PQ: 0 UNCOVERED: 0
L2C COMMIT LATE MSHR PREFETCHES: 0
L2C MPKI TOTAL: 1.22887 MSHR LATE: 0.351415 PQ LATE: 0 COMMIT LATE: 0 MISSED OPPORTUNITY: 0 UNCOVERED: 0
L2C PREFETCHES SAME FILL-ORIGIN LEVEL: 1206658 DIFFERENT FILL-ORIGIN LEVEL: 0
L2C AVERAGE MISS LATENCY: 252.49 cycles
L2C AVERAGE MISS LATENCY LOAD: 223.595 cycles
L2C AVERAGE MISS LATENCY PREFETCH: 267.527 cycles
L2C AVERAGE MSHR OCCUPANCY: 8.36191
L2C MSHR FULL: 0.0892206
L2C RQ	ACCESS:    1822297	FORWARD:          0	MERGED:          0	TO_CACHE:    1821960
L2C WQ	ACCESS:    1500311	FORWARD:        451	MERGED:         18	TO_CACHE:    1500293
L2C PQ	ACCESS:   10854751	FORWARD:          0	MERGED:       9976	TO_CACHE:   10844661

L2C Instructions Evicting Data 6145
L2C Translations Evicting Data 5327
L2C Data Evicting Data 2465758
L2C Instructions Evicting Instructions 12
L2C Translations Evicting Instructions 10
L2C Data Evicting Instructions 5709
L2C Instructions Evicting Translations 6
L2C Translations Evicting Translations 7
L2C Data Evicting Translations 4841
L2C Dense regions hint from L2: 0
PSCL5 SPEC fills:          0  NON-SPEC fills:          0
PSCL5 Test counter :          0
PSCL5 Leapfrog:          0
PSCL5 MSHR merge:          0
PSCL5 TOTAL     ACCESS:          0  HIT:          0  MISS:          0  HIT %:       -nan  MISS %:       -nan   MPKI: 0
PSCL5 PREFETCH  REQUESTED:          0  ISSUED:          0  USEFUL:          0  USELESS:          0
PSCL5 USEFUL LOAD PREFETCHES:          0 PREFETCH ISSUED TO LOWER LEVEL:          0  ACCURACY: -nan
PSCL5 TIMELY PREFETCHES:          0 LATE PREFETCHES: 0 DROPPED PREFETCHES: 0
PSCL5 COMMIT LATE PREFETCHES: 0 MISSED OPPORTUNITY: 0 LATE IN PQ: 0 UNCOVERED: 0
PSCL5 COMMIT LATE MSHR PREFETCHES: 0
PSCL5 MPKI TOTAL: 0 MSHR LATE: 0 PQ LATE: 0 COMMIT LATE: 0 MISSED OPPORTUNITY: 0 UNCOVERED: 0
PSCL5 PREFETCHES SAME FILL-ORIGIN LEVEL: 0 DIFFERENT FILL-ORIGIN LEVEL: 0

PSCL4 SPEC fills:          0  NON-SPEC fills:          0
PSCL4 Test counter :          0
PSCL4 Leapfrog:          0
PSCL4 MSHR merge:          0
PSCL4 TOTAL     ACCESS:          0  HIT:          0  MISS:          0  HIT %:       -nan  MISS %:       -nan   MPKI: 0
PSCL4 PREFETCH  REQUESTED:          0  ISSUED:          0  USEFUL:          0  USELESS:          0
PSCL4 USEFUL LOAD PREFETCHES:          0 PREFETCH ISSUED TO LOWER LEVEL:          0  ACCURACY: -nan
PSCL4 TIMELY PREFETCHES:          0 LATE PREFETCHES: 0 DROPPED PREFETCHES: 0
PSCL4 COMMIT LATE PREFETCHES: 0 MISSED OPPORTUNITY: 0 LATE IN PQ: 0 UNCOVERED: 0
PSCL4 COMMIT LATE MSHR PREFETCHES: 0
PSCL4 MPKI TOTAL: 0 MSHR LATE: 0 PQ LATE: 0 COMMIT LATE: 0 MISSED OPPORTUNITY: 0 UNCOVERED: 0
PSCL4 PREFETCHES SAME FILL-ORIGIN LEVEL: 0 DIFFERENT FILL-ORIGIN LEVEL: 0

PSCL3 SPEC fills:          0  NON-SPEC fills:          0
PSCL3 Test counter :          0
PSCL3 Leapfrog:          0
PSCL3 MSHR merge:          0
PSCL3 TOTAL     ACCESS:          0  HIT:          0  MISS:          0  HIT %:       -nan  MISS %:       -nan   MPKI: 0
PSCL3 PREFETCH  REQUESTED:          0  ISSUED:          0  USEFUL:          0  USELESS:          0
PSCL3 USEFUL LOAD PREFETCHES:          0 PREFETCH ISSUED TO LOWER LEVEL:          0  ACCURACY: -nan
PSCL3 TIMELY PREFETCHES:          0 LATE PREFETCHES: 0 DROPPED PREFETCHES: 0
PSCL3 COMMIT LATE PREFETCHES: 0 MISSED OPPORTUNITY: 0 LATE IN PQ: 0 UNCOVERED: 0
PSCL3 COMMIT LATE MSHR PREFETCHES: 0
PSCL3 MPKI TOTAL: 0 MSHR LATE: 0 PQ LATE: 0 COMMIT LATE: 0 MISSED OPPORTUNITY: 0 UNCOVERED: 0
PSCL3 PREFETCHES SAME FILL-ORIGIN LEVEL: 0 DIFFERENT FILL-ORIGIN LEVEL: 0

PSCL2 SPEC fills:          0  NON-SPEC fills:          0
PSCL2 Test counter :          0
PSCL2 Leapfrog:          0
PSCL2 MSHR merge:          0
PSCL2 TOTAL     ACCESS:          0  HIT:          0  MISS:          0  HIT %:       -nan  MISS %:       -nan   MPKI: 0
PSCL2 PREFETCH  REQUESTED:          0  ISSUED:          0  USEFUL:          0  USELESS:          0
PSCL2 USEFUL LOAD PREFETCHES:          0 PREFETCH ISSUED TO LOWER LEVEL:          0  ACCURACY: -nan
PSCL2 TIMELY PREFETCHES:          0 LATE PREFETCHES: 0 DROPPED PREFETCHES: 0
PSCL2 COMMIT LATE PREFETCHES: 0 MISSED OPPORTUNITY: 0 LATE IN PQ: 0 UNCOVERED: 0
PSCL2 COMMIT LATE MSHR PREFETCHES: 0
PSCL2 MPKI TOTAL: 0 MSHR LATE: 0 PQ LATE: 0 COMMIT LATE: 0 MISSED OPPORTUNITY: 0 UNCOVERED: 0
PSCL2 PREFETCHES SAME FILL-ORIGIN LEVEL: 0 DIFFERENT FILL-ORIGIN LEVEL: 0

LLC SPEC fills:          0  NON-SPEC fills:       4141
LLC Test counter :          0
LLC Leapfrog:          0
LLC MSHR merge:          0
LLC TOTAL     ACCESS:    3964735  HIT:    1564926  MISS:    2399809  HIT %:    39.4711  MISS %:    60.5289   MPKI: 11.999
LLC LOAD      TOTAL       ACCESS:     176873  HIT:      10121  MISS:     166752  HIT %:    5.72218  MISS %:    94.2778   MPKI: 0.83376
LLC LOAD      NON_SPEC    ACCESS:      10948  HIT:        644  MISS:      10304  HIT %:    5.88235  MISS %:    94.1176   MPKI: 0.05152
LLC LOAD      SPEC        ACCESS:     165925  HIT:       9477  MISS:     156448  HIT %:    5.71162  MISS %:    94.2884   MPKI: 0.78224
LLC RFO       NON_SPEC    ACCESS:     415821  HIT:      30357  MISS:     385464  HIT %:     7.3005  MISS %:    92.6995   MPKI: 1.92732
LLC PREFETCH  NON_SPEC    ACCESS:    2115410  HIT:     431088  MISS:    1684322  HIT %:    20.3785  MISS %:    79.6215   MPKI: 8.42161
LLC WRITEBACK NON_SPEC    ACCESS:     858635  HIT:     856320  MISS:       2315  HIT %:    99.7304  MISS %:   0.269614   MPKI: 0.011575
LLC CLEAN_EVICTION NON_SPEC    ACCESS:     384200  HIT:     232498  MISS:     151702  HIT %:    60.5148  MISS %:    39.4852   MPKI: 0.75851
LLC COMMIT LOAD NON_SPEC    ACCESS:       8452  HIT:       4124  MISS:       4328  HIT %:    48.7932  MISS %:    51.2068   MPKI: 0.02164
LLC LOAD TRANSLATION NON_SPEC    ACCESS:       2217  HIT:        250  MISS:       1967  HIT %:    11.2765  MISS %:    88.7235   MPKI: 0.009835
LLC TRANSLATION FROM L1D PREFETCHER NON_SPEC    ACCESS:       3127  HIT:        168  MISS:       2959  HIT %:    5.37256  MISS %:    94.6274   MPKI: 0.014795
LLC PREFETCH  REQUESTED:          0  ISSUED:          0  USEFUL:       7849  USELESS:    1675071
LLC USEFUL LOAD PREFETCHES:       7849 PREFETCH ISSUED TO LOWER LEVEL:    1684323  ACCURACY: 0.466003
LLC TIMELY PREFETCHES:       7849 LATE PREFETCHES: 0 DROPPED PREFETCHES: 0
LLC COMMIT LATE PREFETCHES: 0 MISSED OPPORTUNITY: 0 LATE IN PQ: 0 UNCOVERED: 0
LLC COMMIT LATE MSHR PREFETCHES: 0
LLC MPKI TOTAL: 0.83376 MSHR LATE: 0 PQ LATE: 0 COMMIT LATE: 0 MISSED OPPORTUNITY: 0 UNCOVERED: 0
LLC PREFETCHES SAME FILL-ORIGIN LEVEL: 0 DIFFERENT FILL-ORIGIN LEVEL: 0
LLC AVERAGE MISS LATENCY: 281.455 cycles
LLC AVERAGE MISS LATENCY LOAD: 212.125 cycles
LLC AVERAGE MISS LATENCY PREFETCH: 304.166 cycles
LLC AVERAGE MSHR OCCUPANCY: 6.32881
LLC MSHR FULL: 0
LLC RQ	ACCESS:     606492	FORWARD:          0	MERGED:          0	TO_CACHE:     606490
LLC WQ	ACCESS:    1242835	FORWARD:          6	MERGED:          0	TO_CACHE:    1242835
LLC PQ	ACCESS:    2115415	FORWARD:          0	MERGED:          0	TO_CACHE:    2115411

LLC Dense regions hint to LLC: 0

RAW hits: 154553
Loads Generated: 59115277
Loads sent to L1D: 58960721
Stores Generated: 10855289
Stores sent to L1D: 10855295
Major fault: 0 Minor fault: 10671
Allocated PAGES: 10671
Total Load insts: 73557279
Total Non-spec loads: 8010304
Percentage of speculative loads: 89.1101

LeapFrogging counter: 1093613
Commit hits: 32511562 miss: 19090855
Commit hit %: 63.004 miss %: 36.996
Commits not translated: 0
Loads retired: 831683
Stores retired: 10855295
Cache fills: 831683
L1D response latency: 105.708 cycles
Load retirement latency: 281.204 cycles
OOO test counter: 0
Discarded buffer inserts: 32511562 hits: 18597 hit %: 0.0572012
Filter prediction accuracy: 99.9215
LATENCY_FILL: 103.505 839788

DRAM Statistics
 CHANNEL 0
 RQ ROW_BUFFER_HIT:     613177  ROW_BUFFER_MISS:    1632358
 DBUS_CONGESTED:       2071
 WQ ROW_BUFFER_HIT:     213725  ROW_BUFFER_MISS:     801386  FULL:        191

 AVG_CONGESTED_CYCLE: 5
 All warmup complete: 2
Channel 0 Bank busy for read cycles: 0
Channel 0 Bank busy for write cycles: 0
Channel 0
Rank 0
0banks busy for read cycles: 102678979
0banks busy for write cycles: 76958
1banks busy for read cycles: 33707004
1banks busy for write cycles: 10389796
2banks busy for read cycles: 16919815
2banks busy for write cycles: 4183574
3banks busy for read cycles: 9330542
3banks busy for write cycles: 2156586
4banks busy for read cycles: 6579077
4banks busy for write cycles: 1562505
5banks busy for read cycles: 5313967
5banks busy for write cycles: 1337810
6banks busy for read cycles: 5105373
6banks busy for write cycles: 1294939
7banks busy for read cycles: 5698814
7banks busy for write cycles: 2562258
8banks busy for read cycles: 8725834
8banks busy for write cycles: 17065665

CPU 0 Branch Prediction Accuracy: 99.8685% MPKI: 0.079065 Average ROB Occupancy at Mispredict: 111.695
Branch types
NOT_BRANCH: 187976341 93.9882%
BRANCH_DIRECT_JUMP: 290387 0.145193%
BRANCH_INDIRECT: 12 6e-06%
BRANCH_CONDITIONAL: 11132877 5.56644%
BRANCH_DIRECT_CALL: 300051 0.150025%
BRANCH_INDIRECT_CALL: 0 0%
BRANCH_RETURN: 300050 0.150025%
BRANCH_OTHER: 0 0%

DRAM PAGES: 1048576
Allocated PAGES: 10671
