
*** ChampSim Multicore Out-of-Order Simulator ***

Warmup Instructions: 50000000
Simulation Instructions: 200000000
Number of CPUs: 1
LLC sets: 2048
LLC ways: 16
L0D sets: 16
L0D ways: 2
ROB size: 352
LQ size: 128
SQ size: 72
Secure Berti: OFF
Berti: OFF
Berti Fill: OFF
On commit prefetching: OFF
Hit-based filter: ON
Time-guarding: ON
Free-slotting: ON
Leap-frogging: ON
Train prefetcher on L0D bypass: OFF
No translation penalty for prefetchers: OFF
Prefetch to L0D only: OFF
Prefetch to L1D only: OFF
Clean evictions: ON
Commit loads: ON
Commit write: ON
Fill commit loads to L2C, LLC: ON
DRAM IO FREQUENCY: 6400
ROB SIZE: 352
Off-chip DRAM Size: 4096 MB Channels: 1 Width: 64-bit Data Rate: 6400 MT/s
CPU 0 runs /home/sumon/secure_berti/GhostMinion/../../traces/spec/623.xalancbmk_s-202B.champsimtrace.xz
.xz
BTB has LRU replacement policy
ITLB has LRU replacement policy
DTLB has LRU replacement policy
STLB has LRU replacement policy
L1I has LRU replacement policy
L0D has LRU replacement policy
History Sets: 8
History Ways: 16
BERTI Size: 16
BERTI Stride Size: 16
L1D has LRU replacement policy
L2C has LRU replacement policy
LLC has LRU replacement policy
Heartbeat CPU 0 instructions: 10000001 cycles: 3752677 heartbeat IPC: 2.66476 cumulative IPC: 2.66476 (Simulation time: 0 hr 0 min 32 sec) 
Heartbeat CPU 0 instructions: 20000002 cycles: 7466822 heartbeat IPC: 2.69241 cumulative IPC: 2.67852 (Simulation time: 0 hr 1 min 4 sec) 
Heartbeat CPU 0 instructions: 30000001 cycles: 11177766 heartbeat IPC: 2.69473 cumulative IPC: 2.6839 (Simulation time: 0 hr 1 min 37 sec) 
Heartbeat CPU 0 instructions: 40000002 cycles: 14884108 heartbeat IPC: 2.69808 cumulative IPC: 2.68743 (Simulation time: 0 hr 2 min 11 sec) 
Heartbeat CPU 0 instructions: 50000001 cycles: 18601405 heartbeat IPC: 2.69013 cumulative IPC: 2.68797 (Simulation time: 0 hr 2 min 44 sec) 

Warmup complete CPU 0 instructions: 50000001 cycles: 18601405 (Simulation time: 0 hr 2 min 44 sec) 

Heartbeat CPU 0 instructions: 60000002 cycles: 30192288 heartbeat IPC: 0.862747 cumulative IPC: 0.862747 (Simulation time: 0 hr 3 min 26 sec) 
Heartbeat CPU 0 instructions: 70000000 cycles: 41989156 heartbeat IPC: 0.847682 cumulative IPC: 0.855148 (Simulation time: 0 hr 4 min 7 sec) 
Heartbeat CPU 0 instructions: 80000002 cycles: 53808972 heartbeat IPC: 0.846037 cumulative IPC: 0.85209 (Simulation time: 0 hr 4 min 48 sec) 
Heartbeat CPU 0 instructions: 90000001 cycles: 65376725 heartbeat IPC: 0.864472 cumulative IPC: 0.855152 (Simulation time: 0 hr 5 min 28 sec) 
Heartbeat CPU 0 instructions: 100000000 cycles: 77047502 heartbeat IPC: 0.856841 cumulative IPC: 0.855489 (Simulation time: 0 hr 6 min 8 sec) 
Heartbeat CPU 0 instructions: 110000000 cycles: 89077156 heartbeat IPC: 0.831279 cumulative IPC: 0.851357 (Simulation time: 0 hr 6 min 49 sec) 
Heartbeat CPU 0 instructions: 120000002 cycles: 100851047 heartbeat IPC: 0.849337 cumulative IPC: 0.851068 (Simulation time: 0 hr 7 min 29 sec) 
Heartbeat CPU 0 instructions: 130000001 cycles: 112747310 heartbeat IPC: 0.8406 cumulative IPC: 0.849745 (Simulation time: 0 hr 8 min 10 sec) 
Heartbeat CPU 0 instructions: 140000001 cycles: 124742557 heartbeat IPC: 0.833664 cumulative IPC: 0.847928 (Simulation time: 0 hr 8 min 53 sec) 
Heartbeat CPU 0 instructions: 150000001 cycles: 136305982 heartbeat IPC: 0.864796 cumulative IPC: 0.849585 (Simulation time: 0 hr 9 min 32 sec) 
Heartbeat CPU 0 instructions: 160000000 cycles: 148137368 heartbeat IPC: 0.845209 cumulative IPC: 0.849185 (Simulation time: 0 hr 10 min 13 sec) 
Heartbeat CPU 0 instructions: 170000002 cycles: 159707506 heartbeat IPC: 0.864294 cumulative IPC: 0.850424 (Simulation time: 0 hr 10 min 54 sec) 
Heartbeat CPU 0 instructions: 180000001 cycles: 171719167 heartbeat IPC: 0.832524 cumulative IPC: 0.84902 (Simulation time: 0 hr 11 min 37 sec) 
Heartbeat CPU 0 instructions: 190000001 cycles: 183180226 heartbeat IPC: 0.87252 cumulative IPC: 0.850656 (Simulation time: 0 hr 12 min 18 sec) 
Heartbeat CPU 0 instructions: 200000002 cycles: 195035681 heartbeat IPC: 0.843494 cumulative IPC: 0.850175 (Simulation time: 0 hr 12 min 59 sec) 
Heartbeat CPU 0 instructions: 210000003 cycles: 206287058 heartbeat IPC: 0.88878 cumulative IPC: 0.852489 (Simulation time: 0 hr 13 min 37 sec) 
Heartbeat CPU 0 instructions: 220000000 cycles: 218236632 heartbeat IPC: 0.83685 cumulative IPC: 0.851553 (Simulation time: 0 hr 14 min 18 sec) 
Heartbeat CPU 0 instructions: 230000001 cycles: 229867442 heartbeat IPC: 0.859785 cumulative IPC: 0.852006 (Simulation time: 0 hr 14 min 56 sec) 
Heartbeat CPU 0 instructions: 240000000 cycles: 241603969 heartbeat IPC: 0.852041 cumulative IPC: 0.852008 (Simulation time: 0 hr 15 min 34 sec) 
Heartbeat CPU 0 instructions: 250000001 cycles: 253505960 heartbeat IPC: 0.840196 cumulative IPC: 0.85141 (Simulation time: 0 hr 16 min 12 sec) 
Finished CPU 0 instructions: 200000000 cycles: 234904555 cumulative IPC: 0.85141 (Simulation time: 0 hr 16 min 12 sec) 
 Instruction ID: 250000171

ChampSim completed all CPUs

Region of Interest Statistics

CPU 0 cumulative IPC: 0.85141 instructions: 200000000 cycles: 234904555
ITLB SPEC fills:          0  NON-SPEC fills:          0
ITLB Test counter :          0
ITLB Leapfrog:          0
ITLB MSHR merge:          0
ITLB TOTAL     ACCESS:   28651969  HIT:   28651969  MISS:          0  HIT %:        100  MISS %:          0   MPKI: 0
ITLB LOAD TRANSLATION NON_SPEC    ACCESS:   28651969  HIT:   28651969  MISS:          0  HIT %:        100  MISS %:          0   MPKI: 0
ITLB PREFETCH  REQUESTED:          0  ISSUED:          0  USEFUL:          0  USELESS:          0
ITLB USEFUL LOAD PREFETCHES:          0 PREFETCH ISSUED TO LOWER LEVEL:          0  ACCURACY: -nan
ITLB TIMELY PREFETCHES:          0 LATE PREFETCHES: 0 DROPPED PREFETCHES: 0
ITLB COMMIT LATE PREFETCHES: 0 MISSED OPPORTUNITY: 0 LATE IN PQ: 0 UNCOVERED: 0
ITLB COMMIT LATE MSHR PREFETCHES: 0
ITLB MPKI TOTAL: 0 MSHR LATE: 0 PQ LATE: 0 COMMIT LATE: 0 MISSED OPPORTUNITY: 0 UNCOVERED: 0
ITLB PREFETCHES SAME FILL-ORIGIN LEVEL: 0 DIFFERENT FILL-ORIGIN LEVEL: 0
ITLB AVERAGE MISS LATENCY: -nan cycles
ITLB AVERAGE MISS LATENCY LOAD: -nan cycles
ITLB AVERAGE MISS LATENCY PREFETCH: -nan cycles
ITLB AVERAGE MSHR OCCUPANCY: 0
ITLB MSHR FULL: 0
ITLB RQ	ACCESS:   35662103	FORWARD:          0	MERGED:    7010135	TO_CACHE:   28651968

DTLB SPEC fills:          0  NON-SPEC fills:          0
DTLB Test counter :          0
DTLB Leapfrog:          0
DTLB MSHR merge:          0
DTLB TOTAL     ACCESS:   39510883  HIT:   39423024  MISS:      87859  HIT %:    99.7776  MISS %:   0.222367   MPKI: 0.439295
DTLB LOAD TRANSLATION NON_SPEC    ACCESS:   39510883  HIT:   39423024  MISS:      87859  HIT %:    99.7776  MISS %:   0.222367   MPKI: 0.439295
DTLB PREFETCH  REQUESTED:          0  ISSUED:          0  USEFUL:          0  USELESS:          0
DTLB USEFUL LOAD PREFETCHES:          0 PREFETCH ISSUED TO LOWER LEVEL:          0  ACCURACY: -nan
DTLB TIMELY PREFETCHES:          0 LATE PREFETCHES: 0 DROPPED PREFETCHES: 0
DTLB COMMIT LATE PREFETCHES: 0 MISSED OPPORTUNITY: 0 LATE IN PQ: 0 UNCOVERED: 0
DTLB COMMIT LATE MSHR PREFETCHES: 0
DTLB MPKI TOTAL: 0 MSHR LATE: 0 PQ LATE: 0 COMMIT LATE: 0 MISSED OPPORTUNITY: 0 UNCOVERED: 0
DTLB PREFETCHES SAME FILL-ORIGIN LEVEL: 0 DIFFERENT FILL-ORIGIN LEVEL: 0
DTLB AVERAGE MISS LATENCY: 9.90291 cycles
DTLB AVERAGE MISS LATENCY LOAD: -nan cycles
DTLB AVERAGE MISS LATENCY PREFETCH: -nan cycles
DTLB AVERAGE MSHR OCCUPANCY: 0.00121416
DTLB MSHR FULL: 0
DTLB RQ	ACCESS:   44150552	FORWARD:          0	MERGED:    4639393	TO_CACHE:   39511159

STLB SPEC fills:          0  NON-SPEC fills:          0
STLB Test counter :          0
STLB Leapfrog:          0
STLB MSHR merge:          0
STLB TOTAL     ACCESS:    9994486  HIT:    9994304  MISS:        182  HIT %:    99.9982  MISS %:   0.001821   MPKI: 0.00091
STLB LOAD TRANSLATION NON_SPEC    ACCESS:      87859  HIT:      87677  MISS:        182  HIT %:    99.7928  MISS %:    0.20715   MPKI: 0.00091
STLB TRANSLATION FROM L1D PREFETCHER NON_SPEC    ACCESS:    9906627  HIT:    9906627  MISS:          0  HIT %:        100  MISS %:          0   MPKI: 0
STLB PREFETCH  REQUESTED:          0  ISSUED:          0  USEFUL:          0  USELESS:          0
STLB USEFUL LOAD PREFETCHES:          0 PREFETCH ISSUED TO LOWER LEVEL:          0  ACCURACY: -nan
STLB TIMELY PREFETCHES:          0 LATE PREFETCHES: 2 DROPPED PREFETCHES: 732420
STLB COMMIT LATE PREFETCHES: 0 MISSED OPPORTUNITY: 0 LATE IN PQ: 0 UNCOVERED: 0
STLB COMMIT LATE MSHR PREFETCHES: 0
STLB MPKI TOTAL: 0 MSHR LATE: 1e-05 PQ LATE: 0 COMMIT LATE: 0 MISSED OPPORTUNITY: 0 UNCOVERED: 0
STLB PREFETCHES SAME FILL-ORIGIN LEVEL: 0 DIFFERENT FILL-ORIGIN LEVEL: 0
STLB AVERAGE MISS LATENCY: 492.549 cycles
STLB AVERAGE MISS LATENCY LOAD: -nan cycles
STLB AVERAGE MISS LATENCY PREFETCH: -nan cycles
STLB AVERAGE MSHR OCCUPANCY: 0.227677
STLB MSHR FULL: 0
STLB RQ	ACCESS:   33070915	FORWARD:          0	MERGED:   22337436	TO_CACHE:   10733479

STLB Hit, L1D data hit: 0
STLB Hit, L2C data hit: 0
STLB Hit, LLC data hit: 0
STLB Hit, LLC data miss: 0
STLB STLB hints to L2: 0
L0D SPEC fills:   23462503  NON-SPEC fills:          0
L0D TimeGuard Request with older TS:     188942 Restricted eviction:      70384 read:      17222
L0D Test counter :          0
L0D Leapfrog:          0
L0D MSHR merge:    1779588
L0D TOTAL     ACCESS:   38832240  HIT:    7637926  MISS:   31194314  HIT %:     19.669  MISS %:     80.331   MPKI: 155.972
L0D LOAD      TOTAL       ACCESS:   38832240  HIT:    7637926  MISS:   31194314  HIT %:     19.669  MISS %:     80.331   MPKI: 155.972
L0D LOAD      NON_SPEC    ACCESS:    7734039  HIT:      72612  MISS:    7661427  HIT %:   0.938863  MISS %:    99.0611   MPKI: 38.3071
L0D LOAD      SPEC        ACCESS:   31098201  HIT:    7565314  MISS:   23532887  HIT %:    24.3272  MISS %:    75.6728   MPKI: 117.664
L0D PREFETCH  REQUESTED:          0  ISSUED:          0  USEFUL:          0  USELESS:          0
L0D USEFUL LOAD PREFETCHES:          0 PREFETCH ISSUED TO LOWER LEVEL:          0  ACCURACY: -nan
L0D TIMELY PREFETCHES:          0 LATE PREFETCHES: 0 DROPPED PREFETCHES: 0
L0D COMMIT LATE PREFETCHES: 0 MISSED OPPORTUNITY: 0 LATE IN PQ: 0 UNCOVERED: 0
L0D COMMIT LATE MSHR PREFETCHES: 0
L0D MPKI TOTAL: 164.87 MSHR LATE: 0 PQ LATE: 0 COMMIT LATE: 0 MISSED OPPORTUNITY: 0 UNCOVERED: 0
L0D PREFETCHES SAME FILL-ORIGIN LEVEL: 0 DIFFERENT FILL-ORIGIN LEVEL: 0
L0D AVERAGE MISS LATENCY: 6.84412 cycles
L0D AVERAGE MISS LATENCY LOAD: 6.84412 cycles
L0D AVERAGE MISS LATENCY PREFETCH: -nan cycles
L0D AVERAGE MSHR OCCUPANCY: 0.663556
L0D MSHR FULL: 0
L0D RQ	ACCESS:   59773015	FORWARD:          0	MERGED:   19161188	TO_CACHE:   40611827
L0D WQ	ACCESS:    3538725	FORWARD:          0	MERGED:          0	TO_CACHE:    3538725

L1D SPEC fills:          0  NON-SPEC fills:      79001
L1D Test counter :          0
L1D Leapfrog:          0
L1D MSHR merge:      24968
L1D TOTAL     ACCESS:   64602568  HIT:   58941383  MISS:    5661185  HIT %:    91.2369  MISS %:     8.7631   MPKI: 28.3059
L1D LOAD      TOTAL       ACCESS:   31194251  HIT:   30635245  MISS:     559006  HIT %:     98.208  MISS %:    1.79202   MPKI: 2.79503
L1D LOAD      NON_SPEC    ACCESS:    7661425  HIT:    7582424  MISS:      79001  HIT %:    98.9688  MISS %:    1.03115   MPKI: 0.395005
L1D LOAD      SPEC        ACCESS:   23532826  HIT:   23052821  MISS:     480005  HIT %:    97.9603  MISS %:    2.03973   MPKI: 2.40002
L1D RFO       NON_SPEC    ACCESS:    3538725  HIT:    3538725  MISS:          0  HIT %:        100  MISS %:          0   MPKI: 0
L1D PREFETCH  NON_SPEC    ACCESS:   29004329  HIT:   24381600  MISS:    4622729  HIT %:    84.0619  MISS %:    15.9381   MPKI: 23.1136
L1D COMMIT LOAD NON_SPEC    ACCESS:     382065  HIT:     381543  MISS:        522  HIT %:    99.8634  MISS %:   0.136626   MPKI: 0.00261
L1D COMMIT WRITE NON_SPEC    ACCESS:     483198  HIT:       4270  MISS:     478928  HIT %:   0.883696  MISS %:    99.1163   MPKI: 2.39464
L1D PREFETCH  REQUESTED:   63146934  ISSUED:   41737427  USEFUL:    4505618  USELESS:     117173
L1D USEFUL LOAD PREFETCHES:    4505618 PREFETCH ISSUED TO LOWER LEVEL:    7454166  ACCURACY: 60.4443
L1D TIMELY PREFETCHES:    4505618 LATE PREFETCHES: 24905 DROPPED PREFETCHES: 782280
L1D COMMIT LATE PREFETCHES: 0 MISSED OPPORTUNITY: 0 LATE IN PQ: 0 UNCOVERED: 0
L1D COMMIT LATE MSHR PREFETCHES: 0
L1D MPKI TOTAL: 2.79535 MSHR LATE: 0.124525 PQ LATE: 0 COMMIT LATE: 0 MISSED OPPORTUNITY: 0 UNCOVERED: 0
L1D PREFETCHES SAME FILL-ORIGIN LEVEL: 4647644 DIFFERENT FILL-ORIGIN LEVEL: 2806522
L1D AVERAGE MISS LATENCY: 117.851 cycles
L1D AVERAGE MISS LATENCY LOAD: 96.5302 cycles
L1D AVERAGE MISS LATENCY PREFETCH: 132.648 cycles
L1D AVERAGE MSHR OCCUPANCY: 2.41507
L1D MSHR FULL: 0.00118657
L1D RQ	ACCESS:   31658105	FORWARD:          0	MERGED:      81621	TO_CACHE:   31576484
L1D WQ	ACCESS:    4021923	FORWARD:          0	MERGED:          0	TO_CACHE:    4021923
L1D PQ	ACCESS:   41737427	FORWARD:          0	MERGED:    8754371	TO_CACHE:   32983056

L1D UNIQUE REGIONS ACCESSED: 0
L1D REGIONS CONFLICTS: 0
L1D Cross Page Prefetch Requests: 23030833
L1D Same Page Prefetch Requests: 29789025
L1D ROI Sum of L1D PQ occupancy: 873776649
L1D PREFETCHES PUSHED FROM L2C: 0
L1I SPEC fills:          0  NON-SPEC fills:          0
L1I Test counter :          0
L1I Leapfrog:          0
L1I MSHR merge:          0
L1I TOTAL     ACCESS:   35662103  HIT:   35662103  MISS:          0  HIT %:        100  MISS %:          0   MPKI: 0
L1I LOAD      TOTAL       ACCESS:   35662103  HIT:   35662103  MISS:          0  HIT %:        100  MISS %:          0   MPKI: 0
L1I LOAD      NON_SPEC    ACCESS:   35662103  HIT:   35662103  MISS:          0  HIT %:        100  MISS %:          0   MPKI: 0
L1I PREFETCH  REQUESTED:          0  ISSUED:          0  USEFUL:          0  USELESS:          0
L1I USEFUL LOAD PREFETCHES:          0 PREFETCH ISSUED TO LOWER LEVEL:          0  ACCURACY: -nan
L1I TIMELY PREFETCHES:          0 LATE PREFETCHES: 0 DROPPED PREFETCHES: 0
L1I COMMIT LATE PREFETCHES: 0 MISSED OPPORTUNITY: 0 LATE IN PQ: 0 UNCOVERED: 0
L1I COMMIT LATE MSHR PREFETCHES: 0
L1I MPKI TOTAL: 0 MSHR LATE: 0 PQ LATE: 0 COMMIT LATE: 0 MISSED OPPORTUNITY: 0 UNCOVERED: 0
L1I PREFETCHES SAME FILL-ORIGIN LEVEL: 0 DIFFERENT FILL-ORIGIN LEVEL: 0
L1I AVERAGE MISS LATENCY: -nan cycles
L1I AVERAGE MISS LATENCY LOAD: -nan cycles
L1I AVERAGE MISS LATENCY PREFETCH: -nan cycles
L1I AVERAGE MSHR OCCUPANCY: 0
L1I MSHR FULL: 0
L1I RQ	ACCESS:   65936962	FORWARD:          0	MERGED:   30274859	TO_CACHE:   35662103

BTB SPEC fills:          0  NON-SPEC fills:          0
BTB Test counter :          0
BTB Leapfrog:          0
BTB MSHR merge:          0
BTB TOTAL     ACCESS:   34960386  HIT:   34960369  MISS:         17  HIT %:        100  MISS %: 4.86265e-05   MPKI: 8.5e-05
BTB BRANCH_DIRECT_JUMP	ACCESS:        138  HIT:        137  MISS:          1
BTB BRANCH_INDIRECT	ACCESS:          0  HIT:          0  MISS:          0
BTB BRANCH_CONDITIONAL	ACCESS:   31422492  HIT:   31422483  MISS:          9
BTB BRANCH_DIRECT_CALL	ACCESS:     884508  HIT:     884506  MISS:          2
BTB BRANCH_INDIRECT_CALL	ACCESS:     884370  HIT:     884369  MISS:          1
BTB BRANCH_RETURN	ACCESS:    1768878  HIT:    1768874  MISS:          4
BTB BRANCH_OTHER ACCESS:          0  HIT:          0  MISS:          0

L2C SPEC fills:          0  NON-SPEC fills:      63168
L2C Test counter :          0
L2C Leapfrog:          0
L2C MSHR merge:        204
L2C TOTAL     ACCESS:   11918068  HIT:    6541465  MISS:    5376603  HIT %:     54.887  MISS %:     45.113   MPKI: 26.883
L2C LOAD      TOTAL       ACCESS:     533867  HIT:      97610  MISS:     436257  HIT %:    18.2836  MISS %:    81.7164   MPKI: 2.18128
L2C LOAD      NON_SPEC    ACCESS:      77619  HIT:      14451  MISS:      63168  HIT %:    18.6179  MISS %:    81.3821   MPKI: 0.31584
L2C LOAD      SPEC        ACCESS:     456248  HIT:      83159  MISS:     373089  HIT %:    18.2267  MISS %:    81.7733   MPKI: 1.86545
L2C PREFETCH  NON_SPEC    ACCESS:    7322817  HIT:    2756327  MISS:    4566490  HIT %:    37.6403  MISS %:    62.3597   MPKI: 22.8325
L2C WRITEBACK NON_SPEC    ACCESS:        137  HIT:        137  MISS:          0  HIT %:        100  MISS %:          0   MPKI: 0
L2C CLEAN_EVICTION NON_SPEC    ACCESS:     397701  HIT:      24947  MISS:     372754  HIT %:     6.2728  MISS %:    93.7272   MPKI: 1.86377
L2C COMMIT LOAD NON_SPEC    ACCESS:        522  HIT:        427  MISS:         95  HIT %:    81.8008  MISS %:    18.1992   MPKI: 0.000475
L2C LOAD TRANSLATION NON_SPEC    ACCESS:        910  HIT:        822  MISS:         88  HIT %:    90.3297  MISS %:    9.67033   MPKI: 0.00044
L2C TRANSLATION FROM L1D PREFETCHER NON_SPEC    ACCESS:    3662114  HIT:    3661195  MISS:        919  HIT %:    99.9749  MISS %:  0.0250948   MPKI: 0.004595
L2C PREFETCH  REQUESTED:          0  ISSUED:          0  USEFUL:      53769  USELESS:    4514416
L2C USEFUL LOAD PREFETCHES:      53769 PREFETCH ISSUED TO LOWER LEVEL:    4566707  ACCURACY: 1.17741
L2C TIMELY PREFETCHES:      53769 LATE PREFETCHES: 204 DROPPED PREFETCHES: 0
L2C COMMIT LATE PREFETCHES: 0 MISSED OPPORTUNITY: 0 LATE IN PQ: 0 UNCOVERED: 0
L2C COMMIT LATE MSHR PREFETCHES: 0
L2C MPKI TOTAL: 2.18128 MSHR LATE: 0.00102 PQ LATE: 0 COMMIT LATE: 0 MISSED OPPORTUNITY: 0 UNCOVERED: 0
L2C PREFETCHES SAME FILL-ORIGIN LEVEL: 698897 DIFFERENT FILL-ORIGIN LEVEL: 0
L2C AVERAGE MISS LATENCY: 127.476 cycles
L2C AVERAGE MISS LATENCY LOAD: 106.024 cycles
L2C AVERAGE MISS LATENCY PREFETCH: 139.92 cycles
L2C AVERAGE MSHR OCCUPANCY: 2.23325
L2C MSHR FULL: 2.8589e-06
L2C RQ	ACCESS:    4197647	FORWARD:          0	MERGED:          0	TO_CACHE:    4197413
L2C WQ	ACCESS:     397838	FORWARD:        234	MERGED:          0	TO_CACHE:     397838
L2C PQ	ACCESS:    7454166	FORWARD:          0	MERGED:         14	TO_CACHE:    7454152

L2C Instructions Evicting Data 0
L2C Translations Evicting Data 1007
L2C Data Evicting Data 4628884
L2C Instructions Evicting Instructions 0
L2C Translations Evicting Instructions 0
L2C Data Evicting Instructions 0
L2C Instructions Evicting Translations 0
L2C Translations Evicting Translations 0
L2C Data Evicting Translations 869
L2C Dense regions hint from L2: 0
PSCL5 SPEC fills:          0  NON-SPEC fills:          0
PSCL5 Test counter :          0
PSCL5 Leapfrog:          0
PSCL5 MSHR merge:          0
PSCL5 TOTAL     ACCESS:          0  HIT:          0  MISS:          0  HIT %:       -nan  MISS %:       -nan   MPKI: 0
PSCL5 PREFETCH  REQUESTED:          0  ISSUED:          0  USEFUL:          0  USELESS:          0
PSCL5 USEFUL LOAD PREFETCHES:          0 PREFETCH ISSUED TO LOWER LEVEL:          0  ACCURACY: -nan
PSCL5 TIMELY PREFETCHES:          0 LATE PREFETCHES: 0 DROPPED PREFETCHES: 0
PSCL5 COMMIT LATE PREFETCHES: 0 MISSED OPPORTUNITY: 0 LATE IN PQ: 0 UNCOVERED: 0
PSCL5 COMMIT LATE MSHR PREFETCHES: 0
PSCL5 MPKI TOTAL: 0 MSHR LATE: 0 PQ LATE: 0 COMMIT LATE: 0 MISSED OPPORTUNITY: 0 UNCOVERED: 0
PSCL5 PREFETCHES SAME FILL-ORIGIN LEVEL: 0 DIFFERENT FILL-ORIGIN LEVEL: 0

PSCL4 SPEC fills:          0  NON-SPEC fills:          0
PSCL4 Test counter :          0
PSCL4 Leapfrog:          0
PSCL4 MSHR merge:          0
PSCL4 TOTAL     ACCESS:          0  HIT:          0  MISS:          0  HIT %:       -nan  MISS %:       -nan   MPKI: 0
PSCL4 PREFETCH  REQUESTED:          0  ISSUED:          0  USEFUL:          0  USELESS:          0
PSCL4 USEFUL LOAD PREFETCHES:          0 PREFETCH ISSUED TO LOWER LEVEL:          0  ACCURACY: -nan
PSCL4 TIMELY PREFETCHES:          0 LATE PREFETCHES: 0 DROPPED PREFETCHES: 0
PSCL4 COMMIT LATE PREFETCHES: 0 MISSED OPPORTUNITY: 0 LATE IN PQ: 0 UNCOVERED: 0
PSCL4 COMMIT LATE MSHR PREFETCHES: 0
PSCL4 MPKI TOTAL: 0 MSHR LATE: 0 PQ LATE: 0 COMMIT LATE: 0 MISSED OPPORTUNITY: 0 UNCOVERED: 0
PSCL4 PREFETCHES SAME FILL-ORIGIN LEVEL: 0 DIFFERENT FILL-ORIGIN LEVEL: 0

PSCL3 SPEC fills:          0  NON-SPEC fills:          0
PSCL3 Test counter :          0
PSCL3 Leapfrog:          0
PSCL3 MSHR merge:          0
PSCL3 TOTAL     ACCESS:          0  HIT:          0  MISS:          0  HIT %:       -nan  MISS %:       -nan   MPKI: 0
PSCL3 PREFETCH  REQUESTED:          0  ISSUED:          0  USEFUL:          0  USELESS:          0
PSCL3 USEFUL LOAD PREFETCHES:          0 PREFETCH ISSUED TO LOWER LEVEL:          0  ACCURACY: -nan
PSCL3 TIMELY PREFETCHES:          0 LATE PREFETCHES: 0 DROPPED PREFETCHES: 0
PSCL3 COMMIT LATE PREFETCHES: 0 MISSED OPPORTUNITY: 0 LATE IN PQ: 0 UNCOVERED: 0
PSCL3 COMMIT LATE MSHR PREFETCHES: 0
PSCL3 MPKI TOTAL: 0 MSHR LATE: 0 PQ LATE: 0 COMMIT LATE: 0 MISSED OPPORTUNITY: 0 UNCOVERED: 0
PSCL3 PREFETCHES SAME FILL-ORIGIN LEVEL: 0 DIFFERENT FILL-ORIGIN LEVEL: 0

PSCL2 SPEC fills:          0  NON-SPEC fills:          0
PSCL2 Test counter :          0
PSCL2 Leapfrog:          0
PSCL2 MSHR merge:          0
PSCL2 TOTAL     ACCESS:          0  HIT:          0  MISS:          0  HIT %:       -nan  MISS %:       -nan   MPKI: 0
PSCL2 PREFETCH  REQUESTED:          0  ISSUED:          0  USEFUL:          0  USELESS:          0
PSCL2 USEFUL LOAD PREFETCHES:          0 PREFETCH ISSUED TO LOWER LEVEL:          0  ACCURACY: -nan
PSCL2 TIMELY PREFETCHES:          0 LATE PREFETCHES: 0 DROPPED PREFETCHES: 0
PSCL2 COMMIT LATE PREFETCHES: 0 MISSED OPPORTUNITY: 0 LATE IN PQ: 0 UNCOVERED: 0
PSCL2 COMMIT LATE MSHR PREFETCHES: 0
PSCL2 MPKI TOTAL: 0 MSHR LATE: 0 PQ LATE: 0 COMMIT LATE: 0 MISSED OPPORTUNITY: 0 UNCOVERED: 0
PSCL2 PREFETCHES SAME FILL-ORIGIN LEVEL: 0 DIFFERENT FILL-ORIGIN LEVEL: 0

LLC SPEC fills:          0  NON-SPEC fills:      34363
LLC Test counter :          0
LLC Leapfrog:          0
LLC MSHR merge:          0
LLC TOTAL     ACCESS:    5400693  HIT:    1215654  MISS:    4185039  HIT %:    22.5092  MISS %:    77.4908   MPKI: 20.9252
LLC LOAD      TOTAL       ACCESS:     436050  HIT:     149639  MISS:     286411  HIT %:    34.3169  MISS %:    65.6831   MPKI: 1.43206
LLC LOAD      NON_SPEC    ACCESS:      63127  HIT:      28764  MISS:      34363  HIT %:    45.5653  MISS %:    54.4347   MPKI: 0.171815
LLC LOAD      SPEC        ACCESS:     372923  HIT:     120875  MISS:     252048  HIT %:    32.4129  MISS %:    67.5871   MPKI: 1.26024
LLC PREFETCH  NON_SPEC    ACCESS:    4566695  HIT:     941159  MISS:    3625536  HIT %:    20.6092  MISS %:    79.3908   MPKI: 18.1277
LLC WRITEBACK NON_SPEC    ACCESS:        125  HIT:        125  MISS:          0  HIT %:        100  MISS %:          0   MPKI: 0
LLC CLEAN_EVICTION NON_SPEC    ACCESS:     396721  HIT:     124447  MISS:     272274  HIT %:    31.3689  MISS %:    68.6311   MPKI: 1.36137
LLC COMMIT LOAD NON_SPEC    ACCESS:         95  HIT:         25  MISS:         70  HIT %:    26.3158  MISS %:    73.6842   MPKI: 0.00035
LLC LOAD TRANSLATION NON_SPEC    ACCESS:         88  HIT:         14  MISS:         74  HIT %:    15.9091  MISS %:    84.0909   MPKI: 0.00037
LLC TRANSLATION FROM L1D PREFETCHER NON_SPEC    ACCESS:        919  HIT:        245  MISS:        674  HIT %:    26.6594  MISS %:    73.3406   MPKI: 0.00337
LLC PREFETCH  REQUESTED:          0  ISSUED:          0  USEFUL:      90000  USELESS:    3540771
LLC USEFUL LOAD PREFETCHES:      90000 PREFETCH ISSUED TO LOWER LEVEL:    3625548  ACCURACY: 2.48238
LLC TIMELY PREFETCHES:      90000 LATE PREFETCHES: 0 DROPPED PREFETCHES: 0
LLC COMMIT LATE PREFETCHES: 0 MISSED OPPORTUNITY: 0 LATE IN PQ: 0 UNCOVERED: 0
LLC COMMIT LATE MSHR PREFETCHES: 0
LLC MPKI TOTAL: 1.43206 MSHR LATE: 0 PQ LATE: 0 COMMIT LATE: 0 MISSED OPPORTUNITY: 0 UNCOVERED: 0
LLC PREFETCHES SAME FILL-ORIGIN LEVEL: 0 DIFFERENT FILL-ORIGIN LEVEL: 0
LLC AVERAGE MISS LATENCY: 128.702 cycles
LLC AVERAGE MISS LATENCY LOAD: 127.478 cycles
LLC AVERAGE MISS LATENCY PREFETCH: 138.45 cycles
LLC AVERAGE MSHR OCCUPANCY: 1.02402
LLC MSHR FULL: 0
LLC RQ	ACCESS:     437155	FORWARD:          0	MERGED:          0	TO_CACHE:     437152
LLC WQ	ACCESS:     396846	FORWARD:          3	MERGED:          0	TO_CACHE:     396846
LLC PQ	ACCESS:    4566707	FORWARD:          0	MERGED:          0	TO_CACHE:    4566707

LLC Dense regions hint to LLC: 0

RAW hits: 6896
Loads Generated: 59779911
Loads sent to L1D: 59773015
Stores Generated: 3538724
Stores sent to L1D: 3538725
Major fault: 0 Minor fault: 1485
Allocated PAGES: 1485
Total Load insts: 74718775
Total Non-spec loads: 8080757
Percentage of speculative loads: 89.1851

LeapFrogging counter: 1273
Commit hits: 23348103 miss: 28690392
Commit hit %: 44.867 miss %: 55.133
Commits not translated: 0
Loads retired: 559006
Stores retired: 3538725
Cache fills: 559006
L1D response latency: 96.5302 cycles
Load retirement latency: 118.133 cycles
OOO test counter: 0
Discarded buffer inserts: 23348103 hits: 14637 hit %: 0.0626903
Filter prediction accuracy: 99.9077
LATENCY_FILL: 96.227 558262

DRAM Statistics
 CHANNEL 0
 RQ ROW_BUFFER_HIT:    2312916  ROW_BUFFER_MISS:    1599792
 DBUS_CONGESTED:      19373
 WQ ROW_BUFFER_HIT:     160531  ROW_BUFFER_MISS:     193752  FULL:          0

 AVG_CONGESTED_CYCLE: 4
 All warmup complete: 2
Channel 0 Bank busy for read cycles: 0
Channel 0 Bank busy for write cycles: 0
Channel 0
Rank 0
0banks busy for read cycles: 56175713
0banks busy for write cycles: 22075
1banks busy for read cycles: 45635528
1banks busy for write cycles: 4555878
2banks busy for read cycles: 41710819
2banks busy for write cycles: 2889688
3banks busy for read cycles: 24076826
3banks busy for write cycles: 2618431
4banks busy for read cycles: 16551117
4banks busy for write cycles: 12398406
5banks busy for read cycles: 8578632
5banks busy for write cycles: 3377840
6banks busy for read cycles: 4778344
6banks busy for write cycles: 2488592
7banks busy for read cycles: 1709234
7banks busy for write cycles: 2408775
8banks busy for read cycles: 601044
8banks busy for write cycles: 4327614

CPU 0 Branch Prediction Accuracy: 99.9949% MPKI: 0.01412 Average ROB Occupancy at Mispredict: 96.7259
Branch types
NOT_BRANCH: 144641801 72.3209%
BRANCH_DIRECT_JUMP: 138 6.9e-05%
BRANCH_INDIRECT: 0 0%
BRANCH_CONDITIONAL: 51820106 25.9101%
BRANCH_DIRECT_CALL: 884508 0.442254%
BRANCH_INDIRECT_CALL: 884370 0.442185%
BRANCH_RETURN: 1768878 0.884439%
BRANCH_OTHER: 0 0%

DRAM PAGES: 1048576
Allocated PAGES: 1485
