
*** ChampSim Multicore Out-of-Order Simulator ***

Warmup Instructions: 50000000
Simulation Instructions: 200000000
Number of CPUs: 1
LLC sets: 2048
LLC ways: 16
L0D sets: 16
L0D ways: 2
ROB size: 352
LQ size: 128
SQ size: 72
Secure Berti: OFF
Berti: OFF
Berti Fill: OFF
On commit prefetching: OFF
Hit-based filter: ON
Time-guarding: ON
Free-slotting: ON
Leap-frogging: ON
Train prefetcher on L0D bypass: OFF
No translation penalty for prefetchers: OFF
Prefetch to L0D only: OFF
Prefetch to L1D only: OFF
Clean evictions: ON
Commit loads: ON
Commit write: ON
Fill commit loads to L2C, LLC: ON
DRAM IO FREQUENCY: 6400
ROB SIZE: 352
Off-chip DRAM Size: 4096 MB Channels: 1 Width: 64-bit Data Rate: 6400 MT/s
CPU 0 runs /home/sumon/secure_berti/GhostMinion/../../traces/spec/623.xalancbmk_s-165B.champsimtrace.xz
.xz
BTB has LRU replacement policy
ITLB has LRU replacement policy
DTLB has LRU replacement policy
STLB has LRU replacement policy
L1I has LRU replacement policy
L0D has LRU replacement policy
History Sets: 8
History Ways: 16
BERTI Size: 16
BERTI Stride Size: 16
L1D has LRU replacement policy
L2C has LRU replacement policy
LLC has LRU replacement policy
Heartbeat CPU 0 instructions: 10000000 cycles: 3430954 heartbeat IPC: 2.91464 cumulative IPC: 2.91464 (Simulation time: 0 hr 0 min 32 sec) 
Heartbeat CPU 0 instructions: 20000001 cycles: 6853291 heartbeat IPC: 2.92198 cumulative IPC: 2.91831 (Simulation time: 0 hr 1 min 3 sec) 
Heartbeat CPU 0 instructions: 30000000 cycles: 10253760 heartbeat IPC: 2.94077 cumulative IPC: 2.92576 (Simulation time: 0 hr 1 min 34 sec) 
Heartbeat CPU 0 instructions: 40000003 cycles: 13668906 heartbeat IPC: 2.92813 cumulative IPC: 2.92635 (Simulation time: 0 hr 2 min 6 sec) 
Heartbeat CPU 0 instructions: 50000001 cycles: 17097357 heartbeat IPC: 2.91677 cumulative IPC: 2.92443 (Simulation time: 0 hr 2 min 38 sec) 

Warmup complete CPU 0 instructions: 50000001 cycles: 17097357 (Simulation time: 0 hr 2 min 38 sec) 

Heartbeat CPU 0 instructions: 60000003 cycles: 28539911 heartbeat IPC: 0.873931 cumulative IPC: 0.873931 (Simulation time: 0 hr 3 min 16 sec) 
Heartbeat CPU 0 instructions: 70000001 cycles: 39984860 heartbeat IPC: 0.873748 cumulative IPC: 0.873839 (Simulation time: 0 hr 3 min 53 sec) 
Heartbeat CPU 0 instructions: 80000001 cycles: 51427320 heartbeat IPC: 0.873938 cumulative IPC: 0.873872 (Simulation time: 0 hr 4 min 31 sec) 
Heartbeat CPU 0 instructions: 90000002 cycles: 62873688 heartbeat IPC: 0.87364 cumulative IPC: 0.873814 (Simulation time: 0 hr 5 min 8 sec) 
Heartbeat CPU 0 instructions: 100000001 cycles: 74313065 heartbeat IPC: 0.874173 cumulative IPC: 0.873886 (Simulation time: 0 hr 5 min 44 sec) 
Heartbeat CPU 0 instructions: 110000000 cycles: 85770454 heartbeat IPC: 0.872799 cumulative IPC: 0.873705 (Simulation time: 0 hr 6 min 22 sec) 
Heartbeat CPU 0 instructions: 120000000 cycles: 97213093 heartbeat IPC: 0.873924 cumulative IPC: 0.873736 (Simulation time: 0 hr 6 min 59 sec) 
Heartbeat CPU 0 instructions: 130000002 cycles: 108657095 heartbeat IPC: 0.87382 cumulative IPC: 0.873747 (Simulation time: 0 hr 7 min 35 sec) 
Heartbeat CPU 0 instructions: 140000002 cycles: 120100212 heartbeat IPC: 0.873888 cumulative IPC: 0.873762 (Simulation time: 0 hr 8 min 12 sec) 
Heartbeat CPU 0 instructions: 150000002 cycles: 131541675 heartbeat IPC: 0.874014 cumulative IPC: 0.873787 (Simulation time: 0 hr 8 min 48 sec) 
Heartbeat CPU 0 instructions: 160000000 cycles: 142991578 heartbeat IPC: 0.87337 cumulative IPC: 0.873749 (Simulation time: 0 hr 9 min 25 sec) 
Heartbeat CPU 0 instructions: 170000002 cycles: 154437518 heartbeat IPC: 0.873672 cumulative IPC: 0.873743 (Simulation time: 0 hr 10 min 2 sec) 
Heartbeat CPU 0 instructions: 180000000 cycles: 165881074 heartbeat IPC: 0.873854 cumulative IPC: 0.873752 (Simulation time: 0 hr 10 min 38 sec) 
Heartbeat CPU 0 instructions: 190000002 cycles: 177322191 heartbeat IPC: 0.874041 cumulative IPC: 0.873772 (Simulation time: 0 hr 11 min 15 sec) 
Heartbeat CPU 0 instructions: 200000002 cycles: 188766196 heartbeat IPC: 0.87382 cumulative IPC: 0.873775 (Simulation time: 0 hr 11 min 52 sec) 
Heartbeat CPU 0 instructions: 210000000 cycles: 200212075 heartbeat IPC: 0.873677 cumulative IPC: 0.873769 (Simulation time: 0 hr 12 min 28 sec) 
Heartbeat CPU 0 instructions: 220000000 cycles: 211890491 heartbeat IPC: 0.856281 cumulative IPC: 0.872721 (Simulation time: 0 hr 13 min 4 sec) 
Heartbeat CPU 0 instructions: 230000001 cycles: 223160489 heartbeat IPC: 0.887312 cumulative IPC: 0.873519 (Simulation time: 0 hr 13 min 39 sec) 
Heartbeat CPU 0 instructions: 240000002 cycles: 234233949 heartbeat IPC: 0.90306 cumulative IPC: 0.875025 (Simulation time: 0 hr 14 min 13 sec) 
Heartbeat CPU 0 instructions: 250000002 cycles: 245244299 heartbeat IPC: 0.908236 cumulative IPC: 0.876628 (Simulation time: 0 hr 14 min 49 sec) 
Finished CPU 0 instructions: 200000001 cycles: 228146942 cumulative IPC: 0.876628 (Simulation time: 0 hr 14 min 49 sec) 
 Instruction ID: 250000052

ChampSim completed all CPUs

Region of Interest Statistics

CPU 0 cumulative IPC: 0.876628 instructions: 200000001 cycles: 228146942
ITLB SPEC fills:          0  NON-SPEC fills:          0
ITLB Test counter :          0
ITLB Leapfrog:          0
ITLB MSHR merge:          0
ITLB TOTAL     ACCESS:   28386726  HIT:   28386715  MISS:         11  HIT %:        100  MISS %: 3.87505e-05   MPKI: 5.5e-05
ITLB LOAD TRANSLATION NON_SPEC    ACCESS:   28386726  HIT:   28386715  MISS:         11  HIT %:        100  MISS %: 3.87505e-05   MPKI: 5.5e-05
ITLB PREFETCH  REQUESTED:          0  ISSUED:          0  USEFUL:          0  USELESS:          0
ITLB USEFUL LOAD PREFETCHES:          0 PREFETCH ISSUED TO LOWER LEVEL:          0  ACCURACY: -nan
ITLB TIMELY PREFETCHES:          0 LATE PREFETCHES: 0 DROPPED PREFETCHES: 0
ITLB COMMIT LATE PREFETCHES: 0 MISSED OPPORTUNITY: 0 LATE IN PQ: 0 UNCOVERED: 0
ITLB COMMIT LATE MSHR PREFETCHES: 0
ITLB MPKI TOTAL: 0 MSHR LATE: 0 PQ LATE: 0 COMMIT LATE: 0 MISSED OPPORTUNITY: 0 UNCOVERED: 0
ITLB PREFETCHES SAME FILL-ORIGIN LEVEL: 0 DIFFERENT FILL-ORIGIN LEVEL: 0
ITLB AVERAGE MISS LATENCY: 353.909 cycles
ITLB AVERAGE MISS LATENCY LOAD: -nan cycles
ITLB AVERAGE MISS LATENCY PREFETCH: -nan cycles
ITLB AVERAGE MSHR OCCUPANCY: 0
ITLB MSHR FULL: 0
ITLB RQ	ACCESS:   37105844	FORWARD:          0	MERGED:    8719119	TO_CACHE:   28386725

DTLB SPEC fills:          0  NON-SPEC fills:          0
DTLB Test counter :          0
DTLB Leapfrog:          0
DTLB MSHR merge:          0
DTLB TOTAL     ACCESS:   42333662  HIT:   42267956  MISS:      65706  HIT %:    99.8448  MISS %:    0.15521   MPKI: 0.32853
DTLB LOAD TRANSLATION NON_SPEC    ACCESS:   42333662  HIT:   42267956  MISS:      65706  HIT %:    99.8448  MISS %:    0.15521   MPKI: 0.32853
DTLB PREFETCH  REQUESTED:          0  ISSUED:          0  USEFUL:          0  USELESS:          0
DTLB USEFUL LOAD PREFETCHES:          0 PREFETCH ISSUED TO LOWER LEVEL:          0  ACCURACY: -nan
DTLB TIMELY PREFETCHES:          0 LATE PREFETCHES: 0 DROPPED PREFETCHES: 0
DTLB COMMIT LATE PREFETCHES: 0 MISSED OPPORTUNITY: 0 LATE IN PQ: 0 UNCOVERED: 0
DTLB COMMIT LATE MSHR PREFETCHES: 0
DTLB MPKI TOTAL: 0 MSHR LATE: 0 PQ LATE: 0 COMMIT LATE: 0 MISSED OPPORTUNITY: 0 UNCOVERED: 0
DTLB PREFETCHES SAME FILL-ORIGIN LEVEL: 0 DIFFERENT FILL-ORIGIN LEVEL: 0
DTLB AVERAGE MISS LATENCY: 11.7379 cycles
DTLB AVERAGE MISS LATENCY LOAD: -nan cycles
DTLB AVERAGE MISS LATENCY PREFETCH: -nan cycles
DTLB AVERAGE MSHR OCCUPANCY: 0.000745479
DTLB MSHR FULL: 0
DTLB RQ	ACCESS:   45584086	FORWARD:          0	MERGED:    3250204	TO_CACHE:   42333882

STLB SPEC fills:          0  NON-SPEC fills:          0
STLB Test counter :          0
STLB Leapfrog:          0
STLB MSHR merge:          0
STLB TOTAL     ACCESS:    6546796  HIT:    6546049  MISS:        747  HIT %:    99.9886  MISS %:  0.0114102   MPKI: 0.003735
STLB LOAD TRANSLATION NON_SPEC    ACCESS:      65717  HIT:      64970  MISS:        747  HIT %:    98.8633  MISS %:    1.13669   MPKI: 0.003735
STLB TRANSLATION FROM L1D PREFETCHER NON_SPEC    ACCESS:    6481079  HIT:    6481079  MISS:          0  HIT %:        100  MISS %:          0   MPKI: 0
STLB PREFETCH  REQUESTED:          0  ISSUED:          0  USEFUL:          0  USELESS:          0
STLB USEFUL LOAD PREFETCHES:          0 PREFETCH ISSUED TO LOWER LEVEL:          0  ACCURACY: -nan
STLB TIMELY PREFETCHES:          0 LATE PREFETCHES: 24 DROPPED PREFETCHES: 498092
STLB COMMIT LATE PREFETCHES: 0 MISSED OPPORTUNITY: 0 LATE IN PQ: 0 UNCOVERED: 0
STLB COMMIT LATE MSHR PREFETCHES: 0
STLB MPKI TOTAL: 0 MSHR LATE: 0.00012 PQ LATE: 0 COMMIT LATE: 0 MISSED OPPORTUNITY: 0 UNCOVERED: 0
STLB PREFETCHES SAME FILL-ORIGIN LEVEL: 0 DIFFERENT FILL-ORIGIN LEVEL: 0
STLB AVERAGE MISS LATENCY: 270.538 cycles
STLB AVERAGE MISS LATENCY LOAD: -nan cycles
STLB AVERAGE MISS LATENCY PREFETCH: -nan cycles
STLB AVERAGE MSHR OCCUPANCY: 0.261365
STLB MSHR FULL: 0
STLB RQ	ACCESS:   24318768	FORWARD:          0	MERGED:   17270066	TO_CACHE:    7048702

STLB Hit, L1D data hit: 0
STLB Hit, L2C data hit: 0
STLB Hit, LLC data hit: 0
STLB Hit, LLC data miss: 0
STLB STLB hints to L2: 0
L0D SPEC fills:   28992682  NON-SPEC fills:          0
L0D TimeGuard Request with older TS:     115089 Restricted eviction:      35546 read:       5356
L0D Test counter :          0
L0D Leapfrog:          0
L0D MSHR merge:    1472819
L0D TOTAL     ACCESS:   41144173  HIT:    6036634  MISS:   35107539  HIT %:    14.6719  MISS %:    85.3281   MPKI: 175.538
L0D LOAD      TOTAL       ACCESS:   41144173  HIT:    6036634  MISS:   35107539  HIT %:    14.6719  MISS %:    85.3281   MPKI: 175.538
L0D LOAD      NON_SPEC    ACCESS:    6264825  HIT:     185514  MISS:    6079311  HIT %:     2.9612  MISS %:    97.0388   MPKI: 30.3966
L0D LOAD      SPEC        ACCESS:   34879348  HIT:    5851120  MISS:   29028228  HIT %:    16.7753  MISS %:    83.2247   MPKI: 145.141
L0D PREFETCH  REQUESTED:          0  ISSUED:          0  USEFUL:          0  USELESS:          0
L0D USEFUL LOAD PREFETCHES:          0 PREFETCH ISSUED TO LOWER LEVEL:          0  ACCURACY: -nan
L0D TIMELY PREFETCHES:          0 LATE PREFETCHES: 0 DROPPED PREFETCHES: 0
L0D COMMIT LATE PREFETCHES: 0 MISSED OPPORTUNITY: 0 LATE IN PQ: 0 UNCOVERED: 0
L0D COMMIT LATE MSHR PREFETCHES: 0
L0D MPKI TOTAL: 182.902 MSHR LATE: 0 PQ LATE: 0 COMMIT LATE: 0 MISSED OPPORTUNITY: 0 UNCOVERED: 0
L0D PREFETCHES SAME FILL-ORIGIN LEVEL: 0 DIFFERENT FILL-ORIGIN LEVEL: 0
L0D AVERAGE MISS LATENCY: 5.71703 cycles
L0D AVERAGE MISS LATENCY LOAD: 5.71703 cycles
L0D AVERAGE MISS LATENCY PREFETCH: -nan cycles
L0D AVERAGE MSHR OCCUPANCY: 0.511758
L0D MSHR FULL: 0
L0D RQ	ACCESS:   58954098	FORWARD:          0	MERGED:   16337107	TO_CACHE:   42616991
L0D WQ	ACCESS:    2967095	FORWARD:          0	MERGED:          0	TO_CACHE:    2967095

L1D SPEC fills:          0  NON-SPEC fills:     107435
L1D Test counter :          0
L1D Leapfrog:          0
L1D MSHR merge:        635
L1D TOTAL     ACCESS:   59595186  HIT:   54846700  MISS:    4748486  HIT %:    92.0321  MISS %:     7.9679   MPKI: 23.7424
L1D LOAD      TOTAL       ACCESS:   35107469  HIT:   34505612  MISS:     601857  HIT %:    98.2857  MISS %:    1.71433   MPKI: 3.00928
L1D LOAD      NON_SPEC    ACCESS:    6079300  HIT:    5971865  MISS:     107435  HIT %:    98.2328  MISS %:    1.76723   MPKI: 0.537175
L1D LOAD      SPEC        ACCESS:   29028169  HIT:   28533747  MISS:     494422  HIT %:    98.2968  MISS %:    1.70325   MPKI: 2.47211
L1D RFO       NON_SPEC    ACCESS:    2958530  HIT:    2955421  MISS:       3109  HIT %:    99.8949  MISS %:   0.105086   MPKI: 0.015545
L1D PREFETCH  NON_SPEC    ACCESS:   20700928  HIT:   17050226  MISS:    3650702  HIT %:    82.3645  MISS %:    17.6355   MPKI: 18.2535
L1D COMMIT LOAD NON_SPEC    ACCESS:     325213  HIT:     324661  MISS:        552  HIT %:    99.8303  MISS %:   0.169735   MPKI: 0.00276
L1D COMMIT WRITE NON_SPEC    ACCESS:     503046  HIT:      10780  MISS:     492266  HIT %:    2.14295  MISS %:    97.8571   MPKI: 2.46133
L1D PREFETCH  REQUESTED:   53040596  ISSUED:   29299331  USEFUL:    3418913  USELESS:     231801
L1D USEFUL LOAD PREFETCHES:    3418913 PREFETCH ISSUED TO LOWER LEVEL:    6515303  ACCURACY: 52.4751
L1D TIMELY PREFETCHES:    3418913 LATE PREFETCHES: 566 DROPPED PREFETCHES: 516559
L1D COMMIT LATE PREFETCHES: 0 MISSED OPPORTUNITY: 0 LATE IN PQ: 0 UNCOVERED: 0
L1D COMMIT LATE MSHR PREFETCHES: 0
L1D MPKI TOTAL: 3.00963 MSHR LATE: 0.00283 PQ LATE: 0 COMMIT LATE: 0 MISSED OPPORTUNITY: 0 UNCOVERED: 0
L1D PREFETCHES SAME FILL-ORIGIN LEVEL: 3651306 DIFFERENT FILL-ORIGIN LEVEL: 2863997
L1D AVERAGE MISS LATENCY: 69.9865 cycles
L1D AVERAGE MISS LATENCY LOAD: 38.1971 cycles
L1D AVERAGE MISS LATENCY PREFETCH: 84.6694 cycles
L1D AVERAGE MSHR OCCUPANCY: 1.17438
L1D MSHR FULL: 5.98003e-05
L1D RQ	ACCESS:   35683022	FORWARD:          0	MERGED:     250009	TO_CACHE:   35433013
L1D WQ	ACCESS:    3470141	FORWARD:          0	MERGED:        520	TO_CACHE:    3469621
L1D PQ	ACCESS:   29299331	FORWARD:          0	MERGED:    5046280	TO_CACHE:   24253051

L1D UNIQUE REGIONS ACCESSED: 0
L1D REGIONS CONFLICTS: 0
L1D Cross Page Prefetch Requests: 20070655
L1D Same Page Prefetch Requests: 17841857
L1D ROI Sum of L1D PQ occupancy: 732045748
L1D PREFETCHES PUSHED FROM L2C: 0
L1I SPEC fills:          0  NON-SPEC fills:          0
L1I Test counter :          0
L1I Leapfrog:          0
L1I MSHR merge:          8
L1I TOTAL     ACCESS:   37105835  HIT:   37105743  MISS:         92  HIT %:    99.9998  MISS %: 0.000247939   MPKI: 0.00046
L1I LOAD      TOTAL       ACCESS:   37105835  HIT:   37105743  MISS:         92  HIT %:    99.9998  MISS %: 0.000247939   MPKI: 0.00046
L1I LOAD      NON_SPEC    ACCESS:   37105835  HIT:   37105743  MISS:         92  HIT %:    99.9998  MISS %: 0.000247939   MPKI: 0.00046
L1I PREFETCH  REQUESTED:          0  ISSUED:          0  USEFUL:          0  USELESS:          0
L1I USEFUL LOAD PREFETCHES:          0 PREFETCH ISSUED TO LOWER LEVEL:          0  ACCURACY: -nan
L1I TIMELY PREFETCHES:          0 LATE PREFETCHES: 0 DROPPED PREFETCHES: 0
L1I COMMIT LATE PREFETCHES: 0 MISSED OPPORTUNITY: 0 LATE IN PQ: 0 UNCOVERED: 0
L1I COMMIT LATE MSHR PREFETCHES: 0
L1I MPKI TOTAL: 0.0005 MSHR LATE: 0 PQ LATE: 0 COMMIT LATE: 0 MISSED OPPORTUNITY: 0 UNCOVERED: 0
L1I PREFETCHES SAME FILL-ORIGIN LEVEL: 0 DIFFERENT FILL-ORIGIN LEVEL: 0
L1I AVERAGE MISS LATENCY: 179.978 cycles
L1I AVERAGE MISS LATENCY LOAD: 179.978 cycles
L1I AVERAGE MISS LATENCY PREFETCH: -nan cycles
L1I AVERAGE MSHR OCCUPANCY: 9.43248e-07
L1I MSHR FULL: 0
L1I RQ	ACCESS:   73297873	FORWARD:          0	MERGED:   36192029	TO_CACHE:   37105844

BTB SPEC fills:          0  NON-SPEC fills:          0
BTB Test counter :          0
BTB Leapfrog:          0
BTB MSHR merge:          0
BTB TOTAL     ACCESS:   32869649  HIT:   32861232  MISS:       8417  HIT %:    99.9744  MISS %:  0.0256072   MPKI: 0.042085
BTB BRANCH_DIRECT_JUMP	ACCESS:      10018  HIT:       9991  MISS:         27
BTB BRANCH_INDIRECT	ACCESS:          0  HIT:          0  MISS:          0
BTB BRANCH_CONDITIONAL	ACCESS:   30064978  HIT:   30064867  MISS:        111
BTB BRANCH_DIRECT_CALL	ACCESS:     706558  HIT:     706534  MISS:         24
BTB BRANCH_INDIRECT_CALL	ACCESS:     690769  HIT:     690752  MISS:         17
BTB BRANCH_RETURN	ACCESS:    1397326  HIT:    1389088  MISS:       8238
BTB BRANCH_OTHER ACCESS:          0  HIT:          0  MISS:          0

L2C SPEC fills:          0  NON-SPEC fills:      33537
L2C Test counter :          0
L2C Leapfrog:          0
L2C MSHR merge:       1110
L2C TOTAL     ACCESS:    9749265  HIT:    6111412  MISS:    3637853  HIT %:    62.6859  MISS %:    37.3141   MPKI: 18.1893
L2C LOAD      TOTAL       ACCESS:     601237  HIT:     399761  MISS:     201476  HIT %:    66.4898  MISS %:    33.5102   MPKI: 1.00738
L2C LOAD      NON_SPEC    ACCESS:     107411  HIT:      73782  MISS:      33629  HIT %:    68.6913  MISS %:    31.3087   MPKI: 0.168145
L2C LOAD      SPEC        ACCESS:     493826  HIT:     325979  MISS:     167847  HIT %:    66.0109  MISS %:    33.9891   MPKI: 0.839235
L2C RFO       NON_SPEC    ACCESS:       3077  HIT:       1931  MISS:       1146  HIT %:    62.7559  MISS %:    37.2441   MPKI: 0.00573
L2C PREFETCH  NON_SPEC    ACCESS:    6465755  HIT:    3199593  MISS:    3266162  HIT %:    49.4852  MISS %:    50.5148   MPKI: 16.3308
L2C WRITEBACK NON_SPEC    ACCESS:       7576  HIT:       7576  MISS:          0  HIT %:        100  MISS %:          0   MPKI: 0
L2C CLEAN_EVICTION NON_SPEC    ACCESS:     176765  HIT:       9001  MISS:     167764  HIT %:    5.09207  MISS %:    94.9079   MPKI: 0.83882
L2C COMMIT LOAD NON_SPEC    ACCESS:        552  HIT:        438  MISS:        114  HIT %:    79.3478  MISS %:    20.6522   MPKI: 0.00057
L2C LOAD TRANSLATION NON_SPEC    ACCESS:       3725  HIT:       3475  MISS:        250  HIT %:    93.2886  MISS %:    6.71141   MPKI: 0.00125
L2C TRANSLATION FROM L1D PREFETCHER NON_SPEC    ACCESS:    2490578  HIT:    2489637  MISS:        941  HIT %:    99.9622  MISS %:  0.0377824   MPKI: 0.004705
L2C PREFETCH  REQUESTED:          0  ISSUED:          0  USEFUL:     300532  USELESS:    2971280
L2C USEFUL LOAD PREFETCHES:     300532 PREFETCH ISSUED TO LOWER LEVEL:    3267282  ACCURACY: 9.19823
L2C TIMELY PREFETCHES:     300532 LATE PREFETCHES: 1120 DROPPED PREFETCHES: 0
L2C COMMIT LATE PREFETCHES: 0 MISSED OPPORTUNITY: 0 LATE IN PQ: 0 UNCOVERED: 0
L2C COMMIT LATE MSHR PREFETCHES: 0
L2C MPKI TOTAL: 1.00738 MSHR LATE: 0.0056 PQ LATE: 0 COMMIT LATE: 0 MISSED OPPORTUNITY: 0 UNCOVERED: 0
L2C PREFETCHES SAME FILL-ORIGIN LEVEL: 1302178 DIFFERENT FILL-ORIGIN LEVEL: 0
L2C AVERAGE MISS LATENCY: 117.508 cycles
L2C AVERAGE MISS LATENCY LOAD: 78.7203 cycles
L2C AVERAGE MISS LATENCY PREFETCH: 125.889 cycles
L2C AVERAGE MSHR OCCUPANCY: 1.65038
L2C MSHR FULL: 0.000129051
L2C RQ	ACCESS:    3099315	FORWARD:          0	MERGED:          0	TO_CACHE:    3099169
L2C WQ	ACCESS:     184341	FORWARD:        147	MERGED:          0	TO_CACHE:     184341
L2C PQ	ACCESS:    6515300	FORWARD:          0	MERGED:         35	TO_CACHE:    6515264

L2C Instructions Evicting Data 92
L2C Translations Evicting Data 1191
L2C Data Evicting Data 3299914
L2C Instructions Evicting Instructions 0
L2C Translations Evicting Instructions 0
L2C Data Evicting Instructions 41
L2C Instructions Evicting Translations 0
L2C Translations Evicting Translations 0
L2C Data Evicting Translations 1004
L2C Dense regions hint from L2: 0
PSCL5 SPEC fills:          0  NON-SPEC fills:          0
PSCL5 Test counter :          0
PSCL5 Leapfrog:          0
PSCL5 MSHR merge:          0
PSCL5 TOTAL     ACCESS:          0  HIT:          0  MISS:          0  HIT %:       -nan  MISS %:       -nan   MPKI: 0
PSCL5 PREFETCH  REQUESTED:          0  ISSUED:          0  USEFUL:          0  USELESS:          0
PSCL5 USEFUL LOAD PREFETCHES:          0 PREFETCH ISSUED TO LOWER LEVEL:          0  ACCURACY: -nan
PSCL5 TIMELY PREFETCHES:          0 LATE PREFETCHES: 0 DROPPED PREFETCHES: 0
PSCL5 COMMIT LATE PREFETCHES: 0 MISSED OPPORTUNITY: 0 LATE IN PQ: 0 UNCOVERED: 0
PSCL5 COMMIT LATE MSHR PREFETCHES: 0
PSCL5 MPKI TOTAL: 0 MSHR LATE: 0 PQ LATE: 0 COMMIT LATE: 0 MISSED OPPORTUNITY: 0 UNCOVERED: 0
PSCL5 PREFETCHES SAME FILL-ORIGIN LEVEL: 0 DIFFERENT FILL-ORIGIN LEVEL: 0

PSCL4 SPEC fills:          0  NON-SPEC fills:          0
PSCL4 Test counter :          0
PSCL4 Leapfrog:          0
PSCL4 MSHR merge:          0
PSCL4 TOTAL     ACCESS:          0  HIT:          0  MISS:          0  HIT %:       -nan  MISS %:       -nan   MPKI: 0
PSCL4 PREFETCH  REQUESTED:          0  ISSUED:          0  USEFUL:          0  USELESS:          0
PSCL4 USEFUL LOAD PREFETCHES:          0 PREFETCH ISSUED TO LOWER LEVEL:          0  ACCURACY: -nan
PSCL4 TIMELY PREFETCHES:          0 LATE PREFETCHES: 0 DROPPED PREFETCHES: 0
PSCL4 COMMIT LATE PREFETCHES: 0 MISSED OPPORTUNITY: 0 LATE IN PQ: 0 UNCOVERED: 0
PSCL4 COMMIT LATE MSHR PREFETCHES: 0
PSCL4 MPKI TOTAL: 0 MSHR LATE: 0 PQ LATE: 0 COMMIT LATE: 0 MISSED OPPORTUNITY: 0 UNCOVERED: 0
PSCL4 PREFETCHES SAME FILL-ORIGIN LEVEL: 0 DIFFERENT FILL-ORIGIN LEVEL: 0

PSCL3 SPEC fills:          0  NON-SPEC fills:          0
PSCL3 Test counter :          0
PSCL3 Leapfrog:          0
PSCL3 MSHR merge:          0
PSCL3 TOTAL     ACCESS:          0  HIT:          0  MISS:          0  HIT %:       -nan  MISS %:       -nan   MPKI: 0
PSCL3 PREFETCH  REQUESTED:          0  ISSUED:          0  USEFUL:          0  USELESS:          0
PSCL3 USEFUL LOAD PREFETCHES:          0 PREFETCH ISSUED TO LOWER LEVEL:          0  ACCURACY: -nan
PSCL3 TIMELY PREFETCHES:          0 LATE PREFETCHES: 0 DROPPED PREFETCHES: 0
PSCL3 COMMIT LATE PREFETCHES: 0 MISSED OPPORTUNITY: 0 LATE IN PQ: 0 UNCOVERED: 0
PSCL3 COMMIT LATE MSHR PREFETCHES: 0
PSCL3 MPKI TOTAL: 0 MSHR LATE: 0 PQ LATE: 0 COMMIT LATE: 0 MISSED OPPORTUNITY: 0 UNCOVERED: 0
PSCL3 PREFETCHES SAME FILL-ORIGIN LEVEL: 0 DIFFERENT FILL-ORIGIN LEVEL: 0

PSCL2 SPEC fills:          0  NON-SPEC fills:          0
PSCL2 Test counter :          0
PSCL2 Leapfrog:          0
PSCL2 MSHR merge:          0
PSCL2 TOTAL     ACCESS:          0  HIT:          0  MISS:          0  HIT %:       -nan  MISS %:       -nan   MPKI: 0
PSCL2 PREFETCH  REQUESTED:          0  ISSUED:          0  USEFUL:          0  USELESS:          0
PSCL2 USEFUL LOAD PREFETCHES:          0 PREFETCH ISSUED TO LOWER LEVEL:          0  ACCURACY: -nan
PSCL2 TIMELY PREFETCHES:          0 LATE PREFETCHES: 0 DROPPED PREFETCHES: 0
PSCL2 COMMIT LATE PREFETCHES: 0 MISSED OPPORTUNITY: 0 LATE IN PQ: 0 UNCOVERED: 0
PSCL2 COMMIT LATE MSHR PREFETCHES: 0
PSCL2 MPKI TOTAL: 0 MSHR LATE: 0 PQ LATE: 0 COMMIT LATE: 0 MISSED OPPORTUNITY: 0 UNCOVERED: 0
PSCL2 PREFETCHES SAME FILL-ORIGIN LEVEL: 0 DIFFERENT FILL-ORIGIN LEVEL: 0

LLC SPEC fills:          0  NON-SPEC fills:      31144
LLC Test counter :          0
LLC Leapfrog:          0
LLC MSHR merge:          0
LLC TOTAL     ACCESS:    3643635  HIT:     274512  MISS:    3369123  HIT %:    7.53401  MISS %:     92.466   MPKI: 16.8456
LLC LOAD      TOTAL       ACCESS:     200361  HIT:      62666  MISS:     137695  HIT %:    31.2765  MISS %:    68.7235   MPKI: 0.688475
LLC LOAD      NON_SPEC    ACCESS:      33532  HIT:       2296  MISS:      31236  HIT %:    6.84719  MISS %:    93.1528   MPKI: 0.15618
LLC LOAD      SPEC        ACCESS:     166829  HIT:      60370  MISS:     106459  HIT %:    36.1868  MISS %:    63.8132   MPKI: 0.532295
LLC RFO       NON_SPEC    ACCESS:       1136  HIT:          0  MISS:       1136  HIT %:          0  MISS %:        100   MPKI: 0.00568
LLC PREFETCH  NON_SPEC    ACCESS:    3267282  HIT:     197349  MISS:    3069933  HIT %:    6.04016  MISS %:    93.9598   MPKI: 15.3497
LLC WRITEBACK NON_SPEC    ACCESS:       1209  HIT:       1209  MISS:          0  HIT %:        100  MISS %:          0   MPKI: 0
LLC CLEAN_EVICTION NON_SPEC    ACCESS:     172342  HIT:      13267  MISS:     159075  HIT %:    7.69807  MISS %:    92.3019   MPKI: 0.795375
LLC COMMIT LOAD NON_SPEC    ACCESS:        114  HIT:          8  MISS:        106  HIT %:    7.01754  MISS %:    92.9825   MPKI: 0.00053
LLC LOAD TRANSLATION NON_SPEC    ACCESS:        250  HIT:          0  MISS:        250  HIT %:          0  MISS %:        100   MPKI: 0.00125
LLC TRANSLATION FROM L1D PREFETCHER NON_SPEC    ACCESS:        941  HIT:         13  MISS:        928  HIT %:    1.38151  MISS %:    98.6185   MPKI: 0.00464
LLC PREFETCH  REQUESTED:          0  ISSUED:          0  USEFUL:       3629  USELESS:    3070525
LLC USEFUL LOAD PREFETCHES:       3629 PREFETCH ISSUED TO LOWER LEVEL:    3069933  ACCURACY: 0.118211
LLC TIMELY PREFETCHES:       3629 LATE PREFETCHES: 0 DROPPED PREFETCHES: 0
LLC COMMIT LATE PREFETCHES: 0 MISSED OPPORTUNITY: 0 LATE IN PQ: 0 UNCOVERED: 0
LLC COMMIT LATE MSHR PREFETCHES: 0
LLC MPKI TOTAL: 0.688475 MSHR LATE: 0 PQ LATE: 0 COMMIT LATE: 0 MISSED OPPORTUNITY: 0 UNCOVERED: 0
LLC PREFETCHES SAME FILL-ORIGIN LEVEL: 0 DIFFERENT FILL-ORIGIN LEVEL: 0
LLC AVERAGE MISS LATENCY: 96.4714 cycles
LLC AVERAGE MISS LATENCY LOAD: 81.9453 cycles
LLC AVERAGE MISS LATENCY PREFETCH: 102.078 cycles
LLC AVERAGE MSHR OCCUPANCY: 0.664249
LLC MSHR FULL: 0
LLC RQ	ACCESS:     202807	FORWARD:          0	MERGED:          0	TO_CACHE:     202802
LLC WQ	ACCESS:     173551	FORWARD:          5	MERGED:          0	TO_CACHE:     173551
LLC PQ	ACCESS:    3267282	FORWARD:          0	MERGED:          0	TO_CACHE:    3267282

LLC Dense regions hint to LLC: 0

RAW hits: 11169
Loads Generated: 58965269
Loads sent to L1D: 58954098
Stores Generated: 2967094
Stores sent to L1D: 2967095
Major fault: 0 Minor fault: 1462
Allocated PAGES: 1462
Total Load insts: 73705029
Total Non-spec loads: 6466145
Percentage of speculative loads: 91.227

LeapFrogging counter: 646
Commit hits: 28921110 miss: 23763593
Commit hit %: 54.8947 miss %: 45.1053
Commits not translated: 0
Loads retired: 601857
Stores retired: 2967095
Cache fills: 601857
L1D response latency: 38.1971 cycles
Load retirement latency: 61.8355 cycles
OOO test counter: 0
Discarded buffer inserts: 28921110 hits: 7959 hit %: 0.0275197
Filter prediction accuracy: 99.9069
LATENCY_FILL: 38.1355 601624

DRAM Statistics
 CHANNEL 0
 RQ ROW_BUFFER_HIT:    2672878  ROW_BUFFER_MISS:     537165
 DBUS_CONGESTED:       6739
 WQ ROW_BUFFER_HIT:      43617  ROW_BUFFER_MISS:     122728  FULL:          0

 AVG_CONGESTED_CYCLE: 4
 All warmup complete: 2
Channel 0 Bank busy for read cycles: 0
Channel 0 Bank busy for write cycles: 0
Channel 0
Rank 0
0banks busy for read cycles: 107577561
0banks busy for write cycles: 98873
1banks busy for read cycles: 41713911
1banks busy for write cycles: 16227102
2banks busy for read cycles: 22791600
2banks busy for write cycles: 5026265
3banks busy for read cycles: 14531546
3banks busy for write cycles: 1851412
4banks busy for read cycles: 8399297
4banks busy for write cycles: 754556
5banks busy for read cycles: 4617021
5banks busy for write cycles: 302324
6banks busy for read cycles: 2421288
6banks busy for write cycles: 115488
7banks busy for read cycles: 1156827
7banks busy for write cycles: 44248
8banks busy for read cycles: 508969
8banks busy for write cycles: 8655

CPU 0 Branch Prediction Accuracy: 99.9889% MPKI: 0.030745 Average ROB Occupancy at Mispredict: 49.1052
Branch types
NOT_BRANCH: 144470819 72.2354%
BRANCH_DIRECT_JUMP: 10018 0.005009%
BRANCH_INDIRECT: 0 0%
BRANCH_CONDITIONAL: 52724204 26.3621%
BRANCH_DIRECT_CALL: 706558 0.353279%
BRANCH_INDIRECT_CALL: 690769 0.345384%
BRANCH_RETURN: 1397326 0.698663%
BRANCH_OTHER: 0 0%

DRAM PAGES: 1048576
Allocated PAGES: 1462
