
*** ChampSim Multicore Out-of-Order Simulator ***

Warmup Instructions: 50000000
Simulation Instructions: 200000000
Number of CPUs: 1
LLC sets: 2048
LLC ways: 16
L0D sets: 16
L0D ways: 2
ROB size: 352
LQ size: 128
SQ size: 72
Secure Berti: OFF
Berti: OFF
Berti Fill: OFF
On commit prefetching: OFF
Hit-based filter: ON
Time-guarding: ON
Free-slotting: ON
Leap-frogging: ON
Train prefetcher on L0D bypass: OFF
No translation penalty for prefetchers: OFF
Prefetch to L0D only: OFF
Prefetch to L1D only: OFF
Clean evictions: ON
Commit loads: ON
Commit write: ON
Fill commit loads to L2C, LLC: ON
DRAM IO FREQUENCY: 6400
ROB SIZE: 352
Off-chip DRAM Size: 4096 MB Channels: 1 Width: 64-bit Data Rate: 6400 MT/s
CPU 0 runs /home/sumon/secure_berti/GhostMinion/../../traces/spec/649.fotonik3d_s-7084B.champsimtrace.xz
.xz
BTB has LRU replacement policy
ITLB has LRU replacement policy
DTLB has LRU replacement policy
STLB has LRU replacement policy
L1I has LRU replacement policy
L0D has LRU replacement policy
History Sets: 8
History Ways: 16
BERTI Size: 16
BERTI Stride Size: 16
L1D has LRU replacement policy
L2C has LRU replacement policy
LLC has LRU replacement policy
Heartbeat CPU 0 instructions: 10000001 cycles: 3118423 heartbeat IPC: 3.20675 cumulative IPC: 3.20675 (Simulation time: 0 hr 0 min 36 sec) 
Heartbeat CPU 0 instructions: 20000001 cycles: 6237552 heartbeat IPC: 3.20602 cumulative IPC: 3.20639 (Simulation time: 0 hr 1 min 12 sec) 
Heartbeat CPU 0 instructions: 30000001 cycles: 9357193 heartbeat IPC: 3.2055 cumulative IPC: 3.20609 (Simulation time: 0 hr 1 min 48 sec) 
Heartbeat CPU 0 instructions: 40000003 cycles: 12475755 heartbeat IPC: 3.20661 cumulative IPC: 3.20622 (Simulation time: 0 hr 2 min 25 sec) 
Heartbeat CPU 0 instructions: 50000002 cycles: 15596394 heartbeat IPC: 3.20447 cumulative IPC: 3.20587 (Simulation time: 0 hr 3 min 1 sec) 

Warmup complete CPU 0 instructions: 50000002 cycles: 15596394 (Simulation time: 0 hr 3 min 1 sec) 

Heartbeat CPU 0 instructions: 60000001 cycles: 25719161 heartbeat IPC: 0.987872 cumulative IPC: 0.987872 (Simulation time: 0 hr 3 min 43 sec) 
Heartbeat CPU 0 instructions: 70000002 cycles: 35839304 heartbeat IPC: 0.988128 cumulative IPC: 0.988 (Simulation time: 0 hr 4 min 26 sec) 
Heartbeat CPU 0 instructions: 80000003 cycles: 45952317 heartbeat IPC: 0.988825 cumulative IPC: 0.988275 (Simulation time: 0 hr 5 min 9 sec) 
Heartbeat CPU 0 instructions: 90000001 cycles: 56078081 heartbeat IPC: 0.98758 cumulative IPC: 0.988101 (Simulation time: 0 hr 5 min 51 sec) 
Heartbeat CPU 0 instructions: 100000001 cycles: 66190774 heartbeat IPC: 0.988856 cumulative IPC: 0.988252 (Simulation time: 0 hr 6 min 32 sec) 
Heartbeat CPU 0 instructions: 110000000 cycles: 76312557 heartbeat IPC: 0.987968 cumulative IPC: 0.988205 (Simulation time: 0 hr 7 min 13 sec) 
Heartbeat CPU 0 instructions: 120000000 cycles: 86430615 heartbeat IPC: 0.988332 cumulative IPC: 0.988223 (Simulation time: 0 hr 7 min 54 sec) 
Heartbeat CPU 0 instructions: 130000002 cycles: 96542182 heartbeat IPC: 0.988967 cumulative IPC: 0.988316 (Simulation time: 0 hr 8 min 36 sec) 
Heartbeat CPU 0 instructions: 140000002 cycles: 106665227 heartbeat IPC: 0.987845 cumulative IPC: 0.988263 (Simulation time: 0 hr 9 min 16 sec) 
Heartbeat CPU 0 instructions: 150000001 cycles: 116780141 heartbeat IPC: 0.988639 cumulative IPC: 0.988301 (Simulation time: 0 hr 9 min 57 sec) 
Heartbeat CPU 0 instructions: 160000001 cycles: 126896910 heartbeat IPC: 0.988458 cumulative IPC: 0.988315 (Simulation time: 0 hr 10 min 38 sec) 
Heartbeat CPU 0 instructions: 170000000 cycles: 137021254 heartbeat IPC: 0.987718 cumulative IPC: 0.988265 (Simulation time: 0 hr 11 min 19 sec) 
Heartbeat CPU 0 instructions: 180000001 cycles: 147135805 heartbeat IPC: 0.988675 cumulative IPC: 0.988297 (Simulation time: 0 hr 12 min 1 sec) 
Heartbeat CPU 0 instructions: 190000002 cycles: 157249528 heartbeat IPC: 0.988756 cumulative IPC: 0.98833 (Simulation time: 0 hr 12 min 42 sec) 
Heartbeat CPU 0 instructions: 200000001 cycles: 167367952 heartbeat IPC: 0.988296 cumulative IPC: 0.988327 (Simulation time: 0 hr 13 min 22 sec) 
Heartbeat CPU 0 instructions: 210000003 cycles: 177482292 heartbeat IPC: 0.988695 cumulative IPC: 0.98835 (Simulation time: 0 hr 14 min 1 sec) 
Heartbeat CPU 0 instructions: 220000000 cycles: 187600595 heartbeat IPC: 0.988308 cumulative IPC: 0.988348 (Simulation time: 0 hr 14 min 42 sec) 
Heartbeat CPU 0 instructions: 230000001 cycles: 197714994 heartbeat IPC: 0.98869 cumulative IPC: 0.988367 (Simulation time: 0 hr 15 min 21 sec) 
Heartbeat CPU 0 instructions: 240000002 cycles: 207833851 heartbeat IPC: 0.988254 cumulative IPC: 0.988361 (Simulation time: 0 hr 16 min 0 sec) 
Heartbeat CPU 0 instructions: 250000002 cycles: 217951990 heartbeat IPC: 0.988324 cumulative IPC: 0.988359 (Simulation time: 0 hr 16 min 38 sec) 
Finished CPU 0 instructions: 200000000 cycles: 202355596 cumulative IPC: 0.988359 (Simulation time: 0 hr 16 min 38 sec) 
 Instruction ID: 250000131

ChampSim completed all CPUs

Region of Interest Statistics

CPU 0 cumulative IPC: 0.988359 instructions: 200000000 cycles: 202355596
ITLB SPEC fills:          0  NON-SPEC fills:          0
ITLB Test counter :          0
ITLB Leapfrog:          0
ITLB MSHR merge:          0
ITLB TOTAL     ACCESS:   24341712  HIT:   24341712  MISS:          0  HIT %:        100  MISS %:          0   MPKI: 0
ITLB LOAD TRANSLATION NON_SPEC    ACCESS:   24341712  HIT:   24341712  MISS:          0  HIT %:        100  MISS %:          0   MPKI: 0
ITLB PREFETCH  REQUESTED:          0  ISSUED:          0  USEFUL:          0  USELESS:          0
ITLB USEFUL LOAD PREFETCHES:          0 PREFETCH ISSUED TO LOWER LEVEL:          0  ACCURACY: -nan
ITLB TIMELY PREFETCHES:          0 LATE PREFETCHES: 0 DROPPED PREFETCHES: 0
ITLB COMMIT LATE PREFETCHES: 0 MISSED OPPORTUNITY: 0 LATE IN PQ: 0 UNCOVERED: 0
ITLB COMMIT LATE MSHR PREFETCHES: 0
ITLB MPKI TOTAL: 0 MSHR LATE: 0 PQ LATE: 0 COMMIT LATE: 0 MISSED OPPORTUNITY: 0 UNCOVERED: 0
ITLB PREFETCHES SAME FILL-ORIGIN LEVEL: 0 DIFFERENT FILL-ORIGIN LEVEL: 0
ITLB AVERAGE MISS LATENCY: -nan cycles
ITLB AVERAGE MISS LATENCY LOAD: -nan cycles
ITLB AVERAGE MISS LATENCY PREFETCH: -nan cycles
ITLB AVERAGE MSHR OCCUPANCY: 0
ITLB MSHR FULL: 0
ITLB RQ	ACCESS:   29754609	FORWARD:          0	MERGED:    5412897	TO_CACHE:   24341712

DTLB SPEC fills:          0  NON-SPEC fills:          0
DTLB Test counter :          0
DTLB Leapfrog:          0
DTLB MSHR merge:          0
DTLB TOTAL     ACCESS:   63400859  HIT:   63276839  MISS:     124020  HIT %:    99.8044  MISS %:   0.195612   MPKI: 0.6201
DTLB LOAD TRANSLATION NON_SPEC    ACCESS:   63400859  HIT:   63276839  MISS:     124020  HIT %:    99.8044  MISS %:   0.195612   MPKI: 0.6201
DTLB PREFETCH  REQUESTED:          0  ISSUED:          0  USEFUL:          0  USELESS:          0
DTLB USEFUL LOAD PREFETCHES:          0 PREFETCH ISSUED TO LOWER LEVEL:          0  ACCURACY: -nan
DTLB TIMELY PREFETCHES:          0 LATE PREFETCHES: 0 DROPPED PREFETCHES: 0
DTLB COMMIT LATE PREFETCHES: 0 MISSED OPPORTUNITY: 0 LATE IN PQ: 0 UNCOVERED: 0
DTLB COMMIT LATE MSHR PREFETCHES: 0
DTLB MPKI TOTAL: 0 MSHR LATE: 0 PQ LATE: 0 COMMIT LATE: 0 MISSED OPPORTUNITY: 0 UNCOVERED: 0
DTLB PREFETCHES SAME FILL-ORIGIN LEVEL: 0 DIFFERENT FILL-ORIGIN LEVEL: 0
DTLB AVERAGE MISS LATENCY: 77.2116 cycles
DTLB AVERAGE MISS LATENCY LOAD: -nan cycles
DTLB AVERAGE MISS LATENCY PREFETCH: -nan cycles
DTLB AVERAGE MSHR OCCUPANCY: 0.0179165
DTLB MSHR FULL: 0.000124821
DTLB RQ	ACCESS:   71317983	FORWARD:          0	MERGED:    7915232	TO_CACHE:   63402751

STLB SPEC fills:          0  NON-SPEC fills:          0
STLB Test counter :          0
STLB Leapfrog:          0
STLB MSHR merge:          0
STLB TOTAL     ACCESS:   13425142  HIT:   13370536  MISS:      54606  HIT %:    99.5933  MISS %:   0.406744   MPKI: 0.27303
STLB LOAD TRANSLATION NON_SPEC    ACCESS:     124020  HIT:      80863  MISS:      43157  HIT %:    65.2016  MISS %:    34.7984   MPKI: 0.215785
STLB TRANSLATION FROM L1D PREFETCHER NON_SPEC    ACCESS:   13301122  HIT:   13289673  MISS:      11449  HIT %:    99.9139  MISS %:  0.0860754   MPKI: 0.057245
STLB PREFETCH  REQUESTED:          0  ISSUED:          0  USEFUL:      11447  USELESS:          3
STLB USEFUL LOAD PREFETCHES:      11447 PREFETCH ISSUED TO LOWER LEVEL:          0  ACCURACY: inf
STLB TIMELY PREFETCHES:      11447 LATE PREFETCHES: 1955 DROPPED PREFETCHES: 858222
STLB COMMIT LATE PREFETCHES: 0 MISSED OPPORTUNITY: 0 LATE IN PQ: 0 UNCOVERED: 0
STLB COMMIT LATE MSHR PREFETCHES: 0
STLB MPKI TOTAL: 0 MSHR LATE: 0.009775 PQ LATE: 0 COMMIT LATE: 0 MISSED OPPORTUNITY: 0 UNCOVERED: 0
STLB PREFETCHES SAME FILL-ORIGIN LEVEL: 0 DIFFERENT FILL-ORIGIN LEVEL: 0
STLB AVERAGE MISS LATENCY: 175.904 cycles
STLB AVERAGE MISS LATENCY LOAD: -nan cycles
STLB AVERAGE MISS LATENCY PREFETCH: -nan cycles
STLB AVERAGE MSHR OCCUPANCY: 0.194915
STLB MSHR FULL: 0
STLB RQ	ACCESS:   67208495	FORWARD:          0	MERGED:   52921511	TO_CACHE:   14286984

STLB Hit, L1D data hit: 0
STLB Hit, L2C data hit: 0
STLB Hit, LLC data hit: 0
STLB Hit, LLC data miss: 0
STLB STLB hints to L2: 0
L0D SPEC fills:   39675094  NON-SPEC fills:          0
L0D TimeGuard Request with older TS:     324906 Restricted eviction:     494435 read:     198014
L0D Test counter :          0
L0D Leapfrog:          0
L0D MSHR merge:     750966
L0D TOTAL     ACCESS:   60732578  HIT:   14226568  MISS:   46506010  HIT %:    23.4249  MISS %:    76.5751   MPKI: 232.53
L0D LOAD      TOTAL       ACCESS:   60732578  HIT:   14226568  MISS:   46506010  HIT %:    23.4249  MISS %:    76.5751   MPKI: 232.53
L0D LOAD      NON_SPEC    ACCESS:    6993987  HIT:     657408  MISS:    6336579  HIT %:    9.39962  MISS %:    90.6004   MPKI: 31.6829
L0D LOAD      SPEC        ACCESS:   53738591  HIT:   13569160  MISS:   40169431  HIT %:    25.2503  MISS %:    74.7497   MPKI: 200.847
L0D PREFETCH  REQUESTED:          0  ISSUED:          0  USEFUL:          0  USELESS:          0
L0D USEFUL LOAD PREFETCHES:          0 PREFETCH ISSUED TO LOWER LEVEL:          0  ACCURACY: -nan
L0D TIMELY PREFETCHES:          0 LATE PREFETCHES: 0 DROPPED PREFETCHES: 0
L0D COMMIT LATE PREFETCHES: 0 MISSED OPPORTUNITY: 0 LATE IN PQ: 0 UNCOVERED: 0
L0D COMMIT LATE MSHR PREFETCHES: 0
L0D MPKI TOTAL: 236.285 MSHR LATE: 0 PQ LATE: 0 COMMIT LATE: 0 MISSED OPPORTUNITY: 0 UNCOVERED: 0
L0D PREFETCHES SAME FILL-ORIGIN LEVEL: 0 DIFFERENT FILL-ORIGIN LEVEL: 0
L0D AVERAGE MISS LATENCY: 5.57913 cycles
L0D AVERAGE MISS LATENCY LOAD: 5.57913 cycles
L0D AVERAGE MISS LATENCY PREFETCH: -nan cycles
L0D AVERAGE MSHR OCCUPANCY: 1.1195
L0D MSHR FULL: 6.22571e-05
L0D RQ	ACCESS:   70356770	FORWARD:          0	MERGED:    8873229	TO_CACHE:   61483541
L0D WQ	ACCESS:    9834442	FORWARD:          0	MERGED:          0	TO_CACHE:    9834442

L1D SPEC fills:          0  NON-SPEC fills:      18063
L1D Test counter :          0
L1D Leapfrog:          0
L1D MSHR merge:      25520
L1D TOTAL     ACCESS:  114983954  HIT:  111339141  MISS:    3644813  HIT %:    96.8302  MISS %:    3.16984   MPKI: 18.2241
L1D LOAD      TOTAL       ACCESS:   46505795  HIT:   46348641  MISS:     157154  HIT %:    99.6621  MISS %:   0.337923   MPKI: 0.78577
L1D LOAD      NON_SPEC    ACCESS:    6336573  HIT:    6318510  MISS:      18063  HIT %:    99.7149  MISS %:   0.285059   MPKI: 0.090315
L1D LOAD      SPEC        ACCESS:   40169222  HIT:   40030131  MISS:     139091  HIT %:    99.6537  MISS %:   0.346263   MPKI: 0.695455
L1D RFO       NON_SPEC    ACCESS:    9834294  HIT:    9834292  MISS:          2  HIT %:        100  MISS %: 2.0337e-05   MPKI: 1e-05
L1D PREFETCH  NON_SPEC    ACCESS:   58453547  HIT:   55104625  MISS:    3348922  HIT %:    94.2708  MISS %:     5.7292   MPKI: 16.7446
L1D COMMIT LOAD NON_SPEC    ACCESS:      51054  HIT:      50335  MISS:        719  HIT %:    98.5917  MISS %:    1.40831   MPKI: 0.003595
L1D COMMIT WRITE NON_SPEC    ACCESS:     139264  HIT:       1248  MISS:     138016  HIT %:    0.89614  MISS %:    99.1039   MPKI: 0.69008
L1D PREFETCH  REQUESTED:  107605033  ISSUED:   67144669  USEFUL:    3134265  USELESS:     214670
L1D USEFUL LOAD PREFETCHES:    3134265 PREFETCH ISSUED TO LOWER LEVEL:    7786288  ACCURACY: 40.2536
L1D TIMELY PREFETCHES:    3134265 LATE PREFETCHES: 25305 DROPPED PREFETCHES: 2808861
L1D COMMIT LATE PREFETCHES: 0 MISSED OPPORTUNITY: 0 LATE IN PQ: 0 UNCOVERED: 0
L1D COMMIT LATE MSHR PREFETCHES: 0
L1D MPKI TOTAL: 0.786845 MSHR LATE: 0.126525 PQ LATE: 0 COMMIT LATE: 0 MISSED OPPORTUNITY: 0 UNCOVERED: 0
L1D PREFETCHES SAME FILL-ORIGIN LEVEL: 3374230 DIFFERENT FILL-ORIGIN LEVEL: 4412058
L1D AVERAGE MISS LATENCY: 168.356 cycles
L1D AVERAGE MISS LATENCY LOAD: 140.637 cycles
L1D AVERAGE MISS LATENCY PREFETCH: 176.614 cycles
L1D AVERAGE MSHR OCCUPANCY: 2.79462
L1D MSHR FULL: 0.00488527
L1D RQ	ACCESS:   46588570	FORWARD:          0	MERGED:      30643	TO_CACHE:   46557192
L1D WQ	ACCESS:    9973705	FORWARD:        735	MERGED:         27	TO_CACHE:    9973678
L1D PQ	ACCESS:   67144669	FORWARD:          0	MERGED:      60194	TO_CACHE:   67084475

L1D UNIQUE REGIONS ACCESSED: 0
L1D REGIONS CONFLICTS: 0
L1D Cross Page Prefetch Requests: 4744054
L1D Same Page Prefetch Requests: 77960459
L1D ROI Sum of L1D PQ occupancy: 1699385269
L1D PREFETCHES PUSHED FROM L2C: 0
L1I SPEC fills:          0  NON-SPEC fills:          0
L1I Test counter :          0
L1I Leapfrog:          0
L1I MSHR merge:          0
L1I TOTAL     ACCESS:   29754608  HIT:   29754608  MISS:          0  HIT %:        100  MISS %:          0   MPKI: 0
L1I LOAD      TOTAL       ACCESS:   29754608  HIT:   29754608  MISS:          0  HIT %:        100  MISS %:          0   MPKI: 0
L1I LOAD      NON_SPEC    ACCESS:   29754608  HIT:   29754608  MISS:          0  HIT %:        100  MISS %:          0   MPKI: 0
L1I PREFETCH  REQUESTED:          0  ISSUED:          0  USEFUL:          0  USELESS:          0
L1I USEFUL LOAD PREFETCHES:          0 PREFETCH ISSUED TO LOWER LEVEL:          0  ACCURACY: -nan
L1I TIMELY PREFETCHES:          0 LATE PREFETCHES: 0 DROPPED PREFETCHES: 0
L1I COMMIT LATE PREFETCHES: 0 MISSED OPPORTUNITY: 0 LATE IN PQ: 0 UNCOVERED: 0
L1I COMMIT LATE MSHR PREFETCHES: 0
L1I MPKI TOTAL: 0 MSHR LATE: 0 PQ LATE: 0 COMMIT LATE: 0 MISSED OPPORTUNITY: 0 UNCOVERED: 0
L1I PREFETCHES SAME FILL-ORIGIN LEVEL: 0 DIFFERENT FILL-ORIGIN LEVEL: 0
L1I AVERAGE MISS LATENCY: -nan cycles
L1I AVERAGE MISS LATENCY LOAD: -nan cycles
L1I AVERAGE MISS LATENCY PREFETCH: -nan cycles
L1I AVERAGE MSHR OCCUPANCY: 0
L1I MSHR FULL: 0
L1I RQ	ACCESS:   43310987	FORWARD:          0	MERGED:   13556378	TO_CACHE:   29754609

BTB SPEC fills:          0  NON-SPEC fills:          0
BTB Test counter :          0
BTB Leapfrog:          0
BTB MSHR merge:          0
BTB TOTAL     ACCESS:    1347104  HIT:    1347101  MISS:          3  HIT %:    99.9998  MISS %:  0.0002227   MPKI: 1.5e-05
BTB BRANCH_DIRECT_JUMP	ACCESS:          0  HIT:          0  MISS:          0
BTB BRANCH_INDIRECT	ACCESS:          0  HIT:          0  MISS:          0
BTB BRANCH_CONDITIONAL	ACCESS:    1347104  HIT:    1347101  MISS:          3
BTB BRANCH_DIRECT_CALL	ACCESS:          0  HIT:          0  MISS:          0
BTB BRANCH_INDIRECT_CALL	ACCESS:          0  HIT:          0  MISS:          0
BTB BRANCH_RETURN	ACCESS:          0  HIT:          0  MISS:          0
BTB BRANCH_OTHER ACCESS:          0  HIT:          0  MISS:          0

L2C SPEC fills:          0  NON-SPEC fills:      14461
L2C Test counter :          0
L2C Leapfrog:          0
L2C MSHR merge:       1160
L2C TOTAL     ACCESS:   13121680  HIT:    9551525  MISS:    3570155  HIT %:    72.7919  MISS %:    27.2081   MPKI: 17.8508
L2C LOAD      TOTAL       ACCESS:     131827  HIT:      28842  MISS:     102985  HIT %:    21.8787  MISS %:    78.1213   MPKI: 0.514925
L2C LOAD      NON_SPEC    ACCESS:      16138  HIT:       1677  MISS:      14461  HIT %:    10.3916  MISS %:    89.6084   MPKI: 0.072305
L2C LOAD      SPEC        ACCESS:     115689  HIT:      27165  MISS:      88524  HIT %:    23.4811  MISS %:    76.5189   MPKI: 0.44262
L2C RFO       NON_SPEC    ACCESS:          2  HIT:          1  MISS:          1  HIT %:         50  MISS %:         50   MPKI: 5e-06
L2C PREFETCH  NON_SPEC    ACCESS:    7307452  HIT:    3935816  MISS:    3371636  HIT %:    53.8603  MISS %:    46.1397   MPKI: 16.8582
L2C WRITEBACK NON_SPEC    ACCESS:     994635  HIT:     994633  MISS:          2  HIT %:    99.9998  MISS %: 0.000201079   MPKI: 1e-05
L2C CLEAN_EVICTION NON_SPEC    ACCESS:     114984  HIT:      26744  MISS:      88240  HIT %:    23.2589  MISS %:    76.7411   MPKI: 0.4412
L2C COMMIT LOAD NON_SPEC    ACCESS:        719  HIT:        459  MISS:        260  HIT %:    63.8387  MISS %:    36.1613   MPKI: 0.0013
L2C LOAD TRANSLATION NON_SPEC    ACCESS:     215620  HIT:     215343  MISS:        277  HIT %:    99.8715  MISS %:   0.128467   MPKI: 0.001385
L2C TRANSLATION FROM L1D PREFETCHER NON_SPEC    ACCESS:    4356441  HIT:    4349687  MISS:       6754  HIT %:     99.845  MISS %:   0.155035   MPKI: 0.03377
L2C PREFETCH  REQUESTED:          0  ISSUED:          0  USEFUL:      21132  USELESS:    3357412
L2C USEFUL LOAD PREFETCHES:      21132 PREFETCH ISSUED TO LOWER LEVEL:    3372798  ACCURACY: 0.626542
L2C TIMELY PREFETCHES:      21132 LATE PREFETCHES: 1160 DROPPED PREFETCHES: 0
L2C COMMIT LATE PREFETCHES: 0 MISSED OPPORTUNITY: 0 LATE IN PQ: 0 UNCOVERED: 0
L2C COMMIT LATE MSHR PREFETCHES: 0
L2C MPKI TOTAL: 0.514925 MSHR LATE: 0.0058 PQ LATE: 0 COMMIT LATE: 0 MISSED OPPORTUNITY: 0 UNCOVERED: 0
L2C PREFETCHES SAME FILL-ORIGIN LEVEL: 829534 DIFFERENT FILL-ORIGIN LEVEL: 0
L2C AVERAGE MISS LATENCY: 206.071 cycles
L2C AVERAGE MISS LATENCY LOAD: 171.082 cycles
L2C AVERAGE MISS LATENCY PREFETCH: 212.478 cycles
L2C AVERAGE MSHR OCCUPANCY: 2.85969
L2C MSHR FULL: 2.95453e-05
L2C RQ	ACCESS:    4704632	FORWARD:          0	MERGED:          0	TO_CACHE:    4704610
L2C WQ	ACCESS:    1109619	FORWARD:         22	MERGED:          0	TO_CACHE:    1109619
L2C PQ	ACCESS:    7786077	FORWARD:          0	MERGED:          0	TO_CACHE:    7786077

L2C Instructions Evicting Data 0
L2C Translations Evicting Data 7027
L2C Data Evicting Data 3379516
L2C Instructions Evicting Instructions 0
L2C Translations Evicting Instructions 0
L2C Data Evicting Instructions 0
L2C Instructions Evicting Translations 0
L2C Translations Evicting Translations 4
L2C Data Evicting Translations 6842
L2C Dense regions hint from L2: 0
PSCL5 SPEC fills:          0  NON-SPEC fills:          0
PSCL5 Test counter :          0
PSCL5 Leapfrog:          0
PSCL5 MSHR merge:          0
PSCL5 TOTAL     ACCESS:          0  HIT:          0  MISS:          0  HIT %:       -nan  MISS %:       -nan   MPKI: 0
PSCL5 PREFETCH  REQUESTED:          0  ISSUED:          0  USEFUL:          0  USELESS:          0
PSCL5 USEFUL LOAD PREFETCHES:          0 PREFETCH ISSUED TO LOWER LEVEL:          0  ACCURACY: -nan
PSCL5 TIMELY PREFETCHES:          0 LATE PREFETCHES: 0 DROPPED PREFETCHES: 0
PSCL5 COMMIT LATE PREFETCHES: 0 MISSED OPPORTUNITY: 0 LATE IN PQ: 0 UNCOVERED: 0
PSCL5 COMMIT LATE MSHR PREFETCHES: 0
PSCL5 MPKI TOTAL: 0 MSHR LATE: 0 PQ LATE: 0 COMMIT LATE: 0 MISSED OPPORTUNITY: 0 UNCOVERED: 0
PSCL5 PREFETCHES SAME FILL-ORIGIN LEVEL: 0 DIFFERENT FILL-ORIGIN LEVEL: 0

PSCL4 SPEC fills:          0  NON-SPEC fills:          0
PSCL4 Test counter :          0
PSCL4 Leapfrog:          0
PSCL4 MSHR merge:          0
PSCL4 TOTAL     ACCESS:          0  HIT:          0  MISS:          0  HIT %:       -nan  MISS %:       -nan   MPKI: 0
PSCL4 PREFETCH  REQUESTED:          0  ISSUED:          0  USEFUL:          0  USELESS:          0
PSCL4 USEFUL LOAD PREFETCHES:          0 PREFETCH ISSUED TO LOWER LEVEL:          0  ACCURACY: -nan
PSCL4 TIMELY PREFETCHES:          0 LATE PREFETCHES: 0 DROPPED PREFETCHES: 0
PSCL4 COMMIT LATE PREFETCHES: 0 MISSED OPPORTUNITY: 0 LATE IN PQ: 0 UNCOVERED: 0
PSCL4 COMMIT LATE MSHR PREFETCHES: 0
PSCL4 MPKI TOTAL: 0 MSHR LATE: 0 PQ LATE: 0 COMMIT LATE: 0 MISSED OPPORTUNITY: 0 UNCOVERED: 0
PSCL4 PREFETCHES SAME FILL-ORIGIN LEVEL: 0 DIFFERENT FILL-ORIGIN LEVEL: 0

PSCL3 SPEC fills:          0  NON-SPEC fills:          0
PSCL3 Test counter :          0
PSCL3 Leapfrog:          0
PSCL3 MSHR merge:          0
PSCL3 TOTAL     ACCESS:          0  HIT:          0  MISS:          0  HIT %:       -nan  MISS %:       -nan   MPKI: 0
PSCL3 PREFETCH  REQUESTED:          0  ISSUED:          0  USEFUL:          0  USELESS:          0
PSCL3 USEFUL LOAD PREFETCHES:          0 PREFETCH ISSUED TO LOWER LEVEL:          0  ACCURACY: -nan
PSCL3 TIMELY PREFETCHES:          0 LATE PREFETCHES: 0 DROPPED PREFETCHES: 0
PSCL3 COMMIT LATE PREFETCHES: 0 MISSED OPPORTUNITY: 0 LATE IN PQ: 0 UNCOVERED: 0
PSCL3 COMMIT LATE MSHR PREFETCHES: 0
PSCL3 MPKI TOTAL: 0 MSHR LATE: 0 PQ LATE: 0 COMMIT LATE: 0 MISSED OPPORTUNITY: 0 UNCOVERED: 0
PSCL3 PREFETCHES SAME FILL-ORIGIN LEVEL: 0 DIFFERENT FILL-ORIGIN LEVEL: 0

PSCL2 SPEC fills:          0  NON-SPEC fills:          0
PSCL2 Test counter :          0
PSCL2 Leapfrog:          0
PSCL2 MSHR merge:          0
PSCL2 TOTAL     ACCESS:          0  HIT:          0  MISS:          0  HIT %:       -nan  MISS %:       -nan   MPKI: 0
PSCL2 PREFETCH  REQUESTED:          0  ISSUED:          0  USEFUL:          0  USELESS:          0
PSCL2 USEFUL LOAD PREFETCHES:          0 PREFETCH ISSUED TO LOWER LEVEL:          0  ACCURACY: -nan
PSCL2 TIMELY PREFETCHES:          0 LATE PREFETCHES: 0 DROPPED PREFETCHES: 0
PSCL2 COMMIT LATE PREFETCHES: 0 MISSED OPPORTUNITY: 0 LATE IN PQ: 0 UNCOVERED: 0
PSCL2 COMMIT LATE MSHR PREFETCHES: 0
PSCL2 MPKI TOTAL: 0 MSHR LATE: 0 PQ LATE: 0 COMMIT LATE: 0 MISSED OPPORTUNITY: 0 UNCOVERED: 0
PSCL2 PREFETCHES SAME FILL-ORIGIN LEVEL: 0 DIFFERENT FILL-ORIGIN LEVEL: 0

LLC SPEC fills:          0  NON-SPEC fills:      14377
LLC Test counter :          0
LLC Leapfrog:          0
LLC MSHR merge:          0
LLC TOTAL     ACCESS:    4591047  HIT:    1025308  MISS:    3565739  HIT %:    22.3328  MISS %:    77.6672   MPKI: 17.8287
LLC LOAD      TOTAL       ACCESS:     101825  HIT:       1534  MISS:     100291  HIT %:    1.50651  MISS %:    98.4935   MPKI: 0.501455
LLC LOAD      NON_SPEC    ACCESS:      14396  HIT:         19  MISS:      14377  HIT %:   0.131981  MISS %:     99.868   MPKI: 0.071885
LLC LOAD      SPEC        ACCESS:      87429  HIT:       1515  MISS:      85914  HIT %:    1.73283  MISS %:    98.2672   MPKI: 0.42957
LLC RFO       NON_SPEC    ACCESS:          1  HIT:          0  MISS:          1  HIT %:          0  MISS %:        100   MPKI: 5e-06
LLC PREFETCH  NON_SPEC    ACCESS:    3372796  HIT:        175  MISS:    3372621  HIT %: 0.00518857  MISS %:    99.9948   MPKI: 16.8631
LLC WRITEBACK NON_SPEC    ACCESS:     994432  HIT:     994430  MISS:          2  HIT %:    99.9998  MISS %: 0.00020112   MPKI: 1e-05
LLC CLEAN_EVICTION NON_SPEC    ACCESS:     114702  HIT:      29145  MISS:      85557  HIT %:    25.4093  MISS %:    74.5907   MPKI: 0.427785
LLC COMMIT LOAD NON_SPEC    ACCESS:        260  HIT:          7  MISS:        253  HIT %:    2.69231  MISS %:    97.3077   MPKI: 0.001265
LLC LOAD TRANSLATION NON_SPEC    ACCESS:        277  HIT:         10  MISS:        267  HIT %:    3.61011  MISS %:    96.3899   MPKI: 0.001335
LLC TRANSLATION FROM L1D PREFETCHER NON_SPEC    ACCESS:       6754  HIT:          7  MISS:       6747  HIT %:   0.103642  MISS %:    99.8964   MPKI: 0.033735
LLC PREFETCH  REQUESTED:          0  ISSUED:          0  USEFUL:         17  USELESS:    3379698
LLC USEFUL LOAD PREFETCHES:         17 PREFETCH ISSUED TO LOWER LEVEL:    3372623  ACCURACY: 0.000504059
LLC TIMELY PREFETCHES:         17 LATE PREFETCHES: 0 DROPPED PREFETCHES: 0
LLC COMMIT LATE PREFETCHES: 0 MISSED OPPORTUNITY: 0 LATE IN PQ: 0 UNCOVERED: 0
LLC COMMIT LATE MSHR PREFETCHES: 0
LLC MPKI TOTAL: 0.501455 MSHR LATE: 0 PQ LATE: 0 COMMIT LATE: 0 MISSED OPPORTUNITY: 0 UNCOVERED: 0
LLC PREFETCHES SAME FILL-ORIGIN LEVEL: 0 DIFFERENT FILL-ORIGIN LEVEL: 0
LLC AVERAGE MISS LATENCY: 176.172 cycles
LLC AVERAGE MISS LATENCY LOAD: 148.852 cycles
LLC AVERAGE MISS LATENCY PREFETCH: 181.398 cycles
LLC AVERAGE MSHR OCCUPANCY: 3.04264
LLC MSHR FULL: 0
LLC RQ	ACCESS:     109117	FORWARD:          0	MERGED:          0	TO_CACHE:     109117
LLC WQ	ACCESS:    1109134	FORWARD:          0	MERGED:          0	TO_CACHE:    1109134
LLC PQ	ACCESS:    3372798	FORWARD:          0	MERGED:          0	TO_CACHE:    3372798

LLC Dense regions hint to LLC: 0

RAW hits: 389028
Loads Generated: 70745805
Loads sent to L1D: 70356770
Stores Generated: 9834442
Stores sent to L1D: 9834442
Major fault: 0 Minor fault: 54759
Allocated PAGES: 54759
Total Load insts: 87440725
Total Non-spec loads: 7398488
Percentage of speculative loads: 91.5388

LeapFrogging counter: 10411
Commit hits: 39372926 miss: 23964925
Commit hit %: 62.1633 miss %: 37.8367
Commits not translated: 0
Loads retired: 157154
Stores retired: 9834442
Cache fills: 157154
L1D response latency: 140.637 cycles
Load retirement latency: 225.147 cycles
OOO test counter: 0
Discarded buffer inserts: 39372926 hits: 834 hit %: 0.00211821
Filter prediction accuracy: 99.9979
LATENCY_FILL: 139.752 156994

DRAM Statistics
 CHANNEL 0
 RQ ROW_BUFFER_HIT:     970471  ROW_BUFFER_MISS:    2509711
 DBUS_CONGESTED:       4170
 WQ ROW_BUFFER_HIT:     412993  ROW_BUFFER_MISS:     694978  FULL:          0

 AVG_CONGESTED_CYCLE: 5
 All warmup complete: 2
Channel 0 Bank busy for read cycles: 0
Channel 0 Bank busy for write cycles: 0
Channel 0
Rank 0
0banks busy for read cycles: 5018876
0banks busy for write cycles: 23170
1banks busy for read cycles: 49657666
1banks busy for write cycles: 3200961
2banks busy for read cycles: 39305835
2banks busy for write cycles: 2677103
3banks busy for read cycles: 24945959
3banks busy for write cycles: 2483872
4banks busy for read cycles: 14674976
4banks busy for write cycles: 2473487
5banks busy for read cycles: 9257504
5banks busy for write cycles: 2644047
6banks busy for read cycles: 7001242
6banks busy for write cycles: 3107343
7banks busy for read cycles: 5536702
7banks busy for write cycles: 4821850
8banks busy for read cycles: 4686040
8banks busy for write cycles: 20838964

CPU 0 Branch Prediction Accuracy: 99.9985% MPKI: 0.000105 Average ROB Occupancy at Mispredict: 68.3333
Branch types
NOT_BRANCH: 198618941 99.3095%
BRANCH_DIRECT_JUMP: 0 0%
BRANCH_INDIRECT: 0 0%
BRANCH_CONDITIONAL: 1380806 0.690403%
BRANCH_DIRECT_CALL: 0 0%
BRANCH_INDIRECT_CALL: 0 0%
BRANCH_RETURN: 0 0%
BRANCH_OTHER: 0 0%

DRAM PAGES: 1048576
Allocated PAGES: 54759
