
*** ChampSim Multicore Out-of-Order Simulator ***

Warmup Instructions: 50000000
Simulation Instructions: 200000000
Number of CPUs: 1
LLC sets: 2048
LLC ways: 16
L0D sets: 16
L0D ways: 2
ROB size: 352
LQ size: 128
SQ size: 72
Secure Berti: OFF
Berti: OFF
Berti Fill: OFF
On commit prefetching: OFF
Hit-based filter: ON
Time-guarding: ON
Free-slotting: ON
Leap-frogging: ON
Train prefetcher on L0D bypass: OFF
No translation penalty for prefetchers: OFF
Prefetch to L0D only: OFF
Prefetch to L1D only: OFF
Clean evictions: ON
Commit loads: ON
Commit write: ON
Fill commit loads to L2C, LLC: ON
DRAM IO FREQUENCY: 6400
ROB SIZE: 352
Off-chip DRAM Size: 4096 MB Channels: 1 Width: 64-bit Data Rate: 6400 MT/s
CPU 0 runs /home/sumon/secure_berti/GhostMinion/../../traces/spec/649.fotonik3d_s-1176B.champsimtrace.xz
.xz
BTB has LRU replacement policy
ITLB has LRU replacement policy
DTLB has LRU replacement policy
STLB has LRU replacement policy
L1I has LRU replacement policy
L0D has LRU replacement policy
History Sets: 8
History Ways: 16
BERTI Size: 16
BERTI Stride Size: 16
L1D has LRU replacement policy
L2C has LRU replacement policy
LLC has LRU replacement policy
Heartbeat CPU 0 instructions: 10000003 cycles: 3141267 heartbeat IPC: 3.18343 cumulative IPC: 3.18343 (Simulation time: 0 hr 0 min 29 sec) 
Heartbeat CPU 0 instructions: 20000002 cycles: 6282157 heartbeat IPC: 3.18381 cumulative IPC: 3.18362 (Simulation time: 0 hr 0 min 57 sec) 
Heartbeat CPU 0 instructions: 30000000 cycles: 9424507 heartbeat IPC: 3.18233 cumulative IPC: 3.18319 (Simulation time: 0 hr 1 min 26 sec) 
Heartbeat CPU 0 instructions: 40000003 cycles: 12565721 heartbeat IPC: 3.18348 cumulative IPC: 3.18326 (Simulation time: 0 hr 1 min 54 sec) 
Heartbeat CPU 0 instructions: 50000001 cycles: 15708004 heartbeat IPC: 3.1824 cumulative IPC: 3.18309 (Simulation time: 0 hr 2 min 22 sec) 

Warmup complete CPU 0 instructions: 50000001 cycles: 15708004 (Simulation time: 0 hr 2 min 22 sec) 

Heartbeat CPU 0 instructions: 60000003 cycles: 25700787 heartbeat IPC: 1.00072 cumulative IPC: 1.00072 (Simulation time: 0 hr 2 min 55 sec) 
Heartbeat CPU 0 instructions: 70000000 cycles: 35689994 heartbeat IPC: 1.00108 cumulative IPC: 1.0009 (Simulation time: 0 hr 3 min 28 sec) 
Heartbeat CPU 0 instructions: 80000001 cycles: 45670370 heartbeat IPC: 1.00197 cumulative IPC: 1.00126 (Simulation time: 0 hr 4 min 2 sec) 
Heartbeat CPU 0 instructions: 90000000 cycles: 55647923 heartbeat IPC: 1.00225 cumulative IPC: 1.0015 (Simulation time: 0 hr 4 min 36 sec) 
Heartbeat CPU 0 instructions: 100000000 cycles: 65622758 heartbeat IPC: 1.00252 cumulative IPC: 1.00171 (Simulation time: 0 hr 5 min 10 sec) 
Heartbeat CPU 0 instructions: 110000000 cycles: 75591798 heartbeat IPC: 1.00311 cumulative IPC: 1.00194 (Simulation time: 0 hr 5 min 45 sec) 
Heartbeat CPU 0 instructions: 120000001 cycles: 85562761 heartbeat IPC: 1.00291 cumulative IPC: 1.00208 (Simulation time: 0 hr 6 min 20 sec) 
Heartbeat CPU 0 instructions: 130000002 cycles: 95532806 heartbeat IPC: 1.003 cumulative IPC: 1.00219 (Simulation time: 0 hr 6 min 55 sec) 
Heartbeat CPU 0 instructions: 140000003 cycles: 105505124 heartbeat IPC: 1.00278 cumulative IPC: 1.00226 (Simulation time: 0 hr 7 min 31 sec) 
Heartbeat CPU 0 instructions: 150000000 cycles: 115474897 heartbeat IPC: 1.00303 cumulative IPC: 1.00234 (Simulation time: 0 hr 8 min 6 sec) 
Heartbeat CPU 0 instructions: 160000000 cycles: 125451217 heartbeat IPC: 1.00237 cumulative IPC: 1.00234 (Simulation time: 0 hr 8 min 42 sec) 
Heartbeat CPU 0 instructions: 170000000 cycles: 135421609 heartbeat IPC: 1.00297 cumulative IPC: 1.00239 (Simulation time: 0 hr 9 min 19 sec) 
Heartbeat CPU 0 instructions: 180000001 cycles: 145391629 heartbeat IPC: 1.00301 cumulative IPC: 1.00244 (Simulation time: 0 hr 9 min 54 sec) 
Heartbeat CPU 0 instructions: 190000002 cycles: 155362273 heartbeat IPC: 1.00294 cumulative IPC: 1.00248 (Simulation time: 0 hr 10 min 31 sec) 
Heartbeat CPU 0 instructions: 200000003 cycles: 165331475 heartbeat IPC: 1.00309 cumulative IPC: 1.00252 (Simulation time: 0 hr 11 min 7 sec) 
Heartbeat CPU 0 instructions: 210000000 cycles: 175303217 heartbeat IPC: 1.00283 cumulative IPC: 1.00254 (Simulation time: 0 hr 11 min 43 sec) 
Heartbeat CPU 0 instructions: 220000000 cycles: 185272927 heartbeat IPC: 1.00304 cumulative IPC: 1.00257 (Simulation time: 0 hr 12 min 19 sec) 
Heartbeat CPU 0 instructions: 230000001 cycles: 195244121 heartbeat IPC: 1.00289 cumulative IPC: 1.00258 (Simulation time: 0 hr 12 min 55 sec) 
Heartbeat CPU 0 instructions: 240000000 cycles: 205214860 heartbeat IPC: 1.00293 cumulative IPC: 1.0026 (Simulation time: 0 hr 13 min 30 sec) 
Heartbeat CPU 0 instructions: 250000002 cycles: 215188804 heartbeat IPC: 1.00261 cumulative IPC: 1.0026 (Simulation time: 0 hr 14 min 4 sec) 
Finished CPU 0 instructions: 200000001 cycles: 199480800 cumulative IPC: 1.0026 (Simulation time: 0 hr 14 min 4 sec) 
 Instruction ID: 250000202

ChampSim completed all CPUs

Region of Interest Statistics

CPU 0 cumulative IPC: 1.0026 instructions: 200000001 cycles: 199480800
ITLB SPEC fills:          0  NON-SPEC fills:          0
ITLB Test counter :          0
ITLB Leapfrog:          0
ITLB MSHR merge:          0
ITLB TOTAL     ACCESS:   28065402  HIT:   28065402  MISS:          0  HIT %:        100  MISS %:          0   MPKI: 0
ITLB LOAD TRANSLATION NON_SPEC    ACCESS:   28065402  HIT:   28065402  MISS:          0  HIT %:        100  MISS %:          0   MPKI: 0
ITLB PREFETCH  REQUESTED:          0  ISSUED:          0  USEFUL:          0  USELESS:          0
ITLB USEFUL LOAD PREFETCHES:          0 PREFETCH ISSUED TO LOWER LEVEL:          0  ACCURACY: -nan
ITLB TIMELY PREFETCHES:          0 LATE PREFETCHES: 0 DROPPED PREFETCHES: 0
ITLB COMMIT LATE PREFETCHES: 0 MISSED OPPORTUNITY: 0 LATE IN PQ: 0 UNCOVERED: 0
ITLB COMMIT LATE MSHR PREFETCHES: 0
ITLB MPKI TOTAL: 0 MSHR LATE: 0 PQ LATE: 0 COMMIT LATE: 0 MISSED OPPORTUNITY: 0 UNCOVERED: 0
ITLB PREFETCHES SAME FILL-ORIGIN LEVEL: 0 DIFFERENT FILL-ORIGIN LEVEL: 0
ITLB AVERAGE MISS LATENCY: -nan cycles
ITLB AVERAGE MISS LATENCY LOAD: -nan cycles
ITLB AVERAGE MISS LATENCY PREFETCH: -nan cycles
ITLB AVERAGE MSHR OCCUPANCY: 0
ITLB MSHR FULL: 0
ITLB RQ	ACCESS:   35085984	FORWARD:          0	MERGED:    7020583	TO_CACHE:   28065401

DTLB SPEC fills:          0  NON-SPEC fills:          0
DTLB Test counter :          0
DTLB Leapfrog:          0
DTLB MSHR merge:          0
DTLB TOTAL     ACCESS:   37177037  HIT:   37130082  MISS:      46955  HIT %:    99.8737  MISS %:   0.126301   MPKI: 0.234775
DTLB LOAD TRANSLATION NON_SPEC    ACCESS:   37177037  HIT:   37130082  MISS:      46955  HIT %:    99.8737  MISS %:   0.126301   MPKI: 0.234775
DTLB PREFETCH  REQUESTED:          0  ISSUED:          0  USEFUL:          0  USELESS:          0
DTLB USEFUL LOAD PREFETCHES:          0 PREFETCH ISSUED TO LOWER LEVEL:          0  ACCURACY: -nan
DTLB TIMELY PREFETCHES:          0 LATE PREFETCHES: 0 DROPPED PREFETCHES: 0
DTLB COMMIT LATE PREFETCHES: 0 MISSED OPPORTUNITY: 0 LATE IN PQ: 0 UNCOVERED: 0
DTLB COMMIT LATE MSHR PREFETCHES: 0
DTLB MPKI TOTAL: 0 MSHR LATE: 0 PQ LATE: 0 COMMIT LATE: 0 MISSED OPPORTUNITY: 0 UNCOVERED: 0
DTLB PREFETCHES SAME FILL-ORIGIN LEVEL: 0 DIFFERENT FILL-ORIGIN LEVEL: 0
DTLB AVERAGE MISS LATENCY: 116.832 cycles
DTLB AVERAGE MISS LATENCY LOAD: -nan cycles
DTLB AVERAGE MISS LATENCY PREFETCH: -nan cycles
DTLB AVERAGE MSHR OCCUPANCY: 0.00815646
DTLB MSHR FULL: 0
DTLB RQ	ACCESS:   58042823	FORWARD:          0	MERGED:   20859048	TO_CACHE:   37183775

STLB SPEC fills:          0  NON-SPEC fills:          0
STLB Test counter :          0
STLB Leapfrog:          0
STLB MSHR merge:          0
STLB TOTAL     ACCESS:    6053895  HIT:    6026441  MISS:      27454  HIT %:    99.5465  MISS %:   0.453493   MPKI: 0.13727
STLB LOAD TRANSLATION NON_SPEC    ACCESS:      46955  HIT:      19501  MISS:      27454  HIT %:    41.5313  MISS %:    58.4687   MPKI: 0.13727
STLB TRANSLATION FROM L1D PREFETCHER NON_SPEC    ACCESS:    6006940  HIT:    6006940  MISS:          0  HIT %:        100  MISS %:          0   MPKI: 0
STLB PREFETCH  REQUESTED:          0  ISSUED:          0  USEFUL:          0  USELESS:          0
STLB USEFUL LOAD PREFETCHES:          0 PREFETCH ISSUED TO LOWER LEVEL:          0  ACCURACY: -nan
STLB TIMELY PREFETCHES:          0 LATE PREFETCHES: 9469 DROPPED PREFETCHES: 1730933
STLB COMMIT LATE PREFETCHES: 0 MISSED OPPORTUNITY: 0 LATE IN PQ: 0 UNCOVERED: 0
STLB COMMIT LATE MSHR PREFETCHES: 0
STLB MPKI TOTAL: 0 MSHR LATE: 0.047345 PQ LATE: 0 COMMIT LATE: 0 MISSED OPPORTUNITY: 0 UNCOVERED: 0
STLB PREFETCHES SAME FILL-ORIGIN LEVEL: 0 DIFFERENT FILL-ORIGIN LEVEL: 0
STLB AVERAGE MISS LATENCY: 187.07 cycles
STLB AVERAGE MISS LATENCY LOAD: -nan cycles
STLB AVERAGE MISS LATENCY PREFETCH: -nan cycles
STLB AVERAGE MSHR OCCUPANCY: 0.6426
STLB MSHR FULL: 0
STLB RQ	ACCESS:   40017937	FORWARD:          0	MERGED:   31979652	TO_CACHE:    8038285

STLB Hit, L1D data hit: 0
STLB Hit, L2C data hit: 0
STLB Hit, LLC data hit: 0
STLB Hit, LLC data miss: 0
STLB STLB hints to L2: 0
L0D SPEC fills:   28772840  NON-SPEC fills:          0
L0D TimeGuard Request with older TS:       7999 Restricted eviction:        356 read:     196025
L0D Test counter :          0
L0D Leapfrog:          0
L0D MSHR merge:    5755421
L0D TOTAL     ACCESS:   38246305  HIT:    3362475  MISS:   34883830  HIT %:    8.79163  MISS %:    91.2084   MPKI: 174.419
L0D LOAD      TOTAL       ACCESS:   38246305  HIT:    3362475  MISS:   34883830  HIT %:    8.79163  MISS %:    91.2084   MPKI: 174.419
L0D LOAD      NON_SPEC    ACCESS:    6122310  HIT:      11676  MISS:    6110634  HIT %:   0.190712  MISS %:    99.8093   MPKI: 30.5532
L0D LOAD      SPEC        ACCESS:   32123995  HIT:    3350799  MISS:   28773196  HIT %:    10.4308  MISS %:    89.5692   MPKI: 143.866
L0D PREFETCH  REQUESTED:          0  ISSUED:          0  USEFUL:          0  USELESS:          0
L0D USEFUL LOAD PREFETCHES:          0 PREFETCH ISSUED TO LOWER LEVEL:          0  ACCURACY: -nan
L0D TIMELY PREFETCHES:          0 LATE PREFETCHES: 0 DROPPED PREFETCHES: 0
L0D COMMIT LATE PREFETCHES: 0 MISSED OPPORTUNITY: 0 LATE IN PQ: 0 UNCOVERED: 0
L0D COMMIT LATE MSHR PREFETCHES: 0
L0D MPKI TOTAL: 203.196 MSHR LATE: 0 PQ LATE: 0 COMMIT LATE: 0 MISSED OPPORTUNITY: 0 UNCOVERED: 0
L0D PREFETCHES SAME FILL-ORIGIN LEVEL: 0 DIFFERENT FILL-ORIGIN LEVEL: 0
L0D AVERAGE MISS LATENCY: 5.47941 cycles
L0D AVERAGE MISS LATENCY LOAD: 5.47941 cycles
L0D AVERAGE MISS LATENCY PREFETCH: -nan cycles
L0D AVERAGE MSHR OCCUPANCY: 1.24179
L0D MSHR FULL: 1.81811e-07
L0D RQ	ACCESS:   70165957	FORWARD:          0	MERGED:   26164232	TO_CACHE:   44001725
L0D WQ	ACCESS:   14041098	FORWARD:          0	MERGED:          0	TO_CACHE:   14041098

L1D SPEC fills:          0  NON-SPEC fills:      27784
L1D Test counter :          0
L1D Leapfrog:          0
L1D MSHR merge:      21782
L1D TOTAL     ACCESS:   82523287  HIT:   79822111  MISS:    2701176  HIT %:    96.7268  MISS %:    3.27323   MPKI: 13.5059
L1D LOAD      TOTAL       ACCESS:   34883433  HIT:   34814979  MISS:      68454  HIT %:    99.8038  MISS %:   0.196236   MPKI: 0.34227
L1D LOAD      NON_SPEC    ACCESS:    6110623  HIT:    6082839  MISS:      27784  HIT %:    99.5453  MISS %:   0.454684   MPKI: 0.13892
L1D LOAD      SPEC        ACCESS:   28772810  HIT:   28732140  MISS:      40670  HIT %:    99.8587  MISS %:   0.141349   MPKI: 0.20335
L1D RFO       NON_SPEC    ACCESS:   14015535  HIT:   14012799  MISS:       2736  HIT %:    99.9805  MISS %:  0.0195212   MPKI: 0.01368
L1D PREFETCH  NON_SPEC    ACCESS:   33436998  HIT:   30847503  MISS:    2589495  HIT %:    92.2556  MISS %:     7.7444   MPKI: 12.9475
L1D COMMIT LOAD NON_SPEC    ACCESS:     143611  HIT:     143470  MISS:        141  HIT %:    99.9018  MISS %:  0.0981819   MPKI: 0.000705
L1D COMMIT WRITE NON_SPEC    ACCESS:      43710  HIT:       3360  MISS:      40350  HIT %:    7.68703  MISS %:     92.313   MPKI: 0.20175
L1D PREFETCH  REQUESTED:   57986977  ISSUED:   44089419  USEFUL:    2575807  USELESS:      13703
L1D USEFUL LOAD PREFETCHES:    2575807 PREFETCH ISSUED TO LOWER LEVEL:    5343383  ACCURACY: 48.2055
L1D TIMELY PREFETCHES:    2575807 LATE PREFETCHES: 21385 DROPPED PREFETCHES: 3122846
L1D COMMIT LATE PREFETCHES: 0 MISSED OPPORTUNITY: 0 LATE IN PQ: 0 UNCOVERED: 0
L1D COMMIT LATE MSHR PREFETCHES: 0
L1D MPKI TOTAL: 0.344255 MSHR LATE: 0.106925 PQ LATE: 0 COMMIT LATE: 0 MISSED OPPORTUNITY: 0 UNCOVERED: 0
L1D PREFETCHES SAME FILL-ORIGIN LEVEL: 2610884 DIFFERENT FILL-ORIGIN LEVEL: 2732499
L1D AVERAGE MISS LATENCY: 69.2929 cycles
L1D AVERAGE MISS LATENCY LOAD: 148.623 cycles
L1D AVERAGE MISS LATENCY PREFETCH: 68.3341 cycles
L1D AVERAGE MSHR OCCUPANCY: 0.703094
L1D MSHR FULL: 0
L1D RQ	ACCESS:   35118612	FORWARD:          0	MERGED:      91086	TO_CACHE:   35027511
L1D WQ	ACCESS:   14084806	FORWARD:         15	MERGED:      19035	TO_CACHE:   14065771
L1D PQ	ACCESS:   44089419	FORWARD:          0	MERGED:    4118437	TO_CACHE:   39970982

L1D UNIQUE REGIONS ACCESSED: 0
L1D REGIONS CONFLICTS: 0
L1D Cross Page Prefetch Requests: 6939146
L1D Same Page Prefetch Requests: 46817914
L1D ROI Sum of L1D PQ occupancy: 1637938889
L1D PREFETCHES PUSHED FROM L2C: 0
L1I SPEC fills:          0  NON-SPEC fills:          0
L1I Test counter :          0
L1I Leapfrog:          0
L1I MSHR merge:          0
L1I TOTAL     ACCESS:   35085985  HIT:   35085985  MISS:          0  HIT %:        100  MISS %:          0   MPKI: 0
L1I LOAD      TOTAL       ACCESS:   35085985  HIT:   35085985  MISS:          0  HIT %:        100  MISS %:          0   MPKI: 0
L1I LOAD      NON_SPEC    ACCESS:   35085985  HIT:   35085985  MISS:          0  HIT %:        100  MISS %:          0   MPKI: 0
L1I PREFETCH  REQUESTED:          0  ISSUED:          0  USEFUL:          0  USELESS:          0
L1I USEFUL LOAD PREFETCHES:          0 PREFETCH ISSUED TO LOWER LEVEL:          0  ACCURACY: -nan
L1I TIMELY PREFETCHES:          0 LATE PREFETCHES: 0 DROPPED PREFETCHES: 0
L1I COMMIT LATE PREFETCHES: 0 MISSED OPPORTUNITY: 0 LATE IN PQ: 0 UNCOVERED: 0
L1I COMMIT LATE MSHR PREFETCHES: 0
L1I MPKI TOTAL: 0 MSHR LATE: 0 PQ LATE: 0 COMMIT LATE: 0 MISSED OPPORTUNITY: 0 UNCOVERED: 0
L1I PREFETCHES SAME FILL-ORIGIN LEVEL: 0 DIFFERENT FILL-ORIGIN LEVEL: 0
L1I AVERAGE MISS LATENCY: -nan cycles
L1I AVERAGE MISS LATENCY LOAD: -nan cycles
L1I AVERAGE MISS LATENCY PREFETCH: -nan cycles
L1I AVERAGE MSHR OCCUPANCY: 0
L1I MSHR FULL: 0
L1I RQ	ACCESS:   45635518	FORWARD:          0	MERGED:   10549534	TO_CACHE:   35085984

BTB SPEC fills:          0  NON-SPEC fills:          0
BTB Test counter :          0
BTB Leapfrog:          0
BTB MSHR merge:          0
BTB TOTAL     ACCESS:    3509176  HIT:    3509167  MISS:          9  HIT %:    99.9997  MISS %: 0.00025647   MPKI: 4.5e-05
BTB BRANCH_DIRECT_JUMP	ACCESS:        876  HIT:        874  MISS:          2
BTB BRANCH_INDIRECT	ACCESS:          0  HIT:          0  MISS:          0
BTB BRANCH_CONDITIONAL	ACCESS:    3506548  HIT:    3506545  MISS:          3
BTB BRANCH_DIRECT_CALL	ACCESS:        876  HIT:        874  MISS:          2
BTB BRANCH_INDIRECT_CALL	ACCESS:          0  HIT:          0  MISS:          0
BTB BRANCH_RETURN	ACCESS:        876  HIT:        874  MISS:          2
BTB BRANCH_OTHER ACCESS:          0  HIT:          0  MISS:          0

L2C SPEC fills:          0  NON-SPEC fills:      18624
L2C Test counter :          0
L2C Leapfrog:          0
L2C MSHR merge:        327
L2C TOTAL     ACCESS:   15403846  HIT:   13624261  MISS:    1779585  HIT %:    88.4471  MISS %:    11.5529   MPKI: 8.89792
L2C LOAD      TOTAL       ACCESS:      47069  HIT:      12425  MISS:      34644  HIT %:    26.3974  MISS %:    73.6026   MPKI: 0.17322
L2C LOAD      NON_SPEC    ACCESS:      22559  HIT:       3935  MISS:      18624  HIT %:    17.4431  MISS %:    82.5569   MPKI: 0.09312
L2C LOAD      SPEC        ACCESS:      24510  HIT:       8490  MISS:      16020  HIT %:    34.6389  MISS %:    65.3611   MPKI: 0.0801
L2C RFO       NON_SPEC    ACCESS:       2736  HIT:       2624  MISS:        112  HIT %:    95.9064  MISS %:    4.09357   MPKI: 0.00056
L2C PREFETCH  NON_SPEC    ACCESS:    4842641  HIT:    3117958  MISS:    1724683  HIT %:    64.3855  MISS %:    35.6145   MPKI: 8.62341
L2C WRITEBACK NON_SPEC    ACCESS:    1726204  HIT:    1726204  MISS:          0  HIT %:        100  MISS %:          0   MPKI: 0
L2C CLEAN_EVICTION NON_SPEC    ACCESS:      35225  HIT:      19032  MISS:      16193  HIT %:    54.0298  MISS %:    45.9702   MPKI: 0.080965
L2C COMMIT LOAD NON_SPEC    ACCESS:        141  HIT:        121  MISS:         20  HIT %:    85.8156  MISS %:    14.1844   MPKI: 0.0001
L2C LOAD TRANSLATION NON_SPEC    ACCESS:     137180  HIT:     137098  MISS:         82  HIT %:    99.9402  MISS %:  0.0597755   MPKI: 0.00041
L2C TRANSLATION FROM L1D PREFETCHER NON_SPEC    ACCESS:    8612650  HIT:    8608799  MISS:       3851  HIT %:    99.9553  MISS %:  0.0447133   MPKI: 0.019255
L2C PREFETCH  REQUESTED:          0  ISSUED:          0  USEFUL:       6979  USELESS:    1719763
L2C USEFUL LOAD PREFETCHES:       6979 PREFETCH ISSUED TO LOWER LEVEL:    1725017  ACCURACY: 0.404576
L2C TIMELY PREFETCHES:       6979 LATE PREFETCHES: 327 DROPPED PREFETCHES: 0
L2C COMMIT LATE PREFETCHES: 0 MISSED OPPORTUNITY: 0 LATE IN PQ: 0 UNCOVERED: 0
L2C COMMIT LATE MSHR PREFETCHES: 0
L2C MPKI TOTAL: 0.17322 MSHR LATE: 0.001635 PQ LATE: 0 COMMIT LATE: 0 MISSED OPPORTUNITY: 0 UNCOVERED: 0
L2C PREFETCHES SAME FILL-ORIGIN LEVEL: 1037799 DIFFERENT FILL-ORIGIN LEVEL: 0
L2C AVERAGE MISS LATENCY: 186.868 cycles
L2C AVERAGE MISS LATENCY LOAD: 171.413 cycles
L2C AVERAGE MISS LATENCY PREFETCH: 188.939 cycles
L2C AVERAGE MSHR OCCUPANCY: 1.18759
L2C MSHR FULL: 0
L2C RQ	ACCESS:    8799777	FORWARD:          0	MERGED:          0	TO_CACHE:    8799777
L2C WQ	ACCESS:    1761429	FORWARD:          0	MERGED:          0	TO_CACHE:    1761429
L2C PQ	ACCESS:    5343383	FORWARD:          0	MERGED:          0	TO_CACHE:    5343383

L2C Instructions Evicting Data 0
L2C Translations Evicting Data 3885
L2C Data Evicting Data 1739605
L2C Instructions Evicting Instructions 0
L2C Translations Evicting Instructions 0
L2C Data Evicting Instructions 0
L2C Instructions Evicting Translations 0
L2C Translations Evicting Translations 48
L2C Data Evicting Translations 3834
L2C Dense regions hint from L2: 0
PSCL5 SPEC fills:          0  NON-SPEC fills:          0
PSCL5 Test counter :          0
PSCL5 Leapfrog:          0
PSCL5 MSHR merge:          0
PSCL5 TOTAL     ACCESS:          0  HIT:          0  MISS:          0  HIT %:       -nan  MISS %:       -nan   MPKI: 0
PSCL5 PREFETCH  REQUESTED:          0  ISSUED:          0  USEFUL:          0  USELESS:          0
PSCL5 USEFUL LOAD PREFETCHES:          0 PREFETCH ISSUED TO LOWER LEVEL:          0  ACCURACY: -nan
PSCL5 TIMELY PREFETCHES:          0 LATE PREFETCHES: 0 DROPPED PREFETCHES: 0
PSCL5 COMMIT LATE PREFETCHES: 0 MISSED OPPORTUNITY: 0 LATE IN PQ: 0 UNCOVERED: 0
PSCL5 COMMIT LATE MSHR PREFETCHES: 0
PSCL5 MPKI TOTAL: 0 MSHR LATE: 0 PQ LATE: 0 COMMIT LATE: 0 MISSED OPPORTUNITY: 0 UNCOVERED: 0
PSCL5 PREFETCHES SAME FILL-ORIGIN LEVEL: 0 DIFFERENT FILL-ORIGIN LEVEL: 0

PSCL4 SPEC fills:          0  NON-SPEC fills:          0
PSCL4 Test counter :          0
PSCL4 Leapfrog:          0
PSCL4 MSHR merge:          0
PSCL4 TOTAL     ACCESS:          0  HIT:          0  MISS:          0  HIT %:       -nan  MISS %:       -nan   MPKI: 0
PSCL4 PREFETCH  REQUESTED:          0  ISSUED:          0  USEFUL:          0  USELESS:          0
PSCL4 USEFUL LOAD PREFETCHES:          0 PREFETCH ISSUED TO LOWER LEVEL:          0  ACCURACY: -nan
PSCL4 TIMELY PREFETCHES:          0 LATE PREFETCHES: 0 DROPPED PREFETCHES: 0
PSCL4 COMMIT LATE PREFETCHES: 0 MISSED OPPORTUNITY: 0 LATE IN PQ: 0 UNCOVERED: 0
PSCL4 COMMIT LATE MSHR PREFETCHES: 0
PSCL4 MPKI TOTAL: 0 MSHR LATE: 0 PQ LATE: 0 COMMIT LATE: 0 MISSED OPPORTUNITY: 0 UNCOVERED: 0
PSCL4 PREFETCHES SAME FILL-ORIGIN LEVEL: 0 DIFFERENT FILL-ORIGIN LEVEL: 0

PSCL3 SPEC fills:          0  NON-SPEC fills:          0
PSCL3 Test counter :          0
PSCL3 Leapfrog:          0
PSCL3 MSHR merge:          0
PSCL3 TOTAL     ACCESS:          0  HIT:          0  MISS:          0  HIT %:       -nan  MISS %:       -nan   MPKI: 0
PSCL3 PREFETCH  REQUESTED:          0  ISSUED:          0  USEFUL:          0  USELESS:          0
PSCL3 USEFUL LOAD PREFETCHES:          0 PREFETCH ISSUED TO LOWER LEVEL:          0  ACCURACY: -nan
PSCL3 TIMELY PREFETCHES:          0 LATE PREFETCHES: 0 DROPPED PREFETCHES: 0
PSCL3 COMMIT LATE PREFETCHES: 0 MISSED OPPORTUNITY: 0 LATE IN PQ: 0 UNCOVERED: 0
PSCL3 COMMIT LATE MSHR PREFETCHES: 0
PSCL3 MPKI TOTAL: 0 MSHR LATE: 0 PQ LATE: 0 COMMIT LATE: 0 MISSED OPPORTUNITY: 0 UNCOVERED: 0
PSCL3 PREFETCHES SAME FILL-ORIGIN LEVEL: 0 DIFFERENT FILL-ORIGIN LEVEL: 0

PSCL2 SPEC fills:          0  NON-SPEC fills:          0
PSCL2 Test counter :          0
PSCL2 Leapfrog:          0
PSCL2 MSHR merge:          0
PSCL2 TOTAL     ACCESS:          0  HIT:          0  MISS:          0  HIT %:       -nan  MISS %:       -nan   MPKI: 0
PSCL2 PREFETCH  REQUESTED:          0  ISSUED:          0  USEFUL:          0  USELESS:          0
PSCL2 USEFUL LOAD PREFETCHES:          0 PREFETCH ISSUED TO LOWER LEVEL:          0  ACCURACY: -nan
PSCL2 TIMELY PREFETCHES:          0 LATE PREFETCHES: 0 DROPPED PREFETCHES: 0
PSCL2 COMMIT LATE PREFETCHES: 0 MISSED OPPORTUNITY: 0 LATE IN PQ: 0 UNCOVERED: 0
PSCL2 COMMIT LATE MSHR PREFETCHES: 0
PSCL2 MPKI TOTAL: 0 MSHR LATE: 0 PQ LATE: 0 COMMIT LATE: 0 MISSED OPPORTUNITY: 0 UNCOVERED: 0
PSCL2 PREFETCHES SAME FILL-ORIGIN LEVEL: 0 DIFFERENT FILL-ORIGIN LEVEL: 0

LLC SPEC fills:          0  NON-SPEC fills:      17997
LLC Test counter :          0
LLC Leapfrog:          0
LLC MSHR merge:          0
LLC TOTAL     ACCESS:    3520553  HIT:    1749172  MISS:    1771381  HIT %:    49.6846  MISS %:    50.3154   MPKI: 8.8569
LLC LOAD      TOTAL       ACCESS:      34314  HIT:       3889  MISS:      30425  HIT %:    11.3336  MISS %:    88.6664   MPKI: 0.152125
LLC LOAD      NON_SPEC    ACCESS:      18589  HIT:        592  MISS:      17997  HIT %:    3.18468  MISS %:    96.8153   MPKI: 0.089985
LLC LOAD      SPEC        ACCESS:      15725  HIT:       3297  MISS:      12428  HIT %:    20.9666  MISS %:    79.0334   MPKI: 0.06214
LLC RFO       NON_SPEC    ACCESS:        112  HIT:        112  MISS:          0  HIT %:        100  MISS %:          0   MPKI: 0
LLC PREFETCH  NON_SPEC    ACCESS:    1725011  HIT:        240  MISS:    1724771  HIT %:   0.013913  MISS %:    99.9861   MPKI: 8.62385
LLC WRITEBACK NON_SPEC    ACCESS:    1721760  HIT:    1721737  MISS:         23  HIT %:    99.9987  MISS %: 0.00133584   MPKI: 0.000115
LLC CLEAN_EVICTION NON_SPEC    ACCESS:      35403  HIT:      22825  MISS:      12578  HIT %:    64.4719  MISS %:    35.5281   MPKI: 0.06289
LLC COMMIT LOAD NON_SPEC    ACCESS:         20  HIT:         14  MISS:          6  HIT %:         70  MISS %:         30   MPKI: 3e-05
LLC LOAD TRANSLATION NON_SPEC    ACCESS:         82  HIT:          2  MISS:         80  HIT %:    2.43902  MISS %:     97.561   MPKI: 0.0004
LLC TRANSLATION FROM L1D PREFETCHER NON_SPEC    ACCESS:       3851  HIT:        353  MISS:       3498  HIT %:    9.16645  MISS %:    90.8335   MPKI: 0.01749
LLC PREFETCH  REQUESTED:          0  ISSUED:          0  USEFUL:        522  USELESS:    1727690
LLC USEFUL LOAD PREFETCHES:        522 PREFETCH ISSUED TO LOWER LEVEL:    1724777  ACCURACY: 0.0302648
LLC TIMELY PREFETCHES:        522 LATE PREFETCHES: 0 DROPPED PREFETCHES: 0
LLC COMMIT LATE PREFETCHES: 0 MISSED OPPORTUNITY: 0 LATE IN PQ: 0 UNCOVERED: 0
LLC COMMIT LATE MSHR PREFETCHES: 0
LLC MPKI TOTAL: 0.152125 MSHR LATE: 0 PQ LATE: 0 COMMIT LATE: 0 MISSED OPPORTUNITY: 0 UNCOVERED: 0
LLC PREFETCHES SAME FILL-ORIGIN LEVEL: 0 DIFFERENT FILL-ORIGIN LEVEL: 0
LLC AVERAGE MISS LATENCY: 157.962 cycles
LLC AVERAGE MISS LATENCY LOAD: 164.714 cycles
LLC AVERAGE MISS LATENCY PREFETCH: 158.962 cycles
LLC AVERAGE MSHR OCCUPANCY: 0.603116
LLC MSHR FULL: 0
LLC RQ	ACCESS:      38382	FORWARD:          0	MERGED:          0	TO_CACHE:      38379
LLC WQ	ACCESS:    1757163	FORWARD:          3	MERGED:          0	TO_CACHE:    1757163
LLC PQ	ACCESS:    1725017	FORWARD:          0	MERGED:          0	TO_CACHE:    1725017

LLC Dense regions hint to LLC: 0

RAW hits: 3162
Loads Generated: 70169119
Loads sent to L1D: 70165957
Stores Generated: 14041096
Stores sent to L1D: 14041098
Major fault: 0 Minor fault: 34498
Allocated PAGES: 34498
Total Load insts: 87707119
Total Non-spec loads: 10863265
Percentage of speculative loads: 87.6142

LeapFrogging counter: 0
Commit hits: 28766056 miss: 31887437
Commit hit %: 47.4269 miss %: 52.5731
Commits not translated: 0
Loads retired: 68454
Stores retired: 14041098
Cache fills: 68454
L1D response latency: 148.623 cycles
Load retirement latency: 264.27 cycles
OOO test counter: 0
Discarded buffer inserts: 28766056 hits: 185 hit %: 0.000643119
Filter prediction accuracy: 99.9995
LATENCY_FILL: 146.446 68691

DRAM Statistics
 CHANNEL 0
 RQ ROW_BUFFER_HIT:     432164  ROW_BUFFER_MISS:    1326616
 DBUS_CONGESTED:       2913
 WQ ROW_BUFFER_HIT:    1139581  ROW_BUFFER_MISS:     614104  FULL:          0

 AVG_CONGESTED_CYCLE: 5
 All warmup complete: 2
Channel 0 Bank busy for read cycles: 0
Channel 0 Bank busy for write cycles: 0
Channel 0
Rank 0
0banks busy for read cycles: 44523246
0banks busy for write cycles: 82251
1banks busy for read cycles: 55133665
1banks busy for write cycles: 6754167
2banks busy for read cycles: 28133895
2banks busy for write cycles: 4153670
3banks busy for read cycles: 10682872
3banks busy for write cycles: 3104861
4banks busy for read cycles: 4968911
4banks busy for write cycles: 2809366
5banks busy for read cycles: 2331456
5banks busy for write cycles: 2718166
6banks busy for read cycles: 1537199
6banks busy for write cycles: 3054381
7banks busy for read cycles: 980492
7banks busy for write cycles: 4528679
8banks busy for read cycles: 3695349
8banks busy for write cycles: 20288175

CPU 0 Branch Prediction Accuracy: 99.9751% MPKI: 0.00438 Average ROB Occupancy at Mispredict: 49.9749
Branch types
NOT_BRANCH: 196487581 98.2438%
BRANCH_DIRECT_JUMP: 876 0.000438%
BRANCH_INDIRECT: 0 0%
BRANCH_CONDITIONAL: 3509614 1.75481%
BRANCH_DIRECT_CALL: 876 0.000438%
BRANCH_INDIRECT_CALL: 0 0%
BRANCH_RETURN: 876 0.000438%
BRANCH_OTHER: 0 0%

DRAM PAGES: 1048576
Allocated PAGES: 34498
