
*** ChampSim Multicore Out-of-Order Simulator ***

Warmup Instructions: 50000000
Simulation Instructions: 200000000
Number of CPUs: 1
LLC sets: 2048
LLC ways: 16
L0D sets: 16
L0D ways: 2
ROB size: 352
LQ size: 128
SQ size: 72
Secure Berti: OFF
Berti: OFF
Berti Fill: OFF
On commit prefetching: OFF
Hit-based filter: ON
Time-guarding: ON
Free-slotting: ON
Leap-frogging: ON
Train prefetcher on L0D bypass: OFF
No translation penalty for prefetchers: OFF
Prefetch to L0D only: OFF
Prefetch to L1D only: OFF
Clean evictions: ON
Commit loads: ON
Commit write: ON
Fill commit loads to L2C, LLC: ON
DRAM IO FREQUENCY: 6400
ROB SIZE: 352
Off-chip DRAM Size: 4096 MB Channels: 1 Width: 64-bit Data Rate: 6400 MT/s
CPU 0 runs /home/sumon/secure_berti/GhostMinion/../../traces/spec/654.roms_s-1070B.champsimtrace.xz
.xz
BTB has LRU replacement policy
ITLB has LRU replacement policy
DTLB has LRU replacement policy
STLB has LRU replacement policy
L1I has LRU replacement policy
L0D has LRU replacement policy
History Sets: 8
History Ways: 16
BERTI Size: 16
BERTI Stride Size: 16
L1D has LRU replacement policy
L2C has LRU replacement policy
LLC has LRU replacement policy
Heartbeat CPU 0 instructions: 10000002 cycles: 4630563 heartbeat IPC: 2.15956 cumulative IPC: 2.15956 (Simulation time: 0 hr 0 min 37 sec) 
Heartbeat CPU 0 instructions: 20000002 cycles: 8559182 heartbeat IPC: 2.54542 cumulative IPC: 2.33667 (Simulation time: 0 hr 1 min 14 sec) 
Heartbeat CPU 0 instructions: 30000003 cycles: 11777956 heartbeat IPC: 3.10677 cumulative IPC: 2.54713 (Simulation time: 0 hr 1 min 49 sec) 
Heartbeat CPU 0 instructions: 40000001 cycles: 17114049 heartbeat IPC: 1.87403 cumulative IPC: 2.33726 (Simulation time: 0 hr 2 min 27 sec) 
Heartbeat CPU 0 instructions: 50000001 cycles: 20453669 heartbeat IPC: 2.99435 cumulative IPC: 2.44455 (Simulation time: 0 hr 3 min 2 sec) 

Warmup complete CPU 0 instructions: 50000001 cycles: 20453669 (Simulation time: 0 hr 3 min 2 sec) 

Heartbeat CPU 0 instructions: 60000000 cycles: 33949007 heartbeat IPC: 0.740997 cumulative IPC: 0.740997 (Simulation time: 0 hr 3 min 51 sec) 
Heartbeat CPU 0 instructions: 70000002 cycles: 42976674 heartbeat IPC: 1.10771 cumulative IPC: 0.887981 (Simulation time: 0 hr 4 min 29 sec) 
Heartbeat CPU 0 instructions: 80000003 cycles: 53761320 heartbeat IPC: 0.927244 cumulative IPC: 0.900694 (Simulation time: 0 hr 5 min 10 sec) 
Heartbeat CPU 0 instructions: 90000000 cycles: 65504125 heartbeat IPC: 0.851585 cumulative IPC: 0.887893 (Simulation time: 0 hr 5 min 55 sec) 
Heartbeat CPU 0 instructions: 100000003 cycles: 74070013 heartbeat IPC: 1.16742 cumulative IPC: 0.932552 (Simulation time: 0 hr 6 min 32 sec) 
Heartbeat CPU 0 instructions: 110000000 cycles: 87962384 heartbeat IPC: 0.719819 cumulative IPC: 0.888774 (Simulation time: 0 hr 7 min 20 sec) 
Heartbeat CPU 0 instructions: 120000002 cycles: 96531927 heartbeat IPC: 1.16692 cumulative IPC: 0.920105 (Simulation time: 0 hr 7 min 57 sec) 
Heartbeat CPU 0 instructions: 130000002 cycles: 108044123 heartbeat IPC: 0.868644 cumulative IPC: 0.913342 (Simulation time: 0 hr 8 min 39 sec) 
Heartbeat CPU 0 instructions: 140000001 cycles: 119144827 heartbeat IPC: 0.900844 cumulative IPC: 0.911936 (Simulation time: 0 hr 9 min 22 sec) 
Heartbeat CPU 0 instructions: 150000001 cycles: 127872900 heartbeat IPC: 1.14573 cumulative IPC: 0.930932 (Simulation time: 0 hr 9 min 59 sec) 
Heartbeat CPU 0 instructions: 160000000 cycles: 141661847 heartbeat IPC: 0.725218 cumulative IPC: 0.90753 (Simulation time: 0 hr 10 min 47 sec) 
Heartbeat CPU 0 instructions: 170000000 cycles: 150171968 heartbeat IPC: 1.17507 cumulative IPC: 0.925081 (Simulation time: 0 hr 11 min 24 sec) 
Heartbeat CPU 0 instructions: 180000002 cycles: 162263695 heartbeat IPC: 0.827012 cumulative IPC: 0.916719 (Simulation time: 0 hr 12 min 9 sec) 
Heartbeat CPU 0 instructions: 190000000 cycles: 172684845 heartbeat IPC: 0.959587 cumulative IPC: 0.919654 (Simulation time: 0 hr 12 min 50 sec) 
Heartbeat CPU 0 instructions: 200000001 cycles: 182726714 heartbeat IPC: 0.995831 cumulative IPC: 0.924368 (Simulation time: 0 hr 13 min 29 sec) 
Heartbeat CPU 0 instructions: 210000001 cycles: 196479590 heartbeat IPC: 0.727121 cumulative IPC: 0.908957 (Simulation time: 0 hr 14 min 17 sec) 
Heartbeat CPU 0 instructions: 220000000 cycles: 208600951 heartbeat IPC: 0.82499 cumulative IPC: 0.903547 (Simulation time: 0 hr 14 min 57 sec) 
Heartbeat CPU 0 instructions: 230000002 cycles: 222584566 heartbeat IPC: 0.715123 cumulative IPC: 0.890512 (Simulation time: 0 hr 15 min 43 sec) 
Heartbeat CPU 0 instructions: 240000000 cycles: 235257316 heartbeat IPC: 0.789095 cumulative IPC: 0.884529 (Simulation time: 0 hr 16 min 24 sec) 
Heartbeat CPU 0 instructions: 250000001 cycles: 247686814 heartbeat IPC: 0.804538 cumulative IPC: 0.880153 (Simulation time: 0 hr 17 min 3 sec) 
Finished CPU 0 instructions: 200000000 cycles: 227233145 cumulative IPC: 0.880153 (Simulation time: 0 hr 17 min 3 sec) 
 Instruction ID: 250000033

ChampSim completed all CPUs

Region of Interest Statistics

CPU 0 cumulative IPC: 0.880153 instructions: 200000000 cycles: 227233145
ITLB SPEC fills:          0  NON-SPEC fills:          0
ITLB Test counter :          0
ITLB Leapfrog:          0
ITLB MSHR merge:          0
ITLB TOTAL     ACCESS:   28959922  HIT:   28959921  MISS:          1  HIT %:        100  MISS %: 3.45305e-06   MPKI: 5e-06
ITLB LOAD TRANSLATION NON_SPEC    ACCESS:   28959922  HIT:   28959921  MISS:          1  HIT %:        100  MISS %: 3.45305e-06   MPKI: 5e-06
ITLB PREFETCH  REQUESTED:          0  ISSUED:          0  USEFUL:          0  USELESS:          0
ITLB USEFUL LOAD PREFETCHES:          0 PREFETCH ISSUED TO LOWER LEVEL:          0  ACCURACY: -nan
ITLB TIMELY PREFETCHES:          0 LATE PREFETCHES: 0 DROPPED PREFETCHES: 0
ITLB COMMIT LATE PREFETCHES: 0 MISSED OPPORTUNITY: 0 LATE IN PQ: 0 UNCOVERED: 0
ITLB COMMIT LATE MSHR PREFETCHES: 0
ITLB MPKI TOTAL: 0 MSHR LATE: 0 PQ LATE: 0 COMMIT LATE: 0 MISSED OPPORTUNITY: 0 UNCOVERED: 0
ITLB PREFETCHES SAME FILL-ORIGIN LEVEL: 0 DIFFERENT FILL-ORIGIN LEVEL: 0
ITLB AVERAGE MISS LATENCY: 564 cycles
ITLB AVERAGE MISS LATENCY LOAD: -nan cycles
ITLB AVERAGE MISS LATENCY PREFETCH: -nan cycles
ITLB AVERAGE MSHR OCCUPANCY: 0
ITLB MSHR FULL: 0
ITLB RQ	ACCESS:   33185782	FORWARD:          0	MERGED:    4225861	TO_CACHE:   28959921

DTLB SPEC fills:          0  NON-SPEC fills:          0
DTLB Test counter :          0
DTLB Leapfrog:          0
DTLB MSHR merge:          0
DTLB TOTAL     ACCESS:   57246957  HIT:   57140823  MISS:     106134  HIT %:    99.8146  MISS %:   0.185397   MPKI: 0.53067
DTLB LOAD TRANSLATION NON_SPEC    ACCESS:   57246957  HIT:   57140823  MISS:     106134  HIT %:    99.8146  MISS %:   0.185397   MPKI: 0.53067
DTLB PREFETCH  REQUESTED:          0  ISSUED:          0  USEFUL:          0  USELESS:          0
DTLB USEFUL LOAD PREFETCHES:          0 PREFETCH ISSUED TO LOWER LEVEL:          0  ACCURACY: -nan
DTLB TIMELY PREFETCHES:          0 LATE PREFETCHES: 0 DROPPED PREFETCHES: 0
DTLB COMMIT LATE PREFETCHES: 0 MISSED OPPORTUNITY: 0 LATE IN PQ: 0 UNCOVERED: 0
DTLB COMMIT LATE MSHR PREFETCHES: 0
DTLB MPKI TOTAL: 0 MSHR LATE: 0 PQ LATE: 0 COMMIT LATE: 0 MISSED OPPORTUNITY: 0 UNCOVERED: 0
DTLB PREFETCHES SAME FILL-ORIGIN LEVEL: 0 DIFFERENT FILL-ORIGIN LEVEL: 0
DTLB AVERAGE MISS LATENCY: 180.963 cycles
DTLB AVERAGE MISS LATENCY LOAD: -nan cycles
DTLB AVERAGE MISS LATENCY PREFETCH: -nan cycles
DTLB AVERAGE MSHR OCCUPANCY: 0.0303206
DTLB MSHR FULL: 9.22275e-05
DTLB RQ	ACCESS:   64783695	FORWARD:          0	MERGED:    7365760	TO_CACHE:   57417935

STLB SPEC fills:          0  NON-SPEC fills:          0
STLB Test counter :          0
STLB Leapfrog:          0
STLB MSHR merge:          0
STLB TOTAL     ACCESS:   14296901  HIT:   14200681  MISS:      96220  HIT %:     99.327  MISS %:   0.673013   MPKI: 0.4811
STLB LOAD TRANSLATION NON_SPEC    ACCESS:     106135  HIT:      39597  MISS:      66538  HIT %:    37.3081  MISS %:    62.6919   MPKI: 0.33269
STLB TRANSLATION FROM L1D PREFETCHER NON_SPEC    ACCESS:   14190766  HIT:   14161084  MISS:      29682  HIT %:    99.7908  MISS %:   0.209164   MPKI: 0.14841
STLB PREFETCH  REQUESTED:          0  ISSUED:          0  USEFUL:      29682  USELESS:          0
STLB USEFUL LOAD PREFETCHES:      29682 PREFETCH ISSUED TO LOWER LEVEL:          0  ACCURACY: inf
STLB TIMELY PREFETCHES:      29682 LATE PREFETCHES: 6356 DROPPED PREFETCHES: 346970
STLB COMMIT LATE PREFETCHES: 0 MISSED OPPORTUNITY: 0 LATE IN PQ: 0 UNCOVERED: 0
STLB COMMIT LATE MSHR PREFETCHES: 0
STLB MPKI TOTAL: 0 MSHR LATE: 0.03178 PQ LATE: 0 COMMIT LATE: 0 MISSED OPPORTUNITY: 0 UNCOVERED: 0
STLB PREFETCHES SAME FILL-ORIGIN LEVEL: 0 DIFFERENT FILL-ORIGIN LEVEL: 0
STLB AVERAGE MISS LATENCY: 226.101 cycles
STLB AVERAGE MISS LATENCY LOAD: -nan cycles
STLB AVERAGE MISS LATENCY PREFETCH: -nan cycles
STLB AVERAGE MSHR OCCUPANCY: 0.115371
STLB MSHR FULL: 0
STLB RQ	ACCESS:   55701131	FORWARD:          0	MERGED:   41014985	TO_CACHE:   14686146

STLB Hit, L1D data hit: 0
STLB Hit, L2C data hit: 0
STLB Hit, LLC data hit: 0
STLB Hit, LLC data miss: 0
STLB STLB hints to L2: 0
L0D SPEC fills:   31526012  NON-SPEC fills:          0
L0D TimeGuard Request with older TS:    3795007 Restricted eviction:     768938 read:     296686
L0D Test counter :          0
L0D Leapfrog:          0
L0D MSHR merge:    1790963
L0D TOTAL     ACCESS:   52273448  HIT:   11640860  MISS:   40632588  HIT %:    22.2692  MISS %:    77.7308   MPKI: 203.163
L0D LOAD      TOTAL       ACCESS:   52273448  HIT:   11640860  MISS:   40632588  HIT %:    22.2692  MISS %:    77.7308   MPKI: 203.163
L0D LOAD      NON_SPEC    ACCESS:    8442807  HIT:     105169  MISS:    8337638  HIT %:    1.24566  MISS %:    98.7543   MPKI: 41.6882
L0D LOAD      SPEC        ACCESS:   43830641  HIT:   11535691  MISS:   32294950  HIT %:    26.3188  MISS %:    73.6812   MPKI: 161.475
L0D PREFETCH  REQUESTED:          0  ISSUED:          0  USEFUL:          0  USELESS:          0
L0D USEFUL LOAD PREFETCHES:          0 PREFETCH ISSUED TO LOWER LEVEL:          0  ACCURACY: -nan
L0D TIMELY PREFETCHES:          0 LATE PREFETCHES: 0 DROPPED PREFETCHES: 0
L0D COMMIT LATE PREFETCHES: 0 MISSED OPPORTUNITY: 0 LATE IN PQ: 0 UNCOVERED: 0
L0D COMMIT LATE MSHR PREFETCHES: 0
L0D MPKI TOTAL: 212.118 MSHR LATE: 0 PQ LATE: 0 COMMIT LATE: 0 MISSED OPPORTUNITY: 0 UNCOVERED: 0
L0D PREFETCHES SAME FILL-ORIGIN LEVEL: 0 DIFFERENT FILL-ORIGIN LEVEL: 0
L0D AVERAGE MISS LATENCY: 6.44778 cycles
L0D AVERAGE MISS LATENCY LOAD: 6.44778 cycles
L0D AVERAGE MISS LATENCY PREFETCH: -nan cycles
L0D AVERAGE MSHR OCCUPANCY: 1.25774
L0D MSHR FULL: 8.15829e-05
L0D RQ	ACCESS:   73913360	FORWARD:          0	MERGED:   19848952	TO_CACHE:   54064408
L0D WQ	ACCESS:   10719287	FORWARD:          0	MERGED:          0	TO_CACHE:   10719287

L1D SPEC fills:          0  NON-SPEC fills:      15114
L1D Test counter :          0
L1D Leapfrog:          0
L1D MSHR merge:      87645
L1D TOTAL     ACCESS:   90800141  HIT:   84986564  MISS:    5813577  HIT %:    93.5974  MISS %:    6.40261   MPKI: 29.0679
L1D LOAD      TOTAL       ACCESS:   40629445  HIT:   40302860  MISS:     326585  HIT %:    99.1962  MISS %:   0.803814   MPKI: 1.63292
L1D LOAD      NON_SPEC    ACCESS:    8337500  HIT:    8322386  MISS:      15114  HIT %:    99.8187  MISS %:   0.181277   MPKI: 0.07557
L1D LOAD      SPEC        ACCESS:   32291945  HIT:   31980474  MISS:     311471  HIT %:    99.0355  MISS %:   0.964547   MPKI: 1.55736
L1D RFO       NON_SPEC    ACCESS:    2698873  HIT:    1350366  MISS:    1348507  HIT %:    50.0344  MISS %:    49.9656   MPKI: 6.74254
L1D PREFETCH  NON_SPEC    ACCESS:   46663504  HIT:   42807189  MISS:    3856315  HIT %:    91.7359  MISS %:    8.26409   MPKI: 19.2816
L1D COMMIT LOAD NON_SPEC    ACCESS:     411966  HIT:     402343  MISS:       9623  HIT %:    97.6641  MISS %:    2.33587   MPKI: 0.048115
L1D COMMIT WRITE NON_SPEC    ACCESS:     396353  HIT:     123806  MISS:     272547  HIT %:    31.2363  MISS %:    68.7637   MPKI: 1.36274
L1D PREFETCH  REQUESTED:  125795196  ISSUED:   57935152  USEFUL:    3052283  USELESS:     804081
L1D USEFUL LOAD PREFETCHES:    3052283 PREFETCH ISSUED TO LOWER LEVEL:    9065242  ACCURACY: 33.6702
L1D TIMELY PREFETCHES:    3052283 LATE PREFETCHES: 84583 DROPPED PREFETCHES: 790867
L1D COMMIT LATE PREFETCHES: 0 MISSED OPPORTUNITY: 0 LATE IN PQ: 0 UNCOVERED: 0
L1D COMMIT LATE MSHR PREFETCHES: 0
L1D MPKI TOTAL: 1.64864 MSHR LATE: 0.422915 PQ LATE: 0 COMMIT LATE: 0 MISSED OPPORTUNITY: 0 UNCOVERED: 0
L1D PREFETCHES SAME FILL-ORIGIN LEVEL: 3943489 DIFFERENT FILL-ORIGIN LEVEL: 5121753
L1D AVERAGE MISS LATENCY: 192.389 cycles
L1D AVERAGE MISS LATENCY LOAD: 152.394 cycles
L1D AVERAGE MISS LATENCY PREFETCH: 162.73 cycles
L1D AVERAGE MSHR OCCUPANCY: 4.91493
L1D MSHR FULL: 0.0565394
L1D RQ	ACCESS:   41330665	FORWARD:          0	MERGED:     273326	TO_CACHE:   41050136
L1D WQ	ACCESS:   11115339	FORWARD:       7203	MERGED:       1455	TO_CACHE:   11113884
L1D PQ	ACCESS:   57935152	FORWARD:          0	MERGED:    2340156	TO_CACHE:   55594996

L1D UNIQUE REGIONS ACCESSED: 0
L1D REGIONS CONFLICTS: 0
L1D Cross Page Prefetch Requests: 9600226
L1D Same Page Prefetch Requests: 62381134
L1D ROI Sum of L1D PQ occupancy: 1284278979
L1D PREFETCHES PUSHED FROM L2C: 0
L1I SPEC fills:          0  NON-SPEC fills:          0
L1I Test counter :          0
L1I Leapfrog:          0
L1I MSHR merge:         28
L1I TOTAL     ACCESS:   33185754  HIT:   33185704  MISS:         50  HIT %:    99.9998  MISS %: 0.000150667   MPKI: 0.00025
L1I LOAD      TOTAL       ACCESS:   33185754  HIT:   33185704  MISS:         50  HIT %:    99.9998  MISS %: 0.000150667   MPKI: 0.00025
L1I LOAD      NON_SPEC    ACCESS:   33185754  HIT:   33185704  MISS:         50  HIT %:    99.9998  MISS %: 0.000150667   MPKI: 0.00025
L1I PREFETCH  REQUESTED:          0  ISSUED:          0  USEFUL:          0  USELESS:          0
L1I USEFUL LOAD PREFETCHES:          0 PREFETCH ISSUED TO LOWER LEVEL:          0  ACCURACY: -nan
L1I TIMELY PREFETCHES:          0 LATE PREFETCHES: 0 DROPPED PREFETCHES: 0
L1I COMMIT LATE PREFETCHES: 0 MISSED OPPORTUNITY: 0 LATE IN PQ: 0 UNCOVERED: 0
L1I COMMIT LATE MSHR PREFETCHES: 0
L1I MPKI TOTAL: 0.00039 MSHR LATE: 0 PQ LATE: 0 COMMIT LATE: 0 MISSED OPPORTUNITY: 0 UNCOVERED: 0
L1I PREFETCHES SAME FILL-ORIGIN LEVEL: 0 DIFFERENT FILL-ORIGIN LEVEL: 0
L1I AVERAGE MISS LATENCY: 240.14 cycles
L1I AVERAGE MISS LATENCY LOAD: 240.14 cycles
L1I AVERAGE MISS LATENCY PREFETCH: -nan cycles
L1I AVERAGE MSHR OCCUPANCY: 2.19974e-06
L1I MSHR FULL: 0
L1I RQ	ACCESS:   52127640	FORWARD:          0	MERGED:   18941858	TO_CACHE:   33185782

BTB SPEC fills:          0  NON-SPEC fills:          0
BTB Test counter :          0
BTB Leapfrog:          0
BTB MSHR merge:          0
BTB TOTAL     ACCESS:   10637189  HIT:   10637168  MISS:         21  HIT %:    99.9998  MISS %: 0.000197421   MPKI: 0.000105
BTB BRANCH_DIRECT_JUMP	ACCESS:      26624  HIT:      26622  MISS:          2
BTB BRANCH_INDIRECT	ACCESS:          0  HIT:          0  MISS:          0
BTB BRANCH_CONDITIONAL	ACCESS:   10610565  HIT:   10610546  MISS:         19
BTB BRANCH_DIRECT_CALL	ACCESS:          0  HIT:          0  MISS:          0
BTB BRANCH_INDIRECT_CALL	ACCESS:          0  HIT:          0  MISS:          0
BTB BRANCH_RETURN	ACCESS:          0  HIT:          0  MISS:          0
BTB BRANCH_OTHER ACCESS:          0  HIT:          0  MISS:          0

L2C SPEC fills:          0  NON-SPEC fills:       4892
L2C Test counter :          0
L2C Leapfrog:          0
L2C MSHR merge:      11609
L2C TOTAL     ACCESS:   13231251  HIT:    8603858  MISS:    4627393  HIT %:    65.0268  MISS %:    34.9732   MPKI: 23.137
L2C LOAD      TOTAL       ACCESS:     241784  HIT:     137947  MISS:     103837  HIT %:    57.0538  MISS %:    42.9462   MPKI: 0.519185
L2C LOAD      NON_SPEC    ACCESS:      14080  HIT:       9138  MISS:       4942  HIT %:    64.9006  MISS %:    35.0994   MPKI: 0.02471
L2C LOAD      SPEC        ACCESS:     227704  HIT:     128809  MISS:      98895  HIT %:    56.5686  MISS %:    43.4314   MPKI: 0.494475
L2C RFO       NON_SPEC    ACCESS:    1348507  HIT:          6  MISS:    1348501  HIT %: 0.000444937  MISS %:    99.9996   MPKI: 6.74251
L2C PREFETCH  NON_SPEC    ACCESS:    7832998  HIT:    4772985  MISS:    3060013  HIT %:    60.9343  MISS %:    39.0657   MPKI: 15.3001
L2C WRITEBACK NON_SPEC    ACCESS:    1349330  HIT:    1349292  MISS:         38  HIT %:    99.9972  MISS %: 0.00281621   MPKI: 0.00019
L2C CLEAN_EVICTION NON_SPEC    ACCESS:     202555  HIT:     109415  MISS:      93140  HIT %:    54.0174  MISS %:    45.9826   MPKI: 0.4657
L2C COMMIT LOAD NON_SPEC    ACCESS:       9543  HIT:       7341  MISS:       2202  HIT %:    76.9255  MISS %:    23.0745   MPKI: 0.01101
L2C LOAD TRANSLATION NON_SPEC    ACCESS:     332319  HIT:     321824  MISS:      10495  HIT %:    96.8419  MISS %:    3.15811   MPKI: 0.052475
L2C TRANSLATION FROM L1D PREFETCHER NON_SPEC    ACCESS:    1914215  HIT:    1905048  MISS:       9167  HIT %:    99.5211  MISS %:   0.478891   MPKI: 0.045835
L2C PREFETCH  REQUESTED:          0  ISSUED:          0  USEFUL:     100137  USELESS:    2972212
L2C USEFUL LOAD PREFETCHES:     100137 PREFETCH ISSUED TO LOWER LEVEL:    3071633  ACCURACY: 3.26006
L2C TIMELY PREFETCHES:     100137 LATE PREFETCHES: 11616 DROPPED PREFETCHES: 0
L2C COMMIT LATE PREFETCHES: 0 MISSED OPPORTUNITY: 0 LATE IN PQ: 0 UNCOVERED: 0
L2C COMMIT LATE MSHR PREFETCHES: 0
L2C MPKI TOTAL: 0.519185 MSHR LATE: 0.05808 PQ LATE: 0 COMMIT LATE: 0 MISSED OPPORTUNITY: 0 UNCOVERED: 0
L2C PREFETCHES SAME FILL-ORIGIN LEVEL: 927034 DIFFERENT FILL-ORIGIN LEVEL: 0
L2C AVERAGE MISS LATENCY: 288.66 cycles
L2C AVERAGE MISS LATENCY LOAD: 251.795 cycles
L2C AVERAGE MISS LATENCY PREFETCH: 288.306 cycles
L2C AVERAGE MSHR OCCUPANCY: 6.96821
L2C MSHR FULL: 0.028635
L2C RQ	ACCESS:    3846720	FORWARD:          0	MERGED:          0	TO_CACHE:    3846371
L2C WQ	ACCESS:    1551889	FORWARD:        350	MERGED:          4	TO_CACHE:    1551885
L2C PQ	ACCESS:    9036291	FORWARD:          0	MERGED:       1094	TO_CACHE:    9035196

L2C Instructions Evicting Data 50
L2C Translations Evicting Data 19609
L2C Data Evicting Data 4396374
L2C Instructions Evicting Instructions 0
L2C Translations Evicting Instructions 1
L2C Data Evicting Instructions 49
L2C Instructions Evicting Translations 0
L2C Translations Evicting Translations 52
L2C Data Evicting Translations 19185
L2C Dense regions hint from L2: 0
PSCL5 SPEC fills:          0  NON-SPEC fills:          0
PSCL5 Test counter :          0
PSCL5 Leapfrog:          0
PSCL5 MSHR merge:          0
PSCL5 TOTAL     ACCESS:          0  HIT:          0  MISS:          0  HIT %:       -nan  MISS %:       -nan   MPKI: 0
PSCL5 PREFETCH  REQUESTED:          0  ISSUED:          0  USEFUL:          0  USELESS:          0
PSCL5 USEFUL LOAD PREFETCHES:          0 PREFETCH ISSUED TO LOWER LEVEL:          0  ACCURACY: -nan
PSCL5 TIMELY PREFETCHES:          0 LATE PREFETCHES: 0 DROPPED PREFETCHES: 0
PSCL5 COMMIT LATE PREFETCHES: 0 MISSED OPPORTUNITY: 0 LATE IN PQ: 0 UNCOVERED: 0
PSCL5 COMMIT LATE MSHR PREFETCHES: 0
PSCL5 MPKI TOTAL: 0 MSHR LATE: 0 PQ LATE: 0 COMMIT LATE: 0 MISSED OPPORTUNITY: 0 UNCOVERED: 0
PSCL5 PREFETCHES SAME FILL-ORIGIN LEVEL: 0 DIFFERENT FILL-ORIGIN LEVEL: 0

PSCL4 SPEC fills:          0  NON-SPEC fills:          0
PSCL4 Test counter :          0
PSCL4 Leapfrog:          0
PSCL4 MSHR merge:          0
PSCL4 TOTAL     ACCESS:          0  HIT:          0  MISS:          0  HIT %:       -nan  MISS %:       -nan   MPKI: 0
PSCL4 PREFETCH  REQUESTED:          0  ISSUED:          0  USEFUL:          0  USELESS:          0
PSCL4 USEFUL LOAD PREFETCHES:          0 PREFETCH ISSUED TO LOWER LEVEL:          0  ACCURACY: -nan
PSCL4 TIMELY PREFETCHES:          0 LATE PREFETCHES: 0 DROPPED PREFETCHES: 0
PSCL4 COMMIT LATE PREFETCHES: 0 MISSED OPPORTUNITY: 0 LATE IN PQ: 0 UNCOVERED: 0
PSCL4 COMMIT LATE MSHR PREFETCHES: 0
PSCL4 MPKI TOTAL: 0 MSHR LATE: 0 PQ LATE: 0 COMMIT LATE: 0 MISSED OPPORTUNITY: 0 UNCOVERED: 0
PSCL4 PREFETCHES SAME FILL-ORIGIN LEVEL: 0 DIFFERENT FILL-ORIGIN LEVEL: 0

PSCL3 SPEC fills:          0  NON-SPEC fills:          0
PSCL3 Test counter :          0
PSCL3 Leapfrog:          0
PSCL3 MSHR merge:          0
PSCL3 TOTAL     ACCESS:          0  HIT:          0  MISS:          0  HIT %:       -nan  MISS %:       -nan   MPKI: 0
PSCL3 PREFETCH  REQUESTED:          0  ISSUED:          0  USEFUL:          0  USELESS:          0
PSCL3 USEFUL LOAD PREFETCHES:          0 PREFETCH ISSUED TO LOWER LEVEL:          0  ACCURACY: -nan
PSCL3 TIMELY PREFETCHES:          0 LATE PREFETCHES: 0 DROPPED PREFETCHES: 0
PSCL3 COMMIT LATE PREFETCHES: 0 MISSED OPPORTUNITY: 0 LATE IN PQ: 0 UNCOVERED: 0
PSCL3 COMMIT LATE MSHR PREFETCHES: 0
PSCL3 MPKI TOTAL: 0 MSHR LATE: 0 PQ LATE: 0 COMMIT LATE: 0 MISSED OPPORTUNITY: 0 UNCOVERED: 0
PSCL3 PREFETCHES SAME FILL-ORIGIN LEVEL: 0 DIFFERENT FILL-ORIGIN LEVEL: 0

PSCL2 SPEC fills:          0  NON-SPEC fills:          0
PSCL2 Test counter :          0
PSCL2 Leapfrog:          0
PSCL2 MSHR merge:          0
PSCL2 TOTAL     ACCESS:          0  HIT:          0  MISS:          0  HIT %:       -nan  MISS %:       -nan   MPKI: 0
PSCL2 PREFETCH  REQUESTED:          0  ISSUED:          0  USEFUL:          0  USELESS:          0
PSCL2 USEFUL LOAD PREFETCHES:          0 PREFETCH ISSUED TO LOWER LEVEL:          0  ACCURACY: -nan
PSCL2 TIMELY PREFETCHES:          0 LATE PREFETCHES: 0 DROPPED PREFETCHES: 0
PSCL2 COMMIT LATE PREFETCHES: 0 MISSED OPPORTUNITY: 0 LATE IN PQ: 0 UNCOVERED: 0
PSCL2 COMMIT LATE MSHR PREFETCHES: 0
PSCL2 MPKI TOTAL: 0 MSHR LATE: 0 PQ LATE: 0 COMMIT LATE: 0 MISSED OPPORTUNITY: 0 UNCOVERED: 0
PSCL2 PREFETCHES SAME FILL-ORIGIN LEVEL: 0 DIFFERENT FILL-ORIGIN LEVEL: 0

LLC SPEC fills:          0  NON-SPEC fills:       4779
LLC Test counter :          0
LLC Leapfrog:          0
LLC MSHR merge:          0
LLC TOTAL     ACCESS:    6078371  HIT:    1466690  MISS:    4611681  HIT %:    24.1297  MISS %:    75.8703   MPKI: 23.0584
LLC LOAD      TOTAL       ACCESS:      92225  HIT:       2382  MISS:      89843  HIT %:    2.58281  MISS %:    97.4172   MPKI: 0.449215
LLC LOAD      NON_SPEC    ACCESS:       4887  HIT:         58  MISS:       4829  HIT %:    1.18682  MISS %:    98.8132   MPKI: 0.024145
LLC LOAD      SPEC        ACCESS:      87338  HIT:       2324  MISS:      85014  HIT %:    2.66093  MISS %:    97.3391   MPKI: 0.42507
LLC RFO       NON_SPEC    ACCESS:    1348501  HIT:          0  MISS:    1348501  HIT %:          0  MISS %:        100   MPKI: 6.74251
LLC PREFETCH  NON_SPEC    ACCESS:    3071629  HIT:        411  MISS:    3071218  HIT %:  0.0133805  MISS %:    99.9866   MPKI: 15.3561
LLC WRITEBACK NON_SPEC    ACCESS:    1345533  HIT:    1345497  MISS:         36  HIT %:    99.9973  MISS %: 0.00267552   MPKI: 0.00018
LLC CLEAN_EVICTION NON_SPEC    ACCESS:     198626  HIT:     118319  MISS:      80307  HIT %:    59.5687  MISS %:    40.4313   MPKI: 0.401535
LLC COMMIT LOAD NON_SPEC    ACCESS:       2195  HIT:         81  MISS:       2114  HIT %:    3.69021  MISS %:    96.3098   MPKI: 0.01057
LLC LOAD TRANSLATION NON_SPEC    ACCESS:      10495  HIT:          0  MISS:      10495  HIT %:          0  MISS %:        100   MPKI: 0.052475
LLC TRANSLATION FROM L1D PREFETCHER NON_SPEC    ACCESS:       9167  HIT:          0  MISS:       9167  HIT %:          0  MISS %:        100   MPKI: 0.045835
LLC PREFETCH  REQUESTED:          0  ISSUED:          0  USEFUL:        657  USELESS:    3091024
LLC USEFUL LOAD PREFETCHES:        657 PREFETCH ISSUED TO LOWER LEVEL:    3071222  ACCURACY: 0.0213921
LLC TIMELY PREFETCHES:        657 LATE PREFETCHES: 0 DROPPED PREFETCHES: 0
LLC COMMIT LATE PREFETCHES: 0 MISSED OPPORTUNITY: 0 LATE IN PQ: 0 UNCOVERED: 0
LLC COMMIT LATE MSHR PREFETCHES: 0
LLC MPKI TOTAL: 0.449215 MSHR LATE: 0 PQ LATE: 0 COMMIT LATE: 0 MISSED OPPORTUNITY: 0 UNCOVERED: 0
LLC PREFETCHES SAME FILL-ORIGIN LEVEL: 0 DIFFERENT FILL-ORIGIN LEVEL: 0
LLC AVERAGE MISS LATENCY: 260.527 cycles
LLC AVERAGE MISS LATENCY LOAD: 227.979 cycles
LLC AVERAGE MISS LATENCY PREFETCH: 259.19 cycles
LLC AVERAGE MSHR OCCUPANCY: 6.31339
LLC MSHR FULL: 0
LLC RQ	ACCESS:    1462588	FORWARD:          0	MERGED:          0	TO_CACHE:    1462585
LLC WQ	ACCESS:    1544160	FORWARD:          3	MERGED:          0	TO_CACHE:    1544160
LLC PQ	ACCESS:    3071633	FORWARD:          0	MERGED:          0	TO_CACHE:    3071633

LLC Dense regions hint to LLC: 0

RAW hits: 17
Loads Generated: 73913379
Loads sent to L1D: 73913360
Stores Generated: 10719287
Stores sent to L1D: 10719287
Major fault: 0 Minor fault: 51871
Allocated PAGES: 51871
Total Load insts: 92757189
Total Non-spec loads: 8985274
Percentage of speculative loads: 90.3131

LeapFrogging counter: 302804
Commit hits: 29327057 miss: 36092787
Commit hit %: 44.829 miss %: 55.171
Commits not translated: 0
Loads retired: 326585
Stores retired: 10719287
Cache fills: 326585
L1D response latency: 152.394 cycles
Load retirement latency: 289.813 cycles
OOO test counter: 0
Discarded buffer inserts: 29327057 hits: 20152 hit %: 0.0687147
Filter prediction accuracy: 99.899
LATENCY_FILL: 148.718 328900

DRAM Statistics
 CHANNEL 0
 RQ ROW_BUFFER_HIT:     755262  ROW_BUFFER_MISS:    3776075
 DBUS_CONGESTED:       3919
 WQ ROW_BUFFER_HIT:     293262  ROW_BUFFER_MISS:    1240393  FULL:          0

 AVG_CONGESTED_CYCLE: 6
 All warmup complete: 2
Channel 0 Bank busy for read cycles: 0
Channel 0 Bank busy for write cycles: 0
Channel 0
Rank 0
0banks busy for read cycles: 2052592
0banks busy for write cycles: 7339
1banks busy for read cycles: 30675246
1banks busy for write cycles: 1434677
2banks busy for read cycles: 42259736
2banks busy for write cycles: 1223324
3banks busy for read cycles: 34537992
3banks busy for write cycles: 1101268
4banks busy for read cycles: 22725973
4banks busy for write cycles: 1005754
5banks busy for read cycles: 16358450
5banks busy for write cycles: 927966
6banks busy for read cycles: 11801775
6banks busy for write cycles: 911075
7banks busy for read cycles: 9429123
7banks busy for write cycles: 2673401
8banks busy for read cycles: 12176225
8banks busy for write cycles: 35931230

CPU 0 Branch Prediction Accuracy: 99.8819% MPKI: 0.062825 Average ROB Occupancy at Mispredict: 181.939
Branch types
NOT_BRANCH: 189359358 94.6797%
BRANCH_DIRECT_JUMP: 26624 0.013312%
BRANCH_INDIRECT: 0 0%
BRANCH_CONDITIONAL: 10613668 5.30683%
BRANCH_DIRECT_CALL: 0 0%
BRANCH_INDIRECT_CALL: 0 0%
BRANCH_RETURN: 0 0%
BRANCH_OTHER: 0 0%

DRAM PAGES: 1048576
Allocated PAGES: 51871
