
*** ChampSim Multicore Out-of-Order Simulator ***

Warmup Instructions: 50000000
Simulation Instructions: 200000000
Number of CPUs: 1
LLC sets: 2048
LLC ways: 16
L0D sets: 16
L0D ways: 2
ROB size: 352
LQ size: 128
SQ size: 72
Secure Berti: OFF
Berti: OFF
Berti Fill: OFF
On commit prefetching: ON
Hit-based filter: OFF
Time-guarding: ON
Free-slotting: ON
Leap-frogging: ON
Train prefetcher on L0D bypass: OFF
No translation penalty for prefetchers: OFF
Prefetch to L0D only: OFF
Prefetch to L1D only: OFF
Clean evictions: ON
Commit loads: ON
Commit write: ON
Fill commit loads to L2C, LLC: ON
DRAM IO FREQUENCY: 6400
ROB SIZE: 352
Off-chip DRAM Size: 4096 MB Channels: 1 Width: 64-bit Data Rate: 6400 MT/s
CPU 0 runs /home/sumon/secure_berti/GhostMinion/../../traces/gap/bc-12.trace.gz
.gz
BTB has LRU replacement policy
ITLB has LRU replacement policy
DTLB has LRU replacement policy
STLB has LRU replacement policy
L1I has LRU replacement policy
L0D has LRU replacement policy
History Sets: 8
History Ways: 16
BERTI Size: 16
BERTI Stride Size: 16
History Sets: 8
History Ways: 16
BERTI Size: 16
BERTI Stride Size: 16
L1D has LRU replacement policy
L2C has LRU replacement policy
LLC has LRU replacement policy
Heartbeat CPU 0 instructions: 10000001 cycles: 3920879 heartbeat IPC: 2.55045 cumulative IPC: 2.55045 (Simulation time: 0 hr 1 min 31 sec) 
Heartbeat CPU 0 instructions: 20000000 cycles: 7500163 heartbeat IPC: 2.79385 cumulative IPC: 2.66661 (Simulation time: 0 hr 3 min 3 sec) 
Heartbeat CPU 0 instructions: 30000002 cycles: 11102257 heartbeat IPC: 2.77616 cumulative IPC: 2.70215 (Simulation time: 0 hr 4 min 34 sec) 
Heartbeat CPU 0 instructions: 40000001 cycles: 14697642 heartbeat IPC: 2.78134 cumulative IPC: 2.72152 (Simulation time: 0 hr 6 min 4 sec) 
Heartbeat CPU 0 instructions: 50000001 cycles: 18256899 heartbeat IPC: 2.80958 cumulative IPC: 2.73869 (Simulation time: 0 hr 7 min 31 sec) 

Warmup complete CPU 0 instructions: 50000001 cycles: 18256899 (Simulation time: 0 hr 7 min 31 sec) 

Heartbeat CPU 0 instructions: 60000000 cycles: 86058504 heartbeat IPC: 0.147489 cumulative IPC: 0.147489 (Simulation time: 0 hr 9 min 40 sec) 
Heartbeat CPU 0 instructions: 70000002 cycles: 153979586 heartbeat IPC: 0.14723 cumulative IPC: 0.147359 (Simulation time: 0 hr 11 min 50 sec) 
Heartbeat CPU 0 instructions: 80000002 cycles: 221556904 heartbeat IPC: 0.147979 cumulative IPC: 0.147565 (Simulation time: 0 hr 13 min 59 sec) 
Heartbeat CPU 0 instructions: 90000002 cycles: 289593337 heartbeat IPC: 0.14698 cumulative IPC: 0.147418 (Simulation time: 0 hr 16 min 8 sec) 
Heartbeat CPU 0 instructions: 100000001 cycles: 357222101 heartbeat IPC: 0.147866 cumulative IPC: 0.147508 (Simulation time: 0 hr 18 min 16 sec) 
Heartbeat CPU 0 instructions: 110000000 cycles: 425234729 heartbeat IPC: 0.147032 cumulative IPC: 0.147428 (Simulation time: 0 hr 20 min 23 sec) 
Heartbeat CPU 0 instructions: 120000001 cycles: 493392940 heartbeat IPC: 0.146717 cumulative IPC: 0.147326 (Simulation time: 0 hr 22 min 29 sec) 
Heartbeat CPU 0 instructions: 130000000 cycles: 561368191 heartbeat IPC: 0.147112 cumulative IPC: 0.147299 (Simulation time: 0 hr 24 min 14 sec) 
Heartbeat CPU 0 instructions: 140000000 cycles: 629403110 heartbeat IPC: 0.146983 cumulative IPC: 0.147264 (Simulation time: 0 hr 26 min 17 sec) 
Heartbeat CPU 0 instructions: 150000000 cycles: 697494500 heartbeat IPC: 0.146861 cumulative IPC: 0.147224 (Simulation time: 0 hr 28 min 13 sec) 
Heartbeat CPU 0 instructions: 160000001 cycles: 765824332 heartbeat IPC: 0.146349 cumulative IPC: 0.147144 (Simulation time: 0 hr 29 min 20 sec) 
Heartbeat CPU 0 instructions: 170000003 cycles: 834164184 heartbeat IPC: 0.146328 cumulative IPC: 0.147076 (Simulation time: 0 hr 30 min 25 sec) 
Heartbeat CPU 0 instructions: 180000001 cycles: 902255033 heartbeat IPC: 0.146863 cumulative IPC: 0.147059 (Simulation time: 0 hr 31 min 28 sec) 
Heartbeat CPU 0 instructions: 190000000 cycles: 967548712 heartbeat IPC: 0.153154 cumulative IPC: 0.147478 (Simulation time: 0 hr 32 min 29 sec) 
Heartbeat CPU 0 instructions: 200000000 cycles: 1035629409 heartbeat IPC: 0.146885 cumulative IPC: 0.147439 (Simulation time: 0 hr 33 min 30 sec) 
Heartbeat CPU 0 instructions: 210000002 cycles: 1103574246 heartbeat IPC: 0.147178 cumulative IPC: 0.147422 (Simulation time: 0 hr 34 min 30 sec) 
Heartbeat CPU 0 instructions: 220000000 cycles: 1171528119 heartbeat IPC: 0.147159 cumulative IPC: 0.147407 (Simulation time: 0 hr 35 min 30 sec) 
Heartbeat CPU 0 instructions: 230000001 cycles: 1239422377 heartbeat IPC: 0.147288 cumulative IPC: 0.1474 (Simulation time: 0 hr 36 min 30 sec) 
Heartbeat CPU 0 instructions: 240000001 cycles: 1307689787 heartbeat IPC: 0.146483 cumulative IPC: 0.147352 (Simulation time: 0 hr 37 min 30 sec) 
Heartbeat CPU 0 instructions: 250000003 cycles: 1375170019 heartbeat IPC: 0.148192 cumulative IPC: 0.147393 (Simulation time: 0 hr 38 min 28 sec) 
Finished CPU 0 instructions: 200000002 cycles: 1356913120 cumulative IPC: 0.147393 (Simulation time: 0 hr 38 min 28 sec) 
 Instruction ID: 250000045

ChampSim completed all CPUs

Region of Interest Statistics

CPU 0 cumulative IPC: 0.147393 instructions: 200000002 cycles: 1356913120
ITLB SPEC fills:          0  NON-SPEC fills:          0
ITLB Test counter :          0
ITLB Leapfrog:          0
ITLB MSHR merge:          0
ITLB TOTAL     ACCESS:   36669088  HIT:   36669088  MISS:          0  HIT %:        100  MISS %:          0   MPKI: 0
ITLB LOAD TRANSLATION NON_SPEC    ACCESS:   36669088  HIT:   36669088  MISS:          0  HIT %:        100  MISS %:          0   MPKI: 0
ITLB PREFETCH  REQUESTED:          0  ISSUED:          0  USEFUL:          0  USELESS:          0
ITLB USEFUL LOAD PREFETCHES:          0 PREFETCH ISSUED TO LOWER LEVEL:          0  ACCURACY: -nan
ITLB TIMELY PREFETCHES:          0 LATE PREFETCHES: 0 DROPPED PREFETCHES: 0
ITLB COMMIT LATE PREFETCHES: 0 NORMAL LATE: 0 MISSED OPPORTUNITY: 0 UNCOVERED: 0
ITLB PREFETCHES SAME FILL-ORIGIN LEVEL: 0 DIFFERENT FILL-ORIGIN LEVEL: 0
ITLB AVERAGE MISS LATENCY: -nan cycles
ITLB AVERAGE MISS LATENCY LOAD: -nan cycles
ITLB AVERAGE MISS LATENCY PREFETCH: -nan cycles
ITLB AVERAGE MSHR OCCUPANCY: 0
ITLB MSHR FULL: 0
ITLB RQ	ACCESS:   36968159	FORWARD:          0	MERGED:     299071	TO_CACHE:   36669088

DTLB SPEC fills:          0  NON-SPEC fills:          0
DTLB Test counter :          0
DTLB Leapfrog:          0
DTLB MSHR merge:          0
DTLB TOTAL     ACCESS:   60135033  HIT:   51628736  MISS:    8506297  HIT %:    85.8547  MISS %:    14.1453   MPKI: 42.5315
DTLB LOAD TRANSLATION NON_SPEC    ACCESS:   60135033  HIT:   51628736  MISS:    8506297  HIT %:    85.8547  MISS %:    14.1453   MPKI: 42.5315
DTLB PREFETCH  REQUESTED:          0  ISSUED:          0  USEFUL:          0  USELESS:          0
DTLB USEFUL LOAD PREFETCHES:          0 PREFETCH ISSUED TO LOWER LEVEL:          0  ACCURACY: -nan
DTLB TIMELY PREFETCHES:          0 LATE PREFETCHES: 0 DROPPED PREFETCHES: 0
DTLB COMMIT LATE PREFETCHES: 0 NORMAL LATE: 0 MISSED OPPORTUNITY: 0 UNCOVERED: 0
DTLB PREFETCHES SAME FILL-ORIGIN LEVEL: 0 DIFFERENT FILL-ORIGIN LEVEL: 0
DTLB AVERAGE MISS LATENCY: 40.6474 cycles
DTLB AVERAGE MISS LATENCY LOAD: -nan cycles
DTLB AVERAGE MISS LATENCY PREFETCH: -nan cycles
DTLB AVERAGE MSHR OCCUPANCY: 0.254604
DTLB MSHR FULL: 0.000392638
DTLB RQ	ACCESS:   66090909	FORWARD:          0	MERGED:    5241549	TO_CACHE:   60849360

STLB SPEC fills:          0  NON-SPEC fills:          0
STLB Test counter :          0
STLB Leapfrog:          0
STLB MSHR merge:          0
STLB TOTAL     ACCESS:   16931891  HIT:   13571031  MISS:    3360860  HIT %:    80.1507  MISS %:    19.8493   MPKI: 16.8043
STLB LOAD TRANSLATION NON_SPEC    ACCESS:    8506297  HIT:    5209489  MISS:    3296808  HIT %:    61.2427  MISS %:    38.7573   MPKI: 16.484
STLB TRANSLATION FROM L1D PREFETCHER NON_SPEC    ACCESS:    8425594  HIT:    8361542  MISS:      64052  HIT %:    99.2398  MISS %:   0.760208   MPKI: 0.32026
STLB PREFETCH  REQUESTED:          0  ISSUED:          0  USEFUL:      62884  USELESS:       1169
STLB USEFUL LOAD PREFETCHES:      62884 PREFETCH ISSUED TO LOWER LEVEL:          0  ACCURACY: inf
STLB TIMELY PREFETCHES:      62884 LATE PREFETCHES: 15319 DROPPED PREFETCHES: 1161287
STLB COMMIT LATE PREFETCHES: 0 NORMAL LATE: 0 MISSED OPPORTUNITY: 0 UNCOVERED: 0
STLB PREFETCHES SAME FILL-ORIGIN LEVEL: 0 DIFFERENT FILL-ORIGIN LEVEL: 0
STLB AVERAGE MISS LATENCY: 81.7945 cycles
STLB AVERAGE MISS LATENCY LOAD: -nan cycles
STLB AVERAGE MISS LATENCY PREFETCH: -nan cycles
STLB AVERAGE MSHR OCCUPANCY: 0.275851
STLB MSHR FULL: 0
STLB RQ	ACCESS:   60720742	FORWARD:          0	MERGED:   42562074	TO_CACHE:   18158668

STLB Hit, L1D data hit: 0
STLB Hit, L2C data hit: 0
STLB Hit, LLC data hit: 0
STLB Hit, LLC data miss: 0
STLB STLB hints to L2: 0
L0D SPEC fills:   35808638  NON-SPEC fills:          0
L0D TimeGuard Request with older TS:     401669 Restricted eviction:     378868 read:          1
L0D Test counter :          0
L0D Leapfrog:          0
L0D MSHR merge:     246332
L0D TOTAL     ACCESS:   54599640  HIT:    8950547  MISS:   45649093  HIT %:    16.3931  MISS %:    83.6069   MPKI: 228.245
L0D LOAD      TOTAL       ACCESS:   54599640  HIT:    8950547  MISS:   45649093  HIT %:    16.3931  MISS %:    83.6069   MPKI: 228.245
L0D LOAD      NON_SPEC    ACCESS:    9465370  HIT:       3697  MISS:    9461673  HIT %:  0.0390582  MISS %:    99.9609   MPKI: 47.3084
L0D LOAD      SPEC        ACCESS:   45134270  HIT:    8946850  MISS:   36187420  HIT %:    19.8227  MISS %:    80.1773   MPKI: 180.937
L0D PREFETCH  REQUESTED:          0  ISSUED:          0  USEFUL:          0  USELESS:          0
L0D USEFUL LOAD PREFETCHES:          0 PREFETCH ISSUED TO LOWER LEVEL:          0  ACCURACY: -nan
L0D TIMELY PREFETCHES:          0 LATE PREFETCHES: 0 DROPPED PREFETCHES: 0
L0D COMMIT LATE PREFETCHES: 0 NORMAL LATE: 0 MISSED OPPORTUNITY: 0 UNCOVERED: 0
L0D PREFETCHES SAME FILL-ORIGIN LEVEL: 0 DIFFERENT FILL-ORIGIN LEVEL: 0
L0D AVERAGE MISS LATENCY: 47.8185 cycles
L0D AVERAGE MISS LATENCY LOAD: 47.8185 cycles
L0D AVERAGE MISS LATENCY PREFETCH: -nan cycles
L0D AVERAGE MSHR OCCUPANCY: 1.5
L0D MSHR FULL: 0.0510634
L0D RQ	ACCESS:   55533722	FORWARD:          0	MERGED:     687751	TO_CACHE:   54845971
L0D WQ	ACCESS:   11244938	FORWARD:          0	MERGED:          0	TO_CACHE:   11244938

L1D SPEC fills:          0  NON-SPEC fills:    3654772
L1D Test counter :   16437744
L1D Leapfrog:          0
L1D MSHR merge:      10791
L1D TOTAL     ACCESS:  133249166  HIT:  103049732  MISS:   30199434  HIT %:    77.3361  MISS %:    22.6639   MPKI: 150.997
L1D LOAD      TOTAL       ACCESS:   45647416  HIT:   29154337  MISS:   16493079  HIT %:    63.8685  MISS %:    36.1315   MPKI: 82.4654
L1D LOAD      NON_SPEC    ACCESS:    9460388  HIT:    5805616  MISS:    3654772  HIT %:    61.3676  MISS %:    38.6324   MPKI: 18.2739
L1D LOAD      SPEC        ACCESS:   36187028  HIT:   23348721  MISS:   12838307  HIT %:    64.5224  MISS %:    35.4776   MPKI: 64.1915
L1D RFO       NON_SPEC    ACCESS:    6882792  HIT:    6865399  MISS:      17393  HIT %:    99.7473  MISS %:   0.252703   MPKI: 0.086965
L1D PREFETCH  NON_SPEC    ACCESS:   37483163  HIT:   36637033  MISS:     846130  HIT %:    97.7426  MISS %:    2.25736   MPKI: 4.23065
L1D COMMIT LOAD NON_SPEC    ACCESS:    7657756  HIT:    7475707  MISS:     182049  HIT %:    97.6227  MISS %:    2.37732   MPKI: 0.910245
L1D COMMIT WRITE NON_SPEC    ACCESS:   35578039  HIT:   22917256  MISS:   12660783  HIT %:    64.4141  MISS %:    35.5859   MPKI: 63.3039
L1D PREFETCH  REQUESTED:  100147221  ISSUED:   98247060  USEFUL:     716788  USELESS:     129379
L1D USEFUL LOAD PREFETCHES:     716788 PREFETCH ISSUED TO LOWER LEVEL:   12038458  ACCURACY: 5.95415
L1D TIMELY PREFETCHES:     716788 LATE PREFETCHES: 12234 DROPPED PREFETCHES: 3176481
L1D COMMIT LATE PREFETCHES: 32597 NORMAL LATE: 27819 MISSED OPPORTUNITY: 49140 UNCOVERED: 16386970
L1D PREFETCHES SAME FILL-ORIGIN LEVEL: 864392 DIFFERENT FILL-ORIGIN LEVEL: 11174066
L1D AVERAGE MISS LATENCY: 68.1064 cycles
L1D AVERAGE MISS LATENCY LOAD: 117.579 cycles
L1D AVERAGE MISS LATENCY PREFETCH: 124.094 cycles
L1D AVERAGE MSHR OCCUPANCY: 0.937136
L1D MSHR FULL: 0.00860207
L1D RQ	ACCESS:   56135815	FORWARD:          0	MERGED:    2215980	TO_CACHE:   53307809
L1D WQ	ACCESS:   46826567	FORWARD:     612026	MERGED:    4304733	TO_CACHE:   42521834
L1D PQ	ACCESS:   98247060	FORWARD:          0	MERGED:   46032615	TO_CACHE:   52214445

L1D UNIQUE REGIONS ACCESSED: 0
L1D REGIONS CONFLICTS: 0
L1D Cross Page Prefetch Requests: 12364698
L1D Same Page Prefetch Requests: 116548473
L1D ROI Sum of L1D PQ occupancy: 1171220710
L1D PREFETCHES PUSHED FROM L2C: 0
L1I SPEC fills:          0  NON-SPEC fills:          0
L1I Test counter :          0
L1I Leapfrog:          0
L1I MSHR merge:          0
L1I TOTAL     ACCESS:   36968159  HIT:   36968159  MISS:          0  HIT %:        100  MISS %:          0   MPKI: 0
L1I LOAD      TOTAL       ACCESS:   36968159  HIT:   36968159  MISS:          0  HIT %:        100  MISS %:          0   MPKI: 0
L1I LOAD      NON_SPEC    ACCESS:   36968159  HIT:   36968159  MISS:          0  HIT %:        100  MISS %:          0   MPKI: 0
L1I PREFETCH  REQUESTED:          0  ISSUED:          0  USEFUL:          0  USELESS:          0
L1I USEFUL LOAD PREFETCHES:          0 PREFETCH ISSUED TO LOWER LEVEL:          0  ACCURACY: -nan
L1I TIMELY PREFETCHES:          0 LATE PREFETCHES: 0 DROPPED PREFETCHES: 0
L1I COMMIT LATE PREFETCHES: 0 NORMAL LATE: 0 MISSED OPPORTUNITY: 0 UNCOVERED: 0
L1I PREFETCHES SAME FILL-ORIGIN LEVEL: 0 DIFFERENT FILL-ORIGIN LEVEL: 0
L1I AVERAGE MISS LATENCY: -nan cycles
L1I AVERAGE MISS LATENCY LOAD: -nan cycles
L1I AVERAGE MISS LATENCY PREFETCH: -nan cycles
L1I AVERAGE MSHR OCCUPANCY: 0
L1I MSHR FULL: 0
L1I RQ	ACCESS:   48283388	FORWARD:          0	MERGED:   11315229	TO_CACHE:   36968159

BTB SPEC fills:          0  NON-SPEC fills:          0
BTB Test counter :          0
BTB Leapfrog:          0
BTB MSHR merge:          0
BTB TOTAL     ACCESS:   35189020  HIT:   35189006  MISS:         14  HIT %:        100  MISS %: 3.97851e-05   MPKI: 7e-05
BTB BRANCH_DIRECT_JUMP	ACCESS:     253973  HIT:     253969  MISS:          4
BTB BRANCH_INDIRECT	ACCESS:          0  HIT:          0  MISS:          0
BTB BRANCH_CONDITIONAL	ACCESS:   34935019  HIT:   34935011  MISS:          8
BTB BRANCH_DIRECT_CALL	ACCESS:         14  HIT:         13  MISS:          1
BTB BRANCH_INDIRECT_CALL	ACCESS:          0  HIT:          0  MISS:          0
BTB BRANCH_RETURN	ACCESS:         14  HIT:         13  MISS:          1
BTB BRANCH_OTHER ACCESS:          0  HIT:          0  MISS:          0

L2C SPEC fills:          0  NON-SPEC fills:    3441266
L2C Test counter :          0
L2C Leapfrog:          0
L2C MSHR merge:      76344
L2C TOTAL     ACCESS:   67184199  HIT:   40406954  MISS:   26777245  HIT %:    60.1435  MISS %:    39.8565   MPKI: 133.886
L2C LOAD      TOTAL       ACCESS:   16483934  HIT:    2562136  MISS:   13921798  HIT %:    15.5432  MISS %:    84.4568   MPKI: 69.609
L2C LOAD      NON_SPEC    ACCESS:    3654285  HIT:     213019  MISS:    3441266  HIT %:    5.82929  MISS %:    94.1707   MPKI: 17.2063
L2C LOAD      SPEC        ACCESS:   12829649  HIT:    2349117  MISS:   10480532  HIT %:    18.3101  MISS %:    81.6899   MPKI: 52.4027
L2C RFO       NON_SPEC    ACCESS:      11365  HIT:       7158  MISS:       4207  HIT %:    62.9828  MISS %:    37.0172   MPKI: 0.021035
L2C PREFETCH  NON_SPEC    ACCESS:   11531560  HIT:    9427324  MISS:    2104236  HIT %:    81.7524  MISS %:    18.2476   MPKI: 10.5212
L2C WRITEBACK NON_SPEC    ACCESS:    2952383  HIT:    2950862  MISS:       1521  HIT %:    99.9485  MISS %:  0.0515177   MPKI: 0.007605
L2C CLEAN_EVICTION NON_SPEC    ACCESS:   13401942  HIT:    2905097  MISS:   10496845  HIT %:    21.6767  MISS %:    78.3233   MPKI: 52.4842
L2C COMMIT LOAD NON_SPEC    ACCESS:     178877  HIT:      58350  MISS:     120527  HIT %:    32.6202  MISS %:    67.3798   MPKI: 0.602635
L2C LOAD TRANSLATION NON_SPEC    ACCESS:   16423218  HIT:   16306546  MISS:     116672  HIT %:    99.2896  MISS %:   0.710409   MPKI: 0.58336
L2C TRANSLATION FROM L1D PREFETCHER NON_SPEC    ACCESS:    6200920  HIT:    6189481  MISS:      11439  HIT %:    99.8155  MISS %:   0.184473   MPKI: 0.057195
L2C PREFETCH  REQUESTED:          0  ISSUED:          0  USEFUL:     187191  USELESS:    1928695
L2C USEFUL LOAD PREFETCHES:     187191 PREFETCH ISSUED TO LOWER LEVEL:    2183434  ACCURACY: 8.57324
L2C TIMELY PREFETCHES:     187191 LATE PREFETCHES: 79197 DROPPED PREFETCHES: 0
L2C COMMIT LATE PREFETCHES: 0 NORMAL LATE: 79759 MISSED OPPORTUNITY: 0 UNCOVERED: 13844894
L2C PREFETCHES SAME FILL-ORIGIN LEVEL: 1745742 DIFFERENT FILL-ORIGIN LEVEL: 0
L2C AVERAGE MISS LATENCY: 83.2505 cycles
L2C AVERAGE MISS LATENCY LOAD: 124.977 cycles
L2C AVERAGE MISS LATENCY PREFETCH: 221.365 cycles
L2C AVERAGE MSHR OCCUPANCY: 1.32139
L2C MSHR FULL: 1.27232e-07
L2C RQ	ACCESS:   39298399	FORWARD:          0	MERGED:          0	TO_CACHE:   39298316
L2C WQ	ACCESS:   16354329	FORWARD:         83	MERGED:          4	TO_CACHE:   16354325
L2C PQ	ACCESS:   12038458	FORWARD:          0	MERGED:        535	TO_CACHE:   12037923

L2C Instructions Evicting Data 0
L2C Translations Evicting Data 128006
L2C Data Evicting Data 5624346
L2C Instructions Evicting Instructions 0
L2C Translations Evicting Instructions 0
L2C Data Evicting Instructions 0
L2C Instructions Evicting Translations 0
L2C Translations Evicting Translations 105
L2C Data Evicting Translations 45890
L2C Dense regions hint from L2: 0
PSCL5 SPEC fills:          0  NON-SPEC fills:          0
PSCL5 Test counter :          0
PSCL5 Leapfrog:          0
PSCL5 MSHR merge:          0
PSCL5 TOTAL     ACCESS:          0  HIT:          0  MISS:          0  HIT %:       -nan  MISS %:       -nan   MPKI: 0
PSCL5 PREFETCH  REQUESTED:          0  ISSUED:          0  USEFUL:          0  USELESS:          0
PSCL5 USEFUL LOAD PREFETCHES:          0 PREFETCH ISSUED TO LOWER LEVEL:          0  ACCURACY: -nan
PSCL5 TIMELY PREFETCHES:          0 LATE PREFETCHES: 0 DROPPED PREFETCHES: 0
PSCL5 COMMIT LATE PREFETCHES: 0 NORMAL LATE: 0 MISSED OPPORTUNITY: 0 UNCOVERED: 0
PSCL5 PREFETCHES SAME FILL-ORIGIN LEVEL: 0 DIFFERENT FILL-ORIGIN LEVEL: 0

PSCL4 SPEC fills:          0  NON-SPEC fills:          0
PSCL4 Test counter :          0
PSCL4 Leapfrog:          0
PSCL4 MSHR merge:          0
PSCL4 TOTAL     ACCESS:          0  HIT:          0  MISS:          0  HIT %:       -nan  MISS %:       -nan   MPKI: 0
PSCL4 PREFETCH  REQUESTED:          0  ISSUED:          0  USEFUL:          0  USELESS:          0
PSCL4 USEFUL LOAD PREFETCHES:          0 PREFETCH ISSUED TO LOWER LEVEL:          0  ACCURACY: -nan
PSCL4 TIMELY PREFETCHES:          0 LATE PREFETCHES: 0 DROPPED PREFETCHES: 0
PSCL4 COMMIT LATE PREFETCHES: 0 NORMAL LATE: 0 MISSED OPPORTUNITY: 0 UNCOVERED: 0
PSCL4 PREFETCHES SAME FILL-ORIGIN LEVEL: 0 DIFFERENT FILL-ORIGIN LEVEL: 0

PSCL3 SPEC fills:          0  NON-SPEC fills:          0
PSCL3 Test counter :          0
PSCL3 Leapfrog:          0
PSCL3 MSHR merge:          0
PSCL3 TOTAL     ACCESS:          0  HIT:          0  MISS:          0  HIT %:       -nan  MISS %:       -nan   MPKI: 0
PSCL3 PREFETCH  REQUESTED:          0  ISSUED:          0  USEFUL:          0  USELESS:          0
PSCL3 USEFUL LOAD PREFETCHES:          0 PREFETCH ISSUED TO LOWER LEVEL:          0  ACCURACY: -nan
PSCL3 TIMELY PREFETCHES:          0 LATE PREFETCHES: 0 DROPPED PREFETCHES: 0
PSCL3 COMMIT LATE PREFETCHES: 0 NORMAL LATE: 0 MISSED OPPORTUNITY: 0 UNCOVERED: 0
PSCL3 PREFETCHES SAME FILL-ORIGIN LEVEL: 0 DIFFERENT FILL-ORIGIN LEVEL: 0

PSCL2 SPEC fills:          0  NON-SPEC fills:          0
PSCL2 Test counter :          0
PSCL2 Leapfrog:          0
PSCL2 MSHR merge:          0
PSCL2 TOTAL     ACCESS:          0  HIT:          0  MISS:          0  HIT %:       -nan  MISS %:       -nan   MPKI: 0
PSCL2 PREFETCH  REQUESTED:          0  ISSUED:          0  USEFUL:          0  USELESS:          0
PSCL2 USEFUL LOAD PREFETCHES:          0 PREFETCH ISSUED TO LOWER LEVEL:          0  ACCURACY: -nan
PSCL2 TIMELY PREFETCHES:          0 LATE PREFETCHES: 0 DROPPED PREFETCHES: 0
PSCL2 COMMIT LATE PREFETCHES: 0 NORMAL LATE: 0 MISSED OPPORTUNITY: 0 UNCOVERED: 0
PSCL2 PREFETCHES SAME FILL-ORIGIN LEVEL: 0 DIFFERENT FILL-ORIGIN LEVEL: 0

LLC SPEC fills:          0  NON-SPEC fills:    2648518
LLC Test counter :          0
LLC Leapfrog:          0
LLC MSHR merge:          0
LLC TOTAL     ACCESS:   30587527  HIT:   13793596  MISS:   16793931  HIT %:    45.0955  MISS %:    54.9045   MPKI: 83.9697
LLC LOAD      TOTAL       ACCESS:   13845419  HIT:    5471361  MISS:    8374058  HIT %:    39.5175  MISS %:    60.4825   MPKI: 41.8703
LLC LOAD      NON_SPEC    ACCESS:    3421659  HIT:     773141  MISS:    2648518  HIT %:    22.5955  MISS %:    77.4045   MPKI: 13.2426
LLC LOAD      SPEC        ACCESS:   10423760  HIT:    4698220  MISS:    5725540  HIT %:    45.0722  MISS %:    54.9278   MPKI: 28.6277
LLC RFO       NON_SPEC    ACCESS:       2006  HIT:         40  MISS:       1966  HIT %:    1.99402  MISS %:     98.006   MPKI: 0.00983
LLC PREFETCH  NON_SPEC    ACCESS:    2183432  HIT:     222817  MISS:    1960615  HIT %:    10.2049  MISS %:    89.7951   MPKI: 9.80307
LLC WRITEBACK NON_SPEC    ACCESS:    2847520  HIT:    2847499  MISS:         21  HIT %:    99.9993  MISS %: 0.000737484   MPKI: 0.000105
LLC CLEAN_EVICTION NON_SPEC    ACCESS:   11461182  HIT:    5075709  MISS:    6385473  HIT %:    44.2861  MISS %:    55.7139   MPKI: 31.9274
LLC COMMIT LOAD NON_SPEC    ACCESS:     119857  HIT:      99495  MISS:      20362  HIT %:    83.0114  MISS %:    16.9886   MPKI: 0.10181
LLC LOAD TRANSLATION NON_SPEC    ACCESS:     116672  HIT:      73102  MISS:      43570  HIT %:     62.656  MISS %:     37.344   MPKI: 0.21785
LLC TRANSLATION FROM L1D PREFETCHER NON_SPEC    ACCESS:      11439  HIT:       3573  MISS:       7866  HIT %:    31.2352  MISS %:    68.7648   MPKI: 0.03933
LLC PREFETCH  REQUESTED:          0  ISSUED:          0  USEFUL:     118423  USELESS:    1852816
LLC USEFUL LOAD PREFETCHES:     118423 PREFETCH ISSUED TO LOWER LEVEL:    1960616  ACCURACY: 6.04009
LLC TIMELY PREFETCHES:     118423 LATE PREFETCHES: 0 DROPPED PREFETCHES: 0
LLC COMMIT LATE PREFETCHES: 0 NORMAL LATE: 0 MISSED OPPORTUNITY: 0 UNCOVERED: 0
LLC PREFETCHES SAME FILL-ORIGIN LEVEL: 0 DIFFERENT FILL-ORIGIN LEVEL: 0
LLC AVERAGE MISS LATENCY: 109.683 cycles
LLC AVERAGE MISS LATENCY LOAD: 167.418 cycles
LLC AVERAGE MISS LATENCY PREFETCH: 217.018 cycles
LLC AVERAGE MSHR OCCUPANCY: 1.10045
LLC MSHR FULL: 0
LLC RQ	ACCESS:   14095448	FORWARD:          0	MERGED:          0	TO_CACHE:   14095395
LLC WQ	ACCESS:   14308702	FORWARD:         54	MERGED:          0	TO_CACHE:   14308702
LLC PQ	ACCESS:    2183434	FORWARD:          0	MERGED:          0	TO_CACHE:    2183433

LLC Dense regions hint to LLC: 0

RAW hits: 803061
Loads Generated: 56336782
Loads sent to L1D: 55533722
Stores Generated: 11244939
Stores sent to L1D: 11244938
Major fault: 0 Minor fault: 31004
Allocated PAGES: 31004
Total Load insts: 68066553
Total Non-spec loads: 9845322
Percentage of speculative loads: 85.5357

LeapFrogging counter: 1325231
Commit hits: 35581641 miss: 10486723
Commit hit %: 77.2366 miss %: 22.7634
Commits not translated: 0
Loads retired: 16493077
Stores retired: 11244938
Cache fills: 16493079
L1D response latency: 117.579 cycles
Load retirement latency: 225.774 cycles
OOO test counter: 0
Discarded buffer inserts: 35581641 hits: 8432 hit %: 0.0236976
Filter prediction accuracy: -nan
LATENCY_FILL: 6.46046 12821975
test counter pref: 248675586

DRAM Statistics
 CHANNEL 0
 RQ ROW_BUFFER_HIT:     860323  ROW_BUFFER_MISS:    9546474
 DBUS_CONGESTED:       5707
 WQ ROW_BUFFER_HIT:    4647112  ROW_BUFFER_MISS:    5113628  FULL:       6862

 AVG_CONGESTED_CYCLE: 4
 All warmup complete: 2
Channel 0 Bank busy for read cycles: 0
Channel 0 Bank busy for write cycles: 0
Channel 0
Rank 0
0banks busy for read cycles: 8644726
0banks busy for write cycles: 53532
1banks busy for read cycles: 495673805
1banks busy for write cycles: 14084042
2banks busy for read cycles: 276228203
2banks busy for write cycles: 25730888
3banks busy for read cycles: 71271423
3banks busy for write cycles: 40829374
4banks busy for read cycles: 22338824
4banks busy for write cycles: 56366396
5banks busy for read cycles: 10458224
5banks busy for write cycles: 69718726
6banks busy for read cycles: 5430667
6banks busy for write cycles: 79414902
7banks busy for read cycles: 3340043
7banks busy for write cycles: 86521519
8banks busy for read cycles: 3124376
8banks busy for write cycles: 87683451

CPU 0 Branch Prediction Accuracy: 85.1853% MPKI: 26.0899 Average ROB Occupancy at Mispredict: 28.5466
Branch types
NOT_BRANCH: 164778075 82.389%
BRANCH_DIRECT_JUMP: 253973 0.126986%
BRANCH_INDIRECT: 0 0%
BRANCH_CONDITIONAL: 34967586 17.4838%
BRANCH_DIRECT_CALL: 14 7e-06%
BRANCH_INDIRECT_CALL: 0 0%
BRANCH_RETURN: 14 7e-06%
BRANCH_OTHER: 0 0%

DRAM PAGES: 1048576
Allocated PAGES: 31004
