
*** ChampSim Multicore Out-of-Order Simulator ***

Warmup Instructions: 50000000
Simulation Instructions: 200000000
Number of CPUs: 1
LLC sets: 2048
LLC ways: 16
L0D sets: 16
L0D ways: 2
ROB size: 352
LQ size: 128
SQ size: 72
Secure Berti: OFF
Berti: OFF
Berti Fill: OFF
On commit prefetching: ON
Hit-based filter: OFF
Time-guarding: ON
Free-slotting: ON
Leap-frogging: ON
Train prefetcher on L0D bypass: OFF
No translation penalty for prefetchers: OFF
Prefetch to L0D only: OFF
Prefetch to L1D only: OFF
Clean evictions: ON
Commit loads: ON
Commit write: ON
Fill commit loads to L2C, LLC: ON
DRAM IO FREQUENCY: 6400
ROB SIZE: 352
Off-chip DRAM Size: 4096 MB Channels: 1 Width: 64-bit Data Rate: 6400 MT/s
CPU 0 runs /home/sumon/secure_berti/GhostMinion/../../traces/gap/cc-5.trace.gz
.gz
BTB has LRU replacement policy
ITLB has LRU replacement policy
DTLB has LRU replacement policy
STLB has LRU replacement policy
L1I has LRU replacement policy
L0D has LRU replacement policy
History Sets: 8
History Ways: 16
BERTI Size: 16
BERTI Stride Size: 16
History Sets: 8
History Ways: 16
BERTI Size: 16
BERTI Stride Size: 16
L1D has LRU replacement policy
L2C has LRU replacement policy
LLC has LRU replacement policy
Heartbeat CPU 0 instructions: 10000001 cycles: 3242989 heartbeat IPC: 3.08358 cumulative IPC: 3.08358 (Simulation time: 0 hr 0 min 53 sec) 
Heartbeat CPU 0 instructions: 20000001 cycles: 6477898 heartbeat IPC: 3.09128 cumulative IPC: 3.08742 (Simulation time: 0 hr 1 min 48 sec) 
Heartbeat CPU 0 instructions: 30000002 cycles: 9719103 heartbeat IPC: 3.08527 cumulative IPC: 3.0867 (Simulation time: 0 hr 2 min 45 sec) 
Heartbeat CPU 0 instructions: 40000001 cycles: 12956800 heartbeat IPC: 3.08861 cumulative IPC: 3.08718 (Simulation time: 0 hr 3 min 44 sec) 
Heartbeat CPU 0 instructions: 50000001 cycles: 16192833 heartbeat IPC: 3.0902 cumulative IPC: 3.08779 (Simulation time: 0 hr 4 min 44 sec) 

Warmup complete CPU 0 instructions: 50000001 cycles: 16192833 (Simulation time: 0 hr 4 min 44 sec) 

Heartbeat CPU 0 instructions: 60000001 cycles: 50932584 heartbeat IPC: 0.287855 cumulative IPC: 0.287855 (Simulation time: 0 hr 6 min 4 sec) 
Heartbeat CPU 0 instructions: 70000002 cycles: 84606174 heartbeat IPC: 0.296969 cumulative IPC: 0.292341 (Simulation time: 0 hr 7 min 24 sec) 
Heartbeat CPU 0 instructions: 80000000 cycles: 118309201 heartbeat IPC: 0.296709 cumulative IPC: 0.293782 (Simulation time: 0 hr 8 min 43 sec) 
Heartbeat CPU 0 instructions: 90000000 cycles: 152254248 heartbeat IPC: 0.294594 cumulative IPC: 0.293985 (Simulation time: 0 hr 10 min 3 sec) 
Heartbeat CPU 0 instructions: 100000000 cycles: 185792197 heartbeat IPC: 0.29817 cumulative IPC: 0.294812 (Simulation time: 0 hr 11 min 23 sec) 
Heartbeat CPU 0 instructions: 110000000 cycles: 218920028 heartbeat IPC: 0.301861 cumulative IPC: 0.295964 (Simulation time: 0 hr 12 min 41 sec) 
Heartbeat CPU 0 instructions: 120000000 cycles: 252221080 heartbeat IPC: 0.300291 cumulative IPC: 0.296575 (Simulation time: 0 hr 13 min 58 sec) 
Heartbeat CPU 0 instructions: 130000003 cycles: 284380521 heartbeat IPC: 0.310951 cumulative IPC: 0.298299 (Simulation time: 0 hr 15 min 15 sec) 
Heartbeat CPU 0 instructions: 140000001 cycles: 317211322 heartbeat IPC: 0.304592 cumulative IPC: 0.298985 (Simulation time: 0 hr 16 min 31 sec) 
Heartbeat CPU 0 instructions: 150000000 cycles: 349505327 heartbeat IPC: 0.309655 cumulative IPC: 0.300019 (Simulation time: 0 hr 17 min 47 sec) 
Heartbeat CPU 0 instructions: 160000000 cycles: 382363752 heartbeat IPC: 0.304336 cumulative IPC: 0.300406 (Simulation time: 0 hr 19 min 5 sec) 
Heartbeat CPU 0 instructions: 170000001 cycles: 415381934 heartbeat IPC: 0.302863 cumulative IPC: 0.300609 (Simulation time: 0 hr 20 min 23 sec) 
Heartbeat CPU 0 instructions: 180000001 cycles: 448322125 heartbeat IPC: 0.303581 cumulative IPC: 0.300836 (Simulation time: 0 hr 21 min 41 sec) 
Heartbeat CPU 0 instructions: 190000001 cycles: 481299955 heartbeat IPC: 0.303234 cumulative IPC: 0.301006 (Simulation time: 0 hr 22 min 57 sec) 
Heartbeat CPU 0 instructions: 200000000 cycles: 513658737 heartbeat IPC: 0.309035 cumulative IPC: 0.301528 (Simulation time: 0 hr 24 min 12 sec) 
Heartbeat CPU 0 instructions: 210000001 cycles: 546587501 heartbeat IPC: 0.303686 cumulative IPC: 0.301662 (Simulation time: 0 hr 26 min 16 sec) 
Heartbeat CPU 0 instructions: 220000000 cycles: 578842058 heartbeat IPC: 0.310034 cumulative IPC: 0.302142 (Simulation time: 0 hr 28 min 15 sec) 
Heartbeat CPU 0 instructions: 230000001 cycles: 611015798 heartbeat IPC: 0.310813 cumulative IPC: 0.302611 (Simulation time: 0 hr 29 min 21 sec) 
Heartbeat CPU 0 instructions: 240000003 cycles: 642692634 heartbeat IPC: 0.315688 cumulative IPC: 0.303272 (Simulation time: 0 hr 30 min 23 sec) 
Heartbeat CPU 0 instructions: 250000002 cycles: 673970865 heartbeat IPC: 0.319711 cumulative IPC: 0.304054 (Simulation time: 0 hr 31 min 21 sec) 
Finished CPU 0 instructions: 200000001 cycles: 657778032 cumulative IPC: 0.304054 (Simulation time: 0 hr 31 min 21 sec) 
 Instruction ID: 250000027

ChampSim completed all CPUs

Region of Interest Statistics

CPU 0 cumulative IPC: 0.304054 instructions: 200000001 cycles: 657778032
ITLB SPEC fills:          0  NON-SPEC fills:          0
ITLB Test counter :          0
ITLB Leapfrog:          0
ITLB MSHR merge:          0
ITLB TOTAL     ACCESS:   29806276  HIT:   29806276  MISS:          0  HIT %:        100  MISS %:          0   MPKI: 0
ITLB LOAD TRANSLATION NON_SPEC    ACCESS:   29806276  HIT:   29806276  MISS:          0  HIT %:        100  MISS %:          0   MPKI: 0
ITLB PREFETCH  REQUESTED:          0  ISSUED:          0  USEFUL:          0  USELESS:          0
ITLB USEFUL LOAD PREFETCHES:          0 PREFETCH ISSUED TO LOWER LEVEL:          0  ACCURACY: -nan
ITLB TIMELY PREFETCHES:          0 LATE PREFETCHES: 0 DROPPED PREFETCHES: 0
ITLB COMMIT LATE PREFETCHES: 0 NORMAL LATE: 0 MISSED OPPORTUNITY: 0 UNCOVERED: 0
ITLB PREFETCHES SAME FILL-ORIGIN LEVEL: 0 DIFFERENT FILL-ORIGIN LEVEL: 0
ITLB AVERAGE MISS LATENCY: -nan cycles
ITLB AVERAGE MISS LATENCY LOAD: -nan cycles
ITLB AVERAGE MISS LATENCY PREFETCH: -nan cycles
ITLB AVERAGE MSHR OCCUPANCY: 0
ITLB MSHR FULL: 0
ITLB RQ	ACCESS:   30412622	FORWARD:          0	MERGED:     606346	TO_CACHE:   29806276

DTLB SPEC fills:          0  NON-SPEC fills:          0
DTLB Test counter :          0
DTLB Leapfrog:          0
DTLB MSHR merge:          0
DTLB TOTAL     ACCESS:   46078807  HIT:   36600086  MISS:    9478721  HIT %:    79.4293  MISS %:    20.5707   MPKI: 47.3936
DTLB LOAD TRANSLATION NON_SPEC    ACCESS:   46078807  HIT:   36600086  MISS:    9478721  HIT %:    79.4293  MISS %:    20.5707   MPKI: 47.3936
DTLB PREFETCH  REQUESTED:          0  ISSUED:          0  USEFUL:          0  USELESS:          0
DTLB USEFUL LOAD PREFETCHES:          0 PREFETCH ISSUED TO LOWER LEVEL:          0  ACCURACY: -nan
DTLB TIMELY PREFETCHES:          0 LATE PREFETCHES: 0 DROPPED PREFETCHES: 0
DTLB COMMIT LATE PREFETCHES: 0 NORMAL LATE: 0 MISSED OPPORTUNITY: 0 UNCOVERED: 0
DTLB PREFETCHES SAME FILL-ORIGIN LEVEL: 0 DIFFERENT FILL-ORIGIN LEVEL: 0
DTLB AVERAGE MISS LATENCY: 9.57457 cycles
DTLB AVERAGE MISS LATENCY LOAD: -nan cycles
DTLB AVERAGE MISS LATENCY PREFETCH: -nan cycles
DTLB AVERAGE MSHR OCCUPANCY: 0.415802
DTLB MSHR FULL: 0.00423013
DTLB RQ	ACCESS:   48356964	FORWARD:          0	MERGED:    1896171	TO_CACHE:   46460793

STLB SPEC fills:          0  NON-SPEC fills:          0
STLB Test counter :          0
STLB Leapfrog:          0
STLB MSHR merge:          0
STLB TOTAL     ACCESS:   24831230  HIT:   24816955  MISS:      14275  HIT %:    99.9425  MISS %:  0.0574881   MPKI: 0.071375
STLB LOAD TRANSLATION NON_SPEC    ACCESS:    9478721  HIT:    9464452  MISS:      14269  HIT %:    99.8495  MISS %:   0.150537   MPKI: 0.071345
STLB TRANSLATION FROM L1D PREFETCHER NON_SPEC    ACCESS:   15352509  HIT:   15352503  MISS:          6  HIT %:        100  MISS %: 3.90816e-05   MPKI: 3e-05
STLB PREFETCH  REQUESTED:          0  ISSUED:          0  USEFUL:          4  USELESS:          3
STLB USEFUL LOAD PREFETCHES:          4 PREFETCH ISSUED TO LOWER LEVEL:          0  ACCURACY: inf
STLB TIMELY PREFETCHES:          4 LATE PREFETCHES: 8189 DROPPED PREFETCHES: 1009668
STLB COMMIT LATE PREFETCHES: 0 NORMAL LATE: 0 MISSED OPPORTUNITY: 0 UNCOVERED: 0
STLB PREFETCHES SAME FILL-ORIGIN LEVEL: 0 DIFFERENT FILL-ORIGIN LEVEL: 0
STLB AVERAGE MISS LATENCY: 176.527 cycles
STLB AVERAGE MISS LATENCY LOAD: -nan cycles
STLB AVERAGE MISS LATENCY PREFETCH: -nan cycles
STLB AVERAGE MSHR OCCUPANCY: 0.142249
STLB MSHR FULL: 0
STLB RQ	ACCESS:  117632921	FORWARD:          0	MERGED:   91728571	TO_CACHE:   25904350

STLB Hit, L1D data hit: 0
STLB Hit, L2C data hit: 0
STLB Hit, LLC data hit: 0
STLB Hit, LLC data miss: 0
STLB STLB hints to L2: 0
L0D SPEC fills:   24793482  NON-SPEC fills:          0
L0D TimeGuard Request with older TS:     740822 Restricted eviction:     326819 read:     639113
L0D Test counter :          0
L0D Leapfrog:          0
L0D MSHR merge:     976555
L0D TOTAL     ACCESS:   47132134  HIT:   13312435  MISS:   33819699  HIT %:    28.2449  MISS %:    71.7551   MPKI: 169.098
L0D LOAD      TOTAL       ACCESS:   47132134  HIT:   13312435  MISS:   33819699  HIT %:    28.2449  MISS %:    71.7551   MPKI: 169.098
L0D LOAD      NON_SPEC    ACCESS:    9600528  HIT:     901130  MISS:    8699398  HIT %:    9.38625  MISS %:    90.6137   MPKI: 43.497
L0D LOAD      SPEC        ACCESS:   37531606  HIT:   12411305  MISS:   25120301  HIT %:    33.0689  MISS %:    66.9311   MPKI: 125.602
L0D PREFETCH  REQUESTED:          0  ISSUED:          0  USEFUL:          0  USELESS:          0
L0D USEFUL LOAD PREFETCHES:          0 PREFETCH ISSUED TO LOWER LEVEL:          0  ACCURACY: -nan
L0D TIMELY PREFETCHES:          0 LATE PREFETCHES: 0 DROPPED PREFETCHES: 0
L0D COMMIT LATE PREFETCHES: 0 NORMAL LATE: 0 MISSED OPPORTUNITY: 0 UNCOVERED: 0
L0D PREFETCHES SAME FILL-ORIGIN LEVEL: 0 DIFFERENT FILL-ORIGIN LEVEL: 0
L0D AVERAGE MISS LATENCY: 31.6396 cycles
L0D AVERAGE MISS LATENCY LOAD: 31.6396 cycles
L0D AVERAGE MISS LATENCY PREFETCH: -nan cycles
L0D AVERAGE MSHR OCCUPANCY: 2.21241
L0D MSHR FULL: 0.0453864
L0D RQ	ACCESS:   54337464	FORWARD:          0	MERGED:    6228782	TO_CACHE:   48108682
L0D WQ	ACCESS:     248282	FORWARD:          0	MERGED:          0	TO_CACHE:     248282

L1D SPEC fills:          0  NON-SPEC fills:    2659162
L1D Test counter :   13692419
L1D Leapfrog:          0
L1D MSHR merge:      12124
L1D TOTAL     ACCESS:  139885560  HIT:  114139670  MISS:   25745890  HIT %:     81.595  MISS %:     18.405   MPKI: 128.729
L1D LOAD      TOTAL       ACCESS:   33819178  HIT:   20087806  MISS:   13731372  HIT %:    59.3977  MISS %:    40.6023   MPKI: 68.6569
L1D LOAD      NON_SPEC    ACCESS:    8698913  HIT:    6039751  MISS:    2659162  HIT %:    69.4311  MISS %:    30.5689   MPKI: 13.2958
L1D LOAD      SPEC        ACCESS:   25120265  HIT:   14048055  MISS:   11072210  HIT %:    55.9232  MISS %:    44.0768   MPKI: 55.361
L1D RFO       NON_SPEC    ACCESS:     246811  HIT:     246811  MISS:          0  HIT %:        100  MISS %:          0   MPKI: 0
L1D PREFETCH  NON_SPEC    ACCESS:   69033627  HIT:   68086936  MISS:     946691  HIT %:    98.6287  MISS %:    1.37135   MPKI: 4.73345
L1D COMMIT LOAD NON_SPEC    ACCESS:   12815801  HIT:   12539188  MISS:     276613  HIT %:    97.8416  MISS %:    2.15837   MPKI: 1.38306
L1D COMMIT WRITE NON_SPEC    ACCESS:   23970143  HIT:   13178929  MISS:   10791214  HIT %:    54.9806  MISS %:    45.0194   MPKI: 53.9561
L1D PREFETCH  REQUESTED:  238311758  ISSUED:  127434359  USEFUL:     924583  USELESS:      22117
L1D USEFUL LOAD PREFETCHES:     924583 PREFETCH ISSUED TO LOWER LEVEL:   35783917  ACCURACY: 2.58379
L1D TIMELY PREFETCHES:     924583 LATE PREFETCHES: 11603 DROPPED PREFETCHES: 2888081
L1D COMMIT LATE PREFETCHES: 7610 NORMAL LATE: 13427 MISSED OPPORTUNITY: 35622 UNCOVERED: 13675738
L1D PREFETCHES SAME FILL-ORIGIN LEVEL: 958294 DIFFERENT FILL-ORIGIN LEVEL: 34825623
L1D AVERAGE MISS LATENCY: 41.4798 cycles
L1D AVERAGE MISS LATENCY LOAD: 65.3305 cycles
L1D AVERAGE MISS LATENCY PREFETCH: 168.841 cycles
L1D AVERAGE MSHR OCCUPANCY: 1.57826
L1D MSHR FULL: 3.23982e-05
L1D RQ	ACCESS:   54226929	FORWARD:          0	MERGED:    5627313	TO_CACHE:   46636940
L1D WQ	ACCESS:   24443104	FORWARD:    1962676	MERGED:     224684	TO_CACHE:   24218420
L1D PQ	ACCESS:  127434359	FORWARD:          0	MERGED:   19280159	TO_CACHE:  108154200

L1D UNIQUE REGIONS ACCESSED: 0
L1D REGIONS CONFLICTS: 0
L1D Cross Page Prefetch Requests: 11567829
L1D Same Page Prefetch Requests: 156722214
L1D ROI Sum of L1D PQ occupancy: 2631663753
L1D PREFETCHES PUSHED FROM L2C: 0
L1I SPEC fills:          0  NON-SPEC fills:          0
L1I Test counter :          0
L1I Leapfrog:          0
L1I MSHR merge:          0
L1I TOTAL     ACCESS:   30412622  HIT:   30412622  MISS:          0  HIT %:        100  MISS %:          0   MPKI: 0
L1I LOAD      TOTAL       ACCESS:   30412622  HIT:   30412622  MISS:          0  HIT %:        100  MISS %:          0   MPKI: 0
L1I LOAD      NON_SPEC    ACCESS:   30412622  HIT:   30412622  MISS:          0  HIT %:        100  MISS %:          0   MPKI: 0
L1I PREFETCH  REQUESTED:          0  ISSUED:          0  USEFUL:          0  USELESS:          0
L1I USEFUL LOAD PREFETCHES:          0 PREFETCH ISSUED TO LOWER LEVEL:          0  ACCURACY: -nan
L1I TIMELY PREFETCHES:          0 LATE PREFETCHES: 0 DROPPED PREFETCHES: 0
L1I COMMIT LATE PREFETCHES: 0 NORMAL LATE: 0 MISSED OPPORTUNITY: 0 UNCOVERED: 0
L1I PREFETCHES SAME FILL-ORIGIN LEVEL: 0 DIFFERENT FILL-ORIGIN LEVEL: 0
L1I AVERAGE MISS LATENCY: -nan cycles
L1I AVERAGE MISS LATENCY LOAD: -nan cycles
L1I AVERAGE MISS LATENCY PREFETCH: -nan cycles
L1I AVERAGE MSHR OCCUPANCY: 0
L1I MSHR FULL: 0
L1I RQ	ACCESS:   55252377	FORWARD:          0	MERGED:   24839755	TO_CACHE:   30412622

BTB SPEC fills:          0  NON-SPEC fills:          0
BTB Test counter :          0
BTB Leapfrog:          0
BTB MSHR merge:          0
BTB TOTAL     ACCESS:   40039424  HIT:   40039419  MISS:          5  HIT %:        100  MISS %: 1.24877e-05   MPKI: 2.5e-05
BTB BRANCH_DIRECT_JUMP	ACCESS:          0  HIT:          0  MISS:          0
BTB BRANCH_INDIRECT	ACCESS:          0  HIT:          0  MISS:          0
BTB BRANCH_CONDITIONAL	ACCESS:   40039424  HIT:   40039419  MISS:          5
BTB BRANCH_DIRECT_CALL	ACCESS:          0  HIT:          0  MISS:          0
BTB BRANCH_INDIRECT_CALL	ACCESS:          0  HIT:          0  MISS:          0
BTB BRANCH_RETURN	ACCESS:          0  HIT:          0  MISS:          0
BTB BRANCH_OTHER ACCESS:          0  HIT:          0  MISS:          0

L2C SPEC fills:          0  NON-SPEC fills:    1658445
L2C Test counter :          0
L2C Leapfrog:          0
L2C MSHR merge:      13609
L2C TOTAL     ACCESS:   66450423  HIT:   48677511  MISS:   17772912  HIT %:    73.2539  MISS %:    26.7461   MPKI: 88.8646
L2C LOAD      TOTAL       ACCESS:   13719504  HIT:    4658343  MISS:    9061161  HIT %:    33.9542  MISS %:    66.0458   MPKI: 45.3058
L2C LOAD      NON_SPEC    ACCESS:    2658161  HIT:     999716  MISS:    1658445  HIT %:    37.6093  MISS %:    62.3907   MPKI: 8.29222
L2C LOAD      SPEC        ACCESS:   11061343  HIT:    3658627  MISS:    7402716  HIT %:    33.0758  MISS %:    66.9242   MPKI: 37.0136
L2C PREFETCH  NON_SPEC    ACCESS:   35388291  HIT:   34233319  MISS:    1154972  HIT %:    96.7363  MISS %:    3.26371   MPKI: 5.77486
L2C WRITEBACK NON_SPEC    ACCESS:      30602  HIT:      30600  MISS:          2  HIT %:    99.9935  MISS %: 0.00653552   MPKI: 1e-05
L2C CLEAN_EVICTION NON_SPEC    ACCESS:   11876981  HIT:    4479177  MISS:    7397804  HIT %:    37.7131  MISS %:    62.2869   MPKI: 36.989
L2C COMMIT LOAD NON_SPEC    ACCESS:     276416  HIT:     121967  MISS:     154449  HIT %:    44.1244  MISS %:    55.8756   MPKI: 0.772245
L2C LOAD TRANSLATION NON_SPEC    ACCESS:      71318  HIT:      71318  MISS:          0  HIT %:        100  MISS %:          0   MPKI: 0
L2C TRANSLATION FROM L1D PREFETCHER NON_SPEC    ACCESS:    5087311  HIT:    5082787  MISS:       4524  HIT %:    99.9111  MISS %:  0.0889271   MPKI: 0.02262
L2C PREFETCH  REQUESTED:          0  ISSUED:          0  USEFUL:      39177  USELESS:    1120125
L2C USEFUL LOAD PREFETCHES:      39177 PREFETCH ISSUED TO LOWER LEVEL:    1168752  ACCURACY: 3.35204
L2C TIMELY PREFETCHES:      39177 LATE PREFETCHES: 13780 DROPPED PREFETCHES: 0
L2C COMMIT LATE PREFETCHES: 0 NORMAL LATE: 13853 MISSED OPPORTUNITY: 0 UNCOVERED: 9047478
L2C PREFETCHES SAME FILL-ORIGIN LEVEL: 459994 DIFFERENT FILL-ORIGIN LEVEL: 0
L2C AVERAGE MISS LATENCY: 54.3686 cycles
L2C AVERAGE MISS LATENCY LOAD: 80.6148 cycles
L2C AVERAGE MISS LATENCY PREFETCH: 197.833 cycles
L2C AVERAGE MSHR OCCUPANCY: 1.63998
L2C MSHR FULL: 0
L2C RQ	ACCESS:   19155011	FORWARD:          0	MERGED:          0	TO_CACHE:   19154549
L2C WQ	ACCESS:   11907586	FORWARD:        463	MERGED:          0	TO_CACHE:   11907586
L2C PQ	ACCESS:   35783917	FORWARD:          0	MERGED:       3067	TO_CACHE:   35780849

L2C Instructions Evicting Data 0
L2C Translations Evicting Data 4522
L2C Data Evicting Data 2966629
L2C Instructions Evicting Instructions 0
L2C Translations Evicting Instructions 0
L2C Data Evicting Instructions 0
L2C Instructions Evicting Translations 0
L2C Translations Evicting Translations 2
L2C Data Evicting Translations 1237
L2C Dense regions hint from L2: 0
PSCL5 SPEC fills:          0  NON-SPEC fills:          0
PSCL5 Test counter :          0
PSCL5 Leapfrog:          0
PSCL5 MSHR merge:          0
PSCL5 TOTAL     ACCESS:          0  HIT:          0  MISS:          0  HIT %:       -nan  MISS %:       -nan   MPKI: 0
PSCL5 PREFETCH  REQUESTED:          0  ISSUED:          0  USEFUL:          0  USELESS:          0
PSCL5 USEFUL LOAD PREFETCHES:          0 PREFETCH ISSUED TO LOWER LEVEL:          0  ACCURACY: -nan
PSCL5 TIMELY PREFETCHES:          0 LATE PREFETCHES: 0 DROPPED PREFETCHES: 0
PSCL5 COMMIT LATE PREFETCHES: 0 NORMAL LATE: 0 MISSED OPPORTUNITY: 0 UNCOVERED: 0
PSCL5 PREFETCHES SAME FILL-ORIGIN LEVEL: 0 DIFFERENT FILL-ORIGIN LEVEL: 0

PSCL4 SPEC fills:          0  NON-SPEC fills:          0
PSCL4 Test counter :          0
PSCL4 Leapfrog:          0
PSCL4 MSHR merge:          0
PSCL4 TOTAL     ACCESS:          0  HIT:          0  MISS:          0  HIT %:       -nan  MISS %:       -nan   MPKI: 0
PSCL4 PREFETCH  REQUESTED:          0  ISSUED:          0  USEFUL:          0  USELESS:          0
PSCL4 USEFUL LOAD PREFETCHES:          0 PREFETCH ISSUED TO LOWER LEVEL:          0  ACCURACY: -nan
PSCL4 TIMELY PREFETCHES:          0 LATE PREFETCHES: 0 DROPPED PREFETCHES: 0
PSCL4 COMMIT LATE PREFETCHES: 0 NORMAL LATE: 0 MISSED OPPORTUNITY: 0 UNCOVERED: 0
PSCL4 PREFETCHES SAME FILL-ORIGIN LEVEL: 0 DIFFERENT FILL-ORIGIN LEVEL: 0

PSCL3 SPEC fills:          0  NON-SPEC fills:          0
PSCL3 Test counter :          0
PSCL3 Leapfrog:          0
PSCL3 MSHR merge:          0
PSCL3 TOTAL     ACCESS:          0  HIT:          0  MISS:          0  HIT %:       -nan  MISS %:       -nan   MPKI: 0
PSCL3 PREFETCH  REQUESTED:          0  ISSUED:          0  USEFUL:          0  USELESS:          0
PSCL3 USEFUL LOAD PREFETCHES:          0 PREFETCH ISSUED TO LOWER LEVEL:          0  ACCURACY: -nan
PSCL3 TIMELY PREFETCHES:          0 LATE PREFETCHES: 0 DROPPED PREFETCHES: 0
PSCL3 COMMIT LATE PREFETCHES: 0 NORMAL LATE: 0 MISSED OPPORTUNITY: 0 UNCOVERED: 0
PSCL3 PREFETCHES SAME FILL-ORIGIN LEVEL: 0 DIFFERENT FILL-ORIGIN LEVEL: 0

PSCL2 SPEC fills:          0  NON-SPEC fills:          0
PSCL2 Test counter :          0
PSCL2 Leapfrog:          0
PSCL2 MSHR merge:          0
PSCL2 TOTAL     ACCESS:          0  HIT:          0  MISS:          0  HIT %:       -nan  MISS %:       -nan   MPKI: 0
PSCL2 PREFETCH  REQUESTED:          0  ISSUED:          0  USEFUL:          0  USELESS:          0
PSCL2 USEFUL LOAD PREFETCHES:          0 PREFETCH ISSUED TO LOWER LEVEL:          0  ACCURACY: -nan
PSCL2 TIMELY PREFETCHES:          0 LATE PREFETCHES: 0 DROPPED PREFETCHES: 0
PSCL2 COMMIT LATE PREFETCHES: 0 NORMAL LATE: 0 MISSED OPPORTUNITY: 0 UNCOVERED: 0
PSCL2 PREFETCHES SAME FILL-ORIGIN LEVEL: 0 DIFFERENT FILL-ORIGIN LEVEL: 0

LLC SPEC fills:          0  NON-SPEC fills:     577342
LLC Test counter :          0
LLC Leapfrog:          0
LLC MSHR merge:          0
LLC TOTAL     ACCESS:   19088746  HIT:   11712443  MISS:    7376303  HIT %:    61.3578  MISS %:    38.6422   MPKI: 36.8815
LLC LOAD      TOTAL       ACCESS:    9047431  HIT:    5824863  MISS:    3222568  HIT %:    64.3814  MISS %:    35.6186   MPKI: 16.1128
LLC LOAD      NON_SPEC    ACCESS:    1655647  HIT:    1078305  MISS:     577342  HIT %:    65.1289  MISS %:    34.8711   MPKI: 2.88671
LLC LOAD      SPEC        ACCESS:    7391784  HIT:    4746558  MISS:    2645226  HIT %:     64.214  MISS %:     35.786   MPKI: 13.2261
LLC PREFETCH  NON_SPEC    ACCESS:    1168752  HIT:      92444  MISS:    1076308  HIT %:    7.90963  MISS %:    92.0904   MPKI: 5.38154
LLC WRITEBACK NON_SPEC    ACCESS:      27796  HIT:      27789  MISS:          7  HIT %:    99.9748  MISS %:  0.0251835   MPKI: 3.5e-05
LLC CLEAN_EVICTION NON_SPEC    ACCESS:    8686018  HIT:    5626031  MISS:    3059987  HIT %:    64.7711  MISS %:    35.2289   MPKI: 15.2999
LLC COMMIT LOAD NON_SPEC    ACCESS:     154225  HIT:     138707  MISS:      15518  HIT %:    89.9381  MISS %:    10.0619   MPKI: 0.07759
LLC TRANSLATION FROM L1D PREFETCHER NON_SPEC    ACCESS:       4524  HIT:       2609  MISS:       1915  HIT %:    57.6702  MISS %:    42.3298   MPKI: 0.009575
LLC PREFETCH  REQUESTED:          0  ISSUED:          0  USEFUL:      39173  USELESS:    1038807
LLC USEFUL LOAD PREFETCHES:      39173 PREFETCH ISSUED TO LOWER LEVEL:    1076308  ACCURACY: 3.63957
LLC TIMELY PREFETCHES:      39173 LATE PREFETCHES: 0 DROPPED PREFETCHES: 0
LLC COMMIT LATE PREFETCHES: 0 NORMAL LATE: 0 MISSED OPPORTUNITY: 0 UNCOVERED: 0
LLC PREFETCHES SAME FILL-ORIGIN LEVEL: 0 DIFFERENT FILL-ORIGIN LEVEL: 0
LLC AVERAGE MISS LATENCY: 97.9116 cycles
LLC AVERAGE MISS LATENCY LOAD: 162.249 cycles
LLC AVERAGE MISS LATENCY PREFETCH: 182.872 cycles
LLC AVERAGE MSHR OCCUPANCY: 1.12682
LLC MSHR FULL: 0
LLC RQ	ACCESS:    9206353	FORWARD:          0	MERGED:          0	TO_CACHE:    9206179
LLC WQ	ACCESS:    8713814	FORWARD:        174	MERGED:          0	TO_CACHE:    8713814
LLC PQ	ACCESS:    1168752	FORWARD:          0	MERGED:          0	TO_CACHE:    1168752

LLC Dense regions hint to LLC: 0

RAW hits: 30106
Loads Generated: 54367570
Loads sent to L1D: 54337464
Stores Generated: 248282
Stores sent to L1D: 248282
Major fault: 0 Minor fault: 18714
Allocated PAGES: 18714
Total Load insts: 66974712
Total Non-spec loads: 10080728
Percentage of speculative loads: 84.9485

LeapFrogging counter: 513912
Commit hits: 24194822 miss: 20407233
Commit hit %: 54.246 miss %: 45.754
Commits not translated: 0
Loads retired: 13731370
Stores retired: 248282
Cache fills: 13731372
L1D response latency: 65.3305 cycles
Load retirement latency: 153.678 cycles
OOO test counter: 0
Discarded buffer inserts: 24194822 hits: 1678 hit %: 0.00693537
Filter prediction accuracy: -nan
LATENCY_FILL: 6.27756 11061479
test counter pref: 153586669

DRAM Statistics
 CHANNEL 0
 RQ ROW_BUFFER_HIT:     379340  ROW_BUFFER_MISS:    3935733
 DBUS_CONGESTED:       1678
 WQ ROW_BUFFER_HIT:    1652455  ROW_BUFFER_MISS:    2602271  FULL:        414

 AVG_CONGESTED_CYCLE: 5
 All warmup complete: 2
Channel 0 Bank busy for read cycles: 0
Channel 0 Bank busy for write cycles: 0
Channel 0
Rank 0
0banks busy for read cycles: 33048037
0banks busy for write cycles: 345457
1banks busy for read cycles: 200602372
1banks busy for write cycles: 58974519
2banks busy for read cycles: 98053402
2banks busy for write cycles: 54988061
3banks busy for read cycles: 40425659
3banks busy for write cycles: 40357953
4banks busy for read cycles: 12984516
4banks busy for write cycles: 27928032
5banks busy for read cycles: 3357763
5banks busy for write cycles: 20026085
6banks busy for read cycles: 870306
6banks busy for write cycles: 16500536
7banks busy for read cycles: 407244
7banks busy for write cycles: 18498387
8banks busy for read cycles: 1937175
8banks busy for write cycles: 28472529

CPU 0 Branch Prediction Accuracy: 94.3308% MPKI: 11.3996 Average ROB Occupancy at Mispredict: 48.4234
Branch types
NOT_BRANCH: 159783723 79.8919%
BRANCH_DIRECT_JUMP: 0 0%
BRANCH_INDIRECT: 0 0%
BRANCH_CONDITIONAL: 40215925 20.108%
BRANCH_DIRECT_CALL: 0 0%
BRANCH_INDIRECT_CALL: 0 0%
BRANCH_RETURN: 0 0%
BRANCH_OTHER: 0 0%

DRAM PAGES: 1048576
Allocated PAGES: 18714
