
*** ChampSim Multicore Out-of-Order Simulator ***

Warmup Instructions: 50000000
Simulation Instructions: 200000000
Number of CPUs: 1
LLC sets: 2048
LLC ways: 16
Secure Berti: OFF
Berti: OFF
Berti Fill: OFF
On commit prefetching: OFF
L2 LLC Bypass speculative loads: OFF
Off-chip DRAM Size: 4096 MB Channels: 1 Width: 64-bit Data Rate: 6400 MT/s
CPU 0 runs /home/sumon/secure_berti/Berti_Baseline/../../traces/spec/602.gcc_s-2226B.champsimtrace.xz
.xz
BTB has LRU replacement policy
ITLB has LRU replacement policy
DTLB has LRU replacement policy
STLB has LRU replacement policy
L1I has LRU replacement policy
History Sets: 8
History Ways: 16
BERTI Size: 16
BERTI Stride Size: 16
L1D has LRU replacement policy
L2C has LRU replacement policy
LLC has LRU replacement policy
Heartbeat CPU 0 instructions: 10000002 cycles: 3734800 heartbeat IPC: 2.67752 cumulative IPC: 2.67752 (Simulation time: 0 hr 0 min 25 sec) 
Heartbeat CPU 0 instructions: 20000001 cycles: 7471155 heartbeat IPC: 2.6764 cumulative IPC: 2.67696 (Simulation time: 0 hr 0 min 50 sec) 
Heartbeat CPU 0 instructions: 30000001 cycles: 11202120 heartbeat IPC: 2.68027 cumulative IPC: 2.67806 (Simulation time: 0 hr 1 min 16 sec) 
Heartbeat CPU 0 instructions: 40000002 cycles: 14932988 heartbeat IPC: 2.68034 cumulative IPC: 2.67863 (Simulation time: 0 hr 1 min 42 sec) 
Heartbeat CPU 0 instructions: 50000000 cycles: 18665544 heartbeat IPC: 2.67913 cumulative IPC: 2.67873 (Simulation time: 0 hr 2 min 7 sec) 

Warmup complete CPU 0 instructions: 50000004 cycles: 18665545 (Simulation time: 0 hr 2 min 7 sec) 

Heartbeat CPU 0 instructions: 60000001 cycles: 41995081 heartbeat IPC: 0.428641 cumulative IPC: 0.428641 (Simulation time: 0 hr 2 min 47 sec) 
Heartbeat CPU 0 instructions: 70000000 cycles: 65034641 heartbeat IPC: 0.434036 cumulative IPC: 0.431322 (Simulation time: 0 hr 3 min 29 sec) 
Heartbeat CPU 0 instructions: 80000000 cycles: 88356348 heartbeat IPC: 0.428785 cumulative IPC: 0.430473 (Simulation time: 0 hr 4 min 12 sec) 
Heartbeat CPU 0 instructions: 90000001 cycles: 111643303 heartbeat IPC: 0.429425 cumulative IPC: 0.43021 (Simulation time: 0 hr 4 min 57 sec) 
Heartbeat CPU 0 instructions: 100000001 cycles: 134898426 heartbeat IPC: 0.430013 cumulative IPC: 0.430171 (Simulation time: 0 hr 5 min 43 sec) 
Heartbeat CPU 0 instructions: 110000000 cycles: 157968219 heartbeat IPC: 0.433467 cumulative IPC: 0.430717 (Simulation time: 0 hr 6 min 29 sec) 
Heartbeat CPU 0 instructions: 120000000 cycles: 181397877 heartbeat IPC: 0.426809 cumulative IPC: 0.430154 (Simulation time: 0 hr 7 min 17 sec) 
Heartbeat CPU 0 instructions: 130000001 cycles: 204735585 heartbeat IPC: 0.428491 cumulative IPC: 0.429946 (Simulation time: 0 hr 8 min 5 sec) 
Heartbeat CPU 0 instructions: 140000000 cycles: 227797558 heartbeat IPC: 0.433614 cumulative IPC: 0.43035 (Simulation time: 0 hr 8 min 53 sec) 
Heartbeat CPU 0 instructions: 150000001 cycles: 250972238 heartbeat IPC: 0.431505 cumulative IPC: 0.430465 (Simulation time: 0 hr 9 min 39 sec) 
Heartbeat CPU 0 instructions: 160000002 cycles: 274292972 heartbeat IPC: 0.428803 cumulative IPC: 0.430314 (Simulation time: 0 hr 10 min 24 sec) 
Heartbeat CPU 0 instructions: 170000001 cycles: 297608246 heartbeat IPC: 0.428903 cumulative IPC: 0.430196 (Simulation time: 0 hr 11 min 7 sec) 
Heartbeat CPU 0 instructions: 180000000 cycles: 320601097 heartbeat IPC: 0.434918 cumulative IPC: 0.430555 (Simulation time: 0 hr 11 min 48 sec) 
Heartbeat CPU 0 instructions: 190000002 cycles: 343946223 heartbeat IPC: 0.428355 cumulative IPC: 0.430398 (Simulation time: 0 hr 12 min 25 sec) 
Heartbeat CPU 0 instructions: 200000000 cycles: 367223266 heartbeat IPC: 0.429608 cumulative IPC: 0.430345 (Simulation time: 0 hr 13 min 1 sec) 
Heartbeat CPU 0 instructions: 210000003 cycles: 390452376 heartbeat IPC: 0.430494 cumulative IPC: 0.430354 (Simulation time: 0 hr 13 min 37 sec) 
Heartbeat CPU 0 instructions: 220000000 cycles: 413469596 heartbeat IPC: 0.434457 cumulative IPC: 0.430593 (Simulation time: 0 hr 14 min 13 sec) 
Heartbeat CPU 0 instructions: 230000001 cycles: 436811674 heartbeat IPC: 0.428411 cumulative IPC: 0.430472 (Simulation time: 0 hr 14 min 48 sec) 
Heartbeat CPU 0 instructions: 240000001 cycles: 460151070 heartbeat IPC: 0.42846 cumulative IPC: 0.430365 (Simulation time: 0 hr 15 min 24 sec) 
Heartbeat CPU 0 instructions: 250000000 cycles: 483256852 heartbeat IPC: 0.432792 cumulative IPC: 0.430486 (Simulation time: 0 hr 15 min 59 sec) 
Finished CPU 0 instructions: 200000000 cycles: 464591308 cumulative IPC: 0.430486 (Simulation time: 0 hr 15 min 59 sec) 

ChampSim completed all CPUs

Region of Interest Statistics

CPU 0 cumulative IPC: 0.430486 instructions: 200000000 cycles: 464591308
ITLB TOTAL     ACCESS:   36785337  HIT:   36785337  MISS:          0  HIT %:        100  MISS %:          0   MPKI: 0
ITLB Test counter:          0
ITLB LOAD TRANSLATION ACCESS:   36785337  HIT:   36785337  MISS:          0  HIT %:        100  MISS %:          0   MPKI: 0
ITLB PREFETCH  REQUESTED:          0  ISSUED:          0  USEFUL:          0  USELESS:          0
ITLB USEFUL LOAD PREFETCHES:          0 PREFETCH ISSUED TO LOWER LEVEL:          0  ACCURACY: -nan
ITLB TIMELY PREFETCHES:          0 LATE PREFETCHES: 0 DROPPED PREFETCHES: 0
ITLB COMMIT LATE PREFETCHES: 0 MISSED OPPORTUNITY: 0 LATE IN PQ: 0 UNCOVERED: 0
ITLB COMMIT LATE MSHR PREFETCHES: 0
ITLB MPKI TOTAL: 0 MSHR LATE: 0 PQ LATE: 0 COMMIT LATE: 0 MISSED OPPORTUNITY: 0 UNCOVERED: 0
ITLB PREFETCHES SAME FILL-ORIGIN LEVEL: 0 DIFFERENT FILL-ORIGIN LEVEL: 0
ITLB AVERAGE MISS LATENCY: -nan cycles
ITLB AVERAGE MISS LATENCY LOAD: -nan cycles
ITLB AVERAGE MISS LATENCY PREFETCH: -nan cycles
ITLB AVERAGE MSHR OCCUPANCY: 0
ITLB MSHR FULL: 0
ITLB RQ	ACCESS:   37483474	FORWARD:          0	MERGED:     698136	TO_CACHE:   36785338

DTLB TOTAL     ACCESS:   30797952  HIT:   30524450  MISS:     273502  HIT %:    99.1119  MISS %:   0.888053   MPKI: 1.36751
DTLB Test counter:          0
DTLB LOAD TRANSLATION ACCESS:   30797952  HIT:   30524450  MISS:     273502  HIT %:    99.1119  MISS %:   0.888053   MPKI: 1.36751
DTLB PREFETCH  REQUESTED:          0  ISSUED:          0  USEFUL:          0  USELESS:          0
DTLB USEFUL LOAD PREFETCHES:          0 PREFETCH ISSUED TO LOWER LEVEL:          0  ACCURACY: -nan
DTLB TIMELY PREFETCHES:          0 LATE PREFETCHES: 0 DROPPED PREFETCHES: 0
DTLB COMMIT LATE PREFETCHES: 0 MISSED OPPORTUNITY: 0 LATE IN PQ: 0 UNCOVERED: 0
DTLB COMMIT LATE MSHR PREFETCHES: 0
DTLB MPKI TOTAL: 0 MSHR LATE: 0 PQ LATE: 0 COMMIT LATE: 0 MISSED OPPORTUNITY: 0 UNCOVERED: 0
DTLB PREFETCHES SAME FILL-ORIGIN LEVEL: 0 DIFFERENT FILL-ORIGIN LEVEL: 0
DTLB AVERAGE MISS LATENCY: 27.8975 cycles
DTLB AVERAGE MISS LATENCY LOAD: -nan cycles
DTLB AVERAGE MISS LATENCY PREFETCH: -nan cycles
DTLB AVERAGE MSHR OCCUPANCY: 0.00353408
DTLB MSHR FULL: 0
DTLB RQ	ACCESS:   36271000	FORWARD:          0	MERGED:    5472888	TO_CACHE:   30798112

STLB TOTAL     ACCESS:   27362849  HIT:   27098873  MISS:     263976  HIT %:    99.0353  MISS %:   0.964724   MPKI: 1.31988
STLB Test counter:          0
STLB LOAD TRANSLATION ACCESS:     273502  HIT:     234023  MISS:      39479  HIT %:    85.5654  MISS %:    14.4346   MPKI: 0.197395
STLB TRANSLATION FROM L1D PREFETCHER ACCESS:   27089347  HIT:   26864850  MISS:     224497  HIT %:    99.1713  MISS %:   0.828728   MPKI: 1.12248
STLB PREFETCH  REQUESTED:          0  ISSUED:          0  USEFUL:     224332  USELESS:        165
STLB USEFUL LOAD PREFETCHES:     224332 PREFETCH ISSUED TO LOWER LEVEL:          0  ACCURACY: inf
STLB TIMELY PREFETCHES:     224332 LATE PREFETCHES: 177 DROPPED PREFETCHES: 2800567
STLB COMMIT LATE PREFETCHES: 0 MISSED OPPORTUNITY: 0 LATE IN PQ: 0 UNCOVERED: 0
STLB COMMIT LATE MSHR PREFETCHES: 0
STLB MPKI TOTAL: 0 MSHR LATE: 0.000885 PQ LATE: 0 COMMIT LATE: 0 MISSED OPPORTUNITY: 0 UNCOVERED: 0
STLB PREFETCHES SAME FILL-ORIGIN LEVEL: 0 DIFFERENT FILL-ORIGIN LEVEL: 0
STLB AVERAGE MISS LATENCY: 68.0825 cycles
STLB AVERAGE MISS LATENCY LOAD: -nan cycles
STLB AVERAGE MISS LATENCY PREFETCH: -nan cycles
STLB AVERAGE MSHR OCCUPANCY: 0.253035
STLB MSHR FULL: 0
STLB RQ	ACCESS:  132885274	FORWARD:          0	MERGED:  102595636	TO_CACHE:   30289638

STLB Hit, L1D data hit: 0
STLB Hit, L2C data hit: 0
STLB Hit, LLC data hit: 0
STLB Hit, LLC data miss: 0
STLB STLB hints to L2: 0
L1D TOTAL     ACCESS:  143919632  HIT:  129424028  MISS:   14495604  HIT %:     89.928  MISS %:     10.072   MPKI: 72.478
L1D Test counter:          0
L1D LOAD      ACCESS:   33468925  HIT:   32936472  MISS:     674710  HIT %:    98.4091  MISS %:    1.59089   MPKI: 2.66227
L1D RFO       ACCESS:    2659789  HIT:    2654305  MISS:       5484  HIT %:    99.7938  MISS %:   0.206182   MPKI: 0.02742
L1D PREFETCH  ACCESS:  107790918  HIT:   93833251  MISS:   13957667  HIT %:    87.0512  MISS %:    12.9488   MPKI: 69.7883
L1D PREFETCH  REQUESTED:  319034093  ISSUED:  315016301  USEFUL:   13475796  USELESS:     481861
L1D USEFUL LOAD PREFETCHES:   13475796 PREFETCH ISSUED TO LOWER LEVEL:   30243301  ACCURACY: 44.558
L1D TIMELY PREFETCHES:   13475796 LATE PREFETCHES: 272385 DROPPED PREFETCHES: 2925729
L1D COMMIT LATE PREFETCHES: 0 MISSED OPPORTUNITY: 0 LATE IN PQ: 95419 UNCOVERED: 0
L1D COMMIT LATE MSHR PREFETCHES: 0
L1D MPKI TOTAL: 3.37355 MSHR LATE: 1.36193 PQ LATE: 0.477095 COMMIT LATE: 0 MISSED OPPORTUNITY: 0 UNCOVERED: 0
L1D PREFETCHES SAME FILL-ORIGIN LEVEL: 14246664 DIFFERENT FILL-ORIGIN LEVEL: 15996637
L1D AVERAGE MISS LATENCY: 76.9001 cycles
L1D AVERAGE MISS LATENCY LOAD: 45.809 cycles
L1D AVERAGE MISS LATENCY PREFETCH: 78.0509 cycles
L1D AVERAGE MSHR OCCUPANCY: 2.36011
L1D MSHR FULL: 1.89817e-05
L1D RQ	ACCESS:   71767362	FORWARD:          0	MERGED:   38148365	TO_CACHE:   33611182
L1D WQ	ACCESS:    2952864	FORWARD:       7815	MERGED:     293046	TO_CACHE:    2659818
L1D PQ	ACCESS:  182404529	FORWARD:          0	MERGED:   49792757	TO_CACHE:  132611772

L1D UNIQUE REGIONS ACCESSED: 0
L1D REGIONS CONFLICTS: 0
L1D Cross Page Prefetch Requests: 26734860
L1D Same Page Prefetch Requests: 191795348
L1D ROI Sum of L1D PQ occupancy: 2471820562
L1D PREFETCHES PUSHED FROM L2C: 0
a523fd: 1
a5161d: 1
40f5c8: 1
40d44c: 1
a5165e: 1
a51758: 1
a52445: 1
40e3b3: 1
a51749: 1
a5174e: 1
a521b6: 2
a52384: 2
a5166e: 2
a516bb: 2
40e1a5: 2
a51761: 2
a523eb: 2
40f746: 3
40d494: 4
a5235e: 4
a52368: 4
a52334: 4
a52213: 4
a52350: 4
a51648: 5
a51644: 5
40d1a1: 5
a5243d: 5
40d1ea: 5
a51662: 5
40e1ac: 5
a5163f: 5
40e222: 5
40e5a4: 5
a515ec: 5
40d265: 5
a51638: 5
40e26c: 5
a5137e: 5
40e107: 5
a515b8: 5
40e3b7: 5
40e2ca: 5
a5139f: 5
a515bf: 5
a526f5: 5
a51614: 5
a5242e: 5
a515e4: 5
a51370: 5
a515e8: 5
a52421: 5
a51619: 5
40e10b: 5
40d40c: 6
a521d3: 6
40e49c: 7
a522b6: 8
40d3ff: 8
a522f2: 8
a522bb: 8
a525d9: 9
40d199: 10
a52198: 16
40f534: 17
40d443: 18
40e290: 20
40e3a6: 29
a5222e: 31
a5221c: 44
a5223e: 62
40e19d: 68
40e28b: 130
40e196: 155
a52221: 177
40f8df: 594
40f8cc: 658
a52679: 661
a525bd: 699
a4c43f: 743
a4c41d: 748
a4c416: 760
40f797: 762
40f886: 997
40f89a: 1013
40f70a: 1257
40f70f: 1617
a525fb: 2465
a525ef: 2520
a52608: 3372
40f7b9: 6129
40f7cb: 10768
a4c443: 11346
a5266d: 15005
40f7b0: 20218
a52672: 25123
40f7c0: 423960
L1I TOTAL     ACCESS:   37483471  HIT:   37483446  MISS:         25  HIT %:    99.9999  MISS %: 6.66961e-05   MPKI: 0.000125
L1I Test counter:          0
L1I LOAD      ACCESS:   37483471  HIT:   37483446  MISS:         27  HIT %:    99.9999  MISS %: 6.66961e-05   MPKI: 0.000125
L1I PREFETCH  REQUESTED:          0  ISSUED:          0  USEFUL:          0  USELESS:          0
L1I USEFUL LOAD PREFETCHES:          0 PREFETCH ISSUED TO LOWER LEVEL:          0  ACCURACY: -nan
L1I TIMELY PREFETCHES:          0 LATE PREFETCHES: 0 DROPPED PREFETCHES: 0
L1I COMMIT LATE PREFETCHES: 0 MISSED OPPORTUNITY: 0 LATE IN PQ: 0 UNCOVERED: 0
L1I COMMIT LATE MSHR PREFETCHES: 0
L1I MPKI TOTAL: 0.000135 MSHR LATE: 0 PQ LATE: 0 COMMIT LATE: 0 MISSED OPPORTUNITY: 0 UNCOVERED: 0
L1I PREFETCHES SAME FILL-ORIGIN LEVEL: 0 DIFFERENT FILL-ORIGIN LEVEL: 0
L1I AVERAGE MISS LATENCY: 210 cycles
L1I AVERAGE MISS LATENCY LOAD: 210 cycles
L1I AVERAGE MISS LATENCY PREFETCH: -nan cycles
L1I AVERAGE MSHR OCCUPANCY: 3.4682e-07
L1I MSHR FULL: 0
L1I RQ	ACCESS:   56287808	FORWARD:          0	MERGED:   18804334	TO_CACHE:   37483474

a51683: 1
a522a4: 1
a522c5: 1
a52270: 1
a52180: 1
a52111: 1
a521dd: 1
a52140: 1
40d56b: 1
40d601: 1
40d5d4: 1
a516c3: 1
a52200: 1
a523e0: 1
a51720: 1
a51744: 1
40d440: 1
a51785: 1
a52384: 1
40d580: 1
a5231a: 1
40d403: 1
40d3f0: 1
40d480: 1
a52341: 1
BTB TOTAL     ACCESS:   47939711  HIT:   47938649  MISS:       1062  HIT %:    99.9978  MISS %: 0.00221528   MPKI: 0.00531
BTB Test counter:          0
BTB BRANCH_DIRECT_JUMP	ACCESS:     685292  HIT:     685256  MISS:         36
BTB BRANCH_INDIRECT	ACCESS:          0  HIT:          0  MISS:          0
BTB BRANCH_CONDITIONAL	ACCESS:   46577617  HIT:   46577539  MISS:         78
BTB BRANCH_DIRECT_CALL	ACCESS:     338401  HIT:     338385  MISS:         16
BTB BRANCH_INDIRECT_CALL	ACCESS:          0  HIT:          0  MISS:          0
BTB BRANCH_RETURN	ACCESS:     338401  HIT:     337469  MISS:        932
BTB BRANCH_OTHER ACCESS:          0  HIT:          0  MISS:          0

L2C TOTAL     ACCESS:   30419269  HIT:   15668068  MISS:   14751201  HIT %:     51.507  MISS %:     48.493   MPKI: 73.756
L2C Test counter:          0
L2C LOAD      ACCESS:     260093  HIT:     131241  MISS:     128852  HIT %:    50.4593  MISS %:    49.5407   MPKI: 0.64426
L2C DATA LOAD MPKI: 0.644135
L2C INSTRUCTION LOAD MPKI: 0.000125
L2C RFO       ACCESS:       5484  HIT:       1189  MISS:       4295  HIT %:    21.6813  MISS %:    78.3187   MPKI: 0.021475
L2C PREFETCH  ACCESS:   27036771  HIT:   12495473  MISS:   14541298  HIT %:    46.2166  MISS %:    53.7834   MPKI: 72.7065
L2C DATA PREFETCH MPKI: 72.7065
L2C INSTRUCTION PREFETCH MPKI: 0
L2C WRITEBACK ACCESS:      23355  HIT:      23089  MISS:        266  HIT %:    98.8611  MISS %:    1.13894   MPKI: 0.00133
L2C LOAD TRANSLATION ACCESS:      44886  HIT:      16119  MISS:      28767  HIT %:     35.911  MISS %:     64.089   MPKI: 0.143835
L2C TRANSLATION FROM L1D PREFETCHER ACCESS:    3048680  HIT:    3000957  MISS:      47723  HIT %:    98.4346  MISS %:    1.56537   MPKI: 0.238615
L2C PREFETCH  REQUESTED:          0  ISSUED:          0  USEFUL:     161326  USELESS:   14426523
L2C USEFUL LOAD PREFETCHES:     161326 PREFETCH ISSUED TO LOWER LEVEL:   14552014  ACCURACY: 1.10862
L2C TIMELY PREFETCHES:     161326 LATE PREFETCHES: 10715 DROPPED PREFETCHES: 0
L2C COMMIT LATE PREFETCHES: 0 MISSED OPPORTUNITY: 0 LATE IN PQ: 0 UNCOVERED: 0
L2C COMMIT LATE MSHR PREFETCHES: 0
L2C MPKI TOTAL: 0.64426 MSHR LATE: 0.053575 PQ LATE: 0 COMMIT LATE: 0 MISSED OPPORTUNITY: 0 UNCOVERED: 0
L2C PREFETCHES SAME FILL-ORIGIN LEVEL: 7533041 DIFFERENT FILL-ORIGIN LEVEL: 0
L2C AVERAGE MISS LATENCY: 137.341 cycles
L2C AVERAGE MISS LATENCY LOAD: 159.814 cycles
L2C AVERAGE MISS LATENCY PREFETCH: 136.819 cycles
L2C AVERAGE MSHR OCCUPANCY: 3.78151
L2C MSHR FULL: 0.000640527
L2C RQ	ACCESS:    3359144	FORWARD:          0	MERGED:          0	TO_CACHE:    3359144
L2C WQ	ACCESS:      23355	FORWARD:          0	MERGED:          0	TO_CACHE:      23355
L2C PQ	ACCESS:   30156622	FORWARD:          0	MERGED:       8166	TO_CACHE:   30148456

L2C Instructions Evicting Data 25
L2C Translations Evicting Data 76148
L2C Data Evicting Data 14598252
L2C Instructions Evicting Instructions 0
L2C Translations Evicting Instructions 0
L2C Data Evicting Instructions 25
L2C Instructions Evicting Translations 0
L2C Translations Evicting Translations 342
L2C Data Evicting Translations 76143
L2C Dense regions hint from L2: 0
a523e0: 1
a52270: 1
a522c5: 1
a52200: 1
a51720: 1
a521dd: 1
a51758: 1
a52180: 1
a52140: 1
a52111: 1
a51785: 1
a5174e: 1
40d580: 1
a51744: 1
40f5c8: 1
40d601: 1
a51683: 1
a522a4: 1
a5161d: 1
40d5d4: 1
40d44c: 1
a516c3: 1
a52445: 1
a51749: 1
40d56b: 1
a52384: 1
40d480: 1
40d440: 1
a52341: 1
40d3f0: 1
40d403: 1
a5231a: 1
a516bb: 2
a52334: 2
a5166e: 2
40e1a5: 2
40d494: 2
a51761: 2
40f534: 3
40e1ac: 3
40d40c: 4
a5243d: 4
a52350: 4
a51638: 5
40d265: 5
40e222: 5
a52421: 5
40d1a1: 5
40e26c: 5
40d1ea: 5
a51614: 5
a51648: 5
a515b8: 5
a5139f: 5
a526f5: 5
40e2ca: 5
40e3b7: 5
a5242e: 5
a515e4: 5
a515ec: 5
40e107: 5
a51619: 5
a515bf: 5
a515e8: 5
a51370: 5
40e10b: 5
a5137e: 5
40d3ff: 6
a522bb: 6
a522b6: 6
a522f2: 6
40e49c: 7
a525d9: 7
40d199: 10
a5223e: 13
a5222e: 14
40d443: 16
40e290: 18
a5221c: 24
40e19d: 26
40e3a6: 29
a52221: 58
40e28b: 81
40f70f: 109
40e196: 119
a525bd: 246
a52679: 257
a4c43f: 268
a4c41d: 276
a4c416: 281
40f797: 281
40f886: 431
40f70a: 483
a525fb: 949
a525ef: 973
40f7b9: 2351
a52608: 3365
a4c443: 5060
a5266d: 7573
40f7cb: 8004
40f7b0: 16727
a52672: 22467
40f7c0: 58123
PSCL5 TOTAL     ACCESS:    3064576  HIT:    3064576  MISS:          0  HIT %:        100  MISS %:          0   MPKI: 0
PSCL5 Test counter:          0
PSCL5 LOAD TRANSLATION ACCESS:      39333  HIT:      39333  MISS:          0  HIT %:        100  MISS %:          0   MPKI: 0
PSCL5 TRANSLATION FROM L1D PREFETCHER ACCESS:    3025243  HIT:    3025243  MISS:          0  HIT %:        100  MISS %:          0   MPKI: 0
PSCL5 PREFETCH  REQUESTED:          0  ISSUED:          0  USEFUL:          0  USELESS:          0
PSCL5 USEFUL LOAD PREFETCHES:          0 PREFETCH ISSUED TO LOWER LEVEL:          0  ACCURACY: -nan
PSCL5 TIMELY PREFETCHES:          0 LATE PREFETCHES: 0 DROPPED PREFETCHES: 0
PSCL5 COMMIT LATE PREFETCHES: 0 MISSED OPPORTUNITY: 0 LATE IN PQ: 0 UNCOVERED: 0
PSCL5 COMMIT LATE MSHR PREFETCHES: 0
PSCL5 MPKI TOTAL: 0 MSHR LATE: 0 PQ LATE: 0 COMMIT LATE: 0 MISSED OPPORTUNITY: 0 UNCOVERED: 0
PSCL5 PREFETCHES SAME FILL-ORIGIN LEVEL: 0 DIFFERENT FILL-ORIGIN LEVEL: 0

PSCL4 TOTAL     ACCESS:    3064576  HIT:    3064576  MISS:          0  HIT %:        100  MISS %:          0   MPKI: 0
PSCL4 Test counter:          0
PSCL4 LOAD TRANSLATION ACCESS:      39333  HIT:      39333  MISS:          0  HIT %:        100  MISS %:          0   MPKI: 0
PSCL4 TRANSLATION FROM L1D PREFETCHER ACCESS:    3025243  HIT:    3025243  MISS:          0  HIT %:        100  MISS %:          0   MPKI: 0
PSCL4 PREFETCH  REQUESTED:          0  ISSUED:          0  USEFUL:          0  USELESS:          0
PSCL4 USEFUL LOAD PREFETCHES:          0 PREFETCH ISSUED TO LOWER LEVEL:          0  ACCURACY: -nan
PSCL4 TIMELY PREFETCHES:          0 LATE PREFETCHES: 0 DROPPED PREFETCHES: 0
PSCL4 COMMIT LATE PREFETCHES: 0 MISSED OPPORTUNITY: 0 LATE IN PQ: 0 UNCOVERED: 0
PSCL4 COMMIT LATE MSHR PREFETCHES: 0
PSCL4 MPKI TOTAL: 0 MSHR LATE: 0 PQ LATE: 0 COMMIT LATE: 0 MISSED OPPORTUNITY: 0 UNCOVERED: 0
PSCL4 PREFETCHES SAME FILL-ORIGIN LEVEL: 0 DIFFERENT FILL-ORIGIN LEVEL: 0

PSCL3 TOTAL     ACCESS:    3064559  HIT:    3064532  MISS:         27  HIT %:    99.9991  MISS %: 0.00088104   MPKI: 0.000135
PSCL3 Test counter:          0
PSCL3 LOAD TRANSLATION ACCESS:      39326  HIT:      39299  MISS:         27  HIT %:    99.9313  MISS %:  0.0686569   MPKI: 0.000135
PSCL3 TRANSLATION FROM L1D PREFETCHER ACCESS:    3025233  HIT:    3025233  MISS:          0  HIT %:        100  MISS %:          0   MPKI: 0
PSCL3 PREFETCH  REQUESTED:          0  ISSUED:          0  USEFUL:          0  USELESS:          0
PSCL3 USEFUL LOAD PREFETCHES:          0 PREFETCH ISSUED TO LOWER LEVEL:          0  ACCURACY: -nan
PSCL3 TIMELY PREFETCHES:          0 LATE PREFETCHES: 0 DROPPED PREFETCHES: 0
PSCL3 COMMIT LATE PREFETCHES: 0 MISSED OPPORTUNITY: 0 LATE IN PQ: 0 UNCOVERED: 0
PSCL3 COMMIT LATE MSHR PREFETCHES: 0
PSCL3 MPKI TOTAL: 0 MSHR LATE: 0 PQ LATE: 0 COMMIT LATE: 0 MISSED OPPORTUNITY: 0 UNCOVERED: 0
PSCL3 PREFETCHES SAME FILL-ORIGIN LEVEL: 0 DIFFERENT FILL-ORIGIN LEVEL: 0

PSCL2 TOTAL     ACCESS:    3040663  HIT:    3034438  MISS:       6225  HIT %:    99.7953  MISS %:   0.204725   MPKI: 0.031125
PSCL2 Test counter:          0
PSCL2 LOAD TRANSLATION ACCESS:      40021  HIT:      33796  MISS:       6225  HIT %:    84.4457  MISS %:    15.5543   MPKI: 0.031125
PSCL2 TRANSLATION FROM L1D PREFETCHER ACCESS:    3000642  HIT:    3000642  MISS:          0  HIT %:        100  MISS %:          0   MPKI: 0
PSCL2 PREFETCH  REQUESTED:          0  ISSUED:          0  USEFUL:          0  USELESS:          0
PSCL2 USEFUL LOAD PREFETCHES:          0 PREFETCH ISSUED TO LOWER LEVEL:          0  ACCURACY: -nan
PSCL2 TIMELY PREFETCHES:          0 LATE PREFETCHES: 0 DROPPED PREFETCHES: 0
PSCL2 COMMIT LATE PREFETCHES: 0 MISSED OPPORTUNITY: 0 LATE IN PQ: 0 UNCOVERED: 0
PSCL2 COMMIT LATE MSHR PREFETCHES: 0
PSCL2 MPKI TOTAL: 0 MSHR LATE: 0 PQ LATE: 0 COMMIT LATE: 0 MISSED OPPORTUNITY: 0 UNCOVERED: 0
PSCL2 PREFETCHES SAME FILL-ORIGIN LEVEL: 0 DIFFERENT FILL-ORIGIN LEVEL: 0

LLC TOTAL     ACCESS:   14773627  HIT:      58319  MISS:   14715308  HIT %:   0.394751  MISS %:    99.6052   MPKI: 73.5765
LLC Test counter:          0
LLC LOAD      ACCESS:     118137  HIT:       3647  MISS:     114490  HIT %:    3.08709  MISS %:    96.9129   MPKI: 0.57245
LLC RFO       ACCESS:       4295  HIT:         18  MISS:       4277  HIT %:   0.419092  MISS %:    99.5809   MPKI: 0.021385
LLC PREFETCH  ACCESS:   14552013  HIT:      28163  MISS:   14523850  HIT %:   0.193533  MISS %:    99.8065   MPKI: 72.6192
LLC WRITEBACK ACCESS:      22692  HIT:      22502  MISS:        190  HIT %:    99.1627  MISS %:   0.837299   MPKI: 0.00095
LLC LOAD TRANSLATION ACCESS:      28767  HIT:       2026  MISS:      26741  HIT %:    7.04279  MISS %:    92.9572   MPKI: 0.133705
LLC TRANSLATION FROM L1D PREFETCHER ACCESS:      47723  HIT:       1963  MISS:      45760  HIT %:    4.11332  MISS %:    95.8867   MPKI: 0.2288
LLC PREFETCH  REQUESTED:          0  ISSUED:          0  USEFUL:       1679  USELESS:   14566972
LLC USEFUL LOAD PREFETCHES:       1679 PREFETCH ISSUED TO LOWER LEVEL:   14523852  ACCURACY: 0.0115603
LLC TIMELY PREFETCHES:       1679 LATE PREFETCHES: 0 DROPPED PREFETCHES: 0
LLC COMMIT LATE PREFETCHES: 0 MISSED OPPORTUNITY: 0 LATE IN PQ: 0 UNCOVERED: 0
LLC COMMIT LATE MSHR PREFETCHES: 0
LLC MPKI TOTAL: 0.57245 MSHR LATE: 0 PQ LATE: 0 COMMIT LATE: 0 MISSED OPPORTUNITY: 0 UNCOVERED: 0
LLC PREFETCHES SAME FILL-ORIGIN LEVEL: 0 DIFFERENT FILL-ORIGIN LEVEL: 0
LLC AVERAGE MISS LATENCY: 107.688 cycles
LLC AVERAGE MISS LATENCY LOAD: 140.243 cycles
LLC AVERAGE MISS LATENCY PREFETCH: 107.08 cycles
LLC AVERAGE MSHR OCCUPANCY: 1.62352
LLC MSHR FULL: 0
LLC RQ	ACCESS:     198922	FORWARD:          0	MERGED:          0	TO_CACHE:     198922
LLC WQ	ACCESS:      22692	FORWARD:          0	MERGED:          0	TO_CACHE:      22692
LLC PQ	ACCESS:   14552014	FORWARD:          0	MERGED:          0	TO_CACHE:   14552014

LLC Dense regions hint to LLC: 0
40d580: 1
a522c5: 1
a52200: 1
a51720: 1
a521dd: 1
a51758: 1
a52180: 1
a52140: 1
a52111: 1
a51785: 1
a523e0: 1
a5174e: 1
a51744: 1
40f5c8: 1
40d601: 1
a51683: 1
a522a4: 1
a5161d: 1
40d44c: 1
a516c3: 1
40d5d4: 1
a52270: 1
a52445: 1
a51749: 1
a52384: 1
40d56b: 1
40d480: 1
40d440: 1
a52341: 1
40d3f0: 1
40d403: 1
a5231a: 1
40e1a5: 2
a516bb: 2
a52334: 2
a5166e: 2
40d494: 2
a51761: 2
40f534: 3
40e1ac: 3
40d40c: 4
a52350: 4
a5243d: 4
a51648: 5
40d265: 5
40e222: 5
40d1a1: 5
a52421: 5
40e26c: 5
a5223e: 5
40d1ea: 5
a51614: 5
a526f5: 5
a515e4: 5
40e2ca: 5
a515b8: 5
a515ec: 5
a51619: 5
a5137e: 5
a5242e: 5
40e107: 5
a5139f: 5
40e10b: 5
a51370: 5
a515e8: 5
a515bf: 5
a525d9: 6
40d3ff: 6
a522b6: 6
a522bb: 6
a522f2: 6
40e49c: 7
40d199: 10
a5222e: 14
40d443: 16
40e290: 18
40e3a6: 22
a5221c: 24
40e19d: 26
40f70f: 54
a52221: 58
40e28b: 80
a525bd: 111
a52679: 115
40e196: 117
a4c43f: 121
a4c416: 124
40f797: 130
a4c41d: 135
40f70a: 189
40f886: 201
a525fb: 705
a525ef: 827
40f7b9: 1163
a52608: 3361
a4c443: 4906
a5266d: 7476
40f7cb: 7849
40f7b0: 16675
a52672: 22461
40f7c0: 47288

RAW hits: 20202
Loads Generated: 71787567
Loads sent to L1D: 71767362
Stores Generated: 2952864
Stores sent to L1D: 2952864
Major fault: 0 Minor fault: 49083
Allocated PAGES: 49083
Total Load insts: 89694613
Total Non-spec loads: 18773916
Percentage of speculative loads: 79.0691
L1D response latency: 93.7876 cycles
Load retirement latency: 139.277 cycles

LATENCY_FILL: 69.9872 531879

DRAM Statistics
 CHANNEL 0
 RQ ROW_BUFFER_HIT:   11472081  ROW_BUFFER_MISS:    3243038
 DBUS_CONGESTED:      10598
 WQ ROW_BUFFER_HIT:       2846  ROW_BUFFER_MISS:      19774  FULL:          0

 AVG_CONGESTED_CYCLE: 4
 All warmup complete: 2
Channel 0 Bank busy for read cycles: 0
Channel 0 Bank busy for write cycles: 0
Channel 0
Rank 0
0banks busy for read cycles: 64533214
0banks busy for write cycles: 11985
1banks busy for read cycles: 106131924
1banks busy for write cycles: 3116490
2banks busy for read cycles: 113767813
2banks busy for write cycles: 1305225
3banks busy for read cycles: 75280899
3banks busy for write cycles: 606667
4banks busy for read cycles: 42420598
4banks busy for write cycles: 251094
5banks busy for read cycles: 28328998
5banks busy for write cycles: 98176
6banks busy for read cycles: 16562512
6banks busy for write cycles: 35044
7banks busy for read cycles: 7110956
7banks busy for write cycles: 8629
8banks busy for read cycles: 5020929
8banks busy for write cycles: 156

CPU 0 Branch Prediction Accuracy: 99.7034% MPKI: 1.05731 Average ROB Occupancy at Mispredict: 243.637
Branch types
NOT_BRANCH: 128713631 64.3568%
BRANCH_DIRECT_JUMP: 685292 0.342646%
BRANCH_INDIRECT: 0 0%
BRANCH_CONDITIONAL: 69924207 34.9621%
BRANCH_DIRECT_CALL: 338401 0.169201%
BRANCH_INDIRECT_CALL: 0 0%
BRANCH_RETURN: 338401 0.169201%
BRANCH_OTHER: 0 0%

DRAM PAGES: 1048576
Allocated PAGES: 49083
