
*** ChampSim Multicore Out-of-Order Simulator ***

Warmup Instructions: 50000000
Simulation Instructions: 200000000
Number of CPUs: 1
LLC sets: 2048
LLC ways: 16
Secure Berti: OFF
Berti: OFF
Berti Fill: OFF
On commit prefetching: OFF
L2 LLC Bypass speculative loads: OFF
Off-chip DRAM Size: 4096 MB Channels: 1 Width: 64-bit Data Rate: 6400 MT/s
CPU 0 runs /home/sumon/secure_berti/Berti_Baseline/../../traces/spec/603.bwaves_s-891B.champsimtrace.xz
.xz
BTB has LRU replacement policy
ITLB has LRU replacement policy
DTLB has LRU replacement policy
STLB has LRU replacement policy
L1I has LRU replacement policy
History Sets: 8
History Ways: 16
BERTI Size: 16
BERTI Stride Size: 16
L1D has LRU replacement policy
L2C has LRU replacement policy
LLC has LRU replacement policy
Heartbeat CPU 0 instructions: 10000003 cycles: 2715419 heartbeat IPC: 3.68267 cumulative IPC: 3.68267 (Simulation time: 0 hr 0 min 11 sec) 
Heartbeat CPU 0 instructions: 20000003 cycles: 5430815 heartbeat IPC: 3.6827 cumulative IPC: 3.68269 (Simulation time: 0 hr 0 min 22 sec) 
Heartbeat CPU 0 instructions: 30000002 cycles: 8146190 heartbeat IPC: 3.68273 cumulative IPC: 3.6827 (Simulation time: 0 hr 0 min 32 sec) 
Heartbeat CPU 0 instructions: 40000000 cycles: 10861585 heartbeat IPC: 3.6827 cumulative IPC: 3.6827 (Simulation time: 0 hr 0 min 43 sec) 
Heartbeat CPU 0 instructions: 50000002 cycles: 13778226 heartbeat IPC: 3.4286 cumulative IPC: 3.62891 (Simulation time: 0 hr 0 min 52 sec) 

Warmup complete CPU 0 instructions: 50000002 cycles: 13778226 (Simulation time: 0 hr 0 min 52 sec) 

Heartbeat CPU 0 instructions: 60000001 cycles: 27528965 heartbeat IPC: 0.727234 cumulative IPC: 0.727234 (Simulation time: 0 hr 1 min 11 sec) 
Heartbeat CPU 0 instructions: 70000001 cycles: 41280103 heartbeat IPC: 0.727213 cumulative IPC: 0.727223 (Simulation time: 0 hr 1 min 30 sec) 
Heartbeat CPU 0 instructions: 80000002 cycles: 55031277 heartbeat IPC: 0.727211 cumulative IPC: 0.727219 (Simulation time: 0 hr 1 min 49 sec) 
Heartbeat CPU 0 instructions: 90000001 cycles: 68782144 heartbeat IPC: 0.727227 cumulative IPC: 0.727221 (Simulation time: 0 hr 2 min 8 sec) 
Heartbeat CPU 0 instructions: 100000000 cycles: 82532875 heartbeat IPC: 0.727234 cumulative IPC: 0.727224 (Simulation time: 0 hr 2 min 27 sec) 
Heartbeat CPU 0 instructions: 110000000 cycles: 96283935 heartbeat IPC: 0.727217 cumulative IPC: 0.727222 (Simulation time: 0 hr 2 min 46 sec) 
Heartbeat CPU 0 instructions: 120000001 cycles: 110034671 heartbeat IPC: 0.727234 cumulative IPC: 0.727224 (Simulation time: 0 hr 3 min 6 sec) 
Heartbeat CPU 0 instructions: 130000000 cycles: 123785328 heartbeat IPC: 0.727238 cumulative IPC: 0.727226 (Simulation time: 0 hr 3 min 27 sec) 
Heartbeat CPU 0 instructions: 140000001 cycles: 137536687 heartbeat IPC: 0.727201 cumulative IPC: 0.727223 (Simulation time: 0 hr 3 min 48 sec) 
Heartbeat CPU 0 instructions: 150000000 cycles: 151287868 heartbeat IPC: 0.72721 cumulative IPC: 0.727222 (Simulation time: 0 hr 4 min 9 sec) 
Heartbeat CPU 0 instructions: 160000000 cycles: 165039113 heartbeat IPC: 0.727207 cumulative IPC: 0.72722 (Simulation time: 0 hr 4 min 31 sec) 
Heartbeat CPU 0 instructions: 170000000 cycles: 178711956 heartbeat IPC: 0.731377 cumulative IPC: 0.727565 (Simulation time: 0 hr 4 min 52 sec) 
Heartbeat CPU 0 instructions: 180000001 cycles: 192227230 heartbeat IPC: 0.739904 cumulative IPC: 0.728499 (Simulation time: 0 hr 5 min 14 sec) 
Heartbeat CPU 0 instructions: 190000002 cycles: 205139429 heartbeat IPC: 0.774462 cumulative IPC: 0.731601 (Simulation time: 0 hr 5 min 39 sec) 
Heartbeat CPU 0 instructions: 200000000 cycles: 217339095 heartbeat IPC: 0.819694 cumulative IPC: 0.73688 (Simulation time: 0 hr 6 min 8 sec) 
Heartbeat CPU 0 instructions: 210000002 cycles: 229538742 heartbeat IPC: 0.819696 cumulative IPC: 0.741563 (Simulation time: 0 hr 6 min 37 sec) 
Heartbeat CPU 0 instructions: 220000000 cycles: 241738417 heartbeat IPC: 0.819694 cumulative IPC: 0.745744 (Simulation time: 0 hr 7 min 7 sec) 
Heartbeat CPU 0 instructions: 230000000 cycles: 253937233 heartbeat IPC: 0.819752 cumulative IPC: 0.749503 (Simulation time: 0 hr 7 min 36 sec) 
Heartbeat CPU 0 instructions: 240000000 cycles: 266136433 heartbeat IPC: 0.819726 cumulative IPC: 0.752898 (Simulation time: 0 hr 8 min 6 sec) 
Heartbeat CPU 0 instructions: 250000000 cycles: 278335709 heartbeat IPC: 0.819721 cumulative IPC: 0.755979 (Simulation time: 0 hr 8 min 36 sec) 
Finished CPU 0 instructions: 200000002 cycles: 264557484 cumulative IPC: 0.755979 (Simulation time: 0 hr 8 min 36 sec) 

ChampSim completed all CPUs

Region of Interest Statistics

CPU 0 cumulative IPC: 0.755979 instructions: 200000002 cycles: 264557484
ITLB TOTAL     ACCESS:   33459414  HIT:   33459413  MISS:          1  HIT %:        100  MISS %: 2.9887e-06   MPKI: 5e-06
ITLB Test counter:          0
ITLB LOAD TRANSLATION ACCESS:   33459414  HIT:   33459413  MISS:          1  HIT %:        100  MISS %: 2.9887e-06   MPKI: 5e-06
ITLB PREFETCH  REQUESTED:          0  ISSUED:          0  USEFUL:          0  USELESS:          0
ITLB USEFUL LOAD PREFETCHES:          0 PREFETCH ISSUED TO LOWER LEVEL:          0  ACCURACY: -nan
ITLB TIMELY PREFETCHES:          0 LATE PREFETCHES: 0 DROPPED PREFETCHES: 0
ITLB COMMIT LATE PREFETCHES: 0 MISSED OPPORTUNITY: 0 LATE IN PQ: 0 UNCOVERED: 0
ITLB COMMIT LATE MSHR PREFETCHES: 0
ITLB MPKI TOTAL: 0 MSHR LATE: 0 PQ LATE: 0 COMMIT LATE: 0 MISSED OPPORTUNITY: 0 UNCOVERED: 0
ITLB PREFETCHES SAME FILL-ORIGIN LEVEL: 0 DIFFERENT FILL-ORIGIN LEVEL: 0
ITLB AVERAGE MISS LATENCY: 431 cycles
ITLB AVERAGE MISS LATENCY LOAD: -nan cycles
ITLB AVERAGE MISS LATENCY PREFETCH: -nan cycles
ITLB AVERAGE MSHR OCCUPANCY: 2.9887e-08
ITLB MSHR FULL: 0
ITLB RQ	ACCESS:   34847773	FORWARD:          0	MERGED:    1388358	TO_CACHE:   33459415

DTLB TOTAL     ACCESS:   24073137  HIT:   24012483  MISS:      60654  HIT %:     99.748  MISS %:   0.251957   MPKI: 0.30327
DTLB Test counter:          0
DTLB LOAD TRANSLATION ACCESS:   24073137  HIT:   24012483  MISS:      60654  HIT %:     99.748  MISS %:   0.251957   MPKI: 0.30327
DTLB PREFETCH  REQUESTED:          0  ISSUED:          0  USEFUL:          0  USELESS:          0
DTLB USEFUL LOAD PREFETCHES:          0 PREFETCH ISSUED TO LOWER LEVEL:          0  ACCURACY: -nan
DTLB TIMELY PREFETCHES:          0 LATE PREFETCHES: 0 DROPPED PREFETCHES: 0
DTLB COMMIT LATE PREFETCHES: 0 MISSED OPPORTUNITY: 0 LATE IN PQ: 0 UNCOVERED: 0
DTLB COMMIT LATE MSHR PREFETCHES: 0
DTLB MPKI TOTAL: 0 MSHR LATE: 0 PQ LATE: 0 COMMIT LATE: 0 MISSED OPPORTUNITY: 0 UNCOVERED: 0
DTLB PREFETCHES SAME FILL-ORIGIN LEVEL: 0 DIFFERENT FILL-ORIGIN LEVEL: 0
DTLB AVERAGE MISS LATENCY: 85.7052 cycles
DTLB AVERAGE MISS LATENCY LOAD: -nan cycles
DTLB AVERAGE MISS LATENCY PREFETCH: -nan cycles
DTLB AVERAGE MSHR OCCUPANCY: 0.00122106
DTLB MSHR FULL: 0
DTLB RQ	ACCESS:   24689535	FORWARD:          0	MERGED:     609642	TO_CACHE:   24079893

STLB TOTAL     ACCESS:   13849127  HIT:   13788809  MISS:      60318  HIT %:    99.5645  MISS %:   0.435536   MPKI: 0.30159
STLB Test counter:          0
STLB LOAD TRANSLATION ACCESS:      60655  HIT:      18563  MISS:      42092  HIT %:    30.6042  MISS %:    69.3958   MPKI: 0.21046
STLB TRANSLATION FROM L1D PREFETCHER ACCESS:   13788472  HIT:   13770246  MISS:      18226  HIT %:    99.8678  MISS %:   0.132183   MPKI: 0.09113
STLB PREFETCH  REQUESTED:          0  ISSUED:          0  USEFUL:      18226  USELESS:          0
STLB USEFUL LOAD PREFETCHES:      18226 PREFETCH ISSUED TO LOWER LEVEL:          0  ACCURACY: inf
STLB TIMELY PREFETCHES:      18226 LATE PREFETCHES: 8918 DROPPED PREFETCHES: 1187655
STLB COMMIT LATE PREFETCHES: 0 MISSED OPPORTUNITY: 0 LATE IN PQ: 0 UNCOVERED: 0
STLB COMMIT LATE MSHR PREFETCHES: 0
STLB MPKI TOTAL: 0 MSHR LATE: 0.04459 PQ LATE: 0 COMMIT LATE: 0 MISSED OPPORTUNITY: 0 UNCOVERED: 0
STLB PREFETCHES SAME FILL-ORIGIN LEVEL: 0 DIFFERENT FILL-ORIGIN LEVEL: 0
STLB AVERAGE MISS LATENCY: 100.538 cycles
STLB AVERAGE MISS LATENCY LOAD: -nan cycles
STLB AVERAGE MISS LATENCY PREFETCH: -nan cycles
STLB AVERAGE MSHR OCCUPANCY: 0.101536
STLB MSHR FULL: 0
STLB RQ	ACCESS:   95481459	FORWARD:          0	MERGED:   80225652	TO_CACHE:   15255807

STLB Hit, L1D data hit: 0
STLB Hit, L2C data hit: 0
STLB Hit, LLC data hit: 0
STLB Hit, LLC data miss: 0
STLB STLB hints to L2: 0
L1D TOTAL     ACCESS:  103826453  HIT:   99965344  MISS:    3861109  HIT %:    96.2812  MISS %:    3.71881   MPKI: 19.3055
L1D Test counter:          0
L1D LOAD      ACCESS:   21189056  HIT:   21110314  MISS:     236072  HIT %:    99.6284  MISS %:   0.371616   MPKI: 0.39371
L1D RFO       ACCESS:    3343150  HIT:    3343148  MISS:          2  HIT %:    99.9999  MISS %: 5.98238e-05   MPKI: 1e-05
L1D PREFETCH  ACCESS:   79294247  HIT:   75511882  MISS:    3782365  HIT %:      95.23  MISS %:    4.77004   MPKI: 18.9118
L1D PREFETCH  REQUESTED:  227567387  ISSUED:  222000030  USEFUL:    3782339  USELESS:         16
L1D USEFUL LOAD PREFETCHES:    3782339 PREFETCH ISSUED TO LOWER LEVEL:    7423549  ACCURACY: 50.9505
L1D TIMELY PREFETCHES:    3782339 LATE PREFETCHES: 66165 DROPPED PREFETCHES: 3391171
L1D COMMIT LATE PREFETCHES: 0 MISSED OPPORTUNITY: 0 LATE IN PQ: 6579 UNCOVERED: 0
L1D COMMIT LATE MSHR PREFETCHES: 0
L1D MPKI TOTAL: 1.18036 MSHR LATE: 0.330825 PQ LATE: 0.032895 COMMIT LATE: 0 MISSED OPPORTUNITY: 0 UNCOVERED: 0
L1D PREFETCHES SAME FILL-ORIGIN LEVEL: 3848536 DIFFERENT FILL-ORIGIN LEVEL: 3575013
L1D AVERAGE MISS LATENCY: 140.01 cycles
L1D AVERAGE MISS LATENCY LOAD: 24.8131 cycles
L1D AVERAGE MISS LATENCY PREFETCH: 142.408 cycles
L1D AVERAGE MSHR OCCUPANCY: 2.49419
L1D MSHR FULL: 4.21617e-07
L1D RQ	ACCESS:   35804809	FORWARD:          0	MERGED:   14458423	TO_CACHE:   21346386
L1D WQ	ACCESS:    3375822	FORWARD:          0	MERGED:      32673	TO_CACHE:    3343149
L1D PQ	ACCESS:  126579226	FORWARD:          0	MERGED:   31158422	TO_CACHE:   95420804

L1D UNIQUE REGIONS ACCESSED: 0
L1D REGIONS CONFLICTS: 0
L1D Cross Page Prefetch Requests: 13378794
L1D Same Page Prefetch Requests: 143055586
L1D ROI Sum of L1D PQ occupancy: 1502989617
L1D PREFETCHES PUSHED FROM L2C: 0
4027d7: 1
40344d: 1
4026ec: 1
4027a4: 22
402746: 98
4027f6: 98
402804: 98
402730: 98
403381: 238
403400: 239
4027a0: 24600
4033c0: 53248
L1I TOTAL     ACCESS:   34847771  HIT:   34847764  MISS:          7  HIT %:        100  MISS %: 2.00874e-05   MPKI: 3.5e-05
L1I Test counter:          0
L1I LOAD      ACCESS:   34847771  HIT:   34847764  MISS:          8  HIT %:        100  MISS %: 2.00874e-05   MPKI: 3.5e-05
L1I PREFETCH  REQUESTED:          0  ISSUED:          0  USEFUL:          0  USELESS:          0
L1I USEFUL LOAD PREFETCHES:          0 PREFETCH ISSUED TO LOWER LEVEL:          0  ACCURACY: -nan
L1I TIMELY PREFETCHES:          0 LATE PREFETCHES: 0 DROPPED PREFETCHES: 0
L1I COMMIT LATE PREFETCHES: 0 MISSED OPPORTUNITY: 0 LATE IN PQ: 0 UNCOVERED: 0
L1I COMMIT LATE MSHR PREFETCHES: 0
L1I MPKI TOTAL: 4e-05 MSHR LATE: 0 PQ LATE: 0 COMMIT LATE: 0 MISSED OPPORTUNITY: 0 UNCOVERED: 0
L1I PREFETCHES SAME FILL-ORIGIN LEVEL: 0 DIFFERENT FILL-ORIGIN LEVEL: 0
L1I AVERAGE MISS LATENCY: 214.143 cycles
L1I AVERAGE MISS LATENCY LOAD: 214.143 cycles
L1I AVERAGE MISS LATENCY PREFETCH: -nan cycles
L1I AVERAGE MSHR OCCUPANCY: 1.43481e-07
L1I MSHR FULL: 0
L1I RQ	ACCESS:   43873695	FORWARD:          0	MERGED:    9025922	TO_CACHE:   34847773

402781: 1
403444: 1
402801: 1
4026e0: 1
402702: 1
402746: 1
4027c3: 1
BTB TOTAL     ACCESS:   30088189  HIT:   30088178  MISS:         11  HIT %:        100  MISS %: 3.65592e-05   MPKI: 5.5e-05
BTB Test counter:          0
BTB BRANCH_DIRECT_JUMP	ACCESS:    1387292  HIT:    1387290  MISS:          2
BTB BRANCH_INDIRECT	ACCESS:          0  HIT:          0  MISS:          0
BTB BRANCH_CONDITIONAL	ACCESS:   28700897  HIT:   28700888  MISS:          9
BTB BRANCH_DIRECT_CALL	ACCESS:          0  HIT:          0  MISS:          0
BTB BRANCH_INDIRECT_CALL	ACCESS:          0  HIT:          0  MISS:          0
BTB BRANCH_RETURN	ACCESS:          0  HIT:          0  MISS:          0
BTB BRANCH_OTHER ACCESS:          0  HIT:          0  MISS:          0

L2C TOTAL     ACCESS:    7171217  HIT:    3302480  MISS:    3868737  HIT %:    46.0519  MISS %:    53.9481   MPKI: 19.3437
L2C Test counter:          0
L2C LOAD      ACCESS:      12584  HIT:         95  MISS:      12489  HIT %:   0.754927  MISS %:    99.2451   MPKI: 0.062445
L2C DATA LOAD MPKI: 0.06241
L2C INSTRUCTION LOAD MPKI: 3.5e-05
L2C RFO       ACCESS:          2  HIT:          0  MISS:          2  HIT %:          0  MISS %:        100   MPKI: 1e-05
L2C PREFETCH  ACCESS:    5901678  HIT:    2053098  MISS:    3848580  HIT %:    34.7884  MISS %:    65.2116   MPKI: 19.2429
L2C DATA PREFETCH MPKI: 19.2429
L2C INSTRUCTION PREFETCH MPKI: 0
L2C WRITEBACK ACCESS:          4  HIT:          1  MISS:          3  HIT %:         25  MISS %:         75   MPKI: 1.5e-05
L2C LOAD TRANSLATION ACCESS:      42096  HIT:      42090  MISS:          6  HIT %:    99.9857  MISS %:  0.0142531   MPKI: 3e-05
L2C TRANSLATION FROM L1D PREFETCHER ACCESS:    1214853  HIT:    1207196  MISS:       7657  HIT %:    99.3697  MISS %:   0.630282   MPKI: 0.038285
L2C PREFETCH  REQUESTED:          0  ISSUED:          0  USEFUL:       7672  USELESS:    3848513
L2C USEFUL LOAD PREFETCHES:       7672 PREFETCH ISSUED TO LOWER LEVEL:    3848627  ACCURACY: 0.199344
L2C TIMELY PREFETCHES:       7672 LATE PREFETCHES: 41 DROPPED PREFETCHES: 0
L2C COMMIT LATE PREFETCHES: 0 MISSED OPPORTUNITY: 0 LATE IN PQ: 0 UNCOVERED: 0
L2C COMMIT LATE MSHR PREFETCHES: 0
L2C MPKI TOTAL: 0.062445 MSHR LATE: 0.000205 PQ LATE: 0 COMMIT LATE: 0 MISSED OPPORTUNITY: 0 UNCOVERED: 0
L2C PREFETCHES SAME FILL-ORIGIN LEVEL: 668552 DIFFERENT FILL-ORIGIN LEVEL: 0
L2C AVERAGE MISS LATENCY: 149.683 cycles
L2C AVERAGE MISS LATENCY LOAD: 141.483 cycles
L2C AVERAGE MISS LATENCY PREFETCH: 149.573 cycles
L2C AVERAGE MSHR OCCUPANCY: 0.62001
L2C MSHR FULL: 0
L2C RQ	ACCESS:    1269535	FORWARD:          0	MERGED:          0	TO_CACHE:    1269535
L2C WQ	ACCESS:          4	FORWARD:          0	MERGED:          0	TO_CACHE:          4
L2C PQ	ACCESS:    7423549	FORWARD:          0	MERGED:          0	TO_CACHE:    7423549

L2C Instructions Evicting Data 7
L2C Translations Evicting Data 7663
L2C Data Evicting Data 3853393
L2C Instructions Evicting Instructions 0
L2C Translations Evicting Instructions 0
L2C Data Evicting Instructions 7
L2C Instructions Evicting Translations 0
L2C Translations Evicting Translations 0
L2C Data Evicting Translations 7664
L2C Dense regions hint from L2: 0
403444: 1
4027d7: 1
4027c3: 1
402781: 1
402801: 1
402702: 1
4026e0: 1
40344d: 1
4027a4: 13
402804: 98
4027f6: 98
402730: 98
402746: 99
403400: 214
403381: 219
4027a0: 5216
4033c0: 6426
PSCL5 TOTAL     ACCESS:    1256891  HIT:    1256891  MISS:          0  HIT %:        100  MISS %:          0   MPKI: 0
PSCL5 Test counter:          0
PSCL5 LOAD TRANSLATION ACCESS:      42092  HIT:      42092  MISS:          0  HIT %:        100  MISS %:          0   MPKI: 0
PSCL5 TRANSLATION FROM L1D PREFETCHER ACCESS:    1214799  HIT:    1214799  MISS:          0  HIT %:        100  MISS %:          0   MPKI: 0
PSCL5 PREFETCH  REQUESTED:          0  ISSUED:          0  USEFUL:          0  USELESS:          0
PSCL5 USEFUL LOAD PREFETCHES:          0 PREFETCH ISSUED TO LOWER LEVEL:          0  ACCURACY: -nan
PSCL5 TIMELY PREFETCHES:          0 LATE PREFETCHES: 0 DROPPED PREFETCHES: 0
PSCL5 COMMIT LATE PREFETCHES: 0 MISSED OPPORTUNITY: 0 LATE IN PQ: 0 UNCOVERED: 0
PSCL5 COMMIT LATE MSHR PREFETCHES: 0
PSCL5 MPKI TOTAL: 0 MSHR LATE: 0 PQ LATE: 0 COMMIT LATE: 0 MISSED OPPORTUNITY: 0 UNCOVERED: 0
PSCL5 PREFETCHES SAME FILL-ORIGIN LEVEL: 0 DIFFERENT FILL-ORIGIN LEVEL: 0

PSCL4 TOTAL     ACCESS:    1256891  HIT:    1256891  MISS:          0  HIT %:        100  MISS %:          0   MPKI: 0
PSCL4 Test counter:          0
PSCL4 LOAD TRANSLATION ACCESS:      42092  HIT:      42092  MISS:          0  HIT %:        100  MISS %:          0   MPKI: 0
PSCL4 TRANSLATION FROM L1D PREFETCHER ACCESS:    1214799  HIT:    1214799  MISS:          0  HIT %:        100  MISS %:          0   MPKI: 0
PSCL4 PREFETCH  REQUESTED:          0  ISSUED:          0  USEFUL:          0  USELESS:          0
PSCL4 USEFUL LOAD PREFETCHES:          0 PREFETCH ISSUED TO LOWER LEVEL:          0  ACCURACY: -nan
PSCL4 TIMELY PREFETCHES:          0 LATE PREFETCHES: 0 DROPPED PREFETCHES: 0
PSCL4 COMMIT LATE PREFETCHES: 0 MISSED OPPORTUNITY: 0 LATE IN PQ: 0 UNCOVERED: 0
PSCL4 COMMIT LATE MSHR PREFETCHES: 0
PSCL4 MPKI TOTAL: 0 MSHR LATE: 0 PQ LATE: 0 COMMIT LATE: 0 MISSED OPPORTUNITY: 0 UNCOVERED: 0
PSCL4 PREFETCHES SAME FILL-ORIGIN LEVEL: 0 DIFFERENT FILL-ORIGIN LEVEL: 0

PSCL3 TOTAL     ACCESS:    1256891  HIT:    1256891  MISS:          0  HIT %:        100  MISS %:          0   MPKI: 0
PSCL3 Test counter:          0
PSCL3 LOAD TRANSLATION ACCESS:      42092  HIT:      42092  MISS:          0  HIT %:        100  MISS %:          0   MPKI: 0
PSCL3 TRANSLATION FROM L1D PREFETCHER ACCESS:    1214799  HIT:    1214799  MISS:          0  HIT %:        100  MISS %:          0   MPKI: 0
PSCL3 PREFETCH  REQUESTED:          0  ISSUED:          0  USEFUL:          0  USELESS:          0
PSCL3 USEFUL LOAD PREFETCHES:          0 PREFETCH ISSUED TO LOWER LEVEL:          0  ACCURACY: -nan
PSCL3 TIMELY PREFETCHES:          0 LATE PREFETCHES: 0 DROPPED PREFETCHES: 0
PSCL3 COMMIT LATE PREFETCHES: 0 MISSED OPPORTUNITY: 0 LATE IN PQ: 0 UNCOVERED: 0
PSCL3 COMMIT LATE MSHR PREFETCHES: 0
PSCL3 MPKI TOTAL: 0 MSHR LATE: 0 PQ LATE: 0 COMMIT LATE: 0 MISSED OPPORTUNITY: 0 UNCOVERED: 0
PSCL3 PREFETCHES SAME FILL-ORIGIN LEVEL: 0 DIFFERENT FILL-ORIGIN LEVEL: 0

PSCL2 TOTAL     ACCESS:    1254810  HIT:    1254690  MISS:        120  HIT %:    99.9904  MISS %:  0.0095632   MPKI: 0.0006
PSCL2 Test counter:          0
PSCL2 LOAD TRANSLATION ACCESS:      42127  HIT:      42007  MISS:        120  HIT %:    99.7151  MISS %:   0.284853   MPKI: 0.0006
PSCL2 TRANSLATION FROM L1D PREFETCHER ACCESS:    1212683  HIT:    1212683  MISS:          0  HIT %:        100  MISS %:          0   MPKI: 0
PSCL2 PREFETCH  REQUESTED:          0  ISSUED:          0  USEFUL:          0  USELESS:          0
PSCL2 USEFUL LOAD PREFETCHES:          0 PREFETCH ISSUED TO LOWER LEVEL:          0  ACCURACY: -nan
PSCL2 TIMELY PREFETCHES:          0 LATE PREFETCHES: 0 DROPPED PREFETCHES: 0
PSCL2 COMMIT LATE PREFETCHES: 0 MISSED OPPORTUNITY: 0 LATE IN PQ: 0 UNCOVERED: 0
PSCL2 COMMIT LATE MSHR PREFETCHES: 0
PSCL2 MPKI TOTAL: 0 MSHR LATE: 0 PQ LATE: 0 COMMIT LATE: 0 MISSED OPPORTUNITY: 0 UNCOVERED: 0
PSCL2 PREFETCHES SAME FILL-ORIGIN LEVEL: 0 DIFFERENT FILL-ORIGIN LEVEL: 0

LLC TOTAL     ACCESS:    3868738  HIT:        837  MISS:    3867901  HIT %:   0.021635  MISS %:    99.9784   MPKI: 19.3395
LLC Test counter:          0
LLC LOAD      ACCESS:      12448  HIT:        824  MISS:      11624  HIT %:    6.61954  MISS %:    93.3805   MPKI: 0.05812
LLC RFO       ACCESS:          2  HIT:          0  MISS:          2  HIT %:          0  MISS %:        100   MPKI: 1e-05
LLC PREFETCH  ACCESS:    3848621  HIT:          0  MISS:    3848621  HIT %:          0  MISS %:        100   MPKI: 19.2431
LLC WRITEBACK ACCESS:          4  HIT:          1  MISS:          3  HIT %:         25  MISS %:         75   MPKI: 1.5e-05
LLC LOAD TRANSLATION ACCESS:          6  HIT:          0  MISS:          6  HIT %:          0  MISS %:        100   MPKI: 3e-05
LLC TRANSLATION FROM L1D PREFETCHER ACCESS:       7657  HIT:         12  MISS:       7645  HIT %:   0.156719  MISS %:    99.8433   MPKI: 0.038225
LLC PREFETCH  REQUESTED:          0  ISSUED:          0  USEFUL:         11  USELESS:    3856047
LLC USEFUL LOAD PREFETCHES:         11 PREFETCH ISSUED TO LOWER LEVEL:    3848627  ACCURACY: 0.000285816
LLC TIMELY PREFETCHES:         11 LATE PREFETCHES: 0 DROPPED PREFETCHES: 0
LLC COMMIT LATE PREFETCHES: 0 MISSED OPPORTUNITY: 0 LATE IN PQ: 0 UNCOVERED: 0
LLC COMMIT LATE MSHR PREFETCHES: 0
LLC MPKI TOTAL: 0.05812 MSHR LATE: 0 PQ LATE: 0 COMMIT LATE: 0 MISSED OPPORTUNITY: 0 UNCOVERED: 0
LLC PREFETCHES SAME FILL-ORIGIN LEVEL: 0 DIFFERENT FILL-ORIGIN LEVEL: 0
LLC AVERAGE MISS LATENCY: 119.523 cycles
LLC AVERAGE MISS LATENCY LOAD: 119.51 cycles
LLC AVERAGE MISS LATENCY PREFETCH: 119.386 cycles
LLC AVERAGE MSHR OCCUPANCY: 0.857306
LLC MSHR FULL: 0
LLC RQ	ACCESS:      20113	FORWARD:          0	MERGED:          0	TO_CACHE:      20113
LLC WQ	ACCESS:          4	FORWARD:          0	MERGED:          0	TO_CACHE:          4
LLC PQ	ACCESS:    3848627	FORWARD:          0	MERGED:          0	TO_CACHE:    3848627

LLC Dense regions hint to LLC: 0
4027d7: 1
4027f6: 1
4027c3: 1
402781: 1
403444: 1
40344d: 1
402801: 1
402702: 1
4026e0: 1
402746: 1
4027a4: 12
4027a0: 5176
4033c0: 6426

RAW hits: 1
Loads Generated: 35804811
Loads sent to L1D: 35804809
Stores Generated: 3375822
Stores sent to L1D: 3375822
Major fault: 0 Minor fault: 62153
Allocated PAGES: 62153
Total Load insts: 43896009
Total Non-spec loads: 10738298
Percentage of speculative loads: 75.537
L1D response latency: 155.35 cycles
Load retirement latency: 273.827 cycles

LATENCY_FILL: 80.0696 78648

DRAM Statistics
 CHANNEL 0
 RQ ROW_BUFFER_HIT:    2661867  ROW_BUFFER_MISS:    1206031
 DBUS_CONGESTED:          3
 WQ ROW_BUFFER_HIT:          1  ROW_BUFFER_MISS:          1  FULL:          0

 AVG_CONGESTED_CYCLE: 5
 All warmup complete: 2
Channel 0 Bank busy for read cycles: 0
Channel 0 Bank busy for write cycles: 0
Channel 0
Rank 0
0banks busy for read cycles: 113010625
0banks busy for write cycles: 2
1banks busy for read cycles: 77814693
1banks busy for write cycles: 6512
2banks busy for read cycles: 27049551
2banks busy for write cycles: 0
3banks busy for read cycles: 22936013
3banks busy for write cycles: 0
4banks busy for read cycles: 16683949
4banks busy for write cycles: 0
5banks busy for read cycles: 2744015
5banks busy for write cycles: 0
6banks busy for read cycles: 739912
6banks busy for write cycles: 0
7banks busy for read cycles: 193178
7banks busy for write cycles: 0
8banks busy for read cycles: 3379035
8banks busy for write cycles: 0

CPU 0 Branch Prediction Accuracy: 99.8669% MPKI: 0.223155 Average ROB Occupancy at Mispredict: 23.9539
Branch types
NOT_BRANCH: 166478363 83.2392%
BRANCH_DIRECT_JUMP: 1387292 0.693646%
BRANCH_INDIRECT: 0 0%
BRANCH_CONDITIONAL: 32134349 16.0672%
BRANCH_DIRECT_CALL: 0 0%
BRANCH_INDIRECT_CALL: 0 0%
BRANCH_RETURN: 0 0%
BRANCH_OTHER: 0 0%

DRAM PAGES: 1048576
Allocated PAGES: 62153
