
*** ChampSim Multicore Out-of-Order Simulator ***

Warmup Instructions: 50000000
Simulation Instructions: 200000000
Number of CPUs: 1
LLC sets: 2048
LLC ways: 16
Secure Berti: OFF
Berti: OFF
Berti Fill: OFF
On commit prefetching: OFF
L2 LLC Bypass speculative loads: OFF
Off-chip DRAM Size: 4096 MB Channels: 1 Width: 64-bit Data Rate: 6400 MT/s
CPU 0 runs /home/sumon/secure_berti/Berti_Baseline/../../traces/spec/605.mcf_s-1152B.champsimtrace.xz
.xz
BTB has LRU replacement policy
ITLB has LRU replacement policy
DTLB has LRU replacement policy
STLB has LRU replacement policy
L1I has LRU replacement policy
History Sets: 8
History Ways: 16
BERTI Size: 16
BERTI Stride Size: 16
L1D has LRU replacement policy
L2C has LRU replacement policy
LLC has LRU replacement policy
Heartbeat CPU 0 instructions: 10000001 cycles: 3330254 heartbeat IPC: 3.00277 cumulative IPC: 3.00277 (Simulation time: 0 hr 0 min 26 sec) 
Heartbeat CPU 0 instructions: 20000000 cycles: 6662508 heartbeat IPC: 3.00097 cumulative IPC: 3.00187 (Simulation time: 0 hr 0 min 51 sec) 
Heartbeat CPU 0 instructions: 30000001 cycles: 9991443 heartbeat IPC: 3.00396 cumulative IPC: 3.00257 (Simulation time: 0 hr 1 min 17 sec) 
Heartbeat CPU 0 instructions: 40000001 cycles: 13323773 heartbeat IPC: 3.0009 cumulative IPC: 3.00215 (Simulation time: 0 hr 1 min 43 sec) 
Heartbeat CPU 0 instructions: 50000001 cycles: 16659518 heartbeat IPC: 2.99783 cumulative IPC: 3.00129 (Simulation time: 0 hr 2 min 8 sec) 

Warmup complete CPU 0 instructions: 50000001 cycles: 16659518 (Simulation time: 0 hr 2 min 8 sec) 

Heartbeat CPU 0 instructions: 60000001 cycles: 51930974 heartbeat IPC: 0.283515 cumulative IPC: 0.283515 (Simulation time: 0 hr 2 min 42 sec) 
Heartbeat CPU 0 instructions: 70000001 cycles: 87551443 heartbeat IPC: 0.280737 cumulative IPC: 0.28212 (Simulation time: 0 hr 3 min 17 sec) 
Heartbeat CPU 0 instructions: 80000001 cycles: 122760164 heartbeat IPC: 0.284021 cumulative IPC: 0.28275 (Simulation time: 0 hr 3 min 52 sec) 
Heartbeat CPU 0 instructions: 90000003 cycles: 158171487 heartbeat IPC: 0.282396 cumulative IPC: 0.282662 (Simulation time: 0 hr 4 min 29 sec) 
Heartbeat CPU 0 instructions: 100000001 cycles: 193683981 heartbeat IPC: 0.281591 cumulative IPC: 0.282447 (Simulation time: 0 hr 5 min 6 sec) 
Heartbeat CPU 0 instructions: 110000000 cycles: 229155732 heartbeat IPC: 0.281914 cumulative IPC: 0.282358 (Simulation time: 0 hr 5 min 45 sec) 
Heartbeat CPU 0 instructions: 120000002 cycles: 264754210 heartbeat IPC: 0.280911 cumulative IPC: 0.28215 (Simulation time: 0 hr 6 min 23 sec) 
Heartbeat CPU 0 instructions: 130000002 cycles: 300525890 heartbeat IPC: 0.279551 cumulative IPC: 0.281823 (Simulation time: 0 hr 7 min 3 sec) 
Heartbeat CPU 0 instructions: 140000003 cycles: 336714497 heartbeat IPC: 0.27633 cumulative IPC: 0.281202 (Simulation time: 0 hr 7 min 43 sec) 
Heartbeat CPU 0 instructions: 150000001 cycles: 372484510 heartbeat IPC: 0.279564 cumulative IPC: 0.281037 (Simulation time: 0 hr 8 min 25 sec) 
Heartbeat CPU 0 instructions: 160000000 cycles: 408156500 heartbeat IPC: 0.280332 cumulative IPC: 0.280973 (Simulation time: 0 hr 9 min 7 sec) 
Heartbeat CPU 0 instructions: 170000001 cycles: 444463001 heartbeat IPC: 0.275433 cumulative IPC: 0.280503 (Simulation time: 0 hr 9 min 49 sec) 
Heartbeat CPU 0 instructions: 180000003 cycles: 480357546 heartbeat IPC: 0.278594 cumulative IPC: 0.280355 (Simulation time: 0 hr 10 min 31 sec) 
Heartbeat CPU 0 instructions: 190000002 cycles: 516790878 heartbeat IPC: 0.274474 cumulative IPC: 0.279926 (Simulation time: 0 hr 11 min 10 sec) 
Heartbeat CPU 0 instructions: 200000001 cycles: 553648719 heartbeat IPC: 0.271313 cumulative IPC: 0.279335 (Simulation time: 0 hr 11 min 47 sec) 
Heartbeat CPU 0 instructions: 210000002 cycles: 590570989 heartbeat IPC: 0.270839 cumulative IPC: 0.278789 (Simulation time: 0 hr 12 min 20 sec) 
Heartbeat CPU 0 instructions: 220000000 cycles: 626843019 heartbeat IPC: 0.275694 cumulative IPC: 0.278605 (Simulation time: 0 hr 12 min 52 sec) 
Heartbeat CPU 0 instructions: 230000002 cycles: 663198319 heartbeat IPC: 0.275063 cumulative IPC: 0.278406 (Simulation time: 0 hr 13 min 23 sec) 
Heartbeat CPU 0 instructions: 240000001 cycles: 703867107 heartbeat IPC: 0.245889 cumulative IPC: 0.276481 (Simulation time: 0 hr 13 min 55 sec) 
Heartbeat CPU 0 instructions: 250000001 cycles: 742430540 heartbeat IPC: 0.259313 cumulative IPC: 0.275569 (Simulation time: 0 hr 14 min 25 sec) 
Finished CPU 0 instructions: 200000000 cycles: 725771022 cumulative IPC: 0.275569 (Simulation time: 0 hr 14 min 25 sec) 

ChampSim completed all CPUs

Region of Interest Statistics

CPU 0 cumulative IPC: 0.275569 instructions: 200000000 cycles: 725771022
ITLB TOTAL     ACCESS:   34631233  HIT:   34631233  MISS:          0  HIT %:        100  MISS %:          0   MPKI: 0
ITLB Test counter:          0
ITLB LOAD TRANSLATION ACCESS:   34631233  HIT:   34631233  MISS:          0  HIT %:        100  MISS %:          0   MPKI: 0
ITLB PREFETCH  REQUESTED:          0  ISSUED:          0  USEFUL:          0  USELESS:          0
ITLB USEFUL LOAD PREFETCHES:          0 PREFETCH ISSUED TO LOWER LEVEL:          0  ACCURACY: -nan
ITLB TIMELY PREFETCHES:          0 LATE PREFETCHES: 0 DROPPED PREFETCHES: 0
ITLB COMMIT LATE PREFETCHES: 0 MISSED OPPORTUNITY: 0 LATE IN PQ: 0 UNCOVERED: 0
ITLB COMMIT LATE MSHR PREFETCHES: 0
ITLB MPKI TOTAL: 0 MSHR LATE: 0 PQ LATE: 0 COMMIT LATE: 0 MISSED OPPORTUNITY: 0 UNCOVERED: 0
ITLB PREFETCHES SAME FILL-ORIGIN LEVEL: 0 DIFFERENT FILL-ORIGIN LEVEL: 0
ITLB AVERAGE MISS LATENCY: -nan cycles
ITLB AVERAGE MISS LATENCY LOAD: -nan cycles
ITLB AVERAGE MISS LATENCY PREFETCH: -nan cycles
ITLB AVERAGE MSHR OCCUPANCY: 0
ITLB MSHR FULL: 0
ITLB RQ	ACCESS:   36092233	FORWARD:          0	MERGED:    1461000	TO_CACHE:   34631233

DTLB TOTAL     ACCESS:   55061530  HIT:   47752762  MISS:    7308768  HIT %:    86.7262  MISS %:    13.2738   MPKI: 36.5438
DTLB Test counter:          0
DTLB LOAD TRANSLATION ACCESS:   55061530  HIT:   47752762  MISS:    7308768  HIT %:    86.7262  MISS %:    13.2738   MPKI: 36.5438
DTLB PREFETCH  REQUESTED:          0  ISSUED:          0  USEFUL:          0  USELESS:          0
DTLB USEFUL LOAD PREFETCHES:          0 PREFETCH ISSUED TO LOWER LEVEL:          0  ACCURACY: -nan
DTLB TIMELY PREFETCHES:          0 LATE PREFETCHES: 0 DROPPED PREFETCHES: 0
DTLB COMMIT LATE PREFETCHES: 0 MISSED OPPORTUNITY: 0 LATE IN PQ: 0 UNCOVERED: 0
DTLB COMMIT LATE MSHR PREFETCHES: 0
DTLB MPKI TOTAL: 0 MSHR LATE: 0 PQ LATE: 0 COMMIT LATE: 0 MISSED OPPORTUNITY: 0 UNCOVERED: 0
DTLB PREFETCHES SAME FILL-ORIGIN LEVEL: 0 DIFFERENT FILL-ORIGIN LEVEL: 0
DTLB AVERAGE MISS LATENCY: 10.9117 cycles
DTLB AVERAGE MISS LATENCY LOAD: -nan cycles
DTLB AVERAGE MISS LATENCY PREFETCH: -nan cycles
DTLB AVERAGE MSHR OCCUPANCY: 0.0949661
DTLB MSHR FULL: 0
DTLB RQ	ACCESS:   66722240	FORWARD:          0	MERGED:   11260206	TO_CACHE:   55462034

STLB TOTAL     ACCESS:   13432423  HIT:   13331464  MISS:     100959  HIT %:    99.2484  MISS %:   0.751607   MPKI: 0.504795
STLB Test counter:          0
STLB LOAD TRANSLATION ACCESS:    7308768  HIT:    7208700  MISS:     100068  HIT %:    98.6308  MISS %:    1.36915   MPKI: 0.50034
STLB TRANSLATION FROM L1D PREFETCHER ACCESS:    6123655  HIT:    6122764  MISS:        891  HIT %:    99.9854  MISS %:  0.0145501   MPKI: 0.004455
STLB PREFETCH  REQUESTED:          0  ISSUED:          0  USEFUL:        512  USELESS:        375
STLB USEFUL LOAD PREFETCHES:        512 PREFETCH ISSUED TO LOWER LEVEL:          0  ACCURACY: inf
STLB TIMELY PREFETCHES:        512 LATE PREFETCHES: 25435 DROPPED PREFETCHES: 1579715
STLB COMMIT LATE PREFETCHES: 0 MISSED OPPORTUNITY: 0 LATE IN PQ: 0 UNCOVERED: 0
STLB COMMIT LATE MSHR PREFETCHES: 0
STLB MPKI TOTAL: 0 MSHR LATE: 0.127175 PQ LATE: 0 COMMIT LATE: 0 MISSED OPPORTUNITY: 0 UNCOVERED: 0
STLB PREFETCHES SAME FILL-ORIGIN LEVEL: 0 DIFFERENT FILL-ORIGIN LEVEL: 0
STLB AVERAGE MISS LATENCY: 107.595 cycles
STLB AVERAGE MISS LATENCY LOAD: -nan cycles
STLB AVERAGE MISS LATENCY PREFETCH: -nan cycles
STLB AVERAGE MSHR OCCUPANCY: 0.245452
STLB MSHR FULL: 0
STLB RQ	ACCESS:   46014048	FORWARD:          0	MERGED:   30868862	TO_CACHE:   15145186

STLB Hit, L1D data hit: 0
STLB Hit, L2C data hit: 0
STLB Hit, LLC data hit: 0
STLB Hit, LLC data miss: 0
STLB STLB hints to L2: 0
L1D TOTAL     ACCESS:   92205096  HIT:   78236785  MISS:   13968311  HIT %:    84.8508  MISS %:    15.1492   MPKI: 69.8416
L1D Test counter:          0
L1D LOAD      ACCESS:   48950985  HIT:   39358466  MISS:    9664652  HIT %:    80.4038  MISS %:    19.5962   MPKI: 47.9626
L1D RFO       ACCESS:   16613219  HIT:   16004212  MISS:     609007  HIT %:    96.3342  MISS %:     3.6658   MPKI: 3.04503
L1D PREFETCH  ACCESS:   26640892  HIT:   22874107  MISS:    3766785  HIT %:    85.8609  MISS %:    14.1391   MPKI: 18.8339
L1D PREFETCH  REQUESTED:   91079018  ISSUED:   84017909  USEFUL:    3746880  USELESS:      19910
L1D USEFUL LOAD PREFETCHES:    3746880 PREFETCH ISSUED TO LOWER LEVEL:    7480658  ACCURACY: 50.0876
L1D TIMELY PREFETCHES:    3746880 LATE PREFETCHES: 323935 DROPPED PREFETCHES: 4874666
L1D COMMIT LATE PREFETCHES: 0 MISSED OPPORTUNITY: 0 LATE IN PQ: 153613 UNCOVERED: 0
L1D COMMIT LATE MSHR PREFETCHES: 0
L1D MPKI TOTAL: 48.3233 MSHR LATE: 1.61967 PQ LATE: 0.768065 COMMIT LATE: 0 MISSED OPPORTUNITY: 0 UNCOVERED: 0
L1D PREFETCHES SAME FILL-ORIGIN LEVEL: 4090723 DIFFERENT FILL-ORIGIN LEVEL: 3389935
L1D AVERAGE MISS LATENCY: 80.6838 cycles
L1D AVERAGE MISS LATENCY LOAD: 65.3632 cycles
L1D AVERAGE MISS LATENCY PREFETCH: 127.64 cycles
L1D AVERAGE MSHR OCCUPANCY: 1.87277
L1D MSHR FULL: 0.0494588
L1D RQ	ACCESS:   68225013	FORWARD:          0	MERGED:   17456130	TO_CACHE:   49023119
L1D WQ	ACCESS:   17802933	FORWARD:    1752096	MERGED:     103812	TO_CACHE:   17699121
L1D PQ	ACCESS:   45312629	FORWARD:          0	MERGED:    6601017	TO_CACHE:   38705280

L1D UNIQUE REGIONS ACCESSED: 0
L1D REGIONS CONFLICTS: 0
L1D Cross Page Prefetch Requests: 7772501
L1D Same Page Prefetch Requests: 47962914
L1D ROI Sum of L1D PQ occupancy: 794313602
L1D PREFETCHES PUSHED FROM L2C: 0
403d28: 1
4060db: 1
403d20: 2
403d76: 3
403db8: 3
403e42: 4
4074f3: 5
403d86: 6
403d6c: 6
403d44: 7
407521: 7
403d17: 9
403e6e: 10
405f7b: 16
403d8d: 16
4046c8: 17
404684: 18
404fc0: 19
404648: 19
403d13: 22
404629: 23
4044b7: 24
404652: 25
403cf4: 25
4084b4: 28
4048cd: 30
405d03: 32
403d4d: 38
403ce0: 59
403f18: 74
4084b0: 105
403ca9: 108
403ea0: 109
4045e1: 126
403ed7: 145
405ccd: 159
4048e9: 192
405d41: 214
4084af: 384
404a4b: 471
404a08: 512
404cda: 662
40459f: 689
405d23: 781
4048a6: 861
4045db: 864
4048a0: 924
404ce3: 949
4044fc: 950
4044bf: 950
40465d: 950
4045bd: 950
403e50: 977
403e54: 1044
403f02: 1387
403e60: 2389
403e64: 2477
4048b8: 3202
404097: 3796
403ef3: 4537
403ee8: 6342
4048e0: 6833
4048aa: 6941
4048c3: 7127
404826: 7526
404823: 7699
403eb0: 8034
4048bf: 9043
404a14: 10209
403cc6: 10540
403ce9: 11124
404076: 17509
40409b: 17850
4048b1: 25180
404841: 27126
403eb4: 28014
403eec: 30178
4049d6: 33846
403e9a: 37254
403ee2: 37629
403cc0: 42297
4048bc: 50594
4048b4: 54623
403e94: 54828
403e90: 56970
404820: 57642
404844: 63464
40483c: 148271
40483f: 353182
40482f: 493496
4049cc: 530706
4049de: 3591303
4049e5: 3716726
L1I TOTAL     ACCESS:   36092233  HIT:   36092231  MISS:          2  HIT %:        100  MISS %: 5.54136e-06   MPKI: 1e-05
L1I Test counter:          0
L1I LOAD      ACCESS:   36092233  HIT:   36092231  MISS:          2  HIT %:        100  MISS %: 5.54136e-06   MPKI: 1e-05
L1I PREFETCH  REQUESTED:          0  ISSUED:          0  USEFUL:          0  USELESS:          0
L1I USEFUL LOAD PREFETCHES:          0 PREFETCH ISSUED TO LOWER LEVEL:          0  ACCURACY: -nan
L1I TIMELY PREFETCHES:          0 LATE PREFETCHES: 0 DROPPED PREFETCHES: 0
L1I COMMIT LATE PREFETCHES: 0 MISSED OPPORTUNITY: 0 LATE IN PQ: 0 UNCOVERED: 0
L1I COMMIT LATE MSHR PREFETCHES: 0
L1I MPKI TOTAL: 1e-05 MSHR LATE: 0 PQ LATE: 0 COMMIT LATE: 0 MISSED OPPORTUNITY: 0 UNCOVERED: 0
L1I PREFETCHES SAME FILL-ORIGIN LEVEL: 0 DIFFERENT FILL-ORIGIN LEVEL: 0
L1I AVERAGE MISS LATENCY: 214 cycles
L1I AVERAGE MISS LATENCY LOAD: 214 cycles
L1I AVERAGE MISS LATENCY PREFETCH: -nan cycles
L1I AVERAGE MSHR OCCUPANCY: 2.77068e-08
L1I MSHR FULL: 0
L1I RQ	ACCESS:   55167761	FORWARD:          0	MERGED:   19075528	TO_CACHE:   36092233

403e02: 1
403dc3: 1
BTB TOTAL     ACCESS:   49743916  HIT:   48131262  MISS:    1612654  HIT %:    96.7581  MISS %:    3.24191   MPKI: 8.06327
BTB Test counter:          0
BTB BRANCH_DIRECT_JUMP	ACCESS:    5836928  HIT:    5836891  MISS:         37
BTB BRANCH_INDIRECT	ACCESS:          0  HIT:          0  MISS:          0
BTB BRANCH_CONDITIONAL	ACCESS:   36112465  HIT:   36112386  MISS:         79
BTB BRANCH_DIRECT_CALL	ACCESS:    3647058  HIT:    3647040  MISS:         18
BTB BRANCH_INDIRECT_CALL	ACCESS:     250202  HIT:     250194  MISS:          8
BTB BRANCH_RETURN	ACCESS:    3897263  HIT:    2284751  MISS:    1612512
BTB BRANCH_OTHER ACCESS:          0  HIT:          0  MISS:          0

L2C TOTAL     ACCESS:   19135745  HIT:    7653342  MISS:   11482403  HIT %:     39.995  MISS %:     60.005   MPKI: 57.412
L2C Test counter:          0
L2C LOAD      ACCESS:    9268555  HIT:    2297340  MISS:    6971215  HIT %:    24.7864  MISS %:    75.2136   MPKI: 34.8561
L2C DATA LOAD MPKI: 34.8561
L2C INSTRUCTION LOAD MPKI: 1e-05
L2C RFO       ACCESS:     609005  HIT:     322403  MISS:     286602  HIT %:    52.9393  MISS %:    47.0607   MPKI: 1.43301
L2C PREFETCH  ACCESS:    6611335  HIT:    2424701  MISS:    4186634  HIT %:    36.6749  MISS %:    63.3251   MPKI: 20.9332
L2C DATA PREFETCH MPKI: 20.9332
L2C INSTRUCTION PREFETCH MPKI: 0
L2C WRITEBACK ACCESS:     934899  HIT:     933546  MISS:       1353  HIT %:    99.8553  MISS %:   0.144722   MPKI: 0.006765
L2C LOAD TRANSLATION ACCESS:     100669  HIT:      73469  MISS:      27200  HIT %:    72.9808  MISS %:    27.0192   MPKI: 0.136
L2C TRANSLATION FROM L1D PREFETCHER ACCESS:    1611282  HIT:    1601883  MISS:       9399  HIT %:    99.4167  MISS %:   0.583324   MPKI: 0.046995
L2C PREFETCH  REQUESTED:          0  ISSUED:          0  USEFUL:     350560  USELESS:    3845638
L2C USEFUL LOAD PREFETCHES:     350560 PREFETCH ISSUED TO LOWER LEVEL:    4197603  ACCURACY: 8.35143
L2C TIMELY PREFETCHES:     350560 LATE PREFETCHES: 10969 DROPPED PREFETCHES: 0
L2C COMMIT LATE PREFETCHES: 0 MISSED OPPORTUNITY: 0 LATE IN PQ: 0 UNCOVERED: 0
L2C COMMIT LATE MSHR PREFETCHES: 0
L2C MPKI TOTAL: 34.8561 MSHR LATE: 0.054845 PQ LATE: 0 COMMIT LATE: 0 MISSED OPPORTUNITY: 0 UNCOVERED: 0
L2C PREFETCHES SAME FILL-ORIGIN LEVEL: 1313068 DIFFERENT FILL-ORIGIN LEVEL: 0
L2C AVERAGE MISS LATENCY: 96.3494 cycles
L2C AVERAGE MISS LATENCY LOAD: 69.5559 cycles
L2C AVERAGE MISS LATENCY PREFETCH: 145.104 cycles
L2C AVERAGE MSHR OCCUPANCY: 3.45161
L2C MSHR FULL: 2.57123e-05
L2C RQ	ACCESS:   11589544	FORWARD:          0	MERGED:          0	TO_CACHE:   11589511
L2C WQ	ACCESS:     934899	FORWARD:         33	MERGED:          0	TO_CACHE:     934899
L2C PQ	ACCESS:    7480652	FORWARD:          0	MERGED:        589	TO_CACHE:    7480063

L2C Instructions Evicting Data 2
L2C Translations Evicting Data 36519
L2C Data Evicting Data 11407935
L2C Instructions Evicting Instructions 0
L2C Translations Evicting Instructions 0
L2C Data Evicting Instructions 2
L2C Instructions Evicting Translations 0
L2C Translations Evicting Translations 80
L2C Data Evicting Translations 36512
L2C Dense regions hint from L2: 0
404097: 1
4048e9: 1
403dc3: 1
403e02: 1
404a08: 1
403d86: 1
403d28: 1
403d13: 1
403d4d: 2
4046c8: 2
4044b7: 2
404684: 2
403db8: 2
403d20: 2
403e6e: 2
403cf4: 2
403d44: 2
403d76: 2
403e64: 3
403d6c: 3
4048a0: 4
403e60: 4
404a4b: 4
403d8d: 7
403ce0: 12
4048a6: 15
4048cd: 29
403e50: 53
403e54: 53
403ca9: 69
40459f: 74
403f18: 74
4045e1: 92
403ea0: 109
4048aa: 120
403ed7: 143
4045db: 242
4048b1: 382
404ce3: 610
404a14: 825
4044fc: 948
40465d: 950
4045bd: 950
4044bf: 950
403f02: 1273
404826: 1648
404823: 2005
4048c3: 2575
4048b8: 2973
403ef3: 4075
4048b4: 5071
403ee8: 6250
4048e0: 6259
403eb0: 7672
4048bf: 8415
403cc6: 10500
404820: 10731
403ce9: 10761
404841: 11092
4049d6: 12045
403eec: 25690
404844: 26107
403eb4: 26436
403e9a: 30599
403ee2: 33355
403cc0: 40784
4048bc: 42836
403e94: 49544
403e90: 51439
40483c: 53836
40482f: 133386
40483f: 135169
4049cc: 147858
4049de: 2928957
4049e5: 3135121
PSCL5 TOTAL     ACCESS:    1706105  HIT:    1706105  MISS:          0  HIT %:        100  MISS %:          0   MPKI: 0
PSCL5 Test counter:          0
PSCL5 LOAD TRANSLATION ACCESS:     100064  HIT:     100064  MISS:          0  HIT %:        100  MISS %:          0   MPKI: 0
PSCL5 TRANSLATION FROM L1D PREFETCHER ACCESS:    1606041  HIT:    1606041  MISS:          0  HIT %:        100  MISS %:          0   MPKI: 0
PSCL5 PREFETCH  REQUESTED:          0  ISSUED:          0  USEFUL:          0  USELESS:          0
PSCL5 USEFUL LOAD PREFETCHES:          0 PREFETCH ISSUED TO LOWER LEVEL:          0  ACCURACY: -nan
PSCL5 TIMELY PREFETCHES:          0 LATE PREFETCHES: 0 DROPPED PREFETCHES: 0
PSCL5 COMMIT LATE PREFETCHES: 0 MISSED OPPORTUNITY: 0 LATE IN PQ: 0 UNCOVERED: 0
PSCL5 COMMIT LATE MSHR PREFETCHES: 0
PSCL5 MPKI TOTAL: 0 MSHR LATE: 0 PQ LATE: 0 COMMIT LATE: 0 MISSED OPPORTUNITY: 0 UNCOVERED: 0
PSCL5 PREFETCHES SAME FILL-ORIGIN LEVEL: 0 DIFFERENT FILL-ORIGIN LEVEL: 0

PSCL4 TOTAL     ACCESS:    1706105  HIT:    1706105  MISS:          0  HIT %:        100  MISS %:          0   MPKI: 0
PSCL4 Test counter:          0
PSCL4 LOAD TRANSLATION ACCESS:     100064  HIT:     100064  MISS:          0  HIT %:        100  MISS %:          0   MPKI: 0
PSCL4 TRANSLATION FROM L1D PREFETCHER ACCESS:    1606041  HIT:    1606041  MISS:          0  HIT %:        100  MISS %:          0   MPKI: 0
PSCL4 PREFETCH  REQUESTED:          0  ISSUED:          0  USEFUL:          0  USELESS:          0
PSCL4 USEFUL LOAD PREFETCHES:          0 PREFETCH ISSUED TO LOWER LEVEL:          0  ACCURACY: -nan
PSCL4 TIMELY PREFETCHES:          0 LATE PREFETCHES: 0 DROPPED PREFETCHES: 0
PSCL4 COMMIT LATE PREFETCHES: 0 MISSED OPPORTUNITY: 0 LATE IN PQ: 0 UNCOVERED: 0
PSCL4 COMMIT LATE MSHR PREFETCHES: 0
PSCL4 MPKI TOTAL: 0 MSHR LATE: 0 PQ LATE: 0 COMMIT LATE: 0 MISSED OPPORTUNITY: 0 UNCOVERED: 0
PSCL4 PREFETCHES SAME FILL-ORIGIN LEVEL: 0 DIFFERENT FILL-ORIGIN LEVEL: 0

PSCL3 TOTAL     ACCESS:    1706105  HIT:    1706105  MISS:          0  HIT %:        100  MISS %:          0   MPKI: 0
PSCL3 Test counter:          0
PSCL3 LOAD TRANSLATION ACCESS:     100064  HIT:     100064  MISS:          0  HIT %:        100  MISS %:          0   MPKI: 0
PSCL3 TRANSLATION FROM L1D PREFETCHER ACCESS:    1606041  HIT:    1606041  MISS:          0  HIT %:        100  MISS %:          0   MPKI: 0
PSCL3 PREFETCH  REQUESTED:          0  ISSUED:          0  USEFUL:          0  USELESS:          0
PSCL3 USEFUL LOAD PREFETCHES:          0 PREFETCH ISSUED TO LOWER LEVEL:          0  ACCURACY: -nan
PSCL3 TIMELY PREFETCHES:          0 LATE PREFETCHES: 0 DROPPED PREFETCHES: 0
PSCL3 COMMIT LATE PREFETCHES: 0 MISSED OPPORTUNITY: 0 LATE IN PQ: 0 UNCOVERED: 0
PSCL3 COMMIT LATE MSHR PREFETCHES: 0
PSCL3 MPKI TOTAL: 0 MSHR LATE: 0 PQ LATE: 0 COMMIT LATE: 0 MISSED OPPORTUNITY: 0 UNCOVERED: 0
PSCL3 PREFETCHES SAME FILL-ORIGIN LEVEL: 0 DIFFERENT FILL-ORIGIN LEVEL: 0

PSCL2 TOTAL     ACCESS:    1698220  HIT:    1697206  MISS:       1014  HIT %:    99.9403  MISS %:  0.0597096   MPKI: 0.00507
PSCL2 Test counter:          0
PSCL2 LOAD TRANSLATION ACCESS:     100089  HIT:      99075  MISS:       1014  HIT %:    98.9869  MISS %:     1.0131   MPKI: 0.00507
PSCL2 TRANSLATION FROM L1D PREFETCHER ACCESS:    1598131  HIT:    1598131  MISS:          0  HIT %:        100  MISS %:          0   MPKI: 0
PSCL2 PREFETCH  REQUESTED:          0  ISSUED:          0  USEFUL:          0  USELESS:          0
PSCL2 USEFUL LOAD PREFETCHES:          0 PREFETCH ISSUED TO LOWER LEVEL:          0  ACCURACY: -nan
PSCL2 TIMELY PREFETCHES:          0 LATE PREFETCHES: 0 DROPPED PREFETCHES: 0
PSCL2 COMMIT LATE PREFETCHES: 0 MISSED OPPORTUNITY: 0 LATE IN PQ: 0 UNCOVERED: 0
PSCL2 COMMIT LATE MSHR PREFETCHES: 0
PSCL2 MPKI TOTAL: 0 MSHR LATE: 0 PQ LATE: 0 COMMIT LATE: 0 MISSED OPPORTUNITY: 0 UNCOVERED: 0
PSCL2 PREFETCHES SAME FILL-ORIGIN LEVEL: 0 DIFFERENT FILL-ORIGIN LEVEL: 0

LLC TOTAL     ACCESS:   12098295  HIT:    6481699  MISS:    5616596  HIT %:    53.5753  MISS %:    46.4247   MPKI: 28.083
LLC Test counter:          0
LLC LOAD      ACCESS:    6960243  HIT:    5520323  MISS:    1439920  HIT %:    79.3122  MISS %:    20.6878   MPKI: 7.1996
LLC RFO       ACCESS:     286599  HIT:     280329  MISS:       6270  HIT %:    97.8123  MISS %:    2.18773   MPKI: 0.03135
LLC PREFETCH  ACCESS:    4197601  HIT:      50983  MISS:    4146618  HIT %:    1.21457  MISS %:    98.7854   MPKI: 20.7331
LLC WRITEBACK ACCESS:     617253  HIT:     609058  MISS:       8195  HIT %:    98.6723  MISS %:    1.32766   MPKI: 0.040975
LLC LOAD TRANSLATION ACCESS:      27200  HIT:      20647  MISS:       6553  HIT %:    75.9081  MISS %:    24.0919   MPKI: 0.032765
LLC TRANSLATION FROM L1D PREFETCHER ACCESS:       9399  HIT:        359  MISS:       9040  HIT %:    3.81956  MISS %:    96.1804   MPKI: 0.0452
LLC PREFETCH  REQUESTED:          0  ISSUED:          0  USEFUL:     110205  USELESS:    4044362
LLC USEFUL LOAD PREFETCHES:     110205 PREFETCH ISSUED TO LOWER LEVEL:    4146618  ACCURACY: 2.65771
LLC TIMELY PREFETCHES:     110205 LATE PREFETCHES: 0 DROPPED PREFETCHES: 0
LLC COMMIT LATE PREFETCHES: 0 MISSED OPPORTUNITY: 0 LATE IN PQ: 0 UNCOVERED: 0
LLC COMMIT LATE MSHR PREFETCHES: 0
LLC MPKI TOTAL: 7.1996 MSHR LATE: 0 PQ LATE: 0 COMMIT LATE: 0 MISSED OPPORTUNITY: 0 UNCOVERED: 0
LLC PREFETCHES SAME FILL-ORIGIN LEVEL: 0 DIFFERENT FILL-ORIGIN LEVEL: 0
LLC AVERAGE MISS LATENCY: 135.154 cycles
LLC AVERAGE MISS LATENCY LOAD: 188.787 cycles
LLC AVERAGE MISS LATENCY PREFETCH: 116.543 cycles
LLC AVERAGE MSHR OCCUPANCY: 2.70764
LLC MSHR FULL: 0
LLC RQ	ACCESS:    7283447	FORWARD:          0	MERGED:          0	TO_CACHE:    7283441
LLC WQ	ACCESS:     617253	FORWARD:          8	MERGED:          0	TO_CACHE:     617253
LLC PQ	ACCESS:    4197603	FORWARD:          0	MERGED:          0	TO_CACHE:    4197601

LLC Dense regions hint to LLC: 0
40459f: 1
403e64: 1
404820: 1
403d20: 1
4048a0: 1
403dc3: 1
403db8: 1
403d76: 1
4048e9: 1
403e02: 1
403d8d: 1
4044bf: 1
40465d: 2
404826: 2
404a14: 2
4048a6: 2
404684: 2
403e54: 3
404844: 3
4048b8: 5
4048bf: 13
404841: 15
4048e0: 15
4048b1: 21
403f18: 24
4048aa: 34
4048b4: 36
40483f: 37
4048c3: 55
40483c: 58
403ea0: 63
4048bc: 74
403ed7: 86
403f02: 157
40482f: 238
403ef3: 422
403eb0: 541
403ee8: 725
403eb4: 1679
403e9a: 2208
403eec: 2506
403ee2: 2828
403e90: 4045
403e94: 4722
403cc6: 10460
403ce9: 10591
4049d6: 11810
403cc0: 30507
4049e5: 93550
4049cc: 137254
4049de: 1125113

RAW hits: 2427968
Loads Generated: 70652983
Loads sent to L1D: 68225013
Stores Generated: 17802933
Stores sent to L1D: 17802933
Major fault: 0 Minor fault: 80635
Allocated PAGES: 80635
Total Load insts: 84334029
Total Non-spec loads: 15590080
Percentage of speculative loads: 81.5139
L1D response latency: 67.6476 cycles
Load retirement latency: 152.14 cycles

LATENCY_FILL: 68.1616 9583641

DRAM Statistics
 CHANNEL 0
 RQ ROW_BUFFER_HIT:    3300605  ROW_BUFFER_MISS:    2307763
 DBUS_CONGESTED:       1061
 WQ ROW_BUFFER_HIT:      11176  ROW_BUFFER_MISS:      56544  FULL:          0

 AVG_CONGESTED_CYCLE: 4
 All warmup complete: 2
Channel 0 Bank busy for read cycles: 0
Channel 0 Bank busy for write cycles: 0
Channel 0
Rank 0
0banks busy for read cycles: 499883247
0banks busy for write cycles: 38786
1banks busy for read cycles: 94279170
1banks busy for write cycles: 7035499
2banks busy for read cycles: 51298334
2banks busy for write cycles: 909330
3banks busy for read cycles: 28422431
3banks busy for write cycles: 269950
4banks busy for read cycles: 16258721
4banks busy for write cycles: 155674
5banks busy for read cycles: 10261766
5banks busy for write cycles: 117856
6banks busy for read cycles: 6966310
6banks busy for write cycles: 112321
7banks busy for read cycles: 4376338
7banks busy for write cycles: 136427
8banks busy for read cycles: 5040991
8banks busy for write cycles: 207872

CPU 0 Branch Prediction Accuracy: 94.5902% MPKI: 13.9808 Average ROB Occupancy at Mispredict: 26.3774
Branch types
NOT_BRANCH: 148312417 74.1562%
BRANCH_DIRECT_JUMP: 5836928 2.91846%
BRANCH_INDIRECT: 0 0%
BRANCH_CONDITIONAL: 38055866 19.0279%
BRANCH_DIRECT_CALL: 3647058 1.82353%
BRANCH_INDIRECT_CALL: 250202 0.125101%
BRANCH_RETURN: 3897263 1.94863%
BRANCH_OTHER: 0 0%

DRAM PAGES: 1048576
Allocated PAGES: 80635
