
*** ChampSim Multicore Out-of-Order Simulator ***

Warmup Instructions: 50000000
Simulation Instructions: 200000000
Number of CPUs: 1
LLC sets: 2048
LLC ways: 16
Secure Berti: OFF
Berti: OFF
Berti Fill: OFF
On commit prefetching: OFF
L2 LLC Bypass speculative loads: OFF
Off-chip DRAM Size: 4096 MB Channels: 1 Width: 64-bit Data Rate: 6400 MT/s
CPU 0 runs /home/sumon/secure_berti/Berti_Baseline/../../traces/spec/605.mcf_s-665B.champsimtrace.xz
.xz
BTB has LRU replacement policy
ITLB has LRU replacement policy
DTLB has LRU replacement policy
STLB has LRU replacement policy
L1I has LRU replacement policy
History Sets: 8
History Ways: 16
BERTI Size: 16
BERTI Stride Size: 16
L1D has LRU replacement policy
L2C has LRU replacement policy
LLC has LRU replacement policy
Heartbeat CPU 0 instructions: 10000000 cycles: 3309119 heartbeat IPC: 3.02195 cumulative IPC: 3.02195 (Simulation time: 0 hr 0 min 24 sec) 
Heartbeat CPU 0 instructions: 20000000 cycles: 6618837 heartbeat IPC: 3.02141 cumulative IPC: 3.02168 (Simulation time: 0 hr 0 min 47 sec) 
Heartbeat CPU 0 instructions: 30000002 cycles: 9922539 heartbeat IPC: 3.02691 cumulative IPC: 3.02342 (Simulation time: 0 hr 1 min 10 sec) 
Heartbeat CPU 0 instructions: 40000003 cycles: 13227766 heartbeat IPC: 3.02551 cumulative IPC: 3.02394 (Simulation time: 0 hr 1 min 34 sec) 
Heartbeat CPU 0 instructions: 50000002 cycles: 16528307 heartbeat IPC: 3.02981 cumulative IPC: 3.02511 (Simulation time: 0 hr 1 min 57 sec) 

Warmup complete CPU 0 instructions: 50000002 cycles: 16528307 (Simulation time: 0 hr 1 min 57 sec) 

Heartbeat CPU 0 instructions: 60000003 cycles: 51257434 heartbeat IPC: 0.287943 cumulative IPC: 0.287943 (Simulation time: 0 hr 2 min 27 sec) 
Heartbeat CPU 0 instructions: 70000003 cycles: 85835493 heartbeat IPC: 0.289201 cumulative IPC: 0.28857 (Simulation time: 0 hr 2 min 56 sec) 
Heartbeat CPU 0 instructions: 80000001 cycles: 120437883 heartbeat IPC: 0.288997 cumulative IPC: 0.288713 (Simulation time: 0 hr 3 min 26 sec) 
Heartbeat CPU 0 instructions: 90000002 cycles: 155966606 heartbeat IPC: 0.281462 cumulative IPC: 0.286865 (Simulation time: 0 hr 3 min 56 sec) 
Heartbeat CPU 0 instructions: 100000000 cycles: 190429989 heartbeat IPC: 0.290163 cumulative IPC: 0.287519 (Simulation time: 0 hr 4 min 25 sec) 
Heartbeat CPU 0 instructions: 110000000 cycles: 224931142 heartbeat IPC: 0.289845 cumulative IPC: 0.287904 (Simulation time: 0 hr 4 min 54 sec) 
Heartbeat CPU 0 instructions: 120000000 cycles: 259242523 heartbeat IPC: 0.291448 cumulative IPC: 0.288405 (Simulation time: 0 hr 5 min 23 sec) 
Heartbeat CPU 0 instructions: 130000000 cycles: 293505036 heartbeat IPC: 0.291864 cumulative IPC: 0.288833 (Simulation time: 0 hr 5 min 52 sec) 
Heartbeat CPU 0 instructions: 140000002 cycles: 328461719 heartbeat IPC: 0.286068 cumulative IPC: 0.288523 (Simulation time: 0 hr 6 min 21 sec) 
Heartbeat CPU 0 instructions: 150000000 cycles: 363250262 heartbeat IPC: 0.287451 cumulative IPC: 0.288416 (Simulation time: 0 hr 6 min 50 sec) 
Heartbeat CPU 0 instructions: 160000001 cycles: 397776373 heartbeat IPC: 0.289636 cumulative IPC: 0.288526 (Simulation time: 0 hr 7 min 19 sec) 
Heartbeat CPU 0 instructions: 170000003 cycles: 432775200 heartbeat IPC: 0.285724 cumulative IPC: 0.28829 (Simulation time: 0 hr 7 min 48 sec) 
Heartbeat CPU 0 instructions: 180000001 cycles: 467301880 heartbeat IPC: 0.289631 cumulative IPC: 0.288393 (Simulation time: 0 hr 8 min 17 sec) 
Heartbeat CPU 0 instructions: 190000002 cycles: 501841377 heartbeat IPC: 0.289524 cumulative IPC: 0.288474 (Simulation time: 0 hr 8 min 46 sec) 
Heartbeat CPU 0 instructions: 200000000 cycles: 536516370 heartbeat IPC: 0.288392 cumulative IPC: 0.288468 (Simulation time: 0 hr 9 min 15 sec) 
Heartbeat CPU 0 instructions: 210000000 cycles: 571086497 heartbeat IPC: 0.289267 cumulative IPC: 0.288518 (Simulation time: 0 hr 9 min 43 sec) 
Heartbeat CPU 0 instructions: 220000000 cycles: 605371612 heartbeat IPC: 0.291672 cumulative IPC: 0.288702 (Simulation time: 0 hr 10 min 12 sec) 
Heartbeat CPU 0 instructions: 230000000 cycles: 640682914 heartbeat IPC: 0.283195 cumulative IPC: 0.28839 (Simulation time: 0 hr 10 min 41 sec) 
Heartbeat CPU 0 instructions: 240000000 cycles: 674942876 heartbeat IPC: 0.291886 cumulative IPC: 0.288572 (Simulation time: 0 hr 11 min 9 sec) 
Heartbeat CPU 0 instructions: 250000002 cycles: 709425860 heartbeat IPC: 0.289998 cumulative IPC: 0.288643 (Simulation time: 0 hr 11 min 37 sec) 
Finished CPU 0 instructions: 200000000 cycles: 692897553 cumulative IPC: 0.288643 (Simulation time: 0 hr 11 min 37 sec) 

ChampSim completed all CPUs

Region of Interest Statistics

CPU 0 cumulative IPC: 0.288643 instructions: 200000000 cycles: 692897553
ITLB TOTAL     ACCESS:   36331489  HIT:   36331489  MISS:          0  HIT %:        100  MISS %:          0   MPKI: 0
ITLB Test counter:          0
ITLB LOAD TRANSLATION ACCESS:   36331489  HIT:   36331489  MISS:          0  HIT %:        100  MISS %:          0   MPKI: 0
ITLB PREFETCH  REQUESTED:          0  ISSUED:          0  USEFUL:          0  USELESS:          0
ITLB USEFUL LOAD PREFETCHES:          0 PREFETCH ISSUED TO LOWER LEVEL:          0  ACCURACY: -nan
ITLB TIMELY PREFETCHES:          0 LATE PREFETCHES: 0 DROPPED PREFETCHES: 0
ITLB COMMIT LATE PREFETCHES: 0 MISSED OPPORTUNITY: 0 LATE IN PQ: 0 UNCOVERED: 0
ITLB COMMIT LATE MSHR PREFETCHES: 0
ITLB MPKI TOTAL: 0 MSHR LATE: 0 PQ LATE: 0 COMMIT LATE: 0 MISSED OPPORTUNITY: 0 UNCOVERED: 0
ITLB PREFETCHES SAME FILL-ORIGIN LEVEL: 0 DIFFERENT FILL-ORIGIN LEVEL: 0
ITLB AVERAGE MISS LATENCY: -nan cycles
ITLB AVERAGE MISS LATENCY LOAD: -nan cycles
ITLB AVERAGE MISS LATENCY PREFETCH: -nan cycles
ITLB AVERAGE MSHR OCCUPANCY: 0
ITLB MSHR FULL: 0
ITLB RQ	ACCESS:   38036455	FORWARD:          0	MERGED:    1704967	TO_CACHE:   36331488

DTLB TOTAL     ACCESS:   62409645  HIT:   59414155  MISS:    2995490  HIT %:    95.2003  MISS %:    4.79972   MPKI: 14.9774
DTLB Test counter:          0
DTLB LOAD TRANSLATION ACCESS:   62409645  HIT:   59414155  MISS:    2995490  HIT %:    95.2003  MISS %:    4.79972   MPKI: 14.9774
DTLB PREFETCH  REQUESTED:          0  ISSUED:          0  USEFUL:          0  USELESS:          0
DTLB USEFUL LOAD PREFETCHES:          0 PREFETCH ISSUED TO LOWER LEVEL:          0  ACCURACY: -nan
DTLB TIMELY PREFETCHES:          0 LATE PREFETCHES: 0 DROPPED PREFETCHES: 0
DTLB COMMIT LATE PREFETCHES: 0 MISSED OPPORTUNITY: 0 LATE IN PQ: 0 UNCOVERED: 0
DTLB COMMIT LATE MSHR PREFETCHES: 0
DTLB MPKI TOTAL: 0 MSHR LATE: 0 PQ LATE: 0 COMMIT LATE: 0 MISSED OPPORTUNITY: 0 UNCOVERED: 0
DTLB PREFETCHES SAME FILL-ORIGIN LEVEL: 0 DIFFERENT FILL-ORIGIN LEVEL: 0
DTLB AVERAGE MISS LATENCY: 10.5522 cycles
DTLB AVERAGE MISS LATENCY LOAD: -nan cycles
DTLB AVERAGE MISS LATENCY PREFETCH: -nan cycles
DTLB AVERAGE MSHR OCCUPANCY: 0.0276784
DTLB MSHR FULL: 0
DTLB RQ	ACCESS:   76008130	FORWARD:          0	MERGED:   13225412	TO_CACHE:   62782718

STLB TOTAL     ACCESS:    9524144  HIT:    9482070  MISS:      42074  HIT %:    99.5582  MISS %:   0.441761   MPKI: 0.21037
STLB Test counter:          0
STLB LOAD TRANSLATION ACCESS:    2995490  HIT:    2953564  MISS:      41926  HIT %:    98.6004  MISS %:    1.39964   MPKI: 0.20963
STLB TRANSLATION FROM L1D PREFETCHER ACCESS:    6528654  HIT:    6528506  MISS:        148  HIT %:    99.9977  MISS %: 0.00226693   MPKI: 0.00074
STLB PREFETCH  REQUESTED:          0  ISSUED:          0  USEFUL:        110  USELESS:         38
STLB USEFUL LOAD PREFETCHES:        110 PREFETCH ISSUED TO LOWER LEVEL:          0  ACCURACY: inf
STLB TIMELY PREFETCHES:        110 LATE PREFETCHES: 7422 DROPPED PREFETCHES: 664940
STLB COMMIT LATE PREFETCHES: 0 MISSED OPPORTUNITY: 0 LATE IN PQ: 0 UNCOVERED: 0
STLB COMMIT LATE MSHR PREFETCHES: 0
STLB MPKI TOTAL: 0 MSHR LATE: 0.03711 PQ LATE: 0 COMMIT LATE: 0 MISSED OPPORTUNITY: 0 UNCOVERED: 0
STLB PREFETCHES SAME FILL-ORIGIN LEVEL: 0 DIFFERENT FILL-ORIGIN LEVEL: 0
STLB AVERAGE MISS LATENCY: 93.7846 cycles
STLB AVERAGE MISS LATENCY LOAD: -nan cycles
STLB AVERAGE MISS LATENCY PREFETCH: -nan cycles
STLB AVERAGE MSHR OCCUPANCY: 0.134511
STLB MSHR FULL: 0
STLB RQ	ACCESS:   33039177	FORWARD:          0	MERGED:   22815247	TO_CACHE:   10223930

STLB Hit, L1D data hit: 0
STLB Hit, L2C data hit: 0
STLB Hit, LLC data hit: 0
STLB Hit, LLC data miss: 0
STLB STLB hints to L2: 0
L1D TOTAL     ACCESS:   98373503  HIT:   91389246  MISS:    6984257  HIT %:    92.9003  MISS %:    7.09973   MPKI: 34.9213
L1D Test counter:          0
L1D LOAD      ACCESS:   52389999  HIT:   47565495  MISS:    4861160  HIT %:    90.7912  MISS %:    9.20883   MPKI: 24.1225
L1D RFO       ACCESS:   22310998  HIT:   21556554  MISS:     754444  HIT %:    96.6185  MISS %:    3.38149   MPKI: 3.77222
L1D PREFETCH  ACCESS:   23672506  HIT:   22267197  MISS:    1405309  HIT %:    94.0635  MISS %:    5.93646   MPKI: 7.02654
L1D PREFETCH  REQUESTED:   64945396  ISSUED:   62249696  USEFUL:    1397117  USELESS:       8191
L1D USEFUL LOAD PREFETCHES:    1397117 PREFETCH ISSUED TO LOWER LEVEL:    4829630  ACCURACY: 28.928
L1D TIMELY PREFETCHES:    1397117 LATE PREFETCHES: 39659 DROPPED PREFETCHES: 2038446
L1D COMMIT LATE PREFETCHES: 0 MISSED OPPORTUNITY: 0 LATE IN PQ: 31409 UNCOVERED: 0
L1D COMMIT LATE MSHR PREFETCHES: 0
L1D MPKI TOTAL: 24.3058 MSHR LATE: 0.198295 PQ LATE: 0.157045 COMMIT LATE: 0 MISSED OPPORTUNITY: 0 UNCOVERED: 0
L1D PREFETCHES SAME FILL-ORIGIN LEVEL: 1444968 DIFFERENT FILL-ORIGIN LEVEL: 3384662
L1D AVERAGE MISS LATENCY: 70.0439 cycles
L1D AVERAGE MISS LATENCY LOAD: 57.002 cycles
L1D AVERAGE MISS LATENCY PREFETCH: 136.948 cycles
L1D AVERAGE MSHR OCCUPANCY: 0.443246
L1D MSHR FULL: 0.00777113
L1D RQ	ACCESS:   67187268	FORWARD:          0	MERGED:   12475388	TO_CACHE:   52426656
L1D WQ	ACCESS:   23674381	FORWARD:    2299870	MERGED:      92907	TO_CACHE:   23581474
L1D PQ	ACCESS:   32206009	FORWARD:          0	MERGED:    2147676	TO_CACHE:   30043687

L1D UNIQUE REGIONS ACCESSED: 0
L1D REGIONS CONFLICTS: 0
L1D Cross Page Prefetch Requests: 4721566
L1D Same Page Prefetch Requests: 36768865
L1D ROI Sum of L1D PQ occupancy: 511409403
L1D PREFETCHES PUSHED FROM L2C: 0
403d20: 1
4060db: 1
403e42: 1
403d17: 2
403db8: 3
403d44: 4
403d76: 6
403d28: 8
403d6c: 8
403ce0: 9
4044d5: 10
403d86: 12
404610: 16
403d13: 23
403d8d: 25
4048cd: 25
4074f3: 27
403e6d: 28
4045e1: 34
403ed7: 38
403ea0: 39
404684: 39
403f18: 41
403ca9: 45
404648: 47
403cf4: 55
407506: 58
404652: 62
403f28: 68
403e76: 68
405d03: 68
404629: 71
403d4d: 71
4084b0: 80
4044b7: 91
4046c8: 106
40459f: 272
4045db: 309
404ce8: 311
40465d: 311
404ce3: 311
404cda: 311
4048a0: 311
4045bd: 311
4044fc: 311
4044bf: 311
4084b4: 329
405ccd: 447
405f7b: 606
4048a6: 640
4084b8: 651
403f02: 801
4084af: 848
404fc0: 1016
405d41: 1087
4048e0: 1518
405d23: 1643
4048b8: 2029
4048bf: 2289
404097: 2488
403ef3: 2620
403eb0: 2764
404a14: 3067
403cc6: 3438
403ce9: 3515
403ee8: 4466
403e54: 5618
403e50: 5637
4048aa: 6786
4049d6: 7233
404076: 7923
40409b: 8012
4048b1: 8336
4048c3: 8501
404823: 10641
404826: 10943
403eb4: 11092
403cc0: 13604
403e9a: 13780
4048bc: 15509
4048b4: 18374
403e64: 19295
403e60: 19955
403e90: 22575
403eec: 22871
403ee2: 29394
404841: 38090
403e94: 42603
4049cc: 77731
404844: 94738
404820: 128393
40483c: 157980
40483f: 401414
4049de: 1155592
4049e5: 1203014
40482f: 1218249
L1I TOTAL     ACCESS:   38036456  HIT:   38036454  MISS:          2  HIT %:        100  MISS %: 5.25811e-06   MPKI: 1e-05
L1I Test counter:          0
L1I LOAD      ACCESS:   38036456  HIT:   38036454  MISS:          2  HIT %:        100  MISS %: 5.25811e-06   MPKI: 1e-05
L1I PREFETCH  REQUESTED:          0  ISSUED:          0  USEFUL:          0  USELESS:          0
L1I USEFUL LOAD PREFETCHES:          0 PREFETCH ISSUED TO LOWER LEVEL:          0  ACCURACY: -nan
L1I TIMELY PREFETCHES:          0 LATE PREFETCHES: 0 DROPPED PREFETCHES: 0
L1I COMMIT LATE PREFETCHES: 0 MISSED OPPORTUNITY: 0 LATE IN PQ: 0 UNCOVERED: 0
L1I COMMIT LATE MSHR PREFETCHES: 0
L1I MPKI TOTAL: 1e-05 MSHR LATE: 0 PQ LATE: 0 COMMIT LATE: 0 MISSED OPPORTUNITY: 0 UNCOVERED: 0
L1I PREFETCHES SAME FILL-ORIGIN LEVEL: 0 DIFFERENT FILL-ORIGIN LEVEL: 0
L1I AVERAGE MISS LATENCY: 214 cycles
L1I AVERAGE MISS LATENCY LOAD: 214 cycles
L1I AVERAGE MISS LATENCY PREFETCH: -nan cycles
L1I AVERAGE MSHR OCCUPANCY: 2.62906e-08
L1I MSHR FULL: 0
L1I RQ	ACCESS:   61787946	FORWARD:          0	MERGED:   23751491	TO_CACHE:   38036455

403e02: 1
403dc3: 1
BTB TOTAL     ACCESS:   47317451  HIT:   44887025  MISS:    2430426  HIT %:    94.8636  MISS %:    5.13643   MPKI: 12.1521
BTB Test counter:          0
BTB BRANCH_DIRECT_JUMP	ACCESS:    5163667  HIT:    5163630  MISS:         37
BTB BRANCH_INDIRECT	ACCESS:          0  HIT:          0  MISS:          0
BTB BRANCH_CONDITIONAL	ACCESS:   31033862  HIT:   31033783  MISS:         79
BTB BRANCH_DIRECT_CALL	ACCESS:    5259752  HIT:    5259734  MISS:         18
BTB BRANCH_INDIRECT_CALL	ACCESS:     300210  HIT:     300202  MISS:          8
BTB BRANCH_RETURN	ACCESS:    5559960  HIT:    3129676  MISS:    2430284
BTB BRANCH_OTHER ACCESS:          0  HIT:          0  MISS:          0

L2C TOTAL     ACCESS:   11962278  HIT:    7401153  MISS:    4561125  HIT %:    61.8708  MISS %:    38.1292   MPKI: 22.8056
L2C Test counter:          0
L2C LOAD      ACCESS:    4784829  HIT:    2197352  MISS:    2587477  HIT %:    45.9233  MISS %:    54.0767   MPKI: 12.9374
L2C DATA LOAD MPKI: 12.9374
L2C INSTRUCTION LOAD MPKI: 1e-05
L2C RFO       ACCESS:     754436  HIT:     438352  MISS:     316084  HIT %:    58.1033  MISS %:    41.8967   MPKI: 1.58042
L2C PREFETCH  ACCESS:    4670970  HIT:    3032438  MISS:    1638532  HIT %:    64.9209  MISS %:    35.0791   MPKI: 8.19266
L2C DATA PREFETCH MPKI: 8.19266
L2C INSTRUCTION PREFETCH MPKI: 0
L2C WRITEBACK ACCESS:    1036659  HIT:    1036058  MISS:        601  HIT %:     99.942  MISS %:  0.0579747   MPKI: 0.003005
L2C LOAD TRANSLATION ACCESS:      42222  HIT:      26901  MISS:      15321  HIT %:    63.7132  MISS %:    36.2868   MPKI: 0.076605
L2C TRANSLATION FROM L1D PREFETCHER ACCESS:     673162  HIT:     670052  MISS:       3110  HIT %:     99.538  MISS %:   0.461999   MPKI: 0.01555
L2C PREFETCH  REQUESTED:          0  ISSUED:          0  USEFUL:     399305  USELESS:    1242433
L2C USEFUL LOAD PREFETCHES:     399305 PREFETCH ISSUED TO LOWER LEVEL:    1640123  ACCURACY: 24.346
L2C TIMELY PREFETCHES:     399305 LATE PREFETCHES: 1591 DROPPED PREFETCHES: 0
L2C COMMIT LATE PREFETCHES: 0 MISSED OPPORTUNITY: 0 LATE IN PQ: 0 UNCOVERED: 0
L2C COMMIT LATE MSHR PREFETCHES: 0
L2C MPKI TOTAL: 12.9374 MSHR LATE: 0.007955 PQ LATE: 0 COMMIT LATE: 0 MISSED OPPORTUNITY: 0 UNCOVERED: 0
L2C PREFETCHES SAME FILL-ORIGIN LEVEL: 524520 DIFFERENT FILL-ORIGIN LEVEL: 0
L2C AVERAGE MISS LATENCY: 95.0889 cycles
L2C AVERAGE MISS LATENCY LOAD: 78.3104 cycles
L2C AVERAGE MISS LATENCY PREFETCH: 133.883 cycles
L2C AVERAGE MSHR OCCUPANCY: 1.60408
L2C MSHR FULL: 4.31678e-06
L2C RQ	ACCESS:    6254675	FORWARD:          0	MERGED:          0	TO_CACHE:    6254649
L2C WQ	ACCESS:    1036659	FORWARD:         31	MERGED:          0	TO_CACHE:    1036659
L2C PQ	ACCESS:    4829630	FORWARD:          0	MERGED:        112	TO_CACHE:    4829513

L2C Instructions Evicting Data 2
L2C Translations Evicting Data 18311
L2C Data Evicting Data 4523792
L2C Instructions Evicting Instructions 0
L2C Translations Evicting Instructions 0
L2C Data Evicting Instructions 2
L2C Instructions Evicting Translations 0
L2C Translations Evicting Translations 120
L2C Data Evicting Translations 18297
L2C Dense regions hint from L2: 0
4048a6: 1
4048a0: 1
403dc3: 1
403db8: 1
403cf4: 1
404076: 1
403d13: 1
403e02: 1
403ce0: 1
403d4d: 1
40459f: 21
4048cd: 24
4045e1: 28
4048aa: 32
403ca9: 37
403ed7: 38
403ea0: 39
403f18: 40
403e54: 40
403e50: 41
404a14: 51
404ce8: 73
403e64: 75
403e60: 79
404ce3: 101
4045db: 158
40465d: 311
4044bf: 311
4045bd: 311
4044fc: 311
404826: 384
4048b1: 627
403f02: 728
404823: 729
4048e0: 1408
4048b8: 1944
4048bf: 2154
403ef3: 2504
403eb0: 2757
4049d6: 3111
403ce9: 3372
403cc6: 3425
403ee8: 4451
4048b4: 5305
4048c3: 6098
404841: 6454
404820: 6967
403eb4: 10770
403e9a: 11852
403cc0: 13106
4048bc: 13929
403e90: 21260
403eec: 21382
40483c: 24859
403ee2: 26876
4049cc: 31937
404844: 39464
403e94: 39961
40482f: 101056
40483f: 158684
4049e5: 988001
4049de: 1029791
PSCL5 TOTAL     ACCESS:     714436  HIT:     714436  MISS:          0  HIT %:        100  MISS %:          0   MPKI: 0
PSCL5 Test counter:          0
PSCL5 LOAD TRANSLATION ACCESS:      41926  HIT:      41926  MISS:          0  HIT %:        100  MISS %:          0   MPKI: 0
PSCL5 TRANSLATION FROM L1D PREFETCHER ACCESS:     672510  HIT:     672510  MISS:          0  HIT %:        100  MISS %:          0   MPKI: 0
PSCL5 PREFETCH  REQUESTED:          0  ISSUED:          0  USEFUL:          0  USELESS:          0
PSCL5 USEFUL LOAD PREFETCHES:          0 PREFETCH ISSUED TO LOWER LEVEL:          0  ACCURACY: -nan
PSCL5 TIMELY PREFETCHES:          0 LATE PREFETCHES: 0 DROPPED PREFETCHES: 0
PSCL5 COMMIT LATE PREFETCHES: 0 MISSED OPPORTUNITY: 0 LATE IN PQ: 0 UNCOVERED: 0
PSCL5 COMMIT LATE MSHR PREFETCHES: 0
PSCL5 MPKI TOTAL: 0 MSHR LATE: 0 PQ LATE: 0 COMMIT LATE: 0 MISSED OPPORTUNITY: 0 UNCOVERED: 0
PSCL5 PREFETCHES SAME FILL-ORIGIN LEVEL: 0 DIFFERENT FILL-ORIGIN LEVEL: 0

PSCL4 TOTAL     ACCESS:     714436  HIT:     714436  MISS:          0  HIT %:        100  MISS %:          0   MPKI: 0
PSCL4 Test counter:          0
PSCL4 LOAD TRANSLATION ACCESS:      41926  HIT:      41926  MISS:          0  HIT %:        100  MISS %:          0   MPKI: 0
PSCL4 TRANSLATION FROM L1D PREFETCHER ACCESS:     672510  HIT:     672510  MISS:          0  HIT %:        100  MISS %:          0   MPKI: 0
PSCL4 PREFETCH  REQUESTED:          0  ISSUED:          0  USEFUL:          0  USELESS:          0
PSCL4 USEFUL LOAD PREFETCHES:          0 PREFETCH ISSUED TO LOWER LEVEL:          0  ACCURACY: -nan
PSCL4 TIMELY PREFETCHES:          0 LATE PREFETCHES: 0 DROPPED PREFETCHES: 0
PSCL4 COMMIT LATE PREFETCHES: 0 MISSED OPPORTUNITY: 0 LATE IN PQ: 0 UNCOVERED: 0
PSCL4 COMMIT LATE MSHR PREFETCHES: 0
PSCL4 MPKI TOTAL: 0 MSHR LATE: 0 PQ LATE: 0 COMMIT LATE: 0 MISSED OPPORTUNITY: 0 UNCOVERED: 0
PSCL4 PREFETCHES SAME FILL-ORIGIN LEVEL: 0 DIFFERENT FILL-ORIGIN LEVEL: 0

PSCL3 TOTAL     ACCESS:     714436  HIT:     714436  MISS:          0  HIT %:        100  MISS %:          0   MPKI: 0
PSCL3 Test counter:          0
PSCL3 LOAD TRANSLATION ACCESS:      41926  HIT:      41926  MISS:          0  HIT %:        100  MISS %:          0   MPKI: 0
PSCL3 TRANSLATION FROM L1D PREFETCHER ACCESS:     672510  HIT:     672510  MISS:          0  HIT %:        100  MISS %:          0   MPKI: 0
PSCL3 PREFETCH  REQUESTED:          0  ISSUED:          0  USEFUL:          0  USELESS:          0
PSCL3 USEFUL LOAD PREFETCHES:          0 PREFETCH ISSUED TO LOWER LEVEL:          0  ACCURACY: -nan
PSCL3 TIMELY PREFETCHES:          0 LATE PREFETCHES: 0 DROPPED PREFETCHES: 0
PSCL3 COMMIT LATE PREFETCHES: 0 MISSED OPPORTUNITY: 0 LATE IN PQ: 0 UNCOVERED: 0
PSCL3 COMMIT LATE MSHR PREFETCHES: 0
PSCL3 MPKI TOTAL: 0 MSHR LATE: 0 PQ LATE: 0 COMMIT LATE: 0 MISSED OPPORTUNITY: 0 UNCOVERED: 0
PSCL3 PREFETCHES SAME FILL-ORIGIN LEVEL: 0 DIFFERENT FILL-ORIGIN LEVEL: 0

PSCL2 TOTAL     ACCESS:     712131  HIT:     711631  MISS:        500  HIT %:    99.9298  MISS %:  0.0702118   MPKI: 0.0025
PSCL2 Test counter:          0
PSCL2 LOAD TRANSLATION ACCESS:      41928  HIT:      41428  MISS:        500  HIT %:    98.8075  MISS %:    1.19252   MPKI: 0.0025
PSCL2 TRANSLATION FROM L1D PREFETCHER ACCESS:     670203  HIT:     670203  MISS:          0  HIT %:        100  MISS %:          0   MPKI: 0
PSCL2 PREFETCH  REQUESTED:          0  ISSUED:          0  USEFUL:          0  USELESS:          0
PSCL2 USEFUL LOAD PREFETCHES:          0 PREFETCH ISSUED TO LOWER LEVEL:          0  ACCURACY: -nan
PSCL2 TIMELY PREFETCHES:          0 LATE PREFETCHES: 0 DROPPED PREFETCHES: 0
PSCL2 COMMIT LATE PREFETCHES: 0 MISSED OPPORTUNITY: 0 LATE IN PQ: 0 UNCOVERED: 0
PSCL2 COMMIT LATE MSHR PREFETCHES: 0
PSCL2 MPKI TOTAL: 0 MSHR LATE: 0 PQ LATE: 0 COMMIT LATE: 0 MISSED OPPORTUNITY: 0 UNCOVERED: 0
PSCL2 PREFETCHES SAME FILL-ORIGIN LEVEL: 0 DIFFERENT FILL-ORIGIN LEVEL: 0

LLC TOTAL     ACCESS:    5075031  HIT:    3008175  MISS:    2066856  HIT %:     59.274  MISS %:     40.726   MPKI: 10.3343
LLC Test counter:          0
LLC LOAD      ACCESS:    2585882  HIT:    1923173  MISS:     662709  HIT %:     74.372  MISS %:     25.628   MPKI: 3.31354
LLC RFO       ACCESS:     316070  HIT:     313227  MISS:       2843  HIT %:    99.1005  MISS %:   0.899484   MPKI: 0.014215
LLC PREFETCH  ACCESS:    1640122  HIT:     252742  MISS:    1387380  HIT %:      15.41  MISS %:      84.59   MPKI: 6.9369
LLC WRITEBACK ACCESS:     514526  HIT:     506069  MISS:       8457  HIT %:    98.3564  MISS %:    1.64365   MPKI: 0.042285
LLC LOAD TRANSLATION ACCESS:      15321  HIT:      12795  MISS:       2526  HIT %:    83.5128  MISS %:    16.4872   MPKI: 0.01263
LLC TRANSLATION FROM L1D PREFETCHER ACCESS:       3110  HIT:        169  MISS:       2941  HIT %:    5.43408  MISS %:    94.5659   MPKI: 0.014705
LLC PREFETCH  REQUESTED:          0  ISSUED:          0  USEFUL:     182678  USELESS:    1209297
LLC USEFUL LOAD PREFETCHES:     182678 PREFETCH ISSUED TO LOWER LEVEL:    1387380  ACCURACY: 13.1671
LLC TIMELY PREFETCHES:     182678 LATE PREFETCHES: 0 DROPPED PREFETCHES: 0
LLC COMMIT LATE PREFETCHES: 0 MISSED OPPORTUNITY: 0 LATE IN PQ: 0 UNCOVERED: 0
LLC COMMIT LATE MSHR PREFETCHES: 0
LLC MPKI TOTAL: 3.31354 MSHR LATE: 0 PQ LATE: 0 COMMIT LATE: 0 MISSED OPPORTUNITY: 0 UNCOVERED: 0
LLC PREFETCHES SAME FILL-ORIGIN LEVEL: 0 DIFFERENT FILL-ORIGIN LEVEL: 0
LLC AVERAGE MISS LATENCY: 143.239 cycles
LLC AVERAGE MISS LATENCY LOAD: 187.603 cycles
LLC AVERAGE MISS LATENCY PREFETCH: 122.705 cycles
LLC AVERAGE MSHR OCCUPANCY: 1.68605
LLC MSHR FULL: 0
LLC RQ	ACCESS:    2920401	FORWARD:          0	MERGED:          0	TO_CACHE:    2920383
LLC WQ	ACCESS:     514526	FORWARD:         19	MERGED:          0	TO_CACHE:     514526
LLC PQ	ACCESS:    1640123	FORWARD:          0	MERGED:          0	TO_CACHE:    1640122

LLC Dense regions hint to LLC: 0
4048e0: 1
404a14: 1
4048bf: 1
403dc3: 1
4048b1: 1
404826: 1
403e02: 1
404823: 1
404820: 2
4048bc: 4
404844: 5
404841: 5
40483f: 7
403f18: 13
40483c: 15
4048c3: 25
403ea0: 28
403ed7: 32
403f02: 138
40482f: 194
403ef3: 396
403eb0: 636
403ee8: 672
403e9a: 2047
403eb4: 2175
403eec: 2655
4049d6: 3076
403ee2: 3206
403ce9: 3336
403cc6: 3403
403e90: 4334
403e94: 5035
403cc0: 10305
4049cc: 31237
4049e5: 94103
4049de: 495617

RAW hits: 3098337
Loads Generated: 70285606
Loads sent to L1D: 67187268
Stores Generated: 23674352
Stores sent to L1D: 23674381
Major fault: 0 Minor fault: 30918
Allocated PAGES: 30918
Total Load insts: 82863532
Total Non-spec loads: 18974082
Percentage of speculative loads: 77.102
L1D response latency: 57.4744 cycles
Load retirement latency: 103.606 cycles

LATENCY_FILL: 57.769 4820816

DRAM Statistics
 CHANNEL 0
 RQ ROW_BUFFER_HIT:     967269  ROW_BUFFER_MISS:    1091123
 DBUS_CONGESTED:        359
 WQ ROW_BUFFER_HIT:       5196  ROW_BUFFER_MISS:      30857  FULL:          0

 AVG_CONGESTED_CYCLE: 4
 All warmup complete: 2
Channel 0 Bank busy for read cycles: 0
Channel 0 Bank busy for write cycles: 0
Channel 0
Rank 0
0banks busy for read cycles: 585007927
0banks busy for write cycles: 28976
1banks busy for read cycles: 51025899
1banks busy for write cycles: 4918680
2banks busy for read cycles: 24926736
2banks busy for write cycles: 594944
3banks busy for read cycles: 12094337
3banks busy for write cycles: 127096
4banks busy for read cycles: 5686830
4banks busy for write cycles: 48905
5banks busy for read cycles: 3016753
5banks busy for write cycles: 24840
6banks busy for read cycles: 2260950
6banks busy for write cycles: 12229
7banks busy for read cycles: 1415615
7banks busy for write cycles: 7058
8banks busy for read cycles: 1696946
8banks busy for write cycles: 2833

CPU 0 Branch Prediction Accuracy: 92.9349% MPKI: 17.4788 Average ROB Occupancy at Mispredict: 19.104
Branch types
NOT_BRANCH: 150520485 75.2602%
BRANCH_DIRECT_JUMP: 5163667 2.58183%
BRANCH_INDIRECT: 0 0%
BRANCH_CONDITIONAL: 33195560 16.5978%
BRANCH_DIRECT_CALL: 5259752 2.62988%
BRANCH_INDIRECT_CALL: 300210 0.150105%
BRANCH_RETURN: 5559960 2.77998%
BRANCH_OTHER: 0 0%

DRAM PAGES: 1048576
Allocated PAGES: 30918
