
*** ChampSim Multicore Out-of-Order Simulator ***

Warmup Instructions: 50000000
Simulation Instructions: 200000000
Number of CPUs: 1
LLC sets: 2048
LLC ways: 16
Secure Berti: OFF
Berti: OFF
Berti Fill: OFF
On commit prefetching: OFF
L2 LLC Bypass speculative loads: OFF
Off-chip DRAM Size: 4096 MB Channels: 1 Width: 64-bit Data Rate: 6400 MT/s
CPU 0 runs /home/sumon/secure_berti/Berti_Baseline/../../traces/spec/619.lbm_s-2676B.champsimtrace.xz
.xz
BTB has LRU replacement policy
ITLB has LRU replacement policy
DTLB has LRU replacement policy
STLB has LRU replacement policy
L1I has LRU replacement policy
History Sets: 8
History Ways: 16
BERTI Size: 16
BERTI Stride Size: 16
L1D has LRU replacement policy
L2C has LRU replacement policy
LLC has LRU replacement policy
Heartbeat CPU 0 instructions: 10000003 cycles: 2904824 heartbeat IPC: 3.44255 cumulative IPC: 3.44255 (Simulation time: 0 hr 0 min 21 sec) 
Heartbeat CPU 0 instructions: 20000003 cycles: 5803533 heartbeat IPC: 3.44981 cumulative IPC: 3.44618 (Simulation time: 0 hr 0 min 41 sec) 
Heartbeat CPU 0 instructions: 30000003 cycles: 8694781 heartbeat IPC: 3.45871 cumulative IPC: 3.45035 (Simulation time: 0 hr 1 min 1 sec) 
Heartbeat CPU 0 instructions: 40000002 cycles: 11571125 heartbeat IPC: 3.47664 cumulative IPC: 3.45688 (Simulation time: 0 hr 1 min 21 sec) 
Heartbeat CPU 0 instructions: 50000001 cycles: 14434080 heartbeat IPC: 3.49289 cumulative IPC: 3.46402 (Simulation time: 0 hr 1 min 41 sec) 

Warmup complete CPU 0 instructions: 50000001 cycles: 14434080 (Simulation time: 0 hr 1 min 41 sec) 

Heartbeat CPU 0 instructions: 60000001 cycles: 30338191 heartbeat IPC: 0.628768 cumulative IPC: 0.628768 (Simulation time: 0 hr 2 min 20 sec) 
Heartbeat CPU 0 instructions: 70000003 cycles: 45535773 heartbeat IPC: 0.658 cumulative IPC: 0.643052 (Simulation time: 0 hr 2 min 56 sec) 
Heartbeat CPU 0 instructions: 80000002 cycles: 59593312 heartbeat IPC: 0.711362 cumulative IPC: 0.664316 (Simulation time: 0 hr 3 min 30 sec) 
Heartbeat CPU 0 instructions: 90000001 cycles: 73700718 heartbeat IPC: 0.708847 cumulative IPC: 0.674916 (Simulation time: 0 hr 4 min 3 sec) 
Heartbeat CPU 0 instructions: 100000003 cycles: 86985107 heartbeat IPC: 0.752763 cumulative IPC: 0.68917 (Simulation time: 0 hr 4 min 35 sec) 
Heartbeat CPU 0 instructions: 110000000 cycles: 100050590 heartbeat IPC: 0.765375 cumulative IPC: 0.700799 (Simulation time: 0 hr 5 min 6 sec) 
Heartbeat CPU 0 instructions: 120000003 cycles: 112661979 heartbeat IPC: 0.792934 cumulative IPC: 0.712629 (Simulation time: 0 hr 5 min 36 sec) 
Heartbeat CPU 0 instructions: 130000002 cycles: 124807636 heartbeat IPC: 0.823339 cumulative IPC: 0.724811 (Simulation time: 0 hr 6 min 5 sec) 
Heartbeat CPU 0 instructions: 140000003 cycles: 136901442 heartbeat IPC: 0.82687 cumulative IPC: 0.73489 (Simulation time: 0 hr 6 min 34 sec) 
Heartbeat CPU 0 instructions: 150000003 cycles: 148549783 heartbeat IPC: 0.858491 cumulative IPC: 0.745625 (Simulation time: 0 hr 7 min 1 sec) 
Heartbeat CPU 0 instructions: 160000002 cycles: 159850748 heartbeat IPC: 0.88488 cumulative IPC: 0.756447 (Simulation time: 0 hr 7 min 28 sec) 
Heartbeat CPU 0 instructions: 170000003 cycles: 171088300 heartbeat IPC: 0.889874 cumulative IPC: 0.766018 (Simulation time: 0 hr 7 min 54 sec) 
Heartbeat CPU 0 instructions: 180000000 cycles: 182275902 heartbeat IPC: 0.893846 cumulative IPC: 0.774539 (Simulation time: 0 hr 8 min 20 sec) 
Heartbeat CPU 0 instructions: 190000000 cycles: 193230997 heartbeat IPC: 0.912817 cumulative IPC: 0.783011 (Simulation time: 0 hr 8 min 45 sec) 
Heartbeat CPU 0 instructions: 200000002 cycles: 204096734 heartbeat IPC: 0.920324 cumulative IPC: 0.790878 (Simulation time: 0 hr 9 min 10 sec) 
Heartbeat CPU 0 instructions: 210000000 cycles: 214792856 heartbeat IPC: 0.934918 cumulative IPC: 0.798567 (Simulation time: 0 hr 9 min 34 sec) 
Heartbeat CPU 0 instructions: 220000000 cycles: 225538530 heartbeat IPC: 0.930607 cumulative IPC: 0.805289 (Simulation time: 0 hr 9 min 59 sec) 
Heartbeat CPU 0 instructions: 230000002 cycles: 236094935 heartbeat IPC: 0.947292 cumulative IPC: 0.812051 (Simulation time: 0 hr 10 min 23 sec) 
Heartbeat CPU 0 instructions: 240000001 cycles: 246743073 heartbeat IPC: 0.939131 cumulative IPC: 0.817876 (Simulation time: 0 hr 10 min 47 sec) 
Heartbeat CPU 0 instructions: 250000002 cycles: 257293033 heartbeat IPC: 0.947871 cumulative IPC: 0.823523 (Simulation time: 0 hr 11 min 10 sec) 
Finished CPU 0 instructions: 200000001 cycles: 242858953 cumulative IPC: 0.823523 (Simulation time: 0 hr 11 min 10 sec) 

ChampSim completed all CPUs

Region of Interest Statistics

CPU 0 cumulative IPC: 0.823523 instructions: 200000001 cycles: 242858953
ITLB TOTAL     ACCESS:   26077171  HIT:   26077171  MISS:          0  HIT %:        100  MISS %:          0   MPKI: 0
ITLB Test counter:          0
ITLB LOAD TRANSLATION ACCESS:   26077171  HIT:   26077171  MISS:          0  HIT %:        100  MISS %:          0   MPKI: 0
ITLB PREFETCH  REQUESTED:          0  ISSUED:          0  USEFUL:          0  USELESS:          0
ITLB USEFUL LOAD PREFETCHES:          0 PREFETCH ISSUED TO LOWER LEVEL:          0  ACCURACY: -nan
ITLB TIMELY PREFETCHES:          0 LATE PREFETCHES: 0 DROPPED PREFETCHES: 0
ITLB COMMIT LATE PREFETCHES: 0 MISSED OPPORTUNITY: 0 LATE IN PQ: 0 UNCOVERED: 0
ITLB COMMIT LATE MSHR PREFETCHES: 0
ITLB MPKI TOTAL: 0 MSHR LATE: 0 PQ LATE: 0 COMMIT LATE: 0 MISSED OPPORTUNITY: 0 UNCOVERED: 0
ITLB PREFETCHES SAME FILL-ORIGIN LEVEL: 0 DIFFERENT FILL-ORIGIN LEVEL: 0
ITLB AVERAGE MISS LATENCY: -nan cycles
ITLB AVERAGE MISS LATENCY LOAD: -nan cycles
ITLB AVERAGE MISS LATENCY PREFETCH: -nan cycles
ITLB AVERAGE MSHR OCCUPANCY: 0
ITLB MSHR FULL: 0
ITLB RQ	ACCESS:   34073736	FORWARD:          0	MERGED:    7996566	TO_CACHE:   26077170

DTLB TOTAL     ACCESS:   36272055  HIT:   36118526  MISS:     153529  HIT %:    99.5767  MISS %:   0.423271   MPKI: 0.767645
DTLB Test counter:          0
DTLB LOAD TRANSLATION ACCESS:   36272055  HIT:   36118526  MISS:     153529  HIT %:    99.5767  MISS %:   0.423271   MPKI: 0.767645
DTLB PREFETCH  REQUESTED:          0  ISSUED:          0  USEFUL:          0  USELESS:          0
DTLB USEFUL LOAD PREFETCHES:          0 PREFETCH ISSUED TO LOWER LEVEL:          0  ACCURACY: -nan
DTLB TIMELY PREFETCHES:          0 LATE PREFETCHES: 0 DROPPED PREFETCHES: 0
DTLB COMMIT LATE PREFETCHES: 0 MISSED OPPORTUNITY: 0 LATE IN PQ: 0 UNCOVERED: 0
DTLB COMMIT LATE MSHR PREFETCHES: 0
DTLB MPKI TOTAL: 0 MSHR LATE: 0 PQ LATE: 0 COMMIT LATE: 0 MISSED OPPORTUNITY: 0 UNCOVERED: 0
DTLB PREFETCHES SAME FILL-ORIGIN LEVEL: 0 DIFFERENT FILL-ORIGIN LEVEL: 0
DTLB AVERAGE MISS LATENCY: 92.611 cycles
DTLB AVERAGE MISS LATENCY LOAD: -nan cycles
DTLB AVERAGE MISS LATENCY PREFETCH: -nan cycles
DTLB AVERAGE MSHR OCCUPANCY: 0.0437591
DTLB MSHR FULL: 0
DTLB RQ	ACCESS:   54071427	FORWARD:          0	MERGED:   17764160	TO_CACHE:   36307267

STLB TOTAL     ACCESS:    1201700  HIT:    1118407  MISS:      83293  HIT %:    93.0687  MISS %:    6.93126   MPKI: 0.416465
STLB Test counter:          0
STLB LOAD TRANSLATION ACCESS:     153529  HIT:      70236  MISS:      83293  HIT %:    45.7477  MISS %:    54.2523   MPKI: 0.416465
STLB TRANSLATION FROM L1D PREFETCHER ACCESS:    1048171  HIT:    1048171  MISS:          0  HIT %:        100  MISS %:          0   MPKI: 0
STLB PREFETCH  REQUESTED:          0  ISSUED:          0  USEFUL:          0  USELESS:          0
STLB USEFUL LOAD PREFETCHES:          0 PREFETCH ISSUED TO LOWER LEVEL:          0  ACCURACY: -nan
STLB TIMELY PREFETCHES:          0 LATE PREFETCHES: 895 DROPPED PREFETCHES: 532835
STLB COMMIT LATE PREFETCHES: 0 MISSED OPPORTUNITY: 0 LATE IN PQ: 0 UNCOVERED: 0
STLB COMMIT LATE MSHR PREFETCHES: 0
STLB MPKI TOTAL: 0 MSHR LATE: 0.004475 PQ LATE: 0 COMMIT LATE: 0 MISSED OPPORTUNITY: 0 UNCOVERED: 0
STLB PREFETCHES SAME FILL-ORIGIN LEVEL: 0 DIFFERENT FILL-ORIGIN LEVEL: 0
STLB AVERAGE MISS LATENCY: 150.152 cycles
STLB AVERAGE MISS LATENCY LOAD: -nan cycles
STLB AVERAGE MISS LATENCY PREFETCH: -nan cycles
STLB AVERAGE MSHR OCCUPANCY: 0.221877
STLB MSHR FULL: 0
STLB RQ	ACCESS:   11567612	FORWARD:          0	MERGED:    9771950	TO_CACHE:    1795662

STLB Hit, L1D data hit: 0
STLB Hit, L2C data hit: 0
STLB Hit, LLC data hit: 0
STLB Hit, LLC data miss: 0
STLB STLB hints to L2: 0
L1D TOTAL     ACCESS:   58308467  HIT:   49512181  MISS:    8796286  HIT %:    84.9142  MISS %:    15.0858   MPKI: 43.9814
L1D Test counter:          0
L1D LOAD      ACCESS:   23014550  HIT:   22476410  MISS:     673088  HIT %:    97.6617  MISS %:    2.33826   MPKI: 2.6907
L1D RFO       ACCESS:   30864106  HIT:   23402140  MISS:    7461966  HIT %:    75.8232  MISS %:    24.1768   MPKI: 37.3098
L1D PREFETCH  ACCESS:    4429811  HIT:    3633631  MISS:     796180  HIT %:    82.0268  MISS %:    17.9732   MPKI: 3.9809
L1D PREFETCH  REQUESTED:   27435324  ISSUED:   24287320  USEFUL:     794390  USELESS:       1792
L1D USEFUL LOAD PREFETCHES:     794390 PREFETCH ISSUED TO LOWER LEVEL:    5776724  ACCURACY: 13.7516
L1D TIMELY PREFETCHES:     794390 LATE PREFETCHES: 3167 DROPPED PREFETCHES: 1933534
L1D COMMIT LATE PREFETCHES: 0 MISSED OPPORTUNITY: 0 LATE IN PQ: 113551 UNCOVERED: 0
L1D COMMIT LATE MSHR PREFETCHES: 0
L1D MPKI TOTAL: 3.36544 MSHR LATE: 0.015835 PQ LATE: 0.567755 COMMIT LATE: 0 MISSED OPPORTUNITY: 0 UNCOVERED: 0
L1D PREFETCHES SAME FILL-ORIGIN LEVEL: 799455 DIFFERENT FILL-ORIGIN LEVEL: 4977269
L1D AVERAGE MISS LATENCY: 266.222 cycles
L1D AVERAGE MISS LATENCY LOAD: 149.267 cycles
L1D AVERAGE MISS LATENCY PREFETCH: 162.663 cycles
L1D AVERAGE MSHR OCCUPANCY: 13.6361
L1D MSHR FULL: 0.725865
L1D RQ	ACCESS:   46307928	FORWARD:          0	MERGED:   22128523	TO_CACHE:   23149498
L1D WQ	ACCESS:   31149766	FORWARD:    1029909	MERGED:     227837	TO_CACHE:   30921929
L1D PQ	ACCESS:   12873237	FORWARD:          0	MERGED:    1459152	TO_CACHE:   11414083

L1D UNIQUE REGIONS ACCESSED: 0
L1D REGIONS CONFLICTS: 0
L1D Cross Page Prefetch Requests: 3449510
L1D Same Page Prefetch Requests: 14519623
L1D ROI Sum of L1D PQ occupancy: 755120236
L1D PREFETCHES PUSHED FROM L2C: 0
402058: 1
402065: 4
40208c: 13
40206d: 13
4023cc: 17
401e02: 36376
401e33: 41650
401cdb: 48060
401e67: 48481
401d14: 64700
401d43: 106314
401cb0: 192511
L1I TOTAL     ACCESS:   34073735  HIT:   34073735  MISS:          0  HIT %:        100  MISS %:          0   MPKI: 0
L1I Test counter:          0
L1I LOAD      ACCESS:   34073735  HIT:   34073735  MISS:          0  HIT %:        100  MISS %:          0   MPKI: 0
L1I PREFETCH  REQUESTED:          0  ISSUED:          0  USEFUL:          0  USELESS:          0
L1I USEFUL LOAD PREFETCHES:          0 PREFETCH ISSUED TO LOWER LEVEL:          0  ACCURACY: -nan
L1I TIMELY PREFETCHES:          0 LATE PREFETCHES: 0 DROPPED PREFETCHES: 0
L1I COMMIT LATE PREFETCHES: 0 MISSED OPPORTUNITY: 0 LATE IN PQ: 0 UNCOVERED: 0
L1I COMMIT LATE MSHR PREFETCHES: 0
L1I MPKI TOTAL: 0 MSHR LATE: 0 PQ LATE: 0 COMMIT LATE: 0 MISSED OPPORTUNITY: 0 UNCOVERED: 0
L1I PREFETCHES SAME FILL-ORIGIN LEVEL: 0 DIFFERENT FILL-ORIGIN LEVEL: 0
L1I AVERAGE MISS LATENCY: -nan cycles
L1I AVERAGE MISS LATENCY LOAD: -nan cycles
L1I AVERAGE MISS LATENCY PREFETCH: -nan cycles
L1I AVERAGE MSHR OCCUPANCY: 0
L1I MSHR FULL: 0
L1I RQ	ACCESS:   48120185	FORWARD:          0	MERGED:   14046449	TO_CACHE:   34073736

BTB TOTAL     ACCESS:    2423394  HIT:    2423388  MISS:          6  HIT %:    99.9998  MISS %: 0.000247587   MPKI: 3e-05
BTB Test counter:          0
BTB BRANCH_DIRECT_JUMP	ACCESS:     120779  HIT:     120778  MISS:          1
BTB BRANCH_INDIRECT	ACCESS:          0  HIT:          0  MISS:          0
BTB BRANCH_CONDITIONAL	ACCESS:    2302615  HIT:    2302610  MISS:          5
BTB BRANCH_DIRECT_CALL	ACCESS:          0  HIT:          0  MISS:          0
BTB BRANCH_INDIRECT_CALL	ACCESS:          0  HIT:          0  MISS:          0
BTB BRANCH_RETURN	ACCESS:          0  HIT:          0  MISS:          0
BTB BRANCH_OTHER ACCESS:          0  HIT:          0  MISS:          0

L2C TOTAL     ACCESS:   21592185  HIT:   16185205  MISS:    5406980  HIT %:    74.9586  MISS %:    25.0414   MPKI: 27.0349
L2C Test counter:          0
L2C LOAD      ACCESS:     534973  HIT:     401852  MISS:     133121  HIT %:    75.1163  MISS %:    24.8837   MPKI: 0.665605
L2C DATA LOAD MPKI: 0.665605
L2C INSTRUCTION LOAD MPKI: 0
L2C RFO       ACCESS:    7461966  HIT:    3399315  MISS:    4062651  HIT %:    45.5552  MISS %:    54.4448   MPKI: 20.3133
L2C PREFETCH  ACCESS:    5516094  HIT:    4315526  MISS:    1200568  HIT %:    78.2352  MISS %:    21.7648   MPKI: 6.00284
L2C DATA PREFETCH MPKI: 6.00284
L2C INSTRUCTION PREFETCH MPKI: 0
L2C WRITEBACK ACCESS:    7461966  HIT:    7461891  MISS:         75  HIT %:     99.999  MISS %:  0.0010051   MPKI: 0.000375
L2C LOAD TRANSLATION ACCESS:      83295  HIT:      75431  MISS:       7864  HIT %:    90.5589  MISS %:    9.44114   MPKI: 0.03932
L2C TRANSLATION FROM L1D PREFETCHER ACCESS:     533891  HIT:     531190  MISS:       2701  HIT %:    99.4941  MISS %:   0.505909   MPKI: 0.013505
L2C PREFETCH  REQUESTED:          0  ISSUED:          0  USEFUL:     404531  USELESS:     798801
L2C USEFUL LOAD PREFETCHES:     404531 PREFETCH ISSUED TO LOWER LEVEL:    1217342  ACCURACY: 33.2307
L2C TIMELY PREFETCHES:     404531 LATE PREFETCHES: 16774 DROPPED PREFETCHES: 0
L2C COMMIT LATE PREFETCHES: 0 MISSED OPPORTUNITY: 0 LATE IN PQ: 0 UNCOVERED: 0
L2C COMMIT LATE MSHR PREFETCHES: 0
L2C MPKI TOTAL: 0.665605 MSHR LATE: 0.08387 PQ LATE: 0 COMMIT LATE: 0 MISSED OPPORTUNITY: 0 UNCOVERED: 0
L2C PREFETCHES SAME FILL-ORIGIN LEVEL: 950476 DIFFERENT FILL-ORIGIN LEVEL: 0
L2C AVERAGE MISS LATENCY: 503.328 cycles
L2C AVERAGE MISS LATENCY LOAD: 542.294 cycles
L2C AVERAGE MISS LATENCY PREFETCH: 523.796 cycles
L2C AVERAGE MSHR OCCUPANCY: 10.2676
L2C MSHR FULL: 0.00679039
L2C RQ	ACCESS:    8614136	FORWARD:          0	MERGED:          0	TO_CACHE:    8614136
L2C WQ	ACCESS:    7461966	FORWARD:          0	MERGED:          0	TO_CACHE:    7461966
L2C PQ	ACCESS:    5757489	FORWARD:          0	MERGED:        572	TO_CACHE:    5756917

L2C Instructions Evicting Data 0
L2C Translations Evicting Data 10473
L2C Data Evicting Data 5385886
L2C Instructions Evicting Instructions 0
L2C Translations Evicting Instructions 0
L2C Data Evicting Instructions 0
L2C Instructions Evicting Translations 0
L2C Translations Evicting Translations 92
L2C Data Evicting Translations 10454
L2C Dense regions hint from L2: 0
402058: 1
402065: 4
40208c: 12
40206d: 13
4023cc: 16
401d43: 8870
401e02: 10039
401e67: 11646
401cdb: 12079
401e33: 16144
401d14: 19030
401cb0: 55267
PSCL5 TOTAL     ACCESS:     617023  HIT:     617023  MISS:          0  HIT %:        100  MISS %:          0   MPKI: 0
PSCL5 Test counter:          0
PSCL5 LOAD TRANSLATION ACCESS:      83293  HIT:      83293  MISS:          0  HIT %:        100  MISS %:          0   MPKI: 0
PSCL5 TRANSLATION FROM L1D PREFETCHER ACCESS:     533730  HIT:     533730  MISS:          0  HIT %:        100  MISS %:          0   MPKI: 0
PSCL5 PREFETCH  REQUESTED:          0  ISSUED:          0  USEFUL:          0  USELESS:          0
PSCL5 USEFUL LOAD PREFETCHES:          0 PREFETCH ISSUED TO LOWER LEVEL:          0  ACCURACY: -nan
PSCL5 TIMELY PREFETCHES:          0 LATE PREFETCHES: 0 DROPPED PREFETCHES: 0
PSCL5 COMMIT LATE PREFETCHES: 0 MISSED OPPORTUNITY: 0 LATE IN PQ: 0 UNCOVERED: 0
PSCL5 COMMIT LATE MSHR PREFETCHES: 0
PSCL5 MPKI TOTAL: 0 MSHR LATE: 0 PQ LATE: 0 COMMIT LATE: 0 MISSED OPPORTUNITY: 0 UNCOVERED: 0
PSCL5 PREFETCHES SAME FILL-ORIGIN LEVEL: 0 DIFFERENT FILL-ORIGIN LEVEL: 0

PSCL4 TOTAL     ACCESS:     617023  HIT:     617023  MISS:          0  HIT %:        100  MISS %:          0   MPKI: 0
PSCL4 Test counter:          0
PSCL4 LOAD TRANSLATION ACCESS:      83293  HIT:      83293  MISS:          0  HIT %:        100  MISS %:          0   MPKI: 0
PSCL4 TRANSLATION FROM L1D PREFETCHER ACCESS:     533730  HIT:     533730  MISS:          0  HIT %:        100  MISS %:          0   MPKI: 0
PSCL4 PREFETCH  REQUESTED:          0  ISSUED:          0  USEFUL:          0  USELESS:          0
PSCL4 USEFUL LOAD PREFETCHES:          0 PREFETCH ISSUED TO LOWER LEVEL:          0  ACCURACY: -nan
PSCL4 TIMELY PREFETCHES:          0 LATE PREFETCHES: 0 DROPPED PREFETCHES: 0
PSCL4 COMMIT LATE PREFETCHES: 0 MISSED OPPORTUNITY: 0 LATE IN PQ: 0 UNCOVERED: 0
PSCL4 COMMIT LATE MSHR PREFETCHES: 0
PSCL4 MPKI TOTAL: 0 MSHR LATE: 0 PQ LATE: 0 COMMIT LATE: 0 MISSED OPPORTUNITY: 0 UNCOVERED: 0
PSCL4 PREFETCHES SAME FILL-ORIGIN LEVEL: 0 DIFFERENT FILL-ORIGIN LEVEL: 0

PSCL3 TOTAL     ACCESS:     617023  HIT:     617023  MISS:          0  HIT %:        100  MISS %:          0   MPKI: 0
PSCL3 Test counter:          0
PSCL3 LOAD TRANSLATION ACCESS:      83293  HIT:      83293  MISS:          0  HIT %:        100  MISS %:          0   MPKI: 0
PSCL3 TRANSLATION FROM L1D PREFETCHER ACCESS:     533730  HIT:     533730  MISS:          0  HIT %:        100  MISS %:          0   MPKI: 0
PSCL3 PREFETCH  REQUESTED:          0  ISSUED:          0  USEFUL:          0  USELESS:          0
PSCL3 USEFUL LOAD PREFETCHES:          0 PREFETCH ISSUED TO LOWER LEVEL:          0  ACCURACY: -nan
PSCL3 TIMELY PREFETCHES:          0 LATE PREFETCHES: 0 DROPPED PREFETCHES: 0
PSCL3 COMMIT LATE PREFETCHES: 0 MISSED OPPORTUNITY: 0 LATE IN PQ: 0 UNCOVERED: 0
PSCL3 COMMIT LATE MSHR PREFETCHES: 0
PSCL3 MPKI TOTAL: 0 MSHR LATE: 0 PQ LATE: 0 COMMIT LATE: 0 MISSED OPPORTUNITY: 0 UNCOVERED: 0
PSCL3 PREFETCHES SAME FILL-ORIGIN LEVEL: 0 DIFFERENT FILL-ORIGIN LEVEL: 0

PSCL2 TOTAL     ACCESS:     614509  HIT:     614426  MISS:         83  HIT %:    99.9865  MISS %:  0.0135067   MPKI: 0.000415
PSCL2 Test counter:          0
PSCL2 LOAD TRANSLATION ACCESS:      83293  HIT:      83210  MISS:         83  HIT %:    99.9004  MISS %:  0.0996482   MPKI: 0.000415
PSCL2 TRANSLATION FROM L1D PREFETCHER ACCESS:     531216  HIT:     531216  MISS:          0  HIT %:        100  MISS %:          0   MPKI: 0
PSCL2 PREFETCH  REQUESTED:          0  ISSUED:          0  USEFUL:          0  USELESS:          0
PSCL2 USEFUL LOAD PREFETCHES:          0 PREFETCH ISSUED TO LOWER LEVEL:          0  ACCURACY: -nan
PSCL2 TIMELY PREFETCHES:          0 LATE PREFETCHES: 0 DROPPED PREFETCHES: 0
PSCL2 COMMIT LATE PREFETCHES: 0 MISSED OPPORTUNITY: 0 LATE IN PQ: 0 UNCOVERED: 0
PSCL2 COMMIT LATE MSHR PREFETCHES: 0
PSCL2 MPKI TOTAL: 0 MSHR LATE: 0 PQ LATE: 0 COMMIT LATE: 0 MISSED OPPORTUNITY: 0 UNCOVERED: 0
PSCL2 PREFETCHES SAME FILL-ORIGIN LEVEL: 0 DIFFERENT FILL-ORIGIN LEVEL: 0

LLC TOTAL     ACCESS:    9470729  HIT:    4129656  MISS:    5341073  HIT %:    43.6044  MISS %:    56.3956   MPKI: 26.7054
LLC Test counter:          0
LLC LOAD      ACCESS:     116347  HIT:          2  MISS:     116345  HIT %:   0.001719  MISS %:    99.9983   MPKI: 0.581725
LLC RFO       ACCESS:    4062645  HIT:      65208  MISS:    3997437  HIT %:    1.60506  MISS %:    98.3949   MPKI: 19.9872
LLC PREFETCH  ACCESS:    1217342  HIT:        643  MISS:    1216699  HIT %:    0.05282  MISS %:    99.9472   MPKI: 6.08349
LLC WRITEBACK ACCESS:    4063830  HIT:    4063758  MISS:         72  HIT %:    99.9982  MISS %: 0.00177173   MPKI: 0.00036
LLC LOAD TRANSLATION ACCESS:       7864  HIT:          0  MISS:       7864  HIT %:          0  MISS %:        100   MPKI: 0.03932
LLC TRANSLATION FROM L1D PREFETCHER ACCESS:       2701  HIT:         45  MISS:       2656  HIT %:    1.66605  MISS %:     98.334   MPKI: 0.01328
LLC PREFETCH  REQUESTED:          0  ISSUED:          0  USEFUL:         41  USELESS:    1219595
LLC USEFUL LOAD PREFETCHES:         41 PREFETCH ISSUED TO LOWER LEVEL:    1216699  ACCURACY: 0.00336977
LLC TIMELY PREFETCHES:         41 LATE PREFETCHES: 0 DROPPED PREFETCHES: 0
LLC COMMIT LATE PREFETCHES: 0 MISSED OPPORTUNITY: 0 LATE IN PQ: 0 UNCOVERED: 0
LLC COMMIT LATE MSHR PREFETCHES: 0
LLC MPKI TOTAL: 0.581725 MSHR LATE: 0 PQ LATE: 0 COMMIT LATE: 0 MISSED OPPORTUNITY: 0 UNCOVERED: 0
LLC PREFETCHES SAME FILL-ORIGIN LEVEL: 0 DIFFERENT FILL-ORIGIN LEVEL: 0
LLC AVERAGE MISS LATENCY: 480.471 cycles
LLC AVERAGE MISS LATENCY LOAD: 532.392 cycles
LLC AVERAGE MISS LATENCY PREFETCH: 500.534 cycles
LLC AVERAGE MSHR OCCUPANCY: 9.34087
LLC MSHR FULL: 0
LLC RQ	ACCESS:    4189574	FORWARD:          0	MERGED:          0	TO_CACHE:    4189568
LLC WQ	ACCESS:    4063830	FORWARD:          6	MERGED:          0	TO_CACHE:    4063830
LLC PQ	ACCESS:    1217342	FORWARD:          0	MERGED:          0	TO_CACHE:    1217342

LLC Dense regions hint to LLC: 0
402058: 1
402065: 4
40208c: 11
40206d: 13
4023cc: 15
401d43: 8054
401e02: 8923
401e67: 9379
401cdb: 11385
401e33: 13894
401d14: 16407
401cb0: 48259

RAW hits: 1451166
Loads Generated: 47759094
Loads sent to L1D: 46307928
Stores Generated: 31149747
Stores sent to L1D: 31149766
Major fault: 0 Minor fault: 61402
Allocated PAGES: 61402
Total Load insts: 57533137
Total Non-spec loads: 4361557
Percentage of speculative loads: 92.4191
L1D response latency: 150.151 cycles
Load retirement latency: 483.303 cycles

LATENCY_FILL: 144.58 536860

DRAM Statistics
 CHANNEL 0
 RQ ROW_BUFFER_HIT:     498963  ROW_BUFFER_MISS:    4842038
 DBUS_CONGESTED:          1
 WQ ROW_BUFFER_HIT:     867079  ROW_BUFFER_MISS:    3130273  FULL:          0

 AVG_CONGESTED_CYCLE: 3
 All warmup complete: 2
Channel 0 Bank busy for read cycles: 0
Channel 0 Bank busy for write cycles: 0
Channel 0
Rank 0
0banks busy for read cycles: 86369
0banks busy for write cycles: 0
1banks busy for read cycles: 4583259
1banks busy for write cycles: 425226
2banks busy for read cycles: 9369475
2banks busy for write cycles: 425211
3banks busy for read cycles: 17383246
3banks busy for write cycles: 425199
4banks busy for read cycles: 16603742
4banks busy for write cycles: 425183
5banks busy for read cycles: 29760689
5banks busy for write cycles: 425159
6banks busy for read cycles: 27492375
6banks busy for write cycles: 426026
7banks busy for read cycles: 27069110
7banks busy for write cycles: 4439785
8banks busy for read cycles: 24721573
8banks busy for write cycles: 78797327

CPU 0 Branch Prediction Accuracy: 99.0972% MPKI: 0.10939 Average ROB Occupancy at Mispredict: 126.631
Branch types
NOT_BRANCH: 197576254 98.7881%
BRANCH_DIRECT_JUMP: 120779 0.0603895%
BRANCH_INDIRECT: 0 0%
BRANCH_CONDITIONAL: 2302625 1.15131%
BRANCH_DIRECT_CALL: 0 0%
BRANCH_INDIRECT_CALL: 0 0%
BRANCH_RETURN: 0 0%
BRANCH_OTHER: 0 0%

DRAM PAGES: 1048576
Allocated PAGES: 61402
