
*** ChampSim Multicore Out-of-Order Simulator ***

Warmup Instructions: 50000000
Simulation Instructions: 200000000
Number of CPUs: 1
LLC sets: 2048
LLC ways: 16
Secure Berti: OFF
Berti: OFF
Berti Fill: OFF
On commit prefetching: OFF
L2 LLC Bypass speculative loads: OFF
Off-chip DRAM Size: 4096 MB Channels: 1 Width: 64-bit Data Rate: 6400 MT/s
CPU 0 runs /home/sumon/secure_berti/Berti_Baseline/../../traces/spec/623.xalancbmk_s-202B.champsimtrace.xz
.xz
BTB has LRU replacement policy
ITLB has LRU replacement policy
DTLB has LRU replacement policy
STLB has LRU replacement policy
L1I has LRU replacement policy
History Sets: 8
History Ways: 16
BERTI Size: 16
BERTI Stride Size: 16
L1D has LRU replacement policy
L2C has LRU replacement policy
LLC has LRU replacement policy
Heartbeat CPU 0 instructions: 10000001 cycles: 2831206 heartbeat IPC: 3.53206 cumulative IPC: 3.53206 (Simulation time: 0 hr 0 min 20 sec) 
Heartbeat CPU 0 instructions: 20000002 cycles: 5664180 heartbeat IPC: 3.52986 cumulative IPC: 3.53096 (Simulation time: 0 hr 0 min 38 sec) 
Heartbeat CPU 0 instructions: 30000000 cycles: 8497296 heartbeat IPC: 3.52968 cumulative IPC: 3.53053 (Simulation time: 0 hr 0 min 57 sec) 
Heartbeat CPU 0 instructions: 40000001 cycles: 11326032 heartbeat IPC: 3.53515 cumulative IPC: 3.53169 (Simulation time: 0 hr 1 min 16 sec) 
Heartbeat CPU 0 instructions: 50000000 cycles: 14159754 heartbeat IPC: 3.52893 cumulative IPC: 3.53113 (Simulation time: 0 hr 1 min 35 sec) 

Warmup complete CPU 0 instructions: 50000004 cycles: 14159755 (Simulation time: 0 hr 1 min 35 sec) 

Heartbeat CPU 0 instructions: 60000002 cycles: 25574387 heartbeat IPC: 0.876069 cumulative IPC: 0.876068 (Simulation time: 0 hr 2 min 2 sec) 
Heartbeat CPU 0 instructions: 70000000 cycles: 37142094 heartbeat IPC: 0.864475 cumulative IPC: 0.870233 (Simulation time: 0 hr 2 min 28 sec) 
Heartbeat CPU 0 instructions: 80000000 cycles: 48719512 heartbeat IPC: 0.86375 cumulative IPC: 0.868062 (Simulation time: 0 hr 2 min 55 sec) 
Heartbeat CPU 0 instructions: 90000001 cycles: 60413172 heartbeat IPC: 0.855164 cumulative IPC: 0.864801 (Simulation time: 0 hr 3 min 22 sec) 
Heartbeat CPU 0 instructions: 100000000 cycles: 71833710 heartbeat IPC: 0.875615 cumulative IPC: 0.866942 (Simulation time: 0 hr 3 min 49 sec) 
Heartbeat CPU 0 instructions: 110000000 cycles: 83366209 heartbeat IPC: 0.867115 cumulative IPC: 0.866971 (Simulation time: 0 hr 4 min 16 sec) 
Heartbeat CPU 0 instructions: 120000002 cycles: 94827421 heartbeat IPC: 0.872508 cumulative IPC: 0.867758 (Simulation time: 0 hr 4 min 42 sec) 
Heartbeat CPU 0 instructions: 130000002 cycles: 106496024 heartbeat IPC: 0.857001 cumulative IPC: 0.866398 (Simulation time: 0 hr 5 min 9 sec) 
Heartbeat CPU 0 instructions: 140000001 cycles: 118148518 heartbeat IPC: 0.858185 cumulative IPC: 0.865478 (Simulation time: 0 hr 5 min 35 sec) 
Heartbeat CPU 0 instructions: 150000001 cycles: 129587513 heartbeat IPC: 0.874203 cumulative IPC: 0.866343 (Simulation time: 0 hr 6 min 1 sec) 
Heartbeat CPU 0 instructions: 160000000 cycles: 141264779 heartbeat IPC: 0.856365 cumulative IPC: 0.865426 (Simulation time: 0 hr 6 min 27 sec) 
Heartbeat CPU 0 instructions: 170000000 cycles: 152481160 heartbeat IPC: 0.891553 cumulative IPC: 0.867545 (Simulation time: 0 hr 6 min 53 sec) 
Heartbeat CPU 0 instructions: 180000003 cycles: 164107577 heartbeat IPC: 0.86011 cumulative IPC: 0.866968 (Simulation time: 0 hr 7 min 19 sec) 
Heartbeat CPU 0 instructions: 190000001 cycles: 175434750 heartbeat IPC: 0.882833 cumulative IPC: 0.868082 (Simulation time: 0 hr 7 min 45 sec) 
Heartbeat CPU 0 instructions: 200000002 cycles: 187033417 heartbeat IPC: 0.862168 cumulative IPC: 0.867686 (Simulation time: 0 hr 8 min 12 sec) 
Heartbeat CPU 0 instructions: 210000003 cycles: 198260381 heartbeat IPC: 0.890713 cumulative IPC: 0.86909 (Simulation time: 0 hr 8 min 38 sec) 
Heartbeat CPU 0 instructions: 220000000 cycles: 209859960 heartbeat IPC: 0.8621 cumulative IPC: 0.868676 (Simulation time: 0 hr 9 min 5 sec) 
Heartbeat CPU 0 instructions: 230000001 cycles: 221284915 heartbeat IPC: 0.875277 cumulative IPC: 0.86904 (Simulation time: 0 hr 9 min 31 sec) 
Heartbeat CPU 0 instructions: 240000000 cycles: 232919731 heartbeat IPC: 0.859489 cumulative IPC: 0.868532 (Simulation time: 0 hr 9 min 58 sec) 
Heartbeat CPU 0 instructions: 250000001 cycles: 244472128 heartbeat IPC: 0.865621 cumulative IPC: 0.868386 (Simulation time: 0 hr 10 min 24 sec) 
Finished CPU 0 instructions: 200000000 cycles: 230312378 cumulative IPC: 0.868386 (Simulation time: 0 hr 10 min 24 sec) 

ChampSim completed all CPUs

Region of Interest Statistics

CPU 0 cumulative IPC: 0.868386 instructions: 200000000 cycles: 230312378
ITLB TOTAL     ACCESS:   28635430  HIT:   28635430  MISS:          0  HIT %:        100  MISS %:          0   MPKI: 0
ITLB Test counter:          0
ITLB LOAD TRANSLATION ACCESS:   28635430  HIT:   28635430  MISS:          0  HIT %:        100  MISS %:          0   MPKI: 0
ITLB PREFETCH  REQUESTED:          0  ISSUED:          0  USEFUL:          0  USELESS:          0
ITLB USEFUL LOAD PREFETCHES:          0 PREFETCH ISSUED TO LOWER LEVEL:          0  ACCURACY: -nan
ITLB TIMELY PREFETCHES:          0 LATE PREFETCHES: 0 DROPPED PREFETCHES: 0
ITLB COMMIT LATE PREFETCHES: 0 MISSED OPPORTUNITY: 0 LATE IN PQ: 0 UNCOVERED: 0
ITLB COMMIT LATE MSHR PREFETCHES: 0
ITLB MPKI TOTAL: 0 MSHR LATE: 0 PQ LATE: 0 COMMIT LATE: 0 MISSED OPPORTUNITY: 0 UNCOVERED: 0
ITLB PREFETCHES SAME FILL-ORIGIN LEVEL: 0 DIFFERENT FILL-ORIGIN LEVEL: 0
ITLB AVERAGE MISS LATENCY: -nan cycles
ITLB AVERAGE MISS LATENCY LOAD: -nan cycles
ITLB AVERAGE MISS LATENCY PREFETCH: -nan cycles
ITLB AVERAGE MSHR OCCUPANCY: 0
ITLB MSHR FULL: 0
ITLB RQ	ACCESS:   35578613	FORWARD:          0	MERGED:    6943184	TO_CACHE:   28635429

DTLB TOTAL     ACCESS:   31916301  HIT:   31828426  MISS:      87875  HIT %:    99.7247  MISS %:    0.27533   MPKI: 0.439375
DTLB Test counter:          0
DTLB LOAD TRANSLATION ACCESS:   31916301  HIT:   31828426  MISS:      87875  HIT %:    99.7247  MISS %:    0.27533   MPKI: 0.439375
DTLB PREFETCH  REQUESTED:          0  ISSUED:          0  USEFUL:          0  USELESS:          0
DTLB USEFUL LOAD PREFETCHES:          0 PREFETCH ISSUED TO LOWER LEVEL:          0  ACCURACY: -nan
DTLB TIMELY PREFETCHES:          0 LATE PREFETCHES: 0 DROPPED PREFETCHES: 0
DTLB COMMIT LATE PREFETCHES: 0 MISSED OPPORTUNITY: 0 LATE IN PQ: 0 UNCOVERED: 0
DTLB COMMIT LATE MSHR PREFETCHES: 0
DTLB MPKI TOTAL: 0 MSHR LATE: 0 PQ LATE: 0 COMMIT LATE: 0 MISSED OPPORTUNITY: 0 UNCOVERED: 0
DTLB PREFETCHES SAME FILL-ORIGIN LEVEL: 0 DIFFERENT FILL-ORIGIN LEVEL: 0
DTLB AVERAGE MISS LATENCY: 5.72871 cycles
DTLB AVERAGE MISS LATENCY LOAD: -nan cycles
DTLB AVERAGE MISS LATENCY PREFETCH: -nan cycles
DTLB AVERAGE MSHR OCCUPANCY: 0.000603506
DTLB MSHR FULL: 0
DTLB RQ	ACCESS:   36194505	FORWARD:          0	MERGED:    4277686	TO_CACHE:   31916819

STLB TOTAL     ACCESS:    9767805  HIT:    9767623  MISS:        182  HIT %:    99.9981  MISS %: 0.00186326   MPKI: 0.00091
STLB Test counter:          0
STLB LOAD TRANSLATION ACCESS:      87875  HIT:      87693  MISS:        182  HIT %:    99.7929  MISS %:   0.207112   MPKI: 0.00091
STLB TRANSLATION FROM L1D PREFETCHER ACCESS:    9679930  HIT:    9679930  MISS:          0  HIT %:        100  MISS %:          0   MPKI: 0
STLB PREFETCH  REQUESTED:          0  ISSUED:          0  USEFUL:          0  USELESS:          0
STLB USEFUL LOAD PREFETCHES:          0 PREFETCH ISSUED TO LOWER LEVEL:          0  ACCURACY: -nan
STLB TIMELY PREFETCHES:          0 LATE PREFETCHES: 0 DROPPED PREFETCHES: 969
STLB COMMIT LATE PREFETCHES: 0 MISSED OPPORTUNITY: 0 LATE IN PQ: 0 UNCOVERED: 0
STLB COMMIT LATE MSHR PREFETCHES: 0
STLB MPKI TOTAL: 0 MSHR LATE: 0 PQ LATE: 0 COMMIT LATE: 0 MISSED OPPORTUNITY: 0 UNCOVERED: 0
STLB PREFETCHES SAME FILL-ORIGIN LEVEL: 0 DIFFERENT FILL-ORIGIN LEVEL: 0
STLB AVERAGE MISS LATENCY: 269.148 cycles
STLB AVERAGE MISS LATENCY LOAD: -nan cycles
STLB AVERAGE MISS LATENCY PREFETCH: -nan cycles
STLB AVERAGE MSHR OCCUPANCY: 0.000170645
STLB MSHR FULL: 0
STLB RQ	ACCESS:   41083103	FORWARD:          0	MERGED:   31314286	TO_CACHE:    9768817

STLB Hit, L1D data hit: 0
STLB Hit, L2C data hit: 0
STLB Hit, LLC data hit: 0
STLB Hit, LLC data miss: 0
STLB STLB hints to L2: 0
L1D TOTAL     ACCESS:   76011545  HIT:   70835101  MISS:    5176444  HIT %:    93.1899  MISS %:    6.81008   MPKI: 25.8822
L1D Test counter:          0
L1D LOAD      ACCESS:   32653730  HIT:   32449733  MISS:     206045  HIT %:    99.3753  MISS %:   0.624728   MPKI: 1.01998
L1D RFO       ACCESS:    3538725  HIT:    3538725  MISS:          0  HIT %:        100  MISS %:          0   MPKI: 0
L1D PREFETCH  ACCESS:   39819090  HIT:   34846643  MISS:    4972447  HIT %:    87.5124  MISS %:    12.4876   MPKI: 24.8622
L1D PREFETCH  REQUESTED:  100168321  ISSUED:   86106543  USEFUL:    4817086  USELESS:     155367
L1D USEFUL LOAD PREFETCHES:    4817086 PREFETCH ISSUED TO LOWER LEVEL:    5908835  ACCURACY: 81.5234
L1D TIMELY PREFETCHES:    4817086 LATE PREFETCHES: 2662 DROPPED PREFETCHES: 2626
L1D COMMIT LATE PREFETCHES: 0 MISSED OPPORTUNITY: 0 LATE IN PQ: 108 UNCOVERED: 0
L1D COMMIT LATE MSHR PREFETCHES: 0
L1D MPKI TOTAL: 1.03022 MSHR LATE: 0.01331 PQ LATE: 0.00054 COMMIT LATE: 0 MISSED OPPORTUNITY: 0 UNCOVERED: 0
L1D PREFETCHES SAME FILL-ORIGIN LEVEL: 4975115 DIFFERENT FILL-ORIGIN LEVEL: 933720
L1D AVERAGE MISS LATENCY: 108.034 cycles
L1D AVERAGE MISS LATENCY LOAD: 112.89 cycles
L1D AVERAGE MISS LATENCY PREFETCH: 107.835 cycles
L1D AVERAGE MSHR OCCUPANCY: 2.11889
L1D MSHR FULL: 0.000359209
L1D RQ	ACCESS:   59769772	FORWARD:          0	MERGED:   26881054	TO_CACHE:   32655780
L1D WQ	ACCESS:    3538725	FORWARD:     232938	MERGED:          0	TO_CACHE:    3538725
L1D PQ	ACCESS:   45111315	FORWARD:          0	MERGED:    4116087	TO_CACHE:   40995228

L1D UNIQUE REGIONS ACCESSED: 0
L1D REGIONS CONFLICTS: 0
L1D Cross Page Prefetch Requests: 21819457
L1D Same Page Prefetch Requests: 34496564
L1D ROI Sum of L1D PQ occupancy: 600534869
L1D PREFETCHES PUSHED FROM L2C: 0
59ce33: 29
59ce10: 35
59cdf6: 35
59d510: 41
59ce14: 54
59d4f7: 113
59ce37: 114
59cd89: 136
59d6e1: 137
59ce27: 137
59d6dd: 137
59cec5: 137
59cd46: 138
59ce04: 138
59d695: 138
59cd53: 138
59d4e0: 324
59cdcb: 355
59cdee: 524
59cdb0: 625
59cd8d: 1605
59cdf2: 1805
59d4d1: 2007
59cdcf: 2103
59cd9b: 2987
59cdbf: 3516
59cde2: 186489
L1I TOTAL     ACCESS:   35578614  HIT:   35578614  MISS:          0  HIT %:        100  MISS %:          0   MPKI: 0
L1I Test counter:          0
L1I LOAD      ACCESS:   35578614  HIT:   35578614  MISS:          0  HIT %:        100  MISS %:          0   MPKI: 0
L1I PREFETCH  REQUESTED:          0  ISSUED:          0  USEFUL:          0  USELESS:          0
L1I USEFUL LOAD PREFETCHES:          0 PREFETCH ISSUED TO LOWER LEVEL:          0  ACCURACY: -nan
L1I TIMELY PREFETCHES:          0 LATE PREFETCHES: 0 DROPPED PREFETCHES: 0
L1I COMMIT LATE PREFETCHES: 0 MISSED OPPORTUNITY: 0 LATE IN PQ: 0 UNCOVERED: 0
L1I COMMIT LATE MSHR PREFETCHES: 0
L1I MPKI TOTAL: 0 MSHR LATE: 0 PQ LATE: 0 COMMIT LATE: 0 MISSED OPPORTUNITY: 0 UNCOVERED: 0
L1I PREFETCHES SAME FILL-ORIGIN LEVEL: 0 DIFFERENT FILL-ORIGIN LEVEL: 0
L1I AVERAGE MISS LATENCY: -nan cycles
L1I AVERAGE MISS LATENCY LOAD: -nan cycles
L1I AVERAGE MISS LATENCY PREFETCH: -nan cycles
L1I AVERAGE MSHR OCCUPANCY: 0
L1I MSHR FULL: 0
L1I RQ	ACCESS:   65789767	FORWARD:          0	MERGED:   30211154	TO_CACHE:   35578613

BTB TOTAL     ACCESS:   34960378  HIT:   34960361  MISS:         17  HIT %:        100  MISS %: 4.86265e-05   MPKI: 8.5e-05
BTB Test counter:          0
BTB BRANCH_DIRECT_JUMP	ACCESS:        138  HIT:        137  MISS:          1
BTB BRANCH_INDIRECT	ACCESS:          0  HIT:          0  MISS:          0
BTB BRANCH_CONDITIONAL	ACCESS:   31422487  HIT:   31422478  MISS:          9
BTB BRANCH_DIRECT_CALL	ACCESS:     884507  HIT:     884505  MISS:          2
BTB BRANCH_INDIRECT_CALL	ACCESS:     884370  HIT:     884369  MISS:          1
BTB BRANCH_RETURN	ACCESS:    1768876  HIT:    1768872  MISS:          4
BTB BRANCH_OTHER ACCESS:          0  HIT:          0  MISS:          0

L2C TOTAL     ACCESS:    6079454  HIT:    1078533  MISS:    5000921  HIT %:    17.7406  MISS %:    82.2594   MPKI: 25.0046
L2C Test counter:          0
L2C LOAD      ACCESS:     201335  HIT:      16885  MISS:     184450  HIT %:    8.38652  MISS %:    91.6135   MPKI: 0.92225
L2C DATA LOAD MPKI: 0.92225
L2C INSTRUCTION LOAD MPKI: 0
L2C PREFETCH  ACCESS:    5876831  HIT:    1061087  MISS:    4815744  HIT %:    18.0554  MISS %:    81.9446   MPKI: 24.0787
L2C DATA PREFETCH MPKI: 24.0787
L2C INSTRUCTION PREFETCH MPKI: 0
L2C WRITEBACK ACCESS:        137  HIT:        137  MISS:          0  HIT %:        100  MISS %:          0   MPKI: 0
L2C LOAD TRANSLATION ACCESS:        182  HIT:         53  MISS:        129  HIT %:    29.1209  MISS %:    70.8791   MPKI: 0.000645
L2C TRANSLATION FROM L1D PREFETCHER ACCESS:        969  HIT:        371  MISS:        598  HIT %:    38.2869  MISS %:    61.7131   MPKI: 0.00299
L2C PREFETCH  REQUESTED:          0  ISSUED:          0  USEFUL:      14562  USELESS:    4801534
L2C USEFUL LOAD PREFETCHES:      14562 PREFETCH ISSUED TO LOWER LEVEL:    4815750  ACCURACY: 0.302383
L2C TIMELY PREFETCHES:      14562 LATE PREFETCHES: 0 DROPPED PREFETCHES: 0
L2C COMMIT LATE PREFETCHES: 0 MISSED OPPORTUNITY: 0 LATE IN PQ: 0 UNCOVERED: 0
L2C COMMIT LATE MSHR PREFETCHES: 0
L2C MPKI TOTAL: 0.92225 MSHR LATE: 0 PQ LATE: 0 COMMIT LATE: 0 MISSED OPPORTUNITY: 0 UNCOVERED: 0
L2C PREFETCHES SAME FILL-ORIGIN LEVEL: 506424 DIFFERENT FILL-ORIGIN LEVEL: 0
L2C AVERAGE MISS LATENCY: 106.237 cycles
L2C AVERAGE MISS LATENCY LOAD: 108.447 cycles
L2C AVERAGE MISS LATENCY PREFETCH: 106.145 cycles
L2C AVERAGE MSHR OCCUPANCY: 0.726733
L2C MSHR FULL: 0.000276486
L2C RQ	ACCESS:     202486	FORWARD:          0	MERGED:          0	TO_CACHE:     202486
L2C WQ	ACCESS:        137	FORWARD:          0	MERGED:          0	TO_CACHE:        137
L2C PQ	ACCESS:    5908835	FORWARD:          0	MERGED:          2	TO_CACHE:    5908833

L2C Instructions Evicting Data 0
L2C Translations Evicting Data 727
L2C Data Evicting Data 4999462
L2C Instructions Evicting Instructions 0
L2C Translations Evicting Instructions 0
L2C Data Evicting Instructions 0
L2C Instructions Evicting Translations 0
L2C Translations Evicting Translations 0
L2C Data Evicting Translations 732
L2C Dense regions hint from L2: 0
59ce33: 29
59cdf6: 35
59ce10: 35
59d510: 41
59ce14: 54
59d4f7: 113
59ce37: 114
59cd89: 118
59d6dd: 125
59d695: 125
59d6e1: 126
59cec5: 126
59ce27: 137
59cd46: 138
59ce04: 138
59cd53: 138
59cdee: 140
59d4e0: 168
59cdcb: 211
59cdb0: 229
59cd8d: 608
59cdcf: 644
59cd9b: 902
59cdf2: 915
59d4d1: 1454
59cdbf: 2119
59cde2: 175468
PSCL5 TOTAL     ACCESS:       1151  HIT:       1151  MISS:          0  HIT %:        100  MISS %:          0   MPKI: 0
PSCL5 Test counter:          0
PSCL5 LOAD TRANSLATION ACCESS:        182  HIT:        182  MISS:          0  HIT %:        100  MISS %:          0   MPKI: 0
PSCL5 TRANSLATION FROM L1D PREFETCHER ACCESS:        969  HIT:        969  MISS:          0  HIT %:        100  MISS %:          0   MPKI: 0
PSCL5 PREFETCH  REQUESTED:          0  ISSUED:          0  USEFUL:          0  USELESS:          0
PSCL5 USEFUL LOAD PREFETCHES:          0 PREFETCH ISSUED TO LOWER LEVEL:          0  ACCURACY: -nan
PSCL5 TIMELY PREFETCHES:          0 LATE PREFETCHES: 0 DROPPED PREFETCHES: 0
PSCL5 COMMIT LATE PREFETCHES: 0 MISSED OPPORTUNITY: 0 LATE IN PQ: 0 UNCOVERED: 0
PSCL5 COMMIT LATE MSHR PREFETCHES: 0
PSCL5 MPKI TOTAL: 0 MSHR LATE: 0 PQ LATE: 0 COMMIT LATE: 0 MISSED OPPORTUNITY: 0 UNCOVERED: 0
PSCL5 PREFETCHES SAME FILL-ORIGIN LEVEL: 0 DIFFERENT FILL-ORIGIN LEVEL: 0

PSCL4 TOTAL     ACCESS:       1151  HIT:       1151  MISS:          0  HIT %:        100  MISS %:          0   MPKI: 0
PSCL4 Test counter:          0
PSCL4 LOAD TRANSLATION ACCESS:        182  HIT:        182  MISS:          0  HIT %:        100  MISS %:          0   MPKI: 0
PSCL4 TRANSLATION FROM L1D PREFETCHER ACCESS:        969  HIT:        969  MISS:          0  HIT %:        100  MISS %:          0   MPKI: 0
PSCL4 PREFETCH  REQUESTED:          0  ISSUED:          0  USEFUL:          0  USELESS:          0
PSCL4 USEFUL LOAD PREFETCHES:          0 PREFETCH ISSUED TO LOWER LEVEL:          0  ACCURACY: -nan
PSCL4 TIMELY PREFETCHES:          0 LATE PREFETCHES: 0 DROPPED PREFETCHES: 0
PSCL4 COMMIT LATE PREFETCHES: 0 MISSED OPPORTUNITY: 0 LATE IN PQ: 0 UNCOVERED: 0
PSCL4 COMMIT LATE MSHR PREFETCHES: 0
PSCL4 MPKI TOTAL: 0 MSHR LATE: 0 PQ LATE: 0 COMMIT LATE: 0 MISSED OPPORTUNITY: 0 UNCOVERED: 0
PSCL4 PREFETCHES SAME FILL-ORIGIN LEVEL: 0 DIFFERENT FILL-ORIGIN LEVEL: 0

PSCL3 TOTAL     ACCESS:       1151  HIT:       1151  MISS:          0  HIT %:        100  MISS %:          0   MPKI: 0
PSCL3 Test counter:          0
PSCL3 LOAD TRANSLATION ACCESS:        182  HIT:        182  MISS:          0  HIT %:        100  MISS %:          0   MPKI: 0
PSCL3 TRANSLATION FROM L1D PREFETCHER ACCESS:        969  HIT:        969  MISS:          0  HIT %:        100  MISS %:          0   MPKI: 0
PSCL3 PREFETCH  REQUESTED:          0  ISSUED:          0  USEFUL:          0  USELESS:          0
PSCL3 USEFUL LOAD PREFETCHES:          0 PREFETCH ISSUED TO LOWER LEVEL:          0  ACCURACY: -nan
PSCL3 TIMELY PREFETCHES:          0 LATE PREFETCHES: 0 DROPPED PREFETCHES: 0
PSCL3 COMMIT LATE PREFETCHES: 0 MISSED OPPORTUNITY: 0 LATE IN PQ: 0 UNCOVERED: 0
PSCL3 COMMIT LATE MSHR PREFETCHES: 0
PSCL3 MPKI TOTAL: 0 MSHR LATE: 0 PQ LATE: 0 COMMIT LATE: 0 MISSED OPPORTUNITY: 0 UNCOVERED: 0
PSCL3 PREFETCHES SAME FILL-ORIGIN LEVEL: 0 DIFFERENT FILL-ORIGIN LEVEL: 0

PSCL2 TOTAL     ACCESS:       1151  HIT:       1151  MISS:          0  HIT %:        100  MISS %:          0   MPKI: 0
PSCL2 Test counter:          0
PSCL2 LOAD TRANSLATION ACCESS:        182  HIT:        182  MISS:          0  HIT %:        100  MISS %:          0   MPKI: 0
PSCL2 TRANSLATION FROM L1D PREFETCHER ACCESS:        969  HIT:        969  MISS:          0  HIT %:        100  MISS %:          0   MPKI: 0
PSCL2 PREFETCH  REQUESTED:          0  ISSUED:          0  USEFUL:          0  USELESS:          0
PSCL2 USEFUL LOAD PREFETCHES:          0 PREFETCH ISSUED TO LOWER LEVEL:          0  ACCURACY: -nan
PSCL2 TIMELY PREFETCHES:          0 LATE PREFETCHES: 0 DROPPED PREFETCHES: 0
PSCL2 COMMIT LATE PREFETCHES: 0 MISSED OPPORTUNITY: 0 LATE IN PQ: 0 UNCOVERED: 0
PSCL2 COMMIT LATE MSHR PREFETCHES: 0
PSCL2 MPKI TOTAL: 0 MSHR LATE: 0 PQ LATE: 0 COMMIT LATE: 0 MISSED OPPORTUNITY: 0 UNCOVERED: 0
PSCL2 PREFETCHES SAME FILL-ORIGIN LEVEL: 0 DIFFERENT FILL-ORIGIN LEVEL: 0

LLC TOTAL     ACCESS:    5001048  HIT:    1011838  MISS:    3989210  HIT %:    20.2325  MISS %:    79.7675   MPKI: 19.946
LLC Test counter:          0
LLC LOAD      ACCESS:     184450  HIT:      24562  MISS:     159888  HIT %:    13.3163  MISS %:    86.6837   MPKI: 0.79944
LLC PREFETCH  ACCESS:    4815744  HIT:     986928  MISS:    3828816  HIT %:    20.4938  MISS %:    79.5062   MPKI: 19.1441
LLC WRITEBACK ACCESS:        127  HIT:        127  MISS:          0  HIT %:        100  MISS %:          0   MPKI: 0
LLC LOAD TRANSLATION ACCESS:        129  HIT:         31  MISS:         98  HIT %:     24.031  MISS %:     75.969   MPKI: 0.00049
LLC TRANSLATION FROM L1D PREFETCHER ACCESS:        598  HIT:        190  MISS:        408  HIT %:    31.7726  MISS %:    68.2274   MPKI: 0.00204
LLC PREFETCH  REQUESTED:          0  ISSUED:          0  USEFUL:       8177  USELESS:    3821442
LLC USEFUL LOAD PREFETCHES:       8177 PREFETCH ISSUED TO LOWER LEVEL:    3828822  ACCURACY: 0.213564
LLC TIMELY PREFETCHES:       8177 LATE PREFETCHES: 0 DROPPED PREFETCHES: 0
LLC COMMIT LATE PREFETCHES: 0 MISSED OPPORTUNITY: 0 LATE IN PQ: 0 UNCOVERED: 0
LLC COMMIT LATE MSHR PREFETCHES: 0
LLC MPKI TOTAL: 0.79944 MSHR LATE: 0 PQ LATE: 0 COMMIT LATE: 0 MISSED OPPORTUNITY: 0 UNCOVERED: 0
LLC PREFETCHES SAME FILL-ORIGIN LEVEL: 0 DIFFERENT FILL-ORIGIN LEVEL: 0
LLC AVERAGE MISS LATENCY: 95.5643 cycles
LLC AVERAGE MISS LATENCY LOAD: 90.4616 cycles
LLC AVERAGE MISS LATENCY PREFETCH: 95.7662 cycles
LLC AVERAGE MSHR OCCUPANCY: 0.535466
LLC MSHR FULL: 0
LLC RQ	ACCESS:     185177	FORWARD:          0	MERGED:          0	TO_CACHE:     185177
LLC WQ	ACCESS:        127	FORWARD:          0	MERGED:          0	TO_CACHE:        127
LLC PQ	ACCESS:    4815750	FORWARD:          0	MERGED:          0	TO_CACHE:    4815750

LLC Dense regions hint to LLC: 0
59ce33: 28
59cdf6: 35
59ce10: 35
59d510: 41
59ce14: 54
59cd89: 74
59cec5: 78
59d6dd: 83
59cdee: 83
59d6e1: 85
59d695: 92
59d4f7: 112
59ce37: 114
59d4e0: 130
59ce27: 136
59cd53: 138
59ce04: 138
59cd46: 138
59cdb0: 145
59cdcb: 155
59cd8d: 293
59cdcf: 344
59cd9b: 545
59cdf2: 554
59d4d1: 839
59cdbf: 1359
59cde2: 154060

RAW hits: 10122
Loads Generated: 59779893
Loads sent to L1D: 59769772
Stores Generated: 3538724
Stores sent to L1D: 3538725
Major fault: 0 Minor fault: 1485
Allocated PAGES: 1485
Total Load insts: 74558488
Total Non-spec loads: 6905295
Percentage of speculative loads: 90.7384
L1D response latency: 114.383 cycles
Load retirement latency: 126.44 cycles

LATENCY_FILL: 113.157 203647

DRAM Statistics
 CHANNEL 0
 RQ ROW_BUFFER_HIT:    3568986  ROW_BUFFER_MISS:     420227
 DBUS_CONGESTED:          4
 WQ ROW_BUFFER_HIT:         74  ROW_BUFFER_MISS:          4  FULL:          0

 AVG_CONGESTED_CYCLE: 4
 All warmup complete: 2
Channel 0 Bank busy for read cycles: 0
Channel 0 Bank busy for write cycles: 0
Channel 0
Rank 0
0banks busy for read cycles: 114954171
0banks busy for write cycles: 78
1banks busy for read cycles: 49905577
1banks busy for write cycles: 33068
2banks busy for read cycles: 29328680
2banks busy for write cycles: 0
3banks busy for read cycles: 20278740
3banks busy for write cycles: 0
4banks busy for read cycles: 10007167
4banks busy for write cycles: 0
5banks busy for read cycles: 3727631
5banks busy for write cycles: 0
6banks busy for read cycles: 1368904
6banks busy for write cycles: 0
7banks busy for read cycles: 459693
7banks busy for write cycles: 0
8banks busy for read cycles: 248670
8banks busy for write cycles: 0

CPU 0 Branch Prediction Accuracy: 99.9949% MPKI: 0.01412 Average ROB Occupancy at Mispredict: 80.779
Branch types
NOT_BRANCH: 144641732 72.3209%
BRANCH_DIRECT_JUMP: 138 6.9e-05%
BRANCH_INDIRECT: 0 0%
BRANCH_CONDITIONAL: 51820086 25.91%
BRANCH_DIRECT_CALL: 884507 0.442254%
BRANCH_INDIRECT_CALL: 884370 0.442185%
BRANCH_RETURN: 1768876 0.884438%
BRANCH_OTHER: 0 0%

DRAM PAGES: 1048576
Allocated PAGES: 1485
