
*** ChampSim Multicore Out-of-Order Simulator ***

Warmup Instructions: 50000000
Simulation Instructions: 200000000
Number of CPUs: 1
LLC sets: 2048
LLC ways: 16
Secure Berti: OFF
Berti: OFF
Berti Fill: OFF
On commit prefetching: OFF
L2 LLC Bypass speculative loads: OFF
Off-chip DRAM Size: 4096 MB Channels: 1 Width: 64-bit Data Rate: 6400 MT/s
CPU 0 runs /home/sumon/secure_berti/Berti_Baseline/../../traces/spec/649.fotonik3d_s-8225B.champsimtrace.xz
.xz
BTB has LRU replacement policy
ITLB has LRU replacement policy
DTLB has LRU replacement policy
STLB has LRU replacement policy
L1I has LRU replacement policy
History Sets: 8
History Ways: 16
BERTI Size: 16
BERTI Stride Size: 16
L1D has LRU replacement policy
L2C has LRU replacement policy
LLC has LRU replacement policy
Heartbeat CPU 0 instructions: 10000001 cycles: 2903875 heartbeat IPC: 3.44367 cumulative IPC: 3.44367 (Simulation time: 0 hr 0 min 18 sec) 
Heartbeat CPU 0 instructions: 20000001 cycles: 5807687 heartbeat IPC: 3.44375 cumulative IPC: 3.44371 (Simulation time: 0 hr 0 min 36 sec) 
Heartbeat CPU 0 instructions: 30000000 cycles: 8711456 heartbeat IPC: 3.4438 cumulative IPC: 3.44374 (Simulation time: 0 hr 0 min 55 sec) 
Heartbeat CPU 0 instructions: 40000002 cycles: 11615276 heartbeat IPC: 3.44374 cumulative IPC: 3.44374 (Simulation time: 0 hr 1 min 13 sec) 
Heartbeat CPU 0 instructions: 50000001 cycles: 14519022 heartbeat IPC: 3.44383 cumulative IPC: 3.44376 (Simulation time: 0 hr 1 min 31 sec) 

Warmup complete CPU 0 instructions: 50000001 cycles: 14519022 (Simulation time: 0 hr 1 min 31 sec) 

Heartbeat CPU 0 instructions: 60000000 cycles: 24480398 heartbeat IPC: 1.00388 cumulative IPC: 1.00388 (Simulation time: 0 hr 1 min 52 sec) 
Heartbeat CPU 0 instructions: 70000001 cycles: 34442781 heartbeat IPC: 1.00378 cumulative IPC: 1.00383 (Simulation time: 0 hr 2 min 13 sec) 
Heartbeat CPU 0 instructions: 80000002 cycles: 44405922 heartbeat IPC: 1.0037 cumulative IPC: 1.00378 (Simulation time: 0 hr 2 min 34 sec) 
Heartbeat CPU 0 instructions: 90000003 cycles: 54369355 heartbeat IPC: 1.00367 cumulative IPC: 1.00376 (Simulation time: 0 hr 2 min 55 sec) 
Heartbeat CPU 0 instructions: 100000000 cycles: 64330070 heartbeat IPC: 1.00394 cumulative IPC: 1.00379 (Simulation time: 0 hr 3 min 16 sec) 
Heartbeat CPU 0 instructions: 110000000 cycles: 74293291 heartbeat IPC: 1.00369 cumulative IPC: 1.00378 (Simulation time: 0 hr 3 min 39 sec) 
Heartbeat CPU 0 instructions: 120000002 cycles: 84254755 heartbeat IPC: 1.00387 cumulative IPC: 1.00379 (Simulation time: 0 hr 4 min 2 sec) 
Heartbeat CPU 0 instructions: 130000003 cycles: 94217717 heartbeat IPC: 1.00372 cumulative IPC: 1.00378 (Simulation time: 0 hr 4 min 27 sec) 
Heartbeat CPU 0 instructions: 140000002 cycles: 104180556 heartbeat IPC: 1.00373 cumulative IPC: 1.00378 (Simulation time: 0 hr 4 min 52 sec) 
Heartbeat CPU 0 instructions: 150000003 cycles: 114144326 heartbeat IPC: 1.00364 cumulative IPC: 1.00376 (Simulation time: 0 hr 5 min 17 sec) 
Heartbeat CPU 0 instructions: 160000000 cycles: 124104370 heartbeat IPC: 1.00401 cumulative IPC: 1.00378 (Simulation time: 0 hr 5 min 42 sec) 
Heartbeat CPU 0 instructions: 170000001 cycles: 134067515 heartbeat IPC: 1.0037 cumulative IPC: 1.00378 (Simulation time: 0 hr 6 min 8 sec) 
Heartbeat CPU 0 instructions: 180000000 cycles: 144029093 heartbeat IPC: 1.00386 cumulative IPC: 1.00378 (Simulation time: 0 hr 6 min 34 sec) 
Heartbeat CPU 0 instructions: 190000003 cycles: 153990906 heartbeat IPC: 1.00383 cumulative IPC: 1.00379 (Simulation time: 0 hr 6 min 59 sec) 
Heartbeat CPU 0 instructions: 200000003 cycles: 163953754 heartbeat IPC: 1.00373 cumulative IPC: 1.00378 (Simulation time: 0 hr 7 min 25 sec) 
Heartbeat CPU 0 instructions: 210000000 cycles: 173915538 heartbeat IPC: 1.00384 cumulative IPC: 1.00379 (Simulation time: 0 hr 7 min 51 sec) 
Heartbeat CPU 0 instructions: 220000000 cycles: 183877819 heartbeat IPC: 1.00379 cumulative IPC: 1.00379 (Simulation time: 0 hr 8 min 17 sec) 
Heartbeat CPU 0 instructions: 230000000 cycles: 193839537 heartbeat IPC: 1.00384 cumulative IPC: 1.00379 (Simulation time: 0 hr 8 min 43 sec) 
Heartbeat CPU 0 instructions: 240000003 cycles: 203803151 heartbeat IPC: 1.00365 cumulative IPC: 1.00378 (Simulation time: 0 hr 9 min 8 sec) 
Heartbeat CPU 0 instructions: 250000003 cycles: 213763285 heartbeat IPC: 1.004 cumulative IPC: 1.00379 (Simulation time: 0 hr 9 min 34 sec) 
Finished CPU 0 instructions: 200000002 cycles: 199244263 cumulative IPC: 1.00379 (Simulation time: 0 hr 9 min 34 sec) 

ChampSim completed all CPUs

Region of Interest Statistics

CPU 0 cumulative IPC: 1.00379 instructions: 200000002 cycles: 199244263
ITLB TOTAL     ACCESS:   28069335  HIT:   28069335  MISS:          0  HIT %:        100  MISS %:          0   MPKI: 0
ITLB Test counter:          0
ITLB LOAD TRANSLATION ACCESS:   28069335  HIT:   28069335  MISS:          0  HIT %:        100  MISS %:          0   MPKI: 0
ITLB PREFETCH  REQUESTED:          0  ISSUED:          0  USEFUL:          0  USELESS:          0
ITLB USEFUL LOAD PREFETCHES:          0 PREFETCH ISSUED TO LOWER LEVEL:          0  ACCURACY: -nan
ITLB TIMELY PREFETCHES:          0 LATE PREFETCHES: 0 DROPPED PREFETCHES: 0
ITLB COMMIT LATE PREFETCHES: 0 MISSED OPPORTUNITY: 0 LATE IN PQ: 0 UNCOVERED: 0
ITLB COMMIT LATE MSHR PREFETCHES: 0
ITLB MPKI TOTAL: 0 MSHR LATE: 0 PQ LATE: 0 COMMIT LATE: 0 MISSED OPPORTUNITY: 0 UNCOVERED: 0
ITLB PREFETCHES SAME FILL-ORIGIN LEVEL: 0 DIFFERENT FILL-ORIGIN LEVEL: 0
ITLB AVERAGE MISS LATENCY: -nan cycles
ITLB AVERAGE MISS LATENCY LOAD: -nan cycles
ITLB AVERAGE MISS LATENCY PREFETCH: -nan cycles
ITLB AVERAGE MSHR OCCUPANCY: 0
ITLB MSHR FULL: 0
ITLB RQ	ACCESS:   35090028	FORWARD:          0	MERGED:    7020693	TO_CACHE:   28069335

DTLB TOTAL     ACCESS:   32381144  HIT:   32334278  MISS:      46866  HIT %:    99.8553  MISS %:   0.144732   MPKI: 0.23433
DTLB Test counter:          0
DTLB LOAD TRANSLATION ACCESS:   32381144  HIT:   32334278  MISS:      46866  HIT %:    99.8553  MISS %:   0.144732   MPKI: 0.23433
DTLB PREFETCH  REQUESTED:          0  ISSUED:          0  USEFUL:          0  USELESS:          0
DTLB USEFUL LOAD PREFETCHES:          0 PREFETCH ISSUED TO LOWER LEVEL:          0  ACCURACY: -nan
DTLB TIMELY PREFETCHES:          0 LATE PREFETCHES: 0 DROPPED PREFETCHES: 0
DTLB COMMIT LATE PREFETCHES: 0 MISSED OPPORTUNITY: 0 LATE IN PQ: 0 UNCOVERED: 0
DTLB COMMIT LATE MSHR PREFETCHES: 0
DTLB MPKI TOTAL: 0 MSHR LATE: 0 PQ LATE: 0 COMMIT LATE: 0 MISSED OPPORTUNITY: 0 UNCOVERED: 0
DTLB PREFETCHES SAME FILL-ORIGIN LEVEL: 0 DIFFERENT FILL-ORIGIN LEVEL: 0
DTLB AVERAGE MISS LATENCY: 77.8786 cycles
DTLB AVERAGE MISS LATENCY LOAD: -nan cycles
DTLB AVERAGE MISS LATENCY PREFETCH: -nan cycles
DTLB AVERAGE MSHR OCCUPANCY: 0.0036081
DTLB MSHR FULL: 0
DTLB RQ	ACCESS:   50232005	FORWARD:          0	MERGED:   17850411	TO_CACHE:   32381594

STLB TOTAL     ACCESS:    7159855  HIT:    7132405  MISS:      27450  HIT %:    99.6166  MISS %:   0.383388   MPKI: 0.13725
STLB Test counter:          0
STLB LOAD TRANSLATION ACCESS:      46866  HIT:      19416  MISS:      27450  HIT %:    41.4288  MISS %:    58.5712   MPKI: 0.13725
STLB TRANSLATION FROM L1D PREFETCHER ACCESS:    7112989  HIT:    7112989  MISS:          0  HIT %:        100  MISS %:          0   MPKI: 0
STLB PREFETCH  REQUESTED:          0  ISSUED:          0  USEFUL:          0  USELESS:          0
STLB USEFUL LOAD PREFETCHES:          0 PREFETCH ISSUED TO LOWER LEVEL:          0  ACCURACY: -nan
STLB TIMELY PREFETCHES:          0 LATE PREFETCHES: 12232 DROPPED PREFETCHES: 4837757
STLB COMMIT LATE PREFETCHES: 0 MISSED OPPORTUNITY: 0 LATE IN PQ: 0 UNCOVERED: 0
STLB COMMIT LATE MSHR PREFETCHES: 0
STLB MPKI TOTAL: 0 MSHR LATE: 0.06116 PQ LATE: 0 COMMIT LATE: 0 MISSED OPPORTUNITY: 0 UNCOVERED: 0
STLB PREFETCHES SAME FILL-ORIGIN LEVEL: 0 DIFFERENT FILL-ORIGIN LEVEL: 0
STLB AVERAGE MISS LATENCY: 119.54 cycles
STLB AVERAGE MISS LATENCY LOAD: -nan cycles
STLB AVERAGE MISS LATENCY PREFETCH: -nan cycles
STLB AVERAGE MSHR OCCUPANCY: 0.555409
STLB MSHR FULL: 0
STLB RQ	ACCESS:   55635820	FORWARD:          0	MERGED:   43505923	TO_CACHE:   12129897

STLB Hit, L1D data hit: 0
STLB Hit, L2C data hit: 0
STLB Hit, LLC data hit: 0
STLB Hit, LLC data miss: 0
STLB STLB hints to L2: 0
L1D TOTAL     ACCESS:   78647242  HIT:   75991052  MISS:    2656190  HIT %:    96.6227  MISS %:    3.37735   MPKI: 13.2809
L1D Test counter:          0
L1D LOAD      ACCESS:   36112155  HIT:   35799912  MISS:     390995  HIT %:    99.1354  MISS %:   0.864648   MPKI: 1.56121
L1D RFO       ACCESS:   14035034  HIT:   14032401  MISS:       2633  HIT %:    99.9812  MISS %:  0.0187602   MPKI: 0.013165
L1D PREFETCH  ACCESS:   28500053  HIT:   26158739  MISS:    2341314  HIT %:    91.7849  MISS %:    8.21512   MPKI: 11.7066
L1D PREFETCH  REQUESTED:  119927687  ISSUED:  112531298  USEFUL:    2331868  USELESS:       9445
L1D USEFUL LOAD PREFETCHES:    2331868 PREFETCH ISSUED TO LOWER LEVEL:   21877757  ACCURACY: 10.6586
L1D TIMELY PREFETCHES:    2331868 LATE PREFETCHES: 34462 DROPPED PREFETCHES: 7359879
L1D COMMIT LATE PREFETCHES: 0 MISSED OPPORTUNITY: 0 LATE IN PQ: 20601 UNCOVERED: 0
L1D COMMIT LATE MSHR PREFETCHES: 0
L1D MPKI TOTAL: 1.95497 MSHR LATE: 0.17231 PQ LATE: 0.103005 COMMIT LATE: 0 MISSED OPPORTUNITY: 0 UNCOVERED: 0
L1D PREFETCHES SAME FILL-ORIGIN LEVEL: 2375776 DIFFERENT FILL-ORIGIN LEVEL: 19501981
L1D AVERAGE MISS LATENCY: 25.2921 cycles
L1D AVERAGE MISS LATENCY LOAD: 32.8431 cycles
L1D AVERAGE MISS LATENCY PREFETCH: 24.2868 cycles
L1D AVERAGE MSHR OCCUPANCY: 0.281618
L1D MSHR FULL: 0
L1D RQ	ACCESS:   70165918	FORWARD:          0	MERGED:   33974677	TO_CACHE:   36190909
L1D WQ	ACCESS:   14041096	FORWARD:        332	MERGED:          0	TO_CACHE:   14041096
L1D PQ	ACCESS:   56942344	FORWARD:          0	MERGED:    1353390	TO_CACHE:   55588954

L1D UNIQUE REGIONS ACCESSED: 0
L1D REGIONS CONFLICTS: 0
L1D Cross Page Prefetch Requests: 10654947
L1D Same Page Prefetch Requests: 60116589
L1D ROI Sum of L1D PQ occupancy: 1263203654
L1D PREFETCHES PUSHED FROM L2C: 0
404bb2: 4
40452b: 54
404533: 55
405c2a: 77
404b43: 136
405d70: 140
405afe: 433
405d6a: 435
404a74: 438
405bc0: 438
405b8e: 438
405bdd: 438
404b33: 438
404bb7: 438
404580: 438
404bfc: 438
40450c: 438
4043c6: 438
404552: 438
405ac3: 438
404578: 438
40451c: 438
404375: 438
405bd6: 438
405d00: 438
404561: 438
405e1a: 438
404ba3: 438
405acd: 438
405d1d: 438
405ce9: 438
404a26: 438
405b0d: 438
405d16: 438
404be8: 438
405cd4: 438
405ce0: 438
405bf2: 440
405c30: 512
405df2: 63868
405cb2: 65979
405dec: 83176
405cac: 84232
L1I TOTAL     ACCESS:   35090026  HIT:   35090026  MISS:          0  HIT %:        100  MISS %:          0   MPKI: 0
L1I Test counter:          0
L1I LOAD      ACCESS:   35090026  HIT:   35090026  MISS:          0  HIT %:        100  MISS %:          0   MPKI: 0
L1I PREFETCH  REQUESTED:          0  ISSUED:          0  USEFUL:          0  USELESS:          0
L1I USEFUL LOAD PREFETCHES:          0 PREFETCH ISSUED TO LOWER LEVEL:          0  ACCURACY: -nan
L1I TIMELY PREFETCHES:          0 LATE PREFETCHES: 0 DROPPED PREFETCHES: 0
L1I COMMIT LATE PREFETCHES: 0 MISSED OPPORTUNITY: 0 LATE IN PQ: 0 UNCOVERED: 0
L1I COMMIT LATE MSHR PREFETCHES: 0
L1I MPKI TOTAL: 0 MSHR LATE: 0 PQ LATE: 0 COMMIT LATE: 0 MISSED OPPORTUNITY: 0 UNCOVERED: 0
L1I PREFETCHES SAME FILL-ORIGIN LEVEL: 0 DIFFERENT FILL-ORIGIN LEVEL: 0
L1I AVERAGE MISS LATENCY: -nan cycles
L1I AVERAGE MISS LATENCY LOAD: -nan cycles
L1I AVERAGE MISS LATENCY PREFETCH: -nan cycles
L1I AVERAGE MSHR OCCUPANCY: 0
L1I MSHR FULL: 0
L1I RQ	ACCESS:   45623351	FORWARD:          0	MERGED:   10533323	TO_CACHE:   35090028

BTB TOTAL     ACCESS:    3509173  HIT:    3509164  MISS:          9  HIT %:    99.9997  MISS %: 0.000256471   MPKI: 4.5e-05
BTB Test counter:          0
BTB BRANCH_DIRECT_JUMP	ACCESS:        876  HIT:        874  MISS:          2
BTB BRANCH_INDIRECT	ACCESS:          0  HIT:          0  MISS:          0
BTB BRANCH_CONDITIONAL	ACCESS:    3506545  HIT:    3506542  MISS:          3
BTB BRANCH_DIRECT_CALL	ACCESS:        876  HIT:        874  MISS:          2
BTB BRANCH_INDIRECT_CALL	ACCESS:          0  HIT:          0  MISS:          0
BTB BRANCH_RETURN	ACCESS:        876  HIT:        874  MISS:          2
BTB BRANCH_OTHER ACCESS:          0  HIT:          0  MISS:          0

L2C TOTAL     ACCESS:   26348741  HIT:   24558862  MISS:    1789879  HIT %:     93.207  MISS %:    6.79303   MPKI: 8.94939
L2C Test counter:          0
L2C LOAD      ACCESS:     277781  HIT:     244820  MISS:      32961  HIT %:    88.1342  MISS %:    11.8658   MPKI: 0.164805
L2C DATA LOAD MPKI: 0.164805
L2C INSTRUCTION LOAD MPKI: 0
L2C RFO       ACCESS:       2633  HIT:       1864  MISS:        769  HIT %:    70.7938  MISS %:    29.2062   MPKI: 0.003845
L2C PREFETCH  ACCESS:   19431812  HIT:   17679259  MISS:    1752553  HIT %:     90.981  MISS %:    9.01899   MPKI: 8.76276
L2C DATA PREFETCH MPKI: 8.76276
L2C INSTRUCTION PREFETCH MPKI: 0
L2C WRITEBACK ACCESS:    1757439  HIT:    1757439  MISS:          0  HIT %:        100  MISS %:          0   MPKI: 0
L2C LOAD TRANSLATION ACCESS:      27464  HIT:      27403  MISS:         61  HIT %:    99.7779  MISS %:   0.222109   MPKI: 0.000305
L2C TRANSLATION FROM L1D PREFETCHER ACCESS:    4851612  HIT:    4848077  MISS:       3535  HIT %:    99.9271  MISS %:  0.0728624   MPKI: 0.017675
L2C PREFETCH  REQUESTED:          0  ISSUED:          0  USEFUL:     236624  USELESS:    1520177
L2C USEFUL LOAD PREFETCHES:     236624 PREFETCH ISSUED TO LOWER LEVEL:    1756068  ACCURACY: 13.4746
L2C TIMELY PREFETCHES:     236624 LATE PREFETCHES: 3515 DROPPED PREFETCHES: 0
L2C COMMIT LATE PREFETCHES: 0 MISSED OPPORTUNITY: 0 LATE IN PQ: 0 UNCOVERED: 0
L2C COMMIT LATE MSHR PREFETCHES: 0
L2C MPKI TOTAL: 0.164805 MSHR LATE: 0.017575 PQ LATE: 0 COMMIT LATE: 0 MISSED OPPORTUNITY: 0 UNCOVERED: 0
L2C PREFETCHES SAME FILL-ORIGIN LEVEL: 1652600 DIFFERENT FILL-ORIGIN LEVEL: 0
L2C AVERAGE MISS LATENCY: 193.048 cycles
L2C AVERAGE MISS LATENCY LOAD: 185.604 cycles
L2C AVERAGE MISS LATENCY PREFETCH: 193.107 cycles
L2C AVERAGE MSHR OCCUPANCY: 1.3778
L2C MSHR FULL: 0
L2C RQ	ACCESS:    5159491	FORWARD:          0	MERGED:          0	TO_CACHE:    5159491
L2C WQ	ACCESS:    1757439	FORWARD:          0	MERGED:          0	TO_CACHE:    1757439
L2C PQ	ACCESS:   21877757	FORWARD:          0	MERGED:        203	TO_CACHE:   21877554

L2C Instructions Evicting Data 0
L2C Translations Evicting Data 3594
L2C Data Evicting Data 1782683
L2C Instructions Evicting Instructions 0
L2C Translations Evicting Instructions 0
L2C Data Evicting Instructions 0
L2C Instructions Evicting Translations 0
L2C Translations Evicting Translations 2
L2C Data Evicting Translations 3600
L2C Dense regions hint from L2: 0
405c2a: 1
405d6a: 1
404bb2: 2
405d70: 5
405c30: 6
404533: 11
404bfc: 16
404a26: 17
404ba3: 17
4043c6: 17
405d16: 18
404375: 18
405d1d: 18
405d00: 19
404a74: 19
405bdd: 19
405bd6: 20
405acd: 21
405ac3: 21
405bc0: 21
405bf2: 39
404578: 53
40452b: 54
404be8: 67
40451c: 88
404580: 101
404552: 107
404561: 111
40450c: 115
404b33: 127
404b43: 131
405afe: 382
405b0d: 386
405cb2: 7289
405df2: 7316
405dec: 8103
405cac: 8205
PSCL5 TOTAL     ACCESS:    4877441  HIT:    4877441  MISS:          0  HIT %:        100  MISS %:          0   MPKI: 0
PSCL5 Test counter:          0
PSCL5 LOAD TRANSLATION ACCESS:      27450  HIT:      27450  MISS:          0  HIT %:        100  MISS %:          0   MPKI: 0
PSCL5 TRANSLATION FROM L1D PREFETCHER ACCESS:    4849991  HIT:    4849991  MISS:          0  HIT %:        100  MISS %:          0   MPKI: 0
PSCL5 PREFETCH  REQUESTED:          0  ISSUED:          0  USEFUL:          0  USELESS:          0
PSCL5 USEFUL LOAD PREFETCHES:          0 PREFETCH ISSUED TO LOWER LEVEL:          0  ACCURACY: -nan
PSCL5 TIMELY PREFETCHES:          0 LATE PREFETCHES: 0 DROPPED PREFETCHES: 0
PSCL5 COMMIT LATE PREFETCHES: 0 MISSED OPPORTUNITY: 0 LATE IN PQ: 0 UNCOVERED: 0
PSCL5 COMMIT LATE MSHR PREFETCHES: 0
PSCL5 MPKI TOTAL: 0 MSHR LATE: 0 PQ LATE: 0 COMMIT LATE: 0 MISSED OPPORTUNITY: 0 UNCOVERED: 0
PSCL5 PREFETCHES SAME FILL-ORIGIN LEVEL: 0 DIFFERENT FILL-ORIGIN LEVEL: 0

PSCL4 TOTAL     ACCESS:    4877441  HIT:    4877441  MISS:          0  HIT %:        100  MISS %:          0   MPKI: 0
PSCL4 Test counter:          0
PSCL4 LOAD TRANSLATION ACCESS:      27450  HIT:      27450  MISS:          0  HIT %:        100  MISS %:          0   MPKI: 0
PSCL4 TRANSLATION FROM L1D PREFETCHER ACCESS:    4849991  HIT:    4849991  MISS:          0  HIT %:        100  MISS %:          0   MPKI: 0
PSCL4 PREFETCH  REQUESTED:          0  ISSUED:          0  USEFUL:          0  USELESS:          0
PSCL4 USEFUL LOAD PREFETCHES:          0 PREFETCH ISSUED TO LOWER LEVEL:          0  ACCURACY: -nan
PSCL4 TIMELY PREFETCHES:          0 LATE PREFETCHES: 0 DROPPED PREFETCHES: 0
PSCL4 COMMIT LATE PREFETCHES: 0 MISSED OPPORTUNITY: 0 LATE IN PQ: 0 UNCOVERED: 0
PSCL4 COMMIT LATE MSHR PREFETCHES: 0
PSCL4 MPKI TOTAL: 0 MSHR LATE: 0 PQ LATE: 0 COMMIT LATE: 0 MISSED OPPORTUNITY: 0 UNCOVERED: 0
PSCL4 PREFETCHES SAME FILL-ORIGIN LEVEL: 0 DIFFERENT FILL-ORIGIN LEVEL: 0

PSCL3 TOTAL     ACCESS:    4775636  HIT:    4775626  MISS:         10  HIT %:    99.9998  MISS %: 0.000209396   MPKI: 5e-05
PSCL3 Test counter:          0
PSCL3 LOAD TRANSLATION ACCESS:      26934  HIT:      26924  MISS:         10  HIT %:    99.9629  MISS %:  0.0371278   MPKI: 5e-05
PSCL3 TRANSLATION FROM L1D PREFETCHER ACCESS:    4748702  HIT:    4748702  MISS:          0  HIT %:        100  MISS %:          0   MPKI: 0
PSCL3 PREFETCH  REQUESTED:          0  ISSUED:          0  USEFUL:          0  USELESS:          0
PSCL3 USEFUL LOAD PREFETCHES:          0 PREFETCH ISSUED TO LOWER LEVEL:          0  ACCURACY: -nan
PSCL3 TIMELY PREFETCHES:          0 LATE PREFETCHES: 0 DROPPED PREFETCHES: 0
PSCL3 COMMIT LATE PREFETCHES: 0 MISSED OPPORTUNITY: 0 LATE IN PQ: 0 UNCOVERED: 0
PSCL3 COMMIT LATE MSHR PREFETCHES: 0
PSCL3 MPKI TOTAL: 0 MSHR LATE: 0 PQ LATE: 0 COMMIT LATE: 0 MISSED OPPORTUNITY: 0 UNCOVERED: 0
PSCL3 PREFETCHES SAME FILL-ORIGIN LEVEL: 0 DIFFERENT FILL-ORIGIN LEVEL: 0

PSCL2 TOTAL     ACCESS:    4853540  HIT:    4853447  MISS:         93  HIT %:    99.9981  MISS %: 0.00191613   MPKI: 0.000465
PSCL2 Test counter:          0
PSCL2 LOAD TRANSLATION ACCESS:      27450  HIT:      27357  MISS:         93  HIT %:    99.6612  MISS %:   0.338798   MPKI: 0.000465
PSCL2 TRANSLATION FROM L1D PREFETCHER ACCESS:    4826090  HIT:    4826090  MISS:          0  HIT %:        100  MISS %:          0   MPKI: 0
PSCL2 PREFETCH  REQUESTED:          0  ISSUED:          0  USEFUL:          0  USELESS:          0
PSCL2 USEFUL LOAD PREFETCHES:          0 PREFETCH ISSUED TO LOWER LEVEL:          0  ACCURACY: -nan
PSCL2 TIMELY PREFETCHES:          0 LATE PREFETCHES: 0 DROPPED PREFETCHES: 0
PSCL2 COMMIT LATE PREFETCHES: 0 MISSED OPPORTUNITY: 0 LATE IN PQ: 0 UNCOVERED: 0
PSCL2 COMMIT LATE MSHR PREFETCHES: 0
PSCL2 MPKI TOTAL: 0 MSHR LATE: 0 PQ LATE: 0 COMMIT LATE: 0 MISSED OPPORTUNITY: 0 UNCOVERED: 0
PSCL2 PREFETCHES SAME FILL-ORIGIN LEVEL: 0 DIFFERENT FILL-ORIGIN LEVEL: 0

LLC TOTAL     ACCESS:    3544081  HIT:    1776769  MISS:    1767312  HIT %:    50.1334  MISS %:    49.8666   MPKI: 8.83656
LLC Test counter:          0
LLC LOAD      ACCESS:      29446  HIT:       1461  MISS:      27985  HIT %:    4.96162  MISS %:    95.0384   MPKI: 0.139925
LLC RFO       ACCESS:        769  HIT:        769  MISS:          0  HIT %:        100  MISS %:          0   MPKI: 0
LLC PREFETCH  ACCESS:    1756068  HIT:      20311  MISS:    1735757  HIT %:    1.15662  MISS %:    98.8434   MPKI: 8.67878
LLC WRITEBACK ACCESS:    1754202  HIT:    1754202  MISS:          0  HIT %:        100  MISS %:          0   MPKI: 0
LLC LOAD TRANSLATION ACCESS:         61  HIT:          3  MISS:         58  HIT %:    4.91803  MISS %:     95.082   MPKI: 0.00029
LLC TRANSLATION FROM L1D PREFETCHER ACCESS:       3535  HIT:         23  MISS:       3512  HIT %:   0.650636  MISS %:    99.3494   MPKI: 0.01756
LLC PREFETCH  REQUESTED:          0  ISSUED:          0  USEFUL:        190  USELESS:    1738989
LLC USEFUL LOAD PREFETCHES:        190 PREFETCH ISSUED TO LOWER LEVEL:    1735757  ACCURACY: 0.0109462
LLC TIMELY PREFETCHES:        190 LATE PREFETCHES: 0 DROPPED PREFETCHES: 0
LLC COMMIT LATE PREFETCHES: 0 MISSED OPPORTUNITY: 0 LATE IN PQ: 0 UNCOVERED: 0
LLC COMMIT LATE MSHR PREFETCHES: 0
LLC MPKI TOTAL: 0.139925 MSHR LATE: 0 PQ LATE: 0 COMMIT LATE: 0 MISSED OPPORTUNITY: 0 UNCOVERED: 0
LLC PREFETCHES SAME FILL-ORIGIN LEVEL: 0 DIFFERENT FILL-ORIGIN LEVEL: 0
LLC AVERAGE MISS LATENCY: 165.252 cycles
LLC AVERAGE MISS LATENCY LOAD: 169.69 cycles
LLC AVERAGE MISS LATENCY PREFETCH: 165.029 cycles
LLC AVERAGE MSHR OCCUPANCY: 1.16015
LLC MSHR FULL: 0
LLC RQ	ACCESS:      33811	FORWARD:          0	MERGED:          0	TO_CACHE:      33811
LLC WQ	ACCESS:    1754202	FORWARD:          0	MERGED:          0	TO_CACHE:    1754202
LLC PQ	ACCESS:    1756068	FORWARD:          0	MERGED:          0	TO_CACHE:    1756068

LLC Dense regions hint to LLC: 0
404533: 1
404b33: 1
404bb2: 2
405d70: 4
405c30: 4
404578: 9
404ba3: 11
40450c: 11
40451c: 13
4043c6: 13
404375: 13
404a26: 13
404bfc: 13
405d16: 13
405d1d: 14
405acd: 14
405d00: 14
405ac3: 14
404a74: 14
405bd6: 14
405bdd: 14
405bc0: 14
405bf2: 16
404b43: 26
40452b: 54
404561: 63
404552: 63
404580: 63
404be8: 64
405cb2: 6684
405df2: 6711
405dec: 7004
405cac: 7004

RAW hits: 3180
Loads Generated: 70169098
Loads sent to L1D: 70165918
Stores Generated: 14041090
Stores sent to L1D: 14041096
Major fault: 0 Minor fault: 34487
Allocated PAGES: 34487
Total Load insts: 87706968
Total Non-spec loads: 8676338
Percentage of speculative loads: 90.1076
L1D response latency: 36.9177 cycles
Load retirement latency: 61.7918 cycles

LATENCY_FILL: 37.5735 312727

DRAM Statistics
 CHANNEL 0
 RQ ROW_BUFFER_HIT:     336296  ROW_BUFFER_MISS:    1431016
 DBUS_CONGESTED:       1736
 WQ ROW_BUFFER_HIT:     963137  ROW_BUFFER_MISS:     790045  FULL:          0

 AVG_CONGESTED_CYCLE: 5
 All warmup complete: 2
Channel 0 Bank busy for read cycles: 0
Channel 0 Bank busy for write cycles: 0
Channel 0
Rank 0
0banks busy for read cycles: 44989403
0banks busy for write cycles: 84164
1banks busy for read cycles: 55739119
1banks busy for write cycles: 3393891
2banks busy for read cycles: 32679041
2banks busy for write cycles: 2490000
3banks busy for read cycles: 11673493
3banks busy for write cycles: 2249246
4banks busy for read cycles: 5887684
4banks busy for write cycles: 2049830
5banks busy for read cycles: 2587454
5banks busy for write cycles: 2249918
6banks busy for read cycles: 1579445
6banks busy for write cycles: 2980646
7banks busy for read cycles: 1345193
7banks busy for write cycles: 3678539
8banks busy for read cycles: 2504512
8banks busy for write cycles: 21082686

CPU 0 Branch Prediction Accuracy: 99.9751% MPKI: 0.00438 Average ROB Occupancy at Mispredict: 50.4886
Branch types
NOT_BRANCH: 196487440 98.2437%
BRANCH_DIRECT_JUMP: 876 0.000438%
BRANCH_INDIRECT: 0 0%
BRANCH_CONDITIONAL: 3509611 1.75481%
BRANCH_DIRECT_CALL: 876 0.000438%
BRANCH_INDIRECT_CALL: 0 0%
BRANCH_RETURN: 876 0.000438%
BRANCH_OTHER: 0 0%

DRAM PAGES: 1048576
Allocated PAGES: 34487
