
*** ChampSim Multicore Out-of-Order Simulator ***

Warmup Instructions: 50000000
Simulation Instructions: 200000000
Number of CPUs: 1
LLC sets: 2048
LLC ways: 16
Secure Berti: OFF
Berti: OFF
Berti Fill: OFF
On commit prefetching: OFF
L2 LLC Bypass speculative loads: OFF
Off-chip DRAM Size: 4096 MB Channels: 1 Width: 64-bit Data Rate: 6400 MT/s
CPU 0 runs /home/sumon/secure_berti/Berti_Baseline/../../traces/spec/654.roms_s-523B.champsimtrace.xz
.xz
BTB has LRU replacement policy
ITLB has LRU replacement policy
DTLB has LRU replacement policy
STLB has LRU replacement policy
L1I has LRU replacement policy
History Sets: 8
History Ways: 16
BERTI Size: 16
BERTI Stride Size: 16
L1D has LRU replacement policy
L2C has LRU replacement policy
LLC has LRU replacement policy
Heartbeat CPU 0 instructions: 10000002 cycles: 2874810 heartbeat IPC: 3.47849 cumulative IPC: 3.47849 (Simulation time: 0 hr 0 min 20 sec) 
Heartbeat CPU 0 instructions: 20000002 cycles: 5708752 heartbeat IPC: 3.52865 cumulative IPC: 3.50339 (Simulation time: 0 hr 0 min 37 sec) 
Heartbeat CPU 0 instructions: 30000003 cycles: 9207092 heartbeat IPC: 2.8585 cumulative IPC: 3.25836 (Simulation time: 0 hr 1 min 1 sec) 
Heartbeat CPU 0 instructions: 40000000 cycles: 12473906 heartbeat IPC: 3.06109 cumulative IPC: 3.20669 (Simulation time: 0 hr 1 min 21 sec) 
Heartbeat CPU 0 instructions: 50000001 cycles: 15547603 heartbeat IPC: 3.25341 cumulative IPC: 3.21593 (Simulation time: 0 hr 1 min 45 sec) 

Warmup complete CPU 0 instructions: 50000001 cycles: 15547603 (Simulation time: 0 hr 1 min 45 sec) 

Heartbeat CPU 0 instructions: 60000003 cycles: 25736350 heartbeat IPC: 0.981475 cumulative IPC: 0.981475 (Simulation time: 0 hr 2 min 17 sec) 
Heartbeat CPU 0 instructions: 70000000 cycles: 35190427 heartbeat IPC: 1.05774 cumulative IPC: 1.01818 (Simulation time: 0 hr 2 min 48 sec) 
Heartbeat CPU 0 instructions: 80000001 cycles: 44070380 heartbeat IPC: 1.12613 cumulative IPC: 1.05179 (Simulation time: 0 hr 3 min 18 sec) 
Heartbeat CPU 0 instructions: 90000003 cycles: 55317552 heartbeat IPC: 0.889113 cumulative IPC: 1.00578 (Simulation time: 0 hr 3 min 44 sec) 
Heartbeat CPU 0 instructions: 100000001 cycles: 66446450 heartbeat IPC: 0.898561 cumulative IPC: 0.982341 (Simulation time: 0 hr 4 min 7 sec) 
Heartbeat CPU 0 instructions: 110000000 cycles: 79040261 heartbeat IPC: 0.794041 cumulative IPC: 0.944991 (Simulation time: 0 hr 4 min 46 sec) 
Heartbeat CPU 0 instructions: 120000000 cycles: 92318318 heartbeat IPC: 0.753122 cumulative IPC: 0.911806 (Simulation time: 0 hr 5 min 21 sec) 
Heartbeat CPU 0 instructions: 130000002 cycles: 102502534 heartbeat IPC: 0.981912 cumulative IPC: 0.920017 (Simulation time: 0 hr 5 min 55 sec) 
Heartbeat CPU 0 instructions: 140000001 cycles: 112609855 heartbeat IPC: 0.989382 cumulative IPC: 0.92724 (Simulation time: 0 hr 6 min 31 sec) 
Heartbeat CPU 0 instructions: 150000000 cycles: 121879762 heartbeat IPC: 1.07876 cumulative IPC: 0.940449 (Simulation time: 0 hr 7 min 8 sec) 
Heartbeat CPU 0 instructions: 160000002 cycles: 130648607 heartbeat IPC: 1.1404 cumulative IPC: 0.955682 (Simulation time: 0 hr 7 min 42 sec) 
Heartbeat CPU 0 instructions: 170000003 cycles: 141956251 heartbeat IPC: 0.884358 cumulative IPC: 0.949302 (Simulation time: 0 hr 8 min 13 sec) 
Heartbeat CPU 0 instructions: 180000001 cycles: 152943825 heartbeat IPC: 0.910119 cumulative IPC: 0.946169 (Simulation time: 0 hr 8 min 39 sec) 
Heartbeat CPU 0 instructions: 190000003 cycles: 165560890 heartbeat IPC: 0.792578 cumulative IPC: 0.933251 (Simulation time: 0 hr 9 min 20 sec) 
Heartbeat CPU 0 instructions: 200000003 cycles: 178786359 heartbeat IPC: 0.756117 cumulative IPC: 0.918899 (Simulation time: 0 hr 9 min 56 sec) 
Heartbeat CPU 0 instructions: 210000002 cycles: 189071288 heartbeat IPC: 0.972296 cumulative IPC: 0.922064 (Simulation time: 0 hr 10 min 29 sec) 
Heartbeat CPU 0 instructions: 220000000 cycles: 199050807 heartbeat IPC: 1.00205 cumulative IPC: 0.926414 (Simulation time: 0 hr 11 min 4 sec) 
Heartbeat CPU 0 instructions: 230000000 cycles: 208061502 heartbeat IPC: 1.10979 cumulative IPC: 0.934997 (Simulation time: 0 hr 11 min 37 sec) 
Heartbeat CPU 0 instructions: 240000000 cycles: 216737173 heartbeat IPC: 1.15265 cumulative IPC: 0.944383 (Simulation time: 0 hr 12 min 5 sec) 
Heartbeat CPU 0 instructions: 250000001 cycles: 228102962 heartbeat IPC: 0.879833 cumulative IPC: 0.940931 (Simulation time: 0 hr 12 min 28 sec) 
Finished CPU 0 instructions: 200000000 cycles: 212555359 cumulative IPC: 0.940931 (Simulation time: 0 hr 12 min 28 sec) 

ChampSim completed all CPUs

Region of Interest Statistics

CPU 0 cumulative IPC: 0.940931 instructions: 200000000 cycles: 212555359
ITLB TOTAL     ACCESS:   30336893  HIT:   30336893  MISS:          0  HIT %:        100  MISS %:          0   MPKI: 0
ITLB Test counter:          0
ITLB LOAD TRANSLATION ACCESS:   30336893  HIT:   30336893  MISS:          0  HIT %:        100  MISS %:          0   MPKI: 0
ITLB PREFETCH  REQUESTED:          0  ISSUED:          0  USEFUL:          0  USELESS:          0
ITLB USEFUL LOAD PREFETCHES:          0 PREFETCH ISSUED TO LOWER LEVEL:          0  ACCURACY: -nan
ITLB TIMELY PREFETCHES:          0 LATE PREFETCHES: 0 DROPPED PREFETCHES: 0
ITLB COMMIT LATE PREFETCHES: 0 MISSED OPPORTUNITY: 0 LATE IN PQ: 0 UNCOVERED: 0
ITLB COMMIT LATE MSHR PREFETCHES: 0
ITLB MPKI TOTAL: 0 MSHR LATE: 0 PQ LATE: 0 COMMIT LATE: 0 MISSED OPPORTUNITY: 0 UNCOVERED: 0
ITLB PREFETCHES SAME FILL-ORIGIN LEVEL: 0 DIFFERENT FILL-ORIGIN LEVEL: 0
ITLB AVERAGE MISS LATENCY: -nan cycles
ITLB AVERAGE MISS LATENCY LOAD: -nan cycles
ITLB AVERAGE MISS LATENCY PREFETCH: -nan cycles
ITLB AVERAGE MSHR OCCUPANCY: 0
ITLB MSHR FULL: 0
ITLB RQ	ACCESS:   36210403	FORWARD:          0	MERGED:    5873511	TO_CACHE:   30336892

DTLB TOTAL     ACCESS:   54492079  HIT:   54391459  MISS:     100620  HIT %:    99.8153  MISS %:   0.184651   MPKI: 0.5031
DTLB Test counter:          0
DTLB LOAD TRANSLATION ACCESS:   54492079  HIT:   54391459  MISS:     100620  HIT %:    99.8153  MISS %:   0.184651   MPKI: 0.5031
DTLB PREFETCH  REQUESTED:          0  ISSUED:          0  USEFUL:          0  USELESS:          0
DTLB USEFUL LOAD PREFETCHES:          0 PREFETCH ISSUED TO LOWER LEVEL:          0  ACCURACY: -nan
DTLB TIMELY PREFETCHES:          0 LATE PREFETCHES: 0 DROPPED PREFETCHES: 0
DTLB COMMIT LATE PREFETCHES: 0 MISSED OPPORTUNITY: 0 LATE IN PQ: 0 UNCOVERED: 0
DTLB COMMIT LATE MSHR PREFETCHES: 0
DTLB MPKI TOTAL: 0 MSHR LATE: 0 PQ LATE: 0 COMMIT LATE: 0 MISSED OPPORTUNITY: 0 UNCOVERED: 0
DTLB PREFETCHES SAME FILL-ORIGIN LEVEL: 0 DIFFERENT FILL-ORIGIN LEVEL: 0
DTLB AVERAGE MISS LATENCY: 73.2177 cycles
DTLB AVERAGE MISS LATENCY LOAD: -nan cycles
DTLB AVERAGE MISS LATENCY PREFETCH: -nan cycles
DTLB AVERAGE MSHR OCCUPANCY: 0.0130613
DTLB MSHR FULL: 0
DTLB RQ	ACCESS:   60189523	FORWARD:          0	MERGED:    5608619	TO_CACHE:   54580904

STLB TOTAL     ACCESS:   25502697  HIT:   25402722  MISS:      99975  HIT %:     99.608  MISS %:   0.392017   MPKI: 0.499875
STLB Test counter:          0
STLB LOAD TRANSLATION ACCESS:     100620  HIT:      55238  MISS:      45382  HIT %:    54.8976  MISS %:    45.1024   MPKI: 0.22691
STLB TRANSLATION FROM L1D PREFETCHER ACCESS:   25402077  HIT:   25347484  MISS:      54593  HIT %:    99.7851  MISS %:   0.214915   MPKI: 0.272965
STLB PREFETCH  REQUESTED:          0  ISSUED:          0  USEFUL:      54585  USELESS:          6
STLB USEFUL LOAD PREFETCHES:      54585 PREFETCH ISSUED TO LOWER LEVEL:          0  ACCURACY: inf
STLB TIMELY PREFETCHES:      54585 LATE PREFETCHES: 1848 DROPPED PREFETCHES: 822357
STLB COMMIT LATE PREFETCHES: 0 MISSED OPPORTUNITY: 0 LATE IN PQ: 0 UNCOVERED: 0
STLB COMMIT LATE MSHR PREFETCHES: 0
STLB MPKI TOTAL: 0 MSHR LATE: 0.00924 PQ LATE: 0 COMMIT LATE: 0 MISSED OPPORTUNITY: 0 UNCOVERED: 0
STLB PREFETCHES SAME FILL-ORIGIN LEVEL: 0 DIFFERENT FILL-ORIGIN LEVEL: 0
STLB AVERAGE MISS LATENCY: 106.629 cycles
STLB AVERAGE MISS LATENCY LOAD: -nan cycles
STLB AVERAGE MISS LATENCY PREFETCH: -nan cycles
STLB AVERAGE MSHR OCCUPANCY: 0.0813902
STLB MSHR FULL: 0
STLB RQ	ACCESS:  106088008	FORWARD:          0	MERGED:   79676181	TO_CACHE:   26411827

STLB Hit, L1D data hit: 0
STLB Hit, L2C data hit: 0
STLB Hit, LLC data hit: 0
STLB Hit, LLC data miss: 0
STLB STLB hints to L2: 0
L1D TOTAL     ACCESS:  141860762  HIT:  136896367  MISS:    4964395  HIT %:    96.5005  MISS %:    3.49948   MPKI: 24.822
L1D Test counter:          0
L1D LOAD      ACCESS:   48595775  HIT:   48427877  MISS:     357885  HIT %:    99.6545  MISS %:   0.345499   MPKI: 0.83949
L1D RFO       ACCESS:    3632960  HIT:    2424767  MISS:    1208193  HIT %:    66.7436  MISS %:    33.2564   MPKI: 6.04096
L1D PREFETCH  ACCESS:   89632027  HIT:   86043723  MISS:    3588304  HIT %:    95.9966  MISS %:    4.00337   MPKI: 17.9415
L1D PREFETCH  REQUESTED:  304984016  ISSUED:  228081749  USEFUL:    3070136  USELESS:     518179
L1D USEFUL LOAD PREFETCHES:    3070136 PREFETCH ISSUED TO LOWER LEVEL:   12610831  ACCURACY: 24.3452
L1D TIMELY PREFETCHES:    3070136 LATE PREFETCHES: 45695 DROPPED PREFETCHES: 1471573
L1D COMMIT LATE PREFETCHES: 0 MISSED OPPORTUNITY: 0 LATE IN PQ: 37224 UNCOVERED: 0
L1D COMMIT LATE MSHR PREFETCHES: 0
L1D MPKI TOTAL: 1.78943 MSHR LATE: 0.228475 PQ LATE: 0.18612 COMMIT LATE: 0 MISSED OPPORTUNITY: 0 UNCOVERED: 0
L1D PREFETCHES SAME FILL-ORIGIN LEVEL: 3634593 DIFFERENT FILL-ORIGIN LEVEL: 8976238
L1D AVERAGE MISS LATENCY: 228.083 cycles
L1D AVERAGE MISS LATENCY LOAD: 107.271 cycles
L1D AVERAGE MISS LATENCY PREFETCH: 198.826 cycles
L1D AVERAGE MSHR OCCUPANCY: 5.90077
L1D MSHR FULL: 0.0109468
L1D RQ	ACCESS:   74182358	FORWARD:          0	MERGED:   25395787	TO_CACHE:   48785757
L1D WQ	ACCESS:   11403766	FORWARD:        814	MERGED:          0	TO_CACHE:   11403766
L1D PQ	ACCESS:  122094361	FORWARD:          0	MERGED:   16106973	TO_CACHE:  105987388

L1D UNIQUE REGIONS ACCESSED: 0
L1D REGIONS CONFLICTS: 0
L1D Cross Page Prefetch Requests: 18137861
L1D Same Page Prefetch Requests: 131153370
L1D ROI Sum of L1D PQ occupancy: 1792307698
L1D PREFETCHES PUSHED FROM L2C: 0
45a771: 1
45a769: 1
4599af: 1
45999f: 1
459dcc: 2
459a80: 2
45b365: 2
45b150: 2
45b308: 2
45b3b5: 2
45b47b: 2
459a8a: 2
459c93: 2
459ba7: 2
459b6c: 2
459997: 2
45b2b3: 2
45b165: 2
45b4b3: 2
45b408: 2
45b4e3: 2
45b4cb: 2
45b440: 2
4597de: 2
45b410: 2
45b3c8: 2
45b438: 2
45b2bd: 2
45b320: 2
45b2e0: 2
459f21: 2
4597fc: 2
45b1fb: 2
45b175: 2
459a92: 2
459cab: 2
45b2f8: 2
459aa8: 2
45b4f3: 2
459b9f: 2
459ccf: 2
45b2d0: 2
45b16d: 2
45b1bb: 2
459b5a: 2
45aa60: 2
459c53: 2
459cd6: 2
459b7f: 2
459c73: 2
459bc0: 2
459dc4: 2
459cc8: 2
459c9b: 2
459ac8: 2
459b8f: 2
459b64: 2
459e14: 2
459e24: 2
459f06: 2
459f5a: 2
459e04: 2
4598b6: 2
459f93: 2
45a0e2: 3
45a27d: 3
45a4f3: 3
45a6e8: 3
45a1bb: 3
45a44e: 3
45a0ea: 3
45a101: 3
45a1b4: 3
45a64e: 3
459fce: 3
45a044: 3
45a317: 3
45a332: 3
45a37f: 3
45a7e2: 3
459fd5: 3
45a296: 3
45a29c: 3
45a121: 3
45a6af: 3
45aaac: 3
45a119: 3
459ffc: 3
45a8e9: 3
45a9d1: 3
45a802: 3
459ff4: 3
45a703: 3
45a22c: 3
45a4ce: 3
45a3d2: 3
45a8b1: 3
45a5c8: 3
45aa7d: 3
45a28e: 3
45aa98: 3
45aa85: 3
45aabc: 3
45a5d8: 3
45aad5: 3
45add8: 3
459fdc: 3
45a5e8: 3
45a2cd: 3
45a55c: 3
45a7a4: 3
45a111: 3
45a4fb: 3
45a7d4: 3
45a1a0: 3
45a4e0: 3
45a646: 3
45a520: 3
45a3fa: 3
45a40a: 3
45a430: 3
45a9b9: 3
45a23c: 3
45a9f9: 3
45a4d8: 3
45a244: 3
45a54a: 3
45a656: 5
45a810: 7
45a78c: 7
45a848: 11
45adce: 13
45a977: 14
45a860: 15
45a87f: 16
45a854: 17
45a9a7: 18
45a8f0: 19
459f43: 19
45a868: 20
45b10b: 21
45b261: 25
459f48: 28
45b36f: 29
459a45: 29
459f0e: 31
45a711: 33
45ae77: 33
45a98f: 35
45b25c: 36
45a987: 37
459c04: 43
45b36a: 43
45aa6b: 44
45add3: 69
45a1ee: 78
45a57a: 80
45a6c4: 85
45a2c7: 88
4599f4: 108
45a910: 108
4599c0: 110
4599ce: 111
459a07: 113
459a25: 114
4598b0: 115
45a940: 117
459a3d: 124
4598a8: 129
459a68: 132
4599ff: 136
459908: 137
459d71: 153
45a0b9: 155
45b250: 165
45a570: 175
45a0b0: 178
459b10: 186
45aa1a: 190
45a130: 194
45aa10: 195
45b360: 219
459d6a: 256
459c00: 334
45a6f0: 337
45a33a: 349
45a479: 383
45a1e9: 385
45ac26: 386
45aef2: 399
45ab53: 403
45ab39: 404
45aedc: 405
45af04: 406
45b0f3: 410
45aed4: 413
45a91a: 426
45ab31: 428
45b133: 430
45aeb4: 433
45aeea: 435
45a47e: 491
45ad33: 577
45a945: 578
459eba: 592
45a70b: 596
45abf1: 711
45ab84: 712
45aebf: 716
45a31f: 803
45ae61: 838
459f36: 925
45ae71: 968
459d7b: 1024
45ad17: 1149
45ae4c: 1206
459eb0: 1228
45ad1e: 1419
459f29: 1450
459969: 1864
45993b: 2043
459d81: 2445
45a6b7: 2446
459d60: 2487
45ad3a: 2615
459920: 2717
45b266: 2859
45a2c0: 2911
45b375: 2990
45a2d5: 3030
45a6a3: 3063
45a95b: 3104
459958: 3131
45a928: 3147
459d8f: 3596
45994c: 3897
459936: 3967
459952: 4277
459c0c: 4861
459929: 4931
45ae67: 4934
459b1f: 5052
45a580: 5918
45ae52: 6177
45a1e0: 8571
45a470: 21301
45a0be: 21434
L1I TOTAL     ACCESS:   36210389  HIT:   36210357  MISS:         32  HIT %:    99.9999  MISS %: 8.83724e-05   MPKI: 0.00016
L1I Test counter:          0
L1I LOAD      ACCESS:   36210389  HIT:   36210357  MISS:         46  HIT %:    99.9999  MISS %: 8.83724e-05   MPKI: 0.00016
L1I PREFETCH  REQUESTED:          0  ISSUED:          0  USEFUL:          0  USELESS:          0
L1I USEFUL LOAD PREFETCHES:          0 PREFETCH ISSUED TO LOWER LEVEL:          0  ACCURACY: -nan
L1I TIMELY PREFETCHES:          0 LATE PREFETCHES: 0 DROPPED PREFETCHES: 0
L1I COMMIT LATE PREFETCHES: 0 MISSED OPPORTUNITY: 0 LATE IN PQ: 0 UNCOVERED: 0
L1I COMMIT LATE MSHR PREFETCHES: 0
L1I MPKI TOTAL: 0.00023 MSHR LATE: 0 PQ LATE: 0 COMMIT LATE: 0 MISSED OPPORTUNITY: 0 UNCOVERED: 0
L1I PREFETCHES SAME FILL-ORIGIN LEVEL: 0 DIFFERENT FILL-ORIGIN LEVEL: 0
L1I AVERAGE MISS LATENCY: 283.469 cycles
L1I AVERAGE MISS LATENCY LOAD: 283.469 cycles
L1I AVERAGE MISS LATENCY PREFETCH: -nan cycles
L1I AVERAGE MSHR OCCUPANCY: 1.04942e-06
L1I MSHR FULL: 0
L1I RQ	ACCESS:   53144344	FORWARD:          0	MERGED:   16933941	TO_CACHE:   36210403

45a387: 1
45a347: 1
45a244: 1
45a503: 1
45a2c0: 1
45a286: 1
45a1c3: 1
45a310: 1
45a040: 1
45a402: 1
45a004: 1
45a3c2: 1
45a784: 1
45a180: 1
45a081: 1
45a0c3: 1
45a7c6: 1
45a440: 1
45a646: 1
45a200: 1
45a101: 1
45a140: 1
45a484: 1
45a4c0: 1
45a5c3: 1
45a540: 1
45a580: 1
45a683: 1
45a600: 1
45a703: 1
45a6c4: 1
45a747: 1
BTB TOTAL     ACCESS:   12959621  HIT:   12959575  MISS:         46  HIT %:    99.9996  MISS %: 0.000354949   MPKI: 0.00023
BTB Test counter:          0
BTB BRANCH_DIRECT_JUMP	ACCESS:    1451293  HIT:    1451288  MISS:          5
BTB BRANCH_INDIRECT	ACCESS:          0  HIT:          0  MISS:          0
BTB BRANCH_CONDITIONAL	ACCESS:   11508328  HIT:   11508287  MISS:         41
BTB BRANCH_DIRECT_CALL	ACCESS:          0  HIT:          0  MISS:          0
BTB BRANCH_INDIRECT_CALL	ACCESS:          0  HIT:          0  MISS:          0
BTB BRANCH_RETURN	ACCESS:          0  HIT:          0  MISS:          0
BTB BRANCH_OTHER ACCESS:          0  HIT:          0  MISS:          0

L2C TOTAL     ACCESS:   13324787  HIT:    8419963  MISS:    4904824  HIT %:    63.1902  MISS %:    36.8098   MPKI: 24.5241
L2C Test counter:          0
L2C LOAD      ACCESS:     122221  HIT:      65165  MISS:      57056  HIT %:    53.3174  MISS %:    46.6826   MPKI: 0.28528
L2C DATA LOAD MPKI: 0.28512
L2C INSTRUCTION LOAD MPKI: 0.00016
L2C RFO       ACCESS:    1208192  HIT:          0  MISS:    1208192  HIT %:          0  MISS %:        100   MPKI: 6.04096
L2C PREFETCH  ACCESS:    9593623  HIT:    5975210  MISS:    3618413  HIT %:    62.2831  MISS %:    37.7169   MPKI: 18.0921
L2C DATA PREFETCH MPKI: 18.0921
L2C INSTRUCTION PREFETCH MPKI: 0
L2C WRITEBACK ACCESS:    1476367  HIT:    1476228  MISS:        139  HIT %:    99.9906  MISS %:   0.009415   MPKI: 0.000695
L2C LOAD TRANSLATION ACCESS:      45349  HIT:      38381  MISS:       6968  HIT %:    84.6347  MISS %:    15.3653   MPKI: 0.03484
L2C TRANSLATION FROM L1D PREFETCHER ACCESS:     879035  HIT:     864979  MISS:      14056  HIT %:     98.401  MISS %:    1.59903   MPKI: 0.07028
L2C PREFETCH  REQUESTED:          0  ISSUED:          0  USEFUL:      67195  USELESS:    3565048
L2C USEFUL LOAD PREFETCHES:      67195 PREFETCH ISSUED TO LOWER LEVEL:    3626568  ACCURACY: 1.85285
L2C TIMELY PREFETCHES:      67195 LATE PREFETCHES: 8153 DROPPED PREFETCHES: 0
L2C COMMIT LATE PREFETCHES: 0 MISSED OPPORTUNITY: 0 LATE IN PQ: 0 UNCOVERED: 0
L2C COMMIT LATE MSHR PREFETCHES: 0
L2C MPKI TOTAL: 0.28528 MSHR LATE: 0.040765 PQ LATE: 0 COMMIT LATE: 0 MISSED OPPORTUNITY: 0 UNCOVERED: 0
L2C PREFETCHES SAME FILL-ORIGIN LEVEL: 1455456 DIFFERENT FILL-ORIGIN LEVEL: 0
L2C AVERAGE MISS LATENCY: 304.659 cycles
L2C AVERAGE MISS LATENCY LOAD: 281.894 cycles
L2C AVERAGE MISS LATENCY PREFETCH: 300.913 cycles
L2C AVERAGE MSHR OCCUPANCY: 7.96007
L2C MSHR FULL: 0.0401482
L2C RQ	ACCESS:    2254811	FORWARD:          0	MERGED:          0	TO_CACHE:    2254797
L2C WQ	ACCESS:    1476367	FORWARD:         14	MERGED:          0	TO_CACHE:    1476367
L2C PQ	ACCESS:   12566673	FORWARD:          0	MERGED:       6343	TO_CACHE:   12560330

L2C Instructions Evicting Data 30
L2C Translations Evicting Data 20956
L2C Data Evicting Data 4862637
L2C Instructions Evicting Instructions 0
L2C Translations Evicting Instructions 0
L2C Data Evicting Instructions 32
L2C Instructions Evicting Translations 2
L2C Translations Evicting Translations 68
L2C Data Evicting Translations 20960
L2C Dense regions hint from L2: 0
45a180: 1
45a503: 1
45a200: 1
45a310: 1
45a081: 1
45a540: 1
45a0c3: 1
45a784: 1
45a747: 1
45a484: 1
45a140: 1
45a7c6: 1
45a683: 1
45a600: 1
45a5c3: 1
45a286: 1
45a3c2: 1
4599af: 1
45a771: 1
45a769: 1
45a1c3: 1
45a4c0: 1
45a402: 1
45a440: 1
45999f: 1
45a387: 1
45a347: 1
45a040: 1
45a004: 1
45b308: 2
459b7f: 2
459a8a: 2
459997: 2
459b6c: 2
459c93: 2
45b2e0: 2
45b2bd: 2
45b440: 2
459ba7: 2
459b5a: 2
459f21: 2
4597fc: 2
45b1fb: 2
45b3c8: 2
45b2f8: 2
459aa8: 2
459b9f: 2
459ccf: 2
45b16d: 2
45b4f3: 2
45b1bb: 2
45b175: 2
459cab: 2
459dcc: 2
45ae77: 2
45b365: 2
45b320: 2
45b2b3: 2
45b165: 2
459a92: 2
45b47b: 2
45b150: 2
459b64: 2
45b3b5: 2
459e24: 2
45b408: 2
459e04: 2
45b4e3: 2
45b4b3: 2
45b2d0: 2
459f06: 2
45b410: 2
45b4cb: 2
45b438: 2
459bc0: 2
459cd6: 2
459b8f: 2
459ac8: 2
4597de: 2
459a80: 2
4598b6: 2
459cc8: 2
459c9b: 2
459e14: 2
459dc4: 2
459c53: 2
459f5a: 2
459f93: 2
459c73: 2
459a45: 2
459fd5: 3
45a6e8: 3
45a29c: 3
45a0ea: 3
45a44e: 3
45a22c: 3
45a4ce: 3
45a5e8: 3
459ffc: 3
45aaac: 3
45a5c8: 3
45a5d8: 3
45a7d4: 3
45a64e: 3
45a1a0: 3
45a1b4: 3
45a6af: 3
45a2cd: 3
45a0e2: 3
45a1bb: 3
45a7e2: 3
45a3d2: 3
45a802: 3
459ff4: 3
45a296: 3
45a8b1: 3
45a121: 3
45a8e9: 3
45add8: 3
45a4f3: 3
45a4d8: 3
45a317: 3
45a9d1: 3
45a332: 3
45a37f: 3
459fdc: 3
45a520: 3
45a4e0: 3
45a54a: 3
45a3fa: 3
45a40a: 3
45a430: 3
45a55c: 3
45a4fb: 3
45a111: 3
45a23c: 3
45a28e: 3
45a7a4: 3
45a044: 3
45a9b9: 3
459fce: 3
45a9f9: 3
45aa7d: 3
45ad33: 3
45a119: 3
45aa98: 3
45aa85: 3
45a27d: 3
45aabc: 3
45aad5: 3
45ae61: 3
45a244: 4
45a101: 4
45a646: 4
45a703: 4
45a656: 5
45a810: 6
45a78c: 7
45a848: 8
45abf1: 9
45aebf: 10
45a977: 10
459a25: 10
45a860: 11
45a868: 11
45ab84: 11
45a854: 12
459908: 12
4599ce: 12
459f43: 12
45a9a7: 13
459d71: 13
4599ff: 13
459a68: 14
45a87f: 14
45a98f: 15
45ab53: 15
4598a8: 15
45a8f0: 16
4598b0: 16
459f48: 17
45a987: 18
45b133: 19
45aeea: 19
459f0e: 20
45ab31: 20
45b0f3: 21
45aef2: 21
45ab39: 21
45b261: 22
45b25c: 22
459929: 23
45ac26: 23
459d6a: 23
45b36f: 24
459c04: 25
45a711: 27
45b36a: 29
45a910: 31
45a1ee: 31
45a945: 31
45a940: 33
45a6c4: 34
45a6f0: 37
45ae67: 37
45a91a: 39
45a33a: 41
45b250: 42
45a57a: 43
45ad3a: 44
45a2c7: 49
45b360: 51
459b10: 55
45a47e: 59
45a31f: 60
45a0b0: 71
45a0b9: 75
45a570: 87
45aa10: 89
45ad1e: 93
45aa1a: 103
45ad17: 114
459c00: 116
459eba: 118
45a130: 131
45a70b: 142
459d60: 147
459f36: 291
45a479: 315
45ae4c: 364
459952: 367
45a1e9: 385
459eb0: 478
45ae52: 620
459d8f: 984
459d7b: 1024
459d81: 1120
459969: 1254
459958: 1292
459f29: 1294
45993b: 1307
45a2d5: 1739
45a6b7: 1769
45b375: 1797
45b266: 1877
459c0c: 1945
459920: 1962
45a928: 2009
45a2c0: 2035
45a95b: 2052
45994c: 2113
459936: 2201
45a6a3: 2233
45a580: 2383
459b1f: 2386
45a1e0: 2992
45a470: 5059
45a0be: 6372
PSCL5 TOTAL     ACCESS:     924028  HIT:     924028  MISS:          0  HIT %:        100  MISS %:          0   MPKI: 0
PSCL5 Test counter:          0
PSCL5 LOAD TRANSLATION ACCESS:      45230  HIT:      45230  MISS:          0  HIT %:        100  MISS %:          0   MPKI: 0
PSCL5 TRANSLATION FROM L1D PREFETCHER ACCESS:     878798  HIT:     878798  MISS:          0  HIT %:        100  MISS %:          0   MPKI: 0
PSCL5 PREFETCH  REQUESTED:          0  ISSUED:          0  USEFUL:          0  USELESS:          0
PSCL5 USEFUL LOAD PREFETCHES:          0 PREFETCH ISSUED TO LOWER LEVEL:          0  ACCURACY: -nan
PSCL5 TIMELY PREFETCHES:          0 LATE PREFETCHES: 0 DROPPED PREFETCHES: 0
PSCL5 COMMIT LATE PREFETCHES: 0 MISSED OPPORTUNITY: 0 LATE IN PQ: 0 UNCOVERED: 0
PSCL5 COMMIT LATE MSHR PREFETCHES: 0
PSCL5 MPKI TOTAL: 0 MSHR LATE: 0 PQ LATE: 0 COMMIT LATE: 0 MISSED OPPORTUNITY: 0 UNCOVERED: 0
PSCL5 PREFETCHES SAME FILL-ORIGIN LEVEL: 0 DIFFERENT FILL-ORIGIN LEVEL: 0

PSCL4 TOTAL     ACCESS:     924028  HIT:     924028  MISS:          0  HIT %:        100  MISS %:          0   MPKI: 0
PSCL4 Test counter:          0
PSCL4 LOAD TRANSLATION ACCESS:      45230  HIT:      45230  MISS:          0  HIT %:        100  MISS %:          0   MPKI: 0
PSCL4 TRANSLATION FROM L1D PREFETCHER ACCESS:     878798  HIT:     878798  MISS:          0  HIT %:        100  MISS %:          0   MPKI: 0
PSCL4 PREFETCH  REQUESTED:          0  ISSUED:          0  USEFUL:          0  USELESS:          0
PSCL4 USEFUL LOAD PREFETCHES:          0 PREFETCH ISSUED TO LOWER LEVEL:          0  ACCURACY: -nan
PSCL4 TIMELY PREFETCHES:          0 LATE PREFETCHES: 0 DROPPED PREFETCHES: 0
PSCL4 COMMIT LATE PREFETCHES: 0 MISSED OPPORTUNITY: 0 LATE IN PQ: 0 UNCOVERED: 0
PSCL4 COMMIT LATE MSHR PREFETCHES: 0
PSCL4 MPKI TOTAL: 0 MSHR LATE: 0 PQ LATE: 0 COMMIT LATE: 0 MISSED OPPORTUNITY: 0 UNCOVERED: 0
PSCL4 PREFETCHES SAME FILL-ORIGIN LEVEL: 0 DIFFERENT FILL-ORIGIN LEVEL: 0

PSCL3 TOTAL     ACCESS:     924028  HIT:     924028  MISS:          0  HIT %:        100  MISS %:          0   MPKI: 0
PSCL3 Test counter:          0
PSCL3 LOAD TRANSLATION ACCESS:      45230  HIT:      45230  MISS:          0  HIT %:        100  MISS %:          0   MPKI: 0
PSCL3 TRANSLATION FROM L1D PREFETCHER ACCESS:     878798  HIT:     878798  MISS:          0  HIT %:        100  MISS %:          0   MPKI: 0
PSCL3 PREFETCH  REQUESTED:          0  ISSUED:          0  USEFUL:          0  USELESS:          0
PSCL3 USEFUL LOAD PREFETCHES:          0 PREFETCH ISSUED TO LOWER LEVEL:          0  ACCURACY: -nan
PSCL3 TIMELY PREFETCHES:          0 LATE PREFETCHES: 0 DROPPED PREFETCHES: 0
PSCL3 COMMIT LATE PREFETCHES: 0 MISSED OPPORTUNITY: 0 LATE IN PQ: 0 UNCOVERED: 0
PSCL3 COMMIT LATE MSHR PREFETCHES: 0
PSCL3 MPKI TOTAL: 0 MSHR LATE: 0 PQ LATE: 0 COMMIT LATE: 0 MISSED OPPORTUNITY: 0 UNCOVERED: 0
PSCL3 PREFETCHES SAME FILL-ORIGIN LEVEL: 0 DIFFERENT FILL-ORIGIN LEVEL: 0

PSCL2 TOTAL     ACCESS:     915705  HIT:     915471  MISS:        234  HIT %:    99.9744  MISS %:  0.0255541   MPKI: 0.00117
PSCL2 Test counter:          0
PSCL2 LOAD TRANSLATION ACCESS:      45280  HIT:      45046  MISS:        234  HIT %:    99.4832  MISS %:   0.516784   MPKI: 0.00117
PSCL2 TRANSLATION FROM L1D PREFETCHER ACCESS:     870425  HIT:     870425  MISS:          0  HIT %:        100  MISS %:          0   MPKI: 0
PSCL2 PREFETCH  REQUESTED:          0  ISSUED:          0  USEFUL:          0  USELESS:          0
PSCL2 USEFUL LOAD PREFETCHES:          0 PREFETCH ISSUED TO LOWER LEVEL:          0  ACCURACY: -nan
PSCL2 TIMELY PREFETCHES:          0 LATE PREFETCHES: 0 DROPPED PREFETCHES: 0
PSCL2 COMMIT LATE PREFETCHES: 0 MISSED OPPORTUNITY: 0 LATE IN PQ: 0 UNCOVERED: 0
PSCL2 COMMIT LATE MSHR PREFETCHES: 0
PSCL2 MPKI TOTAL: 0 MSHR LATE: 0 PQ LATE: 0 COMMIT LATE: 0 MISSED OPPORTUNITY: 0 UNCOVERED: 0
PSCL2 PREFETCHES SAME FILL-ORIGIN LEVEL: 0 DIFFERENT FILL-ORIGIN LEVEL: 0

LLC TOTAL     ACCESS:    6379203  HIT:    1474843  MISS:    4904360  HIT %:    23.1195  MISS %:    76.8805   MPKI: 24.5218
LLC Test counter:          0
LLC LOAD      ACCESS:      48903  HIT:        235  MISS:      48668  HIT %:   0.480543  MISS %:    99.5195   MPKI: 0.24334
LLC RFO       ACCESS:    1208192  HIT:          1  MISS:    1208191  HIT %: 8.27683e-05  MISS %:    99.9999   MPKI: 6.04096
LLC PREFETCH  ACCESS:    3626566  HIT:        125  MISS:    3626441  HIT %: 0.00344679  MISS %:    99.9966   MPKI: 18.1322
LLC WRITEBACK ACCESS:    1474518  HIT:    1474425  MISS:         93  HIT %:    99.9937  MISS %: 0.00630715   MPKI: 0.000465
LLC LOAD TRANSLATION ACCESS:       6968  HIT:         16  MISS:       6952  HIT %:   0.229621  MISS %:    99.7704   MPKI: 0.03476
LLC TRANSLATION FROM L1D PREFETCHER ACCESS:      14056  HIT:         41  MISS:      14015  HIT %:    0.29169  MISS %:    99.7083   MPKI: 0.070075
LLC PREFETCH  REQUESTED:          0  ISSUED:          0  USEFUL:         13  USELESS:    3641144
LLC USEFUL LOAD PREFETCHES:         13 PREFETCH ISSUED TO LOWER LEVEL:    3626443  ACCURACY: 0.000358478
LLC TIMELY PREFETCHES:         13 LATE PREFETCHES: 0 DROPPED PREFETCHES: 0
LLC COMMIT LATE PREFETCHES: 0 MISSED OPPORTUNITY: 0 LATE IN PQ: 0 UNCOVERED: 0
LLC COMMIT LATE MSHR PREFETCHES: 0
LLC MPKI TOTAL: 0.24334 MSHR LATE: 0 PQ LATE: 0 COMMIT LATE: 0 MISSED OPPORTUNITY: 0 UNCOVERED: 0
LLC PREFETCHES SAME FILL-ORIGIN LEVEL: 0 DIFFERENT FILL-ORIGIN LEVEL: 0
LLC AVERAGE MISS LATENCY: 274.583 cycles
LLC AVERAGE MISS LATENCY LOAD: 266.882 cycles
LLC AVERAGE MISS LATENCY PREFETCH: 270.704 cycles
LLC AVERAGE MSHR OCCUPANCY: 6.95731
LLC MSHR FULL: 0
LLC RQ	ACCESS:    1278119	FORWARD:          0	MERGED:          0	TO_CACHE:    1278119
LLC WQ	ACCESS:    1474518	FORWARD:          0	MERGED:          0	TO_CACHE:    1474518
LLC PQ	ACCESS:    3626568	FORWARD:          0	MERGED:          0	TO_CACHE:    3626568

LLC Dense regions hint to LLC: 0
45a140: 1
45a040: 1
45a484: 1
45a081: 1
45a310: 1
45a0c3: 1
45a540: 1
45a784: 1
45a747: 1
45a771: 1
45a180: 1
45a7c6: 1
45a3c2: 1
45a683: 1
45a600: 1
45a5c3: 1
45a286: 1
4599af: 1
45a769: 1
45a1c3: 1
45a4c0: 1
45a402: 1
45a440: 1
45999f: 1
45a387: 1
45a347: 1
45a004: 1
45a503: 1
45a200: 1
459997: 2
459a8a: 2
459b6c: 2
459b7f: 2
45b308: 2
45b133: 2
45b2bd: 2
45b440: 2
45b2e0: 2
45b175: 2
459c93: 2
45b4f3: 2
459f21: 2
4597fc: 2
45b1fb: 2
45abf1: 2
45b3c8: 2
45b2f8: 2
459aa8: 2
45aa7d: 2
459b9f: 2
459ccf: 2
45b16d: 2
45b150: 2
45b1bb: 2
459b5a: 2
459cab: 2
459dcc: 2
45ae77: 2
45b365: 2
45b320: 2
45b2b3: 2
45b165: 2
459a92: 2
45b47b: 2
459c73: 2
459dc4: 2
45b4e3: 2
459b8f: 2
4597de: 2
459e04: 2
459bc0: 2
45b408: 2
45b2d0: 2
45b4cb: 2
459c53: 2
459e24: 2
45b3b5: 2
459e14: 2
459cd6: 2
45b438: 2
45b410: 2
45b4b3: 2
459a80: 2
459b64: 2
4598b6: 2
459f93: 2
459f06: 2
459ac8: 2
459ba7: 2
459cc8: 2
459c9b: 2
459f5a: 2
459a45: 2
45a044: 3
45a121: 3
45a44e: 3
45a0ea: 3
45a29c: 3
459fd5: 3
45a3d2: 3
45a0e2: 3
459ff4: 3
45a296: 3
45a8b1: 3
459ffc: 3
45a7d4: 3
45aeea: 3
45a5c8: 3
45b0f3: 3
45a64e: 3
45a6af: 3
45aaac: 3
45a5d8: 3
45a1bb: 3
45a7e2: 3
45a802: 3
45a1a0: 3
45a1b4: 3
45a4f3: 3
45a2cd: 3
45a8e9: 3
45a332: 3
45a27d: 3
45a22c: 3
45ad33: 3
45add8: 3
45a4e0: 3
45a55c: 3
45a54a: 3
45a4d8: 3
45a317: 3
45a9d1: 3
45ae61: 3
45a37f: 3
459fdc: 3
45a520: 3
45a4fb: 3
45a3fa: 3
45a40a: 3
45a430: 3
45a111: 3
45a23c: 3
45a28e: 3
45a4ce: 3
45a6e8: 3
45a7a4: 3
45a9b9: 3
45a9f9: 3
45a5e8: 3
45aa98: 3
459fce: 3
45aa85: 3
45aabc: 3
45a119: 3
45aad5: 3
45a848: 3
45a244: 4
45a703: 4
45a646: 4
45a656: 4
45aef2: 4
45a101: 4
45a860: 4
45ab31: 5
45a9a7: 5
45a987: 5
45ab53: 5
45a868: 5
45a810: 5
45ab39: 5
45ab84: 5
45a98f: 5
45a78c: 6
45ac26: 6
45a977: 6
459d71: 6
45aebf: 6
45a87f: 7
45a854: 8
45a8f0: 8
459a68: 10
4598a8: 10
4599ce: 10
459a25: 10
4598b0: 12
459f43: 12
4599ff: 12
459908: 12
45a47e: 14
459f48: 16
459f0e: 20
45b25c: 22
45b261: 22
459d6a: 23
45b36f: 23
459929: 23
459c04: 23
45b360: 25
45a711: 27
45a1ee: 28
45b36a: 28
45a945: 30
45a910: 31
45b250: 32
45a940: 33
45a2c7: 34
45a6c4: 34
45a570: 35
45a91a: 36
45ae67: 36
45a6f0: 36
45a33a: 37
459b10: 38
45a57a: 38
45a0b0: 41
45a130: 42
45a0b9: 42
45ad3a: 43
45a31f: 48
459c00: 49
45aa1a: 51
45aa10: 57
45ad1e: 91
459eba: 100
45ad17: 114
459d60: 116
45a70b: 136
459952: 257
459f36: 263
45a479: 315
45ae4c: 364
45a1e9: 385
459eb0: 475
45ae52: 620
459d8f: 847
459d7b: 1024
459d81: 1044
459958: 1201
459969: 1223
45993b: 1247
459f29: 1282
45a2d5: 1691
45a6b7: 1739
45b375: 1759
459920: 1841
45b266: 1855
45a928: 1881
45a95b: 1889
45994c: 1892
45a2c0: 1905
459c0c: 1928
459936: 2083
45a6a3: 2146
459b1f: 2340
45a580: 2357
45a470: 2671
45a1e0: 2789
45a0be: 3121

RAW hits: 22916
Loads Generated: 74205272
Loads sent to L1D: 74182358
Stores Generated: 11403765
Stores sent to L1D: 11403766
Major fault: 0 Minor fault: 35137
Allocated PAGES: 35137
Total Load insts: 91266752
Total Non-spec loads: 7032842
Percentage of speculative loads: 92.2942
L1D response latency: 147.383 cycles
Load retirement latency: 257.596 cycles

LATENCY_FILL: 126.662 167586

DRAM Statistics
 CHANNEL 0
 RQ ROW_BUFFER_HIT:     740698  ROW_BUFFER_MISS:    4163569
 DBUS_CONGESTED:        220
 WQ ROW_BUFFER_HIT:     225870  ROW_BUFFER_MISS:    1247523  FULL:          0

 AVG_CONGESTED_CYCLE: 5
 All warmup complete: 2
Channel 0 Bank busy for read cycles: 0
Channel 0 Bank busy for write cycles: 0
Channel 0
Rank 0
0banks busy for read cycles: 123508
0banks busy for write cycles: 39
1banks busy for read cycles: 20917136
1banks busy for write cycles: 215162
2banks busy for read cycles: 32478332
2banks busy for write cycles: 214776
3banks busy for read cycles: 33247304
3banks busy for write cycles: 213099
4banks busy for read cycles: 26955085
4banks busy for write cycles: 215608
5banks busy for read cycles: 20316659
5banks busy for write cycles: 215114
6banks busy for read cycles: 15850898
6banks busy for write cycles: 228594
7banks busy for read cycles: 12388873
7banks busy for write cycles: 1885854
8banks busy for read cycles: 14379708
8banks busy for write cycles: 32709611

CPU 0 Branch Prediction Accuracy: 99.8522% MPKI: 0.096965 Average ROB Occupancy at Mispredict: 67.8505
Branch types
NOT_BRANCH: 186881132 93.4406%
BRANCH_DIRECT_JUMP: 1451293 0.725646%
BRANCH_INDIRECT: 0 0%
BRANCH_CONDITIONAL: 11667242 5.83362%
BRANCH_DIRECT_CALL: 0 0%
BRANCH_INDIRECT_CALL: 0 0%
BRANCH_RETURN: 0 0%
BRANCH_OTHER: 0 0%

DRAM PAGES: 1048576
Allocated PAGES: 35137
