
*** ChampSim Multicore Out-of-Order Simulator ***

Warmup Instructions: 50000000
Simulation Instructions: 200000000
Number of CPUs: 1
LLC sets: 2048
LLC ways: 16
Secure Berti: OFF
Berti: OFF
Berti Fill: OFF
On commit prefetching: OFF
L2 LLC Bypass speculative loads: OFF
Off-chip DRAM Size: 4096 MB Channels: 1 Width: 64-bit Data Rate: 6400 MT/s
CPU 0 runs /home/sumon/secure_berti/Berti_Baseline/../../traces/spec/654.roms_s-1070B.champsimtrace.xz
.xz
BTB has LRU replacement policy
ITLB has LRU replacement policy
DTLB has LRU replacement policy
STLB has LRU replacement policy
L1I has LRU replacement policy
History Sets: 8
History Ways: 16
BERTI Size: 16
BERTI Stride Size: 16
L1D has LRU replacement policy
L2C has LRU replacement policy
LLC has LRU replacement policy
Heartbeat CPU 0 instructions: 10000002 cycles: 3109998 heartbeat IPC: 3.21544 cumulative IPC: 3.21544 (Simulation time: 0 hr 0 min 21 sec) 
Heartbeat CPU 0 instructions: 20000002 cycles: 6328652 heartbeat IPC: 3.10689 cumulative IPC: 3.16023 (Simulation time: 0 hr 0 min 42 sec) 
Heartbeat CPU 0 instructions: 30000003 cycles: 9357607 heartbeat IPC: 3.30147 cumulative IPC: 3.20595 (Simulation time: 0 hr 1 min 3 sec) 
Heartbeat CPU 0 instructions: 40000001 cycles: 12660333 heartbeat IPC: 3.0278 cumulative IPC: 3.15947 (Simulation time: 0 hr 1 min 25 sec) 
Heartbeat CPU 0 instructions: 50000001 cycles: 15847011 heartbeat IPC: 3.13806 cumulative IPC: 3.15517 (Simulation time: 0 hr 1 min 47 sec) 

Warmup complete CPU 0 instructions: 50000001 cycles: 15847011 (Simulation time: 0 hr 1 min 47 sec) 

Heartbeat CPU 0 instructions: 60000000 cycles: 30762296 heartbeat IPC: 0.670453 cumulative IPC: 0.670453 (Simulation time: 0 hr 2 min 24 sec) 
Heartbeat CPU 0 instructions: 70000002 cycles: 39725120 heartbeat IPC: 1.11572 cumulative IPC: 0.837587 (Simulation time: 0 hr 2 min 51 sec) 
Heartbeat CPU 0 instructions: 80000003 cycles: 50627163 heartbeat IPC: 0.917259 cumulative IPC: 0.862561 (Simulation time: 0 hr 3 min 22 sec) 
Heartbeat CPU 0 instructions: 90000000 cycles: 63657396 heartbeat IPC: 0.767446 cumulative IPC: 0.836638 (Simulation time: 0 hr 4 min 1 sec) 
Heartbeat CPU 0 instructions: 100000003 cycles: 71993839 heartbeat IPC: 1.19955 cumulative IPC: 0.890522 (Simulation time: 0 hr 4 min 29 sec) 
Heartbeat CPU 0 instructions: 110000000 cycles: 87433130 heartbeat IPC: 0.647698 cumulative IPC: 0.838151 (Simulation time: 0 hr 5 min 14 sec) 
Heartbeat CPU 0 instructions: 120000002 cycles: 95814876 heartbeat IPC: 1.19307 cumulative IPC: 0.875352 (Simulation time: 0 hr 5 min 43 sec) 
Heartbeat CPU 0 instructions: 130000002 cycles: 107609774 heartbeat IPC: 0.847824 cumulative IPC: 0.871813 (Simulation time: 0 hr 6 min 20 sec) 
Heartbeat CPU 0 instructions: 140000001 cycles: 119699946 heartbeat IPC: 0.827118 cumulative IPC: 0.86661 (Simulation time: 0 hr 7 min 1 sec) 
Heartbeat CPU 0 instructions: 150000003 cycles: 128296281 heartbeat IPC: 1.16329 cumulative IPC: 0.88929 (Simulation time: 0 hr 7 min 31 sec) 
Heartbeat CPU 0 instructions: 160000000 cycles: 143647968 heartbeat IPC: 0.651394 cumulative IPC: 0.860713 (Simulation time: 0 hr 8 min 19 sec) 
Heartbeat CPU 0 instructions: 170000000 cycles: 152038083 heartbeat IPC: 1.19188 cumulative IPC: 0.881115 (Simulation time: 0 hr 8 min 49 sec) 
Heartbeat CPU 0 instructions: 180000002 cycles: 164877430 heartbeat IPC: 0.778856 cumulative IPC: 0.872305 (Simulation time: 0 hr 9 min 30 sec) 
Heartbeat CPU 0 instructions: 190000000 cycles: 175906262 heartbeat IPC: 0.906714 cumulative IPC: 0.874676 (Simulation time: 0 hr 10 min 6 sec) 
Heartbeat CPU 0 instructions: 200000000 cycles: 185749808 heartbeat IPC: 1.01589 cumulative IPC: 0.882858 (Simulation time: 0 hr 10 min 36 sec) 
Heartbeat CPU 0 instructions: 210000001 cycles: 201101438 heartbeat IPC: 0.651397 cumulative IPC: 0.863677 (Simulation time: 0 hr 11 min 17 sec) 
Heartbeat CPU 0 instructions: 220000000 cycles: 213212195 heartbeat IPC: 0.825712 cumulative IPC: 0.861347 (Simulation time: 0 hr 11 min 44 sec) 
Heartbeat CPU 0 instructions: 230000002 cycles: 227994768 heartbeat IPC: 0.676472 cumulative IPC: 0.848465 (Simulation time: 0 hr 12 min 16 sec) 
Heartbeat CPU 0 instructions: 240000000 cycles: 241412642 heartbeat IPC: 0.745274 cumulative IPC: 0.842327 (Simulation time: 0 hr 12 min 44 sec) 
Heartbeat CPU 0 instructions: 250000001 cycles: 253790041 heartbeat IPC: 0.807924 cumulative IPC: 0.840537 (Simulation time: 0 hr 13 min 8 sec) 
Finished CPU 0 instructions: 200000000 cycles: 237943030 cumulative IPC: 0.840537 (Simulation time: 0 hr 13 min 8 sec) 

ChampSim completed all CPUs

Region of Interest Statistics

CPU 0 cumulative IPC: 0.840537 instructions: 200000000 cycles: 237943030
ITLB TOTAL     ACCESS:   30893218  HIT:   30893217  MISS:          1  HIT %:        100  MISS %: 3.23696e-06   MPKI: 5e-06
ITLB Test counter:          0
ITLB LOAD TRANSLATION ACCESS:   30893218  HIT:   30893217  MISS:          1  HIT %:        100  MISS %: 3.23696e-06   MPKI: 5e-06
ITLB PREFETCH  REQUESTED:          0  ISSUED:          0  USEFUL:          0  USELESS:          0
ITLB USEFUL LOAD PREFETCHES:          0 PREFETCH ISSUED TO LOWER LEVEL:          0  ACCURACY: -nan
ITLB TIMELY PREFETCHES:          0 LATE PREFETCHES: 0 DROPPED PREFETCHES: 0
ITLB COMMIT LATE PREFETCHES: 0 MISSED OPPORTUNITY: 0 LATE IN PQ: 0 UNCOVERED: 0
ITLB COMMIT LATE MSHR PREFETCHES: 0
ITLB MPKI TOTAL: 0 MSHR LATE: 0 PQ LATE: 0 COMMIT LATE: 0 MISSED OPPORTUNITY: 0 UNCOVERED: 0
ITLB PREFETCHES SAME FILL-ORIGIN LEVEL: 0 DIFFERENT FILL-ORIGIN LEVEL: 0
ITLB AVERAGE MISS LATENCY: 320 cycles
ITLB AVERAGE MISS LATENCY LOAD: -nan cycles
ITLB AVERAGE MISS LATENCY PREFETCH: -nan cycles
ITLB AVERAGE MSHR OCCUPANCY: 0
ITLB MSHR FULL: 0
ITLB RQ	ACCESS:   35122786	FORWARD:          0	MERGED:    4229569	TO_CACHE:   30893217

DTLB TOTAL     ACCESS:   54609128  HIT:   54502190  MISS:     106938  HIT %:    99.8042  MISS %:   0.195824   MPKI: 0.53469
DTLB Test counter:          0
DTLB LOAD TRANSLATION ACCESS:   54609128  HIT:   54502190  MISS:     106938  HIT %:    99.8042  MISS %:   0.195824   MPKI: 0.53469
DTLB PREFETCH  REQUESTED:          0  ISSUED:          0  USEFUL:          0  USELESS:          0
DTLB USEFUL LOAD PREFETCHES:          0 PREFETCH ISSUED TO LOWER LEVEL:          0  ACCURACY: -nan
DTLB TIMELY PREFETCHES:          0 LATE PREFETCHES: 0 DROPPED PREFETCHES: 0
DTLB COMMIT LATE PREFETCHES: 0 MISSED OPPORTUNITY: 0 LATE IN PQ: 0 UNCOVERED: 0
DTLB COMMIT LATE MSHR PREFETCHES: 0
DTLB MPKI TOTAL: 0 MSHR LATE: 0 PQ LATE: 0 COMMIT LATE: 0 MISSED OPPORTUNITY: 0 UNCOVERED: 0
DTLB PREFETCHES SAME FILL-ORIGIN LEVEL: 0 DIFFERENT FILL-ORIGIN LEVEL: 0
DTLB AVERAGE MISS LATENCY: 131.501 cycles
DTLB AVERAGE MISS LATENCY LOAD: -nan cycles
DTLB AVERAGE MISS LATENCY PREFETCH: -nan cycles
DTLB AVERAGE MSHR OCCUPANCY: 0.0188967
DTLB MSHR FULL: 2.65071e-05
DTLB RQ	ACCESS:   58940728	FORWARD:          0	MERGED:    4239822	TO_CACHE:   54700906

STLB TOTAL     ACCESS:   28341787  HIT:   28245570  MISS:      96217  HIT %:    99.6605  MISS %:   0.339488   MPKI: 0.481085
STLB Test counter:          0
STLB LOAD TRANSLATION ACCESS:     106939  HIT:      39692  MISS:      67247  HIT %:    37.1165  MISS %:    62.8835   MPKI: 0.336235
STLB TRANSLATION FROM L1D PREFETCHER ACCESS:   28234848  HIT:   28205878  MISS:      28970  HIT %:    99.8974  MISS %:   0.102604   MPKI: 0.14485
STLB PREFETCH  REQUESTED:          0  ISSUED:          0  USEFUL:      28970  USELESS:          0
STLB USEFUL LOAD PREFETCHES:      28970 PREFETCH ISSUED TO LOWER LEVEL:          0  ACCURACY: inf
STLB TIMELY PREFETCHES:      28970 LATE PREFETCHES: 2656 DROPPED PREFETCHES: 977947
STLB COMMIT LATE PREFETCHES: 0 MISSED OPPORTUNITY: 0 LATE IN PQ: 0 UNCOVERED: 0
STLB COMMIT LATE MSHR PREFETCHES: 0
STLB MPKI TOTAL: 0 MSHR LATE: 0.01328 PQ LATE: 0 COMMIT LATE: 0 MISSED OPPORTUNITY: 0 UNCOVERED: 0
STLB PREFETCHES SAME FILL-ORIGIN LEVEL: 0 DIFFERENT FILL-ORIGIN LEVEL: 0
STLB AVERAGE MISS LATENCY: 152.933 cycles
STLB AVERAGE MISS LATENCY LOAD: -nan cycles
STLB AVERAGE MISS LATENCY PREFETCH: -nan cycles
STLB AVERAGE MSHR OCCUPANCY: 0.103475
STLB MSHR FULL: 1.40255e-05
STLB RQ	ACCESS:   85592233	FORWARD:          0	MERGED:   56217641	TO_CACHE:   29374592

STLB Hit, L1D data hit: 0
STLB Hit, L2C data hit: 0
STLB Hit, LLC data hit: 0
STLB Hit, LLC data miss: 0
STLB STLB hints to L2: 0
L1D TOTAL     ACCESS:  114627260  HIT:  109320636  MISS:    5306624  HIT %:    95.3705  MISS %:    4.62946   MPKI: 26.5331
L1D Test counter:          0
L1D LOAD      ACCESS:   47908369  HIT:   47497377  MISS:     724065  HIT %:    99.1421  MISS %:   0.857871   MPKI: 2.05496
L1D RFO       ACCESS:    3181404  HIT:    1832863  MISS:    1348541  HIT %:    57.6118  MISS %:    42.3882   MPKI: 6.7427
L1D PREFETCH  ACCESS:   63537487  HIT:   59990396  MISS:    3547091  HIT %:    94.4173  MISS %:    5.58267   MPKI: 17.7355
L1D PREFETCH  REQUESTED:  245254380  ISSUED:  175485604  USEFUL:    2956328  USELESS:     590829
L1D USEFUL LOAD PREFETCHES:    2956328 PREFETCH ISSUED TO LOWER LEVEL:   20178244  ACCURACY: 14.6511
L1D TIMELY PREFETCHES:    2956328 LATE PREFETCHES: 50132 DROPPED PREFETCHES: 1974540
L1D COMMIT LATE PREFETCHES: 0 MISSED OPPORTUNITY: 0 LATE IN PQ: 126041 UNCOVERED: 0
L1D COMMIT LATE MSHR PREFETCHES: 0
L1D MPKI TOTAL: 3.62032 MSHR LATE: 0.25066 PQ LATE: 0.630205 COMMIT LATE: 0 MISSED OPPORTUNITY: 0 UNCOVERED: 0
L1D PREFETCHES SAME FILL-ORIGIN LEVEL: 3599951 DIFFERENT FILL-ORIGIN LEVEL: 16578293
L1D AVERAGE MISS LATENCY: 179.671 cycles
L1D AVERAGE MISS LATENCY LOAD: 102.425 cycles
L1D AVERAGE MISS LATENCY PREFETCH: 146.563 cycles
L1D AVERAGE MSHR OCCUPANCY: 4.41355
L1D MSHR FULL: 0.0353018
L1D RQ	ACCESS:   73913361	FORWARD:          0	MERGED:   25691920	TO_CACHE:   48221441
L1D WQ	ACCESS:   10719287	FORWARD:          0	MERGED:          0	TO_CACHE:   10719287
L1D PQ	ACCESS:   90000310	FORWARD:          0	MERGED:    4515016	TO_CACHE:   85485294

L1D UNIQUE REGIONS ACCESSED: 0
L1D REGIONS CONFLICTS: 0
L1D Cross Page Prefetch Requests: 27593481
L1D Same Page Prefetch Requests: 82241156
L1D ROI Sum of L1D PQ occupancy: 1516435311
L1D PREFETCHES PUSHED FROM L2C: 0
466e2b: 1
466c65: 1
46726b: 1
4679cb: 1
466dc7: 1
467a13: 1
4676ab: 2
467a5b: 2
467538: 2
4675a3: 2
467519: 2
4674fb: 2
466daa: 2
4675e5: 2
466a36: 2
4674e6: 2
4677de: 2
4676cf: 2
4676d7: 2
4679db: 2
4679fb: 2
4677ed: 2
4679b5: 2
466cb9: 3
4674ce: 3
466d4a: 4
467466: 4
466c5d: 5
4667fc: 5
466a5e: 6
466996: 6
466a47: 6
466a56: 6
466928: 6
466a76: 6
466824: 6
466940: 6
466b7d: 6
466950: 6
4669d0: 6
466d9a: 6
4669c8: 6
466920: 6
466d3c: 7
466d92: 7
46795a: 12
466d27: 14
466b36: 20
4675d0: 29
467619: 47
4675d5: 47
4677a5: 52
467486: 66
466bd5: 87
466980: 89
466bea: 94
4669dd: 119
467499: 141
466ce9: 151
466ce1: 157
466b90: 162
466ca3: 162
466b0f: 164
466d17: 182
466af8: 182
467857: 205
466b00: 230
46761e: 238
466b4e: 271
4668a6: 768
4668b5: 768
467990: 970
467962: 1010
4677c5: 1020
46793f: 1022
467921: 1022
467770: 1022
46796a: 1022
467768: 1022
467817: 1089
4677f5: 1425
46784d: 1478
467848: 1516
467825: 1666
4677d5: 1943
466bb0: 2306
4677e6: 2932
466ba2: 2984
466b97: 3324
466b65: 4118
466bbe: 6005
466986: 6511
466bdc: 8366
466bf1: 8518
46785d: 11937
467809: 12054
467480: 12093
466b77: 14711
467493: 20774
467871: 25623
467834: 25655
46786b: 26756
4668a0: 64978
4668af: 129501
L1I TOTAL     ACCESS:   35122756  HIT:   35122706  MISS:         50  HIT %:    99.9999  MISS %: 0.000142358   MPKI: 0.00025
L1I Test counter:          0
L1I LOAD      ACCESS:   35122756  HIT:   35122706  MISS:         80  HIT %:    99.9999  MISS %: 0.000142358   MPKI: 0.00025
L1I PREFETCH  REQUESTED:          0  ISSUED:          0  USEFUL:          0  USELESS:          0
L1I USEFUL LOAD PREFETCHES:          0 PREFETCH ISSUED TO LOWER LEVEL:          0  ACCURACY: -nan
L1I TIMELY PREFETCHES:          0 LATE PREFETCHES: 0 DROPPED PREFETCHES: 0
L1I COMMIT LATE PREFETCHES: 0 MISSED OPPORTUNITY: 0 LATE IN PQ: 0 UNCOVERED: 0
L1I COMMIT LATE MSHR PREFETCHES: 0
L1I MPKI TOTAL: 0.0004 MSHR LATE: 0 PQ LATE: 0 COMMIT LATE: 0 MISSED OPPORTUNITY: 0 UNCOVERED: 0
L1I PREFETCHES SAME FILL-ORIGIN LEVEL: 0 DIFFERENT FILL-ORIGIN LEVEL: 0
L1I AVERAGE MISS LATENCY: 236.54 cycles
L1I AVERAGE MISS LATENCY LOAD: 236.54 cycles
L1I AVERAGE MISS LATENCY PREFETCH: -nan cycles
L1I AVERAGE MSHR OCCUPANCY: 2.22078e-06
L1I MSHR FULL: 0
L1I RQ	ACCESS:   54066830	FORWARD:          0	MERGED:   18944044	TO_CACHE:   35122786

467347: 1
4675c1: 1
466ec0: 1
467903: 1
466fc1: 1
466e85: 1
467206: 1
467240: 1
467985: 1
467446: 1
467281: 1
467001: 1
467540: 1
467610: 1
467650: 1
4672c5: 1
467401: 1
467181: 1
4676c0: 1
467480: 1
467787: 1
467384: 1
4674c0: 1
467502: 1
467580: 1
467303: 1
467947: 1
4678c2: 1
4679c0: 1
467884: 1
467840: 1
467801: 1
4677c5: 1
467740: 1
467707: 1
4671c0: 1
4670c3: 1
467044: 1
467a03: 1
466f82: 1
467682: 1
466e47: 1
466e00: 1
466f03: 1
467a43: 1
467101: 1
4673c0: 1
467146: 1
466f40: 1
467082: 1
BTB TOTAL     ACCESS:   10637189  HIT:   10637168  MISS:         21  HIT %:    99.9998  MISS %: 0.000197421   MPKI: 0.000105
BTB Test counter:          0
BTB BRANCH_DIRECT_JUMP	ACCESS:      26624  HIT:      26622  MISS:          2
BTB BRANCH_INDIRECT	ACCESS:          0  HIT:          0  MISS:          0
BTB BRANCH_CONDITIONAL	ACCESS:   10610565  HIT:   10610546  MISS:         19
BTB BRANCH_DIRECT_CALL	ACCESS:          0  HIT:          0  MISS:          0
BTB BRANCH_INDIRECT_CALL	ACCESS:          0  HIT:          0  MISS:          0
BTB BRANCH_RETURN	ACCESS:          0  HIT:          0  MISS:          0
BTB BRANCH_OTHER ACCESS:          0  HIT:          0  MISS:          0

L2C TOTAL     ACCESS:   21523310  HIT:   17007483  MISS:    4515827  HIT %:    79.0189  MISS %:    20.9811   MPKI: 22.5791
L2C Test counter:          0
L2C LOAD      ACCESS:     360902  HIT:     224090  MISS:     136812  HIT %:    62.0916  MISS %:    37.9084   MPKI: 0.68406
L2C DATA LOAD MPKI: 0.68381
L2C INSTRUCTION LOAD MPKI: 0.00025
L2C RFO       ACCESS:    1348541  HIT:          0  MISS:    1348541  HIT %:          0  MISS %:        100   MPKI: 6.7427
L2C PREFETCH  ACCESS:   17384931  HIT:   14374350  MISS:    3010581  HIT %:    82.6828  MISS %:    17.3172   MPKI: 15.0529
L2C DATA PREFETCH MPKI: 15.0529
L2C INSTRUCTION PREFETCH MPKI: 0
L2C WRITEBACK ACCESS:    1350670  HIT:    1350578  MISS:         92  HIT %:    99.9932  MISS %: 0.00681143   MPKI: 0.00046
L2C LOAD TRANSLATION ACCESS:      67316  HIT:      55662  MISS:      11654  HIT %:    82.6876  MISS %:    17.3124   MPKI: 0.05827
L2C TRANSLATION FROM L1D PREFETCHER ACCESS:    1010950  HIT:    1002803  MISS:       8147  HIT %:    99.1941  MISS %:   0.805876   MPKI: 0.040735
L2C PREFETCH  REQUESTED:          0  ISSUED:          0  USEFUL:     209719  USELESS:    2812134
L2C USEFUL LOAD PREFETCHES:     209719 PREFETCH ISSUED TO LOWER LEVEL:    3070829  ACCURACY: 6.82939
L2C TIMELY PREFETCHES:     209719 LATE PREFETCHES: 60245 DROPPED PREFETCHES: 0
L2C COMMIT LATE PREFETCHES: 0 MISSED OPPORTUNITY: 0 LATE IN PQ: 0 UNCOVERED: 0
L2C COMMIT LATE MSHR PREFETCHES: 0
L2C MPKI TOTAL: 0.68406 MSHR LATE: 0.301225 PQ LATE: 0 COMMIT LATE: 0 MISSED OPPORTUNITY: 0 UNCOVERED: 0
L2C PREFETCHES SAME FILL-ORIGIN LEVEL: 1287937 DIFFERENT FILL-ORIGIN LEVEL: 0
L2C AVERAGE MISS LATENCY: 269.926 cycles
L2C AVERAGE MISS LATENCY LOAD: 265.283 cycles
L2C AVERAGE MISS LATENCY PREFETCH: 267.703 cycles
L2C AVERAGE MSHR OCCUPANCY: 6.05721
L2C MSHR FULL: 0.0102013
L2C RQ	ACCESS:    2787720	FORWARD:          0	MERGED:          0	TO_CACHE:    2787712
L2C WQ	ACCESS:    1350670	FORWARD:          8	MERGED:          0	TO_CACHE:    1350670
L2C PQ	ACCESS:   20149792	FORWARD:          0	MERGED:       2572	TO_CACHE:   20147220

L2C Instructions Evicting Data 50
L2C Translations Evicting Data 19740
L2C Data Evicting Data 4476078
L2C Instructions Evicting Instructions 0
L2C Translations Evicting Instructions 0
L2C Data Evicting Instructions 50
L2C Instructions Evicting Translations 0
L2C Translations Evicting Translations 61
L2C Data Evicting Translations 19756
L2C Dense regions hint from L2: 0
4679cb: 1
466c65: 1
466f03: 1
467990: 1
467580: 1
467903: 1
466ec0: 1
467650: 1
467502: 1
467466: 1
4674c0: 1
467985: 1
466f40: 1
467082: 1
467347: 1
4677c5: 1
4678c2: 1
467540: 1
467146: 1
467240: 1
467303: 1
467446: 1
466e85: 1
467a43: 1
466fc1: 1
4675c1: 1
467281: 1
467001: 1
466dc7: 1
467840: 1
467a13: 1
4673c0: 1
4679c0: 1
467384: 1
467401: 1
4672c5: 1
466f82: 1
46726b: 1
467206: 1
4671c0: 1
467181: 1
467884: 1
467101: 1
467787: 1
467801: 1
4670c3: 1
467044: 1
467740: 1
467947: 1
466e2b: 1
467707: 1
467682: 1
467a03: 1
4676c0: 1
466e47: 1
466e00: 1
467610: 1
4676d7: 2
467a5b: 2
4674e6: 2
4674fb: 2
4675e5: 2
466a36: 2
467538: 2
4675a3: 2
4676ab: 2
4676cf: 2
46796a: 2
467768: 2
4677de: 2
4677ed: 2
467770: 2
4674ce: 2
4679fb: 2
466daa: 2
4679b5: 2
46793f: 2
467519: 2
466d27: 3
466b36: 4
466980: 4
4667fc: 5
466c5d: 5
466a76: 6
466b7d: 6
466a56: 6
466a47: 6
466920: 6
466a5e: 6
466928: 6
466d9a: 6
466824: 6
4669c8: 6
466996: 6
466950: 6
466940: 6
4669d0: 6
466d92: 7
466d3c: 7
467871: 11
46784d: 11
467834: 14
4677f5: 18
4675d5: 22
4675d0: 24
466bea: 25
467809: 26
467619: 29
466b4e: 35
466ce9: 37
466af8: 38
466b0f: 38
46785d: 38
466bd5: 39
466b00: 41
467486: 41
466d17: 42
46761e: 52
467499: 54
467857: 68
4669dd: 83
466986: 88
466b90: 112
4668b5: 768
4668a6: 768
467817: 1030
466bf1: 1169
467848: 1284
467825: 1359
466ba2: 1626
4677d5: 1755
466bb0: 2306
4677e6: 2514
466bdc: 2815
466b97: 2926
466b65: 3474
467480: 3496
466bbe: 4310
467493: 5379
466b77: 9061
46786b: 11051
4668a0: 25735
4668af: 52782
PSCL5 TOTAL     ACCESS:    1076790  HIT:    1076790  MISS:          0  HIT %:        100  MISS %:          0   MPKI: 0
PSCL5 Test counter:          0
PSCL5 LOAD TRANSLATION ACCESS:      67217  HIT:      67217  MISS:          0  HIT %:        100  MISS %:          0   MPKI: 0
PSCL5 TRANSLATION FROM L1D PREFETCHER ACCESS:    1009573  HIT:    1009573  MISS:          0  HIT %:        100  MISS %:          0   MPKI: 0
PSCL5 PREFETCH  REQUESTED:          0  ISSUED:          0  USEFUL:          0  USELESS:          0
PSCL5 USEFUL LOAD PREFETCHES:          0 PREFETCH ISSUED TO LOWER LEVEL:          0  ACCURACY: -nan
PSCL5 TIMELY PREFETCHES:          0 LATE PREFETCHES: 0 DROPPED PREFETCHES: 0
PSCL5 COMMIT LATE PREFETCHES: 0 MISSED OPPORTUNITY: 0 LATE IN PQ: 0 UNCOVERED: 0
PSCL5 COMMIT LATE MSHR PREFETCHES: 0
PSCL5 MPKI TOTAL: 0 MSHR LATE: 0 PQ LATE: 0 COMMIT LATE: 0 MISSED OPPORTUNITY: 0 UNCOVERED: 0
PSCL5 PREFETCHES SAME FILL-ORIGIN LEVEL: 0 DIFFERENT FILL-ORIGIN LEVEL: 0

PSCL4 TOTAL     ACCESS:    1076790  HIT:    1076790  MISS:          0  HIT %:        100  MISS %:          0   MPKI: 0
PSCL4 Test counter:          0
PSCL4 LOAD TRANSLATION ACCESS:      67217  HIT:      67217  MISS:          0  HIT %:        100  MISS %:          0   MPKI: 0
PSCL4 TRANSLATION FROM L1D PREFETCHER ACCESS:    1009573  HIT:    1009573  MISS:          0  HIT %:        100  MISS %:          0   MPKI: 0
PSCL4 PREFETCH  REQUESTED:          0  ISSUED:          0  USEFUL:          0  USELESS:          0
PSCL4 USEFUL LOAD PREFETCHES:          0 PREFETCH ISSUED TO LOWER LEVEL:          0  ACCURACY: -nan
PSCL4 TIMELY PREFETCHES:          0 LATE PREFETCHES: 0 DROPPED PREFETCHES: 0
PSCL4 COMMIT LATE PREFETCHES: 0 MISSED OPPORTUNITY: 0 LATE IN PQ: 0 UNCOVERED: 0
PSCL4 COMMIT LATE MSHR PREFETCHES: 0
PSCL4 MPKI TOTAL: 0 MSHR LATE: 0 PQ LATE: 0 COMMIT LATE: 0 MISSED OPPORTUNITY: 0 UNCOVERED: 0
PSCL4 PREFETCHES SAME FILL-ORIGIN LEVEL: 0 DIFFERENT FILL-ORIGIN LEVEL: 0

PSCL3 TOTAL     ACCESS:    1071811  HIT:    1071804  MISS:          7  HIT %:    99.9993  MISS %:  0.0006531   MPKI: 3.5e-05
PSCL3 Test counter:          0
PSCL3 LOAD TRANSLATION ACCESS:      66784  HIT:      66777  MISS:          7  HIT %:    99.9895  MISS %:  0.0104816   MPKI: 3.5e-05
PSCL3 TRANSLATION FROM L1D PREFETCHER ACCESS:    1005027  HIT:    1005027  MISS:          0  HIT %:        100  MISS %:          0   MPKI: 0
PSCL3 PREFETCH  REQUESTED:          0  ISSUED:          0  USEFUL:          0  USELESS:          0
PSCL3 USEFUL LOAD PREFETCHES:          0 PREFETCH ISSUED TO LOWER LEVEL:          0  ACCURACY: -nan
PSCL3 TIMELY PREFETCHES:          0 LATE PREFETCHES: 0 DROPPED PREFETCHES: 0
PSCL3 COMMIT LATE PREFETCHES: 0 MISSED OPPORTUNITY: 0 LATE IN PQ: 0 UNCOVERED: 0
PSCL3 COMMIT LATE MSHR PREFETCHES: 0
PSCL3 MPKI TOTAL: 0 MSHR LATE: 0 PQ LATE: 0 COMMIT LATE: 0 MISSED OPPORTUNITY: 0 UNCOVERED: 0
PSCL3 PREFETCHES SAME FILL-ORIGIN LEVEL: 0 DIFFERENT FILL-ORIGIN LEVEL: 0

PSCL2 TOTAL     ACCESS:    1074122  HIT:    1073849  MISS:        273  HIT %:    99.9746  MISS %:  0.0254161   MPKI: 0.001365
PSCL2 Test counter:          0
PSCL2 LOAD TRANSLATION ACCESS:      67246  HIT:      66973  MISS:        273  HIT %:     99.594  MISS %:   0.405972   MPKI: 0.001365
PSCL2 TRANSLATION FROM L1D PREFETCHER ACCESS:    1006876  HIT:    1006876  MISS:          0  HIT %:        100  MISS %:          0   MPKI: 0
PSCL2 PREFETCH  REQUESTED:          0  ISSUED:          0  USEFUL:          0  USELESS:          0
PSCL2 USEFUL LOAD PREFETCHES:          0 PREFETCH ISSUED TO LOWER LEVEL:          0  ACCURACY: -nan
PSCL2 TIMELY PREFETCHES:          0 LATE PREFETCHES: 0 DROPPED PREFETCHES: 0
PSCL2 COMMIT LATE PREFETCHES: 0 MISSED OPPORTUNITY: 0 LATE IN PQ: 0 UNCOVERED: 0
PSCL2 COMMIT LATE MSHR PREFETCHES: 0
PSCL2 MPKI TOTAL: 0 MSHR LATE: 0 PQ LATE: 0 COMMIT LATE: 0 MISSED OPPORTUNITY: 0 UNCOVERED: 0
PSCL2 PREFETCHES SAME FILL-ORIGIN LEVEL: 0 DIFFERENT FILL-ORIGIN LEVEL: 0

LLC TOTAL     ACCESS:    5861363  HIT:    1345899  MISS:    4515464  HIT %:    22.9622  MISS %:    77.0378   MPKI: 22.5773
LLC Test counter:          0
LLC LOAD      ACCESS:      76567  HIT:         14  MISS:      76553  HIT %:  0.0182846  MISS %:    99.9817   MPKI: 0.382765
LLC RFO       ACCESS:    1348542  HIT:          0  MISS:    1348542  HIT %:          0  MISS %:        100   MPKI: 6.74271
LLC PREFETCH  ACCESS:    3070826  HIT:        301  MISS:    3070525  HIT %: 0.00980192  MISS %:    99.9902   MPKI: 15.3526
LLC WRITEBACK ACCESS:    1345627  HIT:    1345537  MISS:         90  HIT %:    99.9933  MISS %: 0.00668833   MPKI: 0.00045
LLC LOAD TRANSLATION ACCESS:      11654  HIT:         27  MISS:      11627  HIT %:    0.23168  MISS %:    99.7683   MPKI: 0.058135
LLC TRANSLATION FROM L1D PREFETCHER ACCESS:       8147  HIT:         20  MISS:       8127  HIT %:   0.245489  MISS %:    99.7545   MPKI: 0.040635
LLC PREFETCH  REQUESTED:          0  ISSUED:          0  USEFUL:          4  USELESS:    3090011
LLC USEFUL LOAD PREFETCHES:          4 PREFETCH ISSUED TO LOWER LEVEL:    3070528  ACCURACY: 0.000130271
LLC TIMELY PREFETCHES:          4 LATE PREFETCHES: 0 DROPPED PREFETCHES: 0
LLC COMMIT LATE PREFETCHES: 0 MISSED OPPORTUNITY: 0 LATE IN PQ: 0 UNCOVERED: 0
LLC COMMIT LATE MSHR PREFETCHES: 0
LLC MPKI TOTAL: 0.382765 MSHR LATE: 0 PQ LATE: 0 COMMIT LATE: 0 MISSED OPPORTUNITY: 0 UNCOVERED: 0
LLC PREFETCHES SAME FILL-ORIGIN LEVEL: 0 DIFFERENT FILL-ORIGIN LEVEL: 0
LLC AVERAGE MISS LATENCY: 241.297 cycles
LLC AVERAGE MISS LATENCY LOAD: 251.788 cycles
LLC AVERAGE MISS LATENCY PREFETCH: 239.712 cycles
LLC AVERAGE MSHR OCCUPANCY: 5.19196
LLC MSHR FULL: 0
LLC RQ	ACCESS:    1444912	FORWARD:          0	MERGED:          0	TO_CACHE:    1444912
LLC WQ	ACCESS:    1345627	FORWARD:          0	MERGED:          0	TO_CACHE:    1345627
LLC PQ	ACCESS:    3070829	FORWARD:          0	MERGED:          0	TO_CACHE:    3070829

LLC Dense regions hint to LLC: 0
4675c1: 1
467082: 1
467347: 1
4678c2: 1
467540: 1
467146: 1
467303: 1
466e85: 1
467a43: 1
467a13: 1
466f40: 1
467281: 1
466dc7: 1
467985: 1
466f03: 1
467001: 1
467446: 1
467240: 1
4679cb: 1
4674c0: 1
467101: 1
4673c0: 1
467384: 1
467401: 1
4672c5: 1
466f82: 1
46726b: 1
467206: 1
4671c0: 1
467181: 1
466fc1: 1
467787: 1
4670c3: 1
467044: 1
466e2b: 1
466e47: 1
466e00: 1
466c65: 1
467990: 1
466ec0: 1
467466: 1
467682: 1
467707: 1
467a03: 1
4676c0: 1
467947: 1
467740: 1
467610: 1
4677c5: 1
467580: 1
467801: 1
467840: 1
467903: 1
467884: 1
467502: 1
4679c0: 1
467650: 1
466daa: 2
4676ab: 2
467a5b: 2
4674e6: 2
466a36: 2
4679fb: 2
4676cf: 2
4677ed: 2
467770: 2
4674fb: 2
4675e5: 2
467538: 2
4675a3: 2
46796a: 2
4679b5: 2
4676d7: 2
467768: 2
467519: 2
46793f: 2
4677de: 2
466d27: 3
466980: 4
466b36: 4
466c5d: 5
4667fc: 5
466a56: 6
466a5e: 6
466950: 6
466a47: 6
466928: 6
466a76: 6
466b7d: 6
466996: 6
466920: 6
466940: 6
466d9a: 6
466824: 6
4669d0: 6
4669c8: 6
466d92: 7
466d3c: 7
46784d: 11
467871: 11
466bea: 13
467834: 14
4677f5: 18
4675d5: 20
467619: 23
4675d0: 23
467809: 25
466bd5: 28
466b0f: 35
466ce9: 35
466b4e: 35
466af8: 36
46785d: 36
466d17: 38
467486: 40
466b00: 40
467499: 42
46761e: 50
467857: 68
4669dd: 73
466986: 85
466b90: 109
466bf1: 476
4668a6: 768
4668b5: 768
467817: 1020
467848: 1273
467825: 1322
466ba2: 1572
466bdc: 1656
4677d5: 1731
466bb0: 2306
4677e6: 2479
467480: 2774
466b97: 2870
467493: 3228
466b65: 3449
466bbe: 4272
466b77: 9008
4668a0: 9311
46786b: 11042
4668af: 14104

RAW hits: 17
Loads Generated: 73913377
Loads sent to L1D: 73913361
Stores Generated: 10719286
Stores sent to L1D: 10719287
Major fault: 0 Minor fault: 51871
Allocated PAGES: 51871
Total Load insts: 92757191
Total Non-spec loads: 9393771
Percentage of speculative loads: 89.8727
L1D response latency: 116.654 cycles
Load retirement latency: 201.049 cycles

LATENCY_FILL: 95.0587 410359

DRAM Statistics
 CHANNEL 0
 RQ ROW_BUFFER_HIT:     708516  ROW_BUFFER_MISS:    3806858
 DBUS_CONGESTED:       1078
 WQ ROW_BUFFER_HIT:     379231  ROW_BUFFER_MISS:     958146  FULL:          0

 AVG_CONGESTED_CYCLE: 4
 All warmup complete: 2
Channel 0 Bank busy for read cycles: 0
Channel 0 Bank busy for write cycles: 0
Channel 0
Rank 0
0banks busy for read cycles: 1160583
0banks busy for write cycles: 2775
1banks busy for read cycles: 39785623
1banks busy for write cycles: 934183
2banks busy for read cycles: 49139778
2banks busy for write cycles: 889480
3banks busy for read cycles: 36725235
3banks busy for write cycles: 838499
4banks busy for read cycles: 25488964
4banks busy for write cycles: 826370
5banks busy for read cycles: 14586549
5banks busy for write cycles: 841065
6banks busy for read cycles: 10722349
6banks busy for write cycles: 860084
7banks busy for read cycles: 7758737
7banks busy for write cycles: 2338372
8banks busy for read cycles: 9931707
8banks busy for write cycles: 35112678

CPU 0 Branch Prediction Accuracy: 99.8819% MPKI: 0.062825 Average ROB Occupancy at Mispredict: 193.445
Branch types
NOT_BRANCH: 189359360 94.6797%
BRANCH_DIRECT_JUMP: 26624 0.013312%
BRANCH_INDIRECT: 0 0%
BRANCH_CONDITIONAL: 10613668 5.30683%
BRANCH_DIRECT_CALL: 0 0%
BRANCH_INDIRECT_CALL: 0 0%
BRANCH_RETURN: 0 0%
BRANCH_OTHER: 0 0%

DRAM PAGES: 1048576
Allocated PAGES: 51871
