
*** ChampSim Multicore Out-of-Order Simulator ***

Warmup Instructions: 50000000
Simulation Instructions: 200000000
Number of CPUs: 1
LLC sets: 2048
LLC ways: 16
Secure Berti: OFF
Berti: OFF
Berti Fill: OFF
On commit prefetching: OFF
L2 LLC Bypass speculative loads: OFF
Off-chip DRAM Size: 4096 MB Channels: 1 Width: 64-bit Data Rate: 6400 MT/s
CPU 0 runs /home/sumon/secure_berti/Berti_Baseline/../../traces/spec/654.roms_s-293B.champsimtrace.xz
.xz
BTB has LRU replacement policy
ITLB has LRU replacement policy
DTLB has LRU replacement policy
STLB has LRU replacement policy
L1I has LRU replacement policy
History Sets: 8
History Ways: 16
BERTI Size: 16
BERTI Stride Size: 16
L1D has LRU replacement policy
L2C has LRU replacement policy
LLC has LRU replacement policy
Heartbeat CPU 0 instructions: 10000001 cycles: 3119084 heartbeat IPC: 3.20607 cumulative IPC: 3.20607 (Simulation time: 0 hr 0 min 21 sec) 
Heartbeat CPU 0 instructions: 20000003 cycles: 6304105 heartbeat IPC: 3.1397 cumulative IPC: 3.17254 (Simulation time: 0 hr 0 min 42 sec) 
Heartbeat CPU 0 instructions: 30000000 cycles: 9423413 heartbeat IPC: 3.20584 cumulative IPC: 3.18356 (Simulation time: 0 hr 1 min 3 sec) 
Heartbeat CPU 0 instructions: 40000002 cycles: 12608466 heartbeat IPC: 3.13967 cumulative IPC: 3.17247 (Simulation time: 0 hr 1 min 25 sec) 
Heartbeat CPU 0 instructions: 50000003 cycles: 15727513 heartbeat IPC: 3.20611 cumulative IPC: 3.17914 (Simulation time: 0 hr 1 min 46 sec) 

Warmup complete CPU 0 instructions: 50000003 cycles: 15727513 (Simulation time: 0 hr 1 min 46 sec) 

Heartbeat CPU 0 instructions: 60000002 cycles: 25574800 heartbeat IPC: 1.01551 cumulative IPC: 1.01551 (Simulation time: 0 hr 2 min 12 sec) 
Heartbeat CPU 0 instructions: 70000003 cycles: 35090640 heartbeat IPC: 1.05088 cumulative IPC: 1.03289 (Simulation time: 0 hr 2 min 38 sec) 
Heartbeat CPU 0 instructions: 80000002 cycles: 44777400 heartbeat IPC: 1.03234 cumulative IPC: 1.03271 (Simulation time: 0 hr 3 min 4 sec) 
Heartbeat CPU 0 instructions: 90000000 cycles: 54463901 heartbeat IPC: 1.03236 cumulative IPC: 1.03262 (Simulation time: 0 hr 3 min 32 sec) 
Heartbeat CPU 0 instructions: 100000003 cycles: 64114018 heartbeat IPC: 1.03626 cumulative IPC: 1.03335 (Simulation time: 0 hr 4 min 1 sec) 
Heartbeat CPU 0 instructions: 110000000 cycles: 73843401 heartbeat IPC: 1.02781 cumulative IPC: 1.03242 (Simulation time: 0 hr 4 min 30 sec) 
Heartbeat CPU 0 instructions: 120000000 cycles: 83397615 heartbeat IPC: 1.04666 cumulative IPC: 1.03443 (Simulation time: 0 hr 5 min 0 sec) 
Heartbeat CPU 0 instructions: 130000000 cycles: 93381733 heartbeat IPC: 1.00159 cumulative IPC: 1.03021 (Simulation time: 0 hr 5 min 32 sec) 
Heartbeat CPU 0 instructions: 140000003 cycles: 102942827 heartbeat IPC: 1.04591 cumulative IPC: 1.03193 (Simulation time: 0 hr 6 min 5 sec) 
Heartbeat CPU 0 instructions: 150000003 cycles: 112492979 heartbeat IPC: 1.0471 cumulative IPC: 1.03343 (Simulation time: 0 hr 6 min 39 sec) 
Heartbeat CPU 0 instructions: 160000003 cycles: 122034104 heartbeat IPC: 1.04809 cumulative IPC: 1.03474 (Simulation time: 0 hr 7 min 12 sec) 
Heartbeat CPU 0 instructions: 170000002 cycles: 131574392 heartbeat IPC: 1.04819 cumulative IPC: 1.03585 (Simulation time: 0 hr 7 min 46 sec) 
Heartbeat CPU 0 instructions: 180000001 cycles: 141121134 heartbeat IPC: 1.04748 cumulative IPC: 1.03674 (Simulation time: 0 hr 8 min 20 sec) 
Heartbeat CPU 0 instructions: 190000002 cycles: 150668178 heartbeat IPC: 1.04744 cumulative IPC: 1.03749 (Simulation time: 0 hr 8 min 54 sec) 
Heartbeat CPU 0 instructions: 200000000 cycles: 160215428 heartbeat IPC: 1.04742 cumulative IPC: 1.03815 (Simulation time: 0 hr 9 min 27 sec) 
Heartbeat CPU 0 instructions: 210000000 cycles: 169758274 heartbeat IPC: 1.04791 cumulative IPC: 1.03875 (Simulation time: 0 hr 10 min 0 sec) 
Heartbeat CPU 0 instructions: 220000000 cycles: 179302942 heartbeat IPC: 1.04771 cumulative IPC: 1.03928 (Simulation time: 0 hr 10 min 31 sec) 
Heartbeat CPU 0 instructions: 230000000 cycles: 188847269 heartbeat IPC: 1.04774 cumulative IPC: 1.03974 (Simulation time: 0 hr 11 min 2 sec) 
Heartbeat CPU 0 instructions: 240000001 cycles: 198389058 heartbeat IPC: 1.04802 cumulative IPC: 1.04018 (Simulation time: 0 hr 11 min 30 sec) 
Heartbeat CPU 0 instructions: 250000001 cycles: 207928730 heartbeat IPC: 1.04825 cumulative IPC: 1.04058 (Simulation time: 0 hr 11 min 57 sec) 
Finished CPU 0 instructions: 200000002 cycles: 192201218 cumulative IPC: 1.04058 (Simulation time: 0 hr 11 min 57 sec) 

ChampSim completed all CPUs

Region of Interest Statistics

CPU 0 cumulative IPC: 1.04058 instructions: 200000002 cycles: 192201218
ITLB TOTAL     ACCESS:   27294821  HIT:   27294805  MISS:         16  HIT %:    99.9999  MISS %: 5.86192e-05   MPKI: 8e-05
ITLB Test counter:          0
ITLB LOAD TRANSLATION ACCESS:   27294821  HIT:   27294805  MISS:         16  HIT %:    99.9999  MISS %: 5.86192e-05   MPKI: 8e-05
ITLB PREFETCH  REQUESTED:          0  ISSUED:          0  USEFUL:          0  USELESS:          0
ITLB USEFUL LOAD PREFETCHES:          0 PREFETCH ISSUED TO LOWER LEVEL:          0  ACCURACY: -nan
ITLB TIMELY PREFETCHES:          0 LATE PREFETCHES: 0 DROPPED PREFETCHES: 0
ITLB COMMIT LATE PREFETCHES: 0 MISSED OPPORTUNITY: 0 LATE IN PQ: 0 UNCOVERED: 0
ITLB COMMIT LATE MSHR PREFETCHES: 0
ITLB MPKI TOTAL: 0 MSHR LATE: 0 PQ LATE: 0 COMMIT LATE: 0 MISSED OPPORTUNITY: 0 UNCOVERED: 0
ITLB PREFETCHES SAME FILL-ORIGIN LEVEL: 0 DIFFERENT FILL-ORIGIN LEVEL: 0
ITLB AVERAGE MISS LATENCY: 233.875 cycles
ITLB AVERAGE MISS LATENCY LOAD: -nan cycles
ITLB AVERAGE MISS LATENCY PREFETCH: -nan cycles
ITLB AVERAGE MSHR OCCUPANCY: 1.09911e-07
ITLB MSHR FULL: 0
ITLB RQ	ACCESS:   34375121	FORWARD:          0	MERGED:    7080298	TO_CACHE:   27294823

DTLB TOTAL     ACCESS:   53953403  HIT:   53874333  MISS:      79070  HIT %:    99.8534  MISS %:   0.146552   MPKI: 0.39535
DTLB Test counter:          0
DTLB LOAD TRANSLATION ACCESS:   53953403  HIT:   53874333  MISS:      79070  HIT %:    99.8534  MISS %:   0.146552   MPKI: 0.39535
DTLB PREFETCH  REQUESTED:          0  ISSUED:          0  USEFUL:          0  USELESS:          0
DTLB USEFUL LOAD PREFETCHES:          0 PREFETCH ISSUED TO LOWER LEVEL:          0  ACCURACY: -nan
DTLB TIMELY PREFETCHES:          0 LATE PREFETCHES: 0 DROPPED PREFETCHES: 0
DTLB COMMIT LATE PREFETCHES: 0 MISSED OPPORTUNITY: 0 LATE IN PQ: 0 UNCOVERED: 0
DTLB COMMIT LATE MSHR PREFETCHES: 0
DTLB MPKI TOTAL: 0 MSHR LATE: 0 PQ LATE: 0 COMMIT LATE: 0 MISSED OPPORTUNITY: 0 UNCOVERED: 0
DTLB PREFETCHES SAME FILL-ORIGIN LEVEL: 0 DIFFERENT FILL-ORIGIN LEVEL: 0
DTLB AVERAGE MISS LATENCY: 265.033 cycles
DTLB AVERAGE MISS LATENCY LOAD: -nan cycles
DTLB AVERAGE MISS LATENCY PREFETCH: -nan cycles
DTLB AVERAGE MSHR OCCUPANCY: 0.0146387
DTLB MSHR FULL: 1.85161e-08
DTLB RQ	ACCESS:   59872457	FORWARD:          0	MERGED:    5865507	TO_CACHE:   54006950

STLB TOTAL     ACCESS:   16791010  HIT:   16743169  MISS:      47841  HIT %:    99.7151  MISS %:    0.28492   MPKI: 0.239205
STLB Test counter:          0
STLB LOAD TRANSLATION ACCESS:      79086  HIT:      31252  MISS:      47834  HIT %:    39.5165  MISS %:    60.4835   MPKI: 0.23917
STLB TRANSLATION FROM L1D PREFETCHER ACCESS:   16711924  HIT:   16711917  MISS:          7  HIT %:        100  MISS %: 4.18863e-05   MPKI: 3.5e-05
STLB PREFETCH  REQUESTED:          0  ISSUED:          0  USEFUL:          7  USELESS:          0
STLB USEFUL LOAD PREFETCHES:          7 PREFETCH ISSUED TO LOWER LEVEL:          0  ACCURACY: inf
STLB TIMELY PREFETCHES:          7 LATE PREFETCHES: 1906 DROPPED PREFETCHES: 649401
STLB COMMIT LATE PREFETCHES: 0 MISSED OPPORTUNITY: 0 LATE IN PQ: 0 UNCOVERED: 0
STLB COMMIT LATE MSHR PREFETCHES: 0
STLB MPKI TOTAL: 0 MSHR LATE: 0.00953 PQ LATE: 0 COMMIT LATE: 0 MISSED OPPORTUNITY: 0 UNCOVERED: 0
STLB PREFETCHES SAME FILL-ORIGIN LEVEL: 0 DIFFERENT FILL-ORIGIN LEVEL: 0
STLB AVERAGE MISS LATENCY: 411.76 cycles
STLB AVERAGE MISS LATENCY LOAD: -nan cycles
STLB AVERAGE MISS LATENCY PREFETCH: -nan cycles
STLB AVERAGE MSHR OCCUPANCY: 0.0851915
STLB MSHR FULL: 0
STLB RQ	ACCESS:   83108899	FORWARD:          0	MERGED:   65657358	TO_CACHE:   17451541

STLB Hit, L1D data hit: 0
STLB Hit, L2C data hit: 0
STLB Hit, LLC data hit: 0
STLB Hit, LLC data miss: 0
STLB STLB hints to L2: 0
L1D TOTAL     ACCESS:  133334766  HIT:  130587931  MISS:    2746835  HIT %:    97.9399  MISS %:     2.0601   MPKI: 13.7342
L1D Test counter:          0
L1D LOAD      ACCESS:   48410503  HIT:   48288645  MISS:     175376  HIT %:    99.7483  MISS %:   0.251718   MPKI: 0.60929
L1D RFO       ACCESS:   10696383  HIT:   10321361  MISS:     375022  HIT %:    96.4939  MISS %:    3.50606   MPKI: 1.87511
L1D PREFETCH  ACCESS:   74227880  HIT:   71977925  MISS:    2249955  HIT %:    96.9689  MISS %:    3.03115   MPKI: 11.2498
L1D PREFETCH  REQUESTED:  230006836  ISSUED:  167367380  USEFUL:    2057009  USELESS:     192932
L1D USEFUL LOAD PREFETCHES:    2057009 PREFETCH ISSUED TO LOWER LEVEL:    8070774  ACCURACY: 25.4871
L1D TIMELY PREFETCHES:    2057009 LATE PREFETCHES: 12402 DROPPED PREFETCHES: 2049515
L1D COMMIT LATE PREFETCHES: 0 MISSED OPPORTUNITY: 0 LATE IN PQ: 4070 UNCOVERED: 0
L1D COMMIT LATE MSHR PREFETCHES: 0
L1D MPKI TOTAL: 0.87688 MSHR LATE: 0.06201 PQ LATE: 0.02035 COMMIT LATE: 0 MISSED OPPORTUNITY: 0 UNCOVERED: 0
L1D PREFETCHES SAME FILL-ORIGIN LEVEL: 2262360 DIFFERENT FILL-ORIGIN LEVEL: 5808414
L1D AVERAGE MISS LATENCY: 105.341 cycles
L1D AVERAGE MISS LATENCY LOAD: 94.1801 cycles
L1D AVERAGE MISS LATENCY PREFETCH: 91.1347 cycles
L1D AVERAGE MSHR OCCUPANCY: 1.3582
L1D MSHR FULL: 0.000814006
L1D RQ	ACCESS:   72800648	FORWARD:          0	MERGED:   24110339	TO_CACHE:   48464021
L1D WQ	ACCESS:   11408461	FORWARD:     226288	MERGED:         25	TO_CACHE:   11408436
L1D PQ	ACCESS:   84337567	FORWARD:          0	MERGED:    1307754	TO_CACHE:   83029813

L1D UNIQUE REGIONS ACCESSED: 0
L1D REGIONS CONFLICTS: 0
L1D Cross Page Prefetch Requests: 5451621
L1D Same Page Prefetch Requests: 89798156
L1D ROI Sum of L1D PQ occupancy: 1381455624
L1D PREFETCHES PUSHED FROM L2C: 0
41b2dc: 1
4cf7ab: 1
419e4c: 1
419b3f: 1
411868: 1
439dd6: 1
419b76: 1
411804: 1
43a763: 1
43a7d9: 1
43a7dc: 1
563540: 1
43a86d: 1
41a59a: 1
43a8da: 1
419e61: 1
43a879: 1
4117ed: 1
41187a: 1
4117f0: 1
419bd0: 1
55f8fb: 1
419c56: 1
562ee0: 1
55fab7: 1
43b23f: 1
419e23: 1
43a804: 1
43adea: 1
55fabf: 1
419bfc: 1
41b2ae: 1
41b274: 1
41b2a4: 1
419c6a: 1
55f9ff: 1
411861: 1
43af45: 1
419c1f: 1
4117cd: 1
41187d: 1
4119cc: 1
55fefd: 1
419b8d: 1
4cf849: 1
41a238: 1
41b354: 1
419e44: 1
419b62: 1
419bb9: 1
419c33: 1
419ca9: 1
419ca1: 1
411850: 1
562ec9: 1
56103f: 1
419e06: 1
4cf875: 1
4cf894: 1
41b222: 1
41b291: 1
41b2ca: 1
41b287: 1
55fa3a: 1
5603f5: 1
55fd60: 1
41b253: 1
43a810: 1
55fa1d: 1
419c75: 1
41b309: 1
55fd49: 1
43aaec: 1
411871: 1
411848: 1
55faab: 1
41182c: 1
41a2aa: 3
43a49f: 4
439d6b: 4
43a55e: 7
4396e4: 11
43993b: 11
4399c1: 11
563559: 11
439837: 11
43977e: 11
4397cd: 11
439871: 11
43a74b: 11
4398ef: 11
43964a: 11
439a3f: 11
439761: 11
439f71: 12
43a586: 12
439da0: 12
43a189: 12
439f89: 12
43a548: 12
439f8c: 12
43a6c3: 12
43a68c: 12
439df5: 12
439fb0: 12
43a6e3: 12
43a624: 12
43a589: 12
43a7b8: 12
43a5d0: 12
43a599: 12
43a76b: 12
43a6db: 12
439f5b: 12
43a6f3: 12
43a5a2: 12
43a027: 12
439f43: 12
43a5d8: 12
43a231: 12
439db8: 12
43a341: 12
43a00a: 12
43a260: 12
439e1d: 12
43a169: 12
439f79: 12
439dd9: 12
43a654: 12
43a23c: 12
43a2ba: 12
43a239: 12
439d98: 12
439da8: 12
43a2d3: 12
43a0c7: 12
43a7ae: 12
43a258: 12
43a3ed: 12
43a118: 12
43a30d: 12
439e3c: 12
43a442: 12
439e06: 12
43a75b: 12
439ead: 12
439f53: 12
43a24d: 12
43a3e1: 14
43a5dd: 24
43a1d3: 52
43a1c3: 55
439e34: 85
41a289: 95
41a2df: 98
41a72a: 98
41a3c4: 98
41a6c1: 98
41a377: 98
439fc5: 114
43a146: 121
43a0cf: 125
43a403: 128
43a688: 129
43a45a: 130
43a42a: 136
43a3e7: 140
43a0c0: 149
43a3f5: 151
43a410: 154
43a450: 201
43a158: 316
43a434: 346
43a680: 387
43a0ef: 392
439e30: 408
43a088: 413
43a080: 416
43a103: 440
439d7a: 447
4396c0: 450
4396b8: 450
439d35: 451
439d5b: 451
439d3d: 451
439d2a: 451
43a0b0: 456
43a1bb: 468
43a1fb: 468
439fc0: 481
41a2f0: 636
41a4b8: 748
41a64b: 769
41a4c0: 804
43a0d9: 814
43a183: 847
41a669: 853
439ed4: 938
439753: 981
439720: 992
43972d: 1003
43a0d5: 1169
439ed0: 1574
41a5ae: 2241
41a58a: 3627
41a538: 4183
41a558: 4792
43a17d: 4806
43a0fd: 6649
41a54a: 7071
41a596: 9116
41a566: 9242
41a5b7: 10419
41a5aa: 11506
41a573: 24557
L1I TOTAL     ACCESS:   34375071  HIT:   34374898  MISS:        173  HIT %:    99.9995  MISS %: 0.000503272   MPKI: 0.000865
L1I Test counter:          0
L1I LOAD      ACCESS:   34375071  HIT:   34374898  MISS:        222  HIT %:    99.9995  MISS %: 0.000503272   MPKI: 0.000865
L1I PREFETCH  REQUESTED:          0  ISSUED:          0  USEFUL:          0  USELESS:          0
L1I USEFUL LOAD PREFETCHES:          0 PREFETCH ISSUED TO LOWER LEVEL:          0  ACCURACY: -nan
L1I TIMELY PREFETCHES:          0 LATE PREFETCHES: 0 DROPPED PREFETCHES: 0
L1I COMMIT LATE PREFETCHES: 0 MISSED OPPORTUNITY: 0 LATE IN PQ: 0 UNCOVERED: 0
L1I COMMIT LATE MSHR PREFETCHES: 0
L1I MPKI TOTAL: 0.00111 MSHR LATE: 0 PQ LATE: 0 COMMIT LATE: 0 MISSED OPPORTUNITY: 0 UNCOVERED: 0
L1I PREFETCHES SAME FILL-ORIGIN LEVEL: 0 DIFFERENT FILL-ORIGIN LEVEL: 0
L1I AVERAGE MISS LATENCY: 211.59 cycles
L1I AVERAGE MISS LATENCY LOAD: 211.59 cycles
L1I AVERAGE MISS LATENCY PREFETCH: -nan cycles
L1I AVERAGE MSHR OCCUPANCY: 4.18908e-06
L1I MSHR FULL: 0
L1I RQ	ACCESS:   50544152	FORWARD:          0	MERGED:   16169031	TO_CACHE:   34375121

419b20: 1
4cf7c6: 1
562f41: 1
41b402: 1
41a501: 1
41b446: 1
561080: 1
56ad10: 1
4cf884: 1
43a881: 1
419b42: 1
43ad07: 1
41a442: 1
419b81: 1
419bc4: 1
419c07: 1
419c42: 1
419c81: 1
419fc4: 1
43aa05: 1
419cc6: 1
43b225: 1
4022c3: 1
402480: 1
560ea8: 1
55fe46: 1
55f902: 1
41a200: 1
43adca: 1
41a343: 1
43aac7: 1
560d70: 1
41a383: 1
419d00: 1
43ab87: 1
41b344: 1
43ae02: 1
402301: 1
411ae7: 1
43ac82: 1
457516: 1
561658: 1
41b1c5: 1
4cf780: 1
41a001: 1
560e29: 1
419ec3: 1
419d86: 1
56adc1: 1
419dc1: 1
56ad60: 1
419e44: 1
419f00: 1
419f80: 1
41b3c0: 1
41b282: 1
4110c7: 1
41a044: 1
41a082: 1
43ae40: 1
41a101: 1
41a182: 1
41a1c3: 1
41a400: 1
41a4c0: 1
41a542: 1
41a141: 1
41a285: 1
419d41: 1
560f02: 1
562f09: 1
56150c: 1
4cf92d: 1
560f44: 1
561002: 1
561128: 1
4cbb60: 1
43ab04: 1
5611f8: 1
561043: 1
41b241: 1
419e82: 1
561480: 1
561e84: 1
561dcf: 1
561e06: 1
5613c7: 1
561e6b: 1
560fbe: 1
55fe18: 1
4cf825: 1
5603f5: 1
419f40: 1
55fa04: 1
43af41: 1
55f9e0: 1
561203: 1
563540: 1
41b384: 1
410e41: 1
55fb03: 1
43acc7: 1
562ec0: 1
41a240: 1
410d80: 1
43a980: 1
43ad44: 1
55fd40: 1
402286: 1
55f8c1: 1
41a6c1: 1
41a684: 1
41a641: 1
41a602: 1
41a5c5: 1
560fc2: 1
402230: 1
561400: 1
41a586: 1
4cf840: 1
410e00: 1
43ae81: 1
55feee: 1
43b241: 1
55ff04: 1
43ac03: 1
55fac3: 1
41b2c2: 1
56ad81: 1
41a3c1: 1
43a8c7: 1
561440: 1
43a804: 1
41b304: 1
4119c2: 1
56124f: 1
43ad86: 1
43a842: 1
55f8b0: 1
43aa40: 1
43a9c4: 1
410dc3: 1
55fa42: 1
4023ac: 1
43ac43: 1
43abc3: 1
43a904: 1
410fa2: 1
43a945: 1
43aa81: 1
43af07: 1
41a480: 1
55faa0: 1
41a2c1: 1
560400: 1
41b190: 1
411880: 1
411840: 1
43aec2: 1
560d81: 1
402242: 1
41b201: 1
41a300: 1
41a715: 1
560ec0: 1
4117c3: 1
43ab48: 1
41a0c1: 1
4117a0: 1
419e02: 1
40247b: 1
411804: 1
55fb42: 1
BTB TOTAL     ACCESS:    7097427  HIT:    7097295  MISS:        132  HIT %:    99.9981  MISS %: 0.00185983   MPKI: 0.00066
BTB Test counter:          0
BTB BRANCH_DIRECT_JUMP	ACCESS:        147  HIT:        134  MISS:         13
BTB BRANCH_INDIRECT	ACCESS:          0  HIT:          0  MISS:          0
BTB BRANCH_CONDITIONAL	ACCESS:    7097022  HIT:    7096963  MISS:         59
BTB BRANCH_DIRECT_CALL	ACCESS:        129  HIT:         99  MISS:         30
BTB BRANCH_INDIRECT_CALL	ACCESS:          0  HIT:          0  MISS:          0
BTB BRANCH_RETURN	ACCESS:        129  HIT:         99  MISS:         30
BTB BRANCH_OTHER ACCESS:          0  HIT:          0  MISS:          0

L2C TOTAL     ACCESS:    9329932  HIT:    6703599  MISS:    2626333  HIT %:    71.8505  MISS %:    28.1495   MPKI: 13.1317
L2C Test counter:          0
L2C LOAD      ACCESS:     109605  HIT:      43864  MISS:      65741  HIT %:    40.0201  MISS %:    59.9799   MPKI: 0.328705
L2C DATA LOAD MPKI: 0.32784
L2C INSTRUCTION LOAD MPKI: 0.000865
L2C RFO       ACCESS:     375022  HIT:       2070  MISS:     372952  HIT %:   0.551968  MISS %:     99.448   MPKI: 1.86476
L2C PREFETCH  ACCESS:    7661725  HIT:    5526882  MISS:    2134843  HIT %:    72.1363  MISS %:    27.8637   MPKI: 10.6742
L2C DATA PREFETCH MPKI: 10.6742
L2C INSTRUCTION PREFETCH MPKI: 0
L2C WRITEBACK ACCESS:     441454  HIT:     429037  MISS:      12417  HIT %:    97.1872  MISS %:    2.81275   MPKI: 0.062085
L2C LOAD TRANSLATION ACCESS:      71757  HIT:      35263  MISS:      36494  HIT %:    49.1422  MISS %:    50.8578   MPKI: 0.18247
L2C TRANSLATION FROM L1D PREFETCHER ACCESS:     670369  HIT:     666483  MISS:       3886  HIT %:    99.4203  MISS %:   0.579681   MPKI: 0.01943
L2C PREFETCH  REQUESTED:          0  ISSUED:          0  USEFUL:      24672  USELESS:    2109134
L2C USEFUL LOAD PREFETCHES:      24672 PREFETCH ISSUED TO LOWER LEVEL:    2135124  ACCURACY: 1.15553
L2C TIMELY PREFETCHES:      24672 LATE PREFETCHES: 278 DROPPED PREFETCHES: 0
L2C COMMIT LATE PREFETCHES: 0 MISSED OPPORTUNITY: 0 LATE IN PQ: 0 UNCOVERED: 0
L2C COMMIT LATE MSHR PREFETCHES: 0
L2C MPKI TOTAL: 0.328705 MSHR LATE: 0.00139 PQ LATE: 0 COMMIT LATE: 0 MISSED OPPORTUNITY: 0 UNCOVERED: 0
L2C PREFETCHES SAME FILL-ORIGIN LEVEL: 690243 DIFFERENT FILL-ORIGIN LEVEL: 0
L2C AVERAGE MISS LATENCY: 126.712 cycles
L2C AVERAGE MISS LATENCY LOAD: 138.073 cycles
L2C AVERAGE MISS LATENCY PREFETCH: 118.145 cycles
L2C AVERAGE MSHR OCCUPANCY: 1.50864
L2C MSHR FULL: 0
L2C RQ	ACCESS:    1226777	FORWARD:          0	MERGED:          0	TO_CACHE:    1226753
L2C WQ	ACCESS:     441454	FORWARD:        195	MERGED:          0	TO_CACHE:     441454
L2C PQ	ACCESS:    8070774	FORWARD:          0	MERGED:          0	TO_CACHE:    8070603

L2C Instructions Evicting Data 173
L2C Translations Evicting Data 39679
L2C Data Evicting Data 2533827
L2C Instructions Evicting Instructions 0
L2C Translations Evicting Instructions 2
L2C Data Evicting Instructions 171
L2C Instructions Evicting Translations 0
L2C Translations Evicting Translations 699
L2C Data Evicting Translations 39365
L2C Dense regions hint from L2: 0
419f00: 1
55fab7: 1
55faa0: 1
55fa42: 1
55fa1d: 1
41b190: 1
560400: 1
43a810: 1
55fd60: 1
55fa04: 1
55fabf: 1
55fb42: 1
55fd49: 1
41b344: 1
41182c: 1
43a1fb: 1
419b42: 1
4cf884: 1
43a881: 1
4cf849: 1
4cf894: 1
41a141: 1
5611f8: 1
56ad10: 1
4cbb60: 1
55fe18: 1
41b274: 1
561440: 1
41b287: 1
419d00: 1
43b225: 1
43aec2: 1
410dc3: 1
55fefd: 1
55feee: 1
55ff04: 1
411848: 1
4cf780: 1
41a343: 1
41b291: 1
560ea8: 1
4cf840: 1
43a9c4: 1
43aac7: 1
41a2c1: 1
41a586: 1
43af07: 1
419e23: 1
419c42: 1
41a59a: 1
419ec3: 1
560e29: 1
41b282: 1
41187d: 1
402301: 1
41a238: 1
43a879: 1
419b3f: 1
410e00: 1
561480: 1
43a945: 1
41b2ae: 1
419bfc: 1
55fb03: 1
41b304: 1
41b253: 1
43ab87: 1
411861: 1
439f5b: 1
41a1c3: 1
43af41: 1
419b81: 1
4cf875: 1
56150c: 1
561e84: 1
561043: 1
561400: 1
43ad07: 1
561203: 1
561128: 1
561080: 1
560fbe: 1
560f02: 1
561dcf: 1
560d70: 1
562f09: 1
561e6b: 1
562ec9: 1
562ec0: 1
419f80: 1
419b8d: 1
41a285: 1
56ad60: 1
41a602: 1
41a5c5: 1
41a300: 1
41a542: 1
41a480: 1
41a400: 1
41a3c1: 1
41a383: 1
419d41: 1
41a200: 1
419fc4: 1
419f40: 1
419e02: 1
56adc1: 1
419dc1: 1
419d86: 1
43ae81: 1
41b222: 1
4cf825: 1
41b2a4: 1
560fc2: 1
411868: 1
41b2ca: 1
5613c7: 1
41b2dc: 1
41b2c2: 1
41b384: 1
419e82: 1
41b241: 1
419e06: 1
4110c7: 1
41b1c5: 1
41b201: 1
43b241: 1
55fac3: 1
419c07: 1
561002: 1
41b3c0: 1
419ca9: 1
419c33: 1
41a641: 1
419bb9: 1
419b62: 1
419c81: 1
56ad81: 1
419bc4: 1
4cf7c6: 1
419b20: 1
41b446: 1
562f41: 1
41b402: 1
41b354: 1
41a001: 1
43a763: 1
410fa2: 1
41b309: 1
55faab: 1
43ac43: 1
4119cc: 1
43a027: 1
43a0b0: 1
419cc6: 1
43aa05: 1
41a501: 1
560f44: 1
4cf92d: 1
43a7d9: 1
43abc3: 1
43a7dc: 1
43a8c7: 1
43a86d: 1
43a8da: 1
43ac82: 1
4117cd: 1
41a082: 1
55f9ff: 1
419c56: 1
560ec0: 1
43adea: 1
4117c3: 1
419e4c: 1
43a980: 1
411880: 1
43a00a: 1
55f8fb: 1
402242: 1
41a182: 1
41a0c1: 1
560d81: 1
41a101: 1
43a842: 1
43ae40: 1
4022c3: 1
4023ac: 1
402480: 1
419ca1: 1
56103f: 1
43acc7: 1
41a044: 1
56124f: 1
402230: 1
43ad86: 1
410e41: 1
43b23f: 1
55f8c1: 1
402286: 1
55fd40: 1
41a684: 1
41a715: 1
43adca: 1
4117f0: 1
410d80: 1
4117a0: 1
40247b: 1
411840: 1
4117ed: 1
419bd0: 1
411850: 1
43ae02: 1
411871: 1
43ad44: 1
43aa40: 1
55f8b0: 1
55fa3a: 1
43aa81: 1
43ab04: 1
41a442: 1
55fe46: 1
55f902: 1
562ee0: 1
411ae7: 1
43ab48: 1
419e61: 1
43aaec: 1
55f9e0: 1
41a240: 1
561e06: 1
43ac03: 1
43a1c3: 1
457516: 1
41a58a: 1
561658: 1
4119c2: 1
419b76: 1
43af45: 1
43a904: 1
4cf7ab: 1
43a804: 2
563540: 2
419e44: 2
411804: 2
5603f5: 2
41a2aa: 3
43a1d3: 5
43a74b: 5
43964a: 5
439fb0: 5
43a7b8: 6
43a6e3: 7
43a76b: 7
43a6db: 7
563559: 10
439761: 11
439f89: 11
4399c1: 11
4396c0: 11
439837: 11
4396b8: 11
439a3f: 11
4397cd: 11
4398ef: 11
43a75b: 11
4396e4: 11
43977e: 11
43a7ae: 11
439871: 11
43993b: 11
43a260: 12
439da8: 12
439dd9: 12
43a6f3: 12
439f71: 12
43a2d3: 12
439da0: 12
439df5: 12
43a68c: 12
43a258: 12
43a189: 12
439ead: 12
439e3c: 12
43a239: 12
43a5d0: 12
439e06: 12
439d98: 12
43a2ba: 12
43a30d: 12
43a23c: 12
43a548: 12
43a442: 12
439db8: 12
43a24d: 12
43a341: 12
43a6c3: 12
439f79: 12
43a3ed: 12
43a5dd: 12
439e1d: 12
43a118: 12
43a5a2: 12
43a599: 12
43a169: 12
439f53: 12
41a4c0: 26
41a4b8: 30
41a669: 52
43a688: 94
41a289: 95
41a3c4: 98
41a377: 98
41a2df: 98
41a72a: 98
41a6c1: 99
439fc5: 110
43a146: 115
43a450: 122
43a0cf: 122
43a158: 123
43a45a: 123
43a0c0: 125
43a183: 127
43a42a: 128
43a410: 129
43a0ef: 138
43a3f5: 140
43a0fd: 141
43a103: 152
43a680: 161
43a0d9: 163
439fc0: 165
439e30: 192
41a5ae: 242
43a434: 293
41a2f0: 319
439ed4: 480
439753: 980
439720: 990
43972d: 994
43a0d5: 1108
439ed0: 1133
43a17d: 3077
41a538: 4138
41a558: 4317
41a54a: 4864
41a566: 8534
41a596: 8738
41a5aa: 9232
41a573: 12143
PSCL5 TOTAL     ACCESS:     699148  HIT:     699148  MISS:          0  HIT %:        100  MISS %:          0   MPKI: 0
PSCL5 Test counter:          0
PSCL5 LOAD TRANSLATION ACCESS:      47834  HIT:      47834  MISS:          0  HIT %:        100  MISS %:          0   MPKI: 0
PSCL5 TRANSLATION FROM L1D PREFETCHER ACCESS:     651314  HIT:     651314  MISS:          0  HIT %:        100  MISS %:          0   MPKI: 0
PSCL5 PREFETCH  REQUESTED:          0  ISSUED:          0  USEFUL:          0  USELESS:          0
PSCL5 USEFUL LOAD PREFETCHES:          0 PREFETCH ISSUED TO LOWER LEVEL:          0  ACCURACY: -nan
PSCL5 TIMELY PREFETCHES:          0 LATE PREFETCHES: 0 DROPPED PREFETCHES: 0
PSCL5 COMMIT LATE PREFETCHES: 0 MISSED OPPORTUNITY: 0 LATE IN PQ: 0 UNCOVERED: 0
PSCL5 COMMIT LATE MSHR PREFETCHES: 0
PSCL5 MPKI TOTAL: 0 MSHR LATE: 0 PQ LATE: 0 COMMIT LATE: 0 MISSED OPPORTUNITY: 0 UNCOVERED: 0
PSCL5 PREFETCHES SAME FILL-ORIGIN LEVEL: 0 DIFFERENT FILL-ORIGIN LEVEL: 0

PSCL4 TOTAL     ACCESS:     699148  HIT:     699148  MISS:          0  HIT %:        100  MISS %:          0   MPKI: 0
PSCL4 Test counter:          0
PSCL4 LOAD TRANSLATION ACCESS:      47834  HIT:      47834  MISS:          0  HIT %:        100  MISS %:          0   MPKI: 0
PSCL4 TRANSLATION FROM L1D PREFETCHER ACCESS:     651314  HIT:     651314  MISS:          0  HIT %:        100  MISS %:          0   MPKI: 0
PSCL4 PREFETCH  REQUESTED:          0  ISSUED:          0  USEFUL:          0  USELESS:          0
PSCL4 USEFUL LOAD PREFETCHES:          0 PREFETCH ISSUED TO LOWER LEVEL:          0  ACCURACY: -nan
PSCL4 TIMELY PREFETCHES:          0 LATE PREFETCHES: 0 DROPPED PREFETCHES: 0
PSCL4 COMMIT LATE PREFETCHES: 0 MISSED OPPORTUNITY: 0 LATE IN PQ: 0 UNCOVERED: 0
PSCL4 COMMIT LATE MSHR PREFETCHES: 0
PSCL4 MPKI TOTAL: 0 MSHR LATE: 0 PQ LATE: 0 COMMIT LATE: 0 MISSED OPPORTUNITY: 0 UNCOVERED: 0
PSCL4 PREFETCHES SAME FILL-ORIGIN LEVEL: 0 DIFFERENT FILL-ORIGIN LEVEL: 0

PSCL3 TOTAL     ACCESS:     698672  HIT:     698493  MISS:        179  HIT %:    99.9744  MISS %:    0.02562   MPKI: 0.000895
PSCL3 Test counter:          0
PSCL3 LOAD TRANSLATION ACCESS:      47815  HIT:      47636  MISS:        179  HIT %:    99.6256  MISS %:    0.37436   MPKI: 0.000895
PSCL3 TRANSLATION FROM L1D PREFETCHER ACCESS:     650857  HIT:     650857  MISS:          0  HIT %:        100  MISS %:          0   MPKI: 0
PSCL3 PREFETCH  REQUESTED:          0  ISSUED:          0  USEFUL:          0  USELESS:          0
PSCL3 USEFUL LOAD PREFETCHES:          0 PREFETCH ISSUED TO LOWER LEVEL:          0  ACCURACY: -nan
PSCL3 TIMELY PREFETCHES:          0 LATE PREFETCHES: 0 DROPPED PREFETCHES: 0
PSCL3 COMMIT LATE PREFETCHES: 0 MISSED OPPORTUNITY: 0 LATE IN PQ: 0 UNCOVERED: 0
PSCL3 COMMIT LATE MSHR PREFETCHES: 0
PSCL3 MPKI TOTAL: 0 MSHR LATE: 0 PQ LATE: 0 COMMIT LATE: 0 MISSED OPPORTUNITY: 0 UNCOVERED: 0
PSCL3 PREFETCHES SAME FILL-ORIGIN LEVEL: 0 DIFFERENT FILL-ORIGIN LEVEL: 0

PSCL2 TOTAL     ACCESS:     678933  HIT:     654913  MISS:      24020  HIT %:    96.4621  MISS %:     3.5379   MPKI: 0.1201
PSCL2 Test counter:          0
PSCL2 LOAD TRANSLATION ACCESS:      47840  HIT:      23820  MISS:      24020  HIT %:     49.791  MISS %:     50.209   MPKI: 0.1201
PSCL2 TRANSLATION FROM L1D PREFETCHER ACCESS:     631093  HIT:     631093  MISS:          0  HIT %:        100  MISS %:          0   MPKI: 0
PSCL2 PREFETCH  REQUESTED:          0  ISSUED:          0  USEFUL:          0  USELESS:          0
PSCL2 USEFUL LOAD PREFETCHES:          0 PREFETCH ISSUED TO LOWER LEVEL:          0  ACCURACY: -nan
PSCL2 TIMELY PREFETCHES:          0 LATE PREFETCHES: 0 DROPPED PREFETCHES: 0
PSCL2 COMMIT LATE PREFETCHES: 0 MISSED OPPORTUNITY: 0 LATE IN PQ: 0 UNCOVERED: 0
PSCL2 COMMIT LATE MSHR PREFETCHES: 0
PSCL2 MPKI TOTAL: 0 MSHR LATE: 0 PQ LATE: 0 COMMIT LATE: 0 MISSED OPPORTUNITY: 0 UNCOVERED: 0
PSCL2 PREFETCHES SAME FILL-ORIGIN LEVEL: 0 DIFFERENT FILL-ORIGIN LEVEL: 0

LLC TOTAL     ACCESS:    3028741  HIT:     976116  MISS:    2052625  HIT %:    32.2284  MISS %:    67.7716   MPKI: 10.2631
LLC Test counter:          0
LLC LOAD      ACCESS:      65463  HIT:       8616  MISS:      56847  HIT %:    13.1616  MISS %:    86.8384   MPKI: 0.284235
LLC RFO       ACCESS:     372952  HIT:      59862  MISS:     313090  HIT %:    16.0509  MISS %:    83.9491   MPKI: 1.56545
LLC PREFETCH  ACCESS:    2135120  HIT:     471140  MISS:    1663980  HIT %:    22.0662  MISS %:    77.9338   MPKI: 8.3199
LLC WRITEBACK ACCESS:     414826  HIT:     412742  MISS:       2084  HIT %:    99.4976  MISS %:   0.502379   MPKI: 0.01042
LLC LOAD TRANSLATION ACCESS:      36494  HIT:      23575  MISS:      12919  HIT %:    64.5997  MISS %:    35.4003   MPKI: 0.064595
LLC TRANSLATION FROM L1D PREFETCHER ACCESS:       3886  HIT:        181  MISS:       3705  HIT %:    4.65775  MISS %:    95.3423   MPKI: 0.018525
LLC PREFETCH  REQUESTED:          0  ISSUED:          0  USEFUL:      24406  USELESS:    1621901
LLC USEFUL LOAD PREFETCHES:      24406 PREFETCH ISSUED TO LOWER LEVEL:    1663983  ACCURACY: 1.46672
LLC TIMELY PREFETCHES:      24406 LATE PREFETCHES: 0 DROPPED PREFETCHES: 0
LLC COMMIT LATE PREFETCHES: 0 MISSED OPPORTUNITY: 0 LATE IN PQ: 0 UNCOVERED: 0
LLC COMMIT LATE MSHR PREFETCHES: 0
LLC MPKI TOTAL: 0.284235 MSHR LATE: 0 PQ LATE: 0 COMMIT LATE: 0 MISSED OPPORTUNITY: 0 UNCOVERED: 0
LLC PREFETCHES SAME FILL-ORIGIN LEVEL: 0 DIFFERENT FILL-ORIGIN LEVEL: 0
LLC AVERAGE MISS LATENCY: 121.526 cycles
LLC AVERAGE MISS LATENCY LOAD: 111.203 cycles
LLC AVERAGE MISS LATENCY PREFETCH: 110.703 cycles
LLC AVERAGE MSHR OCCUPANCY: 1.61255
LLC MSHR FULL: 0
LLC RQ	ACCESS:     478795	FORWARD:          0	MERGED:          0	TO_CACHE:     478795
LLC WQ	ACCESS:     414826	FORWARD:          1	MERGED:          0	TO_CACHE:     414826
LLC PQ	ACCESS:    2135124	FORWARD:          0	MERGED:          0	TO_CACHE:    2135123

LLC Dense regions hint to LLC: 0
55fe46: 1
43a810: 1
419cc6: 1
43aa05: 1
55fb42: 1
40247b: 1
419c56: 1
560ec0: 1
4117c3: 1
43ab48: 1
4cf7ab: 1
411880: 1
411868: 1
55feee: 1
55fb03: 1
55f902: 1
43ac03: 1
55f8fb: 1
41a586: 1
4cf840: 1
560d81: 1
402242: 1
56ad81: 1
41b291: 1
43af45: 1
4117cd: 1
419bd0: 1
41182c: 1
411850: 1
43adca: 1
411848: 1
4119c2: 1
43a30d: 1
4cf7c6: 1
43ad07: 1
43af41: 1
419e23: 1
419b81: 1
419c42: 1
4cf780: 1
43a239: 1
419ec3: 1
560e29: 1
41b282: 1
41187d: 1
41a442: 1
41a240: 1
41a59a: 1
411871: 1
56ad10: 1
419e61: 1
411ae7: 1
41a6c1: 1
419b76: 1
411861: 1
55faa0: 1
561e06: 1
41a082: 1
55fabf: 1
562ee0: 1
410dc3: 1
41a1c3: 1
43a86d: 1
560400: 1
55f9ff: 1
43b23f: 1
55f8c1: 1
419d00: 1
43b225: 1
55f9e0: 1
402286: 1
55fd40: 1
419f00: 1
55fd49: 1
55fa04: 1
43ac43: 1
55faab: 1
55fd60: 1
41b190: 1
410e41: 1
43aa81: 1
55fa3a: 1
55fac3: 1
55fe18: 1
55fefd: 1
43ae81: 1
4cf849: 1
43af07: 1
4cf875: 1
560f44: 1
4cf92d: 1
41b304: 1
4cf894: 1
43b241: 1
55fa42: 1
43ad44: 1
43aa40: 1
55f8b0: 1
43aac7: 1
43ab04: 1
402230: 1
41a101: 1
43ae40: 1
41a141: 1
5611f8: 1
4cbb60: 1
4022c3: 1
43ae02: 1
402301: 1
4023ac: 1
41a715: 1
402480: 1
43ab87: 1
43abc3: 1
419ca1: 1
43ac82: 1
56103f: 1
43acc7: 1
41a044: 1
4110c7: 1
56124f: 1
43a842: 1
43ad86: 1
41a2c1: 1
410e00: 1
41b201: 1
562ec9: 1
41b2ca: 1
5613c7: 1
562f09: 1
41b2dc: 1
41b2ae: 1
560d70: 1
41b2c2: 1
41b222: 1
419e82: 1
56150c: 1
41b241: 1
419e06: 1
560f02: 1
41b1c5: 1
562ec0: 1
560fbe: 1
561080: 1
561658: 1
457516: 1
411840: 1
561128: 1
561203: 1
4117a0: 1
561400: 1
43a980: 1
4117f0: 1
43a8da: 1
43a945: 1
43a879: 1
41b446: 1
419ca9: 1
419c33: 1
41a641: 1
419bb9: 1
41a684: 1
419bfc: 1
561002: 1
419b62: 1
419c81: 1
419d41: 1
419c07: 1
419bc4: 1
419b20: 1
41a285: 1
410d80: 1
562f41: 1
41b402: 1
41b354: 1
41a001: 1
41b3c0: 1
41b309: 1
41b344: 1
41b384: 1
419b8d: 1
4cf825: 1
419f80: 1
41b2a4: 1
41b287: 1
560fc2: 1
41a383: 1
41a182: 1
43a7dc: 1
4117ed: 1
41a200: 1
41a501: 1
561043: 1
419b3f: 1
56ad60: 1
41a300: 1
41a343: 1
43aec2: 1
55ff04: 1
410fa2: 1
43a904: 1
55fab7: 1
41a3c1: 1
41b253: 1
41a400: 1
41a480: 1
41a542: 1
41a5c5: 1
41a602: 1
560ea8: 1
43a9c4: 1
4cf884: 1
561440: 1
561e6b: 1
41a238: 1
561480: 1
43a8c7: 1
561e84: 1
561dcf: 1
419b42: 1
419d86: 1
419dc1: 1
56adc1: 1
43a881: 1
41a0c1: 1
41b274: 1
419fc4: 1
419f40: 1
419e02: 1
5603f5: 2
563540: 2
411804: 2
43a804: 2
419e44: 2
563559: 3
43a7b8: 4
439761: 4
43a1d3: 5
43a118: 7
439f71: 7
439dd9: 7
4397cd: 9
43977e: 9
43993b: 10
439837: 10
4399c1: 10
43a42a: 10
439a3f: 10
439871: 11
439f89: 11
4396e4: 11
4396c0: 11
4396b8: 11
439e06: 12
439da8: 12
43a341: 12
43a5dd: 12
439da0: 12
439db8: 12
43a6f3: 12
43a5a2: 12
439e1d: 12
43a68c: 12
439f53: 12
43a169: 12
43a442: 12
43a3ed: 12
439df5: 12
43a189: 12
439f79: 12
439e3c: 12
439ead: 12
439d98: 12
41a669: 15
41a4b8: 15
41a4c0: 18
43a434: 50
43a0fd: 82
43a0ef: 86
41a558: 91
43a450: 105
439ed4: 108
439fc5: 110
43a0cf: 112
439fc0: 113
43a183: 114
43a146: 115
43a158: 117
43a0c0: 123
439e30: 146
43a103: 151
43a0d9: 151
41a5ae: 225
41a2f0: 267
439753: 980
439720: 990
43972d: 994
43a0d5: 1106
439ed0: 1119
43a17d: 1148
41a538: 4133
41a54a: 4807
41a566: 8517
41a596: 8737
41a5aa: 9228
41a573: 12135

RAW hits: 894632
Loads Generated: 73695281
Loads sent to L1D: 72800648
Stores Generated: 11408451
Stores sent to L1D: 11408461
Major fault: 0 Minor fault: 53394
Allocated PAGES: 53394
Total Load insts: 88727549
Total Non-spec loads: 8364405
Percentage of speculative loads: 90.5729
L1D response latency: 104.851 cycles
Load retirement latency: 454.456 cycles

LATENCY_FILL: 86.7844 121684

DRAM Statistics
 CHANNEL 0
 RQ ROW_BUFFER_HIT:    1335090  ROW_BUFFER_MISS:     715214
 DBUS_CONGESTED:       1150
 WQ ROW_BUFFER_HIT:      91004  ROW_BUFFER_MISS:     285008  FULL:          0

 AVG_CONGESTED_CYCLE: 4
 All warmup complete: 2
Channel 0 Bank busy for read cycles: 0
Channel 0 Bank busy for write cycles: 0
Channel 0
Rank 0
0banks busy for read cycles: 75148057
0banks busy for write cycles: 77157
1banks busy for read cycles: 52469959
1banks busy for write cycles: 9291822
2banks busy for read cycles: 24557724
2banks busy for write cycles: 5287491
3banks busy for read cycles: 7363378
3banks busy for write cycles: 2321477
4banks busy for read cycles: 3153471
4banks busy for write cycles: 1245963
5banks busy for read cycles: 1701169
5banks busy for write cycles: 704188
6banks busy for read cycles: 1178564
6banks busy for write cycles: 454647
7banks busy for read cycles: 997725
7banks busy for write cycles: 557543
8banks busy for read cycles: 1989341
8banks busy for write cycles: 3701543

CPU 0 Branch Prediction Accuracy: 99.9104% MPKI: 0.03179 Average ROB Occupancy at Mispredict: 61.0327
Branch types
NOT_BRANCH: 192900803 96.4504%
BRANCH_DIRECT_JUMP: 147 7.35e-05%
BRANCH_INDIRECT: 0 0%
BRANCH_CONDITIONAL: 7098475 3.54924%
BRANCH_DIRECT_CALL: 129 6.45e-05%
BRANCH_INDIRECT_CALL: 0 0%
BRANCH_RETURN: 129 6.45e-05%
BRANCH_OTHER: 0 0%

DRAM PAGES: 1048576
Allocated PAGES: 53394
