
*** ChampSim Multicore Out-of-Order Simulator ***

Warmup Instructions: 50000000
Simulation Instructions: 200000000
Number of CPUs: 1
LLC sets: 2048
LLC ways: 16
Secure Berti: OFF
Berti: OFF
Berti Fill: OFF
On commit prefetching: OFF
L2 LLC Bypass speculative loads: OFF
Off-chip DRAM Size: 4096 MB Channels: 1 Width: 64-bit Data Rate: 6400 MT/s
CPU 0 runs /home/sumon/secure_berti/Berti_Baseline/../../traces/spec/657.xz_s-2302B.champsimtrace.xz
.xz
BTB has LRU replacement policy
ITLB has LRU replacement policy
DTLB has LRU replacement policy
STLB has LRU replacement policy
L1I has LRU replacement policy
History Sets: 8
History Ways: 16
BERTI Size: 16
BERTI Stride Size: 16
L1D has LRU replacement policy
L2C has LRU replacement policy
LLC has LRU replacement policy
Heartbeat CPU 0 instructions: 10000003 cycles: 2790985 heartbeat IPC: 3.58297 cumulative IPC: 3.58297 (Simulation time: 0 hr 0 min 19 sec) 
Heartbeat CPU 0 instructions: 20000002 cycles: 5586055 heartbeat IPC: 3.57773 cumulative IPC: 3.58034 (Simulation time: 0 hr 0 min 36 sec) 
Heartbeat CPU 0 instructions: 30000000 cycles: 8412152 heartbeat IPC: 3.53845 cumulative IPC: 3.56627 (Simulation time: 0 hr 0 min 53 sec) 
Heartbeat CPU 0 instructions: 40000003 cycles: 11198519 heartbeat IPC: 3.5889 cumulative IPC: 3.5719 (Simulation time: 0 hr 1 min 11 sec) 
Heartbeat CPU 0 instructions: 50000000 cycles: 13990588 heartbeat IPC: 3.58157 cumulative IPC: 3.57383 (Simulation time: 0 hr 1 min 29 sec) 

Warmup complete CPU 0 instructions: 50000004 cycles: 13990589 (Simulation time: 0 hr 1 min 29 sec) 

Heartbeat CPU 0 instructions: 60000002 cycles: 31663444 heartbeat IPC: 0.56584 cumulative IPC: 0.565839 (Simulation time: 0 hr 1 min 53 sec) 
Heartbeat CPU 0 instructions: 70000000 cycles: 48650942 heartbeat IPC: 0.588668 cumulative IPC: 0.577028 (Simulation time: 0 hr 2 min 16 sec) 
Heartbeat CPU 0 instructions: 80000003 cycles: 66078080 heartbeat IPC: 0.573818 cumulative IPC: 0.575954 (Simulation time: 0 hr 2 min 39 sec) 
Heartbeat CPU 0 instructions: 90000002 cycles: 83766244 heartbeat IPC: 0.56535 cumulative IPC: 0.573266 (Simulation time: 0 hr 3 min 3 sec) 
Heartbeat CPU 0 instructions: 100000001 cycles: 100755806 heartbeat IPC: 0.588597 cumulative IPC: 0.576268 (Simulation time: 0 hr 3 min 27 sec) 
Heartbeat CPU 0 instructions: 110000000 cycles: 118375138 heartbeat IPC: 0.567558 cumulative IPC: 0.574798 (Simulation time: 0 hr 3 min 52 sec) 
Heartbeat CPU 0 instructions: 120000003 cycles: 136233443 heartbeat IPC: 0.559964 cumulative IPC: 0.572631 (Simulation time: 0 hr 4 min 17 sec) 
Heartbeat CPU 0 instructions: 130000000 cycles: 154097485 heartbeat IPC: 0.559784 cumulative IPC: 0.570993 (Simulation time: 0 hr 4 min 43 sec) 
Heartbeat CPU 0 instructions: 140000000 cycles: 170595422 heartbeat IPC: 0.606136 cumulative IPC: 0.574695 (Simulation time: 0 hr 5 min 8 sec) 
Heartbeat CPU 0 instructions: 150000003 cycles: 188490235 heartbeat IPC: 0.558821 cumulative IPC: 0.573067 (Simulation time: 0 hr 5 min 34 sec) 
Heartbeat CPU 0 instructions: 160000003 cycles: 206394498 heartbeat IPC: 0.558526 cumulative IPC: 0.571714 (Simulation time: 0 hr 6 min 1 sec) 
Heartbeat CPU 0 instructions: 170000000 cycles: 222019993 heartbeat IPC: 0.63998 cumulative IPC: 0.576842 (Simulation time: 0 hr 6 min 29 sec) 
Heartbeat CPU 0 instructions: 180000001 cycles: 236793298 heartbeat IPC: 0.676897 cumulative IPC: 0.583476 (Simulation time: 0 hr 6 min 57 sec) 
Heartbeat CPU 0 instructions: 190000002 cycles: 251479777 heartbeat IPC: 0.680898 cumulative IPC: 0.5895 (Simulation time: 0 hr 7 min 26 sec) 
Heartbeat CPU 0 instructions: 200000002 cycles: 266173675 heartbeat IPC: 0.680555 cumulative IPC: 0.594806 (Simulation time: 0 hr 7 min 54 sec) 
Heartbeat CPU 0 instructions: 210000000 cycles: 280855417 heartbeat IPC: 0.681118 cumulative IPC: 0.599554 (Simulation time: 0 hr 8 min 22 sec) 
Heartbeat CPU 0 instructions: 220000000 cycles: 295558467 heartbeat IPC: 0.680131 cumulative IPC: 0.603762 (Simulation time: 0 hr 8 min 50 sec) 
Heartbeat CPU 0 instructions: 230000003 cycles: 310397791 heartbeat IPC: 0.673885 cumulative IPC: 0.607273 (Simulation time: 0 hr 9 min 18 sec) 
Heartbeat CPU 0 instructions: 240000001 cycles: 325316134 heartbeat IPC: 0.670316 cumulative IPC: 0.610294 (Simulation time: 0 hr 9 min 45 sec) 
Heartbeat CPU 0 instructions: 250000003 cycles: 340154815 heartbeat IPC: 0.673914 cumulative IPC: 0.613188 (Simulation time: 0 hr 10 min 12 sec) 
Finished CPU 0 instructions: 200000003 cycles: 326164227 cumulative IPC: 0.613188 (Simulation time: 0 hr 10 min 12 sec) 

ChampSim completed all CPUs

Region of Interest Statistics

CPU 0 cumulative IPC: 0.613188 instructions: 200000003 cycles: 326164227
ITLB TOTAL     ACCESS:   28832214  HIT:   28832214  MISS:          0  HIT %:        100  MISS %:          0   MPKI: 0
ITLB Test counter:          0
ITLB LOAD TRANSLATION ACCESS:   28832214  HIT:   28832214  MISS:          0  HIT %:        100  MISS %:          0   MPKI: 0
ITLB PREFETCH  REQUESTED:          0  ISSUED:          0  USEFUL:          0  USELESS:          0
ITLB USEFUL LOAD PREFETCHES:          0 PREFETCH ISSUED TO LOWER LEVEL:          0  ACCURACY: -nan
ITLB TIMELY PREFETCHES:          0 LATE PREFETCHES: 0 DROPPED PREFETCHES: 0
ITLB COMMIT LATE PREFETCHES: 0 MISSED OPPORTUNITY: 0 LATE IN PQ: 0 UNCOVERED: 0
ITLB COMMIT LATE MSHR PREFETCHES: 0
ITLB MPKI TOTAL: 0 MSHR LATE: 0 PQ LATE: 0 COMMIT LATE: 0 MISSED OPPORTUNITY: 0 UNCOVERED: 0
ITLB PREFETCHES SAME FILL-ORIGIN LEVEL: 0 DIFFERENT FILL-ORIGIN LEVEL: 0
ITLB AVERAGE MISS LATENCY: -nan cycles
ITLB AVERAGE MISS LATENCY LOAD: -nan cycles
ITLB AVERAGE MISS LATENCY PREFETCH: -nan cycles
ITLB AVERAGE MSHR OCCUPANCY: 0
ITLB MSHR FULL: 0
ITLB RQ	ACCESS:   34293769	FORWARD:          0	MERGED:    5461556	TO_CACHE:   28832213

DTLB TOTAL     ACCESS:   40541568  HIT:   39621531  MISS:     920037  HIT %:    97.7306  MISS %:    2.26937   MPKI: 4.60018
DTLB Test counter:          0
DTLB LOAD TRANSLATION ACCESS:   40541568  HIT:   39621531  MISS:     920037  HIT %:    97.7306  MISS %:    2.26937   MPKI: 4.60018
DTLB PREFETCH  REQUESTED:          0  ISSUED:          0  USEFUL:          0  USELESS:          0
DTLB USEFUL LOAD PREFETCHES:          0 PREFETCH ISSUED TO LOWER LEVEL:          0  ACCURACY: -nan
DTLB TIMELY PREFETCHES:          0 LATE PREFETCHES: 0 DROPPED PREFETCHES: 0
DTLB COMMIT LATE PREFETCHES: 0 MISSED OPPORTUNITY: 0 LATE IN PQ: 0 UNCOVERED: 0
DTLB COMMIT LATE MSHR PREFETCHES: 0
DTLB MPKI TOTAL: 0 MSHR LATE: 0 PQ LATE: 0 COMMIT LATE: 0 MISSED OPPORTUNITY: 0 UNCOVERED: 0
DTLB PREFETCHES SAME FILL-ORIGIN LEVEL: 0 DIFFERENT FILL-ORIGIN LEVEL: 0
DTLB AVERAGE MISS LATENCY: 13.6148 cycles
DTLB AVERAGE MISS LATENCY LOAD: -nan cycles
DTLB AVERAGE MISS LATENCY PREFETCH: -nan cycles
DTLB AVERAGE MSHR OCCUPANCY: 0.0444581
DTLB MSHR FULL: 2.46623e-08
DTLB RQ	ACCESS:   49830359	FORWARD:          0	MERGED:    9282586	TO_CACHE:   40547773

STLB TOTAL     ACCESS:    1325524  HIT:    1191198  MISS:     134326  HIT %:    89.8662  MISS %:    10.1338   MPKI: 0.67163
STLB Test counter:          0
STLB LOAD TRANSLATION ACCESS:     920037  HIT:     785933  MISS:     134104  HIT %:    85.4241  MISS %:    14.5759   MPKI: 0.67052
STLB TRANSLATION FROM L1D PREFETCHER ACCESS:     405487  HIT:     405265  MISS:        222  HIT %:    99.9453  MISS %:   0.054749   MPKI: 0.00111
STLB PREFETCH  REQUESTED:          0  ISSUED:          0  USEFUL:        168  USELESS:         54
STLB USEFUL LOAD PREFETCHES:        168 PREFETCH ISSUED TO LOWER LEVEL:          0  ACCURACY: inf
STLB TIMELY PREFETCHES:        168 LATE PREFETCHES: 51 DROPPED PREFETCHES: 3465
STLB COMMIT LATE PREFETCHES: 0 MISSED OPPORTUNITY: 0 LATE IN PQ: 0 UNCOVERED: 0
STLB COMMIT LATE MSHR PREFETCHES: 0
STLB MPKI TOTAL: 0 MSHR LATE: 0.000255 PQ LATE: 0 COMMIT LATE: 0 MISSED OPPORTUNITY: 0 UNCOVERED: 0
STLB PREFETCHES SAME FILL-ORIGIN LEVEL: 0 DIFFERENT FILL-ORIGIN LEVEL: 0
STLB AVERAGE MISS LATENCY: 31.5644 cycles
STLB AVERAGE MISS LATENCY LOAD: -nan cycles
STLB AVERAGE MISS LATENCY PREFETCH: -nan cycles
STLB AVERAGE MSHR OCCUPANCY: 0.0309175
STLB MSHR FULL: 0
STLB RQ	ACCESS:    2025860	FORWARD:          0	MERGED:     696096	TO_CACHE:    1329764

STLB Hit, L1D data hit: 0
STLB Hit, L2C data hit: 0
STLB Hit, LLC data hit: 0
STLB Hit, LLC data miss: 0
STLB STLB hints to L2: 0
L1D TOTAL     ACCESS:   50575979  HIT:   49456920  MISS:    1119059  HIT %:    97.7874  MISS %:    2.21263   MPKI: 5.59529
L1D Test counter:          0
L1D LOAD      ACCESS:   32833388  HIT:   31857938  MISS:    1081504  HIT %:    97.0291  MISS %:    2.97091   MPKI: 4.87725
L1D RFO       ACCESS:   16841170  HIT:   16705044  MISS:     136126  HIT %:    99.1917  MISS %:   0.808293   MPKI: 0.68063
L1D PREFETCH  ACCESS:     901421  HIT:     893938  MISS:       7483  HIT %:    99.1699  MISS %:   0.830134   MPKI: 0.037415
L1D PREFETCH  REQUESTED:    2251288  ISSUED:    2251106  USEFUL:       6198  USELESS:       1285
L1D USEFUL LOAD PREFETCHES:       6198 PREFETCH ISSUED TO LOWER LEVEL:     189424  ACCURACY: 3.27202
L1D TIMELY PREFETCHES:       6198 LATE PREFETCHES: 67 DROPPED PREFETCHES: 8835
L1D COMMIT LATE PREFETCHES: 0 MISSED OPPORTUNITY: 0 LATE IN PQ: 240 UNCOVERED: 0
L1D COMMIT LATE MSHR PREFETCHES: 0
L1D MPKI TOTAL: 5.40752 MSHR LATE: 0.000335 PQ LATE: 0.0012 COMMIT LATE: 0 MISSED OPPORTUNITY: 0 UNCOVERED: 0
L1D PREFETCHES SAME FILL-ORIGIN LEVEL: 7553 DIFFERENT FILL-ORIGIN LEVEL: 181871
L1D AVERAGE MISS LATENCY: 65.8089 cycles
L1D AVERAGE MISS LATENCY LOAD: 65.9086 cycles
L1D AVERAGE MISS LATENCY PREFETCH: 86.2337 cycles
L1D AVERAGE MSHR OCCUPANCY: 0.102433
L1D MSHR FULL: 0
L1D RQ	ACCESS:   45131710	FORWARD:          0	MERGED:   12039958	TO_CACHE:   32939442
L1D WQ	ACCESS:   17197816	FORWARD:     152350	MERGED:     306899	TO_CACHE:   16890917
L1D PQ	ACCESS:    1145283	FORWARD:          0	MERGED:      39420	TO_CACHE:    1105823

L1D UNIQUE REGIONS ACCESSED: 0
L1D REGIONS CONFLICTS: 0
L1D Cross Page Prefetch Requests: 136396
L1D Same Page Prefetch Requests: 1339514
L1D ROI Sum of L1D PQ occupancy: 15653739
L1D PREFETCHES PUSHED FROM L2C: 0
4118c2: 1
411570: 1
411480: 1
4113e5: 1
40207e: 1
4117a0: 1
411ac0: 1
4106ff: 1
4110f5: 1
4120ca: 1
411b12: 1
4116a0: 1
40d984: 1
41240b: 1
40d90c: 1
41250d: 1
411a76: 1
4123a5: 1
412616: 2
40d772: 2
40dfa8: 2
41165f: 2
40d769: 3
4117a5: 3
412aff: 3
40df8d: 4
410691: 4
41176d: 4
4116a5: 4
411cd7: 4
4124cb: 5
4115a0: 6
412686: 7
4133e8: 7
4111c5: 7
40f1fe: 8
40f3aa: 8
411378: 8
411260: 8
412c90: 9
412add: 10
41061a: 11
412d7e: 13
41287d: 14
401f9f: 14
41065c: 15
411b02: 15
411eb4: 17
412ff8: 18
412997: 19
402081: 22
4020a0: 23
40af13: 23
4062e7: 23
4020af: 23
442d90: 23
404ba6: 23
406511: 23
404ba1: 23
40b080: 23
401a0a: 23
40b0b1: 23
406280: 23
40af1d: 23
401fde: 23
4183b8: 23
40f3af: 23
404b72: 23
418035: 23
401f53: 23
404bd1: 23
40afae: 23
41804b: 23
41ff47: 23
40630e: 23
41fee9: 23
404b99: 23
4183bd: 23
401ae3: 23
411d83: 23
4097e7: 23
412c23: 24
411111: 25
41149e: 25
40f125: 26
40ec7c: 29
4115a5: 31
412c27: 38
40edc5: 41
411136: 43
4105f9: 44
411ad1: 48
412d3e: 49
4110c0: 50
412fbf: 51
41112b: 55
413535: 59
40e2fb: 66
412863: 66
40ecea: 69
40ecee: 69
41198a: 69
410256: 70
40d78c: 70
40ecf7: 71
41028e: 76
4114f0: 79
411a2a: 81
4114f6: 82
412500: 87
41261b: 100
4122b8: 109
412975: 110
411982: 113
4112a9: 118
412b5f: 118
40ee3c: 119
41064a: 129
411a65: 140
413822: 167
411efb: 182
4111b4: 188
40d87a: 206
40d9af: 212
442dab: 278
4137f7: 316
409a00: 324
40feb6: 334
41112c: 336
40ed18: 346
411102: 354
41394a: 368
40f492: 371
40f420: 376
40b204: 385
40e08f: 399
4135e5: 415
41344a: 499
40f0d5: 513
4106ea: 529
411558: 530
411eed: 582
411646: 588
411754: 602
4134d8: 712
40b200: 718
409a32: 736
409a3a: 736
409a2a: 736
409a41: 736
40dc81: 756
4105c2: 855
40dfae: 865
40f031: 893
411e80: 905
4134dc: 998
40d791: 1110
4122fa: 1159
411e9f: 1243
40d876: 1297
412b9f: 1314
40df08: 1337
41342e: 1350
411a18: 1713
412965: 1730
4138f9: 1918
41252e: 2077
40fe9d: 3789
40f4d9: 3963
40e08b: 4011
412395: 4647
40d7e7: 5314
40dc7a: 5582
40f4ab: 5781
413952: 6055
40e110: 7397
40d7a3: 8294
4133b7: 8855
4133cf: 12466
4123fa: 12480
40d831: 19079
40dfc3: 58374
40d7b0: 72416
40d7ba: 87096
40e063: 90512
40e0d4: 127768
40dc40: 157970
40dd04: 234672
L1I TOTAL     ACCESS:   34293574  HIT:   34293182  MISS:        392  HIT %:    99.9989  MISS %: 0.00114307   MPKI: 0.00196
L1I Test counter:          0
L1I LOAD      ACCESS:   34293574  HIT:   34293182  MISS:        587  HIT %:    99.9989  MISS %: 0.00114307   MPKI: 0.00196
L1I PREFETCH  REQUESTED:          0  ISSUED:          0  USEFUL:          0  USELESS:          0
L1I USEFUL LOAD PREFETCHES:          0 PREFETCH ISSUED TO LOWER LEVEL:          0  ACCURACY: -nan
L1I TIMELY PREFETCHES:          0 LATE PREFETCHES: 0 DROPPED PREFETCHES: 0
L1I COMMIT LATE PREFETCHES: 0 MISSED OPPORTUNITY: 0 LATE IN PQ: 0 UNCOVERED: 0
L1I COMMIT LATE MSHR PREFETCHES: 0
L1I MPKI TOTAL: 0.002935 MSHR LATE: 0 PQ LATE: 0 COMMIT LATE: 0 MISSED OPPORTUNITY: 0 UNCOVERED: 0
L1I PREFETCHES SAME FILL-ORIGIN LEVEL: 0 DIFFERENT FILL-ORIGIN LEVEL: 0
L1I AVERAGE MISS LATENCY: 81.8597 cycles
L1I AVERAGE MISS LATENCY LOAD: 81.8597 cycles
L1I AVERAGE MISS LATENCY PREFETCH: -nan cycles
L1I AVERAGE MSHR OCCUPANCY: 2.02369e-05
L1I MSHR FULL: 0
L1I RQ	ACCESS:   52176197	FORWARD:          0	MERGED:   17882428	TO_CACHE:   34293769

4100ed: 3
40f042: 4
413044: 7
410042: 8
40e0d0: 8
40e041: 8
40e0c0: 9
40f0c2: 10
4120c6: 14
40f080: 14
4130c3: 14
413079: 15
412080: 17
4130b0: 17
40e080: 18
410082: 19
41f086: 23
41f060: 23
402081: 23
40b051: 23
418040: 23
4020c1: 23
41f0c4: 23
4060c1: 23
4060b0: 23
BTB TOTAL     ACCESS:   23485692  HIT:   23238860  MISS:     246832  HIT %:     98.949  MISS %:    1.05099   MPKI: 1.23416
BTB Test counter:          0
BTB BRANCH_DIRECT_JUMP	ACCESS:    2818425  HIT:    2818347  MISS:         78
BTB BRANCH_INDIRECT	ACCESS:     447403  HIT:     208958  MISS:     238445
BTB BRANCH_CONDITIONAL	ACCESS:   19634890  HIT:   19634641  MISS:        249
BTB BRANCH_DIRECT_CALL	ACCESS:     190457  HIT:     190438  MISS:         19
BTB BRANCH_INDIRECT_CALL	ACCESS:     102031  HIT:     102024  MISS:          7
BTB BRANCH_RETURN	ACCESS:     292486  HIT:     284452  MISS:       8034
BTB BRANCH_OTHER ACCESS:          0  HIT:          0  MISS:          0

L2C TOTAL     ACCESS:    2190685  HIT:    1646834  MISS:     543851  HIT %:    75.1744  MISS %:    24.8256   MPKI: 2.71925
L2C Test counter:          0
L2C LOAD      ACCESS:     975775  HIT:     523367  MISS:     452408  HIT %:     53.636  MISS %:     46.364   MPKI: 2.26204
L2C DATA LOAD MPKI: 2.26011
L2C INSTRUCTION LOAD MPKI: 0.001925
L2C RFO       ACCESS:     136123  HIT:      88300  MISS:      47823  HIT %:    64.8678  MISS %:    35.1322   MPKI: 0.239115
L2C PREFETCH  ACCESS:     181957  HIT:     162638  MISS:      19319  HIT %:    89.3827  MISS %:    10.6173   MPKI: 0.096595
L2C DATA PREFETCH MPKI: 0.096595
L2C INSTRUCTION PREFETCH MPKI: 0
L2C WRITEBACK ACCESS:     758731  HIT:     757114  MISS:       1617  HIT %:    99.7869  MISS %:   0.213119   MPKI: 0.008085
L2C LOAD TRANSLATION ACCESS:     134202  HIT:     111625  MISS:      22577  HIT %:    83.1769  MISS %:    16.8231   MPKI: 0.112885
L2C TRANSLATION FROM L1D PREFETCHER ACCESS:       3897  HIT:       3790  MISS:        107  HIT %:    97.2543  MISS %:     2.7457   MPKI: 0.000535
L2C PREFETCH  REQUESTED:          0  ISSUED:          0  USEFUL:       4928  USELESS:      14258
L2C USEFUL LOAD PREFETCHES:       4928 PREFETCH ISSUED TO LOWER LEVEL:      19369  ACCURACY: 25.4427
L2C TIMELY PREFETCHES:       4928 LATE PREFETCHES: 50 DROPPED PREFETCHES: 0
L2C COMMIT LATE PREFETCHES: 0 MISSED OPPORTUNITY: 0 LATE IN PQ: 0 UNCOVERED: 0
L2C COMMIT LATE MSHR PREFETCHES: 0
L2C MPKI TOTAL: 2.26204 MSHR LATE: 0.00025 PQ LATE: 0 COMMIT LATE: 0 MISSED OPPORTUNITY: 0 UNCOVERED: 0
L2C PREFETCHES SAME FILL-ORIGIN LEVEL: 14978 DIFFERENT FILL-ORIGIN LEVEL: 0
L2C AVERAGE MISS LATENCY: 110.2 cycles
L2C AVERAGE MISS LATENCY LOAD: 109.775 cycles
L2C AVERAGE MISS LATENCY PREFETCH: 121.231 cycles
L2C AVERAGE MSHR OCCUPANCY: 0.24985
L2C MSHR FULL: 0
L2C RQ	ACCESS:    1249997	FORWARD:          0	MERGED:          0	TO_CACHE:    1249997
L2C WQ	ACCESS:     758731	FORWARD:          0	MERGED:          0	TO_CACHE:     758731
L2C PQ	ACCESS:     189424	FORWARD:          0	MERGED:         42	TO_CACHE:     189382

L2C Instructions Evicting Data 375
L2C Translations Evicting Data 21595
L2C Data Evicting Data 497035
L2C Instructions Evicting Instructions 1
L2C Translations Evicting Instructions 19
L2C Data Evicting Instructions 347
L2C Instructions Evicting Translations 9
L2C Translations Evicting Translations 1070
L2C Data Evicting Translations 21783
L2C Dense regions hint from L2: 0
40ecee: 1
4110c0: 1
411b02: 1
40ed18: 1
413535: 1
40f125: 1
4117a0: 1
40e2fb: 1
4133e8: 1
4113e5: 1
41064a: 1
40dfa8: 1
40ecea: 1
40207e: 1
41112c: 1
40f420: 1
4116a0: 1
40d984: 1
410256: 1
4124cb: 1
40d772: 1
41250d: 1
40ee3c: 1
411260: 2
411982: 2
412616: 2
412fbf: 2
411378: 2
412b5f: 2
41165f: 2
411d83: 2
40f0d5: 3
4100ed: 3
40df8d: 3
412d3e: 3
41176d: 3
40f492: 3
4116a5: 3
4117a5: 3
412500: 3
4111c5: 4
41061a: 4
41394a: 4
40f042: 4
410691: 4
41065c: 4
411efb: 5
411eb4: 5
41149e: 5
412ff8: 5
4115a0: 6
4137f7: 7
413044: 7
4112a9: 7
411ad1: 8
40e0d0: 8
40f031: 8
40e041: 8
410042: 8
412c27: 8
40e0c0: 9
412997: 9
40f0c2: 10
404b99: 12
40feb6: 12
411a65: 13
4130c3: 14
401f9f: 14
4120c6: 14
40f080: 14
413079: 15
4135e5: 15
41344a: 15
40f3af: 16
4122fa: 16
412080: 16
40dfae: 16
4183b8: 17
40e080: 17
4130b0: 17
410082: 19
412c23: 20
418040: 20
40afae: 20
40af1d: 20
41fee9: 20
40b080: 21
4106ea: 21
41198a: 21
4183bd: 21
40b0b1: 22
4060c1: 22
40af13: 22
41f086: 22
401a0a: 22
404ba1: 22
4097e7: 22
404b72: 22
4062e7: 23
401fde: 23
4020c1: 23
401ae3: 23
404ba6: 23
406511: 23
4020a0: 23
41f0c4: 23
4138f9: 23
418035: 23
442d90: 23
406280: 23
41ff47: 23
4020af: 23
41804b: 23
40b051: 23
401f53: 23
4060b0: 23
41f060: 23
404bd1: 23
40630e: 23
411a2a: 24
40d791: 24
41252e: 25
413822: 25
411eed: 26
41342e: 26
4115a5: 27
412b9f: 28
4105c2: 30
4111b4: 30
41261b: 30
412975: 34
411e80: 43
402081: 45
4122b8: 47
40d9af: 54
413952: 55
411a18: 59
4114f6: 62
40d78c: 63
40d7a3: 67
4114f0: 76
412395: 159
40f4ab: 163
40f4d9: 164
4133b7: 176
40d87a: 190
442dab: 207
40b204: 220
40d876: 223
4134dc: 250
409a00: 256
411558: 294
40e08f: 295
411e9f: 298
411646: 302
411754: 307
40d7e7: 311
409a2a: 531
409a32: 534
409a3a: 551
409a41: 561
4134d8: 600
412965: 601
4123fa: 678
40dc81: 693
40b200: 694
40fe9d: 941
40df08: 953
40e08b: 1692
40dc7a: 2062
4133cf: 2353
40e110: 3475
40d831: 7475
40d7b0: 19442
40dfc3: 29677
40e063: 43066
40d7ba: 48415
40dc40: 70043
40e0d4: 82975
40dd04: 128353
PSCL5 TOTAL     ACCESS:     137841  HIT:     137841  MISS:          0  HIT %:        100  MISS %:          0   MPKI: 0
PSCL5 Test counter:          0
PSCL5 LOAD TRANSLATION ACCESS:     134103  HIT:     134103  MISS:          0  HIT %:        100  MISS %:          0   MPKI: 0
PSCL5 TRANSLATION FROM L1D PREFETCHER ACCESS:       3738  HIT:       3738  MISS:          0  HIT %:        100  MISS %:          0   MPKI: 0
PSCL5 PREFETCH  REQUESTED:          0  ISSUED:          0  USEFUL:          0  USELESS:          0
PSCL5 USEFUL LOAD PREFETCHES:          0 PREFETCH ISSUED TO LOWER LEVEL:          0  ACCURACY: -nan
PSCL5 TIMELY PREFETCHES:          0 LATE PREFETCHES: 0 DROPPED PREFETCHES: 0
PSCL5 COMMIT LATE PREFETCHES: 0 MISSED OPPORTUNITY: 0 LATE IN PQ: 0 UNCOVERED: 0
PSCL5 COMMIT LATE MSHR PREFETCHES: 0
PSCL5 MPKI TOTAL: 0 MSHR LATE: 0 PQ LATE: 0 COMMIT LATE: 0 MISSED OPPORTUNITY: 0 UNCOVERED: 0
PSCL5 PREFETCHES SAME FILL-ORIGIN LEVEL: 0 DIFFERENT FILL-ORIGIN LEVEL: 0

PSCL4 TOTAL     ACCESS:     137841  HIT:     137841  MISS:          0  HIT %:        100  MISS %:          0   MPKI: 0
PSCL4 Test counter:          0
PSCL4 LOAD TRANSLATION ACCESS:     134103  HIT:     134103  MISS:          0  HIT %:        100  MISS %:          0   MPKI: 0
PSCL4 TRANSLATION FROM L1D PREFETCHER ACCESS:       3738  HIT:       3738  MISS:          0  HIT %:        100  MISS %:          0   MPKI: 0
PSCL4 PREFETCH  REQUESTED:          0  ISSUED:          0  USEFUL:          0  USELESS:          0
PSCL4 USEFUL LOAD PREFETCHES:          0 PREFETCH ISSUED TO LOWER LEVEL:          0  ACCURACY: -nan
PSCL4 TIMELY PREFETCHES:          0 LATE PREFETCHES: 0 DROPPED PREFETCHES: 0
PSCL4 COMMIT LATE PREFETCHES: 0 MISSED OPPORTUNITY: 0 LATE IN PQ: 0 UNCOVERED: 0
PSCL4 COMMIT LATE MSHR PREFETCHES: 0
PSCL4 MPKI TOTAL: 0 MSHR LATE: 0 PQ LATE: 0 COMMIT LATE: 0 MISSED OPPORTUNITY: 0 UNCOVERED: 0
PSCL4 PREFETCHES SAME FILL-ORIGIN LEVEL: 0 DIFFERENT FILL-ORIGIN LEVEL: 0

PSCL3 TOTAL     ACCESS:     137841  HIT:     137841  MISS:          0  HIT %:        100  MISS %:          0   MPKI: 0
PSCL3 Test counter:          0
PSCL3 LOAD TRANSLATION ACCESS:     134103  HIT:     134103  MISS:          0  HIT %:        100  MISS %:          0   MPKI: 0
PSCL3 TRANSLATION FROM L1D PREFETCHER ACCESS:       3738  HIT:       3738  MISS:          0  HIT %:        100  MISS %:          0   MPKI: 0
PSCL3 PREFETCH  REQUESTED:          0  ISSUED:          0  USEFUL:          0  USELESS:          0
PSCL3 USEFUL LOAD PREFETCHES:          0 PREFETCH ISSUED TO LOWER LEVEL:          0  ACCURACY: -nan
PSCL3 TIMELY PREFETCHES:          0 LATE PREFETCHES: 0 DROPPED PREFETCHES: 0
PSCL3 COMMIT LATE PREFETCHES: 0 MISSED OPPORTUNITY: 0 LATE IN PQ: 0 UNCOVERED: 0
PSCL3 COMMIT LATE MSHR PREFETCHES: 0
PSCL3 MPKI TOTAL: 0 MSHR LATE: 0 PQ LATE: 0 COMMIT LATE: 0 MISSED OPPORTUNITY: 0 UNCOVERED: 0
PSCL3 PREFETCHES SAME FILL-ORIGIN LEVEL: 0 DIFFERENT FILL-ORIGIN LEVEL: 0

PSCL2 TOTAL     ACCESS:     137690  HIT:     137583  MISS:        107  HIT %:    99.9223  MISS %:  0.0777108   MPKI: 0.000535
PSCL2 Test counter:          0
PSCL2 LOAD TRANSLATION ACCESS:     134111  HIT:     134004  MISS:        107  HIT %:    99.9202  MISS %:  0.0797847   MPKI: 0.000535
PSCL2 TRANSLATION FROM L1D PREFETCHER ACCESS:       3579  HIT:       3579  MISS:          0  HIT %:        100  MISS %:          0   MPKI: 0
PSCL2 PREFETCH  REQUESTED:          0  ISSUED:          0  USEFUL:          0  USELESS:          0
PSCL2 USEFUL LOAD PREFETCHES:          0 PREFETCH ISSUED TO LOWER LEVEL:          0  ACCURACY: -nan
PSCL2 TIMELY PREFETCHES:          0 LATE PREFETCHES: 0 DROPPED PREFETCHES: 0
PSCL2 COMMIT LATE PREFETCHES: 0 MISSED OPPORTUNITY: 0 LATE IN PQ: 0 UNCOVERED: 0
PSCL2 COMMIT LATE MSHR PREFETCHES: 0
PSCL2 MPKI TOTAL: 0 MSHR LATE: 0 PQ LATE: 0 COMMIT LATE: 0 MISSED OPPORTUNITY: 0 UNCOVERED: 0
PSCL2 PREFETCHES SAME FILL-ORIGIN LEVEL: 0 DIFFERENT FILL-ORIGIN LEVEL: 0

LLC TOTAL     ACCESS:     908273  HIT:     654615  MISS:     253658  HIT %:    72.0725  MISS %:    27.9275   MPKI: 1.26829
LLC Test counter:          0
LLC LOAD      ACCESS:     452362  HIT:     245558  MISS:     206804  HIT %:    54.2835  MISS %:    45.7165   MPKI: 1.03402
LLC RFO       ACCESS:      47819  HIT:      16485  MISS:      31334  HIT %:    34.4737  MISS %:    65.5263   MPKI: 0.15667
LLC PREFETCH  ACCESS:      19369  HIT:       8866  MISS:      10503  HIT %:    45.7742  MISS %:    54.2258   MPKI: 0.052515
LLC WRITEBACK ACCESS:     366039  HIT:     364396  MISS:       1643  HIT %:    99.5511  MISS %:   0.448859   MPKI: 0.008215
LLC LOAD TRANSLATION ACCESS:      22577  HIT:      19228  MISS:       3349  HIT %:    85.1663  MISS %:    14.8337   MPKI: 0.016745
LLC TRANSLATION FROM L1D PREFETCHER ACCESS:        107  HIT:         82  MISS:         25  HIT %:    76.6355  MISS %:    23.3645   MPKI: 0.000125
LLC PREFETCH  REQUESTED:          0  ISSUED:          0  USEFUL:       1115  USELESS:       8863
LLC USEFUL LOAD PREFETCHES:       1115 PREFETCH ISSUED TO LOWER LEVEL:      10503  ACCURACY: 10.616
LLC TIMELY PREFETCHES:       1115 LATE PREFETCHES: 0 DROPPED PREFETCHES: 0
LLC COMMIT LATE PREFETCHES: 0 MISSED OPPORTUNITY: 0 LATE IN PQ: 0 UNCOVERED: 0
LLC COMMIT LATE MSHR PREFETCHES: 0
LLC MPKI TOTAL: 1.03402 MSHR LATE: 0 PQ LATE: 0 COMMIT LATE: 0 MISSED OPPORTUNITY: 0 UNCOVERED: 0
LLC PREFETCHES SAME FILL-ORIGIN LEVEL: 0 DIFFERENT FILL-ORIGIN LEVEL: 0
LLC AVERAGE MISS LATENCY: 172.082 cycles
LLC AVERAGE MISS LATENCY LOAD: 174.434 cycles
LLC AVERAGE MISS LATENCY PREFETCH: 168.284 cycles
LLC AVERAGE MSHR OCCUPANCY: 0.238834
LLC MSHR FULL: 0
LLC RQ	ACCESS:     522865	FORWARD:          0	MERGED:          0	TO_CACHE:     522865
LLC WQ	ACCESS:     366039	FORWARD:          0	MERGED:          0	TO_CACHE:     366039
LLC PQ	ACCESS:      19369	FORWARD:          0	MERGED:          0	TO_CACHE:      19369

LLC Dense regions hint to LLC: 0
4112a9: 1
40207e: 1
410082: 1
41804b: 1
4111b4: 1
411d83: 1
411e80: 1
412b9f: 1
41065c: 1
40d984: 1
40b080: 1
4115a0: 1
41198a: 1
41ff47: 1
411eb4: 1
41061a: 1
412c23: 1
4097e7: 1
40af13: 1
410691: 1
4183b8: 1
4116a0: 1
404ba1: 2
406511: 2
418035: 2
40afae: 2
401fde: 2
40e0c0: 2
4020a0: 2
40feb6: 2
41176d: 2
411a18: 2
404bd1: 2
4117a5: 2
4116a5: 2
401f9f: 2
411eed: 2
413044: 2
40dfae: 3
40f042: 3
413079: 3
412ff8: 3
4020af: 3
4100ed: 3
40f492: 3
40f0c2: 3
40e041: 3
4133b7: 4
40e0d0: 4
404ba6: 4
41f086: 4
40b051: 4
40e080: 4
413822: 4
41149e: 4
40f080: 4
412c27: 4
410042: 4
41f060: 5
412080: 5
402081: 5
412997: 5
4130b0: 5
4130c3: 6
4120c6: 6
40f4ab: 6
404b72: 6
41f0c4: 6
412975: 7
40d78c: 8
4020c1: 9
412395: 9
4114f0: 10
40d791: 12
41261b: 15
40f4d9: 18
40d9af: 18
4122b8: 19
40d7e7: 19
4115a5: 21
411e9f: 22
40d87a: 23
40fe9d: 34
4114f6: 35
442dab: 42
4134d8: 43
40e08f: 50
40d876: 53
409a2a: 62
4123fa: 64
409a00: 67
4134dc: 87
40dc81: 88
409a3a: 108
409a32: 111
40b204: 114
40b200: 122
411646: 142
411754: 143
411558: 148
409a41: 151
4133cf: 176
412965: 229
40e08b: 565
40df08: 651
40dc7a: 777
40e110: 2175
40d831: 3657
40d7b0: 5208
40e063: 14113
40dfc3: 14136
40d7ba: 24551
40dc40: 27728
40e0d4: 44155
40dd04: 66629

RAW hits: 2194450
Loads Generated: 47326161
Loads sent to L1D: 45131710
Stores Generated: 17197831
Stores sent to L1D: 17197816
Major fault: 0 Minor fault: 8202
Allocated PAGES: 8202
Total Load insts: 55872582
Total Non-spec loads: 8623492
Percentage of speculative loads: 84.5658
L1D response latency: 65.9131 cycles
Load retirement latency: 102.404 cycles

LATENCY_FILL: 64.0759 974720

DRAM Statistics
 CHANNEL 0
 RQ ROW_BUFFER_HIT:       3980  ROW_BUFFER_MISS:     248033
 DBUS_CONGESTED:          6
 WQ ROW_BUFFER_HIT:      35295  ROW_BUFFER_MISS:     154426  FULL:          0

 AVG_CONGESTED_CYCLE: 5
 All warmup complete: 2
Channel 0 Bank busy for read cycles: 0
Channel 0 Bank busy for write cycles: 0
Channel 0
Rank 0
0banks busy for read cycles: 270639582
0banks busy for write cycles: 117413
1banks busy for read cycles: 26882995
1banks busy for write cycles: 18082209
2banks busy for read cycles: 3980597
2banks busy for write cycles: 4202974
3banks busy for read cycles: 581511
3banks busy for write cycles: 1000483
4banks busy for read cycles: 116698
4banks busy for write cycles: 263883
5banks busy for read cycles: 30129
5banks busy for write cycles: 83972
6banks busy for read cycles: 13549
6banks busy for write cycles: 32076
7banks busy for read cycles: 4968
7banks busy for write cycles: 27209
8banks busy for read cycles: 10227
8banks busy for write cycles: 93753

CPU 0 Branch Prediction Accuracy: 92.4682% MPKI: 9.41666 Average ROB Occupancy at Mispredict: 27.871
Branch types
NOT_BRANCH: 174994605 87.4973%
BRANCH_DIRECT_JUMP: 2818425 1.40921%
BRANCH_INDIRECT: 447403 0.223701%
BRANCH_CONDITIONAL: 21154324 10.5772%
BRANCH_DIRECT_CALL: 190457 0.0952285%
BRANCH_INDIRECT_CALL: 102031 0.0510155%
BRANCH_RETURN: 292486 0.146243%
BRANCH_OTHER: 0 0%

DRAM PAGES: 1048576
Allocated PAGES: 8202
