
*** ChampSim Multicore Out-of-Order Simulator ***

Warmup Instructions: 50000000
Simulation Instructions: 200000000
Number of CPUs: 1
LLC sets: 2048
LLC ways: 16
L0D sets: 16
L0D ways: 2
ROB size: 352
LQ size: 128
SQ size: 72
Secure Berti: OFF
Berti: OFF
Berti Fill: OFF
On commit prefetching: ON
Hit-based filter: OFF
Time-guarding: ON
Free-slotting: ON
Leap-frogging: ON
Train prefetcher on L0D bypass: OFF
No translation penalty for prefetchers: OFF
Prefetch to L0D only: OFF
Prefetch to L1D only: OFF
Clean evictions: ON
Commit loads: ON
Commit write: ON
Fill commit loads to L2C, LLC: ON
DRAM IO FREQUENCY: 6400
ROB SIZE: 352
Off-chip DRAM Size: 4096 MB Channels: 1 Width: 64-bit Data Rate: 6400 MT/s
CPU 0 runs /home/sumon/secure_berti/GhostMinion/../../traces/spec/600.perlbench_s-570B.champsimtrace.xz
.xz
BTB has LRU replacement policy
ITLB has LRU replacement policy
DTLB has LRU replacement policy
STLB has LRU replacement policy
L1I has LRU replacement policy
L0D has LRU replacement policy
History Sets: 8
History Ways: 16
BERTI Size: 16
BERTI Stride Size: 16
History Sets: 8
History Ways: 16
BERTI Size: 16
BERTI Stride Size: 16
L1D has LRU replacement policy
L2C has LRU replacement policy
LLC has LRU replacement policy
Heartbeat CPU 0 instructions: 10000003 cycles: 3771130 heartbeat IPC: 2.65173 cumulative IPC: 2.65173 (Simulation time: 0 hr 0 min 36 sec) 
Heartbeat CPU 0 instructions: 20000000 cycles: 7478224 heartbeat IPC: 2.69753 cumulative IPC: 2.67443 (Simulation time: 0 hr 1 min 18 sec) 
Heartbeat CPU 0 instructions: 30000000 cycles: 11410635 heartbeat IPC: 2.54297 cumulative IPC: 2.62913 (Simulation time: 0 hr 2 min 0 sec) 
Heartbeat CPU 0 instructions: 40000002 cycles: 15308214 heartbeat IPC: 2.5657 cumulative IPC: 2.61298 (Simulation time: 0 hr 2 min 42 sec) 
Heartbeat CPU 0 instructions: 50000002 cycles: 18987687 heartbeat IPC: 2.71778 cumulative IPC: 2.63329 (Simulation time: 0 hr 3 min 23 sec) 

Warmup complete CPU 0 instructions: 50000002 cycles: 18987687 (Simulation time: 0 hr 3 min 23 sec) 

Heartbeat CPU 0 instructions: 60000000 cycles: 31953575 heartbeat IPC: 0.771254 cumulative IPC: 0.771254 (Simulation time: 0 hr 4 min 9 sec) 
Heartbeat CPU 0 instructions: 70000000 cycles: 52421730 heartbeat IPC: 0.488564 cumulative IPC: 0.598193 (Simulation time: 0 hr 4 min 59 sec) 
Heartbeat CPU 0 instructions: 80000002 cycles: 73851124 heartbeat IPC: 0.466649 cumulative IPC: 0.546812 (Simulation time: 0 hr 5 min 50 sec) 
Heartbeat CPU 0 instructions: 90000003 cycles: 99525749 heartbeat IPC: 0.38949 cumulative IPC: 0.49666 (Simulation time: 0 hr 6 min 42 sec) 
Heartbeat CPU 0 instructions: 100000002 cycles: 113618014 heartbeat IPC: 0.709609 cumulative IPC: 0.528372 (Simulation time: 0 hr 7 min 27 sec) 
Heartbeat CPU 0 instructions: 110000000 cycles: 127592742 heartbeat IPC: 0.715577 cumulative IPC: 0.55246 (Simulation time: 0 hr 8 min 12 sec) 
Heartbeat CPU 0 instructions: 120000003 cycles: 142319771 heartbeat IPC: 0.679024 cumulative IPC: 0.567573 (Simulation time: 0 hr 8 min 58 sec) 
Heartbeat CPU 0 instructions: 130000000 cycles: 156899044 heartbeat IPC: 0.685905 cumulative IPC: 0.580083 (Simulation time: 0 hr 9 min 44 sec) 
Heartbeat CPU 0 instructions: 140000003 cycles: 183006351 heartbeat IPC: 0.383035 cumulative IPC: 0.548718 (Simulation time: 0 hr 10 min 35 sec) 
Heartbeat CPU 0 instructions: 150000001 cycles: 206932964 heartbeat IPC: 0.417945 cumulative IPC: 0.53207 (Simulation time: 0 hr 11 min 27 sec) 
Heartbeat CPU 0 instructions: 160000001 cycles: 227300911 heartbeat IPC: 0.490968 cumulative IPC: 0.528051 (Simulation time: 0 hr 12 min 15 sec) 
Heartbeat CPU 0 instructions: 170000001 cycles: 242803993 heartbeat IPC: 0.645033 cumulative IPC: 0.536154 (Simulation time: 0 hr 13 min 0 sec) 
Heartbeat CPU 0 instructions: 180000000 cycles: 262091389 heartbeat IPC: 0.518473 cumulative IPC: 0.534751 (Simulation time: 0 hr 13 min 47 sec) 
Heartbeat CPU 0 instructions: 190000001 cycles: 288025502 heartbeat IPC: 0.385593 cumulative IPC: 0.520373 (Simulation time: 0 hr 14 min 39 sec) 
Heartbeat CPU 0 instructions: 200000001 cycles: 312367498 heartbeat IPC: 0.410813 cumulative IPC: 0.511283 (Simulation time: 0 hr 15 min 31 sec) 
Heartbeat CPU 0 instructions: 210000000 cycles: 331559527 heartbeat IPC: 0.52105 cumulative IPC: 0.511882 (Simulation time: 0 hr 16 min 18 sec) 
Heartbeat CPU 0 instructions: 220000000 cycles: 346279712 heartbeat IPC: 0.679339 cumulative IPC: 0.519414 (Simulation time: 0 hr 17 min 4 sec) 
Heartbeat CPU 0 instructions: 230000000 cycles: 359859747 heartbeat IPC: 0.736375 cumulative IPC: 0.528057 (Simulation time: 0 hr 17 min 47 sec) 
Heartbeat CPU 0 instructions: 240000002 cycles: 374295055 heartbeat IPC: 0.692746 cumulative IPC: 0.534748 (Simulation time: 0 hr 18 min 32 sec) 
Heartbeat CPU 0 instructions: 250000003 cycles: 389266455 heartbeat IPC: 0.66794 cumulative IPC: 0.540134 (Simulation time: 0 hr 19 min 17 sec) 
Finished CPU 0 instructions: 200000001 cycles: 370278768 cumulative IPC: 0.540134 (Simulation time: 0 hr 19 min 17 sec) 
 Instruction ID: 250000017

ChampSim completed all CPUs

Region of Interest Statistics

CPU 0 cumulative IPC: 0.540134 instructions: 200000001 cycles: 370278768
ITLB SPEC fills:          0  NON-SPEC fills:          0
ITLB Test counter :          0
ITLB Leapfrog:          0
ITLB MSHR merge:          0
ITLB TOTAL     ACCESS:   31176393  HIT:   31117522  MISS:      58871  HIT %:    99.8112  MISS %:   0.188832   MPKI: 0.294355
ITLB LOAD TRANSLATION NON_SPEC    ACCESS:   31176393  HIT:   31117522  MISS:      58871  HIT %:    99.8112  MISS %:   0.188832   MPKI: 0.294355
ITLB PREFETCH  REQUESTED:          0  ISSUED:          0  USEFUL:          0  USELESS:          0
ITLB USEFUL LOAD PREFETCHES:          0 PREFETCH ISSUED TO LOWER LEVEL:          0  ACCURACY: -nan
ITLB TIMELY PREFETCHES:          0 LATE PREFETCHES: 0 DROPPED PREFETCHES: 0
ITLB COMMIT LATE PREFETCHES: 0 NORMAL LATE: 0 MISSED OPPORTUNITY: 0 UNCOVERED: 0
ITLB PREFETCHES SAME FILL-ORIGIN LEVEL: 0 DIFFERENT FILL-ORIGIN LEVEL: 0
ITLB AVERAGE MISS LATENCY: 10.741 cycles
ITLB AVERAGE MISS LATENCY LOAD: -nan cycles
ITLB AVERAGE MISS LATENCY PREFETCH: -nan cycles
ITLB AVERAGE MSHR OCCUPANCY: 0.00104074
ITLB MSHR FULL: 0
ITLB RQ	ACCESS:   35142780	FORWARD:          0	MERGED:    3944821	TO_CACHE:   31197959

DTLB SPEC fills:          0  NON-SPEC fills:          0
DTLB Test counter :          0
DTLB Leapfrog:          0
DTLB MSHR merge:          0
DTLB TOTAL     ACCESS:   57154071  HIT:   56616243  MISS:     537828  HIT %:     99.059  MISS %:   0.941014   MPKI: 2.68914
DTLB LOAD TRANSLATION NON_SPEC    ACCESS:   57154071  HIT:   56616243  MISS:     537828  HIT %:     99.059  MISS %:   0.941014   MPKI: 2.68914
DTLB PREFETCH  REQUESTED:          0  ISSUED:          0  USEFUL:          0  USELESS:          0
DTLB USEFUL LOAD PREFETCHES:          0 PREFETCH ISSUED TO LOWER LEVEL:          0  ACCURACY: -nan
DTLB TIMELY PREFETCHES:          0 LATE PREFETCHES: 0 DROPPED PREFETCHES: 0
DTLB COMMIT LATE PREFETCHES: 0 NORMAL LATE: 0 MISSED OPPORTUNITY: 0 UNCOVERED: 0
DTLB PREFETCHES SAME FILL-ORIGIN LEVEL: 0 DIFFERENT FILL-ORIGIN LEVEL: 0
DTLB AVERAGE MISS LATENCY: 14.791 cycles
DTLB AVERAGE MISS LATENCY LOAD: -nan cycles
DTLB AVERAGE MISS LATENCY PREFETCH: -nan cycles
DTLB AVERAGE MSHR OCCUPANCY: 0.0133531
DTLB MSHR FULL: 1.36431e-06
DTLB RQ	ACCESS:   79014224	FORWARD:          0	MERGED:   21842503	TO_CACHE:   57171721

STLB SPEC fills:          0  NON-SPEC fills:          0
STLB Test counter :          0
STLB Leapfrog:          0
STLB MSHR merge:          0
STLB TOTAL     ACCESS:     719222  HIT:     695476  MISS:      23746  HIT %:    96.6984  MISS %:    3.30162   MPKI: 0.11873
STLB LOAD TRANSLATION NON_SPEC    ACCESS:     596699  HIT:     573133  MISS:      23566  HIT %:    96.0506  MISS %:    3.94939   MPKI: 0.11783
STLB TRANSLATION FROM L1D PREFETCHER NON_SPEC    ACCESS:     122523  HIT:     122343  MISS:        180  HIT %:    99.8531  MISS %:   0.146911   MPKI: 0.0009
STLB PREFETCH  REQUESTED:          0  ISSUED:          0  USEFUL:        173  USELESS:          7
STLB USEFUL LOAD PREFETCHES:        173 PREFETCH ISSUED TO LOWER LEVEL:          0  ACCURACY: inf
STLB TIMELY PREFETCHES:        173 LATE PREFETCHES: 1 DROPPED PREFETCHES: 2511
STLB COMMIT LATE PREFETCHES: 0 NORMAL LATE: 0 MISSED OPPORTUNITY: 0 UNCOVERED: 0
STLB PREFETCHES SAME FILL-ORIGIN LEVEL: 0 DIFFERENT FILL-ORIGIN LEVEL: 0
STLB AVERAGE MISS LATENCY: 135.606 cycles
STLB AVERAGE MISS LATENCY LOAD: -nan cycles
STLB AVERAGE MISS LATENCY PREFETCH: -nan cycles
STLB AVERAGE MSHR OCCUPANCY: 0.00774741
STLB MSHR FULL: 0
STLB RQ	ACCESS:     955030	FORWARD:          0	MERGED:     233240	TO_CACHE:     721790

STLB Hit, L1D data hit: 0
STLB Hit, L2C data hit: 0
STLB Hit, LLC data hit: 0
STLB Hit, LLC data miss: 0
STLB STLB hints to L2: 0
L0D SPEC fills:   22332207  NON-SPEC fills:          0
L0D TimeGuard Request with older TS:      59063 Restricted eviction:      53585 read:      38728
L0D Test counter :          0
L0D Leapfrog:          0
L0D MSHR merge:     632825
L0D TOTAL     ACCESS:   38640766  HIT:    3377085  MISS:   35263681  HIT %:    8.73969  MISS %:    91.2603   MPKI: 176.318
L0D LOAD      TOTAL       ACCESS:   38640766  HIT:    3377085  MISS:   35263681  HIT %:    8.73969  MISS %:    91.2603   MPKI: 176.318
L0D LOAD      NON_SPEC    ACCESS:   13025723  HIT:     147826  MISS:   12877897  HIT %:    1.13488  MISS %:    98.8651   MPKI: 64.3895
L0D LOAD      SPEC        ACCESS:   25615043  HIT:    3229259  MISS:   22385784  HIT %:    12.6069  MISS %:    87.3931   MPKI: 111.929
L0D PREFETCH  REQUESTED:          0  ISSUED:          0  USEFUL:          0  USELESS:          0
L0D USEFUL LOAD PREFETCHES:          0 PREFETCH ISSUED TO LOWER LEVEL:          0  ACCURACY: -nan
L0D TIMELY PREFETCHES:          0 LATE PREFETCHES: 0 DROPPED PREFETCHES: 0
L0D COMMIT LATE PREFETCHES: 0 NORMAL LATE: 0 MISSED OPPORTUNITY: 0 UNCOVERED: 0
L0D PREFETCHES SAME FILL-ORIGIN LEVEL: 0 DIFFERENT FILL-ORIGIN LEVEL: 0
L0D AVERAGE MISS LATENCY: 6.28137 cycles
L0D AVERAGE MISS LATENCY LOAD: 6.28137 cycles
L0D AVERAGE MISS LATENCY PREFETCH: -nan cycles
L0D AVERAGE MSHR OCCUPANCY: 0.585081
L0D MSHR FULL: 5.49985e-06
L0D RQ	ACCESS:   46798043	FORWARD:          0	MERGED:    7524457	TO_CACHE:   39273586
L0D WQ	ACCESS:   39740638	FORWARD:          0	MERGED:          0	TO_CACHE:   39740638

L1D SPEC fills:          0  NON-SPEC fills:     231498
L1D Test counter :     527553
L1D Leapfrog:          0
L1D MSHR merge:       2792
L1D TOTAL     ACCESS:  104395054  HIT:  103517739  MISS:     877315  HIT %:    99.1596  MISS %:    0.84038   MPKI: 4.38657
L1D LOAD      TOTAL       ACCESS:   35260958  HIT:   34733202  MISS:     527756  HIT %:    98.5033  MISS %:    1.49671   MPKI: 2.63878
L1D LOAD      NON_SPEC    ACCESS:   12875975  HIT:   12644477  MISS:     231498  HIT %:    98.2021  MISS %:    1.79791   MPKI: 1.15749
L1D LOAD      SPEC        ACCESS:   22384983  HIT:   22088725  MISS:     296258  HIT %:    98.6765  MISS %:    1.32347   MPKI: 1.48129
L1D RFO       NON_SPEC    ACCESS:   38226871  HIT:   38181273  MISS:      45598  HIT %:    99.8807  MISS %:   0.119283   MPKI: 0.22799
L1D PREFETCH  NON_SPEC    ACCESS:     174293  HIT:     165604  MISS:       8689  HIT %:    95.0147  MISS %:    4.98528   MPKI: 0.043445
L1D COMMIT LOAD NON_SPEC    ACCESS:    8500035  HIT:    8497339  MISS:       2696  HIT %:    99.9683  MISS %:  0.0317175   MPKI: 0.01348
L1D COMMIT WRITE NON_SPEC    ACCESS:   22232897  HIT:   21940321  MISS:     292576  HIT %:     98.684  MISS %:    1.31596   MPKI: 1.46288
L1D PREFETCH  REQUESTED:     423446  ISSUED:     411277  USEFUL:       5806  USELESS:       2883
L1D USEFUL LOAD PREFETCHES:       5806 PREFETCH ISSUED TO LOWER LEVEL:     185324  ACCURACY: 3.13289
L1D TIMELY PREFETCHES:       5806 LATE PREFETCHES: 77 DROPPED PREFETCHES: 3643
L1D COMMIT LATE PREFETCHES: 542 NORMAL LATE: 2217 MISSED OPPORTUNITY: 1605 UNCOVERED: 523431
L1D PREFETCHES SAME FILL-ORIGIN LEVEL: 8973 DIFFERENT FILL-ORIGIN LEVEL: 176351
L1D AVERAGE MISS LATENCY: 48.5557 cycles
L1D AVERAGE MISS LATENCY LOAD: 75.177 cycles
L1D AVERAGE MISS LATENCY PREFETCH: 60.0085 cycles
L1D AVERAGE MSHR OCCUPANCY: 0.0210256
L1D MSHR FULL: 1.90796e-05
L1D RQ	ACCESS:   46704371	FORWARD:          0	MERGED:    2605360	TO_CACHE:   43763816
L1D WQ	ACCESS:   62044990	FORWARD:     335195	MERGED:    1501339	TO_CACHE:   60543651
L1D PQ	ACCESS:     411277	FORWARD:          0	MERGED:      52946	TO_CACHE:     358331

L1D UNIQUE REGIONS ACCESSED: 0
L1D REGIONS CONFLICTS: 0
L1D Cross Page Prefetch Requests: 50719
L1D Same Page Prefetch Requests: 424700
L1D ROI Sum of L1D PQ occupancy: 5852847
L1D PREFETCHES PUSHED FROM L2C: 0
L1I SPEC fills:          0  NON-SPEC fills:          0
L1I Test counter :          0
L1I Leapfrog:          0
L1I MSHR merge:     219694
L1I TOTAL     ACCESS:   34923086  HIT:   34048735  MISS:     874351  HIT %:    97.4964  MISS %:    2.50365   MPKI: 4.37175
L1I LOAD      TOTAL       ACCESS:   34923086  HIT:   34048735  MISS:     874351  HIT %:    97.4964  MISS %:    2.50365   MPKI: 4.37175
L1I LOAD      NON_SPEC    ACCESS:   34923086  HIT:   34048735  MISS:     874351  HIT %:    97.4964  MISS %:    2.50365   MPKI: 4.37175
L1I PREFETCH  REQUESTED:          0  ISSUED:          0  USEFUL:          0  USELESS:          0
L1I USEFUL LOAD PREFETCHES:          0 PREFETCH ISSUED TO LOWER LEVEL:          0  ACCURACY: -nan
L1I TIMELY PREFETCHES:          0 LATE PREFETCHES: 0 DROPPED PREFETCHES: 0
L1I COMMIT LATE PREFETCHES: 0 NORMAL LATE: 0 MISSED OPPORTUNITY: 0 UNCOVERED: 0
L1I PREFETCHES SAME FILL-ORIGIN LEVEL: 0 DIFFERENT FILL-ORIGIN LEVEL: 0
L1I AVERAGE MISS LATENCY: 17.6007 cycles
L1I AVERAGE MISS LATENCY LOAD: 17.6007 cycles
L1I AVERAGE MISS LATENCY PREFETCH: -nan cycles
L1I AVERAGE MSHR OCCUPANCY: 0.0330515
L1I MSHR FULL: 0
L1I RQ	ACCESS:   55988045	FORWARD:          0	MERGED:   20845265	TO_CACHE:   35142780

BTB SPEC fills:          0  NON-SPEC fills:          0
BTB Test counter :          0
BTB Leapfrog:          0
BTB MSHR merge:          0
BTB TOTAL     ACCESS:   25984963  HIT:   24489037  MISS:    1495926  HIT %:    94.2431  MISS %:    5.75689   MPKI: 7.47963
BTB BRANCH_DIRECT_JUMP	ACCESS:    4141047  HIT:    4130444  MISS:      10603
BTB BRANCH_INDIRECT	ACCESS:    1274734  HIT:     405661  MISS:     869073
BTB BRANCH_CONDITIONAL	ACCESS:   16683297  HIT:   16654181  MISS:      29116
BTB BRANCH_DIRECT_CALL	ACCESS:    1551808  HIT:    1544398  MISS:       7410
BTB BRANCH_INDIRECT_CALL	ACCESS:     391135  HIT:      53393  MISS:     337742
BTB BRANCH_RETURN	ACCESS:    1942942  HIT:    1700960  MISS:     241982
BTB BRANCH_OTHER ACCESS:          0  HIT:          0  MISS:          0

L2C SPEC fills:          0  NON-SPEC fills:     109300
L2C Test counter :          0
L2C Leapfrog:          0
L2C MSHR merge:        345
L2C TOTAL     ACCESS:    2227586  HIT:    1808142  MISS:     419444  HIT %:    81.1705  MISS %:    18.8295   MPKI: 2.09722
L2C LOAD      TOTAL       ACCESS:    1402022  HIT:    1144516  MISS:     257506  HIT %:    81.6332  MISS %:    18.3668   MPKI: 1.28753
L2C LOAD      NON_SPEC    ACCESS:    1105835  HIT:     961680  MISS:     144155  HIT %:    86.9641  MISS %:    13.0359   MPKI: 0.720775
L2C LOAD      SPEC        ACCESS:     296187  HIT:     182836  MISS:     113351  HIT %:    61.7299  MISS %:    38.2701   MPKI: 0.566755
L2C RFO       NON_SPEC    ACCESS:      45391  HIT:      33225  MISS:      12166  HIT %:    73.1973  MISS %:    26.8027   MPKI: 0.06083
L2C PREFETCH  NON_SPEC    ACCESS:     181660  HIT:     160161  MISS:      21499  HIT %:    88.1653  MISS %:    11.8347   MPKI: 0.107495
L2C WRITEBACK NON_SPEC    ACCESS:      70311  HIT:      69943  MISS:        368  HIT %:    99.4766  MISS %:   0.523389   MPKI: 0.00184
L2C CLEAN_EVICTION NON_SPEC    ACCESS:     394285  HIT:     278374  MISS:     115911  HIT %:    70.6022  MISS %:    29.3978   MPKI: 0.579555
L2C COMMIT LOAD NON_SPEC    ACCESS:       2686  HIT:       2356  MISS:        330  HIT %:    87.7141  MISS %:    12.2859   MPKI: 0.00165
L2C LOAD TRANSLATION NON_SPEC    ACCESS:     117771  HIT:     106263  MISS:      11508  HIT %:    90.2285  MISS %:    9.77151   MPKI: 0.05754
L2C TRANSLATION FROM L1D PREFETCHER NON_SPEC    ACCESS:      13460  HIT:      13304  MISS:        156  HIT %:     98.841  MISS %:    1.15899   MPKI: 0.00078
L2C PREFETCH  REQUESTED:          0  ISSUED:          0  USEFUL:       8051  USELESS:      13758
L2C USEFUL LOAD PREFETCHES:       8051 PREFETCH ISSUED TO LOWER LEVEL:      22095  ACCURACY: 36.4381
L2C TIMELY PREFETCHES:       8051 LATE PREFETCHES: 596 DROPPED PREFETCHES: 0
L2C COMMIT LATE PREFETCHES: 0 NORMAL LATE: 600 MISSED OPPORTUNITY: 0 UNCOVERED: 257157
L2C PREFETCHES SAME FILL-ORIGIN LEVEL: 19690 DIFFERENT FILL-ORIGIN LEVEL: 0
L2C AVERAGE MISS LATENCY: 101.361 cycles
L2C AVERAGE MISS LATENCY LOAD: 139.936 cycles
L2C AVERAGE MISS LATENCY PREFETCH: 168.13 cycles
L2C AVERAGE MSHR OCCUPANCY: 0.125369
L2C MSHR FULL: 0
L2C RQ	ACCESS:    1581348	FORWARD:          0	MERGED:          0	TO_CACHE:    1581330
L2C WQ	ACCESS:     464596	FORWARD:         19	MERGED:          0	TO_CACHE:     464596
L2C PQ	ACCESS:     185324	FORWARD:          0	MERGED:         44	TO_CACHE:     185279

L2C Instructions Evicting Data 28593
L2C Translations Evicting Data 9689
L2C Data Evicting Data 120326
L2C Instructions Evicting Instructions 4431
L2C Translations Evicting Instructions 1453
L2C Data Evicting Instructions 16581
L2C Instructions Evicting Translations 1475
L2C Translations Evicting Translations 393
L2C Data Evicting Translations 5390
L2C Dense regions hint from L2: 0
PSCL5 SPEC fills:          0  NON-SPEC fills:          0
PSCL5 Test counter :          0
PSCL5 Leapfrog:          0
PSCL5 MSHR merge:          0
PSCL5 TOTAL     ACCESS:          0  HIT:          0  MISS:          0  HIT %:       -nan  MISS %:       -nan   MPKI: 0
PSCL5 PREFETCH  REQUESTED:          0  ISSUED:          0  USEFUL:          0  USELESS:          0
PSCL5 USEFUL LOAD PREFETCHES:          0 PREFETCH ISSUED TO LOWER LEVEL:          0  ACCURACY: -nan
PSCL5 TIMELY PREFETCHES:          0 LATE PREFETCHES: 0 DROPPED PREFETCHES: 0
PSCL5 COMMIT LATE PREFETCHES: 0 NORMAL LATE: 0 MISSED OPPORTUNITY: 0 UNCOVERED: 0
PSCL5 PREFETCHES SAME FILL-ORIGIN LEVEL: 0 DIFFERENT FILL-ORIGIN LEVEL: 0

PSCL4 SPEC fills:          0  NON-SPEC fills:          0
PSCL4 Test counter :          0
PSCL4 Leapfrog:          0
PSCL4 MSHR merge:          0
PSCL4 TOTAL     ACCESS:          0  HIT:          0  MISS:          0  HIT %:       -nan  MISS %:       -nan   MPKI: 0
PSCL4 PREFETCH  REQUESTED:          0  ISSUED:          0  USEFUL:          0  USELESS:          0
PSCL4 USEFUL LOAD PREFETCHES:          0 PREFETCH ISSUED TO LOWER LEVEL:          0  ACCURACY: -nan
PSCL4 TIMELY PREFETCHES:          0 LATE PREFETCHES: 0 DROPPED PREFETCHES: 0
PSCL4 COMMIT LATE PREFETCHES: 0 NORMAL LATE: 0 MISSED OPPORTUNITY: 0 UNCOVERED: 0
PSCL4 PREFETCHES SAME FILL-ORIGIN LEVEL: 0 DIFFERENT FILL-ORIGIN LEVEL: 0

PSCL3 SPEC fills:          0  NON-SPEC fills:          0
PSCL3 Test counter :          0
PSCL3 Leapfrog:          0
PSCL3 MSHR merge:          0
PSCL3 TOTAL     ACCESS:          0  HIT:          0  MISS:          0  HIT %:       -nan  MISS %:       -nan   MPKI: 0
PSCL3 PREFETCH  REQUESTED:          0  ISSUED:          0  USEFUL:          0  USELESS:          0
PSCL3 USEFUL LOAD PREFETCHES:          0 PREFETCH ISSUED TO LOWER LEVEL:          0  ACCURACY: -nan
PSCL3 TIMELY PREFETCHES:          0 LATE PREFETCHES: 0 DROPPED PREFETCHES: 0
PSCL3 COMMIT LATE PREFETCHES: 0 NORMAL LATE: 0 MISSED OPPORTUNITY: 0 UNCOVERED: 0
PSCL3 PREFETCHES SAME FILL-ORIGIN LEVEL: 0 DIFFERENT FILL-ORIGIN LEVEL: 0

PSCL2 SPEC fills:          0  NON-SPEC fills:          0
PSCL2 Test counter :          0
PSCL2 Leapfrog:          0
PSCL2 MSHR merge:          0
PSCL2 TOTAL     ACCESS:          0  HIT:          0  MISS:          0  HIT %:       -nan  MISS %:       -nan   MPKI: 0
PSCL2 PREFETCH  REQUESTED:          0  ISSUED:          0  USEFUL:          0  USELESS:          0
PSCL2 USEFUL LOAD PREFETCHES:          0 PREFETCH ISSUED TO LOWER LEVEL:          0  ACCURACY: -nan
PSCL2 TIMELY PREFETCHES:          0 LATE PREFETCHES: 0 DROPPED PREFETCHES: 0
PSCL2 COMMIT LATE PREFETCHES: 0 NORMAL LATE: 0 MISSED OPPORTUNITY: 0 UNCOVERED: 0
PSCL2 PREFETCHES SAME FILL-ORIGIN LEVEL: 0 DIFFERENT FILL-ORIGIN LEVEL: 0

LLC SPEC fills:          0  NON-SPEC fills:      93752
LLC Test counter :          0
LLC Leapfrog:          0
LLC MSHR merge:          0
LLC TOTAL     ACCESS:     498070  HIT:     172855  MISS:     325215  HIT %:     34.705  MISS %:     65.295   MPKI: 1.62607
LLC LOAD      TOTAL       ACCESS:     257160  HIT:      59014  MISS:     198146  HIT %:    22.9484  MISS %:    77.0516   MPKI: 0.99073
LLC LOAD      NON_SPEC    ACCESS:     144040  HIT:      37376  MISS:     106664  HIT %:    25.9483  MISS %:    74.0517   MPKI: 0.53332
LLC LOAD      SPEC        ACCESS:     113120  HIT:      21638  MISS:      91482  HIT %:    19.1284  MISS %:    80.8716   MPKI: 0.45741
LLC RFO       NON_SPEC    ACCESS:      11915  HIT:       3713  MISS:       8202  HIT %:    31.1624  MISS %:    68.8376   MPKI: 0.04101
LLC PREFETCH  NON_SPEC    ACCESS:      22095  HIT:       2909  MISS:      19186  HIT %:    13.1659  MISS %:    86.8341   MPKI: 0.09593
LLC WRITEBACK NON_SPEC    ACCESS:      22372  HIT:      22087  MISS:        285  HIT %:    98.7261  MISS %:    1.27391   MPKI: 0.001425
LLC CLEAN_EVICTION NON_SPEC    ACCESS:     172534  HIT:      78209  MISS:      94325  HIT %:    45.3296  MISS %:    54.6704   MPKI: 0.471625
LLC COMMIT LOAD NON_SPEC    ACCESS:        330  HIT:        158  MISS:        172  HIT %:    47.8788  MISS %:    52.1212   MPKI: 0.00086
LLC LOAD TRANSLATION NON_SPEC    ACCESS:      11508  HIT:       6666  MISS:       4842  HIT %:    57.9249  MISS %:    42.0751   MPKI: 0.02421
LLC TRANSLATION FROM L1D PREFETCHER NON_SPEC    ACCESS:        156  HIT:         99  MISS:         57  HIT %:    63.4615  MISS %:    36.5385   MPKI: 0.000285
LLC PREFETCH  REQUESTED:          0  ISSUED:          0  USEFUL:        658  USELESS:      17370
LLC USEFUL LOAD PREFETCHES:        658 PREFETCH ISSUED TO LOWER LEVEL:      19186  ACCURACY: 3.42958
LLC TIMELY PREFETCHES:        658 LATE PREFETCHES: 0 DROPPED PREFETCHES: 0
LLC COMMIT LATE PREFETCHES: 0 NORMAL LATE: 0 MISSED OPPORTUNITY: 0 UNCOVERED: 0
LLC PREFETCHES SAME FILL-ORIGIN LEVEL: 0 DIFFERENT FILL-ORIGIN LEVEL: 0
LLC AVERAGE MISS LATENCY: 105.941 cycles
LLC AVERAGE MISS LATENCY LOAD: 147.811 cycles
LLC AVERAGE MISS LATENCY PREFETCH: 158.85 cycles
LLC AVERAGE MSHR OCCUPANCY: 0.220394
LLC MSHR FULL: 0
LLC RQ	ACCESS:     281070	FORWARD:          0	MERGED:          0	TO_CACHE:     281069
LLC WQ	ACCESS:     194906	FORWARD:          1	MERGED:          0	TO_CACHE:     194906
LLC PQ	ACCESS:      22095	FORWARD:          0	MERGED:          0	TO_CACHE:      22095

LLC Dense regions hint to LLC: 0

RAW hits: 3033192
Loads Generated: 49831234
Loads sent to L1D: 46798043
Stores Generated: 39740622
Stores sent to L1D: 39740638
Major fault: 0 Minor fault: 5924
Allocated PAGES: 5924
Total Load insts: 55954366
Total Non-spec loads: 13943445
Percentage of speculative loads: 75.0807

LeapFrogging counter: 166
Commit hits: 22304352 miss: 11440693
Commit hit %: 66.0967 miss %: 33.9033
Commits not translated: 0
Loads retired: 527756
Stores retired: 39740638
Cache fills: 527756
L1D response latency: 75.177 cycles
Load retirement latency: 106.884 cycles
OOO test counter: 0
Discarded buffer inserts: 22304352 hits: 3527 hit %: 0.0158131
Filter prediction accuracy: -nan
LATENCY_FILL: 12.6422 326549
test counter pref: 2403522

DRAM Statistics
 CHANNEL 0
 RQ ROW_BUFFER_HIT:      35241  ROW_BUFFER_MISS:     195364
 DBUS_CONGESTED:         56
 WQ ROW_BUFFER_HIT:      35869  ROW_BUFFER_MISS:     102749  FULL:          0

 AVG_CONGESTED_CYCLE: 5
 All warmup complete: 2
Channel 0 Bank busy for read cycles: 0
Channel 0 Bank busy for write cycles: 0
Channel 0
Rank 0
0banks busy for read cycles: 325626257
0banks busy for write cycles: 72474
1banks busy for read cycles: 23193769
1banks busy for write cycles: 12798868
2banks busy for read cycles: 2642770
2banks busy for write cycles: 3619486
3banks busy for read cycles: 473275
3banks busy for write cycles: 895129
4banks busy for read cycles: 103924
4banks busy for write cycles: 319680
5banks busy for read cycles: 50622
5banks busy for write cycles: 167879
6banks busy for read cycles: 34241
6banks busy for write cycles: 108167
7banks busy for read cycles: 28352
7banks busy for write cycles: 75329
8banks busy for read cycles: 11937
8banks busy for write cycles: 56610

CPU 0 Branch Prediction Accuracy: 99.0693% MPKI: 1.53431 Average ROB Occupancy at Mispredict: 50.4141
Branch types
NOT_BRANCH: 167028092 83.514%
BRANCH_DIRECT_JUMP: 4141047 2.07052%
BRANCH_INDIRECT: 1274734 0.637367%
BRANCH_CONDITIONAL: 23669876 11.8349%
BRANCH_DIRECT_CALL: 1551808 0.775904%
BRANCH_INDIRECT_CALL: 391135 0.195567%
BRANCH_RETURN: 1942942 0.971471%
BRANCH_OTHER: 0 0%

DRAM PAGES: 1048576
Allocated PAGES: 5924
