
*** ChampSim Multicore Out-of-Order Simulator ***

Warmup Instructions: 50000000
Simulation Instructions: 200000000
Number of CPUs: 1
LLC sets: 2048
LLC ways: 16
L0D sets: 16
L0D ways: 2
ROB size: 352
LQ size: 128
SQ size: 72
Secure Berti: OFF
Berti: OFF
Berti Fill: OFF
On commit prefetching: ON
Hit-based filter: OFF
Time-guarding: ON
Free-slotting: ON
Leap-frogging: ON
Train prefetcher on L0D bypass: OFF
No translation penalty for prefetchers: OFF
Prefetch to L0D only: OFF
Prefetch to L1D only: OFF
Clean evictions: ON
Commit loads: ON
Commit write: ON
Fill commit loads to L2C, LLC: ON
DRAM IO FREQUENCY: 6400
ROB SIZE: 352
Off-chip DRAM Size: 4096 MB Channels: 1 Width: 64-bit Data Rate: 6400 MT/s
CPU 0 runs /home/sumon/secure_berti/GhostMinion/../../traces/spec/603.bwaves_s-2931B.champsimtrace.xz
.xz
BTB has LRU replacement policy
ITLB has LRU replacement policy
DTLB has LRU replacement policy
STLB has LRU replacement policy
L1I has LRU replacement policy
L0D has LRU replacement policy
History Sets: 8
History Ways: 16
BERTI Size: 16
BERTI Stride Size: 16
History Sets: 8
History Ways: 16
BERTI Size: 16
BERTI Stride Size: 16
L1D has LRU replacement policy
L2C has LRU replacement policy
LLC has LRU replacement policy
Heartbeat CPU 0 instructions: 10000003 cycles: 3168652 heartbeat IPC: 3.15592 cumulative IPC: 3.15592 (Simulation time: 0 hr 0 min 37 sec) 
Heartbeat CPU 0 instructions: 20000003 cycles: 6336918 heartbeat IPC: 3.1563 cumulative IPC: 3.15611 (Simulation time: 0 hr 1 min 39 sec) 
Heartbeat CPU 0 instructions: 30000003 cycles: 9505279 heartbeat IPC: 3.15621 cumulative IPC: 3.15614 (Simulation time: 0 hr 2 min 50 sec) 
Heartbeat CPU 0 instructions: 40000002 cycles: 12674051 heartbeat IPC: 3.1558 cumulative IPC: 3.15605 (Simulation time: 0 hr 4 min 3 sec) 
Heartbeat CPU 0 instructions: 50000003 cycles: 15842733 heartbeat IPC: 3.15589 cumulative IPC: 3.15602 (Simulation time: 0 hr 5 min 18 sec) 

Warmup complete CPU 0 instructions: 50000003 cycles: 15842733 (Simulation time: 0 hr 5 min 18 sec) 

Heartbeat CPU 0 instructions: 60000003 cycles: 26302378 heartbeat IPC: 0.956055 cumulative IPC: 0.956055 (Simulation time: 0 hr 6 min 59 sec) 
Heartbeat CPU 0 instructions: 70000002 cycles: 36870519 heartbeat IPC: 0.94624 cumulative IPC: 0.951122 (Simulation time: 0 hr 8 min 40 sec) 
Heartbeat CPU 0 instructions: 80000003 cycles: 47615880 heartbeat IPC: 0.930634 cumulative IPC: 0.944194 (Simulation time: 0 hr 10 min 20 sec) 
Heartbeat CPU 0 instructions: 90000003 cycles: 58253505 heartbeat IPC: 0.940059 cumulative IPC: 0.943157 (Simulation time: 0 hr 12 min 2 sec) 
Heartbeat CPU 0 instructions: 100000002 cycles: 68938866 heartbeat IPC: 0.93586 cumulative IPC: 0.941688 (Simulation time: 0 hr 13 min 44 sec) 
Heartbeat CPU 0 instructions: 110000000 cycles: 79448247 heartbeat IPC: 0.951531 cumulative IPC: 0.943314 (Simulation time: 0 hr 15 min 26 sec) 
Heartbeat CPU 0 instructions: 120000000 cycles: 89889917 heartbeat IPC: 0.957701 cumulative IPC: 0.945343 (Simulation time: 0 hr 17 min 5 sec) 
Heartbeat CPU 0 instructions: 130000002 cycles: 100440143 heartbeat IPC: 0.947847 cumulative IPC: 0.945655 (Simulation time: 0 hr 18 min 44 sec) 
Heartbeat CPU 0 instructions: 140000002 cycles: 111039843 heartbeat IPC: 0.943423 cumulative IPC: 0.945407 (Simulation time: 0 hr 20 min 23 sec) 
Heartbeat CPU 0 instructions: 150000003 cycles: 121622851 heartbeat IPC: 0.944911 cumulative IPC: 0.945357 (Simulation time: 0 hr 22 min 1 sec) 
Heartbeat CPU 0 instructions: 160000001 cycles: 132181922 heartbeat IPC: 0.947053 cumulative IPC: 0.945511 (Simulation time: 0 hr 23 min 39 sec) 
Heartbeat CPU 0 instructions: 170000003 cycles: 142731606 heartbeat IPC: 0.947896 cumulative IPC: 0.945709 (Simulation time: 0 hr 24 min 51 sec) 
Heartbeat CPU 0 instructions: 180000000 cycles: 153411894 heartbeat IPC: 0.936304 cumulative IPC: 0.944979 (Simulation time: 0 hr 26 min 17 sec) 
Heartbeat CPU 0 instructions: 190000000 cycles: 164063332 heartbeat IPC: 0.93884 cumulative IPC: 0.944538 (Simulation time: 0 hr 28 min 21 sec) 
Heartbeat CPU 0 instructions: 200000000 cycles: 174699805 heartbeat IPC: 0.940161 cumulative IPC: 0.944245 (Simulation time: 0 hr 29 min 21 sec) 
Heartbeat CPU 0 instructions: 210000000 cycles: 185185702 heartbeat IPC: 0.953662 cumulative IPC: 0.944828 (Simulation time: 0 hr 30 min 17 sec) 
Heartbeat CPU 0 instructions: 220000000 cycles: 195716613 heartbeat IPC: 0.949585 cumulative IPC: 0.945107 (Simulation time: 0 hr 31 min 10 sec) 
Heartbeat CPU 0 instructions: 230000000 cycles: 206378949 heartbeat IPC: 0.937881 cumulative IPC: 0.944702 (Simulation time: 0 hr 32 min 1 sec) 
Heartbeat CPU 0 instructions: 240000000 cycles: 216937225 heartbeat IPC: 0.947124 cumulative IPC: 0.944829 (Simulation time: 0 hr 32 min 46 sec) 
Heartbeat CPU 0 instructions: 250000001 cycles: 227425953 heartbeat IPC: 0.953405 cumulative IPC: 0.945255 (Simulation time: 0 hr 33 min 29 sec) 
Finished CPU 0 instructions: 200000002 cycles: 211583221 cumulative IPC: 0.945255 (Simulation time: 0 hr 33 min 29 sec) 
 Instruction ID: 250000064

ChampSim completed all CPUs

Region of Interest Statistics

CPU 0 cumulative IPC: 0.945255 instructions: 200000002 cycles: 211583221
ITLB SPEC fills:          0  NON-SPEC fills:          0
ITLB Test counter :          0
ITLB Leapfrog:          0
ITLB MSHR merge:          0
ITLB TOTAL     ACCESS:   24556046  HIT:   24556046  MISS:          0  HIT %:        100  MISS %:          0   MPKI: 0
ITLB LOAD TRANSLATION NON_SPEC    ACCESS:   24556046  HIT:   24556046  MISS:          0  HIT %:        100  MISS %:          0   MPKI: 0
ITLB PREFETCH  REQUESTED:          0  ISSUED:          0  USEFUL:          0  USELESS:          0
ITLB USEFUL LOAD PREFETCHES:          0 PREFETCH ISSUED TO LOWER LEVEL:          0  ACCURACY: -nan
ITLB TIMELY PREFETCHES:          0 LATE PREFETCHES: 0 DROPPED PREFETCHES: 0
ITLB COMMIT LATE PREFETCHES: 0 NORMAL LATE: 0 MISSED OPPORTUNITY: 0 UNCOVERED: 0
ITLB PREFETCHES SAME FILL-ORIGIN LEVEL: 0 DIFFERENT FILL-ORIGIN LEVEL: 0
ITLB AVERAGE MISS LATENCY: -nan cycles
ITLB AVERAGE MISS LATENCY LOAD: -nan cycles
ITLB AVERAGE MISS LATENCY PREFETCH: -nan cycles
ITLB AVERAGE MSHR OCCUPANCY: 0
ITLB MSHR FULL: 0
ITLB RQ	ACCESS:   28380942	FORWARD:          0	MERGED:    3824896	TO_CACHE:   24556046

DTLB SPEC fills:          0  NON-SPEC fills:          0
DTLB Test counter :          0
DTLB Leapfrog:          0
DTLB MSHR merge:          0
DTLB TOTAL     ACCESS:   49264899  HIT:   48901287  MISS:     363612  HIT %:    99.2619  MISS %:   0.738075   MPKI: 1.81806
DTLB LOAD TRANSLATION NON_SPEC    ACCESS:   49264899  HIT:   48901287  MISS:     363612  HIT %:    99.2619  MISS %:   0.738075   MPKI: 1.81806
DTLB PREFETCH  REQUESTED:          0  ISSUED:          0  USEFUL:          0  USELESS:          0
DTLB USEFUL LOAD PREFETCHES:          0 PREFETCH ISSUED TO LOWER LEVEL:          0  ACCURACY: -nan
DTLB TIMELY PREFETCHES:          0 LATE PREFETCHES: 0 DROPPED PREFETCHES: 0
DTLB COMMIT LATE PREFETCHES: 0 NORMAL LATE: 0 MISSED OPPORTUNITY: 0 UNCOVERED: 0
DTLB PREFETCHES SAME FILL-ORIGIN LEVEL: 0 DIFFERENT FILL-ORIGIN LEVEL: 0
DTLB AVERAGE MISS LATENCY: 63.8851 cycles
DTLB AVERAGE MISS LATENCY LOAD: -nan cycles
DTLB AVERAGE MISS LATENCY PREFETCH: -nan cycles
DTLB AVERAGE MSHR OCCUPANCY: 0.0760935
DTLB MSHR FULL: 5.67752e-06
DTLB RQ	ACCESS:   76061039	FORWARD:          0	MERGED:   26743970	TO_CACHE:   49317069

STLB SPEC fills:          0  NON-SPEC fills:          0
STLB Test counter :          0
STLB Leapfrog:          0
STLB MSHR merge:          0
STLB TOTAL     ACCESS:    6092430  HIT:    6049824  MISS:      42606  HIT %:    99.3007  MISS %:   0.699327   MPKI: 0.21303
STLB LOAD TRANSLATION NON_SPEC    ACCESS:     363612  HIT:     324220  MISS:      39392  HIT %:    89.1665  MISS %:    10.8335   MPKI: 0.19696
STLB TRANSLATION FROM L1D PREFETCHER NON_SPEC    ACCESS:    5728818  HIT:    5725604  MISS:       3214  HIT %:    99.9439  MISS %:  0.0561023   MPKI: 0.01607
STLB PREFETCH  REQUESTED:          0  ISSUED:          0  USEFUL:       3214  USELESS:          0
STLB USEFUL LOAD PREFETCHES:       3214 PREFETCH ISSUED TO LOWER LEVEL:          0  ACCURACY: inf
STLB TIMELY PREFETCHES:       3214 LATE PREFETCHES: 2058 DROPPED PREFETCHES: 180713
STLB COMMIT LATE PREFETCHES: 0 NORMAL LATE: 0 MISSED OPPORTUNITY: 0 UNCOVERED: 0
STLB PREFETCHES SAME FILL-ORIGIN LEVEL: 0 DIFFERENT FILL-ORIGIN LEVEL: 0
STLB AVERAGE MISS LATENCY: 477.779 cycles
STLB AVERAGE MISS LATENCY LOAD: -nan cycles
STLB AVERAGE MISS LATENCY PREFETCH: -nan cycles
STLB AVERAGE MSHR OCCUPANCY: 0.167696
STLB MSHR FULL: 0
STLB RQ	ACCESS:   24720714	FORWARD:          0	MERGED:   18442651	TO_CACHE:    6278063

STLB Hit, L1D data hit: 0
STLB Hit, L2C data hit: 0
STLB Hit, LLC data hit: 0
STLB Hit, LLC data miss: 0
STLB STLB hints to L2: 0
L0D SPEC fills:   25556511  NON-SPEC fills:          0
L0D TimeGuard Request with older TS:     868140 Restricted eviction:    2123453 read:     455919
L0D Test counter :          0
L0D Leapfrog:          0
L0D MSHR merge:    1720924
L0D TOTAL     ACCESS:   37691056  HIT:    7276251  MISS:   30414805  HIT %:     19.305  MISS %:     80.695   MPKI: 152.074
L0D LOAD      TOTAL       ACCESS:   37691056  HIT:    7276251  MISS:   30414805  HIT %:     19.305  MISS %:     80.695   MPKI: 152.074
L0D LOAD      NON_SPEC    ACCESS:    3801443  HIT:    1066154  MISS:    2735289  HIT %:     28.046  MISS %:     71.954   MPKI: 13.6764
L0D LOAD      SPEC        ACCESS:   33889613  HIT:    6210097  MISS:   27679516  HIT %:    18.3245  MISS %:    81.6755   MPKI: 138.398
L0D PREFETCH  REQUESTED:          0  ISSUED:          0  USEFUL:          0  USELESS:          0
L0D USEFUL LOAD PREFETCHES:          0 PREFETCH ISSUED TO LOWER LEVEL:          0  ACCURACY: -nan
L0D TIMELY PREFETCHES:          0 LATE PREFETCHES: 0 DROPPED PREFETCHES: 0
L0D COMMIT LATE PREFETCHES: 0 NORMAL LATE: 0 MISSED OPPORTUNITY: 0 UNCOVERED: 0
L0D PREFETCHES SAME FILL-ORIGIN LEVEL: 0 DIFFERENT FILL-ORIGIN LEVEL: 0
L0D AVERAGE MISS LATENCY: 11.1968 cycles
L0D AVERAGE MISS LATENCY LOAD: 11.1968 cycles
L0D AVERAGE MISS LATENCY PREFETCH: -nan cycles
L0D AVERAGE MSHR OCCUPANCY: 1.74214
L0D MSHR FULL: 0.00331553
L0D RQ	ACCESS:   50479648	FORWARD:          0	MERGED:   11067669	TO_CACHE:   39411979
L0D WQ	ACCESS:   36649060	FORWARD:          0	MERGED:          0	TO_CACHE:   36649060

L1D SPEC fills:          0  NON-SPEC fills:      23442
L1D Test counter :    1027867
L1D Leapfrog:          0
L1D MSHR merge:      31548
L1D TOTAL     ACCESS:  116281707  HIT:  111821721  MISS:    4459986  HIT %:    96.1645  MISS %:     3.8355   MPKI: 22.2999
L1D LOAD      TOTAL       ACCESS:   30392182  HIT:   29358792  MISS:    1033390  HIT %:    96.5998  MISS %:    3.40018   MPKI: 5.16695
L1D LOAD      NON_SPEC    ACCESS:    2735195  HIT:    2711753  MISS:      23442  HIT %:    99.1429  MISS %:    0.85705   MPKI: 0.11721
L1D LOAD      SPEC        ACCESS:   27656987  HIT:   26647039  MISS:    1009948  HIT %:    96.3483  MISS %:    3.65169   MPKI: 5.04974
L1D RFO       NON_SPEC    ACCESS:   31732406  HIT:   30506059  MISS:    1226347  HIT %:    96.1353  MISS %:    3.86465   MPKI: 6.13173
L1D PREFETCH  NON_SPEC    ACCESS:   18068714  HIT:   16964800  MISS:    1103914  HIT %:    93.8905  MISS %:    6.10953   MPKI: 5.51957
L1D COMMIT LOAD NON_SPEC    ACCESS:   11408509  HIT:   11318327  MISS:      90182  HIT %:    99.2095  MISS %:    0.79048   MPKI: 0.45091
L1D COMMIT WRITE NON_SPEC    ACCESS:   24679896  HIT:   23673743  MISS:    1006153  HIT %:    95.9232  MISS %:    4.07681   MPKI: 5.03076
L1D PREFETCH  REQUESTED:   36607633  ISSUED:   24455556  USEFUL:    1032099  USELESS:      71717
L1D USEFUL LOAD PREFETCHES:    1032099 PREFETCH ISSUED TO LOWER LEVEL:    5822950  ACCURACY: 17.7247
L1D TIMELY PREFETCHES:    1032099 LATE PREFETCHES: 8933 DROPPED PREFETCHES: 511437
L1D COMMIT LATE PREFETCHES: 134 NORMAL LATE: 9582 MISSED OPPORTUNITY: 12685 UNCOVERED: 1012280
L1D PREFETCHES SAME FILL-ORIGIN LEVEL: 1117171 DIFFERENT FILL-ORIGIN LEVEL: 4705779
L1D AVERAGE MISS LATENCY: 244.63 cycles
L1D AVERAGE MISS LATENCY LOAD: 170.38 cycles
L1D AVERAGE MISS LATENCY PREFETCH: 220.73 cycles
L1D AVERAGE MSHR OCCUPANCY: 5.8424
L1D MSHR FULL: 0.0269101
L1D RQ	ACCESS:   52092140	FORWARD:          0	MERGED:   10224603	TO_CACHE:   41825896
L1D WQ	ACCESS:   61354349	FORWARD:      41641	MERGED:     856988	TO_CACHE:   60497361
L1D PQ	ACCESS:   24455556	FORWARD:          0	MERGED:      98454	TO_CACHE:   24357102

L1D UNIQUE REGIONS ACCESSED: 0
L1D REGIONS CONFLICTS: 0
L1D Cross Page Prefetch Requests: 876363
L1D Same Page Prefetch Requests: 23612111
L1D ROI Sum of L1D PQ occupancy: 557845005
L1D PREFETCHES PUSHED FROM L2C: 0
L1I SPEC fills:          0  NON-SPEC fills:          0
L1I Test counter :          0
L1I Leapfrog:          0
L1I MSHR merge:          0
L1I TOTAL     ACCESS:   28380940  HIT:   28380940  MISS:          0  HIT %:        100  MISS %:          0   MPKI: 0
L1I LOAD      TOTAL       ACCESS:   28380940  HIT:   28380940  MISS:          0  HIT %:        100  MISS %:          0   MPKI: 0
L1I LOAD      NON_SPEC    ACCESS:   28380940  HIT:   28380940  MISS:          0  HIT %:        100  MISS %:          0   MPKI: 0
L1I PREFETCH  REQUESTED:          0  ISSUED:          0  USEFUL:          0  USELESS:          0
L1I USEFUL LOAD PREFETCHES:          0 PREFETCH ISSUED TO LOWER LEVEL:          0  ACCURACY: -nan
L1I TIMELY PREFETCHES:          0 LATE PREFETCHES: 0 DROPPED PREFETCHES: 0
L1I COMMIT LATE PREFETCHES: 0 NORMAL LATE: 0 MISSED OPPORTUNITY: 0 UNCOVERED: 0
L1I PREFETCHES SAME FILL-ORIGIN LEVEL: 0 DIFFERENT FILL-ORIGIN LEVEL: 0
L1I AVERAGE MISS LATENCY: -nan cycles
L1I AVERAGE MISS LATENCY LOAD: -nan cycles
L1I AVERAGE MISS LATENCY PREFETCH: -nan cycles
L1I AVERAGE MSHR OCCUPANCY: 0
L1I MSHR FULL: 0
L1I RQ	ACCESS:   42216319	FORWARD:          0	MERGED:   13835377	TO_CACHE:   28380942

BTB SPEC fills:          0  NON-SPEC fills:          0
BTB Test counter :          0
BTB Leapfrog:          0
BTB MSHR merge:          0
BTB TOTAL     ACCESS:    1687994  HIT:    1687989  MISS:          5  HIT %:    99.9997  MISS %: 0.00029621   MPKI: 2.5e-05
BTB BRANCH_DIRECT_JUMP	ACCESS:          0  HIT:          0  MISS:          0
BTB BRANCH_INDIRECT	ACCESS:          0  HIT:          0  MISS:          0
BTB BRANCH_CONDITIONAL	ACCESS:    1687994  HIT:    1687989  MISS:          5
BTB BRANCH_DIRECT_CALL	ACCESS:          0  HIT:          0  MISS:          0
BTB BRANCH_INDIRECT_CALL	ACCESS:          0  HIT:          0  MISS:          0
BTB BRANCH_RETURN	ACCESS:          0  HIT:          0  MISS:          0
BTB BRANCH_OTHER ACCESS:          0  HIT:          0  MISS:          0

L2C SPEC fills:          0  NON-SPEC fills:       7929
L2C Test counter :          0
L2C Leapfrog:          0
L2C MSHR merge:        650
L2C TOTAL     ACCESS:   11624420  HIT:    8025626  MISS:    3598794  HIT %:    69.0411  MISS %:    30.9589   MPKI: 17.994
L2C LOAD      TOTAL       ACCESS:    1015382  HIT:     332675  MISS:     682707  HIT %:    32.7635  MISS %:    67.2365   MPKI: 3.41353
L2C LOAD      NON_SPEC    ACCESS:      22802  HIT:      14873  MISS:       7929  HIT %:    65.2267  MISS %:    34.7733   MPKI: 0.039645
L2C LOAD      SPEC        ACCESS:     992580  HIT:     317802  MISS:     674778  HIT %:    32.0178  MISS %:    67.9822   MPKI: 3.37389
L2C RFO       NON_SPEC    ACCESS:    1172297  HIT:      77267  MISS:    1095030  HIT %:    6.59108  MISS %:    93.4089   MPKI: 5.47515
L2C PREFETCH  NON_SPEC    ACCESS:    4860519  HIT:    3725480  MISS:    1135039  HIT %:    76.6478  MISS %:    23.3522   MPKI: 5.67519
L2C WRITEBACK NON_SPEC    ACCESS:    1297241  HIT:    1297094  MISS:        147  HIT %:    99.9887  MISS %:  0.0113317   MPKI: 0.000735
L2C CLEAN_EVICTION NON_SPEC    ACCESS:    2086022  HIT:    1428190  MISS:     657832  HIT %:    68.4648  MISS %:    31.5352   MPKI: 3.28916
L2C COMMIT LOAD NON_SPEC    ACCESS:      66485  HIT:      43842  MISS:      22643  HIT %:    65.9427  MISS %:    34.0573   MPKI: 0.113215
L2C LOAD TRANSLATION NON_SPEC    ACCESS:     196847  HIT:     193334  MISS:       3513  HIT %:    98.2154  MISS %:    1.78463   MPKI: 0.017565
L2C TRANSLATION FROM L1D PREFETCHER NON_SPEC    ACCESS:     929627  HIT:     927744  MISS:       1883  HIT %:    99.7974  MISS %:   0.202554   MPKI: 0.009415
L2C PREFETCH  REQUESTED:          0  ISSUED:          0  USEFUL:     227010  USELESS:     906990
L2C USEFUL LOAD PREFETCHES:     227010 PREFETCH ISSUED TO LOWER LEVEL:    1137015  ACCURACY: 19.9654
L2C TIMELY PREFETCHES:     227010 LATE PREFETCHES: 1969 DROPPED PREFETCHES: 0
L2C COMMIT LATE PREFETCHES: 0 NORMAL LATE: 1972 MISSED OPPORTUNITY: 0 UNCOVERED: 682054
L2C PREFETCHES SAME FILL-ORIGIN LEVEL: 555825 DIFFERENT FILL-ORIGIN LEVEL: 0
L2C AVERAGE MISS LATENCY: 352.2 cycles
L2C AVERAGE MISS LATENCY LOAD: 237.442 cycles
L2C AVERAGE MISS LATENCY PREFETCH: 397.618 cycles
L2C AVERAGE MSHR OCCUPANCY: 5.50656
L2C MSHR FULL: 0.000843227
L2C RQ	ACCESS:    3464053	FORWARD:          0	MERGED:          0	TO_CACHE:    3380640
L2C WQ	ACCESS:    3383508	FORWARD:      85526	MERGED:        245	TO_CACHE:    3383263
L2C PQ	ACCESS:    5814327	FORWARD:          0	MERGED:        111	TO_CACHE:    5812103

L2C Instructions Evicting Data 0
L2C Translations Evicting Data 5395
L2C Data Evicting Data 2256379
L2C Instructions Evicting Instructions 0
L2C Translations Evicting Instructions 0
L2C Data Evicting Instructions 0
L2C Instructions Evicting Translations 0
L2C Translations Evicting Translations 1
L2C Data Evicting Translations 4262
L2C Dense regions hint from L2: 0
PSCL5 SPEC fills:          0  NON-SPEC fills:          0
PSCL5 Test counter :          0
PSCL5 Leapfrog:          0
PSCL5 MSHR merge:          0
PSCL5 TOTAL     ACCESS:          0  HIT:          0  MISS:          0  HIT %:       -nan  MISS %:       -nan   MPKI: 0
PSCL5 PREFETCH  REQUESTED:          0  ISSUED:          0  USEFUL:          0  USELESS:          0
PSCL5 USEFUL LOAD PREFETCHES:          0 PREFETCH ISSUED TO LOWER LEVEL:          0  ACCURACY: -nan
PSCL5 TIMELY PREFETCHES:          0 LATE PREFETCHES: 0 DROPPED PREFETCHES: 0
PSCL5 COMMIT LATE PREFETCHES: 0 NORMAL LATE: 0 MISSED OPPORTUNITY: 0 UNCOVERED: 0
PSCL5 PREFETCHES SAME FILL-ORIGIN LEVEL: 0 DIFFERENT FILL-ORIGIN LEVEL: 0

PSCL4 SPEC fills:          0  NON-SPEC fills:          0
PSCL4 Test counter :          0
PSCL4 Leapfrog:          0
PSCL4 MSHR merge:          0
PSCL4 TOTAL     ACCESS:          0  HIT:          0  MISS:          0  HIT %:       -nan  MISS %:       -nan   MPKI: 0
PSCL4 PREFETCH  REQUESTED:          0  ISSUED:          0  USEFUL:          0  USELESS:          0
PSCL4 USEFUL LOAD PREFETCHES:          0 PREFETCH ISSUED TO LOWER LEVEL:          0  ACCURACY: -nan
PSCL4 TIMELY PREFETCHES:          0 LATE PREFETCHES: 0 DROPPED PREFETCHES: 0
PSCL4 COMMIT LATE PREFETCHES: 0 NORMAL LATE: 0 MISSED OPPORTUNITY: 0 UNCOVERED: 0
PSCL4 PREFETCHES SAME FILL-ORIGIN LEVEL: 0 DIFFERENT FILL-ORIGIN LEVEL: 0

PSCL3 SPEC fills:          0  NON-SPEC fills:          0
PSCL3 Test counter :          0
PSCL3 Leapfrog:          0
PSCL3 MSHR merge:          0
PSCL3 TOTAL     ACCESS:          0  HIT:          0  MISS:          0  HIT %:       -nan  MISS %:       -nan   MPKI: 0
PSCL3 PREFETCH  REQUESTED:          0  ISSUED:          0  USEFUL:          0  USELESS:          0
PSCL3 USEFUL LOAD PREFETCHES:          0 PREFETCH ISSUED TO LOWER LEVEL:          0  ACCURACY: -nan
PSCL3 TIMELY PREFETCHES:          0 LATE PREFETCHES: 0 DROPPED PREFETCHES: 0
PSCL3 COMMIT LATE PREFETCHES: 0 NORMAL LATE: 0 MISSED OPPORTUNITY: 0 UNCOVERED: 0
PSCL3 PREFETCHES SAME FILL-ORIGIN LEVEL: 0 DIFFERENT FILL-ORIGIN LEVEL: 0

PSCL2 SPEC fills:          0  NON-SPEC fills:          0
PSCL2 Test counter :          0
PSCL2 Leapfrog:          0
PSCL2 MSHR merge:          0
PSCL2 TOTAL     ACCESS:          0  HIT:          0  MISS:          0  HIT %:       -nan  MISS %:       -nan   MPKI: 0
PSCL2 PREFETCH  REQUESTED:          0  ISSUED:          0  USEFUL:          0  USELESS:          0
PSCL2 USEFUL LOAD PREFETCHES:          0 PREFETCH ISSUED TO LOWER LEVEL:          0  ACCURACY: -nan
PSCL2 TIMELY PREFETCHES:          0 LATE PREFETCHES: 0 DROPPED PREFETCHES: 0
PSCL2 COMMIT LATE PREFETCHES: 0 NORMAL LATE: 0 MISSED OPPORTUNITY: 0 UNCOVERED: 0
PSCL2 PREFETCHES SAME FILL-ORIGIN LEVEL: 0 DIFFERENT FILL-ORIGIN LEVEL: 0

LLC SPEC fills:          0  NON-SPEC fills:       7827
LLC Test counter :          0
LLC Leapfrog:          0
LLC MSHR merge:          0
LLC TOTAL     ACCESS:    5847891  HIT:    2496769  MISS:    3351122  HIT %:    42.6952  MISS %:    57.3048   MPKI: 16.7556
LLC LOAD      TOTAL       ACCESS:     682056  HIT:      56539  MISS:     625517  HIT %:     8.2895  MISS %:    91.7105   MPKI: 3.12758
LLC LOAD      NON_SPEC    ACCESS:       7918  HIT:         91  MISS:       7827  HIT %:    1.14928  MISS %:    98.8507   MPKI: 0.039135
LLC LOAD      SPEC        ACCESS:     674138  HIT:      56448  MISS:     617690  HIT %:    8.37336  MISS %:    91.6266   MPKI: 3.08845
LLC RFO       NON_SPEC    ACCESS:    1093711  HIT:          0  MISS:    1093711  HIT %:          0  MISS %:        100   MPKI: 5.46855
LLC PREFETCH  NON_SPEC    ACCESS:    1137004  HIT:     129621  MISS:    1007383  HIT %:    11.4002  MISS %:    88.5998   MPKI: 5.03691
LLC WRITEBACK NON_SPEC    ACCESS:    1191296  HIT:    1191213  MISS:         83  HIT %:     99.993  MISS %:  0.0069672   MPKI: 0.000415
LLC CLEAN_EVICTION NON_SPEC    ACCESS:    1715785  HIT:    1119233  MISS:     596552  HIT %:    65.2315  MISS %:    34.7685   MPKI: 2.98276
LLC COMMIT LOAD NON_SPEC    ACCESS:      22643  HIT:        117  MISS:      22526  HIT %:   0.516716  MISS %:    99.4833   MPKI: 0.11263
LLC LOAD TRANSLATION NON_SPEC    ACCESS:       3513  HIT:         38  MISS:       3475  HIT %:     1.0817  MISS %:    98.9183   MPKI: 0.017375
LLC TRANSLATION FROM L1D PREFETCHER NON_SPEC    ACCESS:       1883  HIT:          8  MISS:       1875  HIT %:   0.424854  MISS %:    99.5751   MPKI: 0.009375
LLC PREFETCH  REQUESTED:          0  ISSUED:          0  USEFUL:      25340  USELESS:     970227
LLC USEFUL LOAD PREFETCHES:      25340 PREFETCH ISSUED TO LOWER LEVEL:    1007390  ACCURACY: 2.51541
LLC TIMELY PREFETCHES:      25340 LATE PREFETCHES: 0 DROPPED PREFETCHES: 0
LLC COMMIT LATE PREFETCHES: 0 NORMAL LATE: 0 MISSED OPPORTUNITY: 0 UNCOVERED: 0
LLC PREFETCHES SAME FILL-ORIGIN LEVEL: 0 DIFFERENT FILL-ORIGIN LEVEL: 0
LLC AVERAGE MISS LATENCY: 353.18 cycles
LLC AVERAGE MISS LATENCY LOAD: 235.124 cycles
LLC AVERAGE MISS LATENCY PREFETCH: 414.382 cycles
LLC AVERAGE MSHR OCCUPANCY: 4.7837
LLC MSHR FULL: 0
LLC RQ	ACCESS:    1803809	FORWARD:          0	MERGED:          0	TO_CACHE:    1803808
LLC WQ	ACCESS:    2907081	FORWARD:          5	MERGED:          0	TO_CACHE:    2907081
LLC PQ	ACCESS:    1137015	FORWARD:          0	MERGED:          0	TO_CACHE:    1137011

LLC Dense regions hint to LLC: 0

RAW hits: 8166291
Loads Generated: 58645943
Loads sent to L1D: 50479648
Stores Generated: 36649052
Stores sent to L1D: 36649060
Major fault: 0 Minor fault: 48769
Allocated PAGES: 48769
Total Load insts: 61519442
Total Non-spec loads: 4799049
Percentage of speculative loads: 92.1991

LeapFrogging counter: 73708
Commit hits: 24721940 miss: 21677337
Commit hit %: 53.2809 miss %: 46.7191
Commits not translated: 0
Loads retired: 1033390
Stores retired: 36649060
Cache fills: 1033390
L1D response latency: 170.38 cycles
Load retirement latency: 242.177 cycles
OOO test counter: 0
Discarded buffer inserts: 24721940 hits: 92484 hit %: 0.374097
Filter prediction accuracy: -nan
LATENCY_FILL: 98.6375 2199859
test counter pref: 15799924

DRAM Statistics
 CHANNEL 0
 RQ ROW_BUFFER_HIT:    1085007  ROW_BUFFER_MISS:    1669480
 DBUS_CONGESTED:       3615
 WQ ROW_BUFFER_HIT:     739102  ROW_BUFFER_MISS:    1982325  FULL:      42708

 AVG_CONGESTED_CYCLE: 5
 All warmup complete: 2
Channel 0 Bank busy for read cycles: 0
Channel 0 Bank busy for write cycles: 0
Channel 0
Rank 0
0banks busy for read cycles: 934041
0banks busy for write cycles: 225
1banks busy for read cycles: 69372376
1banks busy for write cycles: 411451
2banks busy for read cycles: 30301070
2banks busy for write cycles: 445238
3banks busy for read cycles: 14609098
3banks busy for write cycles: 608904
4banks busy for read cycles: 8473809
4banks busy for write cycles: 1110554
5banks busy for read cycles: 8147509
5banks busy for write cycles: 2169490
6banks busy for read cycles: 6756811
6banks busy for write cycles: 4501043
7banks busy for read cycles: 3244564
7banks busy for write cycles: 11002237
8banks busy for read cycles: 2193815
8banks busy for write cycles: 47300987

CPU 0 Branch Prediction Accuracy: 99.9697% MPKI: 0.00256 Average ROB Occupancy at Mispredict: 180.791
Branch types
NOT_BRANCH: 198311676 99.1558%
BRANCH_DIRECT_JUMP: 0 0%
BRANCH_INDIRECT: 0 0%
BRANCH_CONDITIONAL: 1688003 0.844001%
BRANCH_DIRECT_CALL: 0 0%
BRANCH_INDIRECT_CALL: 0 0%
BRANCH_RETURN: 0 0%
BRANCH_OTHER: 0 0%

DRAM PAGES: 1048576
Allocated PAGES: 48769
