
*** ChampSim Multicore Out-of-Order Simulator ***

Warmup Instructions: 50000000
Simulation Instructions: 200000000
Number of CPUs: 1
LLC sets: 2048
LLC ways: 16
L0D sets: 16
L0D ways: 2
ROB size: 352
LQ size: 128
SQ size: 72
Secure Berti: OFF
Berti: OFF
Berti Fill: OFF
On commit prefetching: ON
Hit-based filter: OFF
Time-guarding: ON
Free-slotting: ON
Leap-frogging: ON
Train prefetcher on L0D bypass: OFF
No translation penalty for prefetchers: OFF
Prefetch to L0D only: OFF
Prefetch to L1D only: OFF
Clean evictions: ON
Commit loads: ON
Commit write: ON
Fill commit loads to L2C, LLC: ON
DRAM IO FREQUENCY: 6400
ROB SIZE: 352
Off-chip DRAM Size: 4096 MB Channels: 1 Width: 64-bit Data Rate: 6400 MT/s
CPU 0 runs /home/sumon/secure_berti/GhostMinion/../../traces/spec/605.mcf_s-1644B.champsimtrace.xz
.xz
BTB has LRU replacement policy
ITLB has LRU replacement policy
DTLB has LRU replacement policy
STLB has LRU replacement policy
L1I has LRU replacement policy
L0D has LRU replacement policy
History Sets: 8
History Ways: 16
BERTI Size: 16
BERTI Stride Size: 16
History Sets: 8
History Ways: 16
BERTI Size: 16
BERTI Stride Size: 16
L1D has LRU replacement policy
L2C has LRU replacement policy
LLC has LRU replacement policy
Heartbeat CPU 0 instructions: 10000003 cycles: 14303290 heartbeat IPC: 0.69914 cumulative IPC: 0.69914 (Simulation time: 0 hr 2 min 5 sec) 
Heartbeat CPU 0 instructions: 20000001 cycles: 28599679 heartbeat IPC: 0.699477 cumulative IPC: 0.699309 (Simulation time: 0 hr 5 min 10 sec) 
Heartbeat CPU 0 instructions: 30000002 cycles: 42902417 heartbeat IPC: 0.699167 cumulative IPC: 0.699261 (Simulation time: 0 hr 8 min 12 sec) 
Heartbeat CPU 0 instructions: 40000001 cycles: 57198014 heartbeat IPC: 0.699516 cumulative IPC: 0.699325 (Simulation time: 0 hr 11 min 6 sec) 
Heartbeat CPU 0 instructions: 50000000 cycles: 71499981 heartbeat IPC: 0.699204 cumulative IPC: 0.699301 (Simulation time: 0 hr 14 min 0 sec) 

Warmup complete CPU 0 instructions: 50000004 cycles: 71499982 (Simulation time: 0 hr 14 min 0 sec) 

Heartbeat CPU 0 instructions: 60000001 cycles: 145739526 heartbeat IPC: 0.134699 cumulative IPC: 0.134699 (Simulation time: 0 hr 18 min 11 sec) 
Heartbeat CPU 0 instructions: 70000003 cycles: 220465061 heartbeat IPC: 0.133823 cumulative IPC: 0.13426 (Simulation time: 0 hr 22 min 1 sec) 
Heartbeat CPU 0 instructions: 80000000 cycles: 295947287 heartbeat IPC: 0.132481 cumulative IPC: 0.133662 (Simulation time: 0 hr 25 min 25 sec) 
Heartbeat CPU 0 instructions: 90000000 cycles: 371227008 heartbeat IPC: 0.132838 cumulative IPC: 0.133455 (Simulation time: 0 hr 29 min 0 sec) 
Heartbeat CPU 0 instructions: 100000003 cycles: 447714881 heartbeat IPC: 0.13074 cumulative IPC: 0.132903 (Simulation time: 0 hr 30 min 52 sec) 
Heartbeat CPU 0 instructions: 110000000 cycles: 524167550 heartbeat IPC: 0.1308 cumulative IPC: 0.132548 (Simulation time: 0 hr 32 min 39 sec) 
Heartbeat CPU 0 instructions: 120000001 cycles: 601354603 heartbeat IPC: 0.129555 cumulative IPC: 0.132112 (Simulation time: 0 hr 34 min 23 sec) 
Heartbeat CPU 0 instructions: 130000001 cycles: 677366185 heartbeat IPC: 0.131559 cumulative IPC: 0.132042 (Simulation time: 0 hr 36 min 4 sec) 
Heartbeat CPU 0 instructions: 140000003 cycles: 751838493 heartbeat IPC: 0.134278 cumulative IPC: 0.132287 (Simulation time: 0 hr 37 min 44 sec) 
Heartbeat CPU 0 instructions: 150000002 cycles: 823647465 heartbeat IPC: 0.139258 cumulative IPC: 0.132953 (Simulation time: 0 hr 39 min 20 sec) 
Heartbeat CPU 0 instructions: 160000002 cycles: 893727539 heartbeat IPC: 0.142694 cumulative IPC: 0.133783 (Simulation time: 0 hr 40 min 56 sec) 
Heartbeat CPU 0 instructions: 170000002 cycles: 965973847 heartbeat IPC: 0.138415 cumulative IPC: 0.134157 (Simulation time: 0 hr 42 min 39 sec) 
Heartbeat CPU 0 instructions: 180000002 cycles: 1038780955 heartbeat IPC: 0.137349 cumulative IPC: 0.134397 (Simulation time: 0 hr 45 min 19 sec) 
Heartbeat CPU 0 instructions: 190000003 cycles: 1112005187 heartbeat IPC: 0.136567 cumulative IPC: 0.13455 (Simulation time: 0 hr 47 min 37 sec) 
Heartbeat CPU 0 instructions: 200000001 cycles: 1186086650 heartbeat IPC: 0.134987 cumulative IPC: 0.134579 (Simulation time: 0 hr 49 min 48 sec) 
Heartbeat CPU 0 instructions: 210000003 cycles: 1259877154 heartbeat IPC: 0.135519 cumulative IPC: 0.134637 (Simulation time: 0 hr 51 min 57 sec) 
Heartbeat CPU 0 instructions: 220000000 cycles: 1333401616 heartbeat IPC: 0.136009 cumulative IPC: 0.134717 (Simulation time: 0 hr 54 min 4 sec) 
Heartbeat CPU 0 instructions: 230000003 cycles: 1407140471 heartbeat IPC: 0.135614 cumulative IPC: 0.134767 (Simulation time: 0 hr 56 min 10 sec) 
Heartbeat CPU 0 instructions: 240000000 cycles: 1480636216 heartbeat IPC: 0.136062 cumulative IPC: 0.134834 (Simulation time: 0 hr 58 min 16 sec) 
Heartbeat CPU 0 instructions: 250000000 cycles: 1554638680 heartbeat IPC: 0.135131 cumulative IPC: 0.134849 (Simulation time: 1 hr 0 min 20 sec) 
Finished CPU 0 instructions: 200000000 cycles: 1483138700 cumulative IPC: 0.134849 (Simulation time: 1 hr 0 min 20 sec) 
 Instruction ID: 250000247

ChampSim completed all CPUs

Region of Interest Statistics

CPU 0 cumulative IPC: 0.134849 instructions: 200000000 cycles: 1483138700
ITLB SPEC fills:          0  NON-SPEC fills:          0
ITLB Test counter :          0
ITLB Leapfrog:          0
ITLB MSHR merge:          0
ITLB TOTAL     ACCESS:   33557781  HIT:   33557781  MISS:          0  HIT %:        100  MISS %:          0   MPKI: 0
ITLB LOAD TRANSLATION NON_SPEC    ACCESS:   33557781  HIT:   33557781  MISS:          0  HIT %:        100  MISS %:          0   MPKI: 0
ITLB PREFETCH  REQUESTED:          0  ISSUED:          0  USEFUL:          0  USELESS:          0
ITLB USEFUL LOAD PREFETCHES:          0 PREFETCH ISSUED TO LOWER LEVEL:          0  ACCURACY: -nan
ITLB TIMELY PREFETCHES:          0 LATE PREFETCHES: 0 DROPPED PREFETCHES: 0
ITLB COMMIT LATE PREFETCHES: 0 NORMAL LATE: 0 MISSED OPPORTUNITY: 0 UNCOVERED: 0
ITLB PREFETCHES SAME FILL-ORIGIN LEVEL: 0 DIFFERENT FILL-ORIGIN LEVEL: 0
ITLB AVERAGE MISS LATENCY: -nan cycles
ITLB AVERAGE MISS LATENCY LOAD: -nan cycles
ITLB AVERAGE MISS LATENCY PREFETCH: -nan cycles
ITLB AVERAGE MSHR OCCUPANCY: 0
ITLB MSHR FULL: 0
ITLB RQ	ACCESS:   33560282	FORWARD:          0	MERGED:       2502	TO_CACHE:   33557780

DTLB SPEC fills:          0  NON-SPEC fills:          0
DTLB Test counter :          0
DTLB Leapfrog:          0
DTLB MSHR merge:          0
DTLB TOTAL     ACCESS:   78253675  HIT:   72620289  MISS:    5633386  HIT %:    92.8011  MISS %:    7.19888   MPKI: 28.1669
DTLB LOAD TRANSLATION NON_SPEC    ACCESS:   78253675  HIT:   72620289  MISS:    5633386  HIT %:    92.8011  MISS %:    7.19888   MPKI: 28.1669
DTLB PREFETCH  REQUESTED:          0  ISSUED:          0  USEFUL:          0  USELESS:          0
DTLB USEFUL LOAD PREFETCHES:          0 PREFETCH ISSUED TO LOWER LEVEL:          0  ACCURACY: -nan
DTLB TIMELY PREFETCHES:          0 LATE PREFETCHES: 0 DROPPED PREFETCHES: 0
DTLB COMMIT LATE PREFETCHES: 0 NORMAL LATE: 0 MISSED OPPORTUNITY: 0 UNCOVERED: 0
DTLB PREFETCHES SAME FILL-ORIGIN LEVEL: 0 DIFFERENT FILL-ORIGIN LEVEL: 0
DTLB AVERAGE MISS LATENCY: 972.821 cycles
DTLB AVERAGE MISS LATENCY LOAD: -nan cycles
DTLB AVERAGE MISS LATENCY PREFETCH: -nan cycles
DTLB AVERAGE MSHR OCCUPANCY: 3.24434
DTLB MSHR FULL: 0.000102681
DTLB RQ	ACCESS:  124886144	FORWARD:          0	MERGED:   27893543	TO_CACHE:   96992601

STLB SPEC fills:          0  NON-SPEC fills:          0
STLB Test counter :          0
STLB Leapfrog:          0
STLB MSHR merge:          0
STLB TOTAL     ACCESS:    9283842  HIT:    4456500  MISS:    4827342  HIT %:    48.0028  MISS %:    51.9972   MPKI: 24.1367
STLB LOAD TRANSLATION NON_SPEC    ACCESS:    5633386  HIT:     822744  MISS:    4810642  HIT %:    14.6048  MISS %:    85.3952   MPKI: 24.0532
STLB TRANSLATION FROM L1D PREFETCHER NON_SPEC    ACCESS:    3650456  HIT:    3633756  MISS:      16700  HIT %:    99.5425  MISS %:   0.457477   MPKI: 0.0835
STLB PREFETCH  REQUESTED:          0  ISSUED:          0  USEFUL:      15168  USELESS:       1565
STLB USEFUL LOAD PREFETCHES:      15168 PREFETCH ISSUED TO LOWER LEVEL:          0  ACCURACY: inf
STLB TIMELY PREFETCHES:      15168 LATE PREFETCHES: 77556 DROPPED PREFETCHES: 3586146
STLB COMMIT LATE PREFETCHES: 0 NORMAL LATE: 0 MISSED OPPORTUNITY: 0 UNCOVERED: 0
STLB PREFETCHES SAME FILL-ORIGIN LEVEL: 0 DIFFERENT FILL-ORIGIN LEVEL: 0
STLB AVERAGE MISS LATENCY: 1127.24 cycles
STLB AVERAGE MISS LATENCY LOAD: -nan cycles
STLB AVERAGE MISS LATENCY PREFETCH: -nan cycles
STLB AVERAGE MSHR OCCUPANCY: 4.75565
STLB MSHR FULL: 0
STLB RQ	ACCESS:   35630189	FORWARD:          0	MERGED:   20814808	TO_CACHE:   14815381

STLB Hit, L1D data hit: 0
STLB Hit, L2C data hit: 0
STLB Hit, LLC data hit: 0
STLB Hit, LLC data miss: 0
STLB STLB hints to L2: 0
L0D SPEC fills:   22164617  NON-SPEC fills:          0
L0D TimeGuard Request with older TS:    2841336 Restricted eviction:     589660 read:    5512895
L0D Test counter :          0
L0D Leapfrog:          0
L0D MSHR merge:    1589860
L0D TOTAL     ACCESS:   53323184  HIT:   17403258  MISS:   35919926  HIT %:    32.6373  MISS %:    67.3627   MPKI: 179.6
L0D LOAD      TOTAL       ACCESS:   53323184  HIT:   17403258  MISS:   35919926  HIT %:    32.6373  MISS %:    67.3627   MPKI: 179.6
L0D LOAD      NON_SPEC    ACCESS:   17089920  HIT:    3923416  MISS:   13166504  HIT %:    22.9575  MISS %:    77.0425   MPKI: 65.8325
L0D LOAD      SPEC        ACCESS:   36233264  HIT:   13479842  MISS:   22753422  HIT %:    37.2029  MISS %:    62.7971   MPKI: 113.767
L0D PREFETCH  REQUESTED:          0  ISSUED:          0  USEFUL:          0  USELESS:          0
L0D USEFUL LOAD PREFETCHES:          0 PREFETCH ISSUED TO LOWER LEVEL:          0  ACCURACY: -nan
L0D TIMELY PREFETCHES:          0 LATE PREFETCHES: 0 DROPPED PREFETCHES: 0
L0D COMMIT LATE PREFETCHES: 0 NORMAL LATE: 0 MISSED OPPORTUNITY: 0 UNCOVERED: 0
L0D PREFETCHES SAME FILL-ORIGIN LEVEL: 0 DIFFERENT FILL-ORIGIN LEVEL: 0
L0D AVERAGE MISS LATENCY: 15.9475 cycles
L0D AVERAGE MISS LATENCY LOAD: 15.9475 cycles
L0D AVERAGE MISS LATENCY PREFETCH: -nan cycles
L0D AVERAGE MSHR OCCUPANCY: 0.807689
L0D MSHR FULL: 0
L0D RQ	ACCESS:   68871651	FORWARD:          0	MERGED:   13958609	TO_CACHE:   54913042
L0D WQ	ACCESS:   69973102	FORWARD:          0	MERGED:          0	TO_CACHE:   69973102

L1D SPEC fills:          0  NON-SPEC fills:     165925
L1D Test counter :    4388963
L1D Leapfrog:          0
L1D MSHR merge:     201670
L1D TOTAL     ACCESS:  121176680  HIT:   98746788  MISS:   22429892  HIT %:    81.4899  MISS %:    18.5101   MPKI: 112.149
L1D LOAD      TOTAL       ACCESS:   35919686  HIT:   31304529  MISS:    4615157  HIT %:    87.1515  MISS %:    12.8485   MPKI: 23.0758
L1D LOAD      NON_SPEC    ACCESS:   13166418  HIT:   13000493  MISS:     165925  HIT %:    98.7398  MISS %:    1.26021   MPKI: 0.829625
L1D LOAD      SPEC        ACCESS:   22753268  HIT:   18304036  MISS:    4449232  HIT %:    80.4457  MISS %:    19.5543   MPKI: 22.2462
L1D RFO       NON_SPEC    ACCESS:   29084210  HIT:   20337567  MISS:    8746643  HIT %:    69.9265  MISS %:    30.0735   MPKI: 43.7332
L1D PREFETCH  NON_SPEC    ACCESS:   20324430  HIT:   15520235  MISS:    4804195  HIT %:    76.3625  MISS %:    23.6375   MPKI: 24.021
L1D COMMIT LOAD NON_SPEC    ACCESS:   16246155  HIT:   16008517  MISS:     237638  HIT %:    98.5373  MISS %:    1.46273   MPKI: 1.18819
L1D COMMIT WRITE NON_SPEC    ACCESS:   19602199  HIT:   15575940  MISS:    4026259  HIT %:    79.4602  MISS %:    20.5398   MPKI: 20.1313
L1D PREFETCH  REQUESTED:   72529480  ISSUED:   35840435  USEFUL:    4775911  USELESS:      28285
L1D USEFUL LOAD PREFETCHES:    4775911 PREFETCH ISSUED TO LOWER LEVEL:    7114307  ACCURACY: 67.1311
L1D TIMELY PREFETCHES:    4775911 LATE PREFETCHES: 201562 DROPPED PREFETCHES: 6811443
L1D COMMIT LATE PREFETCHES: 237195 NORMAL LATE: 206243 MISSED OPPORTUNITY: 17730 UNCOVERED: 4154179
L1D PREFETCHES SAME FILL-ORIGIN LEVEL: 5005757 DIFFERENT FILL-ORIGIN LEVEL: 2108550
L1D AVERAGE MISS LATENCY: 177.529 cycles
L1D AVERAGE MISS LATENCY LOAD: 84.9951 cycles
L1D AVERAGE MISS LATENCY PREFETCH: 236.546 cycles
L1D AVERAGE MSHR OCCUPANCY: 3.27805
L1D MSHR FULL: 0.000682479
L1D RQ	ACCESS:   68057618	FORWARD:          0	MERGED:   15772941	TO_CACHE:   52166173
L1D WQ	ACCESS:   89576235	FORWARD:     118504	MERGED:   10043120	TO_CACHE:   79533115
L1D PQ	ACCESS:   35840435	FORWARD:          0	MERGED:    5843635	TO_CACHE:   29996800

L1D UNIQUE REGIONS ACCESSED: 0
L1D REGIONS CONFLICTS: 0
L1D Cross Page Prefetch Requests: 11613631
L1D Same Page Prefetch Requests: 65018577
L1D ROI Sum of L1D PQ occupancy: 14665905886
L1D PREFETCHES PUSHED FROM L2C: 0
L1I SPEC fills:          0  NON-SPEC fills:          0
L1I Test counter :          0
L1I Leapfrog:          0
L1I MSHR merge:          0
L1I TOTAL     ACCESS:   33560283  HIT:   33560283  MISS:          0  HIT %:        100  MISS %:          0   MPKI: 0
L1I LOAD      TOTAL       ACCESS:   33560283  HIT:   33560283  MISS:          0  HIT %:        100  MISS %:          0   MPKI: 0
L1I LOAD      NON_SPEC    ACCESS:   33560283  HIT:   33560283  MISS:          0  HIT %:        100  MISS %:          0   MPKI: 0
L1I PREFETCH  REQUESTED:          0  ISSUED:          0  USEFUL:          0  USELESS:          0
L1I USEFUL LOAD PREFETCHES:          0 PREFETCH ISSUED TO LOWER LEVEL:          0  ACCURACY: -nan
L1I TIMELY PREFETCHES:          0 LATE PREFETCHES: 0 DROPPED PREFETCHES: 0
L1I COMMIT LATE PREFETCHES: 0 NORMAL LATE: 0 MISSED OPPORTUNITY: 0 UNCOVERED: 0
L1I PREFETCHES SAME FILL-ORIGIN LEVEL: 0 DIFFERENT FILL-ORIGIN LEVEL: 0
L1I AVERAGE MISS LATENCY: -nan cycles
L1I AVERAGE MISS LATENCY LOAD: -nan cycles
L1I AVERAGE MISS LATENCY PREFETCH: -nan cycles
L1I AVERAGE MSHR OCCUPANCY: 0
L1I MSHR FULL: 0
L1I RQ	ACCESS:   57152783	FORWARD:          0	MERGED:   23592501	TO_CACHE:   33560282

BTB SPEC fills:          0  NON-SPEC fills:          0
BTB Test counter :          0
BTB Leapfrog:          0
BTB MSHR merge:          0
BTB TOTAL     ACCESS:   20480052  HIT:   20480047  MISS:          5  HIT %:        100  MISS %: 2.4414e-05   MPKI: 2.5e-05
BTB BRANCH_DIRECT_JUMP	ACCESS:    2986818  HIT:    2986817  MISS:          1
BTB BRANCH_INDIRECT	ACCESS:          0  HIT:          0  MISS:          0
BTB BRANCH_CONDITIONAL	ACCESS:    8746602  HIT:    8746600  MISS:          2
BTB BRANCH_DIRECT_CALL	ACCESS:    4373316  HIT:    4373315  MISS:          1
BTB BRANCH_INDIRECT_CALL	ACCESS:          0  HIT:          0  MISS:          0
BTB BRANCH_RETURN	ACCESS:    4373316  HIT:    4373315  MISS:          1
BTB BRANCH_OTHER ACCESS:          0  HIT:          0  MISS:          0

L2C SPEC fills:          0  NON-SPEC fills:     115646
L2C Test counter :          0
L2C Leapfrog:          0
L2C MSHR merge:      12143
L2C TOTAL     ACCESS:   80517291  HIT:   55938531  MISS:   24578760  HIT %:    69.4739  MISS %:    30.5261   MPKI: 122.894
L2C LOAD      TOTAL       ACCESS:    4413682  HIT:    1317375  MISS:    3096307  HIT %:    29.8475  MISS %:    70.1525   MPKI: 15.4815
L2C LOAD      NON_SPEC    ACCESS:     165478  HIT:      49832  MISS:     115646  HIT %:     30.114  MISS %:     69.886   MPKI: 0.57823
L2C LOAD      SPEC        ACCESS:    4248204  HIT:    1267543  MISS:    2980661  HIT %:    29.8372  MISS %:    70.1628   MPKI: 14.9033
L2C RFO       NON_SPEC    ACCESS:    8746643  HIT:       1288  MISS:    8745355  HIT %:  0.0147256  MISS %:    99.9853   MPKI: 43.7268
L2C PREFETCH  NON_SPEC    ACCESS:    7046197  HIT:    1460931  MISS:    5585266  HIT %:    20.7336  MISS %:    79.2664   MPKI: 27.9263
L2C WRITEBACK NON_SPEC    ACCESS:    8984411  HIT:    8984205  MISS:        206  HIT %:    99.9977  MISS %: 0.00229286   MPKI: 0.00103
L2C CLEAN_EVICTION NON_SPEC    ACCESS:    8738208  HIT:    5887686  MISS:    2850522  HIT %:    67.3786  MISS %:    32.6214   MPKI: 14.2526
L2C COMMIT LOAD NON_SPEC    ACCESS:     237496  HIT:      82728  MISS:     154768  HIT %:    34.8334  MISS %:    65.1666   MPKI: 0.77384
L2C LOAD TRANSLATION NON_SPEC    ACCESS:   24003321  HIT:   19869956  MISS:    4133365  HIT %:      82.78  MISS %:      17.22   MPKI: 20.6668
L2C TRANSLATION FROM L1D PREFETCHER NON_SPEC    ACCESS:   18347333  HIT:   18334362  MISS:      12971  HIT %:    99.9293  MISS %:  0.0706969   MPKI: 0.064855
L2C PREFETCH  REQUESTED:          0  ISSUED:          0  USEFUL:     204193  USELESS:    5395581
L2C USEFUL LOAD PREFETCHES:     204193 PREFETCH ISSUED TO LOWER LEVEL:    5597536  ACCURACY: 3.64791
L2C TIMELY PREFETCHES:     204193 LATE PREFETCHES: 12270 DROPPED PREFETCHES: 0
L2C COMMIT LATE PREFETCHES: 0 NORMAL LATE: 13186 MISSED OPPORTUNITY: 0 UNCOVERED: 3083248
L2C PREFETCHES SAME FILL-ORIGIN LEVEL: 1598982 DIFFERENT FILL-ORIGIN LEVEL: 0
L2C AVERAGE MISS LATENCY: 208.249 cycles
L2C AVERAGE MISS LATENCY LOAD: 97.471 cycles
L2C AVERAGE MISS LATENCY PREFETCH: 272.886 cycles
L2C AVERAGE MSHR OCCUPANCY: 2.85792
L2C MSHR FULL: 0
L2C RQ	ACCESS:   55748532	FORWARD:          0	MERGED:          0	TO_CACHE:   55748477
L2C WQ	ACCESS:   17722637	FORWARD:         56	MERGED:         18	TO_CACHE:   17722619
L2C PQ	ACCESS:    7114307	FORWARD:          0	MERGED:          0	TO_CACHE:    7114306

L2C Instructions Evicting Data 0
L2C Translations Evicting Data 3348494
L2C Data Evicting Data 11797813
L2C Instructions Evicting Instructions 0
L2C Translations Evicting Instructions 0
L2C Data Evicting Instructions 0
L2C Instructions Evicting Translations 0
L2C Translations Evicting Translations 797842
L2C Data Evicting Translations 2803222
L2C Dense regions hint from L2: 0
PSCL5 SPEC fills:          0  NON-SPEC fills:          0
PSCL5 Test counter :          0
PSCL5 Leapfrog:          0
PSCL5 MSHR merge:          0
PSCL5 TOTAL     ACCESS:          0  HIT:          0  MISS:          0  HIT %:       -nan  MISS %:       -nan   MPKI: 0
PSCL5 PREFETCH  REQUESTED:          0  ISSUED:          0  USEFUL:          0  USELESS:          0
PSCL5 USEFUL LOAD PREFETCHES:          0 PREFETCH ISSUED TO LOWER LEVEL:          0  ACCURACY: -nan
PSCL5 TIMELY PREFETCHES:          0 LATE PREFETCHES: 0 DROPPED PREFETCHES: 0
PSCL5 COMMIT LATE PREFETCHES: 0 NORMAL LATE: 0 MISSED OPPORTUNITY: 0 UNCOVERED: 0
PSCL5 PREFETCHES SAME FILL-ORIGIN LEVEL: 0 DIFFERENT FILL-ORIGIN LEVEL: 0

PSCL4 SPEC fills:          0  NON-SPEC fills:          0
PSCL4 Test counter :          0
PSCL4 Leapfrog:          0
PSCL4 MSHR merge:          0
PSCL4 TOTAL     ACCESS:          0  HIT:          0  MISS:          0  HIT %:       -nan  MISS %:       -nan   MPKI: 0
PSCL4 PREFETCH  REQUESTED:          0  ISSUED:          0  USEFUL:          0  USELESS:          0
PSCL4 USEFUL LOAD PREFETCHES:          0 PREFETCH ISSUED TO LOWER LEVEL:          0  ACCURACY: -nan
PSCL4 TIMELY PREFETCHES:          0 LATE PREFETCHES: 0 DROPPED PREFETCHES: 0
PSCL4 COMMIT LATE PREFETCHES: 0 NORMAL LATE: 0 MISSED OPPORTUNITY: 0 UNCOVERED: 0
PSCL4 PREFETCHES SAME FILL-ORIGIN LEVEL: 0 DIFFERENT FILL-ORIGIN LEVEL: 0

PSCL3 SPEC fills:          0  NON-SPEC fills:          0
PSCL3 Test counter :          0
PSCL3 Leapfrog:          0
PSCL3 MSHR merge:          0
PSCL3 TOTAL     ACCESS:          0  HIT:          0  MISS:          0  HIT %:       -nan  MISS %:       -nan   MPKI: 0
PSCL3 PREFETCH  REQUESTED:          0  ISSUED:          0  USEFUL:          0  USELESS:          0
PSCL3 USEFUL LOAD PREFETCHES:          0 PREFETCH ISSUED TO LOWER LEVEL:          0  ACCURACY: -nan
PSCL3 TIMELY PREFETCHES:          0 LATE PREFETCHES: 0 DROPPED PREFETCHES: 0
PSCL3 COMMIT LATE PREFETCHES: 0 NORMAL LATE: 0 MISSED OPPORTUNITY: 0 UNCOVERED: 0
PSCL3 PREFETCHES SAME FILL-ORIGIN LEVEL: 0 DIFFERENT FILL-ORIGIN LEVEL: 0

PSCL2 SPEC fills:          0  NON-SPEC fills:          0
PSCL2 Test counter :          0
PSCL2 Leapfrog:          0
PSCL2 MSHR merge:          0
PSCL2 TOTAL     ACCESS:          0  HIT:          0  MISS:          0  HIT %:       -nan  MISS %:       -nan   MPKI: 0
PSCL2 PREFETCH  REQUESTED:          0  ISSUED:          0  USEFUL:          0  USELESS:          0
PSCL2 USEFUL LOAD PREFETCHES:          0 PREFETCH ISSUED TO LOWER LEVEL:          0  ACCURACY: -nan
PSCL2 TIMELY PREFETCHES:          0 LATE PREFETCHES: 0 DROPPED PREFETCHES: 0
PSCL2 COMMIT LATE PREFETCHES: 0 NORMAL LATE: 0 MISSED OPPORTUNITY: 0 UNCOVERED: 0
PSCL2 PREFETCHES SAME FILL-ORIGIN LEVEL: 0 DIFFERENT FILL-ORIGIN LEVEL: 0

LLC SPEC fills:          0  NON-SPEC fills:      33433
LLC Test counter :          0
LLC Leapfrog:          0
LLC MSHR merge:          0
LLC TOTAL     ACCESS:   38523211  HIT:   19133592  MISS:   19389619  HIT %:    49.6677  MISS %:    50.3323   MPKI: 96.9481
LLC LOAD      TOTAL       ACCESS:    3084138  HIT:    2140656  MISS:     943482  HIT %:    69.4086  MISS %:    30.5914   MPKI: 4.71741
LLC LOAD      NON_SPEC    ACCESS:     115305  HIT:      81872  MISS:      33433  HIT %:    71.0047  MISS %:    28.9953   MPKI: 0.167165
LLC LOAD      SPEC        ACCESS:    2968833  HIT:    2058784  MISS:     910049  HIT %:    69.3466  MISS %:    30.6534   MPKI: 4.55025
LLC RFO       NON_SPEC    ACCESS:    8745303  HIT:      43874  MISS:    8701429  HIT %:   0.501686  MISS %:    99.4983   MPKI: 43.5071
LLC PREFETCH  NON_SPEC    ACCESS:    5597534  HIT:     271477  MISS:    5326057  HIT %:    4.84994  MISS %:    95.1501   MPKI: 26.6303
LLC WRITEBACK NON_SPEC    ACCESS:    8937706  HIT:    8937242  MISS:        464  HIT %:    99.9948  MISS %: 0.00519149   MPKI: 0.00232
LLC CLEAN_EVICTION NON_SPEC    ACCESS:    7857507  HIT:    6705201  MISS:    1152306  HIT %:     85.335  MISS %:     14.665   MPKI: 5.76153
LLC COMMIT LOAD NON_SPEC    ACCESS:     154687  HIT:     119999  MISS:      34688  HIT %:    77.5754  MISS %:    22.4246   MPKI: 0.17344
LLC LOAD TRANSLATION NON_SPEC    ACCESS:    4133365  HIT:     912905  MISS:    3220460  HIT %:    22.0862  MISS %:    77.9138   MPKI: 16.1023
LLC TRANSLATION FROM L1D PREFETCHER NON_SPEC    ACCESS:      12971  HIT:       2238  MISS:      10733  HIT %:    17.2539  MISS %:    82.7461   MPKI: 0.053665
LLC PREFETCH  REQUESTED:          0  ISSUED:          0  USEFUL:      44423  USELESS:    5299806
LLC USEFUL LOAD PREFETCHES:      44423 PREFETCH ISSUED TO LOWER LEVEL:    5326057  ACCURACY: 0.834069
LLC TIMELY PREFETCHES:      44423 LATE PREFETCHES: 0 DROPPED PREFETCHES: 0
LLC COMMIT LATE PREFETCHES: 0 NORMAL LATE: 0 MISSED OPPORTUNITY: 0 UNCOVERED: 0
LLC PREFETCHES SAME FILL-ORIGIN LEVEL: 0 DIFFERENT FILL-ORIGIN LEVEL: 0
LLC AVERAGE MISS LATENCY: 231.733 cycles
LLC AVERAGE MISS LATENCY LOAD: 247.897 cycles
LLC AVERAGE MISS LATENCY PREFETCH: 255.225 cycles
LLC AVERAGE MSHR OCCUPANCY: 2.5095
LLC MSHR FULL: 0
LLC RQ	ACCESS:   16130496	FORWARD:          0	MERGED:          0	TO_CACHE:   16130464
LLC WQ	ACCESS:   16795213	FORWARD:         34	MERGED:          0	TO_CACHE:   16795213
LLC PQ	ACCESS:    5597536	FORWARD:          0	MERGED:          0	TO_CACHE:    5597534

LLC Dense regions hint to LLC: 0

RAW hits: 14221436
Loads Generated: 83093086
Loads sent to L1D: 68871651
Stores Generated: 69973136
Stores sent to L1D: 69973102
Major fault: 0 Minor fault: 318411
Allocated PAGES: 318411
Total Load insts: 88135795
Total Non-spec loads: 26800529
Percentage of speculative loads: 69.5918

LeapFrogging counter: 6732
Commit hits: 19603159 miss: 32137693
Commit hit %: 37.8872 miss %: 62.1128
Commits not translated: 0
Loads retired: 4615155
Stores retired: 69973102
Cache fills: 4615157
L1D response latency: 84.9951 cycles
Load retirement latency: 714.476 cycles
OOO test counter: 0
Discarded buffer inserts: 19603159 hits: 956 hit %: 0.00487677
Filter prediction accuracy: -nan
LATENCY_FILL: 835.31 12784132
test counter pref: 145265399

DRAM Statistics
 CHANNEL 0
 RQ ROW_BUFFER_HIT:     610060  ROW_BUFFER_MISS:   17624419
 DBUS_CONGESTED:        142
 WQ ROW_BUFFER_HIT:    5097059  ROW_BUFFER_MISS:    9767975  FULL:        115

 AVG_CONGESTED_CYCLE: 5
 All warmup complete: 2
Channel 0 Bank busy for read cycles: 0
Channel 0 Bank busy for write cycles: 0
Channel 0
Rank 0
0banks busy for read cycles: 3482053
0banks busy for write cycles: 6
1banks busy for read cycles: 230889450
1banks busy for write cycles: 3370789
2banks busy for read cycles: 277594584
2banks busy for write cycles: 3379637
3banks busy for read cycles: 249482296
3banks busy for write cycles: 3440178
4banks busy for read cycles: 125636886
4banks busy for write cycles: 5587683
5banks busy for read cycles: 68628429
5banks busy for write cycles: 11216781
6banks busy for read cycles: 31247014
6banks busy for write cycles: 26844910
7banks busy for read cycles: 13050614
7banks busy for write cycles: 99677310
8banks busy for read cycles: 8702665
8banks busy for write cycles: 320907416

CPU 0 Branch Prediction Accuracy: 95.2594% MPKI: 5.89096 Average ROB Occupancy at Mispredict: 150.029
Branch types
NOT_BRANCH: 175146465 87.5732%
BRANCH_DIRECT_JUMP: 2986818 1.49341%
BRANCH_INDIRECT: 0 0%
BRANCH_CONDITIONAL: 13119949 6.55997%
BRANCH_DIRECT_CALL: 4373316 2.18666%
BRANCH_INDIRECT_CALL: 0 0%
BRANCH_RETURN: 4373316 2.18666%
BRANCH_OTHER: 0 0%

DRAM PAGES: 1048576
Allocated PAGES: 318411
