
*** ChampSim Multicore Out-of-Order Simulator ***

Warmup Instructions: 50000000
Simulation Instructions: 200000000
Number of CPUs: 1
LLC sets: 2048
LLC ways: 16
L0D sets: 16
L0D ways: 2
ROB size: 352
LQ size: 128
SQ size: 72
Secure Berti: OFF
Berti: OFF
Berti Fill: OFF
On commit prefetching: ON
Hit-based filter: OFF
Time-guarding: ON
Free-slotting: ON
Leap-frogging: ON
Train prefetcher on L0D bypass: OFF
No translation penalty for prefetchers: OFF
Prefetch to L0D only: OFF
Prefetch to L1D only: OFF
Clean evictions: ON
Commit loads: ON
Commit write: ON
Fill commit loads to L2C, LLC: ON
DRAM IO FREQUENCY: 6400
ROB SIZE: 352
Off-chip DRAM Size: 4096 MB Channels: 1 Width: 64-bit Data Rate: 6400 MT/s
CPU 0 runs /home/sumon/secure_berti/GhostMinion/../../traces/spec/621.wrf_s-8065B.champsimtrace.xz
.xz
BTB has LRU replacement policy
ITLB has LRU replacement policy
DTLB has LRU replacement policy
STLB has LRU replacement policy
L1I has LRU replacement policy
L0D has LRU replacement policy
History Sets: 8
History Ways: 16
BERTI Size: 16
BERTI Stride Size: 16
History Sets: 8
History Ways: 16
BERTI Size: 16
BERTI Stride Size: 16
L1D has LRU replacement policy
L2C has LRU replacement policy
LLC has LRU replacement policy
Heartbeat CPU 0 instructions: 10000000 cycles: 3224106 heartbeat IPC: 3.10163 cumulative IPC: 3.10163 (Simulation time: 0 hr 0 min 45 sec) 
Heartbeat CPU 0 instructions: 20000000 cycles: 6385932 heartbeat IPC: 3.16273 cumulative IPC: 3.13188 (Simulation time: 0 hr 1 min 25 sec) 
Heartbeat CPU 0 instructions: 30000000 cycles: 9537265 heartbeat IPC: 3.17326 cumulative IPC: 3.14556 (Simulation time: 0 hr 2 min 8 sec) 
Heartbeat CPU 0 instructions: 40000003 cycles: 12750966 heartbeat IPC: 3.11168 cumulative IPC: 3.13702 (Simulation time: 0 hr 2 min 51 sec) 
Heartbeat CPU 0 instructions: 50000000 cycles: 15926228 heartbeat IPC: 3.14935 cumulative IPC: 3.13948 (Simulation time: 0 hr 3 min 33 sec) 

Warmup complete CPU 0 instructions: 50000004 cycles: 15926229 (Simulation time: 0 hr 3 min 33 sec) 

Heartbeat CPU 0 instructions: 60000003 cycles: 24728566 heartbeat IPC: 1.13606 cumulative IPC: 1.13606 (Simulation time: 0 hr 4 min 21 sec) 
Heartbeat CPU 0 instructions: 70000001 cycles: 35698651 heartbeat IPC: 0.91157 cumulative IPC: 1.01151 (Simulation time: 0 hr 5 min 9 sec) 
Heartbeat CPU 0 instructions: 80000001 cycles: 44834075 heartbeat IPC: 1.09464 cumulative IPC: 1.03778 (Simulation time: 0 hr 5 min 57 sec) 
Heartbeat CPU 0 instructions: 90000000 cycles: 55612363 heartbeat IPC: 0.927791 cumulative IPC: 1.00791 (Simulation time: 0 hr 6 min 43 sec) 
Heartbeat CPU 0 instructions: 100000000 cycles: 64872777 heartbeat IPC: 1.07987 cumulative IPC: 1.02152 (Simulation time: 0 hr 7 min 32 sec) 
Heartbeat CPU 0 instructions: 110000000 cycles: 75458516 heartbeat IPC: 0.944667 cumulative IPC: 1.00786 (Simulation time: 0 hr 8 min 17 sec) 
Heartbeat CPU 0 instructions: 120000000 cycles: 88658658 heartbeat IPC: 0.757568 cumulative IPC: 0.962432 (Simulation time: 0 hr 9 min 7 sec) 
Heartbeat CPU 0 instructions: 130000002 cycles: 100690768 heartbeat IPC: 0.83111 cumulative IPC: 0.943791 (Simulation time: 0 hr 9 min 52 sec) 
Heartbeat CPU 0 instructions: 140000001 cycles: 112738175 heartbeat IPC: 0.830054 cumulative IPC: 0.929637 (Simulation time: 0 hr 10 min 37 sec) 
Heartbeat CPU 0 instructions: 150000002 cycles: 127338631 heartbeat IPC: 0.68491 cumulative IPC: 0.897566 (Simulation time: 0 hr 11 min 26 sec) 
Heartbeat CPU 0 instructions: 160000001 cycles: 142665819 heartbeat IPC: 0.652435 cumulative IPC: 0.867921 (Simulation time: 0 hr 12 min 18 sec) 
Heartbeat CPU 0 instructions: 170000003 cycles: 158606772 heartbeat IPC: 0.627315 cumulative IPC: 0.84104 (Simulation time: 0 hr 13 min 16 sec) 
Heartbeat CPU 0 instructions: 180000000 cycles: 167142787 heartbeat IPC: 1.17151 cumulative IPC: 0.859694 (Simulation time: 0 hr 14 min 1 sec) 
Heartbeat CPU 0 instructions: 190000001 cycles: 175274884 heartbeat IPC: 1.2297 cumulative IPC: 0.878577 (Simulation time: 0 hr 14 min 51 sec) 
Heartbeat CPU 0 instructions: 200000003 cycles: 184282380 heartbeat IPC: 1.11019 cumulative IPC: 0.890968 (Simulation time: 0 hr 15 min 39 sec) 
Heartbeat CPU 0 instructions: 210000000 cycles: 193101157 heartbeat IPC: 1.13394 cumulative IPC: 0.903062 (Simulation time: 0 hr 16 min 21 sec) 
Heartbeat CPU 0 instructions: 220000000 cycles: 201153147 heartbeat IPC: 1.24193 cumulative IPC: 0.917793 (Simulation time: 0 hr 17 min 7 sec) 
Heartbeat CPU 0 instructions: 230000000 cycles: 212602665 heartbeat IPC: 0.873399 cumulative IPC: 0.915209 (Simulation time: 0 hr 17 min 58 sec) 
Heartbeat CPU 0 instructions: 240000001 cycles: 226302133 heartbeat IPC: 0.729955 cumulative IPC: 0.903145 (Simulation time: 0 hr 18 min 56 sec) 
Heartbeat CPU 0 instructions: 250000000 cycles: 239187510 heartbeat IPC: 0.776073 cumulative IPC: 0.895811 (Simulation time: 0 hr 19 min 59 sec) 
Finished CPU 0 instructions: 200000001 cycles: 223261285 cumulative IPC: 0.895811 (Simulation time: 0 hr 19 min 59 sec) 
 Instruction ID: 250000036

ChampSim completed all CPUs

Region of Interest Statistics

CPU 0 cumulative IPC: 0.895811 instructions: 200000001 cycles: 223261285
ITLB SPEC fills:          0  NON-SPEC fills:          0
ITLB Test counter :          0
ITLB Leapfrog:          0
ITLB MSHR merge:          0
ITLB TOTAL     ACCESS:   28022847  HIT:   28022712  MISS:        135  HIT %:    99.9995  MISS %: 0.00048175   MPKI: 0.000675
ITLB LOAD TRANSLATION NON_SPEC    ACCESS:   28022847  HIT:   28022712  MISS:        135  HIT %:    99.9995  MISS %: 0.00048175   MPKI: 0.000675
ITLB PREFETCH  REQUESTED:          0  ISSUED:          0  USEFUL:          0  USELESS:          0
ITLB USEFUL LOAD PREFETCHES:          0 PREFETCH ISSUED TO LOWER LEVEL:          0  ACCURACY: -nan
ITLB TIMELY PREFETCHES:          0 LATE PREFETCHES: 0 DROPPED PREFETCHES: 0
ITLB COMMIT LATE PREFETCHES: 0 NORMAL LATE: 0 MISSED OPPORTUNITY: 0 UNCOVERED: 0
ITLB PREFETCHES SAME FILL-ORIGIN LEVEL: 0 DIFFERENT FILL-ORIGIN LEVEL: 0
ITLB AVERAGE MISS LATENCY: 355.681 cycles
ITLB AVERAGE MISS LATENCY LOAD: -nan cycles
ITLB AVERAGE MISS LATENCY PREFETCH: -nan cycles
ITLB AVERAGE MSHR OCCUPANCY: 1.81994e-06
ITLB MSHR FULL: 0
ITLB RQ	ACCESS:   34205503	FORWARD:          0	MERGED:    6182607	TO_CACHE:   28022896

DTLB SPEC fills:          0  NON-SPEC fills:          0
DTLB Test counter :          0
DTLB Leapfrog:          0
DTLB MSHR merge:          0
DTLB TOTAL     ACCESS:   49980426  HIT:   49908911  MISS:      71515  HIT %:    99.8569  MISS %:   0.143086   MPKI: 0.357575
DTLB LOAD TRANSLATION NON_SPEC    ACCESS:   49980426  HIT:   49908911  MISS:      71515  HIT %:    99.8569  MISS %:   0.143086   MPKI: 0.357575
DTLB PREFETCH  REQUESTED:          0  ISSUED:          0  USEFUL:          0  USELESS:          0
DTLB USEFUL LOAD PREFETCHES:          0 PREFETCH ISSUED TO LOWER LEVEL:          0  ACCURACY: -nan
DTLB TIMELY PREFETCHES:          0 LATE PREFETCHES: 0 DROPPED PREFETCHES: 0
DTLB COMMIT LATE PREFETCHES: 0 NORMAL LATE: 0 MISSED OPPORTUNITY: 0 UNCOVERED: 0
DTLB PREFETCHES SAME FILL-ORIGIN LEVEL: 0 DIFFERENT FILL-ORIGIN LEVEL: 0
DTLB AVERAGE MISS LATENCY: 30.4082 cycles
DTLB AVERAGE MISS LATENCY LOAD: -nan cycles
DTLB AVERAGE MISS LATENCY PREFETCH: -nan cycles
DTLB AVERAGE MSHR OCCUPANCY: 0.00609397
DTLB MSHR FULL: 7.11234e-05
DTLB RQ	ACCESS:   57086520	FORWARD:          0	MERGED:    7064274	TO_CACHE:   50022246

STLB SPEC fills:          0  NON-SPEC fills:          0
STLB Test counter :          0
STLB Leapfrog:          0
STLB MSHR merge:          0
STLB TOTAL     ACCESS:   13526557  HIT:   13510894  MISS:      15663  HIT %:    99.8842  MISS %:   0.115794   MPKI: 0.078315
STLB LOAD TRANSLATION NON_SPEC    ACCESS:      71650  HIT:      63889  MISS:       7761  HIT %:    89.1682  MISS %:    10.8318   MPKI: 0.038805
STLB TRANSLATION FROM L1D PREFETCHER NON_SPEC    ACCESS:   13454907  HIT:   13447005  MISS:       7902  HIT %:    99.9413  MISS %:  0.0587295   MPKI: 0.03951
STLB PREFETCH  REQUESTED:          0  ISSUED:          0  USEFUL:       7889  USELESS:         11
STLB USEFUL LOAD PREFETCHES:       7889 PREFETCH ISSUED TO LOWER LEVEL:          0  ACCURACY: inf
STLB TIMELY PREFETCHES:       7889 LATE PREFETCHES: 2223 DROPPED PREFETCHES: 37442
STLB COMMIT LATE PREFETCHES: 0 NORMAL LATE: 0 MISSED OPPORTUNITY: 0 UNCOVERED: 0
STLB PREFETCHES SAME FILL-ORIGIN LEVEL: 0 DIFFERENT FILL-ORIGIN LEVEL: 0
STLB AVERAGE MISS LATENCY: 154.55 cycles
STLB AVERAGE MISS LATENCY LOAD: -nan cycles
STLB AVERAGE MISS LATENCY PREFETCH: -nan cycles
STLB AVERAGE MSHR OCCUPANCY: 0.0171045
STLB MSHR FULL: 0
STLB RQ	ACCESS:   63559531	FORWARD:          0	MERGED:   49988563	TO_CACHE:   13570968

STLB Hit, L1D data hit: 0
STLB Hit, L2C data hit: 0
STLB Hit, LLC data hit: 0
STLB Hit, LLC data miss: 0
STLB STLB hints to L2: 0
L0D SPEC fills:   32922935  NON-SPEC fills:          0
L0D TimeGuard Request with older TS:     566777 Restricted eviction:     559995 read:    1385572
L0D Test counter :          0
L0D Leapfrog:          0
L0D MSHR merge:    2024411
L0D TOTAL     ACCESS:   46564632  HIT:    6864253  MISS:   39700379  HIT %:    14.7413  MISS %:    85.2587   MPKI: 198.502
L0D LOAD      TOTAL       ACCESS:   46564632  HIT:    6864253  MISS:   39700379  HIT %:    14.7413  MISS %:    85.2587   MPKI: 198.502
L0D LOAD      NON_SPEC    ACCESS:    7487092  HIT:    1269340  MISS:    6217752  HIT %:    16.9537  MISS %:    83.0463   MPKI: 31.0888
L0D LOAD      SPEC        ACCESS:   39077540  HIT:    5594913  MISS:   33482627  HIT %:    14.3175  MISS %:    85.6825   MPKI: 167.413
L0D PREFETCH  REQUESTED:          0  ISSUED:          0  USEFUL:          0  USELESS:          0
L0D USEFUL LOAD PREFETCHES:          0 PREFETCH ISSUED TO LOWER LEVEL:          0  ACCURACY: -nan
L0D TIMELY PREFETCHES:          0 LATE PREFETCHES: 0 DROPPED PREFETCHES: 0
L0D COMMIT LATE PREFETCHES: 0 NORMAL LATE: 0 MISSED OPPORTUNITY: 0 UNCOVERED: 0
L0D PREFETCHES SAME FILL-ORIGIN LEVEL: 0 DIFFERENT FILL-ORIGIN LEVEL: 0
L0D AVERAGE MISS LATENCY: 7.27314 cycles
L0D AVERAGE MISS LATENCY LOAD: 7.27314 cycles
L0D AVERAGE MISS LATENCY PREFETCH: -nan cycles
L0D AVERAGE MSHR OCCUPANCY: 1.86385
L0D MSHR FULL: 0.0567285
L0D RQ	ACCESS:   60847771	FORWARD:          0	MERGED:   12258730	TO_CACHE:   48589041
L0D WQ	ACCESS:    8497479	FORWARD:          0	MERGED:          0	TO_CACHE:    8497479

L1D SPEC fills:          0  NON-SPEC fills:      41286
L1D Test counter :     576378
L1D Leapfrog:          0
L1D MSHR merge:      58453
L1D TOTAL     ACCESS:  148144216  HIT:  144867599  MISS:    3276617  HIT %:    97.7882  MISS %:    2.21178   MPKI: 16.3831
L1D LOAD      TOTAL       ACCESS:   39696930  HIT:   39070916  MISS:     626014  HIT %:     98.423  MISS %:    1.57698   MPKI: 3.13007
L1D LOAD      NON_SPEC    ACCESS:    6217559  HIT:    6176273  MISS:      41286  HIT %:     99.336  MISS %:   0.664023   MPKI: 0.20643
L1D LOAD      SPEC        ACCESS:   33479371  HIT:   32894643  MISS:     584728  HIT %:    98.2535  MISS %:    1.74653   MPKI: 2.92364
L1D RFO       NON_SPEC    ACCESS:    7085970  HIT:    6874672  MISS:     211298  HIT %:    97.0181  MISS %:    2.98192   MPKI: 1.05649
L1D PREFETCH  NON_SPEC    ACCESS:   55333297  HIT:   53438050  MISS:    1895247  HIT %:    96.5749  MISS %:    3.42515   MPKI: 9.47623
L1D COMMIT LOAD NON_SPEC    ACCESS:   13647473  HIT:   13615466  MISS:      32007  HIT %:    99.7655  MISS %:   0.234527   MPKI: 0.160035
L1D COMMIT WRITE NON_SPEC    ACCESS:   32380546  HIT:   31868495  MISS:     512051  HIT %:    98.4186  MISS %:    1.58135   MPKI: 2.56025
L1D PREFETCH  REQUESTED:  157100551  ISSUED:   71173852  USEFUL:    1670160  USELESS:     225135
L1D USEFUL LOAD PREFETCHES:    1670160 PREFETCH ISSUED TO LOWER LEVEL:    8330183  ACCURACY: 20.0495
L1D TIMELY PREFETCHES:    1670160 LATE PREFETCHES: 60423 DROPPED PREFETCHES: 79535
L1D COMMIT LATE PREFETCHES: 118838 NORMAL LATE: 92154 MISSED OPPORTUNITY: 43288 UNCOVERED: 378878
L1D PREFETCHES SAME FILL-ORIGIN LEVEL: 1983275 DIFFERENT FILL-ORIGIN LEVEL: 6346908
L1D AVERAGE MISS LATENCY: 102.611 cycles
L1D AVERAGE MISS LATENCY LOAD: 125.538 cycles
L1D AVERAGE MISS LATENCY PREFETCH: 105.544 cycles
L1D AVERAGE MSHR OCCUPANCY: 1.28674
L1D MSHR FULL: 0.00774967
L1D RQ	ACCESS:   60190342	FORWARD:          0	MERGED:    6689039	TO_CACHE:   53351401
L1D WQ	ACCESS:   40322743	FORWARD:     149902	MERGED:     298763	TO_CACHE:   40023980
L1D PQ	ACCESS:   71173852	FORWARD:          0	MERGED:    7685971	TO_CACHE:   63487881

L1D UNIQUE REGIONS ACCESSED: 0
L1D REGIONS CONFLICTS: 0
L1D Cross Page Prefetch Requests: 9635999
L1D Same Page Prefetch Requests: 81182270
L1D ROI Sum of L1D PQ occupancy: 1124374520
L1D PREFETCHES PUSHED FROM L2C: 0
L1I SPEC fills:          0  NON-SPEC fills:          0
L1I Test counter :          0
L1I Leapfrog:          0
L1I MSHR merge:       2419
L1I TOTAL     ACCESS:   34203083  HIT:   34198285  MISS:       4798  HIT %:     99.986  MISS %:   0.014028   MPKI: 0.02399
L1I LOAD      TOTAL       ACCESS:   34203083  HIT:   34198285  MISS:       4798  HIT %:     99.986  MISS %:   0.014028   MPKI: 0.02399
L1I LOAD      NON_SPEC    ACCESS:   34203083  HIT:   34198285  MISS:       4798  HIT %:     99.986  MISS %:   0.014028   MPKI: 0.02399
L1I PREFETCH  REQUESTED:          0  ISSUED:          0  USEFUL:          0  USELESS:          0
L1I USEFUL LOAD PREFETCHES:          0 PREFETCH ISSUED TO LOWER LEVEL:          0  ACCURACY: -nan
L1I TIMELY PREFETCHES:          0 LATE PREFETCHES: 0 DROPPED PREFETCHES: 0
L1I COMMIT LATE PREFETCHES: 0 NORMAL LATE: 0 MISSED OPPORTUNITY: 0 UNCOVERED: 0
L1I PREFETCHES SAME FILL-ORIGIN LEVEL: 0 DIFFERENT FILL-ORIGIN LEVEL: 0
L1I AVERAGE MISS LATENCY: 237.838 cycles
L1I AVERAGE MISS LATENCY LOAD: 237.838 cycles
L1I AVERAGE MISS LATENCY PREFETCH: -nan cycles
L1I AVERAGE MSHR OCCUPANCY: 0.00018269
L1I MSHR FULL: 0
L1I RQ	ACCESS:   51000108	FORWARD:          0	MERGED:   16794605	TO_CACHE:   34205503

BTB SPEC fills:          0  NON-SPEC fills:          0
BTB Test counter :          0
BTB Leapfrog:          0
BTB MSHR merge:          0
BTB TOTAL     ACCESS:    8324261  HIT:    8322678  MISS:       1583  HIT %:     99.981  MISS %:  0.0190167   MPKI: 0.007915
BTB BRANCH_DIRECT_JUMP	ACCESS:     290669  HIT:     290546  MISS:        123
BTB BRANCH_INDIRECT	ACCESS:         14  HIT:          6  MISS:          8
BTB BRANCH_CONDITIONAL	ACCESS:    7471641  HIT:    7470905  MISS:        736
BTB BRANCH_DIRECT_CALL	ACCESS:     280969  HIT:     280663  MISS:        306
BTB BRANCH_INDIRECT_CALL	ACCESS:          0  HIT:          0  MISS:          0
BTB BRANCH_RETURN	ACCESS:     280968  HIT:     280558  MISS:        410
BTB BRANCH_OTHER ACCESS:          0  HIT:          0  MISS:          0

L2C SPEC fills:          0  NON-SPEC fills:      11511
L2C Test counter :          0
L2C Leapfrog:          0
L2C MSHR merge:      46941
L2C TOTAL     ACCESS:   10770998  HIT:    8735352  MISS:    2035646  HIT %:    81.1007  MISS %:    18.8993   MPKI: 10.1782
L2C LOAD      TOTAL       ACCESS:     575754  HIT:     344953  MISS:     230801  HIT %:    59.9133  MISS %:    40.0867   MPKI: 1.154
L2C LOAD      NON_SPEC    ACCESS:      42215  HIT:      25906  MISS:      16309  HIT %:    61.3668  MISS %:    38.6332   MPKI: 0.081545
L2C LOAD      SPEC        ACCESS:     533539  HIT:     319047  MISS:     214492  HIT %:    59.7983  MISS %:    40.2017   MPKI: 1.07246
L2C RFO       NON_SPEC    ACCESS:     184124  HIT:      62499  MISS:     121625  HIT %:     33.944  MISS %:     66.056   MPKI: 0.608125
L2C PREFETCH  NON_SPEC    ACCESS:    7256460  HIT:    5717768  MISS:    1538692  HIT %:    78.7956  MISS %:    21.2044   MPKI: 7.69346
L2C WRITEBACK NON_SPEC    ACCESS:     359329  HIT:     357222  MISS:       2107  HIT %:    99.4136  MISS %:   0.586371   MPKI: 0.010535
L2C CLEAN_EVICTION NON_SPEC    ACCESS:    2096843  HIT:    1961509  MISS:     135334  HIT %:    93.5458  MISS %:    6.45418   MPKI: 0.67667
L2C COMMIT LOAD NON_SPEC    ACCESS:      26510  HIT:      22543  MISS:       3967  HIT %:    85.0358  MISS %:    14.9642   MPKI: 0.019835
L2C LOAD TRANSLATION NON_SPEC    ACCESS:      34159  HIT:      32993  MISS:       1166  HIT %:    96.5866  MISS %:    3.41345   MPKI: 0.00583
L2C TRANSLATION FROM L1D PREFETCHER NON_SPEC    ACCESS:     237819  HIT:     235865  MISS:       1954  HIT %:    99.1784  MISS %:   0.821633   MPKI: 0.00977
L2C PREFETCH  REQUESTED:          0  ISSUED:          0  USEFUL:     250354  USELESS:    1287396
L2C USEFUL LOAD PREFETCHES:     250354 PREFETCH ISSUED TO LOWER LEVEL:    1628743  ACCURACY: 15.371
L2C TIMELY PREFETCHES:     250354 LATE PREFETCHES: 90050 DROPPED PREFETCHES: 0
L2C COMMIT LATE PREFETCHES: 0 NORMAL LATE: 90477 MISSED OPPORTUNITY: 0 UNCOVERED: 183433
L2C PREFETCHES SAME FILL-ORIGIN LEVEL: 838629 DIFFERENT FILL-ORIGIN LEVEL: 0
L2C AVERAGE MISS LATENCY: 239.001 cycles
L2C AVERAGE MISS LATENCY LOAD: 266.403 cycles
L2C AVERAGE MISS LATENCY PREFETCH: 239.881 cycles
L2C AVERAGE MSHR OCCUPANCY: 5.91989
L2C MSHR FULL: 0.00761875
L2C RQ	ACCESS:    1058503	FORWARD:          0	MERGED:          0	TO_CACHE:    1058367
L2C WQ	ACCESS:    2456388	FORWARD:        263	MERGED:        216	TO_CACHE:    2456172
L2C PQ	ACCESS:    8320445	FORWARD:          0	MERGED:       2682	TO_CACHE:    8317636

L2C Instructions Evicting Data 4784
L2C Translations Evicting Data 3113
L2C Data Evicting Data 1668504
L2C Instructions Evicting Instructions 7
L2C Translations Evicting Instructions 6
L2C Data Evicting Instructions 4461
L2C Instructions Evicting Translations 7
L2C Translations Evicting Translations 1
L2C Data Evicting Translations 2830
L2C Dense regions hint from L2: 0
PSCL5 SPEC fills:          0  NON-SPEC fills:          0
PSCL5 Test counter :          0
PSCL5 Leapfrog:          0
PSCL5 MSHR merge:          0
PSCL5 TOTAL     ACCESS:          0  HIT:          0  MISS:          0  HIT %:       -nan  MISS %:       -nan   MPKI: 0
PSCL5 PREFETCH  REQUESTED:          0  ISSUED:          0  USEFUL:          0  USELESS:          0
PSCL5 USEFUL LOAD PREFETCHES:          0 PREFETCH ISSUED TO LOWER LEVEL:          0  ACCURACY: -nan
PSCL5 TIMELY PREFETCHES:          0 LATE PREFETCHES: 0 DROPPED PREFETCHES: 0
PSCL5 COMMIT LATE PREFETCHES: 0 NORMAL LATE: 0 MISSED OPPORTUNITY: 0 UNCOVERED: 0
PSCL5 PREFETCHES SAME FILL-ORIGIN LEVEL: 0 DIFFERENT FILL-ORIGIN LEVEL: 0

PSCL4 SPEC fills:          0  NON-SPEC fills:          0
PSCL4 Test counter :          0
PSCL4 Leapfrog:          0
PSCL4 MSHR merge:          0
PSCL4 TOTAL     ACCESS:          0  HIT:          0  MISS:          0  HIT %:       -nan  MISS %:       -nan   MPKI: 0
PSCL4 PREFETCH  REQUESTED:          0  ISSUED:          0  USEFUL:          0  USELESS:          0
PSCL4 USEFUL LOAD PREFETCHES:          0 PREFETCH ISSUED TO LOWER LEVEL:          0  ACCURACY: -nan
PSCL4 TIMELY PREFETCHES:          0 LATE PREFETCHES: 0 DROPPED PREFETCHES: 0
PSCL4 COMMIT LATE PREFETCHES: 0 NORMAL LATE: 0 MISSED OPPORTUNITY: 0 UNCOVERED: 0
PSCL4 PREFETCHES SAME FILL-ORIGIN LEVEL: 0 DIFFERENT FILL-ORIGIN LEVEL: 0

PSCL3 SPEC fills:          0  NON-SPEC fills:          0
PSCL3 Test counter :          0
PSCL3 Leapfrog:          0
PSCL3 MSHR merge:          0
PSCL3 TOTAL     ACCESS:          0  HIT:          0  MISS:          0  HIT %:       -nan  MISS %:       -nan   MPKI: 0
PSCL3 PREFETCH  REQUESTED:          0  ISSUED:          0  USEFUL:          0  USELESS:          0
PSCL3 USEFUL LOAD PREFETCHES:          0 PREFETCH ISSUED TO LOWER LEVEL:          0  ACCURACY: -nan
PSCL3 TIMELY PREFETCHES:          0 LATE PREFETCHES: 0 DROPPED PREFETCHES: 0
PSCL3 COMMIT LATE PREFETCHES: 0 NORMAL LATE: 0 MISSED OPPORTUNITY: 0 UNCOVERED: 0
PSCL3 PREFETCHES SAME FILL-ORIGIN LEVEL: 0 DIFFERENT FILL-ORIGIN LEVEL: 0

PSCL2 SPEC fills:          0  NON-SPEC fills:          0
PSCL2 Test counter :          0
PSCL2 Leapfrog:          0
PSCL2 MSHR merge:          0
PSCL2 TOTAL     ACCESS:          0  HIT:          0  MISS:          0  HIT %:       -nan  MISS %:       -nan   MPKI: 0
PSCL2 PREFETCH  REQUESTED:          0  ISSUED:          0  USEFUL:          0  USELESS:          0
PSCL2 USEFUL LOAD PREFETCHES:          0 PREFETCH ISSUED TO LOWER LEVEL:          0  ACCURACY: -nan
PSCL2 TIMELY PREFETCHES:          0 LATE PREFETCHES: 0 DROPPED PREFETCHES: 0
PSCL2 COMMIT LATE PREFETCHES: 0 NORMAL LATE: 0 MISSED OPPORTUNITY: 0 UNCOVERED: 0
PSCL2 PREFETCHES SAME FILL-ORIGIN LEVEL: 0 DIFFERENT FILL-ORIGIN LEVEL: 0

LLC SPEC fills:          0  NON-SPEC fills:       7069
LLC Test counter :          0
LLC Leapfrog:          0
LLC MSHR merge:          0
LLC TOTAL     ACCESS:    3580898  HIT:    2029647  MISS:    1551251  HIT %:    56.6798  MISS %:    43.3202   MPKI: 7.75625
LLC LOAD      TOTAL       ACCESS:     183855  HIT:      18245  MISS:     165610  HIT %:    9.92358  MISS %:    90.0764   MPKI: 0.82805
LLC LOAD      NON_SPEC    ACCESS:      14169  HIT:       2302  MISS:      11867  HIT %:    16.2467  MISS %:    83.7533   MPKI: 0.059335
LLC LOAD      SPEC        ACCESS:     169686  HIT:      15943  MISS:     153743  HIT %:    9.39559  MISS %:    90.6044   MPKI: 0.768715
LLC RFO       NON_SPEC    ACCESS:      79364  HIT:       2222  MISS:      77142  HIT %:    2.79976  MISS %:    97.2002   MPKI: 0.38571
LLC PREFETCH  NON_SPEC    ACCESS:    1628737  HIT:     428686  MISS:    1200051  HIT %:    26.3201  MISS %:    73.6799   MPKI: 6.00025
LLC WRITEBACK NON_SPEC    ACCESS:     293418  HIT:     290986  MISS:       2432  HIT %:    99.1711  MISS %:   0.828852   MPKI: 0.01216
LLC CLEAN_EVICTION NON_SPEC    ACCESS:    1389285  HIT:    1287726  MISS:     101559  HIT %:    92.6898  MISS %:    7.31016   MPKI: 0.507795
LLC COMMIT LOAD NON_SPEC    ACCESS:       3119  HIT:       1502  MISS:       1617  HIT %:    48.1565  MISS %:    51.8435   MPKI: 0.008085
LLC LOAD TRANSLATION NON_SPEC    ACCESS:       1166  HIT:        135  MISS:       1031  HIT %:     11.578  MISS %:     88.422   MPKI: 0.005155
LLC TRANSLATION FROM L1D PREFETCHER NON_SPEC    ACCESS:       1954  HIT:        145  MISS:       1809  HIT %:    7.42068  MISS %:    92.5793   MPKI: 0.009045
LLC PREFETCH  REQUESTED:          0  ISSUED:          0  USEFUL:      14800  USELESS:    1183608
LLC USEFUL LOAD PREFETCHES:      14800 PREFETCH ISSUED TO LOWER LEVEL:    1200052  ACCURACY: 1.23328
LLC TIMELY PREFETCHES:      14800 LATE PREFETCHES: 0 DROPPED PREFETCHES: 0
LLC COMMIT LATE PREFETCHES: 0 NORMAL LATE: 0 MISSED OPPORTUNITY: 0 UNCOVERED: 0
LLC PREFETCHES SAME FILL-ORIGIN LEVEL: 0 DIFFERENT FILL-ORIGIN LEVEL: 0
LLC AVERAGE MISS LATENCY: 285.48 cycles
LLC AVERAGE MISS LATENCY LOAD: 257.535 cycles
LLC AVERAGE MISS LATENCY PREFETCH: 300.727 cycles
LLC AVERAGE MSHR OCCUPANCY: 5.8931
LLC MSHR FULL: 0
LLC RQ	ACCESS:     269464	FORWARD:          0	MERGED:          0	TO_CACHE:     269459
LLC WQ	ACCESS:    1682703	FORWARD:         10	MERGED:          0	TO_CACHE:    1682703
LLC PQ	ACCESS:    1628743	FORWARD:          0	MERGED:          0	TO_CACHE:    1628738

LLC Dense regions hint to LLC: 0

RAW hits: 201457
Loads Generated: 61049229
Loads sent to L1D: 60847771
Stores Generated: 8497471
Stores sent to L1D: 8497479
Major fault: 0 Minor fault: 8737
Allocated PAGES: 8737
Total Load insts: 77041533
Total Non-spec loads: 8370605
Percentage of speculative loads: 89.1349

LeapFrogging counter: 471931
Commit hits: 32417818 miss: 20489963
Commit hit %: 61.2723 miss %: 38.7277
Commits not translated: 0
Loads retired: 626014
Stores retired: 8497479
Cache fills: 626014
L1D response latency: 125.538 cycles
Load retirement latency: 266.189 cycles
OOO test counter: 0
Discarded buffer inserts: 32417818 hits: 18034 hit %: 0.0556299
Filter prediction accuracy: -nan
LATENCY_FILL: 54.4736 574749
test counter pref: 31239343

DRAM Statistics
 CHANNEL 0
 RQ ROW_BUFFER_HIT:     226559  ROW_BUFFER_MISS:    1220545
 DBUS_CONGESTED:        332
 WQ ROW_BUFFER_HIT:     309763  ROW_BUFFER_MISS:     973631  FULL:       5055

 AVG_CONGESTED_CYCLE: 5
 All warmup complete: 2
Channel 0 Bank busy for read cycles: 0
Channel 0 Bank busy for write cycles: 0
Channel 0
Rank 0
0banks busy for read cycles: 88113814
0banks busy for write cycles: 152824
1banks busy for read cycles: 38537758
1banks busy for write cycles: 19414727
2banks busy for read cycles: 13719244
2banks busy for write cycles: 7186059
3banks busy for read cycles: 7585250
3banks busy for write cycles: 2587607
4banks busy for read cycles: 5362042
4banks busy for write cycles: 1599493
5banks busy for read cycles: 4319621
5banks busy for write cycles: 1100358
6banks busy for read cycles: 3639009
6banks busy for write cycles: 989582
7banks busy for read cycles: 3372102
7banks busy for write cycles: 2193998
8banks busy for read cycles: 3551737
8banks busy for write cycles: 19836061

CPU 0 Branch Prediction Accuracy: 99.8281% MPKI: 0.09468 Average ROB Occupancy at Mispredict: 147.819
Branch types
NOT_BRANCH: 188985978 94.493%
BRANCH_DIRECT_JUMP: 290669 0.145334%
BRANCH_INDIRECT: 14 7e-06%
BRANCH_CONDITIONAL: 10161052 5.08053%
BRANCH_DIRECT_CALL: 280969 0.140484%
BRANCH_INDIRECT_CALL: 0 0%
BRANCH_RETURN: 280968 0.140484%
BRANCH_OTHER: 0 0%

DRAM PAGES: 1048576
Allocated PAGES: 8737
