
*** ChampSim Multicore Out-of-Order Simulator ***

Warmup Instructions: 50000000
Simulation Instructions: 200000000
Number of CPUs: 1
LLC sets: 2048
LLC ways: 16
L0D sets: 16
L0D ways: 2
ROB size: 352
LQ size: 128
SQ size: 72
Secure Berti: OFF
Berti: OFF
Berti Fill: OFF
On commit prefetching: ON
Hit-based filter: OFF
Time-guarding: ON
Free-slotting: ON
Leap-frogging: ON
Train prefetcher on L0D bypass: OFF
No translation penalty for prefetchers: OFF
Prefetch to L0D only: OFF
Prefetch to L1D only: OFF
Clean evictions: ON
Commit loads: ON
Commit write: ON
Fill commit loads to L2C, LLC: ON
DRAM IO FREQUENCY: 6400
ROB SIZE: 352
Off-chip DRAM Size: 4096 MB Channels: 1 Width: 64-bit Data Rate: 6400 MT/s
CPU 0 runs /home/sumon/secure_berti/GhostMinion/../../traces/spec/641.leela_s-1083B.champsimtrace.xz
.xz
BTB has LRU replacement policy
ITLB has LRU replacement policy
DTLB has LRU replacement policy
STLB has LRU replacement policy
L1I has LRU replacement policy
L0D has LRU replacement policy
History Sets: 8
History Ways: 16
BERTI Size: 16
BERTI Stride Size: 16
History Sets: 8
History Ways: 16
BERTI Size: 16
BERTI Stride Size: 16
L1D has LRU replacement policy
L2C has LRU replacement policy
LLC has LRU replacement policy
Heartbeat CPU 0 instructions: 10000000 cycles: 5025275 heartbeat IPC: 1.98994 cumulative IPC: 1.98994 (Simulation time: 0 hr 0 min 37 sec) 
Heartbeat CPU 0 instructions: 20000000 cycles: 10102135 heartbeat IPC: 1.96972 cumulative IPC: 1.97978 (Simulation time: 0 hr 1 min 21 sec) 
Heartbeat CPU 0 instructions: 30000003 cycles: 15232719 heartbeat IPC: 1.9491 cumulative IPC: 1.96944 (Simulation time: 0 hr 2 min 6 sec) 
Heartbeat CPU 0 instructions: 40000003 cycles: 20299684 heartbeat IPC: 1.97357 cumulative IPC: 1.97047 (Simulation time: 0 hr 3 min 5 sec) 
Heartbeat CPU 0 instructions: 50000003 cycles: 25364273 heartbeat IPC: 1.97449 cumulative IPC: 1.97128 (Simulation time: 0 hr 4 min 19 sec) 

Warmup complete CPU 0 instructions: 50000003 cycles: 25364273 (Simulation time: 0 hr 4 min 19 sec) 

Heartbeat CPU 0 instructions: 60000002 cycles: 50494183 heartbeat IPC: 0.397932 cumulative IPC: 0.397932 (Simulation time: 0 hr 5 min 25 sec) 
Heartbeat CPU 0 instructions: 70000000 cycles: 75866584 heartbeat IPC: 0.394129 cumulative IPC: 0.396021 (Simulation time: 0 hr 6 min 19 sec) 
Heartbeat CPU 0 instructions: 80000000 cycles: 100901697 heartbeat IPC: 0.399439 cumulative IPC: 0.397154 (Simulation time: 0 hr 7 min 12 sec) 
Heartbeat CPU 0 instructions: 90000003 cycles: 126596807 heartbeat IPC: 0.389179 cumulative IPC: 0.39513 (Simulation time: 0 hr 8 min 6 sec) 
Heartbeat CPU 0 instructions: 100000002 cycles: 151980724 heartbeat IPC: 0.39395 cumulative IPC: 0.394893 (Simulation time: 0 hr 8 min 59 sec) 
Heartbeat CPU 0 instructions: 110000000 cycles: 176896963 heartbeat IPC: 0.401345 cumulative IPC: 0.395954 (Simulation time: 0 hr 9 min 52 sec) 
Heartbeat CPU 0 instructions: 120000000 cycles: 201722629 heartbeat IPC: 0.402809 cumulative IPC: 0.396919 (Simulation time: 0 hr 10 min 44 sec) 
Heartbeat CPU 0 instructions: 130000001 cycles: 226923904 heartbeat IPC: 0.396805 cumulative IPC: 0.396905 (Simulation time: 0 hr 11 min 37 sec) 
Heartbeat CPU 0 instructions: 140000000 cycles: 252182138 heartbeat IPC: 0.39591 cumulative IPC: 0.396794 (Simulation time: 0 hr 12 min 29 sec) 
Heartbeat CPU 0 instructions: 150000000 cycles: 277217101 heartbeat IPC: 0.399441 cumulative IPC: 0.397057 (Simulation time: 0 hr 13 min 22 sec) 
Heartbeat CPU 0 instructions: 160000000 cycles: 302003911 heartbeat IPC: 0.40344 cumulative IPC: 0.397629 (Simulation time: 0 hr 14 min 15 sec) 
Heartbeat CPU 0 instructions: 170000001 cycles: 326918327 heartbeat IPC: 0.401374 cumulative IPC: 0.397939 (Simulation time: 0 hr 15 min 6 sec) 
Heartbeat CPU 0 instructions: 180000000 cycles: 352011546 heartbeat IPC: 0.398514 cumulative IPC: 0.397983 (Simulation time: 0 hr 15 min 58 sec) 
Heartbeat CPU 0 instructions: 190000001 cycles: 376993484 heartbeat IPC: 0.400289 cumulative IPC: 0.398147 (Simulation time: 0 hr 16 min 50 sec) 
Heartbeat CPU 0 instructions: 200000002 cycles: 402111875 heartbeat IPC: 0.398115 cumulative IPC: 0.398145 (Simulation time: 0 hr 17 min 41 sec) 
Heartbeat CPU 0 instructions: 210000003 cycles: 427663110 heartbeat IPC: 0.391371 cumulative IPC: 0.397714 (Simulation time: 0 hr 18 min 33 sec) 
Heartbeat CPU 0 instructions: 220000000 cycles: 453101390 heartbeat IPC: 0.393108 cumulative IPC: 0.39744 (Simulation time: 0 hr 19 min 25 sec) 
Heartbeat CPU 0 instructions: 230000000 cycles: 478604919 heartbeat IPC: 0.392103 cumulative IPC: 0.39714 (Simulation time: 0 hr 20 min 17 sec) 
Heartbeat CPU 0 instructions: 240000000 cycles: 503741082 heartbeat IPC: 0.397833 cumulative IPC: 0.397176 (Simulation time: 0 hr 21 min 9 sec) 
Heartbeat CPU 0 instructions: 250000000 cycles: 559837996 heartbeat IPC: 0.178263 cumulative IPC: 0.3742 (Simulation time: 0 hr 23 min 29 sec) 
Finished CPU 0 instructions: 200000000 cycles: 534473765 cumulative IPC: 0.3742 (Simulation time: 0 hr 23 min 29 sec) 
 Instruction ID: 250000385

ChampSim completed all CPUs

Region of Interest Statistics

CPU 0 cumulative IPC: 0.3742 instructions: 200000000 cycles: 534473765
ITLB SPEC fills:          0  NON-SPEC fills:          0
ITLB Test counter :          0
ITLB Leapfrog:          0
ITLB MSHR merge:          0
ITLB TOTAL     ACCESS:   35720497  HIT:   35720335  MISS:        162  HIT %:    99.9995  MISS %: 0.000453521   MPKI: 0.00081
ITLB LOAD TRANSLATION NON_SPEC    ACCESS:   35720497  HIT:   35720335  MISS:        162  HIT %:    99.9995  MISS %: 0.000453521   MPKI: 0.00081
ITLB PREFETCH  REQUESTED:          0  ISSUED:          0  USEFUL:          0  USELESS:          0
ITLB USEFUL LOAD PREFETCHES:          0 PREFETCH ISSUED TO LOWER LEVEL:          0  ACCURACY: -nan
ITLB TIMELY PREFETCHES:          0 LATE PREFETCHES: 0 DROPPED PREFETCHES: 0
ITLB COMMIT LATE PREFETCHES: 0 NORMAL LATE: 0 MISSED OPPORTUNITY: 0 UNCOVERED: 0
ITLB PREFETCHES SAME FILL-ORIGIN LEVEL: 0 DIFFERENT FILL-ORIGIN LEVEL: 0
ITLB AVERAGE MISS LATENCY: 190.833 cycles
ITLB AVERAGE MISS LATENCY LOAD: -nan cycles
ITLB AVERAGE MISS LATENCY PREFETCH: -nan cycles
ITLB AVERAGE MSHR OCCUPANCY: 1.7357e-06
ITLB MSHR FULL: 0
ITLB RQ	ACCESS:   40344119	FORWARD:          0	MERGED:    4623587	TO_CACHE:   35720532

DTLB SPEC fills:          0  NON-SPEC fills:          0
DTLB Test counter :          0
DTLB Leapfrog:          0
DTLB MSHR merge:          0
DTLB TOTAL     ACCESS:   64753671  HIT:   64649814  MISS:     103857  HIT %:    99.8396  MISS %:   0.160388   MPKI: 0.519285
DTLB LOAD TRANSLATION NON_SPEC    ACCESS:   64753671  HIT:   64649814  MISS:     103857  HIT %:    99.8396  MISS %:   0.160388   MPKI: 0.519285
DTLB PREFETCH  REQUESTED:          0  ISSUED:          0  USEFUL:          0  USELESS:          0
DTLB USEFUL LOAD PREFETCHES:          0 PREFETCH ISSUED TO LOWER LEVEL:          0  ACCURACY: -nan
DTLB TIMELY PREFETCHES:          0 LATE PREFETCHES: 0 DROPPED PREFETCHES: 0
DTLB COMMIT LATE PREFETCHES: 0 NORMAL LATE: 0 MISSED OPPORTUNITY: 0 UNCOVERED: 0
DTLB PREFETCHES SAME FILL-ORIGIN LEVEL: 0 DIFFERENT FILL-ORIGIN LEVEL: 0
DTLB AVERAGE MISS LATENCY: 13.4063 cycles
DTLB AVERAGE MISS LATENCY LOAD: -nan cycles
DTLB AVERAGE MISS LATENCY PREFETCH: -nan cycles
DTLB AVERAGE MSHR OCCUPANCY: 0.00153998
DTLB MSHR FULL: 0
DTLB RQ	ACCESS:   72963251	FORWARD:          0	MERGED:    8199413	TO_CACHE:   64763838

STLB SPEC fills:          0  NON-SPEC fills:          0
STLB Test counter :          0
STLB Leapfrog:          0
STLB MSHR merge:          0
STLB TOTAL     ACCESS:    4185117  HIT:    4179018  MISS:       6099  HIT %:    99.8543  MISS %:   0.145731   MPKI: 0.030495
STLB LOAD TRANSLATION NON_SPEC    ACCESS:     104019  HIT:     101105  MISS:       2914  HIT %:    97.1986  MISS %:    2.80141   MPKI: 0.01457
STLB TRANSLATION FROM L1D PREFETCHER NON_SPEC    ACCESS:    4081098  HIT:    4077913  MISS:       3185  HIT %:     99.922  MISS %:  0.0780427   MPKI: 0.015925
STLB PREFETCH  REQUESTED:          0  ISSUED:          0  USEFUL:       3153  USELESS:         21
STLB USEFUL LOAD PREFETCHES:       3153 PREFETCH ISSUED TO LOWER LEVEL:          0  ACCURACY: inf
STLB TIMELY PREFETCHES:       3153 LATE PREFETCHES: 1029 DROPPED PREFETCHES: 21058
STLB COMMIT LATE PREFETCHES: 0 NORMAL LATE: 0 MISSED OPPORTUNITY: 0 UNCOVERED: 0
STLB PREFETCHES SAME FILL-ORIGIN LEVEL: 0 DIFFERENT FILL-ORIGIN LEVEL: 0
STLB AVERAGE MISS LATENCY: 146.755 cycles
STLB AVERAGE MISS LATENCY LOAD: -nan cycles
STLB AVERAGE MISS LATENCY PREFETCH: -nan cycles
STLB AVERAGE MSHR OCCUPANCY: 0.0145953
STLB MSHR FULL: 0
STLB RQ	ACCESS:   12231165	FORWARD:          0	MERGED:    8016590	TO_CACHE:    4214575

STLB Hit, L1D data hit: 0
STLB Hit, L2C data hit: 0
STLB Hit, LLC data hit: 0
STLB Hit, LLC data miss: 0
STLB STLB hints to L2: 0
L0D SPEC fills:   23296334  NON-SPEC fills:          0
L0D TimeGuard Request with older TS:     205335 Restricted eviction:     142238 read:     230939
L0D Test counter :          0
L0D Leapfrog:          0
L0D MSHR merge:     659439
L0D TOTAL     ACCESS:   46624152  HIT:    3320949  MISS:   43303203  HIT %:    7.12281  MISS %:    92.8772   MPKI: 216.516
L0D LOAD      TOTAL       ACCESS:   46624152  HIT:    3320949  MISS:   43303203  HIT %:    7.12281  MISS %:    92.8772   MPKI: 216.516
L0D LOAD      NON_SPEC    ACCESS:   20063458  HIT:     198827  MISS:   19864631  HIT %:   0.990991  MISS %:     99.009   MPKI: 99.3232
L0D LOAD      SPEC        ACCESS:   26560694  HIT:    3122122  MISS:   23438572  HIT %:    11.7547  MISS %:    88.2453   MPKI: 117.193
L0D PREFETCH  REQUESTED:          0  ISSUED:          0  USEFUL:          0  USELESS:          0
L0D USEFUL LOAD PREFETCHES:          0 PREFETCH ISSUED TO LOWER LEVEL:          0  ACCURACY: -nan
L0D TIMELY PREFETCHES:          0 LATE PREFETCHES: 0 DROPPED PREFETCHES: 0
L0D COMMIT LATE PREFETCHES: 0 NORMAL LATE: 0 MISSED OPPORTUNITY: 0 UNCOVERED: 0
L0D PREFETCHES SAME FILL-ORIGIN LEVEL: 0 DIFFERENT FILL-ORIGIN LEVEL: 0
L0D AVERAGE MISS LATENCY: 5.64664 cycles
L0D AVERAGE MISS LATENCY LOAD: 5.64664 cycles
L0D AVERAGE MISS LATENCY PREFETCH: -nan cycles
L0D AVERAGE MSHR OCCUPANCY: 0.693204
L0D MSHR FULL: 0.018341
L0D RQ	ACCESS:   53937157	FORWARD:          0	MERGED:    6653569	TO_CACHE:   47283588
L0D WQ	ACCESS:   25679663	FORWARD:          0	MERGED:          0	TO_CACHE:   25679663

L1D SPEC fills:          0  NON-SPEC fills:     295422
L1D Test counter :     529504
L1D Leapfrog:          0
L1D MSHR merge:      16724
L1D TOTAL     ACCESS:  105635987  HIT:  104093001  MISS:    1542986  HIT %:    98.5393  MISS %:    1.46066   MPKI: 7.71493
L1D LOAD      TOTAL       ACCESS:   43301894  HIT:   42765855  MISS:     536039  HIT %:    98.7621  MISS %:    1.23791   MPKI: 2.68019
L1D LOAD      NON_SPEC    ACCESS:   19863817  HIT:   19568395  MISS:     295422  HIT %:    98.5128  MISS %:    1.48724   MPKI: 1.47711
L1D LOAD      SPEC        ACCESS:   23438077  HIT:   23197460  MISS:     240617  HIT %:    98.9734  MISS %:    1.02661   MPKI: 1.20308
L1D RFO       NON_SPEC    ACCESS:   23711635  HIT:   23554369  MISS:     157266  HIT %:    99.3368  MISS %:   0.663244   MPKI: 0.78633
L1D PREFETCH  NON_SPEC    ACCESS:    8479286  HIT:    7879966  MISS:     599320  HIT %:     92.932  MISS %:    7.06805   MPKI: 2.9966
L1D COMMIT LOAD NON_SPEC    ACCESS:    7024993  HIT:    7005957  MISS:      19036  HIT %:     99.729  MISS %:   0.270975   MPKI: 0.09518
L1D COMMIT WRITE NON_SPEC    ACCESS:   23118179  HIT:   22886854  MISS:     231325  HIT %:    98.9994  MISS %:    1.00062   MPKI: 1.15663
L1D PREFETCH  REQUESTED:   19067172  ISSUED:   18830267  USEFUL:     310822  USELESS:     288186
L1D USEFUL LOAD PREFETCHES:     310822 PREFETCH ISSUED TO LOWER LEVEL:    2369249  ACCURACY: 13.119
L1D TIMELY PREFETCHES:     310822 LATE PREFETCHES: 17119 DROPPED PREFETCHES: 37100
L1D COMMIT LATE PREFETCHES: 12414 NORMAL LATE: 60054 MISSED OPPORTUNITY: 6150 UNCOVERED: 459197
L1D PREFETCHES SAME FILL-ORIGIN LEVEL: 627608 DIFFERENT FILL-ORIGIN LEVEL: 1741641
L1D AVERAGE MISS LATENCY: 103.364 cycles
L1D AVERAGE MISS LATENCY LOAD: 42.7364 cycles
L1D AVERAGE MISS LATENCY PREFETCH: 194.492 cycles
L1D AVERAGE MSHR OCCUPANCY: 0.275435
L1D MSHR FULL: 0.00433904
L1D RQ	ACCESS:   53984037	FORWARD:          0	MERGED:    2485897	TO_CACHE:   50328345
L1D WQ	ACCESS:   48842399	FORWARD:    1169795	MERGED:    1636092	TO_CACHE:   47206307
L1D PQ	ACCESS:   18830267	FORWARD:          0	MERGED:    6703121	TO_CACHE:   12127146

L1D UNIQUE REGIONS ACCESSED: 0
L1D REGIONS CONFLICTS: 0
L1D Cross Page Prefetch Requests: 1790880
L1D Same Page Prefetch Requests: 18149198
L1D ROI Sum of L1D PQ occupancy: 197196831
L1D PREFETCHES PUSHED FROM L2C: 0
L1I SPEC fills:          0  NON-SPEC fills:          0
L1I Test counter :          0
L1I Leapfrog:          0
L1I MSHR merge:       5485
L1I TOTAL     ACCESS:   40338634  HIT:   40323207  MISS:      15427  HIT %:    99.9618  MISS %:  0.0382437   MPKI: 0.077135
L1I LOAD      TOTAL       ACCESS:   40338634  HIT:   40323207  MISS:      15427  HIT %:    99.9618  MISS %:  0.0382437   MPKI: 0.077135
L1I LOAD      NON_SPEC    ACCESS:   40338634  HIT:   40323207  MISS:      15427  HIT %:    99.9618  MISS %:  0.0382437   MPKI: 0.077135
L1I PREFETCH  REQUESTED:          0  ISSUED:          0  USEFUL:          0  USELESS:          0
L1I USEFUL LOAD PREFETCHES:          0 PREFETCH ISSUED TO LOWER LEVEL:          0  ACCURACY: -nan
L1I TIMELY PREFETCHES:          0 LATE PREFETCHES: 0 DROPPED PREFETCHES: 0
L1I COMMIT LATE PREFETCHES: 0 NORMAL LATE: 0 MISSED OPPORTUNITY: 0 UNCOVERED: 0
L1I PREFETCHES SAME FILL-ORIGIN LEVEL: 0 DIFFERENT FILL-ORIGIN LEVEL: 0
L1I AVERAGE MISS LATENCY: 47.0088 cycles
L1I AVERAGE MISS LATENCY LOAD: 47.0088 cycles
L1I AVERAGE MISS LATENCY PREFETCH: -nan cycles
L1I AVERAGE MSHR OCCUPANCY: 0.000578226
L1I MSHR FULL: 0
L1I RQ	ACCESS:   57049119	FORWARD:          0	MERGED:   16705000	TO_CACHE:   40344119

BTB SPEC fills:          0  NON-SPEC fills:          0
BTB Test counter :          0
BTB Leapfrog:          0
BTB MSHR merge:          0
BTB TOTAL     ACCESS:   31329121  HIT:   29031204  MISS:    2297917  HIT %:    92.6652  MISS %:    7.33476   MPKI: 11.4896
BTB BRANCH_DIRECT_JUMP	ACCESS:    1094608  HIT:    1094408  MISS:        200
BTB BRANCH_INDIRECT	ACCESS:       6209  HIT:       4182  MISS:       2027
BTB BRANCH_CONDITIONAL	ACCESS:   18688882  HIT:   18687006  MISS:       1876
BTB BRANCH_DIRECT_CALL	ACCESS:    5769438  HIT:    5768610  MISS:        828
BTB BRANCH_INDIRECT_CALL	ACCESS:        272  HIT:        218  MISS:         54
BTB BRANCH_RETURN	ACCESS:    5769712  HIT:    3476780  MISS:    2292932
BTB BRANCH_OTHER ACCESS:          0  HIT:          0  MISS:          0

L2C SPEC fills:          0  NON-SPEC fills:      22771
L2C Test counter :          0
L2C Leapfrog:          0
L2C MSHR merge:      11602
L2C TOTAL     ACCESS:    3255666  HIT:    2433829  MISS:     821837  HIT %:    74.7567  MISS %:    25.2433   MPKI: 4.10919
L2C LOAD      TOTAL       ACCESS:     536043  HIT:     455836  MISS:      80207  HIT %:    85.0372  MISS %:    14.9628   MPKI: 0.401035
L2C LOAD      NON_SPEC    ACCESS:     300278  HIT:     274936  MISS:      25342  HIT %:    91.5605  MISS %:    8.43951   MPKI: 0.12671
L2C LOAD      SPEC        ACCESS:     235765  HIT:     180900  MISS:      54865  HIT %:    76.7289  MISS %:    23.2711   MPKI: 0.274325
L2C RFO       NON_SPEC    ACCESS:     146090  HIT:      80392  MISS:      65698  HIT %:    55.0291  MISS %:    44.9709   MPKI: 0.32849
L2C PREFETCH  NON_SPEC    ACCESS:    1671000  HIT:    1043467  MISS:     627533  HIT %:    62.4457  MISS %:    37.5543   MPKI: 3.13767
L2C WRITEBACK NON_SPEC    ACCESS:     436743  HIT:     436642  MISS:        101  HIT %:    99.9769  MISS %:  0.0231257   MPKI: 0.000505
L2C CLEAN_EVICTION NON_SPEC    ACCESS:     308009  HIT:     269466  MISS:      38543  HIT %:    87.4864  MISS %:    12.5136   MPKI: 0.192715
L2C COMMIT LOAD NON_SPEC    ACCESS:      17333  HIT:       9322  MISS:       8011  HIT %:    53.7818  MISS %:    46.2182   MPKI: 0.040055
L2C LOAD TRANSLATION NON_SPEC    ACCESS:      14088  HIT:      13328  MISS:        760  HIT %:    94.6053  MISS %:    5.39466   MPKI: 0.0038
L2C TRANSLATION FROM L1D PREFETCHER NON_SPEC    ACCESS:     126360  HIT:     125376  MISS:        984  HIT %:    99.2213  MISS %:   0.778727   MPKI: 0.00492
L2C PREFETCH  REQUESTED:          0  ISSUED:          0  USEFUL:      74547  USELESS:     548558
L2C USEFUL LOAD PREFETCHES:      74547 PREFETCH ISSUED TO LOWER LEVEL:     651861  ACCURACY: 11.436
L2C TIMELY PREFETCHES:      74547 LATE PREFETCHES: 24321 DROPPED PREFETCHES: 0
L2C COMMIT LATE PREFETCHES: 0 NORMAL LATE: 24495 MISSED OPPORTUNITY: 0 UNCOVERED: 68431
L2C PREFETCHES SAME FILL-ORIGIN LEVEL: 208507 DIFFERENT FILL-ORIGIN LEVEL: 0
L2C AVERAGE MISS LATENCY: 231.713 cycles
L2C AVERAGE MISS LATENCY LOAD: 182.134 cycles
L2C AVERAGE MISS LATENCY PREFETCH: 251.387 cycles
L2C AVERAGE MSHR OCCUPANCY: 2.06899
L2C MSHR FULL: 0.00612438
L2C RQ	ACCESS:     839940	FORWARD:          0	MERGED:          0	TO_CACHE:     839914
L2C WQ	ACCESS:     744753	FORWARD:         26	MERGED:          1	TO_CACHE:     744752
L2C PQ	ACCESS:    2368054	FORWARD:          0	MERGED:       1165	TO_CACHE:    2366889

L2C Instructions Evicting Data 2551
L2C Translations Evicting Data 1703
L2C Data Evicting Data 717202
L2C Instructions Evicting Instructions 13
L2C Translations Evicting Instructions 14
L2C Data Evicting Instructions 2793
L2C Instructions Evicting Translations 5
L2C Translations Evicting Translations 3
L2C Data Evicting Translations 1805
L2C Dense regions hint from L2: 0
PSCL5 SPEC fills:          0  NON-SPEC fills:          0
PSCL5 Test counter :          0
PSCL5 Leapfrog:          0
PSCL5 MSHR merge:          0
PSCL5 TOTAL     ACCESS:          0  HIT:          0  MISS:          0  HIT %:       -nan  MISS %:       -nan   MPKI: 0
PSCL5 PREFETCH  REQUESTED:          0  ISSUED:          0  USEFUL:          0  USELESS:          0
PSCL5 USEFUL LOAD PREFETCHES:          0 PREFETCH ISSUED TO LOWER LEVEL:          0  ACCURACY: -nan
PSCL5 TIMELY PREFETCHES:          0 LATE PREFETCHES: 0 DROPPED PREFETCHES: 0
PSCL5 COMMIT LATE PREFETCHES: 0 NORMAL LATE: 0 MISSED OPPORTUNITY: 0 UNCOVERED: 0
PSCL5 PREFETCHES SAME FILL-ORIGIN LEVEL: 0 DIFFERENT FILL-ORIGIN LEVEL: 0

PSCL4 SPEC fills:          0  NON-SPEC fills:          0
PSCL4 Test counter :          0
PSCL4 Leapfrog:          0
PSCL4 MSHR merge:          0
PSCL4 TOTAL     ACCESS:          0  HIT:          0  MISS:          0  HIT %:       -nan  MISS %:       -nan   MPKI: 0
PSCL4 PREFETCH  REQUESTED:          0  ISSUED:          0  USEFUL:          0  USELESS:          0
PSCL4 USEFUL LOAD PREFETCHES:          0 PREFETCH ISSUED TO LOWER LEVEL:          0  ACCURACY: -nan
PSCL4 TIMELY PREFETCHES:          0 LATE PREFETCHES: 0 DROPPED PREFETCHES: 0
PSCL4 COMMIT LATE PREFETCHES: 0 NORMAL LATE: 0 MISSED OPPORTUNITY: 0 UNCOVERED: 0
PSCL4 PREFETCHES SAME FILL-ORIGIN LEVEL: 0 DIFFERENT FILL-ORIGIN LEVEL: 0

PSCL3 SPEC fills:          0  NON-SPEC fills:          0
PSCL3 Test counter :          0
PSCL3 Leapfrog:          0
PSCL3 MSHR merge:          0
PSCL3 TOTAL     ACCESS:          0  HIT:          0  MISS:          0  HIT %:       -nan  MISS %:       -nan   MPKI: 0
PSCL3 PREFETCH  REQUESTED:          0  ISSUED:          0  USEFUL:          0  USELESS:          0
PSCL3 USEFUL LOAD PREFETCHES:          0 PREFETCH ISSUED TO LOWER LEVEL:          0  ACCURACY: -nan
PSCL3 TIMELY PREFETCHES:          0 LATE PREFETCHES: 0 DROPPED PREFETCHES: 0
PSCL3 COMMIT LATE PREFETCHES: 0 NORMAL LATE: 0 MISSED OPPORTUNITY: 0 UNCOVERED: 0
PSCL3 PREFETCHES SAME FILL-ORIGIN LEVEL: 0 DIFFERENT FILL-ORIGIN LEVEL: 0

PSCL2 SPEC fills:          0  NON-SPEC fills:          0
PSCL2 Test counter :          0
PSCL2 Leapfrog:          0
PSCL2 MSHR merge:          0
PSCL2 TOTAL     ACCESS:          0  HIT:          0  MISS:          0  HIT %:       -nan  MISS %:       -nan   MPKI: 0
PSCL2 PREFETCH  REQUESTED:          0  ISSUED:          0  USEFUL:          0  USELESS:          0
PSCL2 USEFUL LOAD PREFETCHES:          0 PREFETCH ISSUED TO LOWER LEVEL:          0  ACCURACY: -nan
PSCL2 TIMELY PREFETCHES:          0 LATE PREFETCHES: 0 DROPPED PREFETCHES: 0
PSCL2 COMMIT LATE PREFETCHES: 0 NORMAL LATE: 0 MISSED OPPORTUNITY: 0 UNCOVERED: 0
PSCL2 PREFETCHES SAME FILL-ORIGIN LEVEL: 0 DIFFERENT FILL-ORIGIN LEVEL: 0

LLC SPEC fills:          0  NON-SPEC fills:      13122
LLC Test counter :          0
LLC Leapfrog:          0
LLC MSHR merge:          0
LLC TOTAL     ACCESS:    1234757  HIT:     433310  MISS:     801447  HIT %:    35.0927  MISS %:    64.9073   MPKI: 4.00723
LLC LOAD      TOTAL       ACCESS:      68605  HIT:       5560  MISS:      63045  HIT %:    8.10437  MISS %:    91.8956   MPKI: 0.315225
LLC LOAD      NON_SPEC    ACCESS:      18220  HIT:       2562  MISS:      15658  HIT %:    14.0615  MISS %:    85.9385   MPKI: 0.07829
LLC LOAD      SPEC        ACCESS:      50385  HIT:       2998  MISS:      47387  HIT %:    5.95018  MISS %:    94.0498   MPKI: 0.236935
LLC RFO       NON_SPEC    ACCESS:      54478  HIT:       3255  MISS:      51223  HIT %:    5.97489  MISS %:    94.0251   MPKI: 0.256115
LLC PREFETCH  NON_SPEC    ACCESS:     651854  HIT:       8782  MISS:     643072  HIT %:    1.34723  MISS %:    98.6528   MPKI: 3.21536
LLC WRITEBACK NON_SPEC    ACCESS:     363991  HIT:     363923  MISS:         68  HIT %:    99.9813  MISS %:  0.0186818   MPKI: 0.00034
LLC CLEAN_EVICTION NON_SPEC    ACCESS:      87573  HIT:      51080  MISS:      36493  HIT %:    58.3285  MISS %:    41.6715   MPKI: 0.182465
LLC COMMIT LOAD NON_SPEC    ACCESS:       6512  HIT:        480  MISS:       6032  HIT %:    7.37101  MISS %:     92.629   MPKI: 0.03016
LLC LOAD TRANSLATION NON_SPEC    ACCESS:        760  HIT:        189  MISS:        571  HIT %:    24.8684  MISS %:    75.1316   MPKI: 0.002855
LLC TRANSLATION FROM L1D PREFETCHER NON_SPEC    ACCESS:        984  HIT:         41  MISS:        943  HIT %:    4.16667  MISS %:    95.8333   MPKI: 0.004715
LLC PREFETCH  REQUESTED:          0  ISSUED:          0  USEFUL:       3150  USELESS:     612594
LLC USEFUL LOAD PREFETCHES:       3150 PREFETCH ISSUED TO LOWER LEVEL:     643078  ACCURACY: 0.489832
LLC TIMELY PREFETCHES:       3150 LATE PREFETCHES: 0 DROPPED PREFETCHES: 0
LLC COMMIT LATE PREFETCHES: 0 NORMAL LATE: 0 MISSED OPPORTUNITY: 0 UNCOVERED: 0
LLC PREFETCHES SAME FILL-ORIGIN LEVEL: 0 DIFFERENT FILL-ORIGIN LEVEL: 0
LLC AVERAGE MISS LATENCY: 212.915 cycles
LLC AVERAGE MISS LATENCY LOAD: 176.335 cycles
LLC AVERAGE MISS LATENCY PREFETCH: 226.32 cycles
LLC AVERAGE MSHR OCCUPANCY: 5.14226
LLC MSHR FULL: 0
LLC RQ	ACCESS:     131339	FORWARD:          0	MERGED:          0	TO_CACHE:     131339
LLC WQ	ACCESS:     451564	FORWARD:          0	MERGED:          0	TO_CACHE:     451564
LLC PQ	ACCESS:     651861	FORWARD:          0	MERGED:          0	TO_CACHE:     651861

LLC Dense regions hint to LLC: 0

RAW hits: 1493158
Loads Generated: 55430316
Loads sent to L1D: 53937157
Stores Generated: 25679661
Stores sent to L1D: 25679663
Major fault: 0 Minor fault: 2275
Allocated PAGES: 2275
Total Load insts: 65741856
Total Non-spec loads: 22212225
Percentage of speculative loads: 66.213

LeapFrogging counter: 81157
Commit hits: 23163443 miss: 10680837
Commit hit %: 68.4412 miss %: 31.5588
Commits not translated: 0
Loads retired: 536039
Stores retired: 25679663
Cache fills: 536039
L1D response latency: 42.7364 cycles
Load retirement latency: 77.6983 cycles
OOO test counter: 0
Discarded buffer inserts: 23163443 hits: 29379 hit %: 0.126833
Filter prediction accuracy: -nan
LATENCY_FILL: 50.6875 382405
test counter pref: 10690782

DRAM Statistics
 CHANNEL 0
 RQ ROW_BUFFER_HIT:     143481  ROW_BUFFER_MISS:     621393
 DBUS_CONGESTED:         94
 WQ ROW_BUFFER_HIT:     114952  ROW_BUFFER_MISS:     314699  FULL:        220

 AVG_CONGESTED_CYCLE: 5
 All warmup complete: 2
Channel 0 Bank busy for read cycles: 0
Channel 0 Bank busy for write cycles: 0
Channel 0
Rank 0
0banks busy for read cycles: 489971073
0banks busy for write cycles: 2669
1banks busy for read cycles: 5839330
1banks busy for write cycles: 468040
2banks busy for read cycles: 9234564
2banks busy for write cycles: 309119
3banks busy for read cycles: 8029242
3banks busy for write cycles: 239389
4banks busy for read cycles: 3852561
4banks busy for write cycles: 221002
5banks busy for read cycles: 3087849
5banks busy for write cycles: 235866
6banks busy for read cycles: 1901703
6banks busy for write cycles: 299233
7banks busy for read cycles: 727999
7banks busy for write cycles: 836331
8banks busy for read cycles: 982983
8banks busy for write cycles: 8234813

CPU 0 Branch Prediction Accuracy: 93.3169% MPKI: 11.1129 Average ROB Occupancy at Mispredict: 21.9032
Branch types
NOT_BRANCH: 166743420 83.3717%
BRANCH_DIRECT_JUMP: 1094608 0.547304%
BRANCH_INDIRECT: 6209 0.0031045%
BRANCH_CONDITIONAL: 20616346 10.3082%
BRANCH_DIRECT_CALL: 5769438 2.88472%
BRANCH_INDIRECT_CALL: 272 0.000136%
BRANCH_RETURN: 5769712 2.88486%
BRANCH_OTHER: 0 0%

DRAM PAGES: 1048576
Allocated PAGES: 2275
