
*** ChampSim Multicore Out-of-Order Simulator ***

Warmup Instructions: 50000000
Simulation Instructions: 200000000
Number of CPUs: 1
LLC sets: 2048
LLC ways: 16
L0D sets: 16
L0D ways: 2
ROB size: 352
LQ size: 128
SQ size: 72
Secure Berti: OFF
Berti: OFF
Berti Fill: OFF
On commit prefetching: ON
Hit-based filter: OFF
Time-guarding: ON
Free-slotting: ON
Leap-frogging: ON
Train prefetcher on L0D bypass: OFF
No translation penalty for prefetchers: OFF
Prefetch to L0D only: OFF
Prefetch to L1D only: OFF
Clean evictions: ON
Commit loads: ON
Commit write: ON
Fill commit loads to L2C, LLC: ON
DRAM IO FREQUENCY: 6400
ROB SIZE: 352
Off-chip DRAM Size: 4096 MB Channels: 1 Width: 64-bit Data Rate: 6400 MT/s
CPU 0 runs /home/sumon/secure_berti/GhostMinion/../../traces/spec/654.roms_s-1070B.champsimtrace.xz
.xz
BTB has LRU replacement policy
ITLB has LRU replacement policy
DTLB has LRU replacement policy
STLB has LRU replacement policy
L1I has LRU replacement policy
L0D has LRU replacement policy
History Sets: 8
History Ways: 16
BERTI Size: 16
BERTI Stride Size: 16
History Sets: 8
History Ways: 16
BERTI Size: 16
BERTI Stride Size: 16
L1D has LRU replacement policy
L2C has LRU replacement policy
LLC has LRU replacement policy
Heartbeat CPU 0 instructions: 10000002 cycles: 4632597 heartbeat IPC: 2.15862 cumulative IPC: 2.15862 (Simulation time: 0 hr 0 min 54 sec) 
Heartbeat CPU 0 instructions: 20000002 cycles: 8568694 heartbeat IPC: 2.54059 cumulative IPC: 2.33408 (Simulation time: 0 hr 2 min 22 sec) 
Heartbeat CPU 0 instructions: 30000003 cycles: 11795540 heartbeat IPC: 3.099 cumulative IPC: 2.54333 (Simulation time: 0 hr 3 min 50 sec) 
Heartbeat CPU 0 instructions: 40000001 cycles: 17135193 heartbeat IPC: 1.87278 cumulative IPC: 2.33438 (Simulation time: 0 hr 5 min 11 sec) 
Heartbeat CPU 0 instructions: 50000001 cycles: 20482217 heartbeat IPC: 2.98773 cumulative IPC: 2.44114 (Simulation time: 0 hr 6 min 4 sec) 

Warmup complete CPU 0 instructions: 50000001 cycles: 20482217 (Simulation time: 0 hr 6 min 4 sec) 

Heartbeat CPU 0 instructions: 60000000 cycles: 35890254 heartbeat IPC: 0.649012 cumulative IPC: 0.649012 (Simulation time: 0 hr 7 min 23 sec) 
Heartbeat CPU 0 instructions: 70000002 cycles: 46642742 heartbeat IPC: 0.930017 cumulative IPC: 0.764511 (Simulation time: 0 hr 8 min 25 sec) 
Heartbeat CPU 0 instructions: 80000003 cycles: 60213873 heartbeat IPC: 0.736858 cumulative IPC: 0.755066 (Simulation time: 0 hr 9 min 32 sec) 
Heartbeat CPU 0 instructions: 90000000 cycles: 72892416 heartbeat IPC: 0.788734 cumulative IPC: 0.76321 (Simulation time: 0 hr 10 min 47 sec) 
Heartbeat CPU 0 instructions: 100000003 cycles: 83497282 heartbeat IPC: 0.942964 cumulative IPC: 0.793461 (Simulation time: 0 hr 11 min 48 sec) 
Heartbeat CPU 0 instructions: 110000000 cycles: 99144873 heartbeat IPC: 0.639076 cumulative IPC: 0.762751 (Simulation time: 0 hr 13 min 8 sec) 
Heartbeat CPU 0 instructions: 120000002 cycles: 109385345 heartbeat IPC: 0.976518 cumulative IPC: 0.787374 (Simulation time: 0 hr 14 min 9 sec) 
Heartbeat CPU 0 instructions: 130000002 cycles: 123325609 heartbeat IPC: 0.717347 cumulative IPC: 0.777882 (Simulation time: 0 hr 15 min 19 sec) 
Heartbeat CPU 0 instructions: 140000001 cycles: 135506542 heartbeat IPC: 0.820955 cumulative IPC: 0.782443 (Simulation time: 0 hr 16 min 32 sec) 
Heartbeat CPU 0 instructions: 150000001 cycles: 146596865 heartbeat IPC: 0.901687 cumulative IPC: 0.792929 (Simulation time: 0 hr 17 min 48 sec) 
Heartbeat CPU 0 instructions: 160000000 cycles: 161638708 heartbeat IPC: 0.664812 cumulative IPC: 0.779277 (Simulation time: 0 hr 19 min 31 sec) 
Heartbeat CPU 0 instructions: 170000000 cycles: 172217618 heartbeat IPC: 0.945277 cumulative IPC: 0.79085 (Simulation time: 0 hr 20 min 22 sec) 
Heartbeat CPU 0 instructions: 180000002 cycles: 186796265 heartbeat IPC: 0.685935 cumulative IPC: 0.781654 (Simulation time: 0 hr 21 min 22 sec) 
Heartbeat CPU 0 instructions: 190000000 cycles: 198447779 heartbeat IPC: 0.858257 cumulative IPC: 0.786669 (Simulation time: 0 hr 22 min 20 sec) 
Heartbeat CPU 0 instructions: 200000001 cycles: 210636556 heartbeat IPC: 0.820427 cumulative IPC: 0.788833 (Simulation time: 0 hr 23 min 13 sec) 
Heartbeat CPU 0 instructions: 210000001 cycles: 225446912 heartbeat IPC: 0.675203 cumulative IPC: 0.780622 (Simulation time: 0 hr 24 min 17 sec) 
Heartbeat CPU 0 instructions: 220000000 cycles: 237776881 heartbeat IPC: 0.811032 cumulative IPC: 0.782348 (Simulation time: 0 hr 25 min 14 sec) 
Heartbeat CPU 0 instructions: 230000002 cycles: 253213119 heartbeat IPC: 0.647826 cumulative IPC: 0.773425 (Simulation time: 0 hr 27 min 18 sec) 
Heartbeat CPU 0 instructions: 240000000 cycles: 266382909 heartbeat IPC: 0.759313 cumulative IPC: 0.77267 (Simulation time: 0 hr 28 min 48 sec) 
Heartbeat CPU 0 instructions: 250000001 cycles: 279392766 heartbeat IPC: 0.768648 cumulative IPC: 0.772468 (Simulation time: 0 hr 29 min 40 sec) 
Finished CPU 0 instructions: 200000000 cycles: 258910549 cumulative IPC: 0.772468 (Simulation time: 0 hr 29 min 40 sec) 
 Instruction ID: 250000033

ChampSim completed all CPUs

Region of Interest Statistics

CPU 0 cumulative IPC: 0.772468 instructions: 200000000 cycles: 258910549
ITLB SPEC fills:          0  NON-SPEC fills:          0
ITLB Test counter :          0
ITLB Leapfrog:          0
ITLB MSHR merge:          0
ITLB TOTAL     ACCESS:   29135479  HIT:   29135478  MISS:          1  HIT %:        100  MISS %: 3.43224e-06   MPKI: 5e-06
ITLB LOAD TRANSLATION NON_SPEC    ACCESS:   29135479  HIT:   29135478  MISS:          1  HIT %:        100  MISS %: 3.43224e-06   MPKI: 5e-06
ITLB PREFETCH  REQUESTED:          0  ISSUED:          0  USEFUL:          0  USELESS:          0
ITLB USEFUL LOAD PREFETCHES:          0 PREFETCH ISSUED TO LOWER LEVEL:          0  ACCURACY: -nan
ITLB TIMELY PREFETCHES:          0 LATE PREFETCHES: 0 DROPPED PREFETCHES: 0
ITLB COMMIT LATE PREFETCHES: 0 NORMAL LATE: 0 MISSED OPPORTUNITY: 0 UNCOVERED: 0
ITLB PREFETCHES SAME FILL-ORIGIN LEVEL: 0 DIFFERENT FILL-ORIGIN LEVEL: 0
ITLB AVERAGE MISS LATENCY: 564 cycles
ITLB AVERAGE MISS LATENCY LOAD: -nan cycles
ITLB AVERAGE MISS LATENCY PREFETCH: -nan cycles
ITLB AVERAGE MSHR OCCUPANCY: 0
ITLB MSHR FULL: 0
ITLB RQ	ACCESS:   33358647	FORWARD:          0	MERGED:    4223169	TO_CACHE:   29135478

DTLB SPEC fills:          0  NON-SPEC fills:          0
DTLB Test counter :          0
DTLB Leapfrog:          0
DTLB MSHR merge:          0
DTLB TOTAL     ACCESS:   55537926  HIT:   55431920  MISS:     106006  HIT %:    99.8091  MISS %:   0.190871   MPKI: 0.53003
DTLB LOAD TRANSLATION NON_SPEC    ACCESS:   55537926  HIT:   55431920  MISS:     106006  HIT %:    99.8091  MISS %:   0.190871   MPKI: 0.53003
DTLB PREFETCH  REQUESTED:          0  ISSUED:          0  USEFUL:          0  USELESS:          0
DTLB USEFUL LOAD PREFETCHES:          0 PREFETCH ISSUED TO LOWER LEVEL:          0  ACCURACY: -nan
DTLB TIMELY PREFETCHES:          0 LATE PREFETCHES: 0 DROPPED PREFETCHES: 0
DTLB COMMIT LATE PREFETCHES: 0 NORMAL LATE: 0 MISSED OPPORTUNITY: 0 UNCOVERED: 0
DTLB PREFETCHES SAME FILL-ORIGIN LEVEL: 0 DIFFERENT FILL-ORIGIN LEVEL: 0
DTLB AVERAGE MISS LATENCY: 229.482 cycles
DTLB AVERAGE MISS LATENCY LOAD: -nan cycles
DTLB AVERAGE MISS LATENCY PREFETCH: -nan cycles
DTLB AVERAGE MSHR OCCUPANCY: 0.0286737
DTLB MSHR FULL: 8.52045e-05
DTLB RQ	ACCESS:   62865101	FORWARD:          0	MERGED:    7227188	TO_CACHE:   55637913

STLB SPEC fills:          0  NON-SPEC fills:          0
STLB Test counter :          0
STLB Leapfrog:          0
STLB MSHR merge:          0
STLB TOTAL     ACCESS:   25237350  HIT:   25141064  MISS:      96286  HIT %:    99.6185  MISS %:   0.381522   MPKI: 0.48143
STLB LOAD TRANSLATION NON_SPEC    ACCESS:     106007  HIT:      51344  MISS:      54663  HIT %:    48.4345  MISS %:    51.5655   MPKI: 0.273315
STLB TRANSLATION FROM L1D PREFETCHER NON_SPEC    ACCESS:   25131343  HIT:   25089720  MISS:      41623  HIT %:    99.8344  MISS %:   0.165622   MPKI: 0.208115
STLB PREFETCH  REQUESTED:          0  ISSUED:          0  USEFUL:      41623  USELESS:          1
STLB USEFUL LOAD PREFETCHES:      41623 PREFETCH ISSUED TO LOWER LEVEL:          0  ACCURACY: inf
STLB TIMELY PREFETCHES:      41623 LATE PREFETCHES: 14205 DROPPED PREFETCHES: 1328028
STLB COMMIT LATE PREFETCHES: 0 NORMAL LATE: 0 MISSED OPPORTUNITY: 0 UNCOVERED: 0
STLB PREFETCHES SAME FILL-ORIGIN LEVEL: 0 DIFFERENT FILL-ORIGIN LEVEL: 0
STLB AVERAGE MISS LATENCY: 300.714 cycles
STLB AVERAGE MISS LATENCY LOAD: -nan cycles
STLB AVERAGE MISS LATENCY PREFETCH: -nan cycles
STLB AVERAGE MSHR OCCUPANCY: 0.358694
STLB MSHR FULL: 0
STLB RQ	ACCESS:   75648909	FORWARD:          0	MERGED:   48946560	TO_CACHE:   26702349

STLB Hit, L1D data hit: 0
STLB Hit, L2C data hit: 0
STLB Hit, LLC data hit: 0
STLB Hit, LLC data miss: 0
STLB STLB hints to L2: 0
L0D SPEC fills:   28619795  NON-SPEC fills:          0
L0D TimeGuard Request with older TS:    3191457 Restricted eviction:     945627 read:     402590
L0D Test counter :          0
L0D Leapfrog:          0
L0D MSHR merge:    2606134
L0D TOTAL     ACCESS:   49539684  HIT:   12583686  MISS:   36955998  HIT %:    25.4012  MISS %:    74.5988   MPKI: 184.78
L0D LOAD      TOTAL       ACCESS:   49539684  HIT:   12583686  MISS:   36955998  HIT %:    25.4012  MISS %:    74.5988   MPKI: 184.78
L0D LOAD      NON_SPEC    ACCESS:    7528231  HIT:     137655  MISS:    7390576  HIT %:    1.82852  MISS %:    98.1715   MPKI: 36.9529
L0D LOAD      SPEC        ACCESS:   42011453  HIT:   12446031  MISS:   29565422  HIT %:    29.6253  MISS %:    70.3747   MPKI: 147.827
L0D PREFETCH  REQUESTED:          0  ISSUED:          0  USEFUL:          0  USELESS:          0
L0D USEFUL LOAD PREFETCHES:          0 PREFETCH ISSUED TO LOWER LEVEL:          0  ACCURACY: -nan
L0D TIMELY PREFETCHES:          0 LATE PREFETCHES: 0 DROPPED PREFETCHES: 0
L0D COMMIT LATE PREFETCHES: 0 NORMAL LATE: 0 MISSED OPPORTUNITY: 0 UNCOVERED: 0
L0D PREFETCHES SAME FILL-ORIGIN LEVEL: 0 DIFFERENT FILL-ORIGIN LEVEL: 0
L0D AVERAGE MISS LATENCY: 8.591 cycles
L0D AVERAGE MISS LATENCY LOAD: 8.591 cycles
L0D AVERAGE MISS LATENCY PREFETCH: -nan cycles
L0D AVERAGE MSHR OCCUPANCY: 1.44013
L0D MSHR FULL: 0.000422021
L0D RQ	ACCESS:   73913361	FORWARD:          0	MERGED:   21767547	TO_CACHE:   52145814
L0D WQ	ACCESS:   10719287	FORWARD:          0	MERGED:          0	TO_CACHE:   10719287

L1D SPEC fills:          0  NON-SPEC fills:      12176
L1D Test counter :     514054
L1D Leapfrog:          0
L1D MSHR merge:     228977
L1D TOTAL     ACCESS:  157134071  HIT:  150920013  MISS:    6214058  HIT %:    96.0454  MISS %:    3.95462   MPKI: 31.0703
L1D LOAD      TOTAL       ACCESS:   36950444  HIT:   36360482  MISS:     589962  HIT %:    98.4034  MISS %:    1.59663   MPKI: 2.94981
L1D LOAD      NON_SPEC    ACCESS:    7390405  HIT:    7378229  MISS:      12176  HIT %:    99.8352  MISS %:   0.164754   MPKI: 0.06088
L1D LOAD      SPEC        ACCESS:   29560039  HIT:   28982253  MISS:     577786  HIT %:    98.0454  MISS %:    1.95462   MPKI: 2.88893
L1D RFO       NON_SPEC    ACCESS:    7674955  HIT:    7123775  MISS:     551180  HIT %:    92.8185  MISS %:    7.18154   MPKI: 2.7559
L1D PREFETCH  NON_SPEC    ACCESS:   58407621  HIT:   53842196  MISS:    4565425  HIT %:    92.1835  MISS %:    7.81649   MPKI: 22.8271
L1D COMMIT LOAD NON_SPEC    ACCESS:   27565681  HIT:   27549124  MISS:      16557  HIT %:    99.9399  MISS %:  0.0600638   MPKI: 0.082785
L1D COMMIT WRITE NON_SPEC    ACCESS:   26535370  HIT:   26044436  MISS:     490934  HIT %:    98.1499  MISS %:    1.85011   MPKI: 2.45467
L1D PREFETCH  REQUESTED:  280586706  ISSUED:   84441969  USEFUL:    2864892  USELESS:    1700594
L1D USEFUL LOAD PREFETCHES:    2864892 PREFETCH ISSUED TO LOWER LEVEL:   14827789  ACCURACY: 19.3211
L1D TIMELY PREFETCHES:    2864892 LATE PREFETCHES: 224170 DROPPED PREFETCHES: 1816928
L1D COMMIT LATE PREFETCHES: 155094 NORMAL LATE: 206890 MISSED OPPORTUNITY: 16926 UNCOVERED: 218311
L1D PREFETCHES SAME FILL-ORIGIN LEVEL: 4980588 DIFFERENT FILL-ORIGIN LEVEL: 9847201
L1D AVERAGE MISS LATENCY: 212.124 cycles
L1D AVERAGE MISS LATENCY LOAD: 207.295 cycles
L1D AVERAGE MISS LATENCY PREFETCH: 227.277 cycles
L1D AVERAGE MSHR OCCUPANCY: 5.92993
L1D MSHR FULL: 0.0557045
L1D RQ	ACCESS:   76694509	FORWARD:          0	MERGED:   11535291	TO_CACHE:   64533010
L1D WQ	ACCESS:   37260034	FORWARD:     626208	MERGED:      11353	TO_CACHE:   37248681
L1D PQ	ACCESS:   84441969	FORWARD:          0	MERGED:    8899067	TO_CACHE:   75542902

L1D UNIQUE REGIONS ACCESSED: 0
L1D REGIONS CONFLICTS: 0
L1D Cross Page Prefetch Requests: 21126736
L1D Same Page Prefetch Requests: 87988882
L1D ROI Sum of L1D PQ occupancy: 2516917089
L1D PREFETCHES PUSHED FROM L2C: 0
L1I SPEC fills:          0  NON-SPEC fills:          0
L1I Test counter :          0
L1I Leapfrog:          0
L1I MSHR merge:         32
L1I TOTAL     ACCESS:   33358615  HIT:   33358565  MISS:         50  HIT %:    99.9999  MISS %: 0.000149886   MPKI: 0.00025
L1I LOAD      TOTAL       ACCESS:   33358615  HIT:   33358565  MISS:         50  HIT %:    99.9999  MISS %: 0.000149886   MPKI: 0.00025
L1I LOAD      NON_SPEC    ACCESS:   33358615  HIT:   33358565  MISS:         50  HIT %:    99.9999  MISS %: 0.000149886   MPKI: 0.00025
L1I PREFETCH  REQUESTED:          0  ISSUED:          0  USEFUL:          0  USELESS:          0
L1I USEFUL LOAD PREFETCHES:          0 PREFETCH ISSUED TO LOWER LEVEL:          0  ACCURACY: -nan
L1I TIMELY PREFETCHES:          0 LATE PREFETCHES: 0 DROPPED PREFETCHES: 0
L1I COMMIT LATE PREFETCHES: 0 NORMAL LATE: 0 MISSED OPPORTUNITY: 0 UNCOVERED: 0
L1I PREFETCHES SAME FILL-ORIGIN LEVEL: 0 DIFFERENT FILL-ORIGIN LEVEL: 0
L1I AVERAGE MISS LATENCY: 299.04 cycles
L1I AVERAGE MISS LATENCY LOAD: 299.04 cycles
L1I AVERAGE MISS LATENCY PREFETCH: -nan cycles
L1I AVERAGE MSHR OCCUPANCY: 2.42816e-06
L1I MSHR FULL: 0
L1I RQ	ACCESS:   52533954	FORWARD:          0	MERGED:   19175307	TO_CACHE:   33358647

BTB SPEC fills:          0  NON-SPEC fills:          0
BTB Test counter :          0
BTB Leapfrog:          0
BTB MSHR merge:          0
BTB TOTAL     ACCESS:   10637189  HIT:   10637168  MISS:         21  HIT %:    99.9998  MISS %: 0.000197421   MPKI: 0.000105
BTB BRANCH_DIRECT_JUMP	ACCESS:      26624  HIT:      26622  MISS:          2
BTB BRANCH_INDIRECT	ACCESS:          0  HIT:          0  MISS:          0
BTB BRANCH_CONDITIONAL	ACCESS:   10610565  HIT:   10610546  MISS:         19
BTB BRANCH_DIRECT_CALL	ACCESS:          0  HIT:          0  MISS:          0
BTB BRANCH_INDIRECT_CALL	ACCESS:          0  HIT:          0  MISS:          0
BTB BRANCH_RETURN	ACCESS:          0  HIT:          0  MISS:          0
BTB BRANCH_OTHER ACCESS:          0  HIT:          0  MISS:          0

L2C SPEC fills:          0  NON-SPEC fills:       4923
L2C Test counter :          0
L2C Leapfrog:          0
L2C MSHR merge:      34032
L2C TOTAL     ACCESS:   23350412  HIT:   18677024  MISS:    4673388  HIT %:    79.9858  MISS %:    20.0142   MPKI: 23.3669
L2C LOAD      TOTAL       ACCESS:     366568  HIT:     206997  MISS:     159571  HIT %:    56.4689  MISS %:    43.5311   MPKI: 0.797855
L2C LOAD      NON_SPEC    ACCESS:       8873  HIT:       3900  MISS:       4973  HIT %:    43.9536  MISS %:    56.0464   MPKI: 0.024865
L2C LOAD      SPEC        ACCESS:     357695  HIT:     203097  MISS:     154598  HIT %:    56.7794  MISS %:    43.2206   MPKI: 0.77299
L2C RFO       NON_SPEC    ACCESS:     395418  HIT:      86194  MISS:     309224  HIT %:    21.7982  MISS %:    78.2018   MPKI: 1.54612
L2C PREFETCH  NON_SPEC    ACCESS:   10758869  HIT:    6704896  MISS:    4053973  HIT %:    62.3197  MISS %:    37.6803   MPKI: 20.2699
L2C WRITEBACK NON_SPEC    ACCESS:    1349151  HIT:    1349127  MISS:         24  HIT %:    99.9982  MISS %:  0.0017789   MPKI: 0.00012
L2C CLEAN_EVICTION NON_SPEC    ACCESS:    3290027  HIT:    3162508  MISS:     127519  HIT %:    96.1241  MISS %:    3.87593   MPKI: 0.637595
L2C COMMIT LOAD NON_SPEC    ACCESS:      15809  HIT:      12425  MISS:       3384  HIT %:    78.5945  MISS %:    21.4055   MPKI: 0.01692
L2C LOAD TRANSLATION NON_SPEC    ACCESS:     256014  HIT:     247195  MISS:       8819  HIT %:    96.5553  MISS %:    3.44473   MPKI: 0.044095
L2C TRANSLATION FROM L1D PREFETCHER NON_SPEC    ACCESS:    6918556  HIT:    6907682  MISS:      10874  HIT %:    99.8428  MISS %:   0.157172   MPKI: 0.05437
L2C PREFETCH  REQUESTED:          0  ISSUED:          0  USEFUL:     272152  USELESS:    3793771
L2C USEFUL LOAD PREFETCHES:     272152 PREFETCH ISSUED TO LOWER LEVEL:    4298167  ACCURACY: 6.33182
L2C TIMELY PREFETCHES:     272152 LATE PREFETCHES: 244174 DROPPED PREFETCHES: 0
L2C COMMIT LATE PREFETCHES: 0 NORMAL LATE: 244611 MISSED OPPORTUNITY: 0 UNCOVERED: 125102
L2C PREFETCHES SAME FILL-ORIGIN LEVEL: 1644016 DIFFERENT FILL-ORIGIN LEVEL: 0
L2C AVERAGE MISS LATENCY: 426.951 cycles
L2C AVERAGE MISS LATENCY LOAD: 336.481 cycles
L2C AVERAGE MISS LATENCY PREFETCH: 438.673 cycles
L2C AVERAGE MSHR OCCUPANCY: 7.95414
L2C MSHR FULL: 0.00983022
L2C RQ	ACCESS:    7952387	FORWARD:          0	MERGED:          0	TO_CACHE:    7952365
L2C WQ	ACCESS:    4639224	FORWARD:        219	MERGED:         46	TO_CACHE:    4639178
L2C PQ	ACCESS:   14255847	FORWARD:          0	MERGED:      47543	TO_CACHE:   14208107

L2C Instructions Evicting Data 50
L2C Translations Evicting Data 19640
L2C Data Evicting Data 4352430
L2C Instructions Evicting Instructions 0
L2C Translations Evicting Instructions 1
L2C Data Evicting Instructions 47
L2C Instructions Evicting Translations 0
L2C Translations Evicting Translations 52
L2C Data Evicting Translations 19027
L2C Dense regions hint from L2: 0
PSCL5 SPEC fills:          0  NON-SPEC fills:          0
PSCL5 Test counter :          0
PSCL5 Leapfrog:          0
PSCL5 MSHR merge:          0
PSCL5 TOTAL     ACCESS:          0  HIT:          0  MISS:          0  HIT %:       -nan  MISS %:       -nan   MPKI: 0
PSCL5 PREFETCH  REQUESTED:          0  ISSUED:          0  USEFUL:          0  USELESS:          0
PSCL5 USEFUL LOAD PREFETCHES:          0 PREFETCH ISSUED TO LOWER LEVEL:          0  ACCURACY: -nan
PSCL5 TIMELY PREFETCHES:          0 LATE PREFETCHES: 0 DROPPED PREFETCHES: 0
PSCL5 COMMIT LATE PREFETCHES: 0 NORMAL LATE: 0 MISSED OPPORTUNITY: 0 UNCOVERED: 0
PSCL5 PREFETCHES SAME FILL-ORIGIN LEVEL: 0 DIFFERENT FILL-ORIGIN LEVEL: 0

PSCL4 SPEC fills:          0  NON-SPEC fills:          0
PSCL4 Test counter :          0
PSCL4 Leapfrog:          0
PSCL4 MSHR merge:          0
PSCL4 TOTAL     ACCESS:          0  HIT:          0  MISS:          0  HIT %:       -nan  MISS %:       -nan   MPKI: 0
PSCL4 PREFETCH  REQUESTED:          0  ISSUED:          0  USEFUL:          0  USELESS:          0
PSCL4 USEFUL LOAD PREFETCHES:          0 PREFETCH ISSUED TO LOWER LEVEL:          0  ACCURACY: -nan
PSCL4 TIMELY PREFETCHES:          0 LATE PREFETCHES: 0 DROPPED PREFETCHES: 0
PSCL4 COMMIT LATE PREFETCHES: 0 NORMAL LATE: 0 MISSED OPPORTUNITY: 0 UNCOVERED: 0
PSCL4 PREFETCHES SAME FILL-ORIGIN LEVEL: 0 DIFFERENT FILL-ORIGIN LEVEL: 0

PSCL3 SPEC fills:          0  NON-SPEC fills:          0
PSCL3 Test counter :          0
PSCL3 Leapfrog:          0
PSCL3 MSHR merge:          0
PSCL3 TOTAL     ACCESS:          0  HIT:          0  MISS:          0  HIT %:       -nan  MISS %:       -nan   MPKI: 0
PSCL3 PREFETCH  REQUESTED:          0  ISSUED:          0  USEFUL:          0  USELESS:          0
PSCL3 USEFUL LOAD PREFETCHES:          0 PREFETCH ISSUED TO LOWER LEVEL:          0  ACCURACY: -nan
PSCL3 TIMELY PREFETCHES:          0 LATE PREFETCHES: 0 DROPPED PREFETCHES: 0
PSCL3 COMMIT LATE PREFETCHES: 0 NORMAL LATE: 0 MISSED OPPORTUNITY: 0 UNCOVERED: 0
PSCL3 PREFETCHES SAME FILL-ORIGIN LEVEL: 0 DIFFERENT FILL-ORIGIN LEVEL: 0

PSCL2 SPEC fills:          0  NON-SPEC fills:          0
PSCL2 Test counter :          0
PSCL2 Leapfrog:          0
PSCL2 MSHR merge:          0
PSCL2 TOTAL     ACCESS:          0  HIT:          0  MISS:          0  HIT %:       -nan  MISS %:       -nan   MPKI: 0
PSCL2 PREFETCH  REQUESTED:          0  ISSUED:          0  USEFUL:          0  USELESS:          0
PSCL2 USEFUL LOAD PREFETCHES:          0 PREFETCH ISSUED TO LOWER LEVEL:          0  ACCURACY: -nan
PSCL2 TIMELY PREFETCHES:          0 LATE PREFETCHES: 0 DROPPED PREFETCHES: 0
PSCL2 COMMIT LATE PREFETCHES: 0 NORMAL LATE: 0 MISSED OPPORTUNITY: 0 UNCOVERED: 0
PSCL2 PREFETCHES SAME FILL-ORIGIN LEVEL: 0 DIFFERENT FILL-ORIGIN LEVEL: 0

LLC SPEC fills:          0  NON-SPEC fills:       4795
LLC Test counter :          0
LLC Leapfrog:          0
LLC MSHR merge:          0
LLC TOTAL     ACCESS:    8829281  HIT:    4190432  MISS:    4638849  HIT %:    47.4606  MISS %:    52.5394   MPKI: 23.1942
LLC LOAD      TOTAL       ACCESS:     125539  HIT:        547  MISS:     124992  HIT %:   0.435721  MISS %:    99.5643   MPKI: 0.62496
LLC LOAD      NON_SPEC    ACCESS:       4845  HIT:          0  MISS:       4845  HIT %:          0  MISS %:        100   MPKI: 0.024225
LLC LOAD      SPEC        ACCESS:     120694  HIT:        547  MISS:     120147  HIT %:   0.453212  MISS %:    99.5468   MPKI: 0.600735
LLC RFO       NON_SPEC    ACCESS:      99088  HIT:          0  MISS:      99088  HIT %:          0  MISS %:        100   MPKI: 0.49544
LLC PREFETCH  NON_SPEC    ACCESS:    4298147  HIT:       9787  MISS:    4288360  HIT %:   0.227703  MISS %:    99.7723   MPKI: 21.4418
LLC WRITEBACK NON_SPEC    ACCESS:    1345379  HIT:    1345358  MISS:         21  HIT %:    99.9984  MISS %:  0.0015609   MPKI: 0.000105
LLC CLEAN_EVICTION NON_SPEC    ACCESS:    2938057  HIT:    2834621  MISS:     103436  HIT %:    96.4794  MISS %:    3.52056   MPKI: 0.51718
LLC COMMIT LOAD NON_SPEC    ACCESS:       3378  HIT:        111  MISS:       3267  HIT %:    3.28597  MISS %:     96.714   MPKI: 0.016335
LLC LOAD TRANSLATION NON_SPEC    ACCESS:       8819  HIT:          0  MISS:       8819  HIT %:          0  MISS %:        100   MPKI: 0.044095
LLC TRANSLATION FROM L1D PREFETCHER NON_SPEC    ACCESS:      10874  HIT:          8  MISS:      10866  HIT %:    0.07357  MISS %:    99.9264   MPKI: 0.05433
LLC PREFETCH  REQUESTED:          0  ISSUED:          0  USEFUL:        645  USELESS:    4298183
LLC USEFUL LOAD PREFETCHES:        645 PREFETCH ISSUED TO LOWER LEVEL:    4288379  ACCURACY: 0.0150406
LLC TIMELY PREFETCHES:        645 LATE PREFETCHES: 0 DROPPED PREFETCHES: 0
LLC COMMIT LATE PREFETCHES: 0 NORMAL LATE: 0 MISSED OPPORTUNITY: 0 UNCOVERED: 0
LLC PREFETCHES SAME FILL-ORIGIN LEVEL: 0 DIFFERENT FILL-ORIGIN LEVEL: 0
LLC AVERAGE MISS LATENCY: 410.443 cycles
LLC AVERAGE MISS LATENCY LOAD: 304.999 cycles
LLC AVERAGE MISS LATENCY PREFETCH: 422.635 cycles
LLC AVERAGE MSHR OCCUPANCY: 6.7361
LLC MSHR FULL: 0
LLC RQ	ACCESS:     247698	FORWARD:          0	MERGED:          0	TO_CACHE:     247698
LLC WQ	ACCESS:    4283436	FORWARD:          0	MERGED:          0	TO_CACHE:    4283436
LLC PQ	ACCESS:    4298167	FORWARD:          0	MERGED:          0	TO_CACHE:    4298167

LLC Dense regions hint to LLC: 0

RAW hits: 17
Loads Generated: 73913380
Loads sent to L1D: 73913361
Stores Generated: 10719287
Stores sent to L1D: 10719287
Major fault: 0 Minor fault: 51871
Allocated PAGES: 51871
Total Load insts: 92757189
Total Non-spec loads: 8155247
Percentage of speculative loads: 91.208

LeapFrogging counter: 270202
Commit hits: 26548952 miss: 39738512
Commit hit %: 40.0512 miss %: 59.9488
Commits not translated: 0
Loads retired: 589962
Stores retired: 10719287
Cache fills: 589962
L1D response latency: 207.295 cycles
Load retirement latency: 326.167 cycles
OOO test counter: 0
Discarded buffer inserts: 26548952 hits: 22109 hit %: 0.0832764
Filter prediction accuracy: -nan
LATENCY_FILL: 195.292 1026398
test counter pref: 35909315

DRAM Statistics
 CHANNEL 0
 RQ ROW_BUFFER_HIT:     689055  ROW_BUFFER_MISS:    3846337
 DBUS_CONGESTED:        790
 WQ ROW_BUFFER_HIT:     904280  ROW_BUFFER_MISS:    3379618  FULL:       5566

 AVG_CONGESTED_CYCLE: 5
 All warmup complete: 2
Channel 0 Bank busy for read cycles: 0
Channel 0 Bank busy for write cycles: 0
Channel 0
Rank 0
0banks busy for read cycles: 448140
0banks busy for write cycles: 678
1banks busy for read cycles: 23868583
1banks busy for write cycles: 576778
2banks busy for read cycles: 23785170
2banks busy for write cycles: 583300
3banks busy for read cycles: 20267492
3banks busy for write cycles: 586238
4banks busy for read cycles: 17896174
4banks busy for write cycles: 619757
5banks busy for read cycles: 17210323
5banks busy for write cycles: 662302
6banks busy for read cycles: 15382247
6banks busy for write cycles: 809948
7banks busy for read cycles: 14633314
7banks busy for write cycles: 5624767
8banks busy for read cycles: 23556503
8banks busy for write cycles: 92398836

CPU 0 Branch Prediction Accuracy: 99.8819% MPKI: 0.062825 Average ROB Occupancy at Mispredict: 216.152
Branch types
NOT_BRANCH: 189359358 94.6797%
BRANCH_DIRECT_JUMP: 26624 0.013312%
BRANCH_INDIRECT: 0 0%
BRANCH_CONDITIONAL: 10613668 5.30683%
BRANCH_DIRECT_CALL: 0 0%
BRANCH_INDIRECT_CALL: 0 0%
BRANCH_RETURN: 0 0%
BRANCH_OTHER: 0 0%

DRAM PAGES: 1048576
Allocated PAGES: 51871
