
*** ChampSim Multicore Out-of-Order Simulator ***

Warmup Instructions: 50000000
Simulation Instructions: 200000000
Number of CPUs: 1
LLC sets: 2048
LLC ways: 16
L0D sets: 16
L0D ways: 2
ROB size: 352
LQ size: 128
SQ size: 72
Secure Berti: OFF
Berti: OFF
Berti Fill: OFF
On commit prefetching: OFF
Hit-based filter: ON
Time-guarding: ON
Free-slotting: ON
Leap-frogging: ON
Train prefetcher on L0D bypass: OFF
No translation penalty for prefetchers: OFF
Prefetch to L0D only: OFF
Prefetch to L1D only: OFF
Clean evictions: ON
Commit loads: ON
Commit write: ON
Fill commit loads to L2C, LLC: ON
DRAM IO FREQUENCY: 6400
ROB SIZE: 352
Off-chip DRAM Size: 4096 MB Channels: 1 Width: 64-bit Data Rate: 6400 MT/s
CPU 0 runs /home/sumon/secure_berti/GhostMinion/../../traces/spec/603.bwaves_s-2609B.champsimtrace.xz
.xz
BTB has LRU replacement policy
ITLB has LRU replacement policy
DTLB has LRU replacement policy
STLB has LRU replacement policy
L1I has LRU replacement policy
L0D has LRU replacement policy
IP Table Entries: 1024
CSPT Entries: 128
RR_ENTRIES: 32
RST_ENTRIES: 8
L1D has LRU replacement policy
L2C has LRU replacement policy
LLC has LRU replacement policy
Heartbeat CPU 0 instructions: 10000002 cycles: 3579401 heartbeat IPC: 2.79376 cumulative IPC: 2.79376 (Simulation time: 0 hr 0 min 45 sec) 
Heartbeat CPU 0 instructions: 20000003 cycles: 7160443 heartbeat IPC: 2.79248 cumulative IPC: 2.79312 (Simulation time: 0 hr 1 min 31 sec) 
Heartbeat CPU 0 instructions: 30000001 cycles: 10742235 heartbeat IPC: 2.7919 cumulative IPC: 2.79272 (Simulation time: 0 hr 2 min 18 sec) 
Heartbeat CPU 0 instructions: 40000002 cycles: 14323939 heartbeat IPC: 2.79197 cumulative IPC: 2.79253 (Simulation time: 0 hr 3 min 4 sec) 
Heartbeat CPU 0 instructions: 50000003 cycles: 17902753 heartbeat IPC: 2.79422 cumulative IPC: 2.79287 (Simulation time: 0 hr 3 min 52 sec) 

Warmup complete CPU 0 instructions: 50000003 cycles: 17902753 (Simulation time: 0 hr 3 min 52 sec) 

Heartbeat CPU 0 instructions: 60000000 cycles: 27661761 heartbeat IPC: 1.02469 cumulative IPC: 1.02469 (Simulation time: 0 hr 4 min 33 sec) 
Heartbeat CPU 0 instructions: 70000000 cycles: 37420684 heartbeat IPC: 1.0247 cumulative IPC: 1.0247 (Simulation time: 0 hr 5 min 15 sec) 
Heartbeat CPU 0 instructions: 80000003 cycles: 47171530 heartbeat IPC: 1.02555 cumulative IPC: 1.02498 (Simulation time: 0 hr 5 min 56 sec) 
Heartbeat CPU 0 instructions: 90000003 cycles: 56931998 heartbeat IPC: 1.02454 cumulative IPC: 1.02487 (Simulation time: 0 hr 6 min 38 sec) 
Heartbeat CPU 0 instructions: 100000001 cycles: 66694303 heartbeat IPC: 1.02435 cumulative IPC: 1.02477 (Simulation time: 0 hr 7 min 20 sec) 
Heartbeat CPU 0 instructions: 110000000 cycles: 76447709 heartbeat IPC: 1.02528 cumulative IPC: 1.02485 (Simulation time: 0 hr 8 min 2 sec) 
Heartbeat CPU 0 instructions: 120000000 cycles: 86207427 heartbeat IPC: 1.02462 cumulative IPC: 1.02482 (Simulation time: 0 hr 8 min 43 sec) 
Heartbeat CPU 0 instructions: 130000003 cycles: 95949706 heartbeat IPC: 1.02645 cumulative IPC: 1.02502 (Simulation time: 0 hr 9 min 25 sec) 
Heartbeat CPU 0 instructions: 140000000 cycles: 105718992 heartbeat IPC: 1.02362 cumulative IPC: 1.02487 (Simulation time: 0 hr 10 min 7 sec) 
Heartbeat CPU 0 instructions: 150000003 cycles: 115474035 heartbeat IPC: 1.02511 cumulative IPC: 1.02489 (Simulation time: 0 hr 10 min 48 sec) 
Heartbeat CPU 0 instructions: 160000000 cycles: 125229454 heartbeat IPC: 1.02507 cumulative IPC: 1.02491 (Simulation time: 0 hr 11 min 30 sec) 
Heartbeat CPU 0 instructions: 170000000 cycles: 134983923 heartbeat IPC: 1.02517 cumulative IPC: 1.02493 (Simulation time: 0 hr 12 min 12 sec) 
Heartbeat CPU 0 instructions: 180000001 cycles: 144757741 heartbeat IPC: 1.02314 cumulative IPC: 1.02479 (Simulation time: 0 hr 12 min 52 sec) 
Heartbeat CPU 0 instructions: 190000000 cycles: 154524989 heartbeat IPC: 1.02383 cumulative IPC: 1.02472 (Simulation time: 0 hr 13 min 30 sec) 
Heartbeat CPU 0 instructions: 200000001 cycles: 164289535 heartbeat IPC: 1.02411 cumulative IPC: 1.02468 (Simulation time: 0 hr 14 min 9 sec) 
Heartbeat CPU 0 instructions: 210000003 cycles: 174050698 heartbeat IPC: 1.02447 cumulative IPC: 1.02467 (Simulation time: 0 hr 14 min 48 sec) 
Heartbeat CPU 0 instructions: 220000000 cycles: 183800442 heartbeat IPC: 1.02567 cumulative IPC: 1.02473 (Simulation time: 0 hr 15 min 26 sec) 
Heartbeat CPU 0 instructions: 230000002 cycles: 193560992 heartbeat IPC: 1.02453 cumulative IPC: 1.02472 (Simulation time: 0 hr 16 min 3 sec) 
Heartbeat CPU 0 instructions: 240000000 cycles: 203325695 heartbeat IPC: 1.0241 cumulative IPC: 1.02468 (Simulation time: 0 hr 16 min 39 sec) 
Heartbeat CPU 0 instructions: 250000002 cycles: 213078288 heartbeat IPC: 1.02537 cumulative IPC: 1.02472 (Simulation time: 0 hr 17 min 15 sec) 
Finished CPU 0 instructions: 200000003 cycles: 195175540 cumulative IPC: 1.02472 (Simulation time: 0 hr 17 min 15 sec) 
 Instruction ID: 250000052

ChampSim completed all CPUs

Region of Interest Statistics

CPU 0 cumulative IPC: 1.02472 instructions: 200000003 cycles: 195175540
ITLB SPEC fills:          0  NON-SPEC fills:          0
ITLB Test counter :          0
ITLB Leapfrog:          0
ITLB MSHR merge:          0
ITLB TOTAL     ACCESS:   25355539  HIT:   25355539  MISS:          0  HIT %:        100  MISS %:          0   MPKI: 0
ITLB LOAD TRANSLATION NON_SPEC    ACCESS:   25355539  HIT:   25355539  MISS:          0  HIT %:        100  MISS %:          0   MPKI: 0
ITLB PREFETCH  REQUESTED:          0  ISSUED:          0  USEFUL:          0  USELESS:          0
ITLB USEFUL LOAD PREFETCHES:          0 PREFETCH ISSUED TO LOWER LEVEL:          0  ACCURACY: -nan
ITLB TIMELY PREFETCHES:          0 LATE PREFETCHES: 0 DROPPED PREFETCHES: 0
ITLB COMMIT LATE PREFETCHES: 0 MISSED OPPORTUNITY: 0 LATE IN PQ: 0 UNCOVERED: 0
ITLB COMMIT LATE MSHR PREFETCHES: 0
ITLB MPKI TOTAL: 0 MSHR LATE: 0 PQ LATE: 0 COMMIT LATE: 0 MISSED OPPORTUNITY: 0 UNCOVERED: 0
ITLB PREFETCHES SAME FILL-ORIGIN LEVEL: 0 DIFFERENT FILL-ORIGIN LEVEL: 0
ITLB AVERAGE MISS LATENCY: -nan cycles
ITLB AVERAGE MISS LATENCY LOAD: -nan cycles
ITLB AVERAGE MISS LATENCY PREFETCH: -nan cycles
ITLB AVERAGE MSHR OCCUPANCY: 0
ITLB MSHR FULL: 0
ITLB RQ	ACCESS:   34398870	FORWARD:          0	MERGED:    9043331	TO_CACHE:   25355539

DTLB SPEC fills:          0  NON-SPEC fills:          0
DTLB Test counter :          0
DTLB Leapfrog:          0
DTLB MSHR merge:          0
DTLB TOTAL     ACCESS:   74037548  HIT:   73896284  MISS:     141264  HIT %:    99.8092  MISS %:     0.1908   MPKI: 0.70632
DTLB LOAD TRANSLATION NON_SPEC    ACCESS:   74037548  HIT:   73896284  MISS:     141264  HIT %:    99.8092  MISS %:     0.1908   MPKI: 0.70632
DTLB PREFETCH  REQUESTED:          0  ISSUED:          0  USEFUL:          0  USELESS:          0
DTLB USEFUL LOAD PREFETCHES:          0 PREFETCH ISSUED TO LOWER LEVEL:          0  ACCURACY: -nan
DTLB TIMELY PREFETCHES:          0 LATE PREFETCHES: 0 DROPPED PREFETCHES: 0
DTLB COMMIT LATE PREFETCHES: 0 MISSED OPPORTUNITY: 0 LATE IN PQ: 0 UNCOVERED: 0
DTLB COMMIT LATE MSHR PREFETCHES: 0
DTLB MPKI TOTAL: 0 MSHR LATE: 0 PQ LATE: 0 COMMIT LATE: 0 MISSED OPPORTUNITY: 0 UNCOVERED: 0
DTLB PREFETCHES SAME FILL-ORIGIN LEVEL: 0 DIFFERENT FILL-ORIGIN LEVEL: 0
DTLB AVERAGE MISS LATENCY: 289.51 cycles
DTLB AVERAGE MISS LATENCY LOAD: -nan cycles
DTLB AVERAGE MISS LATENCY PREFETCH: -nan cycles
DTLB AVERAGE MSHR OCCUPANCY: 0.0215817
DTLB MSHR FULL: 6.50749e-06
DTLB RQ	ACCESS:   86504796	FORWARD:          0	MERGED:   12436334	TO_CACHE:   74068462

STLB SPEC fills:          0  NON-SPEC fills:          0
STLB Test counter :          0
STLB Leapfrog:          0
STLB MSHR merge:          0
STLB TOTAL     ACCESS:   17315704  HIT:   17256322  MISS:      59382  HIT %:    99.6571  MISS %:   0.342937   MPKI: 0.29691
STLB LOAD TRANSLATION NON_SPEC    ACCESS:     141264  HIT:      81882  MISS:      59382  HIT %:    57.9638  MISS %:    42.0362   MPKI: 0.29691
STLB TRANSLATION FROM L1D PREFETCHER NON_SPEC    ACCESS:   17174440  HIT:   17174440  MISS:          0  HIT %:        100  MISS %:          0   MPKI: 0
STLB PREFETCH  REQUESTED:          0  ISSUED:          0  USEFUL:          0  USELESS:          0
STLB USEFUL LOAD PREFETCHES:          0 PREFETCH ISSUED TO LOWER LEVEL:          0  ACCURACY: -nan
STLB TIMELY PREFETCHES:          0 LATE PREFETCHES: 0 DROPPED PREFETCHES: 0
STLB COMMIT LATE PREFETCHES: 0 MISSED OPPORTUNITY: 0 LATE IN PQ: 0 UNCOVERED: 0
STLB COMMIT LATE MSHR PREFETCHES: 0
STLB MPKI TOTAL: 0 MSHR LATE: 0 PQ LATE: 0 COMMIT LATE: 0 MISSED OPPORTUNITY: 0 UNCOVERED: 0
STLB PREFETCHES SAME FILL-ORIGIN LEVEL: 0 DIFFERENT FILL-ORIGIN LEVEL: 0
STLB AVERAGE MISS LATENCY: 666.804 cycles
STLB AVERAGE MISS LATENCY LOAD: -nan cycles
STLB AVERAGE MISS LATENCY PREFETCH: -nan cycles
STLB AVERAGE MSHR OCCUPANCY: 0.0278622
STLB MSHR FULL: 0
STLB RQ	ACCESS:   66935583	FORWARD:          0	MERGED:   49619879	TO_CACHE:   17315704

STLB Hit, L1D data hit: 0
STLB Hit, L2C data hit: 0
STLB Hit, LLC data hit: 0
STLB Hit, LLC data miss: 0
STLB STLB hints to L2: 0
L0D SPEC fills:   48457863  NON-SPEC fills:          0
L0D TimeGuard Request with older TS:    1573100 Restricted eviction:   12240025 read:     167491
L0D Test counter :          0
L0D Leapfrog:          0
L0D MSHR merge:    2264370
L0D TOTAL     ACCESS:   72973627  HIT:    6678871  MISS:   66294756  HIT %:    9.15244  MISS %:    90.8476   MPKI: 331.474
L0D LOAD      TOTAL       ACCESS:   72973627  HIT:    6678871  MISS:   66294756  HIT %:    9.15244  MISS %:    90.8476   MPKI: 331.474
L0D LOAD      NON_SPEC    ACCESS:    5961417  HIT:     362026  MISS:    5599391  HIT %:    6.07282  MISS %:    93.9272   MPKI: 27.997
L0D LOAD      SPEC        ACCESS:   67012210  HIT:    6316845  MISS:   60695365  HIT %:    9.42641  MISS %:    90.5736   MPKI: 303.477
L0D PREFETCH  REQUESTED:          0  ISSUED:          0  USEFUL:          0  USELESS:          0
L0D USEFUL LOAD PREFETCHES:          0 PREFETCH ISSUED TO LOWER LEVEL:          0  ACCURACY: -nan
L0D TIMELY PREFETCHES:          0 LATE PREFETCHES: 0 DROPPED PREFETCHES: 0
L0D COMMIT LATE PREFETCHES: 0 MISSED OPPORTUNITY: 0 LATE IN PQ: 0 UNCOVERED: 0
L0D COMMIT LATE MSHR PREFETCHES: 0
L0D MPKI TOTAL: 342.796 MSHR LATE: 0 PQ LATE: 0 COMMIT LATE: 0 MISSED OPPORTUNITY: 0 UNCOVERED: 0
L0D PREFETCHES SAME FILL-ORIGIN LEVEL: 0 DIFFERENT FILL-ORIGIN LEVEL: 0
L0D AVERAGE MISS LATENCY: 5.646 cycles
L0D AVERAGE MISS LATENCY LOAD: 5.646 cycles
L0D AVERAGE MISS LATENCY PREFETCH: -nan cycles
L0D AVERAGE MSHR OCCUPANCY: 1.68636
L0D MSHR FULL: 0.0041867
L0D RQ	ACCESS:   85421570	FORWARD:          0	MERGED:   10183589	TO_CACHE:   75237981
L0D WQ	ACCESS:   11266815	FORWARD:          0	MERGED:          0	TO_CACHE:   11266815

L1D SPEC fills:          0  NON-SPEC fills:       1578
L1D Test counter :          0
L1D Leapfrog:          0
L1D MSHR merge:      76003
L1D TOTAL     ACCESS:  142599342  HIT:  138349208  MISS:    4250134  HIT %:    97.0195  MISS %:    2.98047   MPKI: 21.2507
L1D LOAD      TOTAL       ACCESS:   66270045  HIT:   66033832  MISS:     236213  HIT %:    99.6436  MISS %:    0.35644   MPKI: 1.18106
L1D LOAD      NON_SPEC    ACCESS:    5599233  HIT:    5597655  MISS:       1578  HIT %:    99.9718  MISS %:  0.0281824   MPKI: 0.00789
L1D LOAD      SPEC        ACCESS:   60670812  HIT:   60436177  MISS:     234635  HIT %:    99.6133  MISS %:   0.386735   MPKI: 1.17317
L1D RFO       NON_SPEC    ACCESS:   11175650  HIT:   11078202  MISS:      97448  HIT %:     99.128  MISS %:   0.871967   MPKI: 0.48724
L1D PREFETCH  NON_SPEC    ACCESS:   64815549  HIT:   61133336  MISS:    3682213  HIT %:    94.3189  MISS %:    5.68106   MPKI: 18.4111
L1D COMMIT LOAD NON_SPEC    ACCESS:     118805  HIT:      82386  MISS:      36419  HIT %:    69.3456  MISS %:    30.6544   MPKI: 0.182095
L1D COMMIT WRITE NON_SPEC    ACCESS:     219293  HIT:      21452  MISS:     197841  HIT %:    9.78235  MISS %:    90.2177   MPKI: 0.989205
L1D PREFETCH  REQUESTED:  127037238  ISSUED:   67121752  USEFUL:    3665824  USELESS:      16412
L1D USEFUL LOAD PREFETCHES:    3665824 PREFETCH ISSUED TO LOWER LEVEL:    3733941  ACCURACY: 98.1757
L1D TIMELY PREFETCHES:    3665824 LATE PREFETCHES: 51725 DROPPED PREFETCHES: 0
L1D COMMIT LATE PREFETCHES: 0 MISSED OPPORTUNITY: 0 LATE IN PQ: 0 UNCOVERED: 0
L1D COMMIT LATE MSHR PREFETCHES: 0
L1D MPKI TOTAL: 1.30461 MSHR LATE: 0.258625 PQ LATE: 0 COMMIT LATE: 0 MISSED OPPORTUNITY: 0 UNCOVERED: 0
L1D PREFETCHES SAME FILL-ORIGIN LEVEL: 3733941 DIFFERENT FILL-ORIGIN LEVEL: 0
L1D AVERAGE MISS LATENCY: 180.027 cycles
L1D AVERAGE MISS LATENCY LOAD: 130.394 cycles
L1D AVERAGE MISS LATENCY PREFETCH: 192.028 cycles
L1D AVERAGE MSHR OCCUPANCY: 3.55694
L1D MSHR FULL: 0.00930765
L1D RQ	ACCESS:   66421588	FORWARD:          0	MERGED:        140	TO_CACHE:   66421448
L1D WQ	ACCESS:   11486107	FORWARD:          0	MERGED:        183	TO_CACHE:   11485924
L1D PQ	ACCESS:   67121752	FORWARD:          0	MERGED:     327433	TO_CACHE:   66794319

L1D UNIQUE REGIONS ACCESSED: 0
L1D REGIONS CONFLICTS: 0
L1D Cross Page Prefetch Requests: 0
L1D Same Page Prefetch Requests: 82255253
L1D ROI Sum of L1D PQ occupancy: 1027364393
L1D PREFETCHES PUSHED FROM L2C: 0
L1I SPEC fills:          0  NON-SPEC fills:          0
L1I Test counter :          0
L1I Leapfrog:          0
L1I MSHR merge:          0
L1I TOTAL     ACCESS:   34398869  HIT:   34398869  MISS:          0  HIT %:        100  MISS %:          0   MPKI: 0
L1I LOAD      TOTAL       ACCESS:   34398869  HIT:   34398869  MISS:          0  HIT %:        100  MISS %:          0   MPKI: 0
L1I LOAD      NON_SPEC    ACCESS:   34398869  HIT:   34398869  MISS:          0  HIT %:        100  MISS %:          0   MPKI: 0
L1I PREFETCH  REQUESTED:          0  ISSUED:          0  USEFUL:          0  USELESS:          0
L1I USEFUL LOAD PREFETCHES:          0 PREFETCH ISSUED TO LOWER LEVEL:          0  ACCURACY: -nan
L1I TIMELY PREFETCHES:          0 LATE PREFETCHES: 0 DROPPED PREFETCHES: 0
L1I COMMIT LATE PREFETCHES: 0 MISSED OPPORTUNITY: 0 LATE IN PQ: 0 UNCOVERED: 0
L1I COMMIT LATE MSHR PREFETCHES: 0
L1I MPKI TOTAL: 0 MSHR LATE: 0 PQ LATE: 0 COMMIT LATE: 0 MISSED OPPORTUNITY: 0 UNCOVERED: 0
L1I PREFETCHES SAME FILL-ORIGIN LEVEL: 0 DIFFERENT FILL-ORIGIN LEVEL: 0
L1I AVERAGE MISS LATENCY: -nan cycles
L1I AVERAGE MISS LATENCY LOAD: -nan cycles
L1I AVERAGE MISS LATENCY PREFETCH: -nan cycles
L1I AVERAGE MSHR OCCUPANCY: 0
L1I MSHR FULL: 0
L1I RQ	ACCESS:   45820806	FORWARD:          0	MERGED:   11421936	TO_CACHE:   34398870

BTB SPEC fills:          0  NON-SPEC fills:          0
BTB Test counter :          0
BTB Leapfrog:          0
BTB MSHR merge:          0
BTB TOTAL     ACCESS:    4834901  HIT:    4834896  MISS:          5  HIT %:    99.9999  MISS %: 0.000103415   MPKI: 2.5e-05
BTB BRANCH_DIRECT_JUMP	ACCESS:          0  HIT:          0  MISS:          0
BTB BRANCH_INDIRECT	ACCESS:          0  HIT:          0  MISS:          0
BTB BRANCH_CONDITIONAL	ACCESS:    4834901  HIT:    4834896  MISS:          5
BTB BRANCH_DIRECT_CALL	ACCESS:          0  HIT:          0  MISS:          0
BTB BRANCH_INDIRECT_CALL	ACCESS:          0  HIT:          0  MISS:          0
BTB BRANCH_RETURN	ACCESS:          0  HIT:          0  MISS:          0
BTB BRANCH_OTHER ACCESS:          0  HIT:          0  MISS:          0

L2C SPEC fills:          0  NON-SPEC fills:       1308
L2C Test counter :          0
L2C Leapfrog:          0
L2C MSHR merge:          0
L2C TOTAL     ACCESS:    4660763  HIT:     675225  MISS:    3985538  HIT %:    14.4874  MISS %:    85.5126   MPKI: 19.9277
L2C LOAD      TOTAL       ACCESS:     184910  HIT:       6571  MISS:     178339  HIT %:    3.55362  MISS %:    96.4464   MPKI: 0.891695
L2C LOAD      NON_SPEC    ACCESS:       1402  HIT:         94  MISS:       1308  HIT %:    6.70471  MISS %:    93.2953   MPKI: 0.00654
L2C LOAD      SPEC        ACCESS:     183508  HIT:       6477  MISS:     177031  HIT %:    3.52955  MISS %:    96.4705   MPKI: 0.885155
L2C RFO       NON_SPEC    ACCESS:      97448  HIT:          0  MISS:      97448  HIT %:          0  MISS %:        100   MPKI: 0.48724
L2C PREFETCH  NON_SPEC    ACCESS:    3733938  HIT:     208204  MISS:    3525734  HIT %:    5.57599  MISS %:     94.424   MPKI: 17.6287
L2C WRITEBACK NON_SPEC    ACCESS:      97468  HIT:      97467  MISS:          1  HIT %:     99.999  MISS %: 0.00102598   MPKI: 5e-06
L2C CLEAN_EVICTION NON_SPEC    ACCESS:     214213  HIT:      63936  MISS:     150277  HIT %:    29.8469  MISS %:    70.1531   MPKI: 0.751385
L2C COMMIT LOAD NON_SPEC    ACCESS:      35987  HIT:       9685  MISS:      26302  HIT %:    26.9125  MISS %:    73.0875   MPKI: 0.13151
L2C LOAD TRANSLATION NON_SPEC    ACCESS:     296799  HIT:     289362  MISS:       7437  HIT %:    97.4943  MISS %:    2.50574   MPKI: 0.037185
L2C PREFETCH  REQUESTED:          0  ISSUED:          0  USEFUL:      10021  USELESS:    3515890
L2C USEFUL LOAD PREFETCHES:      10021 PREFETCH ISSUED TO LOWER LEVEL:    3525737  ACCURACY: 0.284224
L2C TIMELY PREFETCHES:      10021 LATE PREFETCHES: 0 DROPPED PREFETCHES: 0
L2C COMMIT LATE PREFETCHES: 0 MISSED OPPORTUNITY: 0 LATE IN PQ: 0 UNCOVERED: 0
L2C COMMIT LATE MSHR PREFETCHES: 0
L2C MPKI TOTAL: 0.891695 MSHR LATE: 0 PQ LATE: 0 COMMIT LATE: 0 MISSED OPPORTUNITY: 0 UNCOVERED: 0
L2C PREFETCHES SAME FILL-ORIGIN LEVEL: 0 DIFFERENT FILL-ORIGIN LEVEL: 0
L2C AVERAGE MISS LATENCY: 177.994 cycles
L2C AVERAGE MISS LATENCY LOAD: 133.696 cycles
L2C AVERAGE MISS LATENCY PREFETCH: 186.762 cycles
L2C AVERAGE MSHR OCCUPANCY: 4.39344
L2C MSHR FULL: 0
L2C RQ	ACCESS:     615154	FORWARD:          0	MERGED:          0	TO_CACHE:     615144
L2C WQ	ACCESS:     311681	FORWARD:         10	MERGED:          0	TO_CACHE:     311681
L2C PQ	ACCESS:    3733941	FORWARD:          0	MERGED:          0	TO_CACHE:    3733941

L2C Instructions Evicting Data 0
L2C Translations Evicting Data 7434
L2C Data Evicting Data 3643654
L2C Instructions Evicting Instructions 0
L2C Translations Evicting Instructions 0
L2C Data Evicting Instructions 0
L2C Instructions Evicting Translations 0
L2C Translations Evicting Translations 3
L2C Data Evicting Translations 7138
L2C Dense regions hint from L2: 0
PSCL5 SPEC fills:          0  NON-SPEC fills:          0
PSCL5 Test counter :          0
PSCL5 Leapfrog:          0
PSCL5 MSHR merge:          0
PSCL5 TOTAL     ACCESS:          0  HIT:          0  MISS:          0  HIT %:       -nan  MISS %:       -nan   MPKI: 0
PSCL5 PREFETCH  REQUESTED:          0  ISSUED:          0  USEFUL:          0  USELESS:          0
PSCL5 USEFUL LOAD PREFETCHES:          0 PREFETCH ISSUED TO LOWER LEVEL:          0  ACCURACY: -nan
PSCL5 TIMELY PREFETCHES:          0 LATE PREFETCHES: 0 DROPPED PREFETCHES: 0
PSCL5 COMMIT LATE PREFETCHES: 0 MISSED OPPORTUNITY: 0 LATE IN PQ: 0 UNCOVERED: 0
PSCL5 COMMIT LATE MSHR PREFETCHES: 0
PSCL5 MPKI TOTAL: 0 MSHR LATE: 0 PQ LATE: 0 COMMIT LATE: 0 MISSED OPPORTUNITY: 0 UNCOVERED: 0
PSCL5 PREFETCHES SAME FILL-ORIGIN LEVEL: 0 DIFFERENT FILL-ORIGIN LEVEL: 0

PSCL4 SPEC fills:          0  NON-SPEC fills:          0
PSCL4 Test counter :          0
PSCL4 Leapfrog:          0
PSCL4 MSHR merge:          0
PSCL4 TOTAL     ACCESS:          0  HIT:          0  MISS:          0  HIT %:       -nan  MISS %:       -nan   MPKI: 0
PSCL4 PREFETCH  REQUESTED:          0  ISSUED:          0  USEFUL:          0  USELESS:          0
PSCL4 USEFUL LOAD PREFETCHES:          0 PREFETCH ISSUED TO LOWER LEVEL:          0  ACCURACY: -nan
PSCL4 TIMELY PREFETCHES:          0 LATE PREFETCHES: 0 DROPPED PREFETCHES: 0
PSCL4 COMMIT LATE PREFETCHES: 0 MISSED OPPORTUNITY: 0 LATE IN PQ: 0 UNCOVERED: 0
PSCL4 COMMIT LATE MSHR PREFETCHES: 0
PSCL4 MPKI TOTAL: 0 MSHR LATE: 0 PQ LATE: 0 COMMIT LATE: 0 MISSED OPPORTUNITY: 0 UNCOVERED: 0
PSCL4 PREFETCHES SAME FILL-ORIGIN LEVEL: 0 DIFFERENT FILL-ORIGIN LEVEL: 0

PSCL3 SPEC fills:          0  NON-SPEC fills:          0
PSCL3 Test counter :          0
PSCL3 Leapfrog:          0
PSCL3 MSHR merge:          0
PSCL3 TOTAL     ACCESS:          0  HIT:          0  MISS:          0  HIT %:       -nan  MISS %:       -nan   MPKI: 0
PSCL3 PREFETCH  REQUESTED:          0  ISSUED:          0  USEFUL:          0  USELESS:          0
PSCL3 USEFUL LOAD PREFETCHES:          0 PREFETCH ISSUED TO LOWER LEVEL:          0  ACCURACY: -nan
PSCL3 TIMELY PREFETCHES:          0 LATE PREFETCHES: 0 DROPPED PREFETCHES: 0
PSCL3 COMMIT LATE PREFETCHES: 0 MISSED OPPORTUNITY: 0 LATE IN PQ: 0 UNCOVERED: 0
PSCL3 COMMIT LATE MSHR PREFETCHES: 0
PSCL3 MPKI TOTAL: 0 MSHR LATE: 0 PQ LATE: 0 COMMIT LATE: 0 MISSED OPPORTUNITY: 0 UNCOVERED: 0
PSCL3 PREFETCHES SAME FILL-ORIGIN LEVEL: 0 DIFFERENT FILL-ORIGIN LEVEL: 0

PSCL2 SPEC fills:          0  NON-SPEC fills:          0
PSCL2 Test counter :          0
PSCL2 Leapfrog:          0
PSCL2 MSHR merge:          0
PSCL2 TOTAL     ACCESS:          0  HIT:          0  MISS:          0  HIT %:       -nan  MISS %:       -nan   MPKI: 0
PSCL2 PREFETCH  REQUESTED:          0  ISSUED:          0  USEFUL:          0  USELESS:          0
PSCL2 USEFUL LOAD PREFETCHES:          0 PREFETCH ISSUED TO LOWER LEVEL:          0  ACCURACY: -nan
PSCL2 TIMELY PREFETCHES:          0 LATE PREFETCHES: 0 DROPPED PREFETCHES: 0
PSCL2 COMMIT LATE PREFETCHES: 0 MISSED OPPORTUNITY: 0 LATE IN PQ: 0 UNCOVERED: 0
PSCL2 COMMIT LATE MSHR PREFETCHES: 0
PSCL2 MPKI TOTAL: 0 MSHR LATE: 0 PQ LATE: 0 COMMIT LATE: 0 MISSED OPPORTUNITY: 0 UNCOVERED: 0
PSCL2 PREFETCHES SAME FILL-ORIGIN LEVEL: 0 DIFFERENT FILL-ORIGIN LEVEL: 0

LLC SPEC fills:          0  NON-SPEC fills:       1308
LLC Test counter :          0
LLC Leapfrog:          0
LLC MSHR merge:          0
LLC TOTAL     ACCESS:    4144816  HIT:     160419  MISS:    3984397  HIT %:    3.87035  MISS %:    96.1296   MPKI: 19.922
LLC LOAD      TOTAL       ACCESS:     178339  HIT:        396  MISS:     177943  HIT %:   0.222049  MISS %:     99.778   MPKI: 0.889715
LLC LOAD      NON_SPEC    ACCESS:       1308  HIT:          0  MISS:       1308  HIT %:          0  MISS %:        100   MPKI: 0.00654
LLC LOAD      SPEC        ACCESS:     177031  HIT:        396  MISS:     176635  HIT %:    0.22369  MISS %:    99.7763   MPKI: 0.883175
LLC RFO       NON_SPEC    ACCESS:      97448  HIT:          0  MISS:      97448  HIT %:          0  MISS %:        100   MPKI: 0.48724
LLC PREFETCH  NON_SPEC    ACCESS:    3525734  HIT:          0  MISS:    3525734  HIT %:          0  MISS %:        100   MPKI: 17.6287
LLC WRITEBACK NON_SPEC    ACCESS:      97486  HIT:      97486  MISS:          0  HIT %:        100  MISS %:          0   MPKI: 0
LLC CLEAN_EVICTION NON_SPEC    ACCESS:     212070  HIT:      62537  MISS:     149533  HIT %:    29.4888  MISS %:    70.5112   MPKI: 0.747665
LLC COMMIT LOAD NON_SPEC    ACCESS:      26302  HIT:          0  MISS:      26302  HIT %:          0  MISS %:        100   MPKI: 0.13151
LLC LOAD TRANSLATION NON_SPEC    ACCESS:       7437  HIT:          0  MISS:       7437  HIT %:          0  MISS %:        100   MPKI: 0.037185
LLC PREFETCH  REQUESTED:          0  ISSUED:          0  USEFUL:          0  USELESS:    3526579
LLC USEFUL LOAD PREFETCHES:          0 PREFETCH ISSUED TO LOWER LEVEL:    3525737  ACCURACY: 0
LLC TIMELY PREFETCHES:          0 LATE PREFETCHES: 0 DROPPED PREFETCHES: 0
LLC COMMIT LATE PREFETCHES: 0 MISSED OPPORTUNITY: 0 LATE IN PQ: 0 UNCOVERED: 0
LLC COMMIT LATE MSHR PREFETCHES: 0
LLC MPKI TOTAL: 0.889715 MSHR LATE: 0 PQ LATE: 0 COMMIT LATE: 0 MISSED OPPORTUNITY: 0 UNCOVERED: 0
LLC PREFETCHES SAME FILL-ORIGIN LEVEL: 0 DIFFERENT FILL-ORIGIN LEVEL: 0
LLC AVERAGE MISS LATENCY: 146.637 cycles
LLC AVERAGE MISS LATENCY LOAD: 99.3503 cycles
LLC AVERAGE MISS LATENCY PREFETCH: 154.142 cycles
LLC AVERAGE MSHR OCCUPANCY: 3.0254
LLC MSHR FULL: 0
LLC RQ	ACCESS:     309526	FORWARD:          0	MERGED:          0	TO_CACHE:     309526
LLC WQ	ACCESS:     309556	FORWARD:          0	MERGED:          0	TO_CACHE:     309556
LLC PQ	ACCESS:    3525737	FORWARD:          0	MERGED:          0	TO_CACHE:    3525737

LLC Dense regions hint to LLC: 0

RAW hits: 538621
Loads Generated: 85960192
Loads sent to L1D: 85421570
Stores Generated: 11266823
Stores sent to L1D: 11266815
Major fault: 0 Minor fault: 70872
Allocated PAGES: 70872
Total Load insts: 106132366
Total Non-spec loads: 6436243
Percentage of speculative loads: 93.9356

LeapFrogging counter: 182976
Commit hits: 47149263 miss: 32233931
Commit hit %: 59.3945 miss %: 40.6055
Commits not translated: 0
Loads retired: 236213
Stores retired: 11266815
Cache fills: 236213
L1D response latency: 130.394 cycles
Load retirement latency: 464.28 cycles
OOO test counter: 0
Discarded buffer inserts: 47149263 hits: 110 hit %: 0.000233302
Filter prediction accuracy: 99.9997

stream: 
stream:times selected: 28687138
stream:pref_filled: 4516072
stream:pref_useful: 4515401
stream:pref_late: 958
stream:misses: 5927
stream:misses_by_poll: 0

CS: 
CS:times selected: 27642420
CS:pref_filled: 40848
CS:pref_useful: 40833
CS:pref_late: 34
CS:misses: 263635
CS:misses_by_poll: 9

CPLX: 
CPLX:times selected: 1044550
CPLX:pref_filled: 82009
CPLX:pref_useful: 61796
CPLX:pref_late: 42
CPLX:misses: 11248
CPLX:misses_by_poll: 289

NL_L1: 
NL:times selected: 9280
NL:pref_filled: 430
NL:pref_useful: 430
NL:pref_late: 1
NL:misses: 855
NL:misses_by_poll: 0

total selections: 57383388
total_filled: 3682213
total_useful: 3665824
total_late: 1071
total_polluted: 298
total_misses_after_warmup: 260923
conflicts: 6
Degree Incremented Times: 833355
Degree Decremented Times: 0

L1 IP Table Write Accesses: 66293555
L1 IP Table Read Accesses: 66293549
L1 RST Write Accesses: 23068650
L1 RST Read Accesses: 46137300
L1 CSPT Write Accesses: 23068650
L1 CSPT Read Accesses: 25386556
L1 RR Filter Tag Write Accesses: 127037238
L1 RR Filter Tag Read Accesses: 5903603044
L1 IP Table Tag Write Accesses: 66294755
L1 IP Table Tag Read Accesses: 66294755
L1 RST Tag Write Accesses: 0
L1 RST Tag Read Accesses: 207622354
L1 RR Filter Write Accesses: 0
L1 RR Filter Read Accesses: 197164505
test: 568478

DRAM Statistics
 CHANNEL 0
 RQ ROW_BUFFER_HIT:    2506089  ROW_BUFFER_MISS:    1328775
 DBUS_CONGESTED:       7246
 WQ ROW_BUFFER_HIT:      53111  ROW_BUFFER_MISS:     254555  FULL:          0

 AVG_CONGESTED_CYCLE: 4
 All warmup complete: 2
Channel 0 Bank busy for read cycles: 0
Channel 0 Bank busy for write cycles: 0
Channel 0
Rank 0
0banks busy for read cycles: 44109089
0banks busy for write cycles: 99635
1banks busy for read cycles: 40103410
1banks busy for write cycles: 13293037
2banks busy for read cycles: 26976309
2banks busy for write cycles: 7988487
3banks busy for read cycles: 21531056
3banks busy for write cycles: 4005924
4banks busy for read cycles: 14256201
4banks busy for write cycles: 1944245
5banks busy for read cycles: 8913703
5banks busy for write cycles: 995450
6banks busy for read cycles: 5180292
6banks busy for write cycles: 572274
7banks busy for read cycles: 3040737
7banks busy for write cycles: 396183
8banks busy for read cycles: 1508586
8banks busy for write cycles: 260923

CPU 0 Branch Prediction Accuracy: 99.9706% MPKI: 0.00733 Average ROB Occupancy at Mispredict: 31.395
Branch types
NOT_BRANCH: 195007396 97.5037%
BRANCH_DIRECT_JUMP: 0 0%
BRANCH_INDIRECT: 0 0%
BRANCH_CONDITIONAL: 4992275 2.49614%
BRANCH_DIRECT_CALL: 0 0%
BRANCH_INDIRECT_CALL: 0 0%
BRANCH_RETURN: 0 0%
BRANCH_OTHER: 0 0%

DRAM PAGES: 1048576
Allocated PAGES: 70872
