
*** ChampSim Multicore Out-of-Order Simulator ***

Warmup Instructions: 50000000
Simulation Instructions: 200000000
Number of CPUs: 1
LLC sets: 2048
LLC ways: 16
L0D sets: 16
L0D ways: 2
ROB size: 352
LQ size: 128
SQ size: 72
Secure Berti: OFF
Berti: OFF
Berti Fill: OFF
On commit prefetching: OFF
Hit-based filter: ON
Time-guarding: ON
Free-slotting: ON
Leap-frogging: ON
Train prefetcher on L0D bypass: OFF
No translation penalty for prefetchers: OFF
Prefetch to L0D only: OFF
Prefetch to L1D only: OFF
Clean evictions: ON
Commit loads: ON
Commit write: ON
Fill commit loads to L2C, LLC: ON
DRAM IO FREQUENCY: 6400
ROB SIZE: 352
Off-chip DRAM Size: 4096 MB Channels: 1 Width: 64-bit Data Rate: 6400 MT/s
CPU 0 runs /home/sumon/secure_berti/GhostMinion/../../traces/spec/603.bwaves_s-1740B.champsimtrace.xz
.xz
BTB has LRU replacement policy
ITLB has LRU replacement policy
DTLB has LRU replacement policy
STLB has LRU replacement policy
L1I has LRU replacement policy
L0D has LRU replacement policy
IP Table Entries: 1024
CSPT Entries: 128
RR_ENTRIES: 32
RST_ENTRIES: 8
L1D has LRU replacement policy
L2C has LRU replacement policy
LLC has LRU replacement policy
Heartbeat CPU 0 instructions: 10000000 cycles: 3581220 heartbeat IPC: 2.79234 cumulative IPC: 2.79234 (Simulation time: 0 hr 0 min 45 sec) 
Heartbeat CPU 0 instructions: 20000002 cycles: 7159907 heartbeat IPC: 2.79432 cumulative IPC: 2.79333 (Simulation time: 0 hr 1 min 30 sec) 
Heartbeat CPU 0 instructions: 30000000 cycles: 10742673 heartbeat IPC: 2.79114 cumulative IPC: 2.7926 (Simulation time: 0 hr 2 min 16 sec) 
Heartbeat CPU 0 instructions: 40000001 cycles: 14323987 heartbeat IPC: 2.79227 cumulative IPC: 2.79252 (Simulation time: 0 hr 3 min 1 sec) 
Heartbeat CPU 0 instructions: 50000003 cycles: 17904414 heartbeat IPC: 2.79296 cumulative IPC: 2.79261 (Simulation time: 0 hr 3 min 47 sec) 

Warmup complete CPU 0 instructions: 50000003 cycles: 17904414 (Simulation time: 0 hr 3 min 47 sec) 

Heartbeat CPU 0 instructions: 60000000 cycles: 27659018 heartbeat IPC: 1.02516 cumulative IPC: 1.02516 (Simulation time: 0 hr 4 min 29 sec) 
Heartbeat CPU 0 instructions: 70000002 cycles: 37418602 heartbeat IPC: 1.02463 cumulative IPC: 1.0249 (Simulation time: 0 hr 5 min 11 sec) 
Heartbeat CPU 0 instructions: 80000001 cycles: 47164589 heartbeat IPC: 1.02606 cumulative IPC: 1.02528 (Simulation time: 0 hr 5 min 53 sec) 
Heartbeat CPU 0 instructions: 90000001 cycles: 56937703 heartbeat IPC: 1.02322 cumulative IPC: 1.02477 (Simulation time: 0 hr 6 min 34 sec) 
Heartbeat CPU 0 instructions: 100000002 cycles: 66695165 heartbeat IPC: 1.02486 cumulative IPC: 1.02478 (Simulation time: 0 hr 7 min 16 sec) 
Heartbeat CPU 0 instructions: 110000000 cycles: 76439109 heartbeat IPC: 1.02628 cumulative IPC: 1.02503 (Simulation time: 0 hr 7 min 57 sec) 
Heartbeat CPU 0 instructions: 120000002 cycles: 86194376 heartbeat IPC: 1.02509 cumulative IPC: 1.02504 (Simulation time: 0 hr 8 min 38 sec) 
Heartbeat CPU 0 instructions: 130000000 cycles: 95958821 heartbeat IPC: 1.02412 cumulative IPC: 1.02493 (Simulation time: 0 hr 9 min 19 sec) 
Heartbeat CPU 0 instructions: 140000003 cycles: 105713755 heartbeat IPC: 1.02512 cumulative IPC: 1.02495 (Simulation time: 0 hr 10 min 1 sec) 
Heartbeat CPU 0 instructions: 150000002 cycles: 115482417 heartbeat IPC: 1.02368 cumulative IPC: 1.02482 (Simulation time: 0 hr 10 min 42 sec) 
Heartbeat CPU 0 instructions: 160000003 cycles: 125241515 heartbeat IPC: 1.02469 cumulative IPC: 1.02481 (Simulation time: 0 hr 11 min 24 sec) 
Heartbeat CPU 0 instructions: 170000000 cycles: 134999401 heartbeat IPC: 1.02481 cumulative IPC: 1.02481 (Simulation time: 0 hr 12 min 5 sec) 
Heartbeat CPU 0 instructions: 180000001 cycles: 144760704 heartbeat IPC: 1.02445 cumulative IPC: 1.02478 (Simulation time: 0 hr 12 min 46 sec) 
Heartbeat CPU 0 instructions: 190000000 cycles: 154522103 heartbeat IPC: 1.02444 cumulative IPC: 1.02476 (Simulation time: 0 hr 13 min 25 sec) 
Heartbeat CPU 0 instructions: 200000001 cycles: 164269392 heartbeat IPC: 1.02593 cumulative IPC: 1.02484 (Simulation time: 0 hr 14 min 3 sec) 
Heartbeat CPU 0 instructions: 210000003 cycles: 174017878 heartbeat IPC: 1.0258 cumulative IPC: 1.0249 (Simulation time: 0 hr 14 min 41 sec) 
Heartbeat CPU 0 instructions: 220000000 cycles: 183766284 heartbeat IPC: 1.02581 cumulative IPC: 1.02495 (Simulation time: 0 hr 15 min 18 sec) 
Heartbeat CPU 0 instructions: 230000000 cycles: 193522674 heartbeat IPC: 1.02497 cumulative IPC: 1.02495 (Simulation time: 0 hr 15 min 55 sec) 
Heartbeat CPU 0 instructions: 240000000 cycles: 203281268 heartbeat IPC: 1.02474 cumulative IPC: 1.02494 (Simulation time: 0 hr 16 min 31 sec) 
Heartbeat CPU 0 instructions: 250000000 cycles: 213032419 heartbeat IPC: 1.02552 cumulative IPC: 1.02497 (Simulation time: 0 hr 17 min 7 sec) 
Finished CPU 0 instructions: 200000001 cycles: 195128006 cumulative IPC: 1.02497 (Simulation time: 0 hr 17 min 7 sec) 
 Instruction ID: 250000043

ChampSim completed all CPUs

Region of Interest Statistics

CPU 0 cumulative IPC: 1.02497 instructions: 200000001 cycles: 195128006
ITLB SPEC fills:          0  NON-SPEC fills:          0
ITLB Test counter :          0
ITLB Leapfrog:          0
ITLB MSHR merge:          0
ITLB TOTAL     ACCESS:   25355306  HIT:   25355306  MISS:          0  HIT %:        100  MISS %:          0   MPKI: 0
ITLB LOAD TRANSLATION NON_SPEC    ACCESS:   25355306  HIT:   25355306  MISS:          0  HIT %:        100  MISS %:          0   MPKI: 0
ITLB PREFETCH  REQUESTED:          0  ISSUED:          0  USEFUL:          0  USELESS:          0
ITLB USEFUL LOAD PREFETCHES:          0 PREFETCH ISSUED TO LOWER LEVEL:          0  ACCURACY: -nan
ITLB TIMELY PREFETCHES:          0 LATE PREFETCHES: 0 DROPPED PREFETCHES: 0
ITLB COMMIT LATE PREFETCHES: 0 MISSED OPPORTUNITY: 0 LATE IN PQ: 0 UNCOVERED: 0
ITLB COMMIT LATE MSHR PREFETCHES: 0
ITLB MPKI TOTAL: 0 MSHR LATE: 0 PQ LATE: 0 COMMIT LATE: 0 MISSED OPPORTUNITY: 0 UNCOVERED: 0
ITLB PREFETCHES SAME FILL-ORIGIN LEVEL: 0 DIFFERENT FILL-ORIGIN LEVEL: 0
ITLB AVERAGE MISS LATENCY: -nan cycles
ITLB AVERAGE MISS LATENCY LOAD: -nan cycles
ITLB AVERAGE MISS LATENCY PREFETCH: -nan cycles
ITLB AVERAGE MSHR OCCUPANCY: 0
ITLB MSHR FULL: 0
ITLB RQ	ACCESS:   34398754	FORWARD:          0	MERGED:    9043449	TO_CACHE:   25355305

DTLB SPEC fills:          0  NON-SPEC fills:          0
DTLB Test counter :          0
DTLB Leapfrog:          0
DTLB MSHR merge:          0
DTLB TOTAL     ACCESS:   73958043  HIT:   73546834  MISS:     411209  HIT %:     99.444  MISS %:   0.556003   MPKI: 2.05604
DTLB LOAD TRANSLATION NON_SPEC    ACCESS:   73958043  HIT:   73546834  MISS:     411209  HIT %:     99.444  MISS %:   0.556003   MPKI: 2.05604
DTLB PREFETCH  REQUESTED:          0  ISSUED:          0  USEFUL:          0  USELESS:          0
DTLB USEFUL LOAD PREFETCHES:          0 PREFETCH ISSUED TO LOWER LEVEL:          0  ACCURACY: -nan
DTLB TIMELY PREFETCHES:          0 LATE PREFETCHES: 0 DROPPED PREFETCHES: 0
DTLB COMMIT LATE PREFETCHES: 0 MISSED OPPORTUNITY: 0 LATE IN PQ: 0 UNCOVERED: 0
DTLB COMMIT LATE MSHR PREFETCHES: 0
DTLB MPKI TOTAL: 0 MSHR LATE: 0 PQ LATE: 0 COMMIT LATE: 0 MISSED OPPORTUNITY: 0 UNCOVERED: 0
DTLB PREFETCHES SAME FILL-ORIGIN LEVEL: 0 DIFFERENT FILL-ORIGIN LEVEL: 0
DTLB AVERAGE MISS LATENCY: 105.37 cycles
DTLB AVERAGE MISS LATENCY LOAD: -nan cycles
DTLB AVERAGE MISS LATENCY PREFETCH: -nan cycles
DTLB AVERAGE MSHR OCCUPANCY: 0.0344613
DTLB MSHR FULL: 5.92994e-06
DTLB RQ	ACCESS:   86480425	FORWARD:          0	MERGED:   12449270	TO_CACHE:   74031155

STLB SPEC fills:          0  NON-SPEC fills:          0
STLB Test counter :          0
STLB Leapfrog:          0
STLB MSHR merge:          0
STLB TOTAL     ACCESS:   17514605  HIT:   17455222  MISS:      59383  HIT %:     99.661  MISS %:   0.339048   MPKI: 0.296915
STLB LOAD TRANSLATION NON_SPEC    ACCESS:     411209  HIT:     351826  MISS:      59383  HIT %:    85.5589  MISS %:    14.4411   MPKI: 0.296915
STLB TRANSLATION FROM L1D PREFETCHER NON_SPEC    ACCESS:   17103396  HIT:   17103396  MISS:          0  HIT %:        100  MISS %:          0   MPKI: 0
STLB PREFETCH  REQUESTED:          0  ISSUED:          0  USEFUL:          0  USELESS:          0
STLB USEFUL LOAD PREFETCHES:          0 PREFETCH ISSUED TO LOWER LEVEL:          0  ACCURACY: -nan
STLB TIMELY PREFETCHES:          0 LATE PREFETCHES: 0 DROPPED PREFETCHES: 0
STLB COMMIT LATE PREFETCHES: 0 MISSED OPPORTUNITY: 0 LATE IN PQ: 0 UNCOVERED: 0
STLB COMMIT LATE MSHR PREFETCHES: 0
STLB MPKI TOTAL: 0 MSHR LATE: 0 PQ LATE: 0 COMMIT LATE: 0 MISSED OPPORTUNITY: 0 UNCOVERED: 0
STLB PREFETCHES SAME FILL-ORIGIN LEVEL: 0 DIFFERENT FILL-ORIGIN LEVEL: 0
STLB AVERAGE MISS LATENCY: 666.805 cycles
STLB AVERAGE MISS LATENCY LOAD: -nan cycles
STLB AVERAGE MISS LATENCY PREFETCH: -nan cycles
STLB AVERAGE MSHR OCCUPANCY: 0.0274761
STLB MSHR FULL: 0
STLB RQ	ACCESS:   67200609	FORWARD:          0	MERGED:   49686004	TO_CACHE:   17514605

STLB Hit, L1D data hit: 0
STLB Hit, L2C data hit: 0
STLB Hit, LLC data hit: 0
STLB Hit, LLC data miss: 0
STLB STLB hints to L2: 0
L0D SPEC fills:   48433569  NON-SPEC fills:          0
L0D TimeGuard Request with older TS:    1649146 Restricted eviction:   12223619 read:     166902
L0D Test counter :          0
L0D Leapfrog:          0
L0D MSHR merge:    2255743
L0D TOTAL     ACCESS:   72957861  HIT:    6702848  MISS:   66255013  HIT %:    9.18729  MISS %:    90.8127   MPKI: 331.275
L0D LOAD      TOTAL       ACCESS:   72957861  HIT:    6702848  MISS:   66255013  HIT %:    9.18729  MISS %:    90.8127   MPKI: 331.275
L0D LOAD      NON_SPEC    ACCESS:    5959442  HIT:     358973  MISS:    5600469  HIT %:     6.0236  MISS %:    93.9764   MPKI: 28.0023
L0D LOAD      SPEC        ACCESS:   66998419  HIT:    6343875  MISS:   60654544  HIT %:    9.46869  MISS %:    90.5313   MPKI: 303.273
L0D PREFETCH  REQUESTED:          0  ISSUED:          0  USEFUL:          0  USELESS:          0
L0D USEFUL LOAD PREFETCHES:          0 PREFETCH ISSUED TO LOWER LEVEL:          0  ACCURACY: -nan
L0D TIMELY PREFETCHES:          0 LATE PREFETCHES: 0 DROPPED PREFETCHES: 0
L0D COMMIT LATE PREFETCHES: 0 MISSED OPPORTUNITY: 0 LATE IN PQ: 0 UNCOVERED: 0
L0D COMMIT LATE MSHR PREFETCHES: 0
L0D MPKI TOTAL: 342.554 MSHR LATE: 0 PQ LATE: 0 COMMIT LATE: 0 MISSED OPPORTUNITY: 0 UNCOVERED: 0
L0D PREFETCHES SAME FILL-ORIGIN LEVEL: 0 DIFFERENT FILL-ORIGIN LEVEL: 0
L0D AVERAGE MISS LATENCY: 5.63971 cycles
L0D AVERAGE MISS LATENCY LOAD: 5.63971 cycles
L0D AVERAGE MISS LATENCY PREFETCH: -nan cycles
L0D AVERAGE MSHR OCCUPANCY: 1.68475
L0D MSHR FULL: 0.00402282
L0D RQ	ACCESS:   85425495	FORWARD:          0	MERGED:   10211895	TO_CACHE:   75213600
L0D WQ	ACCESS:   11266825	FORWARD:          0	MERGED:          0	TO_CACHE:   11266825

L1D SPEC fills:          0  NON-SPEC fills:       1521
L1D Test counter :          0
L1D Leapfrog:          0
L1D MSHR merge:      74780
L1D TOTAL     ACCESS:  142549716  HIT:  138303362  MISS:    4246354  HIT %:    97.0211  MISS %:    2.97886   MPKI: 21.2318
L1D LOAD      TOTAL       ACCESS:   66230442  HIT:   65998028  MISS:     232414  HIT %:    99.6491  MISS %:   0.350917   MPKI: 1.16207
L1D LOAD      NON_SPEC    ACCESS:    5600282  HIT:    5598761  MISS:       1521  HIT %:    99.9728  MISS %:  0.0271593   MPKI: 0.007605
L1D LOAD      SPEC        ACCESS:   60630160  HIT:   60399267  MISS:     230893  HIT %:    99.6192  MISS %:   0.380822   MPKI: 1.15446
L1D RFO       NON_SPEC    ACCESS:   11176635  HIT:   11079186  MISS:      97449  HIT %:    99.1281  MISS %:   0.871899   MPKI: 0.487245
L1D PREFETCH  NON_SPEC    ACCESS:   64809970  HIT:   61124021  MISS:    3685949  HIT %:    94.3127  MISS %:    5.68732   MPKI: 18.4297
L1D COMMIT LOAD NON_SPEC    ACCESS:     116851  HIT:      80808  MISS:      36043  HIT %:    69.1547  MISS %:    30.8453   MPKI: 0.180215
L1D COMMIT WRITE NON_SPEC    ACCESS:     215818  HIT:      21319  MISS:     194499  HIT %:    9.87823  MISS %:    90.1218   MPKI: 0.972495
L1D PREFETCH  REQUESTED:  126908291  ISSUED:   67110659  USEFUL:    3669469  USELESS:      16477
L1D USEFUL LOAD PREFETCHES:    3669469 PREFETCH ISSUED TO LOWER LEVEL:    3736615  ACCURACY: 98.203
L1D TIMELY PREFETCHES:    3669469 LATE PREFETCHES: 50666 DROPPED PREFETCHES: 0
L1D COMMIT LATE PREFETCHES: 0 MISSED OPPORTUNITY: 0 LATE IN PQ: 0 UNCOVERED: 0
L1D COMMIT LATE MSHR PREFETCHES: 0
L1D MPKI TOTAL: 1.28493 MSHR LATE: 0.25333 PQ LATE: 0 COMMIT LATE: 0 MISSED OPPORTUNITY: 0 UNCOVERED: 0
L1D PREFETCHES SAME FILL-ORIGIN LEVEL: 3736615 DIFFERENT FILL-ORIGIN LEVEL: 0
L1D AVERAGE MISS LATENCY: 180.324 cycles
L1D AVERAGE MISS LATENCY LOAD: 130.899 cycles
L1D AVERAGE MISS LATENCY PREFETCH: 192.11 cycles
L1D AVERAGE MSHR OCCUPANCY: 3.56567
L1D MSHR FULL: 0.00922454
L1D RQ	ACCESS:   66379774	FORWARD:          0	MERGED:        165	TO_CACHE:   66379609
L1D WQ	ACCESS:   11482643	FORWARD:          0	MERGED:        171	TO_CACHE:   11482472
L1D PQ	ACCESS:   67110659	FORWARD:          0	MERGED:     321259	TO_CACHE:   66789400

L1D UNIQUE REGIONS ACCESSED: 0
L1D REGIONS CONFLICTS: 0
L1D Cross Page Prefetch Requests: 0
L1D Same Page Prefetch Requests: 82247610
L1D ROI Sum of L1D PQ occupancy: 1026411367
L1D PREFETCHES PUSHED FROM L2C: 0
L1I SPEC fills:          0  NON-SPEC fills:          0
L1I Test counter :          0
L1I Leapfrog:          0
L1I MSHR merge:          0
L1I TOTAL     ACCESS:   34398753  HIT:   34398753  MISS:          0  HIT %:        100  MISS %:          0   MPKI: 0
L1I LOAD      TOTAL       ACCESS:   34398753  HIT:   34398753  MISS:          0  HIT %:        100  MISS %:          0   MPKI: 0
L1I LOAD      NON_SPEC    ACCESS:   34398753  HIT:   34398753  MISS:          0  HIT %:        100  MISS %:          0   MPKI: 0
L1I PREFETCH  REQUESTED:          0  ISSUED:          0  USEFUL:          0  USELESS:          0
L1I USEFUL LOAD PREFETCHES:          0 PREFETCH ISSUED TO LOWER LEVEL:          0  ACCURACY: -nan
L1I TIMELY PREFETCHES:          0 LATE PREFETCHES: 0 DROPPED PREFETCHES: 0
L1I COMMIT LATE PREFETCHES: 0 MISSED OPPORTUNITY: 0 LATE IN PQ: 0 UNCOVERED: 0
L1I COMMIT LATE MSHR PREFETCHES: 0
L1I MPKI TOTAL: 0 MSHR LATE: 0 PQ LATE: 0 COMMIT LATE: 0 MISSED OPPORTUNITY: 0 UNCOVERED: 0
L1I PREFETCHES SAME FILL-ORIGIN LEVEL: 0 DIFFERENT FILL-ORIGIN LEVEL: 0
L1I AVERAGE MISS LATENCY: -nan cycles
L1I AVERAGE MISS LATENCY LOAD: -nan cycles
L1I AVERAGE MISS LATENCY PREFETCH: -nan cycles
L1I AVERAGE MSHR OCCUPANCY: 0
L1I MSHR FULL: 0
L1I RQ	ACCESS:   45820358	FORWARD:          0	MERGED:   11421604	TO_CACHE:   34398754

BTB SPEC fills:          0  NON-SPEC fills:          0
BTB Test counter :          0
BTB Leapfrog:          0
BTB MSHR merge:          0
BTB TOTAL     ACCESS:    4834901  HIT:    4834896  MISS:          5  HIT %:    99.9999  MISS %: 0.000103415   MPKI: 2.5e-05
BTB BRANCH_DIRECT_JUMP	ACCESS:          0  HIT:          0  MISS:          0
BTB BRANCH_INDIRECT	ACCESS:          0  HIT:          0  MISS:          0
BTB BRANCH_CONDITIONAL	ACCESS:    4834901  HIT:    4834896  MISS:          5
BTB BRANCH_DIRECT_CALL	ACCESS:          0  HIT:          0  MISS:          0
BTB BRANCH_INDIRECT_CALL	ACCESS:          0  HIT:          0  MISS:          0
BTB BRANCH_RETURN	ACCESS:          0  HIT:          0  MISS:          0
BTB BRANCH_OTHER ACCESS:          0  HIT:          0  MISS:          0

L2C SPEC fills:          0  NON-SPEC fills:       1245
L2C Test counter :          0
L2C Leapfrog:          0
L2C MSHR merge:          0
L2C TOTAL     ACCESS:    4656909  HIT:     673909  MISS:    3983000  HIT %:    14.4712  MISS %:    85.5288   MPKI: 19.915
L2C LOAD      TOTAL       ACCESS:     182198  HIT:       6472  MISS:     175726  HIT %:    3.55218  MISS %:    96.4478   MPKI: 0.87863
L2C LOAD      NON_SPEC    ACCESS:       1352  HIT:        107  MISS:       1245  HIT %:     7.9142  MISS %:    92.0858   MPKI: 0.006225
L2C LOAD      SPEC        ACCESS:     180846  HIT:       6365  MISS:     174481  HIT %:    3.51957  MISS %:    96.4804   MPKI: 0.872405
L2C RFO       NON_SPEC    ACCESS:      97449  HIT:          0  MISS:      97449  HIT %:          0  MISS %:        100   MPKI: 0.487245
L2C PREFETCH  NON_SPEC    ACCESS:    3736614  HIT:     208275  MISS:    3528339  HIT %:     5.5739  MISS %:    94.4261   MPKI: 17.6417
L2C WRITEBACK NON_SPEC    ACCESS:      97503  HIT:      97502  MISS:          1  HIT %:     99.999  MISS %: 0.00102561   MPKI: 5e-06
L2C CLEAN_EVICTION NON_SPEC    ACCESS:     210756  HIT:      62931  MISS:     147825  HIT %:    29.8596  MISS %:    70.1404   MPKI: 0.739125
L2C COMMIT LOAD NON_SPEC    ACCESS:      35585  HIT:       9362  MISS:      26223  HIT %:    26.3088  MISS %:    73.6912   MPKI: 0.131115
L2C LOAD TRANSLATION NON_SPEC    ACCESS:     296804  HIT:     289367  MISS:       7437  HIT %:    97.4943  MISS %:    2.50569   MPKI: 0.037185
L2C PREFETCH  REQUESTED:          0  ISSUED:          0  USEFUL:       9655  USELESS:    3518899
L2C USEFUL LOAD PREFETCHES:       9655 PREFETCH ISSUED TO LOWER LEVEL:    3528339  ACCURACY: 0.273642
L2C TIMELY PREFETCHES:       9655 LATE PREFETCHES: 0 DROPPED PREFETCHES: 0
L2C COMMIT LATE PREFETCHES: 0 MISSED OPPORTUNITY: 0 LATE IN PQ: 0 UNCOVERED: 0
L2C COMMIT LATE MSHR PREFETCHES: 0
L2C MPKI TOTAL: 0.87863 MSHR LATE: 0 PQ LATE: 0 COMMIT LATE: 0 MISSED OPPORTUNITY: 0 UNCOVERED: 0
L2C PREFETCHES SAME FILL-ORIGIN LEVEL: 0 DIFFERENT FILL-ORIGIN LEVEL: 0
L2C AVERAGE MISS LATENCY: 178.229 cycles
L2C AVERAGE MISS LATENCY LOAD: 134.011 cycles
L2C AVERAGE MISS LATENCY PREFETCH: 186.859 cycles
L2C AVERAGE MSHR OCCUPANCY: 4.37665
L2C MSHR FULL: 0
L2C RQ	ACCESS:     612044	FORWARD:          0	MERGED:          0	TO_CACHE:     612036
L2C WQ	ACCESS:     308259	FORWARD:          9	MERGED:          0	TO_CACHE:     308259
L2C PQ	ACCESS:    3736615	FORWARD:          0	MERGED:          0	TO_CACHE:    3736614

L2C Instructions Evicting Data 0
L2C Translations Evicting Data 7431
L2C Data Evicting Data 3646101
L2C Instructions Evicting Instructions 0
L2C Translations Evicting Instructions 0
L2C Data Evicting Instructions 0
L2C Instructions Evicting Translations 0
L2C Translations Evicting Translations 6
L2C Data Evicting Translations 7155
L2C Dense regions hint from L2: 0
PSCL5 SPEC fills:          0  NON-SPEC fills:          0
PSCL5 Test counter :          0
PSCL5 Leapfrog:          0
PSCL5 MSHR merge:          0
PSCL5 TOTAL     ACCESS:          0  HIT:          0  MISS:          0  HIT %:       -nan  MISS %:       -nan   MPKI: 0
PSCL5 PREFETCH  REQUESTED:          0  ISSUED:          0  USEFUL:          0  USELESS:          0
PSCL5 USEFUL LOAD PREFETCHES:          0 PREFETCH ISSUED TO LOWER LEVEL:          0  ACCURACY: -nan
PSCL5 TIMELY PREFETCHES:          0 LATE PREFETCHES: 0 DROPPED PREFETCHES: 0
PSCL5 COMMIT LATE PREFETCHES: 0 MISSED OPPORTUNITY: 0 LATE IN PQ: 0 UNCOVERED: 0
PSCL5 COMMIT LATE MSHR PREFETCHES: 0
PSCL5 MPKI TOTAL: 0 MSHR LATE: 0 PQ LATE: 0 COMMIT LATE: 0 MISSED OPPORTUNITY: 0 UNCOVERED: 0
PSCL5 PREFETCHES SAME FILL-ORIGIN LEVEL: 0 DIFFERENT FILL-ORIGIN LEVEL: 0

PSCL4 SPEC fills:          0  NON-SPEC fills:          0
PSCL4 Test counter :          0
PSCL4 Leapfrog:          0
PSCL4 MSHR merge:          0
PSCL4 TOTAL     ACCESS:          0  HIT:          0  MISS:          0  HIT %:       -nan  MISS %:       -nan   MPKI: 0
PSCL4 PREFETCH  REQUESTED:          0  ISSUED:          0  USEFUL:          0  USELESS:          0
PSCL4 USEFUL LOAD PREFETCHES:          0 PREFETCH ISSUED TO LOWER LEVEL:          0  ACCURACY: -nan
PSCL4 TIMELY PREFETCHES:          0 LATE PREFETCHES: 0 DROPPED PREFETCHES: 0
PSCL4 COMMIT LATE PREFETCHES: 0 MISSED OPPORTUNITY: 0 LATE IN PQ: 0 UNCOVERED: 0
PSCL4 COMMIT LATE MSHR PREFETCHES: 0
PSCL4 MPKI TOTAL: 0 MSHR LATE: 0 PQ LATE: 0 COMMIT LATE: 0 MISSED OPPORTUNITY: 0 UNCOVERED: 0
PSCL4 PREFETCHES SAME FILL-ORIGIN LEVEL: 0 DIFFERENT FILL-ORIGIN LEVEL: 0

PSCL3 SPEC fills:          0  NON-SPEC fills:          0
PSCL3 Test counter :          0
PSCL3 Leapfrog:          0
PSCL3 MSHR merge:          0
PSCL3 TOTAL     ACCESS:          0  HIT:          0  MISS:          0  HIT %:       -nan  MISS %:       -nan   MPKI: 0
PSCL3 PREFETCH  REQUESTED:          0  ISSUED:          0  USEFUL:          0  USELESS:          0
PSCL3 USEFUL LOAD PREFETCHES:          0 PREFETCH ISSUED TO LOWER LEVEL:          0  ACCURACY: -nan
PSCL3 TIMELY PREFETCHES:          0 LATE PREFETCHES: 0 DROPPED PREFETCHES: 0
PSCL3 COMMIT LATE PREFETCHES: 0 MISSED OPPORTUNITY: 0 LATE IN PQ: 0 UNCOVERED: 0
PSCL3 COMMIT LATE MSHR PREFETCHES: 0
PSCL3 MPKI TOTAL: 0 MSHR LATE: 0 PQ LATE: 0 COMMIT LATE: 0 MISSED OPPORTUNITY: 0 UNCOVERED: 0
PSCL3 PREFETCHES SAME FILL-ORIGIN LEVEL: 0 DIFFERENT FILL-ORIGIN LEVEL: 0

PSCL2 SPEC fills:          0  NON-SPEC fills:          0
PSCL2 Test counter :          0
PSCL2 Leapfrog:          0
PSCL2 MSHR merge:          0
PSCL2 TOTAL     ACCESS:          0  HIT:          0  MISS:          0  HIT %:       -nan  MISS %:       -nan   MPKI: 0
PSCL2 PREFETCH  REQUESTED:          0  ISSUED:          0  USEFUL:          0  USELESS:          0
PSCL2 USEFUL LOAD PREFETCHES:          0 PREFETCH ISSUED TO LOWER LEVEL:          0  ACCURACY: -nan
PSCL2 TIMELY PREFETCHES:          0 LATE PREFETCHES: 0 DROPPED PREFETCHES: 0
PSCL2 COMMIT LATE PREFETCHES: 0 MISSED OPPORTUNITY: 0 LATE IN PQ: 0 UNCOVERED: 0
PSCL2 COMMIT LATE MSHR PREFETCHES: 0
PSCL2 MPKI TOTAL: 0 MSHR LATE: 0 PQ LATE: 0 COMMIT LATE: 0 MISSED OPPORTUNITY: 0 UNCOVERED: 0
PSCL2 PREFETCHES SAME FILL-ORIGIN LEVEL: 0 DIFFERENT FILL-ORIGIN LEVEL: 0

LLC SPEC fills:          0  NON-SPEC fills:       1245
LLC Test counter :          0
LLC Leapfrog:          0
LLC MSHR merge:          0
LLC TOTAL     ACCESS:    4141328  HIT:     159471  MISS:    3981857  HIT %:    3.85072  MISS %:    96.1493   MPKI: 19.9093
LLC LOAD      TOTAL       ACCESS:     175726  HIT:        396  MISS:     175330  HIT %:   0.225351  MISS %:    99.7746   MPKI: 0.87665
LLC LOAD      NON_SPEC    ACCESS:       1245  HIT:          0  MISS:       1245  HIT %:          0  MISS %:        100   MPKI: 0.006225
LLC LOAD      SPEC        ACCESS:     174481  HIT:        396  MISS:     174085  HIT %:   0.226959  MISS %:     99.773   MPKI: 0.870425
LLC RFO       NON_SPEC    ACCESS:      97449  HIT:          0  MISS:      97449  HIT %:          0  MISS %:        100   MPKI: 0.487245
LLC PREFETCH  NON_SPEC    ACCESS:    3528339  HIT:          0  MISS:    3528339  HIT %:          0  MISS %:        100   MPKI: 17.6417
LLC WRITEBACK NON_SPEC    ACCESS:      97445  HIT:      97445  MISS:          0  HIT %:        100  MISS %:          0   MPKI: 0
LLC CLEAN_EVICTION NON_SPEC    ACCESS:     208709  HIT:      61630  MISS:     147079  HIT %:    29.5292  MISS %:    70.4708   MPKI: 0.735395
LLC COMMIT LOAD NON_SPEC    ACCESS:      26223  HIT:          0  MISS:      26223  HIT %:          0  MISS %:        100   MPKI: 0.131115
LLC LOAD TRANSLATION NON_SPEC    ACCESS:       7437  HIT:          0  MISS:       7437  HIT %:          0  MISS %:        100   MPKI: 0.037185
LLC PREFETCH  REQUESTED:          0  ISSUED:          0  USEFUL:          0  USELESS:    3529088
LLC USEFUL LOAD PREFETCHES:          0 PREFETCH ISSUED TO LOWER LEVEL:    3528339  ACCURACY: 0
LLC TIMELY PREFETCHES:          0 LATE PREFETCHES: 0 DROPPED PREFETCHES: 0
LLC COMMIT LATE PREFETCHES: 0 MISSED OPPORTUNITY: 0 LATE IN PQ: 0 UNCOVERED: 0
LLC COMMIT LATE MSHR PREFETCHES: 0
LLC MPKI TOTAL: 0.87665 MSHR LATE: 0 PQ LATE: 0 COMMIT LATE: 0 MISSED OPPORTUNITY: 0 UNCOVERED: 0
LLC PREFETCHES SAME FILL-ORIGIN LEVEL: 0 DIFFERENT FILL-ORIGIN LEVEL: 0
LLC AVERAGE MISS LATENCY: 146.869 cycles
LLC AVERAGE MISS LATENCY LOAD: 99.5369 cycles
LLC AVERAGE MISS LATENCY PREFETCH: 154.264 cycles
LLC AVERAGE MSHR OCCUPANCY: 3.01471
LLC MSHR FULL: 0
LLC RQ	ACCESS:     306835	FORWARD:          0	MERGED:          0	TO_CACHE:     306835
LLC WQ	ACCESS:     306154	FORWARD:          0	MERGED:          0	TO_CACHE:     306154
LLC PQ	ACCESS:    3528339	FORWARD:          0	MERGED:          0	TO_CACHE:    3528339

LLC Dense regions hint to LLC: 0

RAW hits: 534690
Loads Generated: 85960188
Loads sent to L1D: 85425495
Stores Generated: 11266814
Stores sent to L1D: 11266825
Major fault: 0 Minor fault: 70877
Allocated PAGES: 70877
Total Load insts: 106136402
Total Non-spec loads: 6447609
Percentage of speculative loads: 93.9252

LeapFrogging counter: 181406
Commit hits: 47048712 miss: 32327437
Commit hit %: 59.2731 miss %: 40.7269
Commits not translated: 0
Loads retired: 232414
Stores retired: 11266825
Cache fills: 232414
L1D response latency: 130.899 cycles
Load retirement latency: 470.161 cycles
OOO test counter: 0
Discarded buffer inserts: 47048712 hits: 40 hit %: 8.50183e-05
Filter prediction accuracy: 99.9999

stream: 
stream:times selected: 28682848
stream:pref_filled: 4519127
stream:pref_useful: 4518424
stream:pref_late: 984
stream:misses: 5915
stream:misses_by_poll: 0

CS: 
CS:times selected: 27632999
CS:pref_filled: 41699
CS:pref_useful: 41691
CS:pref_late: 22
CS:misses: 259495
CS:misses_by_poll: 18

CPLX: 
CPLX:times selected: 1049638
CPLX:pref_filled: 81794
CPLX:pref_useful: 61519
CPLX:pref_late: 44
CPLX:misses: 11532
CPLX:misses_by_poll: 363

NL_L1: 
NL:times selected: 9863
NL:pref_filled: 452
NL:pref_useful: 452
NL:pref_late: 1
NL:misses: 902
NL:misses_by_poll: 0

total selections: 57375348
total_filled: 3685949
total_useful: 3669469
total_late: 1092
total_polluted: 381
total_misses_after_warmup: 256986
conflicts: 9
Degree Incremented Times: 1074579
Degree Decremented Times: 0

L1 IP Table Write Accesses: 66253861
L1 IP Table Read Accesses: 66253852
L1 RST Write Accesses: 23063035
L1 RST Read Accesses: 46126070
L1 CSPT Write Accesses: 23063035
L1 CSPT Read Accesses: 25392500
L1 RR Filter Tag Write Accesses: 126908291
L1 RR Filter Tag Read Accesses: 5899221557
L1 IP Table Tag Write Accesses: 66255014
L1 IP Table Tag Read Accesses: 66255014
L1 RST Tag Write Accesses: 0
L1 RST Tag Read Accesses: 207544527
L1 RR Filter Write Accesses: 0
L1 RR Filter Read Accesses: 197096465
test: 568455

DRAM Statistics
 CHANNEL 0
 RQ ROW_BUFFER_HIT:    2504973  ROW_BUFFER_MISS:    1329805
 DBUS_CONGESTED:       7373
 WQ ROW_BUFFER_HIT:      53060  ROW_BUFFER_MISS:     251343  FULL:          0

 AVG_CONGESTED_CYCLE: 4
 All warmup complete: 2
Channel 0 Bank busy for read cycles: 0
Channel 0 Bank busy for write cycles: 0
Channel 0
Rank 0
0banks busy for read cycles: 43981470
0banks busy for write cycles: 98465
1banks busy for read cycles: 40287635
1banks busy for write cycles: 13094028
2banks busy for read cycles: 27203454
2banks busy for write cycles: 7936603
3banks busy for read cycles: 21700473
3banks busy for write cycles: 3950970
4banks busy for read cycles: 14266522
4banks busy for write cycles: 1929469
5banks busy for read cycles: 8856929
5banks busy for write cycles: 995380
6banks busy for read cycles: 5114801
6banks busy for write cycles: 546129
7banks busy for read cycles: 3011657
7banks busy for write cycles: 396561
8banks busy for read cycles: 1482615
8banks busy for write cycles: 274846

CPU 0 Branch Prediction Accuracy: 99.9706% MPKI: 0.00733 Average ROB Occupancy at Mispredict: 32.7374
Branch types
NOT_BRANCH: 195007387 97.5037%
BRANCH_DIRECT_JUMP: 0 0%
BRANCH_INDIRECT: 0 0%
BRANCH_CONDITIONAL: 4992273 2.49614%
BRANCH_DIRECT_CALL: 0 0%
BRANCH_INDIRECT_CALL: 0 0%
BRANCH_RETURN: 0 0%
BRANCH_OTHER: 0 0%

DRAM PAGES: 1048576
Allocated PAGES: 70877
