
*** ChampSim Multicore Out-of-Order Simulator ***

Warmup Instructions: 50000000
Simulation Instructions: 200000000
Number of CPUs: 1
LLC sets: 2048
LLC ways: 16
L0D sets: 16
L0D ways: 2
ROB size: 352
LQ size: 128
SQ size: 72
Secure Berti: OFF
Berti: OFF
Berti Fill: OFF
On commit prefetching: OFF
Hit-based filter: ON
Time-guarding: ON
Free-slotting: ON
Leap-frogging: ON
Train prefetcher on L0D bypass: OFF
No translation penalty for prefetchers: OFF
Prefetch to L0D only: OFF
Prefetch to L1D only: OFF
Clean evictions: ON
Commit loads: ON
Commit write: ON
Fill commit loads to L2C, LLC: ON
DRAM IO FREQUENCY: 6400
ROB SIZE: 352
Off-chip DRAM Size: 4096 MB Channels: 1 Width: 64-bit Data Rate: 6400 MT/s
CPU 0 runs /home/sumon/secure_berti/GhostMinion/../../traces/spec/605.mcf_s-994B.champsimtrace.xz
.xz
BTB has LRU replacement policy
ITLB has LRU replacement policy
DTLB has LRU replacement policy
STLB has LRU replacement policy
L1I has LRU replacement policy
L0D has LRU replacement policy
IP Table Entries: 1024
CSPT Entries: 128
RR_ENTRIES: 32
RST_ENTRIES: 8
L1D has LRU replacement policy
L2C has LRU replacement policy
LLC has LRU replacement policy
Heartbeat CPU 0 instructions: 10000000 cycles: 6160659 heartbeat IPC: 1.6232 cumulative IPC: 1.6232 (Simulation time: 0 hr 0 min 52 sec) 
Heartbeat CPU 0 instructions: 20000000 cycles: 12502790 heartbeat IPC: 1.57676 cumulative IPC: 1.59964 (Simulation time: 0 hr 1 min 45 sec) 
Heartbeat CPU 0 instructions: 30000003 cycles: 18766155 heartbeat IPC: 1.59659 cumulative IPC: 1.59862 (Simulation time: 0 hr 2 min 39 sec) 
Heartbeat CPU 0 instructions: 40000002 cycles: 24990455 heartbeat IPC: 1.60661 cumulative IPC: 1.60061 (Simulation time: 0 hr 3 min 35 sec) 
Heartbeat CPU 0 instructions: 50000001 cycles: 31280581 heartbeat IPC: 1.58979 cumulative IPC: 1.59844 (Simulation time: 0 hr 4 min 35 sec) 

Warmup complete CPU 0 instructions: 50000001 cycles: 31280581 (Simulation time: 0 hr 4 min 35 sec) 

Heartbeat CPU 0 instructions: 60000000 cycles: 72927228 heartbeat IPC: 0.240115 cumulative IPC: 0.240115 (Simulation time: 0 hr 5 min 36 sec) 
Heartbeat CPU 0 instructions: 70000000 cycles: 123001385 heartbeat IPC: 0.199704 cumulative IPC: 0.218053 (Simulation time: 0 hr 6 min 41 sec) 
Heartbeat CPU 0 instructions: 80000002 cycles: 157118764 heartbeat IPC: 0.293106 cumulative IPC: 0.238401 (Simulation time: 0 hr 7 min 42 sec) 
Heartbeat CPU 0 instructions: 90000002 cycles: 190337051 heartbeat IPC: 0.301039 cumulative IPC: 0.251483 (Simulation time: 0 hr 8 min 42 sec) 
Heartbeat CPU 0 instructions: 100000002 cycles: 221362597 heartbeat IPC: 0.322315 cumulative IPC: 0.263044 (Simulation time: 0 hr 9 min 38 sec) 
Heartbeat CPU 0 instructions: 110000000 cycles: 275535868 heartbeat IPC: 0.184593 cumulative IPC: 0.245645 (Simulation time: 0 hr 10 min 49 sec) 
Heartbeat CPU 0 instructions: 120000000 cycles: 317367396 heartbeat IPC: 0.239054 cumulative IPC: 0.244681 (Simulation time: 0 hr 11 min 51 sec) 
Heartbeat CPU 0 instructions: 130000000 cycles: 357070344 heartbeat IPC: 0.25187 cumulative IPC: 0.245557 (Simulation time: 0 hr 12 min 54 sec) 
Heartbeat CPU 0 instructions: 140000000 cycles: 401910766 heartbeat IPC: 0.223013 cumulative IPC: 0.24283 (Simulation time: 0 hr 13 min 53 sec) 
Heartbeat CPU 0 instructions: 150000001 cycles: 466398960 heartbeat IPC: 0.155067 cumulative IPC: 0.229823 (Simulation time: 0 hr 15 min 0 sec) 
Heartbeat CPU 0 instructions: 160000003 cycles: 500078572 heartbeat IPC: 0.296916 cumulative IPC: 0.234643 (Simulation time: 0 hr 15 min 52 sec) 
Heartbeat CPU 0 instructions: 170000002 cycles: 526579561 heartbeat IPC: 0.377344 cumulative IPC: 0.242278 (Simulation time: 0 hr 16 min 35 sec) 
Heartbeat CPU 0 instructions: 180000000 cycles: 596911092 heartbeat IPC: 0.142184 cumulative IPC: 0.229832 (Simulation time: 0 hr 17 min 30 sec) 
Heartbeat CPU 0 instructions: 190000003 cycles: 624091600 heartbeat IPC: 0.367911 cumulative IPC: 0.236163 (Simulation time: 0 hr 18 min 11 sec) 
Heartbeat CPU 0 instructions: 200000001 cycles: 658356176 heartbeat IPC: 0.291847 cumulative IPC: 0.239206 (Simulation time: 0 hr 18 min 54 sec) 
Heartbeat CPU 0 instructions: 210000001 cycles: 709301597 heartbeat IPC: 0.196288 cumulative IPC: 0.235981 (Simulation time: 0 hr 19 min 47 sec) 
Heartbeat CPU 0 instructions: 220000000 cycles: 769939045 heartbeat IPC: 0.164915 cumulative IPC: 0.230147 (Simulation time: 0 hr 20 min 39 sec) 
Heartbeat CPU 0 instructions: 230000000 cycles: 807131275 heartbeat IPC: 0.268873 cumulative IPC: 0.232003 (Simulation time: 0 hr 21 min 23 sec) 
Heartbeat CPU 0 instructions: 240000002 cycles: 844460946 heartbeat IPC: 0.267883 cumulative IPC: 0.233651 (Simulation time: 0 hr 22 min 8 sec) 
Heartbeat CPU 0 instructions: 250000002 cycles: 872553448 heartbeat IPC: 0.355967 cumulative IPC: 0.237735 (Simulation time: 0 hr 22 min 48 sec) 
Finished CPU 0 instructions: 200000001 cycles: 841272867 cumulative IPC: 0.237735 (Simulation time: 0 hr 22 min 48 sec) 
 Instruction ID: 250000007

ChampSim completed all CPUs

Region of Interest Statistics

CPU 0 cumulative IPC: 0.237735 instructions: 200000001 cycles: 841272867
ITLB SPEC fills:          0  NON-SPEC fills:          0
ITLB Test counter :          0
ITLB Leapfrog:          0
ITLB MSHR merge:          0
ITLB TOTAL     ACCESS:   35385262  HIT:   35385262  MISS:          0  HIT %:        100  MISS %:          0   MPKI: 0
ITLB LOAD TRANSLATION NON_SPEC    ACCESS:   35385262  HIT:   35385262  MISS:          0  HIT %:        100  MISS %:          0   MPKI: 0
ITLB PREFETCH  REQUESTED:          0  ISSUED:          0  USEFUL:          0  USELESS:          0
ITLB USEFUL LOAD PREFETCHES:          0 PREFETCH ISSUED TO LOWER LEVEL:          0  ACCURACY: -nan
ITLB TIMELY PREFETCHES:          0 LATE PREFETCHES: 0 DROPPED PREFETCHES: 0
ITLB COMMIT LATE PREFETCHES: 0 MISSED OPPORTUNITY: 0 LATE IN PQ: 0 UNCOVERED: 0
ITLB COMMIT LATE MSHR PREFETCHES: 0
ITLB MPKI TOTAL: 0 MSHR LATE: 0 PQ LATE: 0 COMMIT LATE: 0 MISSED OPPORTUNITY: 0 UNCOVERED: 0
ITLB PREFETCHES SAME FILL-ORIGIN LEVEL: 0 DIFFERENT FILL-ORIGIN LEVEL: 0
ITLB AVERAGE MISS LATENCY: -nan cycles
ITLB AVERAGE MISS LATENCY LOAD: -nan cycles
ITLB AVERAGE MISS LATENCY PREFETCH: -nan cycles
ITLB AVERAGE MSHR OCCUPANCY: 0
ITLB MSHR FULL: 0
ITLB RQ	ACCESS:   36251771	FORWARD:          0	MERGED:     866509	TO_CACHE:   35385262

DTLB SPEC fills:          0  NON-SPEC fills:          0
DTLB Test counter :          0
DTLB Leapfrog:          0
DTLB MSHR merge:          0
DTLB TOTAL     ACCESS:   72185578  HIT:   69262498  MISS:    2923080  HIT %:    95.9506  MISS %:     4.0494   MPKI: 14.6154
DTLB LOAD TRANSLATION NON_SPEC    ACCESS:   72185578  HIT:   69262498  MISS:    2923080  HIT %:    95.9506  MISS %:     4.0494   MPKI: 14.6154
DTLB PREFETCH  REQUESTED:          0  ISSUED:          0  USEFUL:          0  USELESS:          0
DTLB USEFUL LOAD PREFETCHES:          0 PREFETCH ISSUED TO LOWER LEVEL:          0  ACCURACY: -nan
DTLB TIMELY PREFETCHES:          0 LATE PREFETCHES: 0 DROPPED PREFETCHES: 0
DTLB COMMIT LATE PREFETCHES: 0 MISSED OPPORTUNITY: 0 LATE IN PQ: 0 UNCOVERED: 0
DTLB COMMIT LATE MSHR PREFETCHES: 0
DTLB MPKI TOTAL: 0 MSHR LATE: 0 PQ LATE: 0 COMMIT LATE: 0 MISSED OPPORTUNITY: 0 UNCOVERED: 0
DTLB PREFETCHES SAME FILL-ORIGIN LEVEL: 0 DIFFERENT FILL-ORIGIN LEVEL: 0
DTLB AVERAGE MISS LATENCY: 103.323 cycles
DTLB AVERAGE MISS LATENCY LOAD: -nan cycles
DTLB AVERAGE MISS LATENCY PREFETCH: -nan cycles
DTLB AVERAGE MSHR OCCUPANCY: 0.184196
DTLB MSHR FULL: 0
DTLB RQ	ACCESS:   84446161	FORWARD:          0	MERGED:   11355264	TO_CACHE:   73090897

STLB SPEC fills:          0  NON-SPEC fills:          0
STLB Test counter :          0
STLB Leapfrog:          0
STLB MSHR merge:          0
STLB TOTAL     ACCESS:   15315644  HIT:   13870588  MISS:    1445056  HIT %:    90.5648  MISS %:    9.43516   MPKI: 7.22528
STLB LOAD TRANSLATION NON_SPEC    ACCESS:    2923080  HIT:    1478459  MISS:    1444621  HIT %:    50.5788  MISS %:    49.4212   MPKI: 7.2231
STLB TRANSLATION FROM L1D PREFETCHER NON_SPEC    ACCESS:   12392564  HIT:   12392129  MISS:        435  HIT %:    99.9965  MISS %: 0.00351017   MPKI: 0.002175
STLB PREFETCH  REQUESTED:          0  ISSUED:          0  USEFUL:        398  USELESS:         37
STLB USEFUL LOAD PREFETCHES:        398 PREFETCH ISSUED TO LOWER LEVEL:          0  ACCURACY: inf
STLB TIMELY PREFETCHES:        398 LATE PREFETCHES: 0 DROPPED PREFETCHES: 0
STLB COMMIT LATE PREFETCHES: 0 MISSED OPPORTUNITY: 0 LATE IN PQ: 0 UNCOVERED: 0
STLB COMMIT LATE MSHR PREFETCHES: 0
STLB MPKI TOTAL: 0 MSHR LATE: 0 PQ LATE: 0 COMMIT LATE: 0 MISSED OPPORTUNITY: 0 UNCOVERED: 0
STLB PREFETCHES SAME FILL-ORIGIN LEVEL: 0 DIFFERENT FILL-ORIGIN LEVEL: 0
STLB AVERAGE MISS LATENCY: 190.742 cycles
STLB AVERAGE MISS LATENCY LOAD: -nan cycles
STLB AVERAGE MISS LATENCY PREFETCH: -nan cycles
STLB AVERAGE MSHR OCCUPANCY: 0.141213
STLB MSHR FULL: 0
STLB RQ	ACCESS:   19720225	FORWARD:          0	MERGED:    4404213	TO_CACHE:   15316012

STLB Hit, L1D data hit: 0
STLB Hit, L2C data hit: 0
STLB Hit, LLC data hit: 0
STLB Hit, LLC data miss: 0
STLB STLB hints to L2: 0
L0D SPEC fills:   42432355  NON-SPEC fills:          0
L0D TimeGuard Request with older TS:     361148 Restricted eviction:     150819 read:     265728
L0D Test counter :          0
L0D Leapfrog:          0
L0D MSHR merge:     635010
L0D TOTAL     ACCESS:   63563097  HIT:    4507200  MISS:   59055897  HIT %:    7.09091  MISS %:    92.9091   MPKI: 295.279
L0D LOAD      TOTAL       ACCESS:   63563097  HIT:    4507200  MISS:   59055897  HIT %:    7.09091  MISS %:    92.9091   MPKI: 295.279
L0D LOAD      NON_SPEC    ACCESS:   16921279  HIT:     448556  MISS:   16472723  HIT %:    2.65084  MISS %:    97.3492   MPKI: 82.3636
L0D LOAD      SPEC        ACCESS:   46641818  HIT:    4058644  MISS:   42583174  HIT %:    8.70173  MISS %:    91.2983   MPKI: 212.916
L0D PREFETCH  REQUESTED:          0  ISSUED:          0  USEFUL:          0  USELESS:          0
L0D USEFUL LOAD PREFETCHES:          0 PREFETCH ISSUED TO LOWER LEVEL:          0  ACCURACY: -nan
L0D TIMELY PREFETCHES:          0 LATE PREFETCHES: 0 DROPPED PREFETCHES: 0
L0D COMMIT LATE PREFETCHES: 0 MISSED OPPORTUNITY: 0 LATE IN PQ: 0 UNCOVERED: 0
L0D COMMIT LATE MSHR PREFETCHES: 0
L0D MPKI TOTAL: 298.455 MSHR LATE: 0 PQ LATE: 0 COMMIT LATE: 0 MISSED OPPORTUNITY: 0 UNCOVERED: 0
L0D PREFETCHES SAME FILL-ORIGIN LEVEL: 0 DIFFERENT FILL-ORIGIN LEVEL: 0
L0D AVERAGE MISS LATENCY: 17.3692 cycles
L0D AVERAGE MISS LATENCY LOAD: 17.3692 cycles
L0D AVERAGE MISS LATENCY PREFETCH: -nan cycles
L0D AVERAGE MSHR OCCUPANCY: 0.803778
L0D MSHR FULL: 0
L0D RQ	ACCESS:   67646080	FORWARD:          0	MERGED:    3447977	TO_CACHE:   64198103
L0D WQ	ACCESS:   20248058	FORWARD:          0	MERGED:          0	TO_CACHE:   20248058

L1D SPEC fills:          0  NON-SPEC fills:    2197770
L1D Test counter :          0
L1D Leapfrog:          0
L1D MSHR merge:     507203
L1D TOTAL     ACCESS:   98749842  HIT:   79416875  MISS:   19332967  HIT %:    80.4223  MISS %:    19.5777   MPKI: 96.6648
L1D LOAD      TOTAL       ACCESS:   59052773  HIT:   52061426  MISS:    6991347  HIT %:    88.1608  MISS %:    11.8392   MPKI: 34.9567
L1D LOAD      NON_SPEC    ACCESS:   16472473  HIT:   14274703  MISS:    2197770  HIT %:    86.6579  MISS %:    13.3421   MPKI: 10.9888
L1D LOAD      SPEC        ACCESS:   42580300  HIT:   37786723  MISS:    4793577  HIT %:    88.7423  MISS %:    11.2577   MPKI: 23.9679
L1D RFO       NON_SPEC    ACCESS:   20074324  HIT:   20016321  MISS:      58003  HIT %:    99.7111  MISS %:   0.288941   MPKI: 0.290015
L1D PREFETCH  NON_SPEC    ACCESS:   14752085  HIT:    7109958  MISS:    7642127  HIT %:    48.1963  MISS %:    51.8037   MPKI: 38.2106
L1D COMMIT LOAD NON_SPEC    ACCESS:     142098  HIT:      82897  MISS:      59201  HIT %:    58.3379  MISS %:    41.6621   MPKI: 0.296005
L1D COMMIT WRITE NON_SPEC    ACCESS:    4728562  HIT:     146273  MISS:    4582289  HIT %:    3.09339  MISS %:    96.9066   MPKI: 22.9114
L1D PREFETCH  REQUESTED:   16797162  ISSUED:   16797145  USEFUL:    1011061  USELESS:    6630950
L1D USEFUL LOAD PREFETCHES:    1011061 PREFETCH ISSUED TO LOWER LEVEL:    8158510  ACCURACY: 12.3927
L1D TIMELY PREFETCHES:    1011061 LATE PREFETCHES: 515004 DROPPED PREFETCHES: 0
L1D COMMIT LATE PREFETCHES: 0 MISSED OPPORTUNITY: 0 LATE IN PQ: 0 UNCOVERED: 0
L1D COMMIT LATE MSHR PREFETCHES: 0
L1D MPKI TOTAL: 34.9724 MSHR LATE: 2.57502 PQ LATE: 0 COMMIT LATE: 0 MISSED OPPORTUNITY: 0 UNCOVERED: 0
L1D PREFETCHES SAME FILL-ORIGIN LEVEL: 8158510 DIFFERENT FILL-ORIGIN LEVEL: 0
L1D AVERAGE MISS LATENCY: 92.2022 cycles
L1D AVERAGE MISS LATENCY LOAD: 103.898 cycles
L1D AVERAGE MISS LATENCY PREFETCH: 137.405 cycles
L1D AVERAGE MSHR OCCUPANCY: 1.60758
L1D MSHR FULL: 9.37952e-05
L1D RQ	ACCESS:   59199986	FORWARD:          0	MERGED:       1806	TO_CACHE:   59198177
L1D WQ	ACCESS:   24976622	FORWARD:          3	MERGED:      84621	TO_CACHE:   24892001
L1D PQ	ACCESS:   16797145	FORWARD:          0	MERGED:          0	TO_CACHE:   16797145

L1D UNIQUE REGIONS ACCESSED: 0
L1D REGIONS CONFLICTS: 0
L1D Cross Page Prefetch Requests: 0
L1D Same Page Prefetch Requests: 19992507
L1D ROI Sum of L1D PQ occupancy: 219251989
L1D PREFETCHES PUSHED FROM L2C: 0
L1I SPEC fills:          0  NON-SPEC fills:          0
L1I Test counter :          0
L1I Leapfrog:          0
L1I MSHR merge:          0
L1I TOTAL     ACCESS:   36251771  HIT:   36251771  MISS:          0  HIT %:        100  MISS %:          0   MPKI: 0
L1I LOAD      TOTAL       ACCESS:   36251771  HIT:   36251771  MISS:          0  HIT %:        100  MISS %:          0   MPKI: 0
L1I LOAD      NON_SPEC    ACCESS:   36251771  HIT:   36251771  MISS:          0  HIT %:        100  MISS %:          0   MPKI: 0
L1I PREFETCH  REQUESTED:          0  ISSUED:          0  USEFUL:          0  USELESS:          0
L1I USEFUL LOAD PREFETCHES:          0 PREFETCH ISSUED TO LOWER LEVEL:          0  ACCURACY: -nan
L1I TIMELY PREFETCHES:          0 LATE PREFETCHES: 0 DROPPED PREFETCHES: 0
L1I COMMIT LATE PREFETCHES: 0 MISSED OPPORTUNITY: 0 LATE IN PQ: 0 UNCOVERED: 0
L1I COMMIT LATE MSHR PREFETCHES: 0
L1I MPKI TOTAL: 0 MSHR LATE: 0 PQ LATE: 0 COMMIT LATE: 0 MISSED OPPORTUNITY: 0 UNCOVERED: 0
L1I PREFETCHES SAME FILL-ORIGIN LEVEL: 0 DIFFERENT FILL-ORIGIN LEVEL: 0
L1I AVERAGE MISS LATENCY: -nan cycles
L1I AVERAGE MISS LATENCY LOAD: -nan cycles
L1I AVERAGE MISS LATENCY PREFETCH: -nan cycles
L1I AVERAGE MSHR OCCUPANCY: 0
L1I MSHR FULL: 0
L1I RQ	ACCESS:   57483314	FORWARD:          0	MERGED:   21231543	TO_CACHE:   36251771

BTB SPEC fills:          0  NON-SPEC fills:          0
BTB Test counter :          0
BTB Leapfrog:          0
BTB MSHR merge:          0
BTB TOTAL     ACCESS:   47143243  HIT:   44382764  MISS:    2760479  HIT %:    94.1445  MISS %:    5.85551   MPKI: 13.8024
BTB BRANCH_DIRECT_JUMP	ACCESS:    4520858  HIT:    4520837  MISS:         21
BTB BRANCH_INDIRECT	ACCESS:          0  HIT:          0  MISS:          0
BTB BRANCH_CONDITIONAL	ACCESS:   30060449  HIT:   30060407  MISS:         42
BTB BRANCH_DIRECT_CALL	ACCESS:    6072091  HIT:    6072078  MISS:         13
BTB BRANCH_INDIRECT_CALL	ACCESS:     208878  HIT:     208870  MISS:          8
BTB BRANCH_RETURN	ACCESS:    6280967  HIT:    3520572  MISS:    2760395
BTB BRANCH_OTHER ACCESS:          0  HIT:          0  MISS:          0

L2C SPEC fills:          0  NON-SPEC fills:    1142215
L2C Test counter :          0
L2C Leapfrog:          0
L2C MSHR merge:          0
L2C TOTAL     ACCESS:   25810353  HIT:   12296792  MISS:   13513561  HIT %:    47.6429  MISS %:    52.3571   MPKI: 67.5678
L2C LOAD      TOTAL       ACCESS:    6487205  HIT:    2191996  MISS:    4295209  HIT %:    33.7895  MISS %:    66.2105   MPKI: 21.476
L2C LOAD      NON_SPEC    ACCESS:    1895274  HIT:     753059  MISS:    1142215  HIT %:    39.7335  MISS %:    60.2665   MPKI: 5.71107
L2C LOAD      SPEC        ACCESS:    4591931  HIT:    1438937  MISS:    3152994  HIT %:    31.3362  MISS %:    68.6638   MPKI: 15.765
L2C RFO       NON_SPEC    ACCESS:      56621  HIT:      49731  MISS:       6890  HIT %:    87.8314  MISS %:    12.1686   MPKI: 0.03445
L2C PREFETCH  NON_SPEC    ACCESS:    8158451  HIT:    2539319  MISS:    5619132  HIT %:     31.125  MISS %:     68.875   MPKI: 28.0957
L2C WRITEBACK NON_SPEC    ACCESS:     528660  HIT:     527422  MISS:       1238  HIT %:    99.7658  MISS %:   0.234177   MPKI: 0.00619
L2C CLEAN_EVICTION NON_SPEC    ACCESS:    3305867  HIT:     389293  MISS:    2916574  HIT %:    11.7758  MISS %:    88.2242   MPKI: 14.5829
L2C COMMIT LOAD NON_SPEC    ACCESS:      48276  HIT:      15700  MISS:      32576  HIT %:    32.5213  MISS %:    67.4787   MPKI: 0.16288
L2C LOAD TRANSLATION NON_SPEC    ACCESS:    7223098  HIT:    6581862  MISS:     641236  HIT %:    91.1224  MISS %:    8.87758   MPKI: 3.20618
L2C TRANSLATION FROM L1D PREFETCHER NON_SPEC    ACCESS:       2175  HIT:       1469  MISS:        706  HIT %:    67.5402  MISS %:    32.4598   MPKI: 0.00353
L2C PREFETCH  REQUESTED:          0  ISSUED:          0  USEFUL:     176128  USELESS:    5442697
L2C USEFUL LOAD PREFETCHES:     176128 PREFETCH ISSUED TO LOWER LEVEL:    5619132  ACCURACY: 3.13443
L2C TIMELY PREFETCHES:     176128 LATE PREFETCHES: 0 DROPPED PREFETCHES: 0
L2C COMMIT LATE PREFETCHES: 0 MISSED OPPORTUNITY: 0 LATE IN PQ: 0 UNCOVERED: 0
L2C COMMIT LATE MSHR PREFETCHES: 0
L2C MPKI TOTAL: 21.476 MSHR LATE: 0 PQ LATE: 0 COMMIT LATE: 0 MISSED OPPORTUNITY: 0 UNCOVERED: 0
L2C PREFETCHES SAME FILL-ORIGIN LEVEL: 0 DIFFERENT FILL-ORIGIN LEVEL: 0
L2C AVERAGE MISS LATENCY: 126.147 cycles
L2C AVERAGE MISS LATENCY LOAD: 139.83 cycles
L2C AVERAGE MISS LATENCY PREFETCH: 176.446 cycles
L2C AVERAGE MSHR OCCUPANCY: 1.6872
L2C MSHR FULL: 0
L2C RQ	ACCESS:   13817442	FORWARD:          0	MERGED:          0	TO_CACHE:   13817375
L2C WQ	ACCESS:    3834527	FORWARD:        125	MERGED:          0	TO_CACHE:    3834527
L2C PQ	ACCESS:    8158510	FORWARD:          0	MERGED:          0	TO_CACHE:    8158452

L2C Instructions Evicting Data 0
L2C Translations Evicting Data 590433
L2C Data Evicting Data 6399377
L2C Instructions Evicting Instructions 0
L2C Translations Evicting Instructions 0
L2C Data Evicting Instructions 0
L2C Instructions Evicting Translations 0
L2C Translations Evicting Translations 51509
L2C Data Evicting Translations 401436
L2C Dense regions hint from L2: 0
PSCL5 SPEC fills:          0  NON-SPEC fills:          0
PSCL5 Test counter :          0
PSCL5 Leapfrog:          0
PSCL5 MSHR merge:          0
PSCL5 TOTAL     ACCESS:          0  HIT:          0  MISS:          0  HIT %:       -nan  MISS %:       -nan   MPKI: 0
PSCL5 PREFETCH  REQUESTED:          0  ISSUED:          0  USEFUL:          0  USELESS:          0
PSCL5 USEFUL LOAD PREFETCHES:          0 PREFETCH ISSUED TO LOWER LEVEL:          0  ACCURACY: -nan
PSCL5 TIMELY PREFETCHES:          0 LATE PREFETCHES: 0 DROPPED PREFETCHES: 0
PSCL5 COMMIT LATE PREFETCHES: 0 MISSED OPPORTUNITY: 0 LATE IN PQ: 0 UNCOVERED: 0
PSCL5 COMMIT LATE MSHR PREFETCHES: 0
PSCL5 MPKI TOTAL: 0 MSHR LATE: 0 PQ LATE: 0 COMMIT LATE: 0 MISSED OPPORTUNITY: 0 UNCOVERED: 0
PSCL5 PREFETCHES SAME FILL-ORIGIN LEVEL: 0 DIFFERENT FILL-ORIGIN LEVEL: 0

PSCL4 SPEC fills:          0  NON-SPEC fills:          0
PSCL4 Test counter :          0
PSCL4 Leapfrog:          0
PSCL4 MSHR merge:          0
PSCL4 TOTAL     ACCESS:          0  HIT:          0  MISS:          0  HIT %:       -nan  MISS %:       -nan   MPKI: 0
PSCL4 PREFETCH  REQUESTED:          0  ISSUED:          0  USEFUL:          0  USELESS:          0
PSCL4 USEFUL LOAD PREFETCHES:          0 PREFETCH ISSUED TO LOWER LEVEL:          0  ACCURACY: -nan
PSCL4 TIMELY PREFETCHES:          0 LATE PREFETCHES: 0 DROPPED PREFETCHES: 0
PSCL4 COMMIT LATE PREFETCHES: 0 MISSED OPPORTUNITY: 0 LATE IN PQ: 0 UNCOVERED: 0
PSCL4 COMMIT LATE MSHR PREFETCHES: 0
PSCL4 MPKI TOTAL: 0 MSHR LATE: 0 PQ LATE: 0 COMMIT LATE: 0 MISSED OPPORTUNITY: 0 UNCOVERED: 0
PSCL4 PREFETCHES SAME FILL-ORIGIN LEVEL: 0 DIFFERENT FILL-ORIGIN LEVEL: 0

PSCL3 SPEC fills:          0  NON-SPEC fills:          0
PSCL3 Test counter :          0
PSCL3 Leapfrog:          0
PSCL3 MSHR merge:          0
PSCL3 TOTAL     ACCESS:          0  HIT:          0  MISS:          0  HIT %:       -nan  MISS %:       -nan   MPKI: 0
PSCL3 PREFETCH  REQUESTED:          0  ISSUED:          0  USEFUL:          0  USELESS:          0
PSCL3 USEFUL LOAD PREFETCHES:          0 PREFETCH ISSUED TO LOWER LEVEL:          0  ACCURACY: -nan
PSCL3 TIMELY PREFETCHES:          0 LATE PREFETCHES: 0 DROPPED PREFETCHES: 0
PSCL3 COMMIT LATE PREFETCHES: 0 MISSED OPPORTUNITY: 0 LATE IN PQ: 0 UNCOVERED: 0
PSCL3 COMMIT LATE MSHR PREFETCHES: 0
PSCL3 MPKI TOTAL: 0 MSHR LATE: 0 PQ LATE: 0 COMMIT LATE: 0 MISSED OPPORTUNITY: 0 UNCOVERED: 0
PSCL3 PREFETCHES SAME FILL-ORIGIN LEVEL: 0 DIFFERENT FILL-ORIGIN LEVEL: 0

PSCL2 SPEC fills:          0  NON-SPEC fills:          0
PSCL2 Test counter :          0
PSCL2 Leapfrog:          0
PSCL2 MSHR merge:          0
PSCL2 TOTAL     ACCESS:          0  HIT:          0  MISS:          0  HIT %:       -nan  MISS %:       -nan   MPKI: 0
PSCL2 PREFETCH  REQUESTED:          0  ISSUED:          0  USEFUL:          0  USELESS:          0
PSCL2 USEFUL LOAD PREFETCHES:          0 PREFETCH ISSUED TO LOWER LEVEL:          0  ACCURACY: -nan
PSCL2 TIMELY PREFETCHES:          0 LATE PREFETCHES: 0 DROPPED PREFETCHES: 0
PSCL2 COMMIT LATE PREFETCHES: 0 MISSED OPPORTUNITY: 0 LATE IN PQ: 0 UNCOVERED: 0
PSCL2 COMMIT LATE MSHR PREFETCHES: 0
PSCL2 MPKI TOTAL: 0 MSHR LATE: 0 PQ LATE: 0 COMMIT LATE: 0 MISSED OPPORTUNITY: 0 UNCOVERED: 0
PSCL2 PREFETCHES SAME FILL-ORIGIN LEVEL: 0 DIFFERENT FILL-ORIGIN LEVEL: 0

LLC SPEC fills:          0  NON-SPEC fills:     782333
LLC Test counter :          0
LLC Leapfrog:          0
LLC MSHR merge:          0
LLC TOTAL     ACCESS:   14196546  HIT:    4171761  MISS:   10024785  HIT %:    29.3857  MISS %:    70.6143   MPKI: 50.1239
LLC LOAD      TOTAL       ACCESS:    4295166  HIT:    1392138  MISS:    2903028  HIT %:    32.4117  MISS %:    67.5883   MPKI: 14.5151
LLC LOAD      NON_SPEC    ACCESS:    1142208  HIT:     359875  MISS:     782333  HIT %:     31.507  MISS %:     68.493   MPKI: 3.91166
LLC LOAD      SPEC        ACCESS:    3152958  HIT:    1032263  MISS:    2120695  HIT %:    32.7395  MISS %:    67.2605   MPKI: 10.6035
LLC RFO       NON_SPEC    ACCESS:       6890  HIT:       4629  MISS:       2261  HIT %:    67.1843  MISS %:    32.8157   MPKI: 0.011305
LLC PREFETCH  NON_SPEC    ACCESS:    5619119  HIT:    1121923  MISS:    4497196  HIT %:    19.9662  MISS %:    80.0338   MPKI: 22.486
LLC WRITEBACK NON_SPEC    ACCESS:     321511  HIT:     319758  MISS:       1753  HIT %:    99.4548  MISS %:   0.545238   MPKI: 0.008765
LLC CLEAN_EVICTION NON_SPEC    ACCESS:    3279343  HIT:    1126687  MISS:    2152656  HIT %:    34.3571  MISS %:    65.6429   MPKI: 10.7633
LLC COMMIT LOAD NON_SPEC    ACCESS:      32575  HIT:      15109  MISS:      17466  HIT %:    46.3822  MISS %:    53.6178   MPKI: 0.08733
LLC LOAD TRANSLATION NON_SPEC    ACCESS:     641236  HIT:     191077  MISS:     450159  HIT %:    29.7982  MISS %:    70.2018   MPKI: 2.25079
LLC TRANSLATION FROM L1D PREFETCHER NON_SPEC    ACCESS:        706  HIT:        440  MISS:        266  HIT %:    62.3229  MISS %:    37.6771   MPKI: 0.00133
LLC PREFETCH  REQUESTED:          0  ISSUED:          0  USEFUL:      81168  USELESS:    4413986
LLC USEFUL LOAD PREFETCHES:      81168 PREFETCH ISSUED TO LOWER LEVEL:    4497196  ACCURACY: 1.80486
LLC TIMELY PREFETCHES:      81168 LATE PREFETCHES: 0 DROPPED PREFETCHES: 0
LLC COMMIT LATE PREFETCHES: 0 MISSED OPPORTUNITY: 0 LATE IN PQ: 0 UNCOVERED: 0
LLC COMMIT LATE MSHR PREFETCHES: 0
LLC MPKI TOTAL: 14.5151 MSHR LATE: 0 PQ LATE: 0 COMMIT LATE: 0 MISSED OPPORTUNITY: 0 UNCOVERED: 0
LLC PREFETCHES SAME FILL-ORIGIN LEVEL: 0 DIFFERENT FILL-ORIGIN LEVEL: 0
LLC AVERAGE MISS LATENCY: 141.064 cycles
LLC AVERAGE MISS LATENCY LOAD: 172.118 cycles
LLC AVERAGE MISS LATENCY PREFETCH: 182.846 cycles
LLC AVERAGE MSHR OCCUPANCY: 1.50254
LLC MSHR FULL: 0
LLC RQ	ACCESS:    4976617	FORWARD:          0	MERGED:          0	TO_CACHE:    4976573
LLC WQ	ACCESS:    3600854	FORWARD:         57	MERGED:          0	TO_CACHE:    3600854
LLC PQ	ACCESS:    5619132	FORWARD:          0	MERGED:          0	TO_CACHE:    5619119

LLC Dense regions hint to LLC: 0

RAW hits: 1740015
Loads Generated: 69386095
Loads sent to L1D: 67646080
Stores Generated: 20248054
Stores sent to L1D: 20248058
Major fault: 0 Minor fault: 167265
Allocated PAGES: 167265
Total Load insts: 83860463
Total Non-spec loads: 18916564
Percentage of speculative loads: 77.4428

LeapFrogging counter: 3257
Commit hits: 42197620 miss: 8357522
Commit hit %: 83.4685 miss %: 16.5315
Commits not translated: 0
Loads retired: 6991347
Stores retired: 20248058
Cache fills: 6991347
L1D response latency: 103.898 cycles
Load retirement latency: 207.28 cycles
OOO test counter: 0
Discarded buffer inserts: 42197620 hits: 11288 hit %: 0.0267503
Filter prediction accuracy: 99.9934

stream: 
stream:times selected: 22339175
stream:pref_filled: 6350725
stream:pref_useful: 892621
stream:pref_late: 302348
stream:misses: 2038256
stream:misses_by_poll: 0

CS: 
CS:times selected: 1095561
CS:pref_filled: 475913
CS:pref_useful: 452283
CS:pref_late: 4
CS:misses: 3653
CS:misses_by_poll: 11154

CPLX: 
CPLX:times selected: 21063684
CPLX:pref_filled: 2527105
CPLX:pref_useful: 127268
CPLX:pref_late: 3316
CPLX:misses: 6276053
CPLX:misses_by_poll: 204429

NL_L1: 
NL:times selected: 233215
NL:pref_filled: 72648
NL:pref_useful: 16764
NL:pref_late: 3856
NL:misses: 87765
NL:misses_by_poll: 4565

total selections: 44731635
total_filled: 7642127
total_useful: 1011061
total_late: 326041
total_polluted: 220148
total_misses_after_warmup: 6994471
conflicts: 77212
Degree Incremented Times: 266364
Degree Decremented Times: 779753

L1 IP Table Write Accesses: 58937458
L1 IP Table Read Accesses: 58860246
L1 RST Write Accesses: 18311609
L1 RST Read Accesses: 36623218
L1 CSPT Write Accesses: 18311609
L1 CSPT Read Accesses: 35523264
L1 RR Filter Tag Write Accesses: 16797162
L1 RR Filter Tag Read Accesses: 681458173
L1 IP Table Tag Write Accesses: 59055897
L1 IP Table Tag Read Accesses: 59055897
L1 RST Tag Write Accesses: 0
L1 RST Tag Read Accesses: 177538526
L1 RR Filter Write Accesses: 0
L1 RR Filter Read Accesses: 24629018
test: 12623691

DRAM Statistics
 CHANNEL 0
 RQ ROW_BUFFER_HIT:     338716  ROW_BUFFER_MISS:    7531074
 DBUS_CONGESTED:       1099
 WQ ROW_BUFFER_HIT:     856359  ROW_BUFFER_MISS:    1811224  FULL:          0

 AVG_CONGESTED_CYCLE: 4
 All warmup complete: 2
Channel 0 Bank busy for read cycles: 0
Channel 0 Bank busy for write cycles: 0
Channel 0
Rank 0
0banks busy for read cycles: 125163012
0banks busy for write cycles: 331888
1banks busy for read cycles: 181426724
1banks busy for write cycles: 51210734
2banks busy for read cycles: 148979936
2banks busy for write cycles: 35857060
3banks busy for read cycles: 102173348
3banks busy for write cycles: 26655203
4banks busy for read cycles: 44679546
4banks busy for write cycles: 20468179
5banks busy for read cycles: 20614145
5banks busy for write cycles: 16557040
6banks busy for read cycles: 9424388
6banks busy for write cycles: 15453992
7banks busy for read cycles: 2744991
7banks busy for write cycles: 18185606
8banks busy for read cycles: 563872
8banks busy for write cycles: 20783204

CPU 0 Branch Prediction Accuracy: 94.7162% MPKI: 13.0983 Average ROB Occupancy at Mispredict: 23.2598
Branch types
NOT_BRANCH: 150420415 75.2102%
BRANCH_DIRECT_JUMP: 4520858 2.26043%
BRANCH_INDIRECT: 0 0%
BRANCH_CONDITIONAL: 32496415 16.2482%
BRANCH_DIRECT_CALL: 6072091 3.03605%
BRANCH_INDIRECT_CALL: 208878 0.104439%
BRANCH_RETURN: 6280967 3.14048%
BRANCH_OTHER: 0 0%

DRAM PAGES: 1048576
Allocated PAGES: 167265
