
*** ChampSim Multicore Out-of-Order Simulator ***

Warmup Instructions: 50000000
Simulation Instructions: 200000000
Number of CPUs: 1
LLC sets: 2048
LLC ways: 16
L0D sets: 16
L0D ways: 2
ROB size: 352
LQ size: 128
SQ size: 72
Secure Berti: OFF
Berti: OFF
Berti Fill: OFF
On commit prefetching: OFF
Hit-based filter: ON
Time-guarding: ON
Free-slotting: ON
Leap-frogging: ON
Train prefetcher on L0D bypass: OFF
No translation penalty for prefetchers: OFF
Prefetch to L0D only: OFF
Prefetch to L1D only: OFF
Clean evictions: ON
Commit loads: ON
Commit write: ON
Fill commit loads to L2C, LLC: ON
DRAM IO FREQUENCY: 6400
ROB SIZE: 352
Off-chip DRAM Size: 4096 MB Channels: 1 Width: 64-bit Data Rate: 6400 MT/s
CPU 0 runs /home/sumon/secure_berti/GhostMinion/../../traces/spec/607.cactuBSSN_s-3477B.champsimtrace.xz
.xz
BTB has LRU replacement policy
ITLB has LRU replacement policy
DTLB has LRU replacement policy
STLB has LRU replacement policy
L1I has LRU replacement policy
L0D has LRU replacement policy
IP Table Entries: 1024
CSPT Entries: 128
RR_ENTRIES: 32
RST_ENTRIES: 8
L1D has LRU replacement policy
L2C has LRU replacement policy
LLC has LRU replacement policy
Heartbeat CPU 0 instructions: 10000000 cycles: 4517835 heartbeat IPC: 2.21345 cumulative IPC: 2.21345 (Simulation time: 0 hr 0 min 49 sec) 
Heartbeat CPU 0 instructions: 20000001 cycles: 9043670 heartbeat IPC: 2.20954 cumulative IPC: 2.21149 (Simulation time: 0 hr 1 min 37 sec) 
Heartbeat CPU 0 instructions: 30000000 cycles: 13561617 heartbeat IPC: 2.21339 cumulative IPC: 2.21213 (Simulation time: 0 hr 2 min 26 sec) 
Heartbeat CPU 0 instructions: 40000003 cycles: 18076750 heartbeat IPC: 2.21477 cumulative IPC: 2.21279 (Simulation time: 0 hr 3 min 17 sec) 
Heartbeat CPU 0 instructions: 50000002 cycles: 22600755 heartbeat IPC: 2.21043 cumulative IPC: 2.21232 (Simulation time: 0 hr 4 min 9 sec) 

Warmup complete CPU 0 instructions: 50000002 cycles: 22600755 (Simulation time: 0 hr 4 min 9 sec) 

Heartbeat CPU 0 instructions: 60000000 cycles: 38730685 heartbeat IPC: 0.619965 cumulative IPC: 0.619965 (Simulation time: 0 hr 5 min 1 sec) 
Heartbeat CPU 0 instructions: 70000002 cycles: 54931285 heartbeat IPC: 0.617261 cumulative IPC: 0.61861 (Simulation time: 0 hr 5 min 55 sec) 
Heartbeat CPU 0 instructions: 80000003 cycles: 71095054 heartbeat IPC: 0.618668 cumulative IPC: 0.618629 (Simulation time: 0 hr 6 min 49 sec) 
Heartbeat CPU 0 instructions: 90000002 cycles: 87246216 heartbeat IPC: 0.61915 cumulative IPC: 0.61876 (Simulation time: 0 hr 7 min 43 sec) 
Heartbeat CPU 0 instructions: 100000000 cycles: 103380944 heartbeat IPC: 0.619781 cumulative IPC: 0.618964 (Simulation time: 0 hr 8 min 38 sec) 
Heartbeat CPU 0 instructions: 110000000 cycles: 119587132 heartbeat IPC: 0.617048 cumulative IPC: 0.618644 (Simulation time: 0 hr 9 min 33 sec) 
Heartbeat CPU 0 instructions: 120000002 cycles: 135884707 heartbeat IPC: 0.613588 cumulative IPC: 0.617916 (Simulation time: 0 hr 10 min 28 sec) 
Heartbeat CPU 0 instructions: 130000000 cycles: 152282212 heartbeat IPC: 0.609849 cumulative IPC: 0.616896 (Simulation time: 0 hr 11 min 23 sec) 
Heartbeat CPU 0 instructions: 140000000 cycles: 168601110 heartbeat IPC: 0.612786 cumulative IPC: 0.616437 (Simulation time: 0 hr 12 min 18 sec) 
Heartbeat CPU 0 instructions: 150000000 cycles: 184908802 heartbeat IPC: 0.613208 cumulative IPC: 0.616112 (Simulation time: 0 hr 13 min 12 sec) 
Heartbeat CPU 0 instructions: 160000001 cycles: 201495813 heartbeat IPC: 0.602881 cumulative IPC: 0.614886 (Simulation time: 0 hr 14 min 5 sec) 
Heartbeat CPU 0 instructions: 170000000 cycles: 217855792 heartbeat IPC: 0.611248 cumulative IPC: 0.614581 (Simulation time: 0 hr 14 min 55 sec) 
Heartbeat CPU 0 instructions: 180000000 cycles: 234288480 heartbeat IPC: 0.608543 cumulative IPC: 0.614112 (Simulation time: 0 hr 15 min 43 sec) 
Heartbeat CPU 0 instructions: 190000000 cycles: 250606610 heartbeat IPC: 0.612815 cumulative IPC: 0.614019 (Simulation time: 0 hr 16 min 28 sec) 
Heartbeat CPU 0 instructions: 200000000 cycles: 267214479 heartbeat IPC: 0.602124 cumulative IPC: 0.613212 (Simulation time: 0 hr 17 min 11 sec) 
Heartbeat CPU 0 instructions: 210000001 cycles: 283540385 heartbeat IPC: 0.612523 cumulative IPC: 0.613169 (Simulation time: 0 hr 17 min 54 sec) 
Heartbeat CPU 0 instructions: 220000000 cycles: 299768061 heartbeat IPC: 0.616231 cumulative IPC: 0.613348 (Simulation time: 0 hr 18 min 37 sec) 
Heartbeat CPU 0 instructions: 230000000 cycles: 315996296 heartbeat IPC: 0.61621 cumulative IPC: 0.613506 (Simulation time: 0 hr 19 min 20 sec) 
Heartbeat CPU 0 instructions: 240000001 cycles: 332369188 heartbeat IPC: 0.610766 cumulative IPC: 0.613361 (Simulation time: 0 hr 20 min 2 sec) 
Heartbeat CPU 0 instructions: 250000002 cycles: 348528542 heartbeat IPC: 0.618837 cumulative IPC: 0.613633 (Simulation time: 0 hr 20 min 45 sec) 
Finished CPU 0 instructions: 200000000 cycles: 325927787 cumulative IPC: 0.613633 (Simulation time: 0 hr 20 min 45 sec) 
 Instruction ID: 250000026

ChampSim completed all CPUs

Region of Interest Statistics

CPU 0 cumulative IPC: 0.613633 instructions: 200000000 cycles: 325927787
ITLB SPEC fills:          0  NON-SPEC fills:          0
ITLB Test counter :          0
ITLB Leapfrog:          0
ITLB MSHR merge:          0
ITLB TOTAL     ACCESS:   28674605  HIT:   28674605  MISS:          0  HIT %:        100  MISS %:          0   MPKI: 0
ITLB LOAD TRANSLATION NON_SPEC    ACCESS:   28674605  HIT:   28674605  MISS:          0  HIT %:        100  MISS %:          0   MPKI: 0
ITLB PREFETCH  REQUESTED:          0  ISSUED:          0  USEFUL:          0  USELESS:          0
ITLB USEFUL LOAD PREFETCHES:          0 PREFETCH ISSUED TO LOWER LEVEL:          0  ACCURACY: -nan
ITLB TIMELY PREFETCHES:          0 LATE PREFETCHES: 0 DROPPED PREFETCHES: 0
ITLB COMMIT LATE PREFETCHES: 0 MISSED OPPORTUNITY: 0 LATE IN PQ: 0 UNCOVERED: 0
ITLB COMMIT LATE MSHR PREFETCHES: 0
ITLB MPKI TOTAL: 0 MSHR LATE: 0 PQ LATE: 0 COMMIT LATE: 0 MISSED OPPORTUNITY: 0 UNCOVERED: 0
ITLB PREFETCHES SAME FILL-ORIGIN LEVEL: 0 DIFFERENT FILL-ORIGIN LEVEL: 0
ITLB AVERAGE MISS LATENCY: -nan cycles
ITLB AVERAGE MISS LATENCY LOAD: -nan cycles
ITLB AVERAGE MISS LATENCY PREFETCH: -nan cycles
ITLB AVERAGE MSHR OCCUPANCY: 0
ITLB MSHR FULL: 0
ITLB RQ	ACCESS:   34797014	FORWARD:          0	MERGED:    6122409	TO_CACHE:   28674605

DTLB SPEC fills:          0  NON-SPEC fills:          0
DTLB Test counter :          0
DTLB Leapfrog:          0
DTLB MSHR merge:          0
DTLB TOTAL     ACCESS:   61893035  HIT:   54317459  MISS:    7575576  HIT %:    87.7602  MISS %:    12.2398   MPKI: 37.8779
DTLB LOAD TRANSLATION NON_SPEC    ACCESS:   61893035  HIT:   54317459  MISS:    7575576  HIT %:    87.7602  MISS %:    12.2398   MPKI: 37.8779
DTLB PREFETCH  REQUESTED:          0  ISSUED:          0  USEFUL:          0  USELESS:          0
DTLB USEFUL LOAD PREFETCHES:          0 PREFETCH ISSUED TO LOWER LEVEL:          0  ACCURACY: -nan
DTLB TIMELY PREFETCHES:          0 LATE PREFETCHES: 0 DROPPED PREFETCHES: 0
DTLB COMMIT LATE PREFETCHES: 0 MISSED OPPORTUNITY: 0 LATE IN PQ: 0 UNCOVERED: 0
DTLB COMMIT LATE MSHR PREFETCHES: 0
DTLB MPKI TOTAL: 0 MSHR LATE: 0 PQ LATE: 0 COMMIT LATE: 0 MISSED OPPORTUNITY: 0 UNCOVERED: 0
DTLB PREFETCHES SAME FILL-ORIGIN LEVEL: 0 DIFFERENT FILL-ORIGIN LEVEL: 0
DTLB AVERAGE MISS LATENCY: 10.0647 cycles
DTLB AVERAGE MISS LATENCY LOAD: -nan cycles
DTLB AVERAGE MISS LATENCY PREFETCH: -nan cycles
DTLB AVERAGE MSHR OCCUPANCY: 0.78445
DTLB MSHR FULL: 0.0212524
DTLB RQ	ACCESS:   82913589	FORWARD:          0	MERGED:   20047438	TO_CACHE:   62866151

STLB SPEC fills:          0  NON-SPEC fills:          0
STLB Test counter :          0
STLB Leapfrog:          0
STLB MSHR merge:          0
STLB TOTAL     ACCESS:    8693524  HIT:    8685229  MISS:       8295  HIT %:    99.9046  MISS %:  0.0954159   MPKI: 0.041475
STLB LOAD TRANSLATION NON_SPEC    ACCESS:    7575576  HIT:    7567281  MISS:       8295  HIT %:    99.8905  MISS %:   0.109497   MPKI: 0.041475
STLB TRANSLATION FROM L1D PREFETCHER NON_SPEC    ACCESS:    1117948  HIT:    1117948  MISS:          0  HIT %:        100  MISS %:          0   MPKI: 0
STLB PREFETCH  REQUESTED:          0  ISSUED:          0  USEFUL:          0  USELESS:          0
STLB USEFUL LOAD PREFETCHES:          0 PREFETCH ISSUED TO LOWER LEVEL:          0  ACCURACY: -nan
STLB TIMELY PREFETCHES:          0 LATE PREFETCHES: 0 DROPPED PREFETCHES: 0
STLB COMMIT LATE PREFETCHES: 0 MISSED OPPORTUNITY: 0 LATE IN PQ: 0 UNCOVERED: 0
STLB COMMIT LATE MSHR PREFETCHES: 0
STLB MPKI TOTAL: 0 MSHR LATE: 0 PQ LATE: 0 COMMIT LATE: 0 MISSED OPPORTUNITY: 0 UNCOVERED: 0
STLB PREFETCHES SAME FILL-ORIGIN LEVEL: 0 DIFFERENT FILL-ORIGIN LEVEL: 0
STLB AVERAGE MISS LATENCY: 640.122 cycles
STLB AVERAGE MISS LATENCY LOAD: -nan cycles
STLB AVERAGE MISS LATENCY PREFETCH: -nan cycles
STLB AVERAGE MSHR OCCUPANCY: 0.0117631
STLB MSHR FULL: 0
STLB RQ	ACCESS:    8736822	FORWARD:          0	MERGED:      43298	TO_CACHE:    8693524

STLB Hit, L1D data hit: 0
STLB Hit, L2C data hit: 0
STLB Hit, LLC data hit: 0
STLB Hit, LLC data miss: 0
STLB STLB hints to L2: 0
L0D SPEC fills:   46344279  NON-SPEC fills:          0
L0D TimeGuard Request with older TS:    2862265 Restricted eviction:    2983536 read:    2488253
L0D Test counter :          0
L0D Leapfrog:          0
L0D MSHR merge:    2751073
L0D TOTAL     ACCESS:   64146250  HIT:    8798737  MISS:   55347513  HIT %:    13.7167  MISS %:    86.2833   MPKI: 276.738
L0D LOAD      TOTAL       ACCESS:   64146250  HIT:    8798737  MISS:   55347513  HIT %:    13.7167  MISS %:    86.2833   MPKI: 276.738
L0D LOAD      NON_SPEC    ACCESS:    6372785  HIT:     352582  MISS:    6020203  HIT %:    5.53262  MISS %:    94.4674   MPKI: 30.101
L0D LOAD      SPEC        ACCESS:   57773465  HIT:    8446155  MISS:   49327310  HIT %:    14.6194  MISS %:    85.3806   MPKI: 246.637
L0D PREFETCH  REQUESTED:          0  ISSUED:          0  USEFUL:          0  USELESS:          0
L0D USEFUL LOAD PREFETCHES:          0 PREFETCH ISSUED TO LOWER LEVEL:          0  ACCURACY: -nan
L0D TIMELY PREFETCHES:          0 LATE PREFETCHES: 0 DROPPED PREFETCHES: 0
L0D COMMIT LATE PREFETCHES: 0 MISSED OPPORTUNITY: 0 LATE IN PQ: 0 UNCOVERED: 0
L0D COMMIT LATE MSHR PREFETCHES: 0
L0D MPKI TOTAL: 290.493 MSHR LATE: 0 PQ LATE: 0 COMMIT LATE: 0 MISSED OPPORTUNITY: 0 UNCOVERED: 0
L0D PREFETCHES SAME FILL-ORIGIN LEVEL: 0 DIFFERENT FILL-ORIGIN LEVEL: 0
L0D AVERAGE MISS LATENCY: 14.1933 cycles
L0D AVERAGE MISS LATENCY LOAD: 14.1933 cycles
L0D AVERAGE MISS LATENCY PREFETCH: -nan cycles
L0D AVERAGE MSHR OCCUPANCY: 5.15201
L0D MSHR FULL: 0.416767
L0D RQ	ACCESS:   77325517	FORWARD:          0	MERGED:   10428205	TO_CACHE:   66897312
L0D WQ	ACCESS:   16016277	FORWARD:          0	MERGED:          0	TO_CACHE:   16016277

L1D SPEC fills:          0  NON-SPEC fills:     613686
L1D Test counter :          0
L1D Leapfrog:          0
L1D MSHR merge:      87957
L1D TOTAL     ACCESS:   88933356  HIT:   59194307  MISS:   29739049  HIT %:    66.5603  MISS %:    33.4397   MPKI: 148.695
L1D LOAD      TOTAL       ACCESS:   55260675  HIT:   40750322  MISS:   14510353  HIT %:     73.742  MISS %:     26.258   MPKI: 72.5518
L1D LOAD      NON_SPEC    ACCESS:    6006952  HIT:    5393266  MISS:     613686  HIT %:    89.7837  MISS %:    10.2163   MPKI: 3.06843
L1D LOAD      SPEC        ACCESS:   49253723  HIT:   35357056  MISS:   13896667  HIT %:    71.7856  MISS %:    28.2144   MPKI: 69.4833
L1D RFO       NON_SPEC    ACCESS:   15712174  HIT:   14477501  MISS:    1234673  HIT %:    92.1419  MISS %:    7.85807   MPKI: 6.17337
L1D PREFETCH  NON_SPEC    ACCESS:    1155027  HIT:     167832  MISS:     987195  HIT %:    14.5306  MISS %:    85.4694   MPKI: 4.93598
L1D COMMIT LOAD NON_SPEC    ACCESS:    5762848  HIT:    3248428  MISS:    2514420  HIT %:    56.3684  MISS %:    43.6316   MPKI: 12.5721
L1D COMMIT WRITE NON_SPEC    ACCESS:   11042632  HIT:     550224  MISS:   10492408  HIT %:    4.98273  MISS %:    95.0173   MPKI: 52.462
L1D PREFETCH  REQUESTED:    1161246  ISSUED:    1161246  USEFUL:      47910  USELESS:     939321
L1D USEFUL LOAD PREFETCHES:      47910 PREFETCH ISSUED TO LOWER LEVEL:     988337  ACCURACY: 4.84754
L1D TIMELY PREFETCHES:      47910 LATE PREFETCHES: 1142 DROPPED PREFETCHES: 0
L1D COMMIT LATE PREFETCHES: 0 MISSED OPPORTUNITY: 0 LATE IN PQ: 0 UNCOVERED: 0
L1D COMMIT LATE MSHR PREFETCHES: 0
L1D MPKI TOTAL: 72.986 MSHR LATE: 0.00571 PQ LATE: 0 COMMIT LATE: 0 MISSED OPPORTUNITY: 0 UNCOVERED: 0
L1D PREFETCHES SAME FILL-ORIGIN LEVEL: 988337 DIFFERENT FILL-ORIGIN LEVEL: 0
L1D AVERAGE MISS LATENCY: 14.5895 cycles
L1D AVERAGE MISS LATENCY LOAD: 15.2283 cycles
L1D AVERAGE MISS LATENCY PREFETCH: 64.4423 cycles
L1D AVERAGE MSHR OCCUPANCY: 3.42507
L1D MSHR FULL: 0.118504
L1D RQ	ACCESS:   62398804	FORWARD:          0	MERGED:    1148638	TO_CACHE:   61250165
L1D WQ	ACCESS:   27058906	FORWARD:          1	MERGED:     125963	TO_CACHE:   26932943
L1D PQ	ACCESS:    1161246	FORWARD:          0	MERGED:          0	TO_CACHE:    1161246

L1D UNIQUE REGIONS ACCESSED: 0
L1D REGIONS CONFLICTS: 0
L1D Cross Page Prefetch Requests: 0
L1D Same Page Prefetch Requests: 1511408
L1D ROI Sum of L1D PQ occupancy: 15276845
L1D PREFETCHES PUSHED FROM L2C: 0
L1I SPEC fills:          0  NON-SPEC fills:          0
L1I Test counter :          0
L1I Leapfrog:          0
L1I MSHR merge:    2856244
L1I TOTAL     ACCESS:   31940768  HIT:   26156339  MISS:    5784429  HIT %:    81.8901  MISS %:    18.1099   MPKI: 28.9221
L1I LOAD      TOTAL       ACCESS:   31940768  HIT:   26156339  MISS:    5784429  HIT %:    81.8901  MISS %:    18.1099   MPKI: 28.9221
L1I LOAD      NON_SPEC    ACCESS:   31940768  HIT:   26156339  MISS:    5784429  HIT %:    81.8901  MISS %:    18.1099   MPKI: 28.9221
L1I PREFETCH  REQUESTED:          0  ISSUED:          0  USEFUL:          0  USELESS:          0
L1I USEFUL LOAD PREFETCHES:          0 PREFETCH ISSUED TO LOWER LEVEL:          0  ACCURACY: -nan
L1I TIMELY PREFETCHES:          0 LATE PREFETCHES: 0 DROPPED PREFETCHES: 0
L1I COMMIT LATE PREFETCHES: 0 MISSED OPPORTUNITY: 0 LATE IN PQ: 0 UNCOVERED: 0
L1I COMMIT LATE MSHR PREFETCHES: 0
L1I MPKI TOTAL: 43.2034 MSHR LATE: 0 PQ LATE: 0 COMMIT LATE: 0 MISSED OPPORTUNITY: 0 UNCOVERED: 0
L1I PREFETCHES SAME FILL-ORIGIN LEVEL: 0 DIFFERENT FILL-ORIGIN LEVEL: 0
L1I AVERAGE MISS LATENCY: 14.0408 cycles
L1I AVERAGE MISS LATENCY LOAD: 14.0408 cycles
L1I AVERAGE MISS LATENCY PREFETCH: -nan cycles
L1I AVERAGE MSHR OCCUPANCY: 0.218716
L1I MSHR FULL: 0
L1I RQ	ACCESS:   49570040	FORWARD:          0	MERGED:   14773026	TO_CACHE:   34797014

BTB SPEC fills:          0  NON-SPEC fills:          0
BTB Test counter :          0
BTB Leapfrog:          0
BTB MSHR merge:          0
BTB TOTAL     ACCESS:    1169485  HIT:    1096958  MISS:      72527  HIT %:    93.7984  MISS %:    6.20162   MPKI: 0.362635
BTB BRANCH_DIRECT_JUMP	ACCESS:     217104  HIT:     217073  MISS:         31
BTB BRANCH_INDIRECT	ACCESS:      36158  HIT:      36156  MISS:          2
BTB BRANCH_CONDITIONAL	ACCESS:     482257  HIT:     482171  MISS:         86
BTB BRANCH_DIRECT_CALL	ACCESS:     216983  HIT:     216939  MISS:         44
BTB BRANCH_INDIRECT_CALL	ACCESS:          0  HIT:          0  MISS:          0
BTB BRANCH_RETURN	ACCESS:     216983  HIT:     144619  MISS:      72364
BTB BRANCH_OTHER ACCESS:          0  HIT:          0  MISS:          0

L2C SPEC fills:          0  NON-SPEC fills:      21519
L2C Test counter :          0
L2C Leapfrog:          0
L2C MSHR merge:          0
L2C TOTAL     ACCESS:   27229770  HIT:   25765159  MISS:    1464611  HIT %:    94.6213  MISS %:    5.37871   MPKI: 7.32306
L2C LOAD      TOTAL       ACCESS:   20287453  HIT:   19831031  MISS:     456422  HIT %:    97.7502  MISS %:    2.24977   MPKI: 2.28211
L2C LOAD      NON_SPEC    ACCESS:    6397521  HIT:    6375623  MISS:      21898  HIT %:    99.6577  MISS %:   0.342289   MPKI: 0.10949
L2C LOAD      SPEC        ACCESS:   13889932  HIT:   13455408  MISS:     434524  HIT %:    96.8717  MISS %:    3.12834   MPKI: 2.17262
L2C RFO       NON_SPEC    ACCESS:    1232049  HIT:    1114967  MISS:     117082  HIT %:     90.497  MISS %:    9.50303   MPKI: 0.58541
L2C PREFETCH  NON_SPEC    ACCESS:     988337  HIT:     543134  MISS:     445203  HIT %:    54.9543  MISS %:    45.0457   MPKI: 2.22601
L2C WRITEBACK NON_SPEC    ACCESS:    1248698  HIT:    1248695  MISS:          3  HIT %:    99.9998  MISS %: 0.00024025   MPKI: 1.5e-05
L2C CLEAN_EVICTION NON_SPEC    ACCESS:     917413  HIT:     557941  MISS:     359472  HIT %:    60.8168  MISS %:    39.1832   MPKI: 1.79736
L2C COMMIT LOAD NON_SPEC    ACCESS:    2514354  HIT:    2439517  MISS:      74837  HIT %:    97.0236  MISS %:    2.97639   MPKI: 0.374185
L2C LOAD TRANSLATION NON_SPEC    ACCESS:      41466  HIT:      29874  MISS:      11592  HIT %:    72.0446  MISS %:    27.9554   MPKI: 0.05796
L2C PREFETCH  REQUESTED:          0  ISSUED:          0  USEFUL:     441421  USELESS:       3839
L2C USEFUL LOAD PREFETCHES:     441421 PREFETCH ISSUED TO LOWER LEVEL:     445203  ACCURACY: 99.1505
L2C TIMELY PREFETCHES:     441421 LATE PREFETCHES: 0 DROPPED PREFETCHES: 0
L2C COMMIT LATE PREFETCHES: 0 MISSED OPPORTUNITY: 0 LATE IN PQ: 0 UNCOVERED: 0
L2C COMMIT LATE MSHR PREFETCHES: 0
L2C MPKI TOTAL: 2.28211 MSHR LATE: 0 PQ LATE: 0 COMMIT LATE: 0 MISSED OPPORTUNITY: 0 UNCOVERED: 0
L2C PREFETCHES SAME FILL-ORIGIN LEVEL: 0 DIFFERENT FILL-ORIGIN LEVEL: 0
L2C AVERAGE MISS LATENCY: 128.223 cycles
L2C AVERAGE MISS LATENCY LOAD: 104.981 cycles
L2C AVERAGE MISS LATENCY PREFETCH: 108.225 cycles
L2C AVERAGE MSHR OCCUPANCY: 0.617103
L2C MSHR FULL: 0
L2C RQ	ACCESS:   24084201	FORWARD:          0	MERGED:          0	TO_CACHE:   24075322
L2C WQ	ACCESS:    2166112	FORWARD:       8879	MERGED:          1	TO_CACHE:    2166111
L2C PQ	ACCESS:     988337	FORWARD:          0	MERGED:          0	TO_CACHE:     988337

L2C Instructions Evicting Data 376
L2C Translations Evicting Data 11463
L2C Data Evicting Data 651055
L2C Instructions Evicting Instructions 0
L2C Translations Evicting Instructions 2
L2C Data Evicting Instructions 235
L2C Instructions Evicting Translations 3
L2C Translations Evicting Translations 127
L2C Data Evicting Translations 7351
L2C Dense regions hint from L2: 0
PSCL5 SPEC fills:          0  NON-SPEC fills:          0
PSCL5 Test counter :          0
PSCL5 Leapfrog:          0
PSCL5 MSHR merge:          0
PSCL5 TOTAL     ACCESS:          0  HIT:          0  MISS:          0  HIT %:       -nan  MISS %:       -nan   MPKI: 0
PSCL5 PREFETCH  REQUESTED:          0  ISSUED:          0  USEFUL:          0  USELESS:          0
PSCL5 USEFUL LOAD PREFETCHES:          0 PREFETCH ISSUED TO LOWER LEVEL:          0  ACCURACY: -nan
PSCL5 TIMELY PREFETCHES:          0 LATE PREFETCHES: 0 DROPPED PREFETCHES: 0
PSCL5 COMMIT LATE PREFETCHES: 0 MISSED OPPORTUNITY: 0 LATE IN PQ: 0 UNCOVERED: 0
PSCL5 COMMIT LATE MSHR PREFETCHES: 0
PSCL5 MPKI TOTAL: 0 MSHR LATE: 0 PQ LATE: 0 COMMIT LATE: 0 MISSED OPPORTUNITY: 0 UNCOVERED: 0
PSCL5 PREFETCHES SAME FILL-ORIGIN LEVEL: 0 DIFFERENT FILL-ORIGIN LEVEL: 0

PSCL4 SPEC fills:          0  NON-SPEC fills:          0
PSCL4 Test counter :          0
PSCL4 Leapfrog:          0
PSCL4 MSHR merge:          0
PSCL4 TOTAL     ACCESS:          0  HIT:          0  MISS:          0  HIT %:       -nan  MISS %:       -nan   MPKI: 0
PSCL4 PREFETCH  REQUESTED:          0  ISSUED:          0  USEFUL:          0  USELESS:          0
PSCL4 USEFUL LOAD PREFETCHES:          0 PREFETCH ISSUED TO LOWER LEVEL:          0  ACCURACY: -nan
PSCL4 TIMELY PREFETCHES:          0 LATE PREFETCHES: 0 DROPPED PREFETCHES: 0
PSCL4 COMMIT LATE PREFETCHES: 0 MISSED OPPORTUNITY: 0 LATE IN PQ: 0 UNCOVERED: 0
PSCL4 COMMIT LATE MSHR PREFETCHES: 0
PSCL4 MPKI TOTAL: 0 MSHR LATE: 0 PQ LATE: 0 COMMIT LATE: 0 MISSED OPPORTUNITY: 0 UNCOVERED: 0
PSCL4 PREFETCHES SAME FILL-ORIGIN LEVEL: 0 DIFFERENT FILL-ORIGIN LEVEL: 0

PSCL3 SPEC fills:          0  NON-SPEC fills:          0
PSCL3 Test counter :          0
PSCL3 Leapfrog:          0
PSCL3 MSHR merge:          0
PSCL3 TOTAL     ACCESS:          0  HIT:          0  MISS:          0  HIT %:       -nan  MISS %:       -nan   MPKI: 0
PSCL3 PREFETCH  REQUESTED:          0  ISSUED:          0  USEFUL:          0  USELESS:          0
PSCL3 USEFUL LOAD PREFETCHES:          0 PREFETCH ISSUED TO LOWER LEVEL:          0  ACCURACY: -nan
PSCL3 TIMELY PREFETCHES:          0 LATE PREFETCHES: 0 DROPPED PREFETCHES: 0
PSCL3 COMMIT LATE PREFETCHES: 0 MISSED OPPORTUNITY: 0 LATE IN PQ: 0 UNCOVERED: 0
PSCL3 COMMIT LATE MSHR PREFETCHES: 0
PSCL3 MPKI TOTAL: 0 MSHR LATE: 0 PQ LATE: 0 COMMIT LATE: 0 MISSED OPPORTUNITY: 0 UNCOVERED: 0
PSCL3 PREFETCHES SAME FILL-ORIGIN LEVEL: 0 DIFFERENT FILL-ORIGIN LEVEL: 0

PSCL2 SPEC fills:          0  NON-SPEC fills:          0
PSCL2 Test counter :          0
PSCL2 Leapfrog:          0
PSCL2 MSHR merge:          0
PSCL2 TOTAL     ACCESS:          0  HIT:          0  MISS:          0  HIT %:       -nan  MISS %:       -nan   MPKI: 0
PSCL2 PREFETCH  REQUESTED:          0  ISSUED:          0  USEFUL:          0  USELESS:          0
PSCL2 USEFUL LOAD PREFETCHES:          0 PREFETCH ISSUED TO LOWER LEVEL:          0  ACCURACY: -nan
PSCL2 TIMELY PREFETCHES:          0 LATE PREFETCHES: 0 DROPPED PREFETCHES: 0
PSCL2 COMMIT LATE PREFETCHES: 0 MISSED OPPORTUNITY: 0 LATE IN PQ: 0 UNCOVERED: 0
PSCL2 COMMIT LATE MSHR PREFETCHES: 0
PSCL2 MPKI TOTAL: 0 MSHR LATE: 0 PQ LATE: 0 COMMIT LATE: 0 MISSED OPPORTUNITY: 0 UNCOVERED: 0
PSCL2 PREFETCHES SAME FILL-ORIGIN LEVEL: 0 DIFFERENT FILL-ORIGIN LEVEL: 0

LLC SPEC fills:          0  NON-SPEC fills:       7535
LLC Test counter :          0
LLC Leapfrog:          0
LLC MSHR merge:          0
LLC TOTAL     ACCESS:    1724943  HIT:     989129  MISS:     735814  HIT %:    57.3427  MISS %:    42.6573   MPKI: 3.67907
LLC LOAD      TOTAL       ACCESS:     456302  HIT:     239082  MISS:     217220  HIT %:    52.3956  MISS %:    47.6044   MPKI: 1.0861
LLC LOAD      NON_SPEC    ACCESS:      21896  HIT:      13982  MISS:       7914  HIT %:    63.8564  MISS %:    36.1436   MPKI: 0.03957
LLC LOAD      SPEC        ACCESS:     434406  HIT:     225100  MISS:     209306  HIT %:    51.8179  MISS %:    48.1821   MPKI: 1.04653
LLC RFO       NON_SPEC    ACCESS:     117082  HIT:          0  MISS:     117082  HIT %:          0  MISS %:        100   MPKI: 0.58541
LLC PREFETCH  NON_SPEC    ACCESS:     445191  HIT:     253686  MISS:     191505  HIT %:    56.9836  MISS %:    43.0164   MPKI: 0.957525
LLC WRITEBACK NON_SPEC    ACCESS:     117021  HIT:     117018  MISS:          3  HIT %:    99.9974  MISS %: 0.00256364   MPKI: 1.5e-05
LLC CLEAN_EVICTION NON_SPEC    ACCESS:     502936  HIT:     319091  MISS:     183845  HIT %:    63.4456  MISS %:    36.5544   MPKI: 0.919225
LLC COMMIT LOAD NON_SPEC    ACCESS:      74819  HIT:      49790  MISS:      25029  HIT %:    66.5473  MISS %:    33.4527   MPKI: 0.125145
LLC LOAD TRANSLATION NON_SPEC    ACCESS:      11592  HIT:      10462  MISS:       1130  HIT %:    90.2519  MISS %:     9.7481   MPKI: 0.00565
LLC PREFETCH  REQUESTED:          0  ISSUED:          0  USEFUL:      70607  USELESS:     124765
LLC USEFUL LOAD PREFETCHES:      70607 PREFETCH ISSUED TO LOWER LEVEL:     191505  ACCURACY: 36.8695
LLC TIMELY PREFETCHES:      70607 LATE PREFETCHES: 0 DROPPED PREFETCHES: 0
LLC COMMIT LATE PREFETCHES: 0 MISSED OPPORTUNITY: 0 LATE IN PQ: 0 UNCOVERED: 0
LLC COMMIT LATE MSHR PREFETCHES: 0
LLC MPKI TOTAL: 1.0861 MSHR LATE: 0 PQ LATE: 0 COMMIT LATE: 0 MISSED OPPORTUNITY: 0 UNCOVERED: 0
LLC PREFETCHES SAME FILL-ORIGIN LEVEL: 0 DIFFERENT FILL-ORIGIN LEVEL: 0
LLC AVERAGE MISS LATENCY: 215.178 cycles
LLC AVERAGE MISS LATENCY LOAD: 175.087 cycles
LLC AVERAGE MISS LATENCY PREFETCH: 181.305 cycles
LLC AVERAGE MSHR OCCUPANCY: 2.93128
LLC MSHR FULL: 0
LLC RQ	ACCESS:     659933	FORWARD:          0	MERGED:          0	TO_CACHE:     659795
LLC WQ	ACCESS:     619957	FORWARD:        150	MERGED:          0	TO_CACHE:     619957
LLC PQ	ACCESS:     445203	FORWARD:          0	MERGED:          0	TO_CACHE:     445191

LLC Dense regions hint to LLC: 0

RAW hits: 510146
Loads Generated: 77835662
Loads sent to L1D: 77325517
Stores Generated: 16016275
Stores sent to L1D: 16016277
Major fault: 0 Minor fault: 8463
Allocated PAGES: 8463
Total Load insts: 125325392
Total Non-spec loads: 8130594
Percentage of speculative loads: 93.5124

LeapFrogging counter: 29076482
Commit hits: 43821916 miss: 27043310
Commit hit %: 61.8384 miss %: 38.1616
Commits not translated: 0
Loads retired: 14510353
Stores retired: 16016277
Cache fills: 14510353
L1D response latency: 15.2283 cycles
Load retirement latency: 188.197 cycles
OOO test counter: 0
Discarded buffer inserts: 43821916 hits: 587442 hit %: 1.34052
Filter prediction accuracy: 98.2258

stream: 
stream:times selected: 1585580
stream:pref_filled: 1247010
stream:pref_useful: 57919
stream:pref_late: 362
stream:misses: 11753
stream:misses_by_poll: 0

CS: 
CS:times selected: 1234516
CS:pref_filled: 4421
CS:pref_useful: 176
CS:pref_late: 1
CS:misses: 12163
CS:misses_by_poll: 132

CPLX: 
CPLX:times selected: 1584160
CPLX:pref_filled: 22144
CPLX:pref_useful: 4325
CPLX:pref_late: 0
CPLX:misses: 6743917
CPLX:misses_by_poll: 513

NL_L1: 
NL:times selected: 161
NL:pref_filled: 77
NL:pref_useful: 2
NL:pref_late: 0
NL:misses: 156
NL:misses_by_poll: 0

total selections: 4404417
total_filled: 987195
total_useful: 47910
total_late: 436
total_polluted: 645
total_misses_after_warmup: 14597190
conflicts: 11615774
Degree Incremented Times: 0
Degree Decremented Times: 936696

L1 IP Table Write Accesses: 34069724
L1 IP Table Read Accesses: 22453950
L1 RST Write Accesses: 1216912
L1 RST Read Accesses: 2433824
L1 CSPT Write Accesses: 1216912
L1 CSPT Read Accesses: 2433632
L1 RR Filter Tag Write Accesses: 1161246
L1 RR Filter Tag Read Accesses: 103152224
L1 IP Table Tag Write Accesses: 55347512
L1 IP Table Tag Read Accesses: 55347512
L1 RST Tag Write Accesses: 0
L1 RST Tag Read Accesses: 11274538
L1 RR Filter Write Accesses: 0
L1 RR Filter Read Accesses: 3308834
test: 57823

DRAM Statistics
 CHANNEL 0
 RQ ROW_BUFFER_HIT:     241025  ROW_BUFFER_MISS:     310941
 DBUS_CONGESTED:        644
 WQ ROW_BUFFER_HIT:      89361  ROW_BUFFER_MISS:     335966  FULL:          0

 AVG_CONGESTED_CYCLE: 4
 All warmup complete: 2
Channel 0 Bank busy for read cycles: 0
Channel 0 Bank busy for write cycles: 0
Channel 0
Rank 0
0banks busy for read cycles: 252109172
0banks busy for write cycles: 216924
1banks busy for read cycles: 22124487
1banks busy for write cycles: 25950610
2banks busy for read cycles: 7176919
2banks busy for write cycles: 5553280
3banks busy for read cycles: 3778264
3banks busy for write cycles: 2691096
4banks busy for read cycles: 1834716
4banks busy for write cycles: 1748067
5banks busy for read cycles: 418014
5banks busy for write cycles: 1033626
6banks busy for read cycles: 174606
6banks busy for write cycles: 550300
7banks busy for read cycles: 49804
7banks busy for write cycles: 339106
8banks busy for read cycles: 7388
8banks busy for write cycles: 171409

CPU 0 Branch Prediction Accuracy: 99.9869% MPKI: 0.001165 Average ROB Occupancy at Mispredict: 21.794
Branch types
NOT_BRANCH: 198225688 99.1128%
BRANCH_DIRECT_JUMP: 217104 0.108552%
BRANCH_INDIRECT: 36158 0.018079%
BRANCH_CONDITIONAL: 1086728 0.543364%
BRANCH_DIRECT_CALL: 216983 0.108492%
BRANCH_INDIRECT_CALL: 0 0%
BRANCH_RETURN: 216983 0.108492%
BRANCH_OTHER: 0 0%

DRAM PAGES: 1048576
Allocated PAGES: 8463
