
*** ChampSim Multicore Out-of-Order Simulator ***

Warmup Instructions: 50000000
Simulation Instructions: 200000000
Number of CPUs: 1
LLC sets: 2048
LLC ways: 16
L0D sets: 16
L0D ways: 2
ROB size: 352
LQ size: 128
SQ size: 72
Secure Berti: OFF
Berti: OFF
Berti Fill: OFF
On commit prefetching: OFF
Hit-based filter: ON
Time-guarding: ON
Free-slotting: ON
Leap-frogging: ON
Train prefetcher on L0D bypass: OFF
No translation penalty for prefetchers: OFF
Prefetch to L0D only: OFF
Prefetch to L1D only: OFF
Clean evictions: ON
Commit loads: ON
Commit write: ON
Fill commit loads to L2C, LLC: ON
DRAM IO FREQUENCY: 6400
ROB SIZE: 352
Off-chip DRAM Size: 4096 MB Channels: 1 Width: 64-bit Data Rate: 6400 MT/s
CPU 0 runs /home/sumon/secure_berti/GhostMinion/../../traces/spec/619.lbm_s-2677B.champsimtrace.xz
.xz
BTB has LRU replacement policy
ITLB has LRU replacement policy
DTLB has LRU replacement policy
STLB has LRU replacement policy
L1I has LRU replacement policy
L0D has LRU replacement policy
IP Table Entries: 1024
CSPT Entries: 128
RR_ENTRIES: 32
RST_ENTRIES: 8
L1D has LRU replacement policy
L2C has LRU replacement policy
LLC has LRU replacement policy
Heartbeat CPU 0 instructions: 10000001 cycles: 3052734 heartbeat IPC: 3.27575 cumulative IPC: 3.27575 (Simulation time: 0 hr 0 min 33 sec) 
Heartbeat CPU 0 instructions: 20000003 cycles: 6094280 heartbeat IPC: 3.2878 cumulative IPC: 3.28177 (Simulation time: 0 hr 1 min 5 sec) 
Heartbeat CPU 0 instructions: 30000000 cycles: 9143597 heartbeat IPC: 3.27942 cumulative IPC: 3.28098 (Simulation time: 0 hr 1 min 38 sec) 
Heartbeat CPU 0 instructions: 40000000 cycles: 12191066 heartbeat IPC: 3.28141 cumulative IPC: 3.28109 (Simulation time: 0 hr 2 min 11 sec) 
Heartbeat CPU 0 instructions: 50000003 cycles: 15244791 heartbeat IPC: 3.27469 cumulative IPC: 3.27981 (Simulation time: 0 hr 2 min 45 sec) 

Warmup complete CPU 0 instructions: 50000003 cycles: 15244791 (Simulation time: 0 hr 2 min 45 sec) 

Heartbeat CPU 0 instructions: 60000000 cycles: 42816522 heartbeat IPC: 0.36269 cumulative IPC: 0.36269 (Simulation time: 0 hr 3 min 54 sec) 
Heartbeat CPU 0 instructions: 70000002 cycles: 70127930 heartbeat IPC: 0.366147 cumulative IPC: 0.364411 (Simulation time: 0 hr 5 min 5 sec) 
Heartbeat CPU 0 instructions: 80000002 cycles: 97651244 heartbeat IPC: 0.363328 cumulative IPC: 0.364049 (Simulation time: 0 hr 6 min 17 sec) 
Heartbeat CPU 0 instructions: 90000000 cycles: 125791886 heartbeat IPC: 0.355358 cumulative IPC: 0.361837 (Simulation time: 0 hr 7 min 33 sec) 
Heartbeat CPU 0 instructions: 100000002 cycles: 153823583 heartbeat IPC: 0.356739 cumulative IPC: 0.360806 (Simulation time: 0 hr 8 min 49 sec) 
Heartbeat CPU 0 instructions: 110000000 cycles: 182347467 heartbeat IPC: 0.350583 cumulative IPC: 0.359061 (Simulation time: 0 hr 10 min 5 sec) 
Heartbeat CPU 0 instructions: 120000002 cycles: 210280546 heartbeat IPC: 0.357999 cumulative IPC: 0.358909 (Simulation time: 0 hr 11 min 20 sec) 
Heartbeat CPU 0 instructions: 130000001 cycles: 237670403 heartbeat IPC: 0.365099 cumulative IPC: 0.359671 (Simulation time: 0 hr 12 min 33 sec) 
Heartbeat CPU 0 instructions: 140000001 cycles: 265539671 heartbeat IPC: 0.358818 cumulative IPC: 0.359576 (Simulation time: 0 hr 13 min 45 sec) 
Heartbeat CPU 0 instructions: 150000000 cycles: 293860148 heartbeat IPC: 0.353101 cumulative IPC: 0.358918 (Simulation time: 0 hr 14 min 55 sec) 
Heartbeat CPU 0 instructions: 160000003 cycles: 321717103 heartbeat IPC: 0.358977 cumulative IPC: 0.358923 (Simulation time: 0 hr 16 min 0 sec) 
Heartbeat CPU 0 instructions: 170000000 cycles: 349408265 heartbeat IPC: 0.361126 cumulative IPC: 0.359106 (Simulation time: 0 hr 16 min 59 sec) 
Heartbeat CPU 0 instructions: 180000000 cycles: 375840588 heartbeat IPC: 0.378325 cumulative IPC: 0.360514 (Simulation time: 0 hr 17 min 56 sec) 
Heartbeat CPU 0 instructions: 190000001 cycles: 403824561 heartbeat IPC: 0.357347 cumulative IPC: 0.360286 (Simulation time: 0 hr 18 min 55 sec) 
Heartbeat CPU 0 instructions: 200000000 cycles: 431188474 heartbeat IPC: 0.365445 cumulative IPC: 0.360626 (Simulation time: 0 hr 19 min 53 sec) 
Heartbeat CPU 0 instructions: 210000000 cycles: 458108049 heartbeat IPC: 0.371477 cumulative IPC: 0.361285 (Simulation time: 0 hr 20 min 50 sec) 
Heartbeat CPU 0 instructions: 220000000 cycles: 486364052 heartbeat IPC: 0.353907 cumulative IPC: 0.360843 (Simulation time: 0 hr 21 min 49 sec) 
Heartbeat CPU 0 instructions: 230000000 cycles: 515054997 heartbeat IPC: 0.348542 cumulative IPC: 0.360137 (Simulation time: 0 hr 22 min 47 sec) 
Heartbeat CPU 0 instructions: 240000001 cycles: 544798265 heartbeat IPC: 0.336211 cumulative IPC: 0.358793 (Simulation time: 0 hr 23 min 48 sec) 
Heartbeat CPU 0 instructions: 250000003 cycles: 574120416 heartbeat IPC: 0.341039 cumulative IPC: 0.357861 (Simulation time: 0 hr 24 min 46 sec) 
Finished CPU 0 instructions: 200000000 cycles: 558875625 cumulative IPC: 0.357861 (Simulation time: 0 hr 24 min 46 sec) 
 Instruction ID: 250000082

ChampSim completed all CPUs

Region of Interest Statistics

CPU 0 cumulative IPC: 0.357861 instructions: 200000000 cycles: 558875625
ITLB SPEC fills:          0  NON-SPEC fills:          0
ITLB Test counter :          0
ITLB Leapfrog:          0
ITLB MSHR merge:          0
ITLB TOTAL     ACCESS:   26723274  HIT:   26723274  MISS:          0  HIT %:        100  MISS %:          0   MPKI: 0
ITLB LOAD TRANSLATION NON_SPEC    ACCESS:   26723274  HIT:   26723274  MISS:          0  HIT %:        100  MISS %:          0   MPKI: 0
ITLB PREFETCH  REQUESTED:          0  ISSUED:          0  USEFUL:          0  USELESS:          0
ITLB USEFUL LOAD PREFETCHES:          0 PREFETCH ISSUED TO LOWER LEVEL:          0  ACCURACY: -nan
ITLB TIMELY PREFETCHES:          0 LATE PREFETCHES: 0 DROPPED PREFETCHES: 0
ITLB COMMIT LATE PREFETCHES: 0 MISSED OPPORTUNITY: 0 LATE IN PQ: 0 UNCOVERED: 0
ITLB COMMIT LATE MSHR PREFETCHES: 0
ITLB MPKI TOTAL: 0 MSHR LATE: 0 PQ LATE: 0 COMMIT LATE: 0 MISSED OPPORTUNITY: 0 UNCOVERED: 0
ITLB PREFETCHES SAME FILL-ORIGIN LEVEL: 0 DIFFERENT FILL-ORIGIN LEVEL: 0
ITLB AVERAGE MISS LATENCY: -nan cycles
ITLB AVERAGE MISS LATENCY LOAD: -nan cycles
ITLB AVERAGE MISS LATENCY PREFETCH: -nan cycles
ITLB AVERAGE MSHR OCCUPANCY: 0
ITLB MSHR FULL: 0
ITLB RQ	ACCESS:   34498899	FORWARD:          0	MERGED:    7775626	TO_CACHE:   26723273

DTLB SPEC fills:          0  NON-SPEC fills:          0
DTLB Test counter :          0
DTLB Leapfrog:          0
DTLB MSHR merge:          0
DTLB TOTAL     ACCESS:   47661319  HIT:   47385272  MISS:     276047  HIT %:    99.4208  MISS %:   0.579185   MPKI: 1.38024
DTLB LOAD TRANSLATION NON_SPEC    ACCESS:   47661319  HIT:   47385272  MISS:     276047  HIT %:    99.4208  MISS %:   0.579185   MPKI: 1.38024
DTLB PREFETCH  REQUESTED:          0  ISSUED:          0  USEFUL:          0  USELESS:          0
DTLB USEFUL LOAD PREFETCHES:          0 PREFETCH ISSUED TO LOWER LEVEL:          0  ACCURACY: -nan
DTLB TIMELY PREFETCHES:          0 LATE PREFETCHES: 0 DROPPED PREFETCHES: 0
DTLB COMMIT LATE PREFETCHES: 0 MISSED OPPORTUNITY: 0 LATE IN PQ: 0 UNCOVERED: 0
DTLB COMMIT LATE MSHR PREFETCHES: 0
DTLB MPKI TOTAL: 0 MSHR LATE: 0 PQ LATE: 0 COMMIT LATE: 0 MISSED OPPORTUNITY: 0 UNCOVERED: 0
DTLB PREFETCHES SAME FILL-ORIGIN LEVEL: 0 DIFFERENT FILL-ORIGIN LEVEL: 0
DTLB AVERAGE MISS LATENCY: 131.222 cycles
DTLB AVERAGE MISS LATENCY LOAD: -nan cycles
DTLB AVERAGE MISS LATENCY PREFETCH: -nan cycles
DTLB AVERAGE MSHR OCCUPANCY: 0.11078
DTLB MSHR FULL: 0
DTLB RQ	ACCESS:   68781647	FORWARD:          0	MERGED:   20899201	TO_CACHE:   47882446

STLB SPEC fills:          0  NON-SPEC fills:          0
STLB Test counter :          0
STLB Leapfrog:          0
STLB MSHR merge:          0
STLB TOTAL     ACCESS:    1670779  HIT:    1520995  MISS:     149784  HIT %:    91.0351  MISS %:    8.96492   MPKI: 0.74892
STLB LOAD TRANSLATION NON_SPEC    ACCESS:     276047  HIT:     126263  MISS:     149784  HIT %:    45.7397  MISS %:    54.2603   MPKI: 0.74892
STLB TRANSLATION FROM L1D PREFETCHER NON_SPEC    ACCESS:    1394732  HIT:    1394732  MISS:          0  HIT %:        100  MISS %:          0   MPKI: 0
STLB PREFETCH  REQUESTED:          0  ISSUED:          0  USEFUL:          0  USELESS:          0
STLB USEFUL LOAD PREFETCHES:          0 PREFETCH ISSUED TO LOWER LEVEL:          0  ACCURACY: -nan
STLB TIMELY PREFETCHES:          0 LATE PREFETCHES: 0 DROPPED PREFETCHES: 0
STLB COMMIT LATE PREFETCHES: 0 MISSED OPPORTUNITY: 0 LATE IN PQ: 0 UNCOVERED: 0
STLB COMMIT LATE MSHR PREFETCHES: 0
STLB MPKI TOTAL: 0 MSHR LATE: 0 PQ LATE: 0 COMMIT LATE: 0 MISSED OPPORTUNITY: 0 UNCOVERED: 0
STLB PREFETCHES SAME FILL-ORIGIN LEVEL: 0 DIFFERENT FILL-ORIGIN LEVEL: 0
STLB AVERAGE MISS LATENCY: 225.124 cycles
STLB AVERAGE MISS LATENCY LOAD: -nan cycles
STLB AVERAGE MISS LATENCY PREFETCH: -nan cycles
STLB AVERAGE MSHR OCCUPANCY: 0.119505
STLB MSHR FULL: 0
STLB RQ	ACCESS:    2818309	FORWARD:          0	MERGED:    1147530	TO_CACHE:    1670779

STLB Hit, L1D data hit: 0
STLB Hit, L2C data hit: 0
STLB Hit, LLC data hit: 0
STLB Hit, LLC data miss: 0
STLB STLB hints to L2: 0
L0D SPEC fills:   20025177  NON-SPEC fills:          0
L0D TimeGuard Request with older TS:      47128 Restricted eviction:     206964 read:     541550
L0D Test counter :          0
L0D Leapfrog:          0
L0D MSHR merge:    2433157
L0D TOTAL     ACCESS:   29403555  HIT:    6976068  MISS:   22427487  HIT %:    23.7253  MISS %:    76.2747   MPKI: 112.137
L0D LOAD      TOTAL       ACCESS:   29403555  HIT:    6976068  MISS:   22427487  HIT %:    23.7253  MISS %:    76.2747   MPKI: 112.137
L0D LOAD      NON_SPEC    ACCESS:    3058023  HIT:     862677  MISS:    2195346  HIT %:    28.2103  MISS %:    71.7897   MPKI: 10.9767
L0D LOAD      SPEC        ACCESS:   26345532  HIT:    6113391  MISS:   20232141  HIT %:    23.2047  MISS %:    76.7953   MPKI: 101.161
L0D PREFETCH  REQUESTED:          0  ISSUED:          0  USEFUL:          0  USELESS:          0
L0D USEFUL LOAD PREFETCHES:          0 PREFETCH ISSUED TO LOWER LEVEL:          0  ACCURACY: -nan
L0D TIMELY PREFETCHES:          0 LATE PREFETCHES: 0 DROPPED PREFETCHES: 0
L0D COMMIT LATE PREFETCHES: 0 MISSED OPPORTUNITY: 0 LATE IN PQ: 0 UNCOVERED: 0
L0D COMMIT LATE MSHR PREFETCHES: 0
L0D MPKI TOTAL: 124.303 MSHR LATE: 0 PQ LATE: 0 COMMIT LATE: 0 MISSED OPPORTUNITY: 0 UNCOVERED: 0
L0D PREFETCHES SAME FILL-ORIGIN LEVEL: 0 DIFFERENT FILL-ORIGIN LEVEL: 0
L0D AVERAGE MISS LATENCY: 44.1903 cycles
L0D AVERAGE MISS LATENCY LOAD: 44.1903 cycles
L0D AVERAGE MISS LATENCY PREFETCH: -nan cycles
L0D AVERAGE MSHR OCCUPANCY: 1.25589
L0D MSHR FULL: 0.06644
L0D RQ	ACCESS:   50698616	FORWARD:          0	MERGED:   18861906	TO_CACHE:   31836710
L0D WQ	ACCESS:   36944937	FORWARD:          0	MERGED:          0	TO_CACHE:   36944937

L1D SPEC fills:          0  NON-SPEC fills:      33544
L1D Test counter :          0
L1D Leapfrog:          0
L1D MSHR merge:     211596
L1D TOTAL     ACCESS:   59505445  HIT:   43420126  MISS:   16085319  HIT %:    72.9683  MISS %:    27.0317   MPKI: 80.4266
L1D LOAD      TOTAL       ACCESS:   22414392  HIT:   21697316  MISS:     717076  HIT %:    96.8008  MISS %:    3.19918   MPKI: 3.58538
L1D LOAD      NON_SPEC    ACCESS:    2192786  HIT:    2159242  MISS:      33544  HIT %:    98.4703  MISS %:    1.52974   MPKI: 0.16772
L1D LOAD      SPEC        ACCESS:   20221606  HIT:   19538074  MISS:     683532  HIT %:    96.6198  MISS %:    3.38021   MPKI: 3.41766
L1D RFO       NON_SPEC    ACCESS:   33635227  HIT:   20772304  MISS:   12862923  HIT %:    61.7576  MISS %:    38.2424   MPKI: 64.3146
L1D PREFETCH  NON_SPEC    ACCESS:    2040347  HIT:     275046  MISS:    1765301  HIT %:    13.4804  MISS %:    86.5196   MPKI: 8.8265
L1D COMMIT LOAD NON_SPEC    ACCESS:     723763  HIT:     538745  MISS:     185018  HIT %:    74.4367  MISS %:    25.5633   MPKI: 0.92509
L1D COMMIT WRITE NON_SPEC    ACCESS:     691716  HIT:     136715  MISS:     555001  HIT %:    19.7646  MISS %:    80.2354   MPKI: 2.77501
L1D PREFETCH  REQUESTED:    2584384  ISSUED:    2542284  USEFUL:    1760408  USELESS:       4896
L1D USEFUL LOAD PREFETCHES:    1760408 PREFETCH ISSUED TO LOWER LEVEL:    1967827  ACCURACY: 89.4595
L1D TIMELY PREFETCHES:    1760408 LATE PREFETCHES: 202523 DROPPED PREFETCHES: 0
L1D COMMIT LATE PREFETCHES: 0 MISSED OPPORTUNITY: 0 LATE IN PQ: 0 UNCOVERED: 0
L1D COMMIT LATE MSHR PREFETCHES: 0
L1D MPKI TOTAL: 3.65085 MSHR LATE: 1.01262 PQ LATE: 0 COMMIT LATE: 0 MISSED OPPORTUNITY: 0 UNCOVERED: 0
L1D PREFETCHES SAME FILL-ORIGIN LEVEL: 1967827 DIFFERENT FILL-ORIGIN LEVEL: 0
L1D AVERAGE MISS LATENCY: 326.437 cycles
L1D AVERAGE MISS LATENCY LOAD: 825.484 cycles
L1D AVERAGE MISS LATENCY PREFETCH: 448.414 cycles
L1D AVERAGE MSHR OCCUPANCY: 15.4545
L1D MSHR FULL: 0.925315
L1D RQ	ACCESS:   26403337	FORWARD:          0	MERGED:    3248900	TO_CACHE:   23154359
L1D WQ	ACCESS:   36402559	FORWARD:         78	MERGED:    1857667	TO_CACHE:   34544892
L1D PQ	ACCESS:    2542284	FORWARD:          0	MERGED:         22	TO_CACHE:    2542262

L1D UNIQUE REGIONS ACCESSED: 0
L1D REGIONS CONFLICTS: 0
L1D Cross Page Prefetch Requests: 0
L1D Same Page Prefetch Requests: 3152678
L1D ROI Sum of L1D PQ occupancy: 1555742733
L1D PREFETCHES PUSHED FROM L2C: 0
L1I SPEC fills:          0  NON-SPEC fills:          0
L1I Test counter :          0
L1I Leapfrog:          0
L1I MSHR merge:          0
L1I TOTAL     ACCESS:   34498900  HIT:   34498900  MISS:          0  HIT %:        100  MISS %:          0   MPKI: 0
L1I LOAD      TOTAL       ACCESS:   34498900  HIT:   34498900  MISS:          0  HIT %:        100  MISS %:          0   MPKI: 0
L1I LOAD      NON_SPEC    ACCESS:   34498900  HIT:   34498900  MISS:          0  HIT %:        100  MISS %:          0   MPKI: 0
L1I PREFETCH  REQUESTED:          0  ISSUED:          0  USEFUL:          0  USELESS:          0
L1I USEFUL LOAD PREFETCHES:          0 PREFETCH ISSUED TO LOWER LEVEL:          0  ACCURACY: -nan
L1I TIMELY PREFETCHES:          0 LATE PREFETCHES: 0 DROPPED PREFETCHES: 0
L1I COMMIT LATE PREFETCHES: 0 MISSED OPPORTUNITY: 0 LATE IN PQ: 0 UNCOVERED: 0
L1I COMMIT LATE MSHR PREFETCHES: 0
L1I MPKI TOTAL: 0 MSHR LATE: 0 PQ LATE: 0 COMMIT LATE: 0 MISSED OPPORTUNITY: 0 UNCOVERED: 0
L1I PREFETCHES SAME FILL-ORIGIN LEVEL: 0 DIFFERENT FILL-ORIGIN LEVEL: 0
L1I AVERAGE MISS LATENCY: -nan cycles
L1I AVERAGE MISS LATENCY LOAD: -nan cycles
L1I AVERAGE MISS LATENCY PREFETCH: -nan cycles
L1I AVERAGE MSHR OCCUPANCY: 0
L1I MSHR FULL: 0
L1I RQ	ACCESS:   49601723	FORWARD:          0	MERGED:   15102824	TO_CACHE:   34498899

BTB SPEC fills:          0  NON-SPEC fills:          0
BTB Test counter :          0
BTB Leapfrog:          0
BTB MSHR merge:          0
BTB TOTAL     ACCESS:    3609719  HIT:    3609713  MISS:          6  HIT %:    99.9998  MISS %: 0.000166218   MPKI: 3e-05
BTB BRANCH_DIRECT_JUMP	ACCESS:     590927  HIT:     590926  MISS:          1
BTB BRANCH_INDIRECT	ACCESS:          0  HIT:          0  MISS:          0
BTB BRANCH_CONDITIONAL	ACCESS:    3018792  HIT:    3018787  MISS:          5
BTB BRANCH_DIRECT_CALL	ACCESS:          0  HIT:          0  MISS:          0
BTB BRANCH_INDIRECT_CALL	ACCESS:          0  HIT:          0  MISS:          0
BTB BRANCH_RETURN	ACCESS:          0  HIT:          0  MISS:          0
BTB BRANCH_OTHER ACCESS:          0  HIT:          0  MISS:          0

L2C SPEC fills:          0  NON-SPEC fills:      19815
L2C Test counter :          0
L2C Leapfrog:          0
L2C MSHR merge:          0
L2C TOTAL     ACCESS:   29783256  HIT:   19789657  MISS:    9993599  HIT %:    66.4456  MISS %:    33.5544   MPKI: 49.968
L2C LOAD      TOTAL       ACCESS:     518525  HIT:      39129  MISS:     479396  HIT %:    7.54621  MISS %:    92.4538   MPKI: 2.39698
L2C LOAD      NON_SPEC    ACCESS:      20354  HIT:        539  MISS:      19815  HIT %:    2.64813  MISS %:    97.3519   MPKI: 0.099075
L2C LOAD      SPEC        ACCESS:     498171  HIT:      38590  MISS:     459581  HIT %:    7.74634  MISS %:    92.2537   MPKI: 2.29791
L2C RFO       NON_SPEC    ACCESS:   12862919  HIT:    5745125  MISS:    7117794  HIT %:    44.6642  MISS %:    55.3358   MPKI: 35.589
L2C PREFETCH  NON_SPEC    ACCESS:    1967824  HIT:         12  MISS:    1967812  HIT %: 0.000609811  MISS %:    99.9994   MPKI: 9.83906
L2C WRITEBACK NON_SPEC    ACCESS:   12862934  HIT:   12862458  MISS:        476  HIT %:    99.9963  MISS %: 0.00370056   MPKI: 0.00238
L2C CLEAN_EVICTION NON_SPEC    ACCESS:     641283  HIT:     329831  MISS:     311452  HIT %:     51.433  MISS %:     48.567   MPKI: 1.55726
L2C COMMIT LOAD NON_SPEC    ACCESS:     180997  HIT:      83234  MISS:      97763  HIT %:    45.9864  MISS %:    54.0136   MPKI: 0.488815
L2C LOAD TRANSLATION NON_SPEC    ACCESS:     748774  HIT:     729868  MISS:      18906  HIT %:    97.4751  MISS %:    2.52493   MPKI: 0.09453
L2C PREFETCH  REQUESTED:          0  ISSUED:          0  USEFUL:      81702  USELESS:    1887029
L2C USEFUL LOAD PREFETCHES:      81702 PREFETCH ISSUED TO LOWER LEVEL:    1967815  ACCURACY: 4.15191
L2C TIMELY PREFETCHES:      81702 LATE PREFETCHES: 0 DROPPED PREFETCHES: 0
L2C COMMIT LATE PREFETCHES: 0 MISSED OPPORTUNITY: 0 LATE IN PQ: 0 UNCOVERED: 0
L2C COMMIT LATE MSHR PREFETCHES: 0
L2C MPKI TOTAL: 2.39698 MSHR LATE: 0 PQ LATE: 0 COMMIT LATE: 0 MISSED OPPORTUNITY: 0 UNCOVERED: 0
L2C PREFETCHES SAME FILL-ORIGIN LEVEL: 0 DIFFERENT FILL-ORIGIN LEVEL: 0
L2C AVERAGE MISS LATENCY: 478.27 cycles
L2C AVERAGE MISS LATENCY LOAD: 449.801 cycles
L2C AVERAGE MISS LATENCY PREFETCH: 450.767 cycles
L2C AVERAGE MSHR OCCUPANCY: 11.0462
L2C MSHR FULL: 0
L2C RQ	ACCESS:   14311276	FORWARD:          0	MERGED:          0	TO_CACHE:   14311223
L2C WQ	ACCESS:   13504226	FORWARD:         53	MERGED:          9	TO_CACHE:   13504217
L2C PQ	ACCESS:    1967827	FORWARD:          0	MERGED:          0	TO_CACHE:    1967827

L2C Instructions Evicting Data 0
L2C Translations Evicting Data 18817
L2C Data Evicting Data 9185082
L2C Instructions Evicting Instructions 0
L2C Translations Evicting Instructions 0
L2C Data Evicting Instructions 0
L2C Instructions Evicting Translations 0
L2C Translations Evicting Translations 89
L2C Data Evicting Translations 18102
L2C Dense regions hint from L2: 0
PSCL5 SPEC fills:          0  NON-SPEC fills:          0
PSCL5 Test counter :          0
PSCL5 Leapfrog:          0
PSCL5 MSHR merge:          0
PSCL5 TOTAL     ACCESS:          0  HIT:          0  MISS:          0  HIT %:       -nan  MISS %:       -nan   MPKI: 0
PSCL5 PREFETCH  REQUESTED:          0  ISSUED:          0  USEFUL:          0  USELESS:          0
PSCL5 USEFUL LOAD PREFETCHES:          0 PREFETCH ISSUED TO LOWER LEVEL:          0  ACCURACY: -nan
PSCL5 TIMELY PREFETCHES:          0 LATE PREFETCHES: 0 DROPPED PREFETCHES: 0
PSCL5 COMMIT LATE PREFETCHES: 0 MISSED OPPORTUNITY: 0 LATE IN PQ: 0 UNCOVERED: 0
PSCL5 COMMIT LATE MSHR PREFETCHES: 0
PSCL5 MPKI TOTAL: 0 MSHR LATE: 0 PQ LATE: 0 COMMIT LATE: 0 MISSED OPPORTUNITY: 0 UNCOVERED: 0
PSCL5 PREFETCHES SAME FILL-ORIGIN LEVEL: 0 DIFFERENT FILL-ORIGIN LEVEL: 0

PSCL4 SPEC fills:          0  NON-SPEC fills:          0
PSCL4 Test counter :          0
PSCL4 Leapfrog:          0
PSCL4 MSHR merge:          0
PSCL4 TOTAL     ACCESS:          0  HIT:          0  MISS:          0  HIT %:       -nan  MISS %:       -nan   MPKI: 0
PSCL4 PREFETCH  REQUESTED:          0  ISSUED:          0  USEFUL:          0  USELESS:          0
PSCL4 USEFUL LOAD PREFETCHES:          0 PREFETCH ISSUED TO LOWER LEVEL:          0  ACCURACY: -nan
PSCL4 TIMELY PREFETCHES:          0 LATE PREFETCHES: 0 DROPPED PREFETCHES: 0
PSCL4 COMMIT LATE PREFETCHES: 0 MISSED OPPORTUNITY: 0 LATE IN PQ: 0 UNCOVERED: 0
PSCL4 COMMIT LATE MSHR PREFETCHES: 0
PSCL4 MPKI TOTAL: 0 MSHR LATE: 0 PQ LATE: 0 COMMIT LATE: 0 MISSED OPPORTUNITY: 0 UNCOVERED: 0
PSCL4 PREFETCHES SAME FILL-ORIGIN LEVEL: 0 DIFFERENT FILL-ORIGIN LEVEL: 0

PSCL3 SPEC fills:          0  NON-SPEC fills:          0
PSCL3 Test counter :          0
PSCL3 Leapfrog:          0
PSCL3 MSHR merge:          0
PSCL3 TOTAL     ACCESS:          0  HIT:          0  MISS:          0  HIT %:       -nan  MISS %:       -nan   MPKI: 0
PSCL3 PREFETCH  REQUESTED:          0  ISSUED:          0  USEFUL:          0  USELESS:          0
PSCL3 USEFUL LOAD PREFETCHES:          0 PREFETCH ISSUED TO LOWER LEVEL:          0  ACCURACY: -nan
PSCL3 TIMELY PREFETCHES:          0 LATE PREFETCHES: 0 DROPPED PREFETCHES: 0
PSCL3 COMMIT LATE PREFETCHES: 0 MISSED OPPORTUNITY: 0 LATE IN PQ: 0 UNCOVERED: 0
PSCL3 COMMIT LATE MSHR PREFETCHES: 0
PSCL3 MPKI TOTAL: 0 MSHR LATE: 0 PQ LATE: 0 COMMIT LATE: 0 MISSED OPPORTUNITY: 0 UNCOVERED: 0
PSCL3 PREFETCHES SAME FILL-ORIGIN LEVEL: 0 DIFFERENT FILL-ORIGIN LEVEL: 0

PSCL2 SPEC fills:          0  NON-SPEC fills:          0
PSCL2 Test counter :          0
PSCL2 Leapfrog:          0
PSCL2 MSHR merge:          0
PSCL2 TOTAL     ACCESS:          0  HIT:          0  MISS:          0  HIT %:       -nan  MISS %:       -nan   MPKI: 0
PSCL2 PREFETCH  REQUESTED:          0  ISSUED:          0  USEFUL:          0  USELESS:          0
PSCL2 USEFUL LOAD PREFETCHES:          0 PREFETCH ISSUED TO LOWER LEVEL:          0  ACCURACY: -nan
PSCL2 TIMELY PREFETCHES:          0 LATE PREFETCHES: 0 DROPPED PREFETCHES: 0
PSCL2 COMMIT LATE PREFETCHES: 0 MISSED OPPORTUNITY: 0 LATE IN PQ: 0 UNCOVERED: 0
PSCL2 COMMIT LATE MSHR PREFETCHES: 0
PSCL2 MPKI TOTAL: 0 MSHR LATE: 0 PQ LATE: 0 COMMIT LATE: 0 MISSED OPPORTUNITY: 0 UNCOVERED: 0
PSCL2 PREFETCHES SAME FILL-ORIGIN LEVEL: 0 DIFFERENT FILL-ORIGIN LEVEL: 0

LLC SPEC fills:          0  NON-SPEC fills:      19791
LLC Test counter :          0
LLC Leapfrog:          0
LLC MSHR merge:          0
LLC TOTAL     ACCESS:   17434862  HIT:    7520591  MISS:    9914271  HIT %:    43.1354  MISS %:    56.8646   MPKI: 49.5714
LLC LOAD      TOTAL       ACCESS:     479396  HIT:       1019  MISS:     478377  HIT %:   0.212559  MISS %:    99.7874   MPKI: 2.39188
LLC LOAD      NON_SPEC    ACCESS:      19815  HIT:         24  MISS:      19791  HIT %:    0.12112  MISS %:    99.8789   MPKI: 0.098955
LLC LOAD      SPEC        ACCESS:     459581  HIT:        995  MISS:     458586  HIT %:   0.216502  MISS %:    99.7835   MPKI: 2.29293
LLC RFO       NON_SPEC    ACCESS:    7117681  HIT:      77178  MISS:    7040503  HIT %:    1.08431  MISS %:    98.9157   MPKI: 35.2025
LLC PREFETCH  NON_SPEC    ACCESS:    1967812  HIT:          0  MISS:    1967812  HIT %:          0  MISS %:        100   MPKI: 9.83906
LLC WRITEBACK NON_SPEC    ACCESS:    7117603  HIT:    7117266  MISS:        337  HIT %:    99.9953  MISS %: 0.00473474   MPKI: 0.001685
LLC CLEAN_EVICTION NON_SPEC    ACCESS:     635701  HIT:     325048  MISS:     310653  HIT %:    51.1322  MISS %:    48.8678   MPKI: 1.55326
LLC COMMIT LOAD NON_SPEC    ACCESS:      97763  HIT:         78  MISS:      97685  HIT %:  0.0797848  MISS %:    99.9202   MPKI: 0.488425
LLC LOAD TRANSLATION NON_SPEC    ACCESS:      18906  HIT:          2  MISS:      18904  HIT %:  0.0105787  MISS %:    99.9894   MPKI: 0.09452
LLC PREFETCH  REQUESTED:          0  ISSUED:          0  USEFUL:          0  USELESS:    1971036
LLC USEFUL LOAD PREFETCHES:          0 PREFETCH ISSUED TO LOWER LEVEL:    1967815  ACCURACY: 0
LLC TIMELY PREFETCHES:          0 LATE PREFETCHES: 0 DROPPED PREFETCHES: 0
LLC COMMIT LATE PREFETCHES: 0 MISSED OPPORTUNITY: 0 LATE IN PQ: 0 UNCOVERED: 0
LLC COMMIT LATE MSHR PREFETCHES: 0
LLC MPKI TOTAL: 2.39188 MSHR LATE: 0 PQ LATE: 0 COMMIT LATE: 0 MISSED OPPORTUNITY: 0 UNCOVERED: 0
LLC PREFETCHES SAME FILL-ORIGIN LEVEL: 0 DIFFERENT FILL-ORIGIN LEVEL: 0
LLC AVERAGE MISS LATENCY: 452.247 cycles
LLC AVERAGE MISS LATENCY LOAD: 429.072 cycles
LLC AVERAGE MISS LATENCY PREFETCH: 420.338 cycles
LLC AVERAGE MSHR OCCUPANCY: 10.3622
LLC MSHR FULL: 0
LLC RQ	ACCESS:    7713867	FORWARD:          0	MERGED:          0	TO_CACHE:    7713754
LLC WQ	ACCESS:    7753304	FORWARD:        113	MERGED:          0	TO_CACHE:    7753304
LLC PQ	ACCESS:    1967815	FORWARD:          0	MERGED:          0	TO_CACHE:    1967815

LLC Dense regions hint to LLC: 0

RAW hits: 1532858
Loads Generated: 52231474
Loads sent to L1D: 50698616
Stores Generated: 36944939
Stores sent to L1D: 36944937
Major fault: 0 Minor fault: 96650
Allocated PAGES: 96650
Total Load insts: 62236808
Total Non-spec loads: 3763255
Percentage of speculative loads: 93.9533

LeapFrogging counter: 40989566
Commit hits: 19978269 miss: 27324782
Commit hit %: 42.2346 miss %: 57.7654
Commits not translated: 0
Loads retired: 717076
Stores retired: 36944937
Cache fills: 717076
L1D response latency: 825.484 cycles
Load retirement latency: 1923.46 cycles
OOO test counter: 0
Discarded buffer inserts: 19978269 hits: 218259 hit %: 1.09248
Filter prediction accuracy: 99.7414

stream: 
stream:times selected: 8336284
stream:pref_filled: 297911
stream:pref_useful: 293509
stream:pref_late: 4818
stream:misses: 107278
stream:misses_by_poll: 0

CS: 
CS:times selected: 2059118
CS:pref_filled: 1064333
CS:pref_useful: 1063972
CS:pref_late: 2153
CS:misses: 229282
CS:misses_by_poll: 484

CPLX: 
CPLX:times selected: 6270645
CPLX:pref_filled: 962111
CPLX:pref_useful: 959555
CPLX:pref_late: 10553
CPLX:misses: 389504
CPLX:misses_by_poll: 2413

NL_L1: 
NL:times selected: 1376
NL:pref_filled: 102
NL:pref_useful: 100
NL:pref_late: 5
NL:misses: 294
NL:misses_by_poll: 0

total selections: 16667423
total_filled: 1765301
total_useful: 1760408
total_late: 17858
total_polluted: 2897
total_misses_after_warmup: 730170
conflicts: 149705
Degree Incremented Times: 280647
Degree Decremented Times: 0

L1 IP Table Write Accesses: 21860001
L1 IP Table Read Accesses: 21710296
L1 RST Write Accesses: 7307392
L1 RST Read Accesses: 14614784
L1 CSPT Write Accesses: 7307392
L1 CSPT Read Accesses: 22718372
L1 RR Filter Tag Write Accesses: 2584384
L1 RR Filter Tag Read Accesses: 1194268951
L1 IP Table Tag Write Accesses: 22427486
L1 IP Table Tag Read Accesses: 22427486
L1 RST Tag Write Accesses: 0
L1 RST Tag Read Accesses: 65949125
L1 RR Filter Write Accesses: 0
L1 RR Filter Read Accesses: 55144485
test: 1362696

DRAM Statistics
 CHANNEL 0
 RQ ROW_BUFFER_HIT:     948603  ROW_BUFFER_MISS:    8654678
 DBUS_CONGESTED:         61
 WQ ROW_BUFFER_HIT:    1548990  ROW_BUFFER_MISS:    6123252  FULL:        456

 AVG_CONGESTED_CYCLE: 5
 All warmup complete: 2
Channel 0 Bank busy for read cycles: 0
Channel 0 Bank busy for write cycles: 0
Channel 0
Rank 0
0banks busy for read cycles: 121783190
0banks busy for write cycles: 62180
1banks busy for read cycles: 10645089
1banks busy for write cycles: 6421069
2banks busy for read cycles: 10236262
2banks busy for write cycles: 4786071
3banks busy for read cycles: 14293528
3banks busy for write cycles: 4279595
4banks busy for read cycles: 22489718
4banks busy for write cycles: 4194398
5banks busy for read cycles: 44126580
5banks busy for write cycles: 4424196
6banks busy for read cycles: 61463888
6banks busy for write cycles: 5239812
7banks busy for read cycles: 65099902
7banks busy for write cycles: 13782935
8banks busy for read cycles: 35868826
8banks busy for write cycles: 129678387

CPU 0 Branch Prediction Accuracy: 97.0951% MPKI: 0.52429 Average ROB Occupancy at Mispredict: 141.599
Branch types
NOT_BRANCH: 196389966 98.195%
BRANCH_DIRECT_JUMP: 590927 0.295463%
BRANCH_INDIRECT: 0 0%
BRANCH_CONDITIONAL: 3018804 1.5094%
BRANCH_DIRECT_CALL: 0 0%
BRANCH_INDIRECT_CALL: 0 0%
BRANCH_RETURN: 0 0%
BRANCH_OTHER: 0 0%

DRAM PAGES: 1048576
Allocated PAGES: 96650
