
*** ChampSim Multicore Out-of-Order Simulator ***

Warmup Instructions: 50000000
Simulation Instructions: 200000000
Number of CPUs: 1
LLC sets: 2048
LLC ways: 16
L0D sets: 16
L0D ways: 2
ROB size: 352
LQ size: 128
SQ size: 72
Secure Berti: OFF
Berti: OFF
Berti Fill: OFF
On commit prefetching: OFF
Hit-based filter: ON
Time-guarding: ON
Free-slotting: ON
Leap-frogging: ON
Train prefetcher on L0D bypass: OFF
No translation penalty for prefetchers: OFF
Prefetch to L0D only: OFF
Prefetch to L1D only: OFF
Clean evictions: ON
Commit loads: ON
Commit write: ON
Fill commit loads to L2C, LLC: ON
DRAM IO FREQUENCY: 6400
ROB SIZE: 352
Off-chip DRAM Size: 4096 MB Channels: 1 Width: 64-bit Data Rate: 6400 MT/s
CPU 0 runs /home/sumon/secure_berti/GhostMinion/../../traces/spec/628.pop2_s-17B.champsimtrace.xz
.xz
BTB has LRU replacement policy
ITLB has LRU replacement policy
DTLB has LRU replacement policy
STLB has LRU replacement policy
L1I has LRU replacement policy
L0D has LRU replacement policy
IP Table Entries: 1024
CSPT Entries: 128
RR_ENTRIES: 32
RST_ENTRIES: 8
L1D has LRU replacement policy
L2C has LRU replacement policy
LLC has LRU replacement policy
Heartbeat CPU 0 instructions: 10000003 cycles: 3174542 heartbeat IPC: 3.15006 cumulative IPC: 3.15006 (Simulation time: 0 hr 0 min 30 sec) 
Heartbeat CPU 0 instructions: 20000001 cycles: 6347310 heartbeat IPC: 3.15182 cumulative IPC: 3.15094 (Simulation time: 0 hr 0 min 59 sec) 
Heartbeat CPU 0 instructions: 30000003 cycles: 9518934 heartbeat IPC: 3.15296 cumulative IPC: 3.15161 (Simulation time: 0 hr 1 min 28 sec) 
Heartbeat CPU 0 instructions: 40000003 cycles: 12689368 heartbeat IPC: 3.15414 cumulative IPC: 3.15225 (Simulation time: 0 hr 1 min 58 sec) 
Heartbeat CPU 0 instructions: 50000000 cycles: 15859837 heartbeat IPC: 3.15411 cumulative IPC: 3.15262 (Simulation time: 0 hr 2 min 27 sec) 

Warmup complete CPU 0 instructions: 50000004 cycles: 15859838 (Simulation time: 0 hr 2 min 27 sec) 

Heartbeat CPU 0 instructions: 60000000 cycles: 27791372 heartbeat IPC: 0.838115 cumulative IPC: 0.838115 (Simulation time: 0 hr 2 min 59 sec) 
Heartbeat CPU 0 instructions: 70000000 cycles: 39644711 heartbeat IPC: 0.843644 cumulative IPC: 0.84087 (Simulation time: 0 hr 3 min 32 sec) 
Heartbeat CPU 0 instructions: 80000000 cycles: 51252428 heartbeat IPC: 0.861496 cumulative IPC: 0.847635 (Simulation time: 0 hr 4 min 1 sec) 
Heartbeat CPU 0 instructions: 90000003 cycles: 64616700 heartbeat IPC: 0.748264 cumulative IPC: 0.820397 (Simulation time: 0 hr 4 min 31 sec) 
Heartbeat CPU 0 instructions: 100000001 cycles: 75995853 heartbeat IPC: 0.8788 cumulative IPC: 0.831448 (Simulation time: 0 hr 5 min 3 sec) 
Heartbeat CPU 0 instructions: 110000000 cycles: 88286542 heartbeat IPC: 0.813624 cumulative IPC: 0.828424 (Simulation time: 0 hr 5 min 34 sec) 
Heartbeat CPU 0 instructions: 120000000 cycles: 101304078 heartbeat IPC: 0.768195 cumulative IPC: 0.819248 (Simulation time: 0 hr 6 min 2 sec) 
Heartbeat CPU 0 instructions: 130000000 cycles: 114400795 heartbeat IPC: 0.76355 cumulative IPC: 0.811845 (Simulation time: 0 hr 6 min 31 sec) 
Heartbeat CPU 0 instructions: 140000003 cycles: 128352578 heartbeat IPC: 0.716754 cumulative IPC: 0.800052 (Simulation time: 0 hr 6 min 57 sec) 
Heartbeat CPU 0 instructions: 150000000 cycles: 141543559 heartbeat IPC: 0.758093 cumulative IPC: 0.795648 (Simulation time: 0 hr 7 min 21 sec) 
Heartbeat CPU 0 instructions: 160000000 cycles: 155822823 heartbeat IPC: 0.700316 cumulative IPC: 0.785922 (Simulation time: 0 hr 7 min 48 sec) 
Heartbeat CPU 0 instructions: 170000002 cycles: 166785983 heartbeat IPC: 0.912146 cumulative IPC: 0.795091 (Simulation time: 0 hr 8 min 20 sec) 
Heartbeat CPU 0 instructions: 180000003 cycles: 178332999 heartbeat IPC: 0.866025 cumulative IPC: 0.800132 (Simulation time: 0 hr 8 min 53 sec) 
Heartbeat CPU 0 instructions: 190000000 cycles: 190174867 heartbeat IPC: 0.844461 cumulative IPC: 0.803144 (Simulation time: 0 hr 9 min 25 sec) 
Heartbeat CPU 0 instructions: 200000000 cycles: 201957268 heartbeat IPC: 0.848723 cumulative IPC: 0.806029 (Simulation time: 0 hr 9 min 58 sec) 
Heartbeat CPU 0 instructions: 210000000 cycles: 213722682 heartbeat IPC: 0.849949 cumulative IPC: 0.808641 (Simulation time: 0 hr 10 min 31 sec) 
Heartbeat CPU 0 instructions: 220000000 cycles: 225537933 heartbeat IPC: 0.846364 cumulative IPC: 0.810767 (Simulation time: 0 hr 11 min 4 sec) 
Heartbeat CPU 0 instructions: 230000000 cycles: 237460676 heartbeat IPC: 0.838733 cumulative IPC: 0.812271 (Simulation time: 0 hr 11 min 37 sec) 
Heartbeat CPU 0 instructions: 240000002 cycles: 249383543 heartbeat IPC: 0.838725 cumulative IPC: 0.813622 (Simulation time: 0 hr 12 min 9 sec) 
Heartbeat CPU 0 instructions: 250000002 cycles: 261306784 heartbeat IPC: 0.838698 cumulative IPC: 0.81484 (Simulation time: 0 hr 12 min 40 sec) 
Finished CPU 0 instructions: 200000002 cycles: 245446947 cumulative IPC: 0.81484 (Simulation time: 0 hr 12 min 40 sec) 
 Instruction ID: 250000115

ChampSim completed all CPUs

Region of Interest Statistics

CPU 0 cumulative IPC: 0.81484 instructions: 200000002 cycles: 245446947
ITLB SPEC fills:          0  NON-SPEC fills:          0
ITLB Test counter :          0
ITLB Leapfrog:          0
ITLB MSHR merge:          0
ITLB TOTAL     ACCESS:   34334511  HIT:   34329695  MISS:       4816  HIT %:     99.986  MISS %:  0.0140267   MPKI: 0.02408
ITLB LOAD TRANSLATION NON_SPEC    ACCESS:   34334511  HIT:   34329695  MISS:       4816  HIT %:     99.986  MISS %:  0.0140267   MPKI: 0.02408
ITLB PREFETCH  REQUESTED:          0  ISSUED:          0  USEFUL:          0  USELESS:          0
ITLB USEFUL LOAD PREFETCHES:          0 PREFETCH ISSUED TO LOWER LEVEL:          0  ACCURACY: -nan
ITLB TIMELY PREFETCHES:          0 LATE PREFETCHES: 0 DROPPED PREFETCHES: 0
ITLB COMMIT LATE PREFETCHES: 0 MISSED OPPORTUNITY: 0 LATE IN PQ: 0 UNCOVERED: 0
ITLB COMMIT LATE MSHR PREFETCHES: 0
ITLB MPKI TOTAL: 0 MSHR LATE: 0 PQ LATE: 0 COMMIT LATE: 0 MISSED OPPORTUNITY: 0 UNCOVERED: 0
ITLB PREFETCHES SAME FILL-ORIGIN LEVEL: 0 DIFFERENT FILL-ORIGIN LEVEL: 0
ITLB AVERAGE MISS LATENCY: 15.7475 cycles
ITLB AVERAGE MISS LATENCY LOAD: -nan cycles
ITLB AVERAGE MISS LATENCY PREFETCH: -nan cycles
ITLB AVERAGE MSHR OCCUPANCY: 7.2548e-05
ITLB MSHR FULL: 0
ITLB RQ	ACCESS:   39063850	FORWARD:          0	MERGED:    4727944	TO_CACHE:   34335906

DTLB SPEC fills:          0  NON-SPEC fills:          0
DTLB Test counter :          0
DTLB Leapfrog:          0
DTLB MSHR merge:          0
DTLB TOTAL     ACCESS:   45487278  HIT:   45387263  MISS:     100015  HIT %:    99.7801  MISS %:   0.219875   MPKI: 0.500075
DTLB LOAD TRANSLATION NON_SPEC    ACCESS:   45487278  HIT:   45387263  MISS:     100015  HIT %:    99.7801  MISS %:   0.219875   MPKI: 0.500075
DTLB PREFETCH  REQUESTED:          0  ISSUED:          0  USEFUL:          0  USELESS:          0
DTLB USEFUL LOAD PREFETCHES:          0 PREFETCH ISSUED TO LOWER LEVEL:          0  ACCURACY: -nan
DTLB TIMELY PREFETCHES:          0 LATE PREFETCHES: 0 DROPPED PREFETCHES: 0
DTLB COMMIT LATE PREFETCHES: 0 MISSED OPPORTUNITY: 0 LATE IN PQ: 0 UNCOVERED: 0
DTLB COMMIT LATE MSHR PREFETCHES: 0
DTLB MPKI TOTAL: 0 MSHR LATE: 0 PQ LATE: 0 COMMIT LATE: 0 MISSED OPPORTUNITY: 0 UNCOVERED: 0
DTLB PREFETCHES SAME FILL-ORIGIN LEVEL: 0 DIFFERENT FILL-ORIGIN LEVEL: 0
DTLB AVERAGE MISS LATENCY: 28.781 cycles
DTLB AVERAGE MISS LATENCY LOAD: -nan cycles
DTLB AVERAGE MISS LATENCY PREFETCH: -nan cycles
DTLB AVERAGE MSHR OCCUPANCY: 0.00689378
DTLB MSHR FULL: 4.55116e-05
DTLB RQ	ACCESS:   49690927	FORWARD:          0	MERGED:    4166105	TO_CACHE:   45524822

STLB SPEC fills:          0  NON-SPEC fills:          0
STLB Test counter :          0
STLB Leapfrog:          0
STLB MSHR merge:          0
STLB TOTAL     ACCESS:    4671160  HIT:    4661526  MISS:       9634  HIT %:    99.7938  MISS %:   0.206244   MPKI: 0.04817
STLB LOAD TRANSLATION NON_SPEC    ACCESS:     104831  HIT:      95197  MISS:       9634  HIT %:      90.81  MISS %:    9.19003   MPKI: 0.04817
STLB TRANSLATION FROM L1D PREFETCHER NON_SPEC    ACCESS:    4566329  HIT:    4566329  MISS:          0  HIT %:        100  MISS %:          0   MPKI: 0
STLB PREFETCH  REQUESTED:          0  ISSUED:          0  USEFUL:          0  USELESS:          0
STLB USEFUL LOAD PREFETCHES:          0 PREFETCH ISSUED TO LOWER LEVEL:          0  ACCURACY: -nan
STLB TIMELY PREFETCHES:          0 LATE PREFETCHES: 0 DROPPED PREFETCHES: 0
STLB COMMIT LATE PREFETCHES: 0 MISSED OPPORTUNITY: 0 LATE IN PQ: 0 UNCOVERED: 0
STLB COMMIT LATE MSHR PREFETCHES: 0
STLB MPKI TOTAL: 0 MSHR LATE: 0 PQ LATE: 0 COMMIT LATE: 0 MISSED OPPORTUNITY: 0 UNCOVERED: 0
STLB PREFETCHES SAME FILL-ORIGIN LEVEL: 0 DIFFERENT FILL-ORIGIN LEVEL: 0
STLB AVERAGE MISS LATENCY: 208.043 cycles
STLB AVERAGE MISS LATENCY LOAD: -nan cycles
STLB AVERAGE MISS LATENCY PREFETCH: -nan cycles
STLB AVERAGE MSHR OCCUPANCY: 0.00442417
STLB MSHR FULL: 0
STLB RQ	ACCESS:   12740122	FORWARD:          0	MERGED:    8068963	TO_CACHE:    4671159

STLB Hit, L1D data hit: 0
STLB Hit, L2C data hit: 0
STLB Hit, LLC data hit: 0
STLB Hit, LLC data miss: 0
STLB STLB hints to L2: 0
L0D SPEC fills:   26038878  NON-SPEC fills:          0
L0D TimeGuard Request with older TS:     108466 Restricted eviction:      89291 read:     128209
L0D Test counter :          0
L0D Leapfrog:          0
L0D MSHR merge:     698179
L0D TOTAL     ACCESS:   35392431  HIT:    3777834  MISS:   31614597  HIT %:    10.6741  MISS %:    89.3259   MPKI: 158.073
L0D LOAD      TOTAL       ACCESS:   35392431  HIT:    3777834  MISS:   31614597  HIT %:    10.6741  MISS %:    89.3259   MPKI: 158.073
L0D LOAD      NON_SPEC    ACCESS:    5627418  HIT:     140906  MISS:    5486512  HIT %:    2.50392  MISS %:    97.4961   MPKI: 27.4326
L0D LOAD      SPEC        ACCESS:   29765013  HIT:    3636928  MISS:   26128085  HIT %:    12.2188  MISS %:    87.7812   MPKI: 130.64
L0D PREFETCH  REQUESTED:          0  ISSUED:          0  USEFUL:          0  USELESS:          0
L0D USEFUL LOAD PREFETCHES:          0 PREFETCH ISSUED TO LOWER LEVEL:          0  ACCURACY: -nan
L0D TIMELY PREFETCHES:          0 LATE PREFETCHES: 0 DROPPED PREFETCHES: 0
L0D COMMIT LATE PREFETCHES: 0 MISSED OPPORTUNITY: 0 LATE IN PQ: 0 UNCOVERED: 0
L0D COMMIT LATE MSHR PREFETCHES: 0
L0D MPKI TOTAL: 161.564 MSHR LATE: 0 PQ LATE: 0 COMMIT LATE: 0 MISSED OPPORTUNITY: 0 UNCOVERED: 0
L0D PREFETCHES SAME FILL-ORIGIN LEVEL: 0 DIFFERENT FILL-ORIGIN LEVEL: 0
L0D AVERAGE MISS LATENCY: 5.4369 cycles
L0D AVERAGE MISS LATENCY LOAD: 5.4369 cycles
L0D AVERAGE MISS LATENCY PREFETCH: -nan cycles
L0D AVERAGE MSHR OCCUPANCY: 0.733478
L0D MSHR FULL: 0.00100378
L0D RQ	ACCESS:   40082535	FORWARD:          0	MERGED:    3991925	TO_CACHE:   36090610
L0D WQ	ACCESS:   13600317	FORWARD:          0	MERGED:          0	TO_CACHE:   13600317

L1D SPEC fills:          0  NON-SPEC fills:      50205
L1D Test counter :          0
L1D Leapfrog:          0
L1D MSHR merge:      30420
L1D TOTAL     ACCESS:   56102026  HIT:   52132181  MISS:    3969845  HIT %:    92.9239  MISS %:    7.07612   MPKI: 19.8492
L1D LOAD      TOTAL       ACCESS:   31612825  HIT:   31295869  MISS:     316956  HIT %:    98.9974  MISS %:    1.00262   MPKI: 1.58478
L1D LOAD      NON_SPEC    ACCESS:    5486183  HIT:    5435978  MISS:      50205  HIT %:    99.0849  MISS %:   0.915117   MPKI: 0.251025
L1D LOAD      SPEC        ACCESS:   26126642  HIT:   25859891  MISS:     266751  HIT %:     98.979  MISS %:    1.02099   MPKI: 1.33375
L1D RFO       NON_SPEC    ACCESS:   11468539  HIT:   10483199  MISS:     985340  HIT %:    91.4083  MISS %:    8.59168   MPKI: 4.9267
L1D PREFETCH  NON_SPEC    ACCESS:   12573526  HIT:   10169101  MISS:    2404425  HIT %:    80.8771  MISS %:    19.1229   MPKI: 12.0221
L1D COMMIT LOAD NON_SPEC    ACCESS:     158011  HIT:     152617  MISS:       5394  HIT %:    96.5863  MISS %:    3.41369   MPKI: 0.02697
L1D COMMIT WRITE NON_SPEC    ACCESS:     289125  HIT:      31395  MISS:     257730  HIT %:    10.8586  MISS %:    89.1414   MPKI: 1.28865
L1D PREFETCH  REQUESTED:   14218179  ISSUED:   12635874  USEFUL:    1785289  USELESS:     619175
L1D USEFUL LOAD PREFETCHES:    1785289 PREFETCH ISSUED TO LOWER LEVEL:    2433093  ACCURACY: 73.3753
L1D TIMELY PREFETCHES:    1785289 LATE PREFETCHES: 28650 DROPPED PREFETCHES: 0
L1D COMMIT LATE PREFETCHES: 0 MISSED OPPORTUNITY: 0 LATE IN PQ: 0 UNCOVERED: 0
L1D COMMIT LATE MSHR PREFETCHES: 0
L1D MPKI TOTAL: 1.59363 MSHR LATE: 0.14325 PQ LATE: 0 COMMIT LATE: 0 MISSED OPPORTUNITY: 0 UNCOVERED: 0
L1D PREFETCHES SAME FILL-ORIGIN LEVEL: 2433093 DIFFERENT FILL-ORIGIN LEVEL: 0
L1D AVERAGE MISS LATENCY: 55.7759 cycles
L1D AVERAGE MISS LATENCY LOAD: 37.6963 cycles
L1D AVERAGE MISS LATENCY PREFETCH: 58.1536 cycles
L1D AVERAGE MSHR OCCUPANCY: 0.999042
L1D MSHR FULL: 0.00455458
L1D RQ	ACCESS:   31871234	FORWARD:          0	MERGED:      95156	TO_CACHE:   31772879
L1D WQ	ACCESS:   13755840	FORWARD:       3199	MERGED:     156248	TO_CACHE:   13599592
L1D PQ	ACCESS:   12635874	FORWARD:          0	MERGED:        583	TO_CACHE:   12635291

L1D UNIQUE REGIONS ACCESSED: 0
L1D REGIONS CONFLICTS: 0
L1D Cross Page Prefetch Requests: 0
L1D Same Page Prefetch Requests: 17389204
L1D ROI Sum of L1D PQ occupancy: 184070763
L1D PREFETCHES PUSHED FROM L2C: 0
L1I SPEC fills:          0  NON-SPEC fills:          0
L1I Test counter :          0
L1I Leapfrog:          0
L1I MSHR merge:      47775
L1I TOTAL     ACCESS:   39016074  HIT:   38901269  MISS:     114805  HIT %:    99.7057  MISS %:   0.294251   MPKI: 0.574025
L1I LOAD      TOTAL       ACCESS:   39016074  HIT:   38901269  MISS:     114805  HIT %:    99.7057  MISS %:   0.294251   MPKI: 0.574025
L1I LOAD      NON_SPEC    ACCESS:   39016074  HIT:   38901269  MISS:     114805  HIT %:    99.7057  MISS %:   0.294251   MPKI: 0.574025
L1I PREFETCH  REQUESTED:          0  ISSUED:          0  USEFUL:          0  USELESS:          0
L1I USEFUL LOAD PREFETCHES:          0 PREFETCH ISSUED TO LOWER LEVEL:          0  ACCURACY: -nan
L1I TIMELY PREFETCHES:          0 LATE PREFETCHES: 0 DROPPED PREFETCHES: 0
L1I COMMIT LATE PREFETCHES: 0 MISSED OPPORTUNITY: 0 LATE IN PQ: 0 UNCOVERED: 0
L1I COMMIT LATE MSHR PREFETCHES: 0
L1I MPKI TOTAL: 0.8129 MSHR LATE: 0 PQ LATE: 0 COMMIT LATE: 0 MISSED OPPORTUNITY: 0 UNCOVERED: 0
L1I PREFETCHES SAME FILL-ORIGIN LEVEL: 0 DIFFERENT FILL-ORIGIN LEVEL: 0
L1I AVERAGE MISS LATENCY: 50.2873 cycles
L1I AVERAGE MISS LATENCY LOAD: 50.2873 cycles
L1I AVERAGE MISS LATENCY PREFETCH: -nan cycles
L1I AVERAGE MSHR OCCUPANCY: 0.00444472
L1I MSHR FULL: 0
L1I RQ	ACCESS:   60721709	FORWARD:          0	MERGED:   21657859	TO_CACHE:   39063850

BTB SPEC fills:          0  NON-SPEC fills:          0
BTB Test counter :          0
BTB Leapfrog:          0
BTB MSHR merge:          0
BTB TOTAL     ACCESS:   29674711  HIT:   29620836  MISS:      53875  HIT %:    99.8184  MISS %:   0.181552   MPKI: 0.269375
BTB BRANCH_DIRECT_JUMP	ACCESS:     633395  HIT:     632983  MISS:        412
BTB BRANCH_INDIRECT	ACCESS:       8917  HIT:       8176  MISS:        741
BTB BRANCH_CONDITIONAL	ACCESS:   27681837  HIT:   27678187  MISS:       3650
BTB BRANCH_DIRECT_CALL	ACCESS:     675281  HIT:     673574  MISS:       1707
BTB BRANCH_INDIRECT_CALL	ACCESS:          0  HIT:          0  MISS:          0
BTB BRANCH_RETURN	ACCESS:     675281  HIT:     627916  MISS:      47365
BTB BRANCH_OTHER ACCESS:          0  HIT:          0  MISS:          0

L2C SPEC fills:          0  NON-SPEC fills:      13512
L2C Test counter :          0
L2C Leapfrog:          0
L2C MSHR merge:          0
L2C TOTAL     ACCESS:    5311032  HIT:    3633715  MISS:    1677317  HIT %:    68.4182  MISS %:    31.5818   MPKI: 8.38658
L2C LOAD      TOTAL       ACCESS:     402920  HIT:     196458  MISS:     206462  HIT %:    48.7586  MISS %:    51.2414   MPKI: 1.03231
L2C LOAD      NON_SPEC    ACCESS:     162898  HIT:      37018  MISS:     125880  HIT %:    22.7246  MISS %:    77.2754   MPKI: 0.6294
L2C LOAD      SPEC        ACCESS:     240022  HIT:     159440  MISS:      80582  HIT %:    66.4272  MISS %:    33.5728   MPKI: 0.40291
L2C RFO       NON_SPEC    ACCESS:     985219  HIT:     602151  MISS:     383068  HIT %:    61.1185  MISS %:    38.8815   MPKI: 1.91534
L2C PREFETCH  NON_SPEC    ACCESS:    2433003  HIT:    1432530  MISS:    1000473  HIT %:    58.8791  MISS %:    41.1209   MPKI: 5.00236
L2C WRITEBACK NON_SPEC    ACCESS:    1308266  HIT:    1307416  MISS:        850  HIT %:     99.935  MISS %:  0.0649715   MPKI: 0.00425
L2C CLEAN_EVICTION NON_SPEC    ACCESS:     128107  HIT:      49021  MISS:      79086  HIT %:    38.2657  MISS %:    61.7343   MPKI: 0.39543
L2C COMMIT LOAD NON_SPEC    ACCESS:       5393  HIT:       4849  MISS:        544  HIT %:    89.9128  MISS %:    10.0872   MPKI: 0.00272
L2C LOAD TRANSLATION NON_SPEC    ACCESS:      48124  HIT:      41290  MISS:       6834  HIT %:    85.7992  MISS %:    14.2008   MPKI: 0.03417
L2C PREFETCH  REQUESTED:          0  ISSUED:          0  USEFUL:      46471  USELESS:     954470
L2C USEFUL LOAD PREFETCHES:      46471 PREFETCH ISSUED TO LOWER LEVEL:    1000473  ACCURACY: 4.6449
L2C TIMELY PREFETCHES:      46471 LATE PREFETCHES: 0 DROPPED PREFETCHES: 0
L2C COMMIT LATE PREFETCHES: 0 MISSED OPPORTUNITY: 0 LATE IN PQ: 0 UNCOVERED: 0
L2C COMMIT LATE MSHR PREFETCHES: 0
L2C MPKI TOTAL: 1.03231 MSHR LATE: 0 PQ LATE: 0 COMMIT LATE: 0 MISSED OPPORTUNITY: 0 UNCOVERED: 0
L2C PREFETCHES SAME FILL-ORIGIN LEVEL: 0 DIFFERENT FILL-ORIGIN LEVEL: 0
L2C AVERAGE MISS LATENCY: 103.409 cycles
L2C AVERAGE MISS LATENCY LOAD: 50.6124 cycles
L2C AVERAGE MISS LATENCY PREFETCH: 107.642 cycles
L2C AVERAGE MSHR OCCUPANCY: 1.45409
L2C MSHR FULL: 0
L2C RQ	ACCESS:    1441951	FORWARD:          0	MERGED:          0	TO_CACHE:    1441656
L2C WQ	ACCESS:    1436380	FORWARD:        385	MERGED:          7	TO_CACHE:    1436373
L2C PQ	ACCESS:    2433093	FORWARD:          0	MERGED:          0	TO_CACHE:    2433003

L2C Instructions Evicting Data 103390
L2C Translations Evicting Data 6460
L2C Data Evicting Data 1294613
L2C Instructions Evicting Instructions 8454
L2C Translations Evicting Instructions 345
L2C Data Evicting Instructions 97124
L2C Instructions Evicting Translations 524
L2C Translations Evicting Translations 29
L2C Data Evicting Translations 5860
L2C Dense regions hint from L2: 0
PSCL5 SPEC fills:          0  NON-SPEC fills:          0
PSCL5 Test counter :          0
PSCL5 Leapfrog:          0
PSCL5 MSHR merge:          0
PSCL5 TOTAL     ACCESS:          0  HIT:          0  MISS:          0  HIT %:       -nan  MISS %:       -nan   MPKI: 0
PSCL5 PREFETCH  REQUESTED:          0  ISSUED:          0  USEFUL:          0  USELESS:          0
PSCL5 USEFUL LOAD PREFETCHES:          0 PREFETCH ISSUED TO LOWER LEVEL:          0  ACCURACY: -nan
PSCL5 TIMELY PREFETCHES:          0 LATE PREFETCHES: 0 DROPPED PREFETCHES: 0
PSCL5 COMMIT LATE PREFETCHES: 0 MISSED OPPORTUNITY: 0 LATE IN PQ: 0 UNCOVERED: 0
PSCL5 COMMIT LATE MSHR PREFETCHES: 0
PSCL5 MPKI TOTAL: 0 MSHR LATE: 0 PQ LATE: 0 COMMIT LATE: 0 MISSED OPPORTUNITY: 0 UNCOVERED: 0
PSCL5 PREFETCHES SAME FILL-ORIGIN LEVEL: 0 DIFFERENT FILL-ORIGIN LEVEL: 0

PSCL4 SPEC fills:          0  NON-SPEC fills:          0
PSCL4 Test counter :          0
PSCL4 Leapfrog:          0
PSCL4 MSHR merge:          0
PSCL4 TOTAL     ACCESS:          0  HIT:          0  MISS:          0  HIT %:       -nan  MISS %:       -nan   MPKI: 0
PSCL4 PREFETCH  REQUESTED:          0  ISSUED:          0  USEFUL:          0  USELESS:          0
PSCL4 USEFUL LOAD PREFETCHES:          0 PREFETCH ISSUED TO LOWER LEVEL:          0  ACCURACY: -nan
PSCL4 TIMELY PREFETCHES:          0 LATE PREFETCHES: 0 DROPPED PREFETCHES: 0
PSCL4 COMMIT LATE PREFETCHES: 0 MISSED OPPORTUNITY: 0 LATE IN PQ: 0 UNCOVERED: 0
PSCL4 COMMIT LATE MSHR PREFETCHES: 0
PSCL4 MPKI TOTAL: 0 MSHR LATE: 0 PQ LATE: 0 COMMIT LATE: 0 MISSED OPPORTUNITY: 0 UNCOVERED: 0
PSCL4 PREFETCHES SAME FILL-ORIGIN LEVEL: 0 DIFFERENT FILL-ORIGIN LEVEL: 0

PSCL3 SPEC fills:          0  NON-SPEC fills:          0
PSCL3 Test counter :          0
PSCL3 Leapfrog:          0
PSCL3 MSHR merge:          0
PSCL3 TOTAL     ACCESS:          0  HIT:          0  MISS:          0  HIT %:       -nan  MISS %:       -nan   MPKI: 0
PSCL3 PREFETCH  REQUESTED:          0  ISSUED:          0  USEFUL:          0  USELESS:          0
PSCL3 USEFUL LOAD PREFETCHES:          0 PREFETCH ISSUED TO LOWER LEVEL:          0  ACCURACY: -nan
PSCL3 TIMELY PREFETCHES:          0 LATE PREFETCHES: 0 DROPPED PREFETCHES: 0
PSCL3 COMMIT LATE PREFETCHES: 0 MISSED OPPORTUNITY: 0 LATE IN PQ: 0 UNCOVERED: 0
PSCL3 COMMIT LATE MSHR PREFETCHES: 0
PSCL3 MPKI TOTAL: 0 MSHR LATE: 0 PQ LATE: 0 COMMIT LATE: 0 MISSED OPPORTUNITY: 0 UNCOVERED: 0
PSCL3 PREFETCHES SAME FILL-ORIGIN LEVEL: 0 DIFFERENT FILL-ORIGIN LEVEL: 0

PSCL2 SPEC fills:          0  NON-SPEC fills:          0
PSCL2 Test counter :          0
PSCL2 Leapfrog:          0
PSCL2 MSHR merge:          0
PSCL2 TOTAL     ACCESS:          0  HIT:          0  MISS:          0  HIT %:       -nan  MISS %:       -nan   MPKI: 0
PSCL2 PREFETCH  REQUESTED:          0  ISSUED:          0  USEFUL:          0  USELESS:          0
PSCL2 USEFUL LOAD PREFETCHES:          0 PREFETCH ISSUED TO LOWER LEVEL:          0  ACCURACY: -nan
PSCL2 TIMELY PREFETCHES:          0 LATE PREFETCHES: 0 DROPPED PREFETCHES: 0
PSCL2 COMMIT LATE PREFETCHES: 0 MISSED OPPORTUNITY: 0 LATE IN PQ: 0 UNCOVERED: 0
PSCL2 COMMIT LATE MSHR PREFETCHES: 0
PSCL2 MPKI TOTAL: 0 MSHR LATE: 0 PQ LATE: 0 COMMIT LATE: 0 MISSED OPPORTUNITY: 0 UNCOVERED: 0
PSCL2 PREFETCHES SAME FILL-ORIGIN LEVEL: 0 DIFFERENT FILL-ORIGIN LEVEL: 0

LLC SPEC fills:          0  NON-SPEC fills:       2971
LLC Test counter :          0
LLC Leapfrog:          0
LLC MSHR merge:          0
LLC TOTAL     ACCESS:    2279742  HIT:    1558985  MISS:     720757  HIT %:    68.3843  MISS %:    31.6157   MPKI: 3.60378
LLC LOAD      TOTAL       ACCESS:     206462  HIT:     176405  MISS:      30057  HIT %:    85.4419  MISS %:    14.5581   MPKI: 0.150285
LLC LOAD      NON_SPEC    ACCESS:     125880  HIT:     118525  MISS:       7355  HIT %:    94.1571  MISS %:    5.84287   MPKI: 0.036775
LLC LOAD      SPEC        ACCESS:      80582  HIT:      57880  MISS:      22702  HIT %:    71.8275  MISS %:    28.1725   MPKI: 0.11351
LLC RFO       NON_SPEC    ACCESS:     383063  HIT:     179845  MISS:     203218  HIT %:    46.9492  MISS %:    53.0508   MPKI: 1.01609
LLC PREFETCH  NON_SPEC    ACCESS:    1000466  HIT:     543735  MISS:     456731  HIT %:    54.3482  MISS %:    45.6518   MPKI: 2.28365
LLC WRITEBACK NON_SPEC    ACCESS:     575765  HIT:     569988  MISS:       5777  HIT %:    98.9966  MISS %:    1.00336   MPKI: 0.028885
LLC CLEAN_EVICTION NON_SPEC    ACCESS:     106608  HIT:      83572  MISS:      23036  HIT %:    78.3919  MISS %:    21.6081   MPKI: 0.11518
LLC COMMIT LOAD NON_SPEC    ACCESS:        544  HIT:        483  MISS:         61  HIT %:    88.7868  MISS %:    11.2132   MPKI: 0.000305
LLC LOAD TRANSLATION NON_SPEC    ACCESS:       6834  HIT:       4957  MISS:       1877  HIT %:    72.5344  MISS %:    27.4656   MPKI: 0.009385
LLC PREFETCH  REQUESTED:          0  ISSUED:          0  USEFUL:      11963  USELESS:     446332
LLC USEFUL LOAD PREFETCHES:      11963 PREFETCH ISSUED TO LOWER LEVEL:     456731  ACCURACY: 2.61927
LLC TIMELY PREFETCHES:      11963 LATE PREFETCHES: 0 DROPPED PREFETCHES: 0
LLC COMMIT LATE PREFETCHES: 0 MISSED OPPORTUNITY: 0 LATE IN PQ: 0 UNCOVERED: 0
LLC COMMIT LATE MSHR PREFETCHES: 0
LLC MPKI TOTAL: 0.150285 MSHR LATE: 0 PQ LATE: 0 COMMIT LATE: 0 MISSED OPPORTUNITY: 0 UNCOVERED: 0
LLC PREFETCHES SAME FILL-ORIGIN LEVEL: 0 DIFFERENT FILL-ORIGIN LEVEL: 0
LLC AVERAGE MISS LATENCY: 174.449 cycles
LLC AVERAGE MISS LATENCY LOAD: 165.04 cycles
LLC AVERAGE MISS LATENCY PREFETCH: 169.865 cycles
LLC AVERAGE MSHR OCCUPANCY: 1.67862
LLC MSHR FULL: 0
LLC RQ	ACCESS:     596908	FORWARD:          0	MERGED:          0	TO_CACHE:     596903
LLC WQ	ACCESS:     682373	FORWARD:         12	MERGED:          0	TO_CACHE:     682373
LLC PQ	ACCESS:    1000473	FORWARD:          0	MERGED:          0	TO_CACHE:    1000466

LLC Dense regions hint to LLC: 0

RAW hits: 412011
Loads Generated: 40494547
Loads sent to L1D: 40082535
Stores Generated: 13600307
Stores sent to L1D: 13600317
Major fault: 0 Minor fault: 9397
Allocated PAGES: 9397
Total Load insts: 51095713
Total Non-spec loads: 6263897
Percentage of speculative loads: 87.7409

LeapFrogging counter: 36270
Commit hits: 25958984 miss: 8311398
Commit hit %: 75.7476 miss %: 24.2524
Commits not translated: 0
Loads retired: 316956
Stores retired: 13600317
Cache fills: 316956
L1D response latency: 37.6963 cycles
Load retirement latency: 73.9759 cycles
OOO test counter: 0
Discarded buffer inserts: 25958984 hits: 15471 hit %: 0.0595979
Filter prediction accuracy: 99.9576

stream: 
stream:times selected: 7341056
stream:pref_filled: 3235029
stream:pref_useful: 2437447
stream:pref_late: 1810
stream:misses: 11960
stream:misses_by_poll: 0

CS: 
CS:times selected: 6511842
CS:pref_filled: 56616
CS:pref_useful: 39470
CS:pref_late: 20
CS:misses: 134242
CS:misses_by_poll: 262

CPLX: 
CPLX:times selected: 828538
CPLX:pref_filled: 21668
CPLX:pref_useful: 7631
CPLX:pref_late: 41
CPLX:misses: 79265
CPLX:misses_by_poll: 166

NL_L1: 
NL:times selected: 1432
NL:pref_filled: 329
NL:pref_useful: 167
NL:pref_late: 1
NL:misses: 301
NL:misses_by_poll: 2

total selections: 14682868
total_filled: 2404425
total_useful: 1785289
total_late: 2173
total_polluted: 430
total_misses_after_warmup: 318727
conflicts: 191395
Degree Incremented Times: 46945
Degree Decremented Times: 130288

L1 IP Table Write Accesses: 31386763
L1 IP Table Read Accesses: 31195368
L1 RST Write Accesses: 5573968
L1 RST Read Accesses: 11147936
L1 CSPT Write Accesses: 5573968
L1 CSPT Read Accesses: 6223707
L1 RR Filter Tag Write Accesses: 14218179
L1 RR Filter Tag Read Accesses: 1230596607
L1 IP Table Tag Write Accesses: 31614596
L1 IP Table Tag Read Accesses: 31614596
L1 RST Tag Write Accesses: 0
L1 RST Tag Read Accesses: 51721374
L1 RR Filter Write Accesses: 0
L1 RR Filter Read Accesses: 46270984
test: 382547

DRAM Statistics
 CHANNEL 0
 RQ ROW_BUFFER_HIT:     225719  ROW_BUFFER_MISS:     466184
 DBUS_CONGESTED:       3078
 WQ ROW_BUFFER_HIT:      85230  ROW_BUFFER_MISS:     269007  FULL:        115

 AVG_CONGESTED_CYCLE: 5
 All warmup complete: 2
Channel 0 Bank busy for read cycles: 0
Channel 0 Bank busy for write cycles: 0
Channel 0
Rank 0
0banks busy for read cycles: 194447162
0banks busy for write cycles: 31217
1banks busy for read cycles: 16595236
1banks busy for write cycles: 3719706
2banks busy for read cycles: 9457657
2banks busy for write cycles: 1731494
3banks busy for read cycles: 3388276
3banks busy for write cycles: 1236588
4banks busy for read cycles: 1947452
4banks busy for write cycles: 992334
5banks busy for read cycles: 1122731
5banks busy for write cycles: 886002
6banks busy for read cycles: 1063392
6banks busy for write cycles: 840716
7banks busy for read cycles: 1204912
7banks busy for write cycles: 1119100
8banks busy for read cycles: 1049886
8banks busy for write cycles: 4613087

CPU 0 Branch Prediction Accuracy: 99.215% MPKI: 1.19675 Average ROB Occupancy at Mispredict: 22.6149
Branch types
NOT_BRANCH: 169508275 84.7541%
BRANCH_DIRECT_JUMP: 633395 0.316697%
BRANCH_INDIRECT: 8917 0.0044585%
BRANCH_CONDITIONAL: 28498600 14.2493%
BRANCH_DIRECT_CALL: 675281 0.33764%
BRANCH_INDIRECT_CALL: 0 0%
BRANCH_RETURN: 675281 0.33764%
BRANCH_OTHER: 0 0%

DRAM PAGES: 1048576
Allocated PAGES: 9397
