
*** ChampSim Multicore Out-of-Order Simulator ***

Warmup Instructions: 50000000
Simulation Instructions: 200000000
Number of CPUs: 1
LLC sets: 2048
LLC ways: 16
L0D sets: 16
L0D ways: 2
ROB size: 352
LQ size: 128
SQ size: 72
Secure Berti: OFF
Berti: OFF
Berti Fill: OFF
On commit prefetching: OFF
Hit-based filter: ON
Time-guarding: ON
Free-slotting: ON
Leap-frogging: ON
Train prefetcher on L0D bypass: OFF
No translation penalty for prefetchers: OFF
Prefetch to L0D only: OFF
Prefetch to L1D only: OFF
Clean evictions: ON
Commit loads: ON
Commit write: ON
Fill commit loads to L2C, LLC: ON
DRAM IO FREQUENCY: 6400
ROB SIZE: 352
Off-chip DRAM Size: 4096 MB Channels: 1 Width: 64-bit Data Rate: 6400 MT/s
CPU 0 runs /home/sumon/secure_berti/GhostMinion/../../traces/spec/641.leela_s-1083B.champsimtrace.xz
.xz
BTB has LRU replacement policy
ITLB has LRU replacement policy
DTLB has LRU replacement policy
STLB has LRU replacement policy
L1I has LRU replacement policy
L0D has LRU replacement policy
IP Table Entries: 1024
CSPT Entries: 128
RR_ENTRIES: 32
RST_ENTRIES: 8
L1D has LRU replacement policy
L2C has LRU replacement policy
LLC has LRU replacement policy
Heartbeat CPU 0 instructions: 10000000 cycles: 5018869 heartbeat IPC: 1.99248 cumulative IPC: 1.99248 (Simulation time: 0 hr 0 min 38 sec) 
Heartbeat CPU 0 instructions: 20000000 cycles: 10090921 heartbeat IPC: 1.97159 cumulative IPC: 1.98198 (Simulation time: 0 hr 1 min 16 sec) 
Heartbeat CPU 0 instructions: 30000003 cycles: 15217357 heartbeat IPC: 1.95067 cumulative IPC: 1.97143 (Simulation time: 0 hr 1 min 55 sec) 
Heartbeat CPU 0 instructions: 40000003 cycles: 20280658 heartbeat IPC: 1.975 cumulative IPC: 1.97232 (Simulation time: 0 hr 2 min 34 sec) 
Heartbeat CPU 0 instructions: 50000003 cycles: 25340062 heartbeat IPC: 1.97652 cumulative IPC: 1.97316 (Simulation time: 0 hr 3 min 13 sec) 

Warmup complete CPU 0 instructions: 50000003 cycles: 25340062 (Simulation time: 0 hr 3 min 13 sec) 

Heartbeat CPU 0 instructions: 60000002 cycles: 50432173 heartbeat IPC: 0.398532 cumulative IPC: 0.398532 (Simulation time: 0 hr 3 min 51 sec) 
Heartbeat CPU 0 instructions: 70000000 cycles: 75762427 heartbeat IPC: 0.394785 cumulative IPC: 0.396649 (Simulation time: 0 hr 4 min 29 sec) 
Heartbeat CPU 0 instructions: 80000000 cycles: 100772241 heartbeat IPC: 0.399843 cumulative IPC: 0.397708 (Simulation time: 0 hr 5 min 7 sec) 
Heartbeat CPU 0 instructions: 90000003 cycles: 126440806 heartbeat IPC: 0.389582 cumulative IPC: 0.395645 (Simulation time: 0 hr 5 min 46 sec) 
Heartbeat CPU 0 instructions: 100000002 cycles: 151784933 heartbeat IPC: 0.394569 cumulative IPC: 0.395429 (Simulation time: 0 hr 6 min 24 sec) 
Heartbeat CPU 0 instructions: 110000000 cycles: 176680328 heartbeat IPC: 0.401681 cumulative IPC: 0.396458 (Simulation time: 0 hr 7 min 1 sec) 
Heartbeat CPU 0 instructions: 120000000 cycles: 201485566 heartbeat IPC: 0.403141 cumulative IPC: 0.397399 (Simulation time: 0 hr 7 min 39 sec) 
Heartbeat CPU 0 instructions: 130000001 cycles: 226657363 heartbeat IPC: 0.39727 cumulative IPC: 0.397383 (Simulation time: 0 hr 8 min 17 sec) 
Heartbeat CPU 0 instructions: 140000000 cycles: 251889674 heartbeat IPC: 0.396317 cumulative IPC: 0.397264 (Simulation time: 0 hr 8 min 54 sec) 
Heartbeat CPU 0 instructions: 150000000 cycles: 276902217 heartbeat IPC: 0.399799 cumulative IPC: 0.397516 (Simulation time: 0 hr 9 min 32 sec) 
Heartbeat CPU 0 instructions: 160000000 cycles: 301667790 heartbeat IPC: 0.403786 cumulative IPC: 0.398078 (Simulation time: 0 hr 10 min 9 sec) 
Heartbeat CPU 0 instructions: 170000001 cycles: 326561002 heartbeat IPC: 0.401716 cumulative IPC: 0.398379 (Simulation time: 0 hr 10 min 47 sec) 
Heartbeat CPU 0 instructions: 180000000 cycles: 351631079 heartbeat IPC: 0.398882 cumulative IPC: 0.398417 (Simulation time: 0 hr 11 min 25 sec) 
Heartbeat CPU 0 instructions: 190000001 cycles: 376593016 heartbeat IPC: 0.40061 cumulative IPC: 0.398573 (Simulation time: 0 hr 12 min 3 sec) 
Heartbeat CPU 0 instructions: 200000002 cycles: 401671597 heartbeat IPC: 0.398747 cumulative IPC: 0.398585 (Simulation time: 0 hr 12 min 41 sec) 
Heartbeat CPU 0 instructions: 210000003 cycles: 427181932 heartbeat IPC: 0.391998 cumulative IPC: 0.398167 (Simulation time: 0 hr 13 min 20 sec) 
Heartbeat CPU 0 instructions: 220000000 cycles: 452583163 heartbeat IPC: 0.393682 cumulative IPC: 0.3979 (Simulation time: 0 hr 14 min 0 sec) 
Heartbeat CPU 0 instructions: 230000000 cycles: 478048693 heartbeat IPC: 0.392688 cumulative IPC: 0.397607 (Simulation time: 0 hr 14 min 38 sec) 
Heartbeat CPU 0 instructions: 240000000 cycles: 503148539 heartbeat IPC: 0.398409 cumulative IPC: 0.397649 (Simulation time: 0 hr 15 min 15 sec) 
Heartbeat CPU 0 instructions: 250000000 cycles: 560387450 heartbeat IPC: 0.174706 cumulative IPC: 0.373799 (Simulation time: 0 hr 16 min 40 sec) 
Finished CPU 0 instructions: 200000000 cycles: 535047635 cumulative IPC: 0.373798 (Simulation time: 0 hr 16 min 40 sec) 
 Instruction ID: 250000385

ChampSim completed all CPUs

Region of Interest Statistics

CPU 0 cumulative IPC: 0.373798 instructions: 200000000 cycles: 535047635
ITLB SPEC fills:          0  NON-SPEC fills:          0
ITLB Test counter :          0
ITLB Leapfrog:          0
ITLB MSHR merge:          0
ITLB TOTAL     ACCESS:   35715506  HIT:   35715344  MISS:        162  HIT %:    99.9995  MISS %: 0.000453585   MPKI: 0.00081
ITLB LOAD TRANSLATION NON_SPEC    ACCESS:   35715506  HIT:   35715344  MISS:        162  HIT %:    99.9995  MISS %: 0.000453585   MPKI: 0.00081
ITLB PREFETCH  REQUESTED:          0  ISSUED:          0  USEFUL:          0  USELESS:          0
ITLB USEFUL LOAD PREFETCHES:          0 PREFETCH ISSUED TO LOWER LEVEL:          0  ACCURACY: -nan
ITLB TIMELY PREFETCHES:          0 LATE PREFETCHES: 0 DROPPED PREFETCHES: 0
ITLB COMMIT LATE PREFETCHES: 0 MISSED OPPORTUNITY: 0 LATE IN PQ: 0 UNCOVERED: 0
ITLB COMMIT LATE MSHR PREFETCHES: 0
ITLB MPKI TOTAL: 0 MSHR LATE: 0 PQ LATE: 0 COMMIT LATE: 0 MISSED OPPORTUNITY: 0 UNCOVERED: 0
ITLB PREFETCHES SAME FILL-ORIGIN LEVEL: 0 DIFFERENT FILL-ORIGIN LEVEL: 0
ITLB AVERAGE MISS LATENCY: 183.019 cycles
ITLB AVERAGE MISS LATENCY LOAD: -nan cycles
ITLB AVERAGE MISS LATENCY PREFETCH: -nan cycles
ITLB AVERAGE MSHR OCCUPANCY: 1.73594e-06
ITLB MSHR FULL: 0
ITLB RQ	ACCESS:   40339196	FORWARD:          0	MERGED:    4623655	TO_CACHE:   35715541

DTLB SPEC fills:          0  NON-SPEC fills:          0
DTLB Test counter :          0
DTLB Leapfrog:          0
DTLB MSHR merge:          0
DTLB TOTAL     ACCESS:   64755575  HIT:   64651718  MISS:     103857  HIT %:    99.8396  MISS %:   0.160383   MPKI: 0.519285
DTLB LOAD TRANSLATION NON_SPEC    ACCESS:   64755575  HIT:   64651718  MISS:     103857  HIT %:    99.8396  MISS %:   0.160383   MPKI: 0.519285
DTLB PREFETCH  REQUESTED:          0  ISSUED:          0  USEFUL:          0  USELESS:          0
DTLB USEFUL LOAD PREFETCHES:          0 PREFETCH ISSUED TO LOWER LEVEL:          0  ACCURACY: -nan
DTLB TIMELY PREFETCHES:          0 LATE PREFETCHES: 0 DROPPED PREFETCHES: 0
DTLB COMMIT LATE PREFETCHES: 0 MISSED OPPORTUNITY: 0 LATE IN PQ: 0 UNCOVERED: 0
DTLB COMMIT LATE MSHR PREFETCHES: 0
DTLB MPKI TOTAL: 0 MSHR LATE: 0 PQ LATE: 0 COMMIT LATE: 0 MISSED OPPORTUNITY: 0 UNCOVERED: 0
DTLB PREFETCHES SAME FILL-ORIGIN LEVEL: 0 DIFFERENT FILL-ORIGIN LEVEL: 0
DTLB AVERAGE MISS LATENCY: 17.0913 cycles
DTLB AVERAGE MISS LATENCY LOAD: -nan cycles
DTLB AVERAGE MISS LATENCY PREFETCH: -nan cycles
DTLB AVERAGE MSHR OCCUPANCY: 0.00198652
DTLB MSHR FULL: 0
DTLB RQ	ACCESS:   72964500	FORWARD:          0	MERGED:    8185412	TO_CACHE:   64779088

STLB SPEC fills:          0  NON-SPEC fills:          0
STLB Test counter :          0
STLB Leapfrog:          0
STLB MSHR merge:          0
STLB TOTAL     ACCESS:    4175261  HIT:    4169390  MISS:       5871  HIT %:    99.8594  MISS %:   0.140614   MPKI: 0.029355
STLB LOAD TRANSLATION NON_SPEC    ACCESS:     104019  HIT:      98148  MISS:       5871  HIT %:    94.3558  MISS %:    5.64416   MPKI: 0.029355
STLB TRANSLATION FROM L1D PREFETCHER NON_SPEC    ACCESS:    4071242  HIT:    4071242  MISS:          0  HIT %:        100  MISS %:          0   MPKI: 0
STLB PREFETCH  REQUESTED:          0  ISSUED:          0  USEFUL:          0  USELESS:          0
STLB USEFUL LOAD PREFETCHES:          0 PREFETCH ISSUED TO LOWER LEVEL:          0  ACCURACY: -nan
STLB TIMELY PREFETCHES:          0 LATE PREFETCHES: 0 DROPPED PREFETCHES: 0
STLB COMMIT LATE PREFETCHES: 0 MISSED OPPORTUNITY: 0 LATE IN PQ: 0 UNCOVERED: 0
STLB COMMIT LATE MSHR PREFETCHES: 0
STLB MPKI TOTAL: 0 MSHR LATE: 0 PQ LATE: 0 COMMIT LATE: 0 MISSED OPPORTUNITY: 0 UNCOVERED: 0
STLB PREFETCHES SAME FILL-ORIGIN LEVEL: 0 DIFFERENT FILL-ORIGIN LEVEL: 0
STLB AVERAGE MISS LATENCY: 147.856 cycles
STLB AVERAGE MISS LATENCY LOAD: -nan cycles
STLB AVERAGE MISS LATENCY PREFETCH: -nan cycles
STLB AVERAGE MSHR OCCUPANCY: 0.000965449
STLB MSHR FULL: 0
STLB RQ	ACCESS:    5373638	FORWARD:          0	MERGED:    1198377	TO_CACHE:    4175261

STLB Hit, L1D data hit: 0
STLB Hit, L2C data hit: 0
STLB Hit, LLC data hit: 0
STLB Hit, LLC data miss: 0
STLB STLB hints to L2: 0
L0D SPEC fills:   23289274  NON-SPEC fills:          0
L0D TimeGuard Request with older TS:     205936 Restricted eviction:     142416 read:     230762
L0D Test counter :          0
L0D Leapfrog:          0
L0D MSHR merge:     629125
L0D TOTAL     ACCESS:   46655715  HIT:    3339918  MISS:   43315797  HIT %:    7.15865  MISS %:    92.8414   MPKI: 216.579
L0D LOAD      TOTAL       ACCESS:   46655715  HIT:    3339918  MISS:   43315797  HIT %:    7.15865  MISS %:    92.8414   MPKI: 216.579
L0D LOAD      NON_SPEC    ACCESS:   20082639  HIT:     198532  MISS:   19884107  HIT %:   0.988575  MISS %:    99.0114   MPKI: 99.4205
L0D LOAD      SPEC        ACCESS:   26573076  HIT:    3141386  MISS:   23431690  HIT %:    11.8217  MISS %:    88.1783   MPKI: 117.158
L0D PREFETCH  REQUESTED:          0  ISSUED:          0  USEFUL:          0  USELESS:          0
L0D USEFUL LOAD PREFETCHES:          0 PREFETCH ISSUED TO LOWER LEVEL:          0  ACCURACY: -nan
L0D TIMELY PREFETCHES:          0 LATE PREFETCHES: 0 DROPPED PREFETCHES: 0
L0D COMMIT LATE PREFETCHES: 0 MISSED OPPORTUNITY: 0 LATE IN PQ: 0 UNCOVERED: 0
L0D COMMIT LATE MSHR PREFETCHES: 0
L0D MPKI TOTAL: 219.725 MSHR LATE: 0 PQ LATE: 0 COMMIT LATE: 0 MISSED OPPORTUNITY: 0 UNCOVERED: 0
L0D PREFETCHES SAME FILL-ORIGIN LEVEL: 0 DIFFERENT FILL-ORIGIN LEVEL: 0
L0D AVERAGE MISS LATENCY: 5.65176 cycles
L0D AVERAGE MISS LATENCY LOAD: 5.65176 cycles
L0D AVERAGE MISS LATENCY PREFETCH: -nan cycles
L0D AVERAGE MSHR OCCUPANCY: 0.704979
L0D MSHR FULL: 0.020197
L0D RQ	ACCESS:   53939202	FORWARD:          0	MERGED:    6654365	TO_CACHE:   47284837
L0D WQ	ACCESS:   25679663	FORWARD:          0	MERGED:          0	TO_CACHE:   25679663

L1D SPEC fills:          0  NON-SPEC fills:     193614
L1D Test counter :          0
L1D Leapfrog:          0
L1D MSHR merge:      65570
L1D TOTAL     ACCESS:   71871550  HIT:   70112849  MISS:    1758701  HIT %:     97.553  MISS %:    2.44701   MPKI: 8.7935
L1D LOAD      TOTAL       ACCESS:   43315244  HIT:   42933257  MISS:     381987  HIT %:    99.1181  MISS %:   0.881877   MPKI: 1.90993
L1D LOAD      NON_SPEC    ACCESS:   19883897  HIT:   19690283  MISS:     193614  HIT %:    99.0263  MISS %:   0.973723   MPKI: 0.96807
L1D LOAD      SPEC        ACCESS:   23431347  HIT:   23242974  MISS:     188373  HIT %:    99.1961  MISS %:   0.803936   MPKI: 0.941865
L1D RFO       NON_SPEC    ACCESS:   23028000  HIT:   22605649  MISS:     422351  HIT %:    98.1659  MISS %:    1.83408   MPKI: 2.11176
L1D PREFETCH  NON_SPEC    ACCESS:    5175881  HIT:    4408996  MISS:     766885  HIT %:    85.1835  MISS %:    14.8165   MPKI: 3.83442
L1D COMMIT LOAD NON_SPEC    ACCESS:     162961  HIT:     147313  MISS:      15648  HIT %:    90.3977  MISS %:     9.6023   MPKI: 0.07824
L1D COMMIT WRITE NON_SPEC    ACCESS:     189464  HIT:      17634  MISS:     171830  HIT %:    9.30731  MISS %:    90.6927   MPKI: 0.85915
L1D PREFETCH  REQUESTED:    5269627  ISSUED:    5269619  USEFUL:     542175  USELESS:     224865
L1D USEFUL LOAD PREFETCHES:     542175 PREFETCH ISSUED TO LOWER LEVEL:     832926  ACCURACY: 65.0928
L1D TIMELY PREFETCHES:     542175 LATE PREFETCHES: 65292 DROPPED PREFETCHES: 0
L1D COMMIT LATE PREFETCHES: 0 MISSED OPPORTUNITY: 0 LATE IN PQ: 0 UNCOVERED: 0
L1D COMMIT LATE MSHR PREFETCHES: 0
L1D MPKI TOTAL: 1.9127 MSHR LATE: 0.32646 PQ LATE: 0 COMMIT LATE: 0 MISSED OPPORTUNITY: 0 UNCOVERED: 0
L1D PREFETCHES SAME FILL-ORIGIN LEVEL: 832926 DIFFERENT FILL-ORIGIN LEVEL: 0
L1D AVERAGE MISS LATENCY: 106.232 cycles
L1D AVERAGE MISS LATENCY LOAD: 60.9892 cycles
L1D AVERAGE MISS LATENCY PREFETCH: 93.1156 cycles
L1D AVERAGE MSHR OCCUPANCY: 0.400396
L1D MSHR FULL: 0.00946355
L1D RQ	ACCESS:   43686032	FORWARD:          0	MERGED:     202031	TO_CACHE:   43478945
L1D WQ	ACCESS:   25868740	FORWARD:       5056	MERGED:     336133	TO_CACHE:   25532607
L1D PQ	ACCESS:    5269619	FORWARD:          0	MERGED:          0	TO_CACHE:    5269619

L1D UNIQUE REGIONS ACCESSED: 0
L1D REGIONS CONFLICTS: 0
L1D Cross Page Prefetch Requests: 0
L1D Same Page Prefetch Requests: 6409236
L1D ROI Sum of L1D PQ occupancy: 69209807
L1D PREFETCHES PUSHED FROM L2C: 0
L1I SPEC fills:          0  NON-SPEC fills:          0
L1I Test counter :          0
L1I Leapfrog:          0
L1I MSHR merge:       5501
L1I TOTAL     ACCESS:   40333695  HIT:   40318268  MISS:      15427  HIT %:    99.9618  MISS %:  0.0382484   MPKI: 0.077135
L1I LOAD      TOTAL       ACCESS:   40333695  HIT:   40318268  MISS:      15427  HIT %:    99.9618  MISS %:  0.0382484   MPKI: 0.077135
L1I LOAD      NON_SPEC    ACCESS:   40333695  HIT:   40318268  MISS:      15427  HIT %:    99.9618  MISS %:  0.0382484   MPKI: 0.077135
L1I PREFETCH  REQUESTED:          0  ISSUED:          0  USEFUL:          0  USELESS:          0
L1I USEFUL LOAD PREFETCHES:          0 PREFETCH ISSUED TO LOWER LEVEL:          0  ACCURACY: -nan
L1I TIMELY PREFETCHES:          0 LATE PREFETCHES: 0 DROPPED PREFETCHES: 0
L1I COMMIT LATE PREFETCHES: 0 MISSED OPPORTUNITY: 0 LATE IN PQ: 0 UNCOVERED: 0
L1I COMMIT LATE MSHR PREFETCHES: 0
L1I MPKI TOTAL: 0.10464 MSHR LATE: 0 PQ LATE: 0 COMMIT LATE: 0 MISSED OPPORTUNITY: 0 UNCOVERED: 0
L1I PREFETCHES SAME FILL-ORIGIN LEVEL: 0 DIFFERENT FILL-ORIGIN LEVEL: 0
L1I AVERAGE MISS LATENCY: 46.5264 cycles
L1I AVERAGE MISS LATENCY LOAD: 46.5264 cycles
L1I AVERAGE MISS LATENCY PREFETCH: -nan cycles
L1I AVERAGE MSHR OCCUPANCY: 0.00057899
L1I MSHR FULL: 0
L1I RQ	ACCESS:   57043473	FORWARD:          0	MERGED:   16704277	TO_CACHE:   40339196

BTB SPEC fills:          0  NON-SPEC fills:          0
BTB Test counter :          0
BTB Leapfrog:          0
BTB MSHR merge:          0
BTB TOTAL     ACCESS:   31329121  HIT:   29031204  MISS:    2297917  HIT %:    92.6652  MISS %:    7.33476   MPKI: 11.4896
BTB BRANCH_DIRECT_JUMP	ACCESS:    1094608  HIT:    1094408  MISS:        200
BTB BRANCH_INDIRECT	ACCESS:       6209  HIT:       4182  MISS:       2027
BTB BRANCH_CONDITIONAL	ACCESS:   18688882  HIT:   18687006  MISS:       1876
BTB BRANCH_DIRECT_CALL	ACCESS:    5769438  HIT:    5768610  MISS:        828
BTB BRANCH_INDIRECT_CALL	ACCESS:        272  HIT:        218  MISS:         54
BTB BRANCH_RETURN	ACCESS:    5769712  HIT:    3476780  MISS:    2292932
BTB BRANCH_OTHER ACCESS:          0  HIT:          0  MISS:          0

L2C SPEC fills:          0  NON-SPEC fills:      10617
L2C Test counter :          0
L2C Leapfrog:          0
L2C MSHR merge:          0
L2C TOTAL     ACCESS:    2200844  HIT:    1385594  MISS:     815250  HIT %:    62.9574  MISS %:    37.0426   MPKI: 4.07625
L2C LOAD      TOTAL       ACCESS:     332392  HIT:     281659  MISS:      50733  HIT %:     84.737  MISS %:     15.263   MPKI: 0.253665
L2C LOAD      NON_SPEC    ACCESS:     189719  HIT:     176500  MISS:      13219  HIT %:    93.0323  MISS %:    6.96767   MPKI: 0.066095
L2C LOAD      SPEC        ACCESS:     142673  HIT:     105159  MISS:      37514  HIT %:    73.7063  MISS %:    26.2937   MPKI: 0.18757
L2C RFO       NON_SPEC    ACCESS:     421598  HIT:      62724  MISS:     358874  HIT %:    14.8777  MISS %:    85.1223   MPKI: 1.79437
L2C PREFETCH  NON_SPEC    ACCESS:     832920  HIT:     464288  MISS:     368632  HIT %:    55.7422  MISS %:    44.2578   MPKI: 1.84316
L2C WRITEBACK NON_SPEC    ACCESS:     470155  HIT:     470049  MISS:        106  HIT %:    99.9775  MISS %:  0.0225458   MPKI: 0.00053
L2C CLEAN_EVICTION NON_SPEC    ACCESS:      99052  HIT:      68615  MISS:      30437  HIT %:    69.2717  MISS %:    30.7283   MPKI: 0.152185
L2C COMMIT LOAD NON_SPEC    ACCESS:      15374  HIT:      10578  MISS:       4796  HIT %:    68.8045  MISS %:    31.1955   MPKI: 0.02398
L2C LOAD TRANSLATION NON_SPEC    ACCESS:      29353  HIT:      27681  MISS:       1672  HIT %:    94.3038  MISS %:    5.69618   MPKI: 0.00836
L2C PREFETCH  REQUESTED:          0  ISSUED:          0  USEFUL:      11100  USELESS:     357688
L2C USEFUL LOAD PREFETCHES:      11100 PREFETCH ISSUED TO LOWER LEVEL:     368632  ACCURACY: 3.01113
L2C TIMELY PREFETCHES:      11100 LATE PREFETCHES: 0 DROPPED PREFETCHES: 0
L2C COMMIT LATE PREFETCHES: 0 MISSED OPPORTUNITY: 0 LATE IN PQ: 0 UNCOVERED: 0
L2C COMMIT LATE MSHR PREFETCHES: 0
L2C MPKI TOTAL: 0.253665 MSHR LATE: 0 PQ LATE: 0 COMMIT LATE: 0 MISSED OPPORTUNITY: 0 UNCOVERED: 0
L2C PREFETCHES SAME FILL-ORIGIN LEVEL: 0 DIFFERENT FILL-ORIGIN LEVEL: 0
L2C AVERAGE MISS LATENCY: 210.103 cycles
L2C AVERAGE MISS LATENCY LOAD: 179.354 cycles
L2C AVERAGE MISS LATENCY PREFETCH: 206.988 cycles
L2C AVERAGE MSHR OCCUPANCY: 2.07083
L2C MSHR FULL: 0
L2C RQ	ACCESS:     798725	FORWARD:          0	MERGED:          0	TO_CACHE:     798717
L2C WQ	ACCESS:     569207	FORWARD:         14	MERGED:          0	TO_CACHE:     569207
L2C PQ	ACCESS:     832926	FORWARD:          0	MERGED:          0	TO_CACHE:     832920

L2C Instructions Evicting Data 2573
L2C Translations Evicting Data 1650
L2C Data Evicting Data 737640
L2C Instructions Evicting Instructions 22
L2C Translations Evicting Instructions 7
L2C Data Evicting Instructions 2719
L2C Instructions Evicting Translations 7
L2C Translations Evicting Translations 2
L2C Data Evicting Translations 1714
L2C Dense regions hint from L2: 0
PSCL5 SPEC fills:          0  NON-SPEC fills:          0
PSCL5 Test counter :          0
PSCL5 Leapfrog:          0
PSCL5 MSHR merge:          0
PSCL5 TOTAL     ACCESS:          0  HIT:          0  MISS:          0  HIT %:       -nan  MISS %:       -nan   MPKI: 0
PSCL5 PREFETCH  REQUESTED:          0  ISSUED:          0  USEFUL:          0  USELESS:          0
PSCL5 USEFUL LOAD PREFETCHES:          0 PREFETCH ISSUED TO LOWER LEVEL:          0  ACCURACY: -nan
PSCL5 TIMELY PREFETCHES:          0 LATE PREFETCHES: 0 DROPPED PREFETCHES: 0
PSCL5 COMMIT LATE PREFETCHES: 0 MISSED OPPORTUNITY: 0 LATE IN PQ: 0 UNCOVERED: 0
PSCL5 COMMIT LATE MSHR PREFETCHES: 0
PSCL5 MPKI TOTAL: 0 MSHR LATE: 0 PQ LATE: 0 COMMIT LATE: 0 MISSED OPPORTUNITY: 0 UNCOVERED: 0
PSCL5 PREFETCHES SAME FILL-ORIGIN LEVEL: 0 DIFFERENT FILL-ORIGIN LEVEL: 0

PSCL4 SPEC fills:          0  NON-SPEC fills:          0
PSCL4 Test counter :          0
PSCL4 Leapfrog:          0
PSCL4 MSHR merge:          0
PSCL4 TOTAL     ACCESS:          0  HIT:          0  MISS:          0  HIT %:       -nan  MISS %:       -nan   MPKI: 0
PSCL4 PREFETCH  REQUESTED:          0  ISSUED:          0  USEFUL:          0  USELESS:          0
PSCL4 USEFUL LOAD PREFETCHES:          0 PREFETCH ISSUED TO LOWER LEVEL:          0  ACCURACY: -nan
PSCL4 TIMELY PREFETCHES:          0 LATE PREFETCHES: 0 DROPPED PREFETCHES: 0
PSCL4 COMMIT LATE PREFETCHES: 0 MISSED OPPORTUNITY: 0 LATE IN PQ: 0 UNCOVERED: 0
PSCL4 COMMIT LATE MSHR PREFETCHES: 0
PSCL4 MPKI TOTAL: 0 MSHR LATE: 0 PQ LATE: 0 COMMIT LATE: 0 MISSED OPPORTUNITY: 0 UNCOVERED: 0
PSCL4 PREFETCHES SAME FILL-ORIGIN LEVEL: 0 DIFFERENT FILL-ORIGIN LEVEL: 0

PSCL3 SPEC fills:          0  NON-SPEC fills:          0
PSCL3 Test counter :          0
PSCL3 Leapfrog:          0
PSCL3 MSHR merge:          0
PSCL3 TOTAL     ACCESS:          0  HIT:          0  MISS:          0  HIT %:       -nan  MISS %:       -nan   MPKI: 0
PSCL3 PREFETCH  REQUESTED:          0  ISSUED:          0  USEFUL:          0  USELESS:          0
PSCL3 USEFUL LOAD PREFETCHES:          0 PREFETCH ISSUED TO LOWER LEVEL:          0  ACCURACY: -nan
PSCL3 TIMELY PREFETCHES:          0 LATE PREFETCHES: 0 DROPPED PREFETCHES: 0
PSCL3 COMMIT LATE PREFETCHES: 0 MISSED OPPORTUNITY: 0 LATE IN PQ: 0 UNCOVERED: 0
PSCL3 COMMIT LATE MSHR PREFETCHES: 0
PSCL3 MPKI TOTAL: 0 MSHR LATE: 0 PQ LATE: 0 COMMIT LATE: 0 MISSED OPPORTUNITY: 0 UNCOVERED: 0
PSCL3 PREFETCHES SAME FILL-ORIGIN LEVEL: 0 DIFFERENT FILL-ORIGIN LEVEL: 0

PSCL2 SPEC fills:          0  NON-SPEC fills:          0
PSCL2 Test counter :          0
PSCL2 Leapfrog:          0
PSCL2 MSHR merge:          0
PSCL2 TOTAL     ACCESS:          0  HIT:          0  MISS:          0  HIT %:       -nan  MISS %:       -nan   MPKI: 0
PSCL2 PREFETCH  REQUESTED:          0  ISSUED:          0  USEFUL:          0  USELESS:          0
PSCL2 USEFUL LOAD PREFETCHES:          0 PREFETCH ISSUED TO LOWER LEVEL:          0  ACCURACY: -nan
PSCL2 TIMELY PREFETCHES:          0 LATE PREFETCHES: 0 DROPPED PREFETCHES: 0
PSCL2 COMMIT LATE PREFETCHES: 0 MISSED OPPORTUNITY: 0 LATE IN PQ: 0 UNCOVERED: 0
PSCL2 COMMIT LATE MSHR PREFETCHES: 0
PSCL2 MPKI TOTAL: 0 MSHR LATE: 0 PQ LATE: 0 COMMIT LATE: 0 MISSED OPPORTUNITY: 0 UNCOVERED: 0
PSCL2 PREFETCHES SAME FILL-ORIGIN LEVEL: 0 DIFFERENT FILL-ORIGIN LEVEL: 0

LLC SPEC fills:          0  NON-SPEC fills:       7685
LLC Test counter :          0
LLC Leapfrog:          0
LLC MSHR merge:          0
LLC TOTAL     ACCESS:    1221363  HIT:     434095  MISS:     787268  HIT %:    35.5418  MISS %:    64.4582   MPKI: 3.93634
LLC LOAD      TOTAL       ACCESS:      50733  HIT:       6980  MISS:      43753  HIT %:    13.7583  MISS %:    86.2417   MPKI: 0.218765
LLC LOAD      NON_SPEC    ACCESS:      13219  HIT:       2998  MISS:      10221  HIT %:    22.6795  MISS %:    77.3205   MPKI: 0.051105
LLC LOAD      SPEC        ACCESS:      37514  HIT:       3982  MISS:      33532  HIT %:    10.6147  MISS %:    89.3853   MPKI: 0.16766
LLC RFO       NON_SPEC    ACCESS:     358874  HIT:       5391  MISS:     353483  HIT %:     1.5022  MISS %:    98.4978   MPKI: 1.76741
LLC PREFETCH  NON_SPEC    ACCESS:     368632  HIT:      12695  MISS:     355937  HIT %:    3.44381  MISS %:    96.5562   MPKI: 1.77968
LLC WRITEBACK NON_SPEC    ACCESS:     366541  HIT:     366453  MISS:         88  HIT %:     99.976  MISS %:  0.0240082   MPKI: 0.00044
LLC CLEAN_EVICTION NON_SPEC    ACCESS:      70115  HIT:      42255  MISS:      27860  HIT %:    60.2653  MISS %:    39.7347   MPKI: 0.1393
LLC COMMIT LOAD NON_SPEC    ACCESS:       4796  HIT:         71  MISS:       4725  HIT %:     1.4804  MISS %:    98.5196   MPKI: 0.023625
LLC LOAD TRANSLATION NON_SPEC    ACCESS:       1672  HIT:        250  MISS:       1422  HIT %:    14.9522  MISS %:    85.0478   MPKI: 0.00711
LLC PREFETCH  REQUESTED:          0  ISSUED:          0  USEFUL:       4623  USELESS:     341604
LLC USEFUL LOAD PREFETCHES:       4623 PREFETCH ISSUED TO LOWER LEVEL:     355937  ACCURACY: 1.29883
LLC TIMELY PREFETCHES:       4623 LATE PREFETCHES: 0 DROPPED PREFETCHES: 0
LLC COMMIT LATE PREFETCHES: 0 MISSED OPPORTUNITY: 0 LATE IN PQ: 0 UNCOVERED: 0
LLC COMMIT LATE MSHR PREFETCHES: 0
LLC MPKI TOTAL: 0.218765 MSHR LATE: 0 PQ LATE: 0 COMMIT LATE: 0 MISSED OPPORTUNITY: 0 UNCOVERED: 0
LLC PREFETCHES SAME FILL-ORIGIN LEVEL: 0 DIFFERENT FILL-ORIGIN LEVEL: 0
LLC AVERAGE MISS LATENCY: 188.005 cycles
LLC AVERAGE MISS LATENCY LOAD: 180.832 cycles
LLC AVERAGE MISS LATENCY PREFETCH: 183.232 cycles
LLC AVERAGE MSHR OCCUPANCY: 3.09272
LLC MSHR FULL: 0
LLC RQ	ACCESS:     416075	FORWARD:          0	MERGED:          0	TO_CACHE:     416075
LLC WQ	ACCESS:     436657	FORWARD:          0	MERGED:          0	TO_CACHE:     436657
LLC PQ	ACCESS:     368632	FORWARD:          0	MERGED:          0	TO_CACHE:     368632

LLC Dense regions hint to LLC: 0

RAW hits: 1491113
Loads Generated: 55430316
Loads sent to L1D: 53939202
Stores Generated: 25679661
Stores sent to L1D: 25679663
Major fault: 0 Minor fault: 2275
Allocated PAGES: 2275
Total Load insts: 65741740
Total Non-spec loads: 22231098
Percentage of speculative loads: 66.1842

LeapFrogging counter: 302855
Commit hits: 23156131 miss: 10670959
Commit hit %: 68.4544 miss %: 31.5456
Commits not translated: 0
Loads retired: 381987
Stores retired: 25679663
Cache fills: 381987
L1D response latency: 60.9892 cycles
Load retirement latency: 106.457 cycles
OOO test counter: 0
Discarded buffer inserts: 23156131 hits: 28202 hit %: 0.121791
Filter prediction accuracy: 99.9787

stream: 
stream:times selected: 15996708
stream:pref_filled: 314322
stream:pref_useful: 133647
stream:pref_late: 619
stream:misses: 43174
stream:misses_by_poll: 0

CS: 
CS:times selected: 955187
CS:pref_filled: 491479
CS:pref_useful: 453328
CS:pref_late: 18448
CS:misses: 83738
CS:misses_by_poll: 7105

CPLX: 
CPLX:times selected: 15033473
CPLX:pref_filled: 69195
CPLX:pref_useful: 21738
CPLX:pref_late: 188
CPLX:misses: 268029
CPLX:misses_by_poll: 3491

NL_L1: 
NL:times selected: 142831
NL:pref_filled: 5477
NL:pref_useful: 761
NL:pref_late: 0
NL:misses: 5196
NL:misses_by_poll: 294

total selections: 32128199
total_filled: 766885
total_useful: 542175
total_late: 19611
total_polluted: 10890
total_misses_after_warmup: 382539
conflicts: 909550
Degree Incremented Times: 18836
Degree Decremented Times: 283500

L1 IP Table Write Accesses: 41149087
L1 IP Table Read Accesses: 40239537
L1 RST Write Accesses: 13451558
L1 RST Read Accesses: 26903116
L1 CSPT Write Accesses: 13451558
L1 CSPT Read Accesses: 26025980
L1 RR Filter Tag Write Accesses: 5269627
L1 RR Filter Tag Read Accesses: 462323101
L1 IP Table Tag Write Accesses: 43315796
L1 IP Table Tag Read Accesses: 43315796
L1 RST Tag Write Accesses: 0
L1 RST Tag Read Accesses: 143135087
L1 RR Filter Write Accesses: 0
L1 RR Filter Read Accesses: 19001801
test: 1669723

DRAM Statistics
 CHANNEL 0
 RQ ROW_BUFFER_HIT:     176998  ROW_BUFFER_MISS:     582315
 DBUS_CONGESTED:         47
 WQ ROW_BUFFER_HIT:      94288  ROW_BUFFER_MISS:     321508  FULL:          0

 AVG_CONGESTED_CYCLE: 5
 All warmup complete: 2
Channel 0 Bank busy for read cycles: 0
Channel 0 Bank busy for write cycles: 0
Channel 0
Rank 0
0banks busy for read cycles: 489562001
0banks busy for write cycles: 2841
1banks busy for read cycles: 5789581
1banks busy for write cycles: 414504
2banks busy for read cycles: 11967220
2banks busy for write cycles: 262011
3banks busy for read cycles: 10127855
3banks busy for write cycles: 208117
4banks busy for read cycles: 2396933
4banks busy for write cycles: 198389
5banks busy for read cycles: 1353636
5banks busy for write cycles: 196845
6banks busy for read cycles: 698975
6banks busy for write cycles: 226351
7banks busy for read cycles: 1239325
7banks busy for write cycles: 675446
8banks busy for read cycles: 1239384
8banks busy for write cycles: 8488222

CPU 0 Branch Prediction Accuracy: 93.3169% MPKI: 11.1129 Average ROB Occupancy at Mispredict: 21.8572
Branch types
NOT_BRANCH: 166743420 83.3717%
BRANCH_DIRECT_JUMP: 1094608 0.547304%
BRANCH_INDIRECT: 6209 0.0031045%
BRANCH_CONDITIONAL: 20616346 10.3082%
BRANCH_DIRECT_CALL: 5769438 2.88472%
BRANCH_INDIRECT_CALL: 272 0.000136%
BRANCH_RETURN: 5769712 2.88486%
BRANCH_OTHER: 0 0%

DRAM PAGES: 1048576
Allocated PAGES: 2275
