
*** ChampSim Multicore Out-of-Order Simulator ***

Warmup Instructions: 50000000
Simulation Instructions: 200000000
Number of CPUs: 1
LLC sets: 2048
LLC ways: 16
L0D sets: 16
L0D ways: 2
ROB size: 352
LQ size: 128
SQ size: 72
Secure Berti: ON
Berti: ON
Berti Fill: ON
On commit prefetching: OFF
Hit-based filter: ON
Time-guarding: ON
Free-slotting: ON
Leap-frogging: ON
Train prefetcher on L0D bypass: OFF
No translation penalty for prefetchers: OFF
Prefetch to L0D only: OFF
Prefetch to L1D only: OFF
Clean evictions: ON
Commit loads: ON
Commit write: ON
Fill commit loads to L2C, LLC: ON
DRAM IO FREQUENCY: 6400
ROB SIZE: 352
Off-chip DRAM Size: 4096 MB Channels: 1 Width: 64-bit Data Rate: 6400 MT/s
CPU 0 runs /home/sumon/secure_berti/GhostMinion/../../traces/spec/600.perlbench_s-570B.champsimtrace.xz
.xz
BTB has LRU replacement policy
ITLB has LRU replacement policy
DTLB has LRU replacement policy
STLB has LRU replacement policy
L1I has LRU replacement policy
L0D has LRU replacement policy
Berti version on_commit
History Sets: 8
History Ways: 16
BERTI Size: 16
BERTI Stride Size: 16
L1D has LRU replacement policy
L2C has LRU replacement policy
LLC has LRU replacement policy
Heartbeat CPU 0 instructions: 10000003 cycles: 3770979 heartbeat IPC: 2.65183 cumulative IPC: 2.65183 (Simulation time: 0 hr 1 min 4 sec) 
Heartbeat CPU 0 instructions: 20000000 cycles: 7477800 heartbeat IPC: 2.69773 cumulative IPC: 2.67458 (Simulation time: 0 hr 1 min 53 sec) 
Heartbeat CPU 0 instructions: 30000000 cycles: 11409709 heartbeat IPC: 2.54329 cumulative IPC: 2.62934 (Simulation time: 0 hr 3 min 0 sec) 
Heartbeat CPU 0 instructions: 40000002 cycles: 15306891 heartbeat IPC: 2.56596 cumulative IPC: 2.6132 (Simulation time: 0 hr 4 min 4 sec) 
Heartbeat CPU 0 instructions: 50000002 cycles: 18986018 heartbeat IPC: 2.71804 cumulative IPC: 2.63352 (Simulation time: 0 hr 4 min 58 sec) 

Warmup complete CPU 0 instructions: 50000002 cycles: 18986018 (Simulation time: 0 hr 4 min 58 sec) 

Heartbeat CPU 0 instructions: 60000000 cycles: 31949792 heartbeat IPC: 0.77138 cumulative IPC: 0.77138 (Simulation time: 0 hr 5 min 53 sec) 
Heartbeat CPU 0 instructions: 70000000 cycles: 52348851 heartbeat IPC: 0.490219 cumulative IPC: 0.599469 (Simulation time: 0 hr 6 min 39 sec) 
Heartbeat CPU 0 instructions: 80000002 cycles: 73624139 heartbeat IPC: 0.470029 cumulative IPC: 0.549067 (Simulation time: 0 hr 7 min 27 sec) 
Heartbeat CPU 0 instructions: 90000003 cycles: 99109255 heartbeat IPC: 0.392386 cumulative IPC: 0.499231 (Simulation time: 0 hr 8 min 17 sec) 
Heartbeat CPU 0 instructions: 100000002 cycles: 113170839 heartbeat IPC: 0.711157 cumulative IPC: 0.530871 (Simulation time: 0 hr 9 min 0 sec) 
Heartbeat CPU 0 instructions: 110000000 cycles: 127118484 heartbeat IPC: 0.716967 cumulative IPC: 0.554875 (Simulation time: 0 hr 9 min 42 sec) 
Heartbeat CPU 0 instructions: 120000003 cycles: 141802777 heartbeat IPC: 0.681 cumulative IPC: 0.569955 (Simulation time: 0 hr 10 min 26 sec) 
Heartbeat CPU 0 instructions: 130000000 cycles: 156335496 heartbeat IPC: 0.688102 cumulative IPC: 0.582456 (Simulation time: 0 hr 11 min 9 sec) 
Heartbeat CPU 0 instructions: 140000003 cycles: 182164827 heartbeat IPC: 0.387157 cumulative IPC: 0.551542 (Simulation time: 0 hr 11 min 56 sec) 
Heartbeat CPU 0 instructions: 150000001 cycles: 205998687 heartbeat IPC: 0.419571 cumulative IPC: 0.534723 (Simulation time: 0 hr 12 min 42 sec) 
Heartbeat CPU 0 instructions: 160000001 cycles: 226221538 heartbeat IPC: 0.49449 cumulative IPC: 0.530797 (Simulation time: 0 hr 13 min 25 sec) 
Heartbeat CPU 0 instructions: 170000001 cycles: 241666498 heartbeat IPC: 0.64746 cumulative IPC: 0.538889 (Simulation time: 0 hr 14 min 5 sec) 
Heartbeat CPU 0 instructions: 180000000 cycles: 260824164 heartbeat IPC: 0.521984 cumulative IPC: 0.53755 (Simulation time: 0 hr 14 min 47 sec) 
Heartbeat CPU 0 instructions: 190000001 cycles: 286507889 heartbeat IPC: 0.389352 cumulative IPC: 0.523322 (Simulation time: 0 hr 15 min 34 sec) 
Heartbeat CPU 0 instructions: 200000001 cycles: 310791631 heartbeat IPC: 0.411798 cumulative IPC: 0.514041 (Simulation time: 0 hr 16 min 22 sec) 
Heartbeat CPU 0 instructions: 210000000 cycles: 329873283 heartbeat IPC: 0.524064 cumulative IPC: 0.514656 (Simulation time: 0 hr 17 min 5 sec) 
Heartbeat CPU 0 instructions: 220000000 cycles: 344571283 heartbeat IPC: 0.680365 cumulative IPC: 0.522137 (Simulation time: 0 hr 17 min 44 sec) 
Heartbeat CPU 0 instructions: 230000000 cycles: 358137752 heartbeat IPC: 0.737111 cumulative IPC: 0.530736 (Simulation time: 0 hr 18 min 23 sec) 
Heartbeat CPU 0 instructions: 240000002 cycles: 372560451 heartbeat IPC: 0.693352 cumulative IPC: 0.537369 (Simulation time: 0 hr 19 min 1 sec) 
Heartbeat CPU 0 instructions: 250000003 cycles: 387512497 heartbeat IPC: 0.668805 cumulative IPC: 0.542702 (Simulation time: 0 hr 19 min 40 sec) 
Finished CPU 0 instructions: 200000001 cycles: 368526479 cumulative IPC: 0.542702 (Simulation time: 0 hr 19 min 40 sec) 
 Instruction ID: 250000017

ChampSim completed all CPUs

Region of Interest Statistics

CPU 0 cumulative IPC: 0.542702 instructions: 200000001 cycles: 368526479
ITLB SPEC fills:          0  NON-SPEC fills:          0
ITLB Test counter :          0
ITLB Leapfrog:          0
ITLB MSHR merge:          0
ITLB TOTAL     ACCESS:   31176566  HIT:   31117695  MISS:      58871  HIT %:    99.8112  MISS %:   0.188831   MPKI: 0.294355
ITLB LOAD TRANSLATION NON_SPEC    ACCESS:   31176566  HIT:   31117695  MISS:      58871  HIT %:    99.8112  MISS %:   0.188831   MPKI: 0.294355
ITLB PREFETCH  REQUESTED:          0  ISSUED:          0  USEFUL:          0  USELESS:          0
ITLB USEFUL LOAD PREFETCHES:          0 PREFETCH ISSUED TO LOWER LEVEL:          0  ACCURACY: -nan
ITLB TIMELY PREFETCHES:          0 LATE PREFETCHES: 0 DROPPED PREFETCHES: 0
ITLB COMMIT LATE PREFETCHES: 0 MISSED OPPORTUNITY: 0 LATE IN PQ: 0 UNCOVERED: 0
ITLB COMMIT LATE MSHR PREFETCHES: 0
ITLB MPKI TOTAL: 0 MSHR LATE: 0 PQ LATE: 0 COMMIT LATE: 0 MISSED OPPORTUNITY: 0 UNCOVERED: 0
ITLB PREFETCHES SAME FILL-ORIGIN LEVEL: 0 DIFFERENT FILL-ORIGIN LEVEL: 0
ITLB AVERAGE MISS LATENCY: 10.7696 cycles
ITLB AVERAGE MISS LATENCY LOAD: -nan cycles
ITLB AVERAGE MISS LATENCY PREFETCH: -nan cycles
ITLB AVERAGE MSHR OCCUPANCY: 0.00104048
ITLB MSHR FULL: 0
ITLB RQ	ACCESS:   35142944	FORWARD:          0	MERGED:    3944816	TO_CACHE:   31198128

DTLB SPEC fills:          0  NON-SPEC fills:          0
DTLB Test counter :          0
DTLB Leapfrog:          0
DTLB MSHR merge:          0
DTLB TOTAL     ACCESS:   57155262  HIT:   56617417  MISS:     537845  HIT %:     99.059  MISS %:   0.941024   MPKI: 2.68922
DTLB LOAD TRANSLATION NON_SPEC    ACCESS:   57155262  HIT:   56617417  MISS:     537845  HIT %:     99.059  MISS %:   0.941024   MPKI: 2.68922
DTLB PREFETCH  REQUESTED:          0  ISSUED:          0  USEFUL:          0  USELESS:          0
DTLB USEFUL LOAD PREFETCHES:          0 PREFETCH ISSUED TO LOWER LEVEL:          0  ACCURACY: -nan
DTLB TIMELY PREFETCHES:          0 LATE PREFETCHES: 0 DROPPED PREFETCHES: 0
DTLB COMMIT LATE PREFETCHES: 0 MISSED OPPORTUNITY: 0 LATE IN PQ: 0 UNCOVERED: 0
DTLB COMMIT LATE MSHR PREFETCHES: 0
DTLB MPKI TOTAL: 0 MSHR LATE: 0 PQ LATE: 0 COMMIT LATE: 0 MISSED OPPORTUNITY: 0 UNCOVERED: 0
DTLB PREFETCHES SAME FILL-ORIGIN LEVEL: 0 DIFFERENT FILL-ORIGIN LEVEL: 0
DTLB AVERAGE MISS LATENCY: 14.781 cycles
DTLB AVERAGE MISS LATENCY LOAD: -nan cycles
DTLB AVERAGE MISS LATENCY PREFETCH: -nan cycles
DTLB AVERAGE MSHR OCCUPANCY: 0.01336
DTLB MSHR FULL: 1.41675e-06
DTLB RQ	ACCESS:   79014235	FORWARD:          0	MERGED:   21841364	TO_CACHE:   57172871

STLB SPEC fills:          0  NON-SPEC fills:          0
STLB Test counter :          0
STLB Leapfrog:          0
STLB MSHR merge:          0
STLB TOTAL     ACCESS:     897679  HIT:     873856  MISS:      23823  HIT %:    97.3462  MISS %:    2.65384   MPKI: 0.119115
STLB LOAD TRANSLATION NON_SPEC    ACCESS:     596716  HIT:     573262  MISS:      23454  HIT %:    96.0695  MISS %:    3.93051   MPKI: 0.11727
STLB TRANSLATION FROM L1D PREFETCHER NON_SPEC    ACCESS:     300963  HIT:     300594  MISS:        369  HIT %:    99.8774  MISS %:   0.122606   MPKI: 0.001845
STLB PREFETCH  REQUESTED:          0  ISSUED:          0  USEFUL:        324  USELESS:         43
STLB USEFUL LOAD PREFETCHES:        324 PREFETCH ISSUED TO LOWER LEVEL:          0  ACCURACY: inf
STLB TIMELY PREFETCHES:        324 LATE PREFETCHES: 7 DROPPED PREFETCHES: 4038
STLB COMMIT LATE PREFETCHES: 0 MISSED OPPORTUNITY: 0 LATE IN PQ: 0 UNCOVERED: 0
STLB COMMIT LATE MSHR PREFETCHES: 0
STLB MPKI TOTAL: 0 MSHR LATE: 3.5e-05 PQ LATE: 0 COMMIT LATE: 0 MISSED OPPORTUNITY: 0 UNCOVERED: 0
STLB PREFETCHES SAME FILL-ORIGIN LEVEL: 0 DIFFERENT FILL-ORIGIN LEVEL: 0
STLB AVERAGE MISS LATENCY: 135.619 cycles
STLB AVERAGE MISS LATENCY LOAD: -nan cycles
STLB AVERAGE MISS LATENCY PREFETCH: -nan cycles
STLB AVERAGE MSHR OCCUPANCY: 0.0077312
STLB MSHR FULL: 0
STLB RQ	ACCESS:    1237943	FORWARD:          0	MERGED:     336143	TO_CACHE:     901800

STLB Hit, L1D data hit: 0
STLB Hit, L2C data hit: 0
STLB Hit, LLC data hit: 0
STLB Hit, LLC data miss: 0
STLB STLB hints to L2: 0
L0D SPEC fills:   22334858  NON-SPEC fills:          0
L0D TimeGuard Request with older TS:      58853 Restricted eviction:      53537 read:      38676
L0D Test counter :          0
L0D Leapfrog:          0
L0D MSHR merge:     632479
L0D TOTAL     ACCESS:   38641123  HIT:    3377375  MISS:   35263748  HIT %:    8.74036  MISS %:    91.2596   MPKI: 176.319
L0D LOAD      TOTAL       ACCESS:   38641123  HIT:    3377375  MISS:   35263748  HIT %:    8.74036  MISS %:    91.2596   MPKI: 176.319
L0D LOAD      NON_SPEC    ACCESS:   13023163  HIT:     147800  MISS:   12875363  HIT %:     1.1349  MISS %:    98.8651   MPKI: 64.3768
L0D LOAD      SPEC        ACCESS:   25617960  HIT:    3229575  MISS:   22388385  HIT %:    12.6067  MISS %:    87.3933   MPKI: 111.942
L0D PREFETCH  REQUESTED:          0  ISSUED:          0  USEFUL:          0  USELESS:          0
L0D USEFUL LOAD PREFETCHES:          0 PREFETCH ISSUED TO LOWER LEVEL:          0  ACCURACY: -nan
L0D TIMELY PREFETCHES:          0 LATE PREFETCHES: 0 DROPPED PREFETCHES: 0
L0D COMMIT LATE PREFETCHES: 0 MISSED OPPORTUNITY: 0 LATE IN PQ: 0 UNCOVERED: 0
L0D COMMIT LATE MSHR PREFETCHES: 0
L0D MPKI TOTAL: 179.481 MSHR LATE: 0 PQ LATE: 0 COMMIT LATE: 0 MISSED OPPORTUNITY: 0 UNCOVERED: 0
L0D PREFETCHES SAME FILL-ORIGIN LEVEL: 0 DIFFERENT FILL-ORIGIN LEVEL: 0
L0D AVERAGE MISS LATENCY: 6.23383 cycles
L0D AVERAGE MISS LATENCY LOAD: 6.23383 cycles
L0D AVERAGE MISS LATENCY PREFETCH: -nan cycles
L0D AVERAGE MSHR OCCUPANCY: 0.585442
L0D MSHR FULL: 5.83086e-06
L0D RQ	ACCESS:   46797779	FORWARD:          0	MERGED:    7524182	TO_CACHE:   39273597
L0D WQ	ACCESS:   39740638	FORWARD:          0	MERGED:          0	TO_CACHE:   39740638

L1D SPEC fills:          0  NON-SPEC fills:     228405
L1D Test counter :     170308
L1D Leapfrog:          0
L1D MSHR merge:       2951
L1D TOTAL     ACCESS:   75412640  HIT:   74492865  MISS:     919775  HIT %:    98.7803  MISS %:    1.21966   MPKI: 4.59887
L1D LOAD      TOTAL       ACCESS:   35260877  HIT:   34713627  MISS:     547250  HIT %:     98.448  MISS %:      1.552   MPKI: 2.73625
L1D LOAD      NON_SPEC    ACCESS:   12873475  HIT:   12645070  MISS:     228405  HIT %:    98.2258  MISS %:    1.77423   MPKI: 1.14202
L1D LOAD      SPEC        ACCESS:   22387402  HIT:   22068557  MISS:     318845  HIT %:    98.5758  MISS %:    1.42422   MPKI: 1.59422
L1D RFO       NON_SPEC    ACCESS:   39251369  HIT:   39203438  MISS:      47931  HIT %:    99.8779  MISS %:   0.122113   MPKI: 0.239655
L1D PREFETCH  NON_SPEC    ACCESS:     349882  HIT:     341716  MISS:       8166  HIT %:    97.6661  MISS %:    2.33393   MPKI: 0.04083
L1D COMMIT LOAD NON_SPEC    ACCESS:     222138  HIT:     220635  MISS:       1503  HIT %:    99.3234  MISS %:   0.676606   MPKI: 0.007515
L1D COMMIT WRITE NON_SPEC    ACCESS:     328374  HIT:      13449  MISS:     314925  HIT %:    4.09563  MISS %:    95.9044   MPKI: 1.57462
L1D PREFETCH  REQUESTED:     739298  ISSUED:     734408  USEFUL:       5921  USELESS:       2245
L1D USEFUL LOAD PREFETCHES:       5921 PREFETCH ISSUED TO LOWER LEVEL:     290534  ACCURACY: 2.03797
L1D TIMELY PREFETCHES:       5921 LATE PREFETCHES: 81 DROPPED PREFETCHES: 6094
L1D COMMIT LATE PREFETCHES: 0 MISSED OPPORTUNITY: 0 LATE IN PQ: 0 UNCOVERED: 0
L1D COMMIT LATE MSHR PREFETCHES: 0
L1D MPKI TOTAL: 2.7506 MSHR LATE: 0.000405 PQ LATE: 0 COMMIT LATE: 0 MISSED OPPORTUNITY: 0 UNCOVERED: 0
L1D PREFETCHES SAME FILL-ORIGIN LEVEL: 8248 DIFFERENT FILL-ORIGIN LEVEL: 282286
L1D AVERAGE MISS LATENCY: 44.7296 cycles
L1D AVERAGE MISS LATENCY LOAD: 69.4527 cycles
L1D AVERAGE MISS LATENCY PREFETCH: 59.1167 cycles
L1D AVERAGE MSHR OCCUPANCY: 0.0211461
L1D MSHR FULL: 1.64853e-05
L1D RQ	ACCESS:   35556917	FORWARD:          0	MERGED:      61035	TO_CACHE:   35485982
L1D WQ	ACCESS:   40069057	FORWARD:       9900	MERGED:     395067	TO_CACHE:   39673990
L1D PQ	ACCESS:     734408	FORWARD:          0	MERGED:      93181	TO_CACHE:     641227

L1D UNIQUE REGIONS ACCESSED: 0
L1D REGIONS CONFLICTS: 0
L1D Cross Page Prefetch Requests: 58342
L1D Same Page Prefetch Requests: 761396
L1D ROI Sum of L1D PQ occupancy: 10483201
L1D PREFETCHES PUSHED FROM L2C: 0
L1I SPEC fills:          0  NON-SPEC fills:          0
L1I Test counter :          0
L1I Leapfrog:          0
L1I MSHR merge:     219609
L1I TOTAL     ACCESS:   34923335  HIT:   34048984  MISS:     874351  HIT %:    97.4964  MISS %:    2.50363   MPKI: 4.37175
L1I LOAD      TOTAL       ACCESS:   34923335  HIT:   34048984  MISS:     874351  HIT %:    97.4964  MISS %:    2.50363   MPKI: 4.37175
L1I LOAD      NON_SPEC    ACCESS:   34923335  HIT:   34048984  MISS:     874351  HIT %:    97.4964  MISS %:    2.50363   MPKI: 4.37175
L1I PREFETCH  REQUESTED:          0  ISSUED:          0  USEFUL:          0  USELESS:          0
L1I USEFUL LOAD PREFETCHES:          0 PREFETCH ISSUED TO LOWER LEVEL:          0  ACCURACY: -nan
L1I TIMELY PREFETCHES:          0 LATE PREFETCHES: 0 DROPPED PREFETCHES: 0
L1I COMMIT LATE PREFETCHES: 0 MISSED OPPORTUNITY: 0 LATE IN PQ: 0 UNCOVERED: 0
L1I COMMIT LATE MSHR PREFETCHES: 0
L1I MPKI TOTAL: 5.4698 MSHR LATE: 0 PQ LATE: 0 COMMIT LATE: 0 MISSED OPPORTUNITY: 0 UNCOVERED: 0
L1I PREFETCHES SAME FILL-ORIGIN LEVEL: 0 DIFFERENT FILL-ORIGIN LEVEL: 0
L1I AVERAGE MISS LATENCY: 17.5622 cycles
L1I AVERAGE MISS LATENCY LOAD: 17.5622 cycles
L1I AVERAGE MISS LATENCY PREFETCH: -nan cycles
L1I AVERAGE MSHR OCCUPANCY: 0.0330463
L1I MSHR FULL: 0
L1I RQ	ACCESS:   55988113	FORWARD:          0	MERGED:   20845169	TO_CACHE:   35142944

BTB SPEC fills:          0  NON-SPEC fills:          0
BTB Test counter :          0
BTB Leapfrog:          0
BTB MSHR merge:          0
BTB TOTAL     ACCESS:   25984963  HIT:   24489037  MISS:    1495926  HIT %:    94.2431  MISS %:    5.75689   MPKI: 7.47963
BTB BRANCH_DIRECT_JUMP	ACCESS:    4141047  HIT:    4130444  MISS:      10603
BTB BRANCH_INDIRECT	ACCESS:    1274734  HIT:     405661  MISS:     869073
BTB BRANCH_CONDITIONAL	ACCESS:   16683297  HIT:   16654181  MISS:      29116
BTB BRANCH_DIRECT_CALL	ACCESS:    1551808  HIT:    1544398  MISS:       7410
BTB BRANCH_INDIRECT_CALL	ACCESS:     391135  HIT:      53393  MISS:     337742
BTB BRANCH_RETURN	ACCESS:    1942942  HIT:    1700960  MISS:     241982
BTB BRANCH_OTHER ACCESS:          0  HIT:          0  MISS:          0

L2C SPEC fills:          0  NON-SPEC fills:     104250
L2C Test counter :     120954
L2C Leapfrog:          0
L2C MSHR merge:       1175
L2C TOTAL     ACCESS:    2143105  HIT:    1697800  MISS:     445305  HIT %:    79.2215  MISS %:    20.7785   MPKI: 2.22652
L2C LOAD      TOTAL       ACCESS:    1421509  HIT:    1165030  MISS:     256479  HIT %:    81.9573  MISS %:    18.0427   MPKI: 1.28239
L2C LOAD      NON_SPEC    ACCESS:    1102712  HIT:     963744  MISS:     138968  HIT %:    87.3976  MISS %:    12.6024   MPKI: 0.69484
L2C LOAD      SPEC        ACCESS:     318797  HIT:     201286  MISS:     117511  HIT %:    63.1392  MISS %:    36.8608   MPKI: 0.587555
L2C RFO       NON_SPEC    ACCESS:      47922  HIT:      33818  MISS:      14104  HIT %:    70.5688  MISS %:    29.4312   MPKI: 0.07052
L2C PREFETCH  NON_SPEC    ACCESS:     285640  HIT:     241457  MISS:      44183  HIT %:    84.5319  MISS %:    15.4681   MPKI: 0.220915
L2C WRITEBACK NON_SPEC    ACCESS:      76958  HIT:      76531  MISS:        427  HIT %:    99.4452  MISS %:   0.554848   MPKI: 0.002135
L2C CLEAN_EVICTION NON_SPEC    ACCESS:     170308  HIT:      52253  MISS:     118055  HIT %:    30.6815  MISS %:    69.3185   MPKI: 0.590275
L2C COMMIT LOAD NON_SPEC    ACCESS:       1502  HIT:       1278  MISS:        224  HIT %:    85.0866  MISS %:    14.9134   MPKI: 0.00112
L2C LOAD TRANSLATION NON_SPEC    ACCESS:     117196  HIT:     105651  MISS:      11545  HIT %:     90.149  MISS %:    9.85102   MPKI: 0.057725
L2C TRANSLATION FROM L1D PREFETCHER NON_SPEC    ACCESS:      22070  HIT:      21782  MISS:        288  HIT %:    98.6951  MISS %:    1.30494   MPKI: 0.00144
L2C PREFETCH  REQUESTED:          0  ISSUED:          0  USEFUL:      14673  USELESS:      29734
L2C USEFUL LOAD PREFETCHES:      14673 PREFETCH ISSUED TO LOWER LEVEL:      45363  ACCURACY: 32.3457
L2C TIMELY PREFETCHES:      14673 LATE PREFETCHES: 1180 DROPPED PREFETCHES: 0
L2C COMMIT LATE PREFETCHES: 0 MISSED OPPORTUNITY: 0 LATE IN PQ: 0 UNCOVERED: 0
L2C COMMIT LATE MSHR PREFETCHES: 0
L2C MPKI TOTAL: 1.28239 MSHR LATE: 0.0059 PQ LATE: 0 COMMIT LATE: 0 MISSED OPPORTUNITY: 0 UNCOVERED: 0
L2C PREFETCHES SAME FILL-ORIGIN LEVEL: 43343 DIFFERENT FILL-ORIGIN LEVEL: 0
L2C AVERAGE MISS LATENCY: 99.5712 cycles
L2C AVERAGE MISS LATENCY LOAD: 133.101 cycles
L2C AVERAGE MISS LATENCY PREFETCH: 160.44 cycles
L2C AVERAGE MSHR OCCUPANCY: 0.15104
L2C MSHR FULL: 0
L2C RQ	ACCESS:    1610219	FORWARD:          0	MERGED:          0	TO_CACHE:    1610199
L2C WQ	ACCESS:     247266	FORWARD:         20	MERGED:          0	TO_CACHE:     247266
L2C PQ	ACCESS:     290534	FORWARD:          0	MERGED:         13	TO_CACHE:     290521

L2C Instructions Evicting Data 28944
L2C Translations Evicting Data 10038
L2C Data Evicting Data 138202
L2C Instructions Evicting Instructions 4031
L2C Translations Evicting Instructions 1320
L2C Data Evicting Instructions 17620
L2C Instructions Evicting Translations 1392
L2C Translations Evicting Translations 360
L2C Data Evicting Translations 5790
L2C Dense regions hint from L2: 0
PSCL5 SPEC fills:          0  NON-SPEC fills:          0
PSCL5 Test counter :          0
PSCL5 Leapfrog:          0
PSCL5 MSHR merge:          0
PSCL5 TOTAL     ACCESS:          0  HIT:          0  MISS:          0  HIT %:       -nan  MISS %:       -nan   MPKI: 0
PSCL5 PREFETCH  REQUESTED:          0  ISSUED:          0  USEFUL:          0  USELESS:          0
PSCL5 USEFUL LOAD PREFETCHES:          0 PREFETCH ISSUED TO LOWER LEVEL:          0  ACCURACY: -nan
PSCL5 TIMELY PREFETCHES:          0 LATE PREFETCHES: 0 DROPPED PREFETCHES: 0
PSCL5 COMMIT LATE PREFETCHES: 0 MISSED OPPORTUNITY: 0 LATE IN PQ: 0 UNCOVERED: 0
PSCL5 COMMIT LATE MSHR PREFETCHES: 0
PSCL5 MPKI TOTAL: 0 MSHR LATE: 0 PQ LATE: 0 COMMIT LATE: 0 MISSED OPPORTUNITY: 0 UNCOVERED: 0
PSCL5 PREFETCHES SAME FILL-ORIGIN LEVEL: 0 DIFFERENT FILL-ORIGIN LEVEL: 0

PSCL4 SPEC fills:          0  NON-SPEC fills:          0
PSCL4 Test counter :          0
PSCL4 Leapfrog:          0
PSCL4 MSHR merge:          0
PSCL4 TOTAL     ACCESS:          0  HIT:          0  MISS:          0  HIT %:       -nan  MISS %:       -nan   MPKI: 0
PSCL4 PREFETCH  REQUESTED:          0  ISSUED:          0  USEFUL:          0  USELESS:          0
PSCL4 USEFUL LOAD PREFETCHES:          0 PREFETCH ISSUED TO LOWER LEVEL:          0  ACCURACY: -nan
PSCL4 TIMELY PREFETCHES:          0 LATE PREFETCHES: 0 DROPPED PREFETCHES: 0
PSCL4 COMMIT LATE PREFETCHES: 0 MISSED OPPORTUNITY: 0 LATE IN PQ: 0 UNCOVERED: 0
PSCL4 COMMIT LATE MSHR PREFETCHES: 0
PSCL4 MPKI TOTAL: 0 MSHR LATE: 0 PQ LATE: 0 COMMIT LATE: 0 MISSED OPPORTUNITY: 0 UNCOVERED: 0
PSCL4 PREFETCHES SAME FILL-ORIGIN LEVEL: 0 DIFFERENT FILL-ORIGIN LEVEL: 0

PSCL3 SPEC fills:          0  NON-SPEC fills:          0
PSCL3 Test counter :          0
PSCL3 Leapfrog:          0
PSCL3 MSHR merge:          0
PSCL3 TOTAL     ACCESS:          0  HIT:          0  MISS:          0  HIT %:       -nan  MISS %:       -nan   MPKI: 0
PSCL3 PREFETCH  REQUESTED:          0  ISSUED:          0  USEFUL:          0  USELESS:          0
PSCL3 USEFUL LOAD PREFETCHES:          0 PREFETCH ISSUED TO LOWER LEVEL:          0  ACCURACY: -nan
PSCL3 TIMELY PREFETCHES:          0 LATE PREFETCHES: 0 DROPPED PREFETCHES: 0
PSCL3 COMMIT LATE PREFETCHES: 0 MISSED OPPORTUNITY: 0 LATE IN PQ: 0 UNCOVERED: 0
PSCL3 COMMIT LATE MSHR PREFETCHES: 0
PSCL3 MPKI TOTAL: 0 MSHR LATE: 0 PQ LATE: 0 COMMIT LATE: 0 MISSED OPPORTUNITY: 0 UNCOVERED: 0
PSCL3 PREFETCHES SAME FILL-ORIGIN LEVEL: 0 DIFFERENT FILL-ORIGIN LEVEL: 0

PSCL2 SPEC fills:          0  NON-SPEC fills:          0
PSCL2 Test counter :          0
PSCL2 Leapfrog:          0
PSCL2 MSHR merge:          0
PSCL2 TOTAL     ACCESS:          0  HIT:          0  MISS:          0  HIT %:       -nan  MISS %:       -nan   MPKI: 0
PSCL2 PREFETCH  REQUESTED:          0  ISSUED:          0  USEFUL:          0  USELESS:          0
PSCL2 USEFUL LOAD PREFETCHES:          0 PREFETCH ISSUED TO LOWER LEVEL:          0  ACCURACY: -nan
PSCL2 TIMELY PREFETCHES:          0 LATE PREFETCHES: 0 DROPPED PREFETCHES: 0
PSCL2 COMMIT LATE PREFETCHES: 0 MISSED OPPORTUNITY: 0 LATE IN PQ: 0 UNCOVERED: 0
PSCL2 COMMIT LATE MSHR PREFETCHES: 0
PSCL2 MPKI TOTAL: 0 MSHR LATE: 0 PQ LATE: 0 COMMIT LATE: 0 MISSED OPPORTUNITY: 0 UNCOVERED: 0
PSCL2 PREFETCHES SAME FILL-ORIGIN LEVEL: 0 DIFFERENT FILL-ORIGIN LEVEL: 0

LLC SPEC fills:          0  NON-SPEC fills:      88224
LLC Test counter :      82571
LLC Leapfrog:          0
LLC MSHR merge:          0
LLC TOTAL     ACCESS:     473822  HIT:     138469  MISS:     335353  HIT %:    29.2238  MISS %:    70.7762   MPKI: 1.67676
LLC LOAD      TOTAL       ACCESS:     255303  HIT:      65250  MISS:     190053  HIT %:    25.5579  MISS %:    74.4421   MPKI: 0.950265
LLC LOAD      NON_SPEC    ACCESS:     138297  HIT:      37068  MISS:     101229  HIT %:    26.8032  MISS %:    73.1968   MPKI: 0.506145
LLC LOAD      SPEC        ACCESS:     117006  HIT:      28182  MISS:      88824  HIT %:    24.0859  MISS %:    75.9141   MPKI: 0.44412
LLC RFO       NON_SPEC    ACCESS:      14099  HIT:       4385  MISS:       9714  HIT %:    31.1015  MISS %:    68.8985   MPKI: 0.04857
LLC PREFETCH  NON_SPEC    ACCESS:      45363  HIT:       6145  MISS:      39218  HIT %:    13.5463  MISS %:    86.4537   MPKI: 0.19609
LLC WRITEBACK NON_SPEC    ACCESS:      26046  HIT:      25748  MISS:        298  HIT %:    98.8559  MISS %:    1.14413   MPKI: 0.00149
LLC CLEAN_EVICTION NON_SPEC    ACCESS:     120954  HIT:      29973  MISS:      90981  HIT %:    24.7805  MISS %:    75.2195   MPKI: 0.454905
LLC COMMIT LOAD NON_SPEC    ACCESS:        224  HIT:        124  MISS:        100  HIT %:    55.3571  MISS %:    44.6429   MPKI: 0.0005
LLC LOAD TRANSLATION NON_SPEC    ACCESS:      11545  HIT:       6696  MISS:       4849  HIT %:    57.9991  MISS %:    42.0009   MPKI: 0.024245
LLC TRANSLATION FROM L1D PREFETCHER NON_SPEC    ACCESS:        288  HIT:        148  MISS:        140  HIT %:    51.3889  MISS %:    48.6111   MPKI: 0.0007
LLC PREFETCH  REQUESTED:          0  ISSUED:          0  USEFUL:       1327  USELESS:      34681
LLC USEFUL LOAD PREFETCHES:       1327 PREFETCH ISSUED TO LOWER LEVEL:      39218  ACCURACY: 3.38365
LLC TIMELY PREFETCHES:       1327 LATE PREFETCHES: 0 DROPPED PREFETCHES: 0
LLC COMMIT LATE PREFETCHES: 0 MISSED OPPORTUNITY: 0 LATE IN PQ: 0 UNCOVERED: 0
LLC COMMIT LATE MSHR PREFETCHES: 0
LLC MPKI TOTAL: 0.950265 MSHR LATE: 0 PQ LATE: 0 COMMIT LATE: 0 MISSED OPPORTUNITY: 0 UNCOVERED: 0
LLC PREFETCHES SAME FILL-ORIGIN LEVEL: 0 DIFFERENT FILL-ORIGIN LEVEL: 0
LLC AVERAGE MISS LATENCY: 106.3 cycles
LLC AVERAGE MISS LATENCY LOAD: 144.15 cycles
LLC AVERAGE MISS LATENCY PREFETCH: 151.079 cycles
LLC AVERAGE MSHR OCCUPANCY: 0.26283
LLC MSHR FULL: 0
LLC RQ	ACCESS:     281460	FORWARD:          0	MERGED:          0	TO_CACHE:     281459
LLC WQ	ACCESS:     147000	FORWARD:          1	MERGED:          0	TO_CACHE:     147000
LLC PQ	ACCESS:      45363	FORWARD:          0	MERGED:          0	TO_CACHE:      45363

LLC Dense regions hint to LLC: 0

RAW hits: 3033456
Loads Generated: 49831234
Loads sent to L1D: 46797779
Stores Generated: 39740622
Stores sent to L1D: 39740638
Major fault: 0 Minor fault: 5924
Allocated PAGES: 5924
Total Load insts: 55954302
Total Non-spec loads: 13941227
Percentage of speculative loads: 75.0846

LeapFrogging counter: 170
Commit hits: 22307150 miss: 11440272
Commit hit %: 66.1003 miss %: 33.8997
Commits not translated: 0
Loads retired: 547250
Stores retired: 39740638
Cache fills: 547250
L1D response latency: 69.4527 cycles
Load retirement latency: 102.072 cycles
OOO test counter: 0
Discarded buffer inserts: 22307150 hits: 4438 hit %: 0.019895
Filter prediction accuracy: 99.9668
ALL MISSES SIZE: 4644
LATENCY_FILL: 69.4079 549557
LATENCY_FILL_ROB: 87.3533 549407
test counter pref: 2314693
Max ROB Extended: 16

DRAM Statistics
 CHANNEL 0
 RQ ROW_BUFFER_HIT:      47693  ROW_BUFFER_MISS:     196381
 DBUS_CONGESTED:        123
 WQ ROW_BUFFER_HIT:      23738  ROW_BUFFER_MISS:      74975  FULL:          0

 AVG_CONGESTED_CYCLE: 4
 All warmup complete: 2
Channel 0 Bank busy for read cycles: 0
Channel 0 Bank busy for write cycles: 0
Channel 0
Rank 0
0banks busy for read cycles: 328200965
0banks busy for write cycles: 57148
1banks busy for read cycles: 22698267
1banks busy for write cycles: 9997208
2banks busy for read cycles: 3074570
2banks busy for write cycles: 2358785
3banks busy for read cycles: 595407
3banks busy for write cycles: 714951
4banks busy for read cycles: 132426
4banks busy for write cycles: 294701
5banks busy for read cycles: 62638
5banks busy for write cycles: 146588
6banks busy for read cycles: 28522
6banks busy for write cycles: 76197
7banks busy for read cycles: 17218
7banks busy for write cycles: 42205
8banks busy for read cycles: 9280
8banks busy for write cycles: 19404

CPU 0 Branch Prediction Accuracy: 99.0693% MPKI: 1.53431 Average ROB Occupancy at Mispredict: 50.3977
Branch types
NOT_BRANCH: 167028092 83.514%
BRANCH_DIRECT_JUMP: 4141047 2.07052%
BRANCH_INDIRECT: 1274734 0.637367%
BRANCH_CONDITIONAL: 23669876 11.8349%
BRANCH_DIRECT_CALL: 1551808 0.775904%
BRANCH_INDIRECT_CALL: 391135 0.195567%
BRANCH_RETURN: 1942942 0.971471%
BRANCH_OTHER: 0 0%

DRAM PAGES: 1048576
Allocated PAGES: 5924
