
*** ChampSim Multicore Out-of-Order Simulator ***

Warmup Instructions: 50000000
Simulation Instructions: 200000000
Number of CPUs: 1
LLC sets: 2048
LLC ways: 16
L0D sets: 16
L0D ways: 2
ROB size: 352
LQ size: 128
SQ size: 72
Secure Berti: ON
Berti: ON
Berti Fill: ON
On commit prefetching: OFF
Hit-based filter: ON
Time-guarding: ON
Free-slotting: ON
Leap-frogging: ON
Train prefetcher on L0D bypass: OFF
No translation penalty for prefetchers: OFF
Prefetch to L0D only: OFF
Prefetch to L1D only: OFF
Clean evictions: ON
Commit loads: ON
Commit write: ON
Fill commit loads to L2C, LLC: ON
DRAM IO FREQUENCY: 6400
ROB SIZE: 352
Off-chip DRAM Size: 4096 MB Channels: 1 Width: 64-bit Data Rate: 6400 MT/s
CPU 0 runs /home/sumon/secure_berti/GhostMinion/../../traces/spec/603.bwaves_s-2931B.champsimtrace.xz
.xz
BTB has LRU replacement policy
ITLB has LRU replacement policy
DTLB has LRU replacement policy
STLB has LRU replacement policy
L1I has LRU replacement policy
L0D has LRU replacement policy
Berti version on_commit
History Sets: 8
History Ways: 16
BERTI Size: 16
BERTI Stride Size: 16
L1D has LRU replacement policy
L2C has LRU replacement policy
LLC has LRU replacement policy
Heartbeat CPU 0 instructions: 10000003 cycles: 3159291 heartbeat IPC: 3.16527 cumulative IPC: 3.16527 (Simulation time: 0 hr 1 min 14 sec) 
Heartbeat CPU 0 instructions: 20000003 cycles: 6317642 heartbeat IPC: 3.16621 cumulative IPC: 3.16574 (Simulation time: 0 hr 2 min 21 sec) 
Heartbeat CPU 0 instructions: 30000003 cycles: 9477085 heartbeat IPC: 3.16511 cumulative IPC: 3.16553 (Simulation time: 0 hr 3 min 31 sec) 
Heartbeat CPU 0 instructions: 40000002 cycles: 12636514 heartbeat IPC: 3.16513 cumulative IPC: 3.16543 (Simulation time: 0 hr 4 min 36 sec) 
Heartbeat CPU 0 instructions: 50000003 cycles: 15796106 heartbeat IPC: 3.16497 cumulative IPC: 3.16534 (Simulation time: 0 hr 5 min 27 sec) 

Warmup complete CPU 0 instructions: 50000003 cycles: 15796106 (Simulation time: 0 hr 5 min 27 sec) 

Heartbeat CPU 0 instructions: 60000002 cycles: 24145867 heartbeat IPC: 1.19764 cumulative IPC: 1.19764 (Simulation time: 0 hr 6 min 45 sec) 
Heartbeat CPU 0 instructions: 70000002 cycles: 32491432 heartbeat IPC: 1.19824 cumulative IPC: 1.19794 (Simulation time: 0 hr 7 min 58 sec) 
Heartbeat CPU 0 instructions: 80000003 cycles: 40835183 heartbeat IPC: 1.1985 cumulative IPC: 1.19813 (Simulation time: 0 hr 9 min 9 sec) 
Heartbeat CPU 0 instructions: 90000003 cycles: 49182876 heartbeat IPC: 1.19794 cumulative IPC: 1.19808 (Simulation time: 0 hr 10 min 20 sec) 
Heartbeat CPU 0 instructions: 100000002 cycles: 57529824 heartbeat IPC: 1.19804 cumulative IPC: 1.19807 (Simulation time: 0 hr 11 min 21 sec) 
Heartbeat CPU 0 instructions: 110000000 cycles: 65868520 heartbeat IPC: 1.19923 cumulative IPC: 1.19826 (Simulation time: 0 hr 12 min 5 sec) 
Heartbeat CPU 0 instructions: 120000000 cycles: 74207697 heartbeat IPC: 1.19916 cumulative IPC: 1.19839 (Simulation time: 0 hr 12 min 49 sec) 
Heartbeat CPU 0 instructions: 130000002 cycles: 82550336 heartbeat IPC: 1.19866 cumulative IPC: 1.19843 (Simulation time: 0 hr 13 min 33 sec) 
Heartbeat CPU 0 instructions: 140000002 cycles: 90896725 heartbeat IPC: 1.19812 cumulative IPC: 1.19839 (Simulation time: 0 hr 14 min 18 sec) 
Heartbeat CPU 0 instructions: 150000001 cycles: 99232648 heartbeat IPC: 1.19963 cumulative IPC: 1.19852 (Simulation time: 0 hr 15 min 3 sec) 
Heartbeat CPU 0 instructions: 160000001 cycles: 107572124 heartbeat IPC: 1.19912 cumulative IPC: 1.19857 (Simulation time: 0 hr 15 min 48 sec) 
Heartbeat CPU 0 instructions: 170000003 cycles: 115906850 heartbeat IPC: 1.1998 cumulative IPC: 1.19867 (Simulation time: 0 hr 16 min 33 sec) 
Heartbeat CPU 0 instructions: 180000000 cycles: 124255956 heartbeat IPC: 1.19773 cumulative IPC: 1.1986 (Simulation time: 0 hr 17 min 17 sec) 
Heartbeat CPU 0 instructions: 190000000 cycles: 132591115 heartbeat IPC: 1.19974 cumulative IPC: 1.19868 (Simulation time: 0 hr 18 min 0 sec) 
Heartbeat CPU 0 instructions: 200000000 cycles: 140922181 heartbeat IPC: 1.20033 cumulative IPC: 1.19879 (Simulation time: 0 hr 18 min 44 sec) 
Heartbeat CPU 0 instructions: 210000003 cycles: 149270267 heartbeat IPC: 1.19788 cumulative IPC: 1.19873 (Simulation time: 0 hr 19 min 26 sec) 
Heartbeat CPU 0 instructions: 220000000 cycles: 157623371 heartbeat IPC: 1.19716 cumulative IPC: 1.19864 (Simulation time: 0 hr 20 min 7 sec) 
Heartbeat CPU 0 instructions: 230000000 cycles: 165967305 heartbeat IPC: 1.19848 cumulative IPC: 1.19863 (Simulation time: 0 hr 20 min 47 sec) 
Heartbeat CPU 0 instructions: 240000000 cycles: 174303003 heartbeat IPC: 1.19966 cumulative IPC: 1.19869 (Simulation time: 0 hr 21 min 26 sec) 
Heartbeat CPU 0 instructions: 250000001 cycles: 182640997 heartbeat IPC: 1.19933 cumulative IPC: 1.19872 (Simulation time: 0 hr 22 min 5 sec) 
Finished CPU 0 instructions: 200000002 cycles: 166844892 cumulative IPC: 1.19872 (Simulation time: 0 hr 22 min 5 sec) 
 Instruction ID: 250000064

ChampSim completed all CPUs

Region of Interest Statistics

CPU 0 cumulative IPC: 1.19872 instructions: 200000002 cycles: 166844892
ITLB SPEC fills:          0  NON-SPEC fills:          0
ITLB Test counter :          0
ITLB Leapfrog:          0
ITLB MSHR merge:          0
ITLB TOTAL     ACCESS:   24086535  HIT:   24086535  MISS:          0  HIT %:        100  MISS %:          0   MPKI: 0
ITLB LOAD TRANSLATION NON_SPEC    ACCESS:   24086535  HIT:   24086535  MISS:          0  HIT %:        100  MISS %:          0   MPKI: 0
ITLB PREFETCH  REQUESTED:          0  ISSUED:          0  USEFUL:          0  USELESS:          0
ITLB USEFUL LOAD PREFETCHES:          0 PREFETCH ISSUED TO LOWER LEVEL:          0  ACCURACY: -nan
ITLB TIMELY PREFETCHES:          0 LATE PREFETCHES: 0 DROPPED PREFETCHES: 0
ITLB COMMIT LATE PREFETCHES: 0 MISSED OPPORTUNITY: 0 LATE IN PQ: 0 UNCOVERED: 0
ITLB COMMIT LATE MSHR PREFETCHES: 0
ITLB MPKI TOTAL: 0 MSHR LATE: 0 PQ LATE: 0 COMMIT LATE: 0 MISSED OPPORTUNITY: 0 UNCOVERED: 0
ITLB PREFETCHES SAME FILL-ORIGIN LEVEL: 0 DIFFERENT FILL-ORIGIN LEVEL: 0
ITLB AVERAGE MISS LATENCY: -nan cycles
ITLB AVERAGE MISS LATENCY LOAD: -nan cycles
ITLB AVERAGE MISS LATENCY PREFETCH: -nan cycles
ITLB AVERAGE MSHR OCCUPANCY: 0
ITLB MSHR FULL: 0
ITLB RQ	ACCESS:   27850675	FORWARD:          0	MERGED:    3764140	TO_CACHE:   24086535

DTLB SPEC fills:          0  NON-SPEC fills:          0
DTLB Test counter :          0
DTLB Leapfrog:          0
DTLB MSHR merge:          0
DTLB TOTAL     ACCESS:   54198753  HIT:   53762641  MISS:     436112  HIT %:    99.1953  MISS %:   0.804653   MPKI: 2.18056
DTLB LOAD TRANSLATION NON_SPEC    ACCESS:   54198753  HIT:   53762641  MISS:     436112  HIT %:    99.1953  MISS %:   0.804653   MPKI: 2.18056
DTLB PREFETCH  REQUESTED:          0  ISSUED:          0  USEFUL:          0  USELESS:          0
DTLB USEFUL LOAD PREFETCHES:          0 PREFETCH ISSUED TO LOWER LEVEL:          0  ACCURACY: -nan
DTLB TIMELY PREFETCHES:          0 LATE PREFETCHES: 0 DROPPED PREFETCHES: 0
DTLB COMMIT LATE PREFETCHES: 0 MISSED OPPORTUNITY: 0 LATE IN PQ: 0 UNCOVERED: 0
DTLB COMMIT LATE MSHR PREFETCHES: 0
DTLB MPKI TOTAL: 0 MSHR LATE: 0 PQ LATE: 0 COMMIT LATE: 0 MISSED OPPORTUNITY: 0 UNCOVERED: 0
DTLB PREFETCHES SAME FILL-ORIGIN LEVEL: 0 DIFFERENT FILL-ORIGIN LEVEL: 0
DTLB AVERAGE MISS LATENCY: 51.9315 cycles
DTLB AVERAGE MISS LATENCY LOAD: -nan cycles
DTLB AVERAGE MISS LATENCY PREFETCH: -nan cycles
DTLB AVERAGE MSHR OCCUPANCY: 0.0751262
DTLB MSHR FULL: 5.34471e-07
DTLB RQ	ACCESS:   82517155	FORWARD:          0	MERGED:   28257943	TO_CACHE:   54259212

STLB SPEC fills:          0  NON-SPEC fills:          0
STLB Test counter :          0
STLB Leapfrog:          0
STLB MSHR merge:          0
STLB TOTAL     ACCESS:   12773224  HIT:   12730620  MISS:      42604  HIT %:    99.6665  MISS %:   0.333541   MPKI: 0.21302
STLB LOAD TRANSLATION NON_SPEC    ACCESS:     436112  HIT:     397890  MISS:      38222  HIT %:    91.2357  MISS %:    8.76426   MPKI: 0.19111
STLB TRANSLATION FROM L1D PREFETCHER NON_SPEC    ACCESS:   12337112  HIT:   12332730  MISS:       4382  HIT %:    99.9645  MISS %:  0.0355188   MPKI: 0.02191
STLB PREFETCH  REQUESTED:          0  ISSUED:          0  USEFUL:       4382  USELESS:          0
STLB USEFUL LOAD PREFETCHES:       4382 PREFETCH ISSUED TO LOWER LEVEL:          0  ACCURACY: inf
STLB TIMELY PREFETCHES:       4382 LATE PREFETCHES: 3689 DROPPED PREFETCHES: 443970
STLB COMMIT LATE PREFETCHES: 0 MISSED OPPORTUNITY: 0 LATE IN PQ: 0 UNCOVERED: 0
STLB COMMIT LATE MSHR PREFETCHES: 0
STLB MPKI TOTAL: 0 MSHR LATE: 0.018445 PQ LATE: 0 COMMIT LATE: 0 MISSED OPPORTUNITY: 0 UNCOVERED: 0
STLB PREFETCHES SAME FILL-ORIGIN LEVEL: 0 DIFFERENT FILL-ORIGIN LEVEL: 0
STLB AVERAGE MISS LATENCY: 449.756 cycles
STLB AVERAGE MISS LATENCY LOAD: -nan cycles
STLB AVERAGE MISS LATENCY PREFETCH: -nan cycles
STLB AVERAGE MSHR OCCUPANCY: 0.193793
STLB MSHR FULL: 0
STLB RQ	ACCESS:   51437705	FORWARD:          0	MERGED:   38214151	TO_CACHE:   13223554

STLB Hit, L1D data hit: 0
STLB Hit, L2C data hit: 0
STLB Hit, LLC data hit: 0
STLB Hit, LLC data miss: 0
STLB STLB hints to L2: 0
L0D SPEC fills:   29233975  NON-SPEC fills:          0
L0D TimeGuard Request with older TS:     297479 Restricted eviction:    1290318 read:     133967
L0D Test counter :          0
L0D Leapfrog:          0
L0D MSHR merge:    1326286
L0D TOTAL     ACCESS:   44541811  HIT:    9618543  MISS:   34923268  HIT %:    21.5944  MISS %:    78.4056   MPKI: 174.616
L0D LOAD      TOTAL       ACCESS:   44541811  HIT:    9618543  MISS:   34923268  HIT %:    21.5944  MISS %:    78.4056   MPKI: 174.616
L0D LOAD      NON_SPEC    ACCESS:    5509607  HIT:    1110600  MISS:    4399007  HIT %:    20.1575  MISS %:    79.8425   MPKI: 21.995
L0D LOAD      SPEC        ACCESS:   39032204  HIT:    8507943  MISS:   30524261  HIT %:    21.7972  MISS %:    78.2028   MPKI: 152.621
L0D PREFETCH  REQUESTED:          0  ISSUED:          0  USEFUL:          0  USELESS:          0
L0D USEFUL LOAD PREFETCHES:          0 PREFETCH ISSUED TO LOWER LEVEL:          0  ACCURACY: -nan
L0D TIMELY PREFETCHES:          0 LATE PREFETCHES: 0 DROPPED PREFETCHES: 0
L0D COMMIT LATE PREFETCHES: 0 MISSED OPPORTUNITY: 0 LATE IN PQ: 0 UNCOVERED: 0
L0D COMMIT LATE MSHR PREFETCHES: 0
L0D MPKI TOTAL: 181.248 MSHR LATE: 0 PQ LATE: 0 COMMIT LATE: 0 MISSED OPPORTUNITY: 0 UNCOVERED: 0
L0D PREFETCHES SAME FILL-ORIGIN LEVEL: 0 DIFFERENT FILL-ORIGIN LEVEL: 0
L0D AVERAGE MISS LATENCY: 5.58767 cycles
L0D AVERAGE MISS LATENCY LOAD: 5.58767 cycles
L0D AVERAGE MISS LATENCY PREFETCH: -nan cycles
L0D AVERAGE MSHR OCCUPANCY: 1.1173
L0D MSHR FULL: 2.83421e-07
L0D RQ	ACCESS:   57592655	FORWARD:          0	MERGED:   11724560	TO_CACHE:   45868095
L0D WQ	ACCESS:   36649060	FORWARD:          0	MERGED:          0	TO_CACHE:   36649060

L1D SPEC fills:          0  NON-SPEC fills:       8903
L1D Test counter :      51703
L1D Leapfrog:          0
L1D MSHR merge:       6038
L1D TOTAL     ACCESS:  107598191  HIT:  103324166  MISS:    4274025  HIT %:    96.0278  MISS %:    3.97221   MPKI: 21.3701
L1D LOAD      TOTAL       ACCESS:   34921238  HIT:   34251717  MISS:     669521  HIT %:    98.0828  MISS %:    1.91723   MPKI: 3.3476
L1D LOAD      NON_SPEC    ACCESS:    4398994  HIT:    4390091  MISS:       8903  HIT %:    99.7976  MISS %:   0.202387   MPKI: 0.044515
L1D LOAD      SPEC        ACCESS:   30522244  HIT:   29861626  MISS:     660618  HIT %:    97.8356  MISS %:    2.16438   MPKI: 3.30309
L1D RFO       NON_SPEC    ACCESS:   33306836  HIT:   32106466  MISS:    1200370  HIT %:     96.396  MISS %:    3.60397   MPKI: 6.00185
L1D PREFETCH  NON_SPEC    ACCESS:   38676187  HIT:   36931903  MISS:    1744284  HIT %:      95.49  MISS %:    4.50997   MPKI: 8.72142
L1D COMMIT LOAD NON_SPEC    ACCESS:      46429  HIT:      30617  MISS:      15812  HIT %:    65.9437  MISS %:    34.0563   MPKI: 0.07906
L1D COMMIT WRITE NON_SPEC    ACCESS:     647501  HIT:       3463  MISS:     644038  HIT %:   0.534825  MISS %:    99.4652   MPKI: 3.22019
L1D PREFETCH  REQUESTED:   75881014  ISSUED:   51399642  USEFUL:    1740037  USELESS:       4246
L1D USEFUL LOAD PREFETCHES:    1740037 PREFETCH ISSUED TO LOWER LEVEL:   12041102  ACCURACY: 14.4508
L1D TIMELY PREFETCHES:    1740037 LATE PREFETCHES: 4009 DROPPED PREFETCHES: 1329737
L1D COMMIT LATE PREFETCHES: 0 MISSED OPPORTUNITY: 0 LATE IN PQ: 0 UNCOVERED: 0
L1D COMMIT LATE MSHR PREFETCHES: 0
L1D MPKI TOTAL: 3.35775 MSHR LATE: 0.020045 PQ LATE: 0 COMMIT LATE: 0 MISSED OPPORTUNITY: 0 UNCOVERED: 0
L1D PREFETCHES SAME FILL-ORIGIN LEVEL: 1748294 DIFFERENT FILL-ORIGIN LEVEL: 10292808
L1D AVERAGE MISS LATENCY: 152.613 cycles
L1D AVERAGE MISS LATENCY LOAD: 21.1931 cycles
L1D AVERAGE MISS LATENCY PREFETCH: 108.597 cycles
L1D AVERAGE MSHR OCCUPANCY: 4.02492
L1D MSHR FULL: 0.000102115
L1D RQ	ACCESS:   35020357	FORWARD:          0	MERGED:      50528	TO_CACHE:   34969829
L1D WQ	ACCESS:   37296568	FORWARD:          0	MERGED:       8212	TO_CACHE:   37288356
L1D PQ	ACCESS:   51399642	FORWARD:          0	MERGED:     398049	TO_CACHE:   51001593

L1D UNIQUE REGIONS ACCESSED: 0
L1D REGIONS CONFLICTS: 0
L1D Cross Page Prefetch Requests: 2889868
L1D Same Page Prefetch Requests: 62840328
L1D ROI Sum of L1D PQ occupancy: 1127676693
L1D PREFETCHES PUSHED FROM L2C: 0
L1I SPEC fills:          0  NON-SPEC fills:          0
L1I Test counter :          0
L1I Leapfrog:          0
L1I MSHR merge:          0
L1I TOTAL     ACCESS:   27850673  HIT:   27850673  MISS:          0  HIT %:        100  MISS %:          0   MPKI: 0
L1I LOAD      TOTAL       ACCESS:   27850673  HIT:   27850673  MISS:          0  HIT %:        100  MISS %:          0   MPKI: 0
L1I LOAD      NON_SPEC    ACCESS:   27850673  HIT:   27850673  MISS:          0  HIT %:        100  MISS %:          0   MPKI: 0
L1I PREFETCH  REQUESTED:          0  ISSUED:          0  USEFUL:          0  USELESS:          0
L1I USEFUL LOAD PREFETCHES:          0 PREFETCH ISSUED TO LOWER LEVEL:          0  ACCURACY: -nan
L1I TIMELY PREFETCHES:          0 LATE PREFETCHES: 0 DROPPED PREFETCHES: 0
L1I COMMIT LATE PREFETCHES: 0 MISSED OPPORTUNITY: 0 LATE IN PQ: 0 UNCOVERED: 0
L1I COMMIT LATE MSHR PREFETCHES: 0
L1I MPKI TOTAL: 0 MSHR LATE: 0 PQ LATE: 0 COMMIT LATE: 0 MISSED OPPORTUNITY: 0 UNCOVERED: 0
L1I PREFETCHES SAME FILL-ORIGIN LEVEL: 0 DIFFERENT FILL-ORIGIN LEVEL: 0
L1I AVERAGE MISS LATENCY: -nan cycles
L1I AVERAGE MISS LATENCY LOAD: -nan cycles
L1I AVERAGE MISS LATENCY PREFETCH: -nan cycles
L1I AVERAGE MSHR OCCUPANCY: 0
L1I MSHR FULL: 0
L1I RQ	ACCESS:   40693150	FORWARD:          0	MERGED:   12842475	TO_CACHE:   27850675

BTB SPEC fills:          0  NON-SPEC fills:          0
BTB Test counter :          0
BTB Leapfrog:          0
BTB MSHR merge:          0
BTB TOTAL     ACCESS:    1687994  HIT:    1687989  MISS:          5  HIT %:    99.9997  MISS %: 0.00029621   MPKI: 2.5e-05
BTB BRANCH_DIRECT_JUMP	ACCESS:          0  HIT:          0  MISS:          0
BTB BRANCH_INDIRECT	ACCESS:          0  HIT:          0  MISS:          0
BTB BRANCH_CONDITIONAL	ACCESS:    1687994  HIT:    1687989  MISS:          5
BTB BRANCH_DIRECT_CALL	ACCESS:          0  HIT:          0  MISS:          0
BTB BRANCH_INDIRECT_CALL	ACCESS:          0  HIT:          0  MISS:          0
BTB BRANCH_RETURN	ACCESS:          0  HIT:          0  MISS:          0
BTB BRANCH_OTHER ACCESS:          0  HIT:          0  MISS:          0

L2C SPEC fills:          0  NON-SPEC fills:       2193
L2C Test counter :      36222
L2C Leapfrog:          0
L2C MSHR merge:        137
L2C TOTAL     ACCESS:   16861510  HIT:   13909086  MISS:    2952424  HIT %:    82.4902  MISS %:    17.5098   MPKI: 14.7621
L2C LOAD      TOTAL       ACCESS:     663919  HIT:     629174  MISS:      34745  HIT %:    94.7667  MISS %:    5.23332   MPKI: 0.173725
L2C LOAD      NON_SPEC    ACCESS:       8827  HIT:       6634  MISS:       2193  HIT %:    75.1558  MISS %:    24.8442   MPKI: 0.010965
L2C LOAD      SPEC        ACCESS:     655092  HIT:     622540  MISS:      32552  HIT %:    95.0309  MISS %:    4.96907   MPKI: 0.16276
L2C RFO       NON_SPEC    ACCESS:    1195449  HIT:       4682  MISS:    1190767  HIT %:   0.391652  MISS %:    99.6083   MPKI: 5.95383
L2C PREFETCH  NON_SPEC    ACCESS:   11283118  HIT:    9594372  MISS:    1688746  HIT %:     85.033  MISS %:     14.967   MPKI: 8.44373
L2C WRITEBACK NON_SPEC    ACCESS:    1200808  HIT:    1200610  MISS:        198  HIT %:    99.9835  MISS %:  0.0164889   MPKI: 0.00099
L2C CLEAN_EVICTION NON_SPEC    ACCESS:      51703  HIT:      20096  MISS:      31607  HIT %:    38.8682  MISS %:    61.1318   MPKI: 0.158035
L2C COMMIT LOAD NON_SPEC    ACCESS:      15811  HIT:      14816  MISS:        995  HIT %:    93.7069  MISS %:    6.29309   MPKI: 0.004975
L2C LOAD TRANSLATION NON_SPEC    ACCESS:     190957  HIT:     187926  MISS:       3031  HIT %:    98.4127  MISS %:    1.58727   MPKI: 0.015155
L2C TRANSLATION FROM L1D PREFETCHER NON_SPEC    ACCESS:    2259745  HIT:    2257410  MISS:       2335  HIT %:    99.8967  MISS %:    0.10333   MPKI: 0.011675
L2C PREFETCH  REQUESTED:          0  ISSUED:          0  USEFUL:     528851  USELESS:    1161069
L2C USEFUL LOAD PREFETCHES:     528851 PREFETCH ISSUED TO LOWER LEVEL:    1688885  ACCURACY: 31.3136
L2C TIMELY PREFETCHES:     528851 LATE PREFETCHES: 137 DROPPED PREFETCHES: 0
L2C COMMIT LATE PREFETCHES: 0 MISSED OPPORTUNITY: 0 LATE IN PQ: 0 UNCOVERED: 0
L2C COMMIT LATE MSHR PREFETCHES: 0
L2C MPKI TOTAL: 0.173725 MSHR LATE: 0.000685 PQ LATE: 0 COMMIT LATE: 0 MISSED OPPORTUNITY: 0 UNCOVERED: 0
L2C PREFETCHES SAME FILL-ORIGIN LEVEL: 888772 DIFFERENT FILL-ORIGIN LEVEL: 0
L2C AVERAGE MISS LATENCY: 266.233 cycles
L2C AVERAGE MISS LATENCY LOAD: 176.56 cycles
L2C AVERAGE MISS LATENCY PREFETCH: 206.255 cycles
L2C AVERAGE MSHR OCCUPANCY: 4.60458
L2C MSHR FULL: 0
L2C RQ	ACCESS:    4332399	FORWARD:          0	MERGED:          0	TO_CACHE:    4325884
L2C WQ	ACCESS:    1252511	FORWARD:       6534	MERGED:          0	TO_CACHE:    1252511
L2C PQ	ACCESS:   12041102	FORWARD:          0	MERGED:          0	TO_CACHE:   12041083

L2C Instructions Evicting Data 0
L2C Translations Evicting Data 5366
L2C Data Evicting Data 2877398
L2C Instructions Evicting Instructions 0
L2C Translations Evicting Instructions 0
L2C Data Evicting Instructions 0
L2C Instructions Evicting Translations 0
L2C Translations Evicting Translations 0
L2C Data Evicting Translations 5303
L2C Dense regions hint from L2: 0
PSCL5 SPEC fills:          0  NON-SPEC fills:          0
PSCL5 Test counter :          0
PSCL5 Leapfrog:          0
PSCL5 MSHR merge:          0
PSCL5 TOTAL     ACCESS:          0  HIT:          0  MISS:          0  HIT %:       -nan  MISS %:       -nan   MPKI: 0
PSCL5 PREFETCH  REQUESTED:          0  ISSUED:          0  USEFUL:          0  USELESS:          0
PSCL5 USEFUL LOAD PREFETCHES:          0 PREFETCH ISSUED TO LOWER LEVEL:          0  ACCURACY: -nan
PSCL5 TIMELY PREFETCHES:          0 LATE PREFETCHES: 0 DROPPED PREFETCHES: 0
PSCL5 COMMIT LATE PREFETCHES: 0 MISSED OPPORTUNITY: 0 LATE IN PQ: 0 UNCOVERED: 0
PSCL5 COMMIT LATE MSHR PREFETCHES: 0
PSCL5 MPKI TOTAL: 0 MSHR LATE: 0 PQ LATE: 0 COMMIT LATE: 0 MISSED OPPORTUNITY: 0 UNCOVERED: 0
PSCL5 PREFETCHES SAME FILL-ORIGIN LEVEL: 0 DIFFERENT FILL-ORIGIN LEVEL: 0

PSCL4 SPEC fills:          0  NON-SPEC fills:          0
PSCL4 Test counter :          0
PSCL4 Leapfrog:          0
PSCL4 MSHR merge:          0
PSCL4 TOTAL     ACCESS:          0  HIT:          0  MISS:          0  HIT %:       -nan  MISS %:       -nan   MPKI: 0
PSCL4 PREFETCH  REQUESTED:          0  ISSUED:          0  USEFUL:          0  USELESS:          0
PSCL4 USEFUL LOAD PREFETCHES:          0 PREFETCH ISSUED TO LOWER LEVEL:          0  ACCURACY: -nan
PSCL4 TIMELY PREFETCHES:          0 LATE PREFETCHES: 0 DROPPED PREFETCHES: 0
PSCL4 COMMIT LATE PREFETCHES: 0 MISSED OPPORTUNITY: 0 LATE IN PQ: 0 UNCOVERED: 0
PSCL4 COMMIT LATE MSHR PREFETCHES: 0
PSCL4 MPKI TOTAL: 0 MSHR LATE: 0 PQ LATE: 0 COMMIT LATE: 0 MISSED OPPORTUNITY: 0 UNCOVERED: 0
PSCL4 PREFETCHES SAME FILL-ORIGIN LEVEL: 0 DIFFERENT FILL-ORIGIN LEVEL: 0

PSCL3 SPEC fills:          0  NON-SPEC fills:          0
PSCL3 Test counter :          0
PSCL3 Leapfrog:          0
PSCL3 MSHR merge:          0
PSCL3 TOTAL     ACCESS:          0  HIT:          0  MISS:          0  HIT %:       -nan  MISS %:       -nan   MPKI: 0
PSCL3 PREFETCH  REQUESTED:          0  ISSUED:          0  USEFUL:          0  USELESS:          0
PSCL3 USEFUL LOAD PREFETCHES:          0 PREFETCH ISSUED TO LOWER LEVEL:          0  ACCURACY: -nan
PSCL3 TIMELY PREFETCHES:          0 LATE PREFETCHES: 0 DROPPED PREFETCHES: 0
PSCL3 COMMIT LATE PREFETCHES: 0 MISSED OPPORTUNITY: 0 LATE IN PQ: 0 UNCOVERED: 0
PSCL3 COMMIT LATE MSHR PREFETCHES: 0
PSCL3 MPKI TOTAL: 0 MSHR LATE: 0 PQ LATE: 0 COMMIT LATE: 0 MISSED OPPORTUNITY: 0 UNCOVERED: 0
PSCL3 PREFETCHES SAME FILL-ORIGIN LEVEL: 0 DIFFERENT FILL-ORIGIN LEVEL: 0

PSCL2 SPEC fills:          0  NON-SPEC fills:          0
PSCL2 Test counter :          0
PSCL2 Leapfrog:          0
PSCL2 MSHR merge:          0
PSCL2 TOTAL     ACCESS:          0  HIT:          0  MISS:          0  HIT %:       -nan  MISS %:       -nan   MPKI: 0
PSCL2 PREFETCH  REQUESTED:          0  ISSUED:          0  USEFUL:          0  USELESS:          0
PSCL2 USEFUL LOAD PREFETCHES:          0 PREFETCH ISSUED TO LOWER LEVEL:          0  ACCURACY: -nan
PSCL2 TIMELY PREFETCHES:          0 LATE PREFETCHES: 0 DROPPED PREFETCHES: 0
PSCL2 COMMIT LATE PREFETCHES: 0 MISSED OPPORTUNITY: 0 LATE IN PQ: 0 UNCOVERED: 0
PSCL2 COMMIT LATE MSHR PREFETCHES: 0
PSCL2 MPKI TOTAL: 0 MSHR LATE: 0 PQ LATE: 0 COMMIT LATE: 0 MISSED OPPORTUNITY: 0 UNCOVERED: 0
PSCL2 PREFETCHES SAME FILL-ORIGIN LEVEL: 0 DIFFERENT FILL-ORIGIN LEVEL: 0

LLC SPEC fills:          0  NON-SPEC fills:       1889
LLC Test counter :      34864
LLC Leapfrog:          0
LLC MSHR merge:          0
LLC TOTAL     ACCESS:    4148130  HIT:    1387061  MISS:    2761069  HIT %:    33.4382  MISS %:    66.5618   MPKI: 13.8053
LLC LOAD      TOTAL       ACCESS:      34606  HIT:       3064  MISS:      31542  HIT %:    8.85396  MISS %:     91.146   MPKI: 0.15771
LLC LOAD      NON_SPEC    ACCESS:       2193  HIT:        304  MISS:       1889  HIT %:    13.8623  MISS %:    86.1377   MPKI: 0.009445
LLC LOAD      SPEC        ACCESS:      32413  HIT:       2760  MISS:      29653  HIT %:     8.5151  MISS %:    91.4849   MPKI: 0.148265
LLC RFO       NON_SPEC    ACCESS:    1190767  HIT:          0  MISS:    1190767  HIT %:          0  MISS %:        100   MPKI: 5.95383
LLC PREFETCH  NON_SPEC    ACCESS:    1688883  HIT:     185269  MISS:    1503614  HIT %:    10.9699  MISS %:    89.0301   MPKI: 7.51807
LLC WRITEBACK NON_SPEC    ACCESS:    1191291  HIT:    1191186  MISS:        105  HIT %:    99.9912  MISS %: 0.00881397   MPKI: 0.000525
LLC CLEAN_EVICTION NON_SPEC    ACCESS:      36222  HIT:       7517  MISS:      28705  HIT %:    20.7526  MISS %:    79.2474   MPKI: 0.143525
LLC COMMIT LOAD NON_SPEC    ACCESS:        995  HIT:          3  MISS:        992  HIT %:   0.301508  MISS %:    99.6985   MPKI: 0.00496
LLC LOAD TRANSLATION NON_SPEC    ACCESS:       3031  HIT:         13  MISS:       3018  HIT %:   0.428901  MISS %:    99.5711   MPKI: 0.01509
LLC TRANSLATION FROM L1D PREFETCHER NON_SPEC    ACCESS:       2335  HIT:          9  MISS:       2326  HIT %:   0.385439  MISS %:    99.6146   MPKI: 0.01163
LLC PREFETCH  REQUESTED:          0  ISSUED:          0  USEFUL:       1570  USELESS:    1504612
LLC USEFUL LOAD PREFETCHES:       1570 PREFETCH ISSUED TO LOWER LEVEL:    1503616  ACCURACY: 0.104415
LLC TIMELY PREFETCHES:       1570 LATE PREFETCHES: 0 DROPPED PREFETCHES: 0
LLC COMMIT LATE PREFETCHES: 0 MISSED OPPORTUNITY: 0 LATE IN PQ: 0 UNCOVERED: 0
LLC COMMIT LATE MSHR PREFETCHES: 0
LLC MPKI TOTAL: 0.15771 MSHR LATE: 0 PQ LATE: 0 COMMIT LATE: 0 MISSED OPPORTUNITY: 0 UNCOVERED: 0
LLC PREFETCHES SAME FILL-ORIGIN LEVEL: 0 DIFFERENT FILL-ORIGIN LEVEL: 0
LLC AVERAGE MISS LATENCY: 251.868 cycles
LLC AVERAGE MISS LATENCY LOAD: 164.695 cycles
LLC AVERAGE MISS LATENCY PREFETCH: 196.61 cycles
LLC AVERAGE MSHR OCCUPANCY: 6.62285
LLC MSHR FULL: 0
LLC RQ	ACCESS:    1231739	FORWARD:          0	MERGED:          0	TO_CACHE:    1231737
LLC WQ	ACCESS:    1227513	FORWARD:          2	MERGED:          0	TO_CACHE:    1227513
LLC PQ	ACCESS:    1688885	FORWARD:          0	MERGED:          0	TO_CACHE:    1688885

LLC Dense regions hint to LLC: 0

RAW hits: 1053284
Loads Generated: 58645943
Loads sent to L1D: 57592655
Stores Generated: 36649052
Stores sent to L1D: 36649060
Major fault: 0 Minor fault: 48769
Allocated PAGES: 48769
Total Load insts: 68632449
Total Non-spec loads: 6409019
Percentage of speculative loads: 90.6618

LeapFrogging counter: 8
Commit hits: 28949226 miss: 22975313
Commit hit %: 55.7525 miss %: 44.2475
Commits not translated: 0
Loads retired: 669521
Stores retired: 36649060
Cache fills: 669521
L1D response latency: 21.1931 cycles
Load retirement latency: 46.5799 cycles
OOO test counter: 0
Discarded buffer inserts: 28949226 hits: 456475 hit %: 1.57681
Filter prediction accuracy: 99.738
ALL MISSES SIZE: 2748
LATENCY_FILL: 21.3519 671323
LATENCY_FILL_ROB: 32.1683 671211
test counter pref: 1036791
Max ROB Extended: 10

DRAM Statistics
 CHANNEL 0
 RQ ROW_BUFFER_HIT:    1244955  ROW_BUFFER_MISS:    1487304
 DBUS_CONGESTED:       3862
 WQ ROW_BUFFER_HIT:     429327  ROW_BUFFER_MISS:     796197  FULL:          0

 AVG_CONGESTED_CYCLE: 5
 All warmup complete: 2
Channel 0 Bank busy for read cycles: 0
Channel 0 Bank busy for write cycles: 0
Channel 0
Rank 0
0banks busy for read cycles: 1014118
0banks busy for write cycles: 6340
1banks busy for read cycles: 52067951
1banks busy for write cycles: 901020
2banks busy for read cycles: 36868710
2banks busy for write cycles: 1096338
3banks busy for read cycles: 21484742
3banks busy for write cycles: 1304629
4banks busy for read cycles: 12819443
4banks busy for write cycles: 1517108
5banks busy for read cycles: 5852703
5banks busy for write cycles: 1746120
6banks busy for read cycles: 1377744
6banks busy for write cycles: 2202095
7banks busy for read cycles: 929931
7banks busy for write cycles: 4060338
8banks busy for read cycles: 175562
8banks busy for write cycles: 21420001

CPU 0 Branch Prediction Accuracy: 99.9697% MPKI: 0.00256 Average ROB Occupancy at Mispredict: 56.1465
Branch types
NOT_BRANCH: 198311676 99.1558%
BRANCH_DIRECT_JUMP: 0 0%
BRANCH_INDIRECT: 0 0%
BRANCH_CONDITIONAL: 1688003 0.844001%
BRANCH_DIRECT_CALL: 0 0%
BRANCH_INDIRECT_CALL: 0 0%
BRANCH_RETURN: 0 0%
BRANCH_OTHER: 0 0%

DRAM PAGES: 1048576
Allocated PAGES: 48769
