
*** ChampSim Multicore Out-of-Order Simulator ***

Warmup Instructions: 50000000
Simulation Instructions: 200000000
Number of CPUs: 1
LLC sets: 2048
LLC ways: 16
L0D sets: 16
L0D ways: 2
ROB size: 352
LQ size: 128
SQ size: 72
Secure Berti: ON
Berti: ON
Berti Fill: ON
On commit prefetching: OFF
Hit-based filter: ON
Time-guarding: ON
Free-slotting: ON
Leap-frogging: ON
Train prefetcher on L0D bypass: OFF
No translation penalty for prefetchers: OFF
Prefetch to L0D only: OFF
Prefetch to L1D only: OFF
Clean evictions: ON
Commit loads: ON
Commit write: ON
Fill commit loads to L2C, LLC: ON
DRAM IO FREQUENCY: 6400
ROB SIZE: 352
Off-chip DRAM Size: 4096 MB Channels: 1 Width: 64-bit Data Rate: 6400 MT/s
CPU 0 runs /home/sumon/secure_berti/GhostMinion/../../traces/spec/603.bwaves_s-2609B.champsimtrace.xz
.xz
BTB has LRU replacement policy
ITLB has LRU replacement policy
DTLB has LRU replacement policy
STLB has LRU replacement policy
L1I has LRU replacement policy
L0D has LRU replacement policy
Berti version on_commit
History Sets: 8
History Ways: 16
BERTI Size: 16
BERTI Stride Size: 16
L1D has LRU replacement policy
L2C has LRU replacement policy
LLC has LRU replacement policy
Heartbeat CPU 0 instructions: 10000002 cycles: 3573147 heartbeat IPC: 2.79865 cumulative IPC: 2.79865 (Simulation time: 0 hr 1 min 28 sec) 
Heartbeat CPU 0 instructions: 20000003 cycles: 7144282 heartbeat IPC: 2.80023 cumulative IPC: 2.79944 (Simulation time: 0 hr 2 min 59 sec) 
Heartbeat CPU 0 instructions: 30000001 cycles: 10720140 heartbeat IPC: 2.79653 cumulative IPC: 2.79847 (Simulation time: 0 hr 4 min 25 sec) 
Heartbeat CPU 0 instructions: 40000002 cycles: 14295263 heartbeat IPC: 2.79711 cumulative IPC: 2.79813 (Simulation time: 0 hr 5 min 22 sec) 
Heartbeat CPU 0 instructions: 50000003 cycles: 17868533 heartbeat IPC: 2.79856 cumulative IPC: 2.79822 (Simulation time: 0 hr 6 min 11 sec) 

Warmup complete CPU 0 instructions: 50000003 cycles: 17868533 (Simulation time: 0 hr 6 min 11 sec) 

Heartbeat CPU 0 instructions: 60000000 cycles: 27776574 heartbeat IPC: 1.00928 cumulative IPC: 1.00928 (Simulation time: 0 hr 7 min 25 sec) 
Heartbeat CPU 0 instructions: 70000000 cycles: 37660268 heartbeat IPC: 1.01177 cumulative IPC: 1.01052 (Simulation time: 0 hr 8 min 47 sec) 
Heartbeat CPU 0 instructions: 80000003 cycles: 47537694 heartbeat IPC: 1.01241 cumulative IPC: 1.01115 (Simulation time: 0 hr 10 min 9 sec) 
Heartbeat CPU 0 instructions: 90000003 cycles: 57412629 heartbeat IPC: 1.01266 cumulative IPC: 1.01153 (Simulation time: 0 hr 11 min 28 sec) 
Heartbeat CPU 0 instructions: 100000001 cycles: 67329659 heartbeat IPC: 1.00837 cumulative IPC: 1.01089 (Simulation time: 0 hr 12 min 46 sec) 
Heartbeat CPU 0 instructions: 110000000 cycles: 77199803 heartbeat IPC: 1.01316 cumulative IPC: 1.01127 (Simulation time: 0 hr 14 min 3 sec) 
Heartbeat CPU 0 instructions: 120000000 cycles: 87072345 heartbeat IPC: 1.01291 cumulative IPC: 1.0115 (Simulation time: 0 hr 15 min 21 sec) 
Heartbeat CPU 0 instructions: 130000003 cycles: 96957354 heartbeat IPC: 1.01163 cumulative IPC: 1.01152 (Simulation time: 0 hr 16 min 39 sec) 
Heartbeat CPU 0 instructions: 140000000 cycles: 106824046 heartbeat IPC: 1.01351 cumulative IPC: 1.01174 (Simulation time: 0 hr 17 min 33 sec) 
Heartbeat CPU 0 instructions: 150000002 cycles: 116727590 heartbeat IPC: 1.00974 cumulative IPC: 1.01154 (Simulation time: 0 hr 18 min 19 sec) 
Heartbeat CPU 0 instructions: 160000000 cycles: 126617225 heartbeat IPC: 1.01116 cumulative IPC: 1.01151 (Simulation time: 0 hr 19 min 12 sec) 
Heartbeat CPU 0 instructions: 170000000 cycles: 136490265 heartbeat IPC: 1.01286 cumulative IPC: 1.01162 (Simulation time: 0 hr 19 min 57 sec) 
Heartbeat CPU 0 instructions: 180000001 cycles: 146369817 heartbeat IPC: 1.01219 cumulative IPC: 1.01166 (Simulation time: 0 hr 20 min 40 sec) 
Heartbeat CPU 0 instructions: 190000000 cycles: 156253840 heartbeat IPC: 1.01173 cumulative IPC: 1.01167 (Simulation time: 0 hr 21 min 24 sec) 
Heartbeat CPU 0 instructions: 200000000 cycles: 166131241 heartbeat IPC: 1.01241 cumulative IPC: 1.01172 (Simulation time: 0 hr 22 min 6 sec) 
Heartbeat CPU 0 instructions: 210000003 cycles: 176012424 heartbeat IPC: 1.01202 cumulative IPC: 1.01174 (Simulation time: 0 hr 22 min 47 sec) 
Heartbeat CPU 0 instructions: 220000000 cycles: 185905080 heartbeat IPC: 1.01085 cumulative IPC: 1.01168 (Simulation time: 0 hr 23 min 29 sec) 
Heartbeat CPU 0 instructions: 230000002 cycles: 195792619 heartbeat IPC: 1.01137 cumulative IPC: 1.01167 (Simulation time: 0 hr 24 min 10 sec) 
Heartbeat CPU 0 instructions: 240000000 cycles: 205664592 heartbeat IPC: 1.01297 cumulative IPC: 1.01174 (Simulation time: 0 hr 24 min 50 sec) 
Heartbeat CPU 0 instructions: 250000002 cycles: 215548691 heartbeat IPC: 1.01173 cumulative IPC: 1.01174 (Simulation time: 0 hr 25 min 30 sec) 
Finished CPU 0 instructions: 200000003 cycles: 197680163 cumulative IPC: 1.01174 (Simulation time: 0 hr 25 min 30 sec) 
 Instruction ID: 250000052

ChampSim completed all CPUs

Region of Interest Statistics

CPU 0 cumulative IPC: 1.01174 instructions: 200000003 cycles: 197680163
ITLB SPEC fills:          0  NON-SPEC fills:          0
ITLB Test counter :          0
ITLB Leapfrog:          0
ITLB MSHR merge:          0
ITLB TOTAL     ACCESS:   25346636  HIT:   25346636  MISS:          0  HIT %:        100  MISS %:          0   MPKI: 0
ITLB LOAD TRANSLATION NON_SPEC    ACCESS:   25346636  HIT:   25346636  MISS:          0  HIT %:        100  MISS %:          0   MPKI: 0
ITLB PREFETCH  REQUESTED:          0  ISSUED:          0  USEFUL:          0  USELESS:          0
ITLB USEFUL LOAD PREFETCHES:          0 PREFETCH ISSUED TO LOWER LEVEL:          0  ACCURACY: -nan
ITLB TIMELY PREFETCHES:          0 LATE PREFETCHES: 0 DROPPED PREFETCHES: 0
ITLB COMMIT LATE PREFETCHES: 0 MISSED OPPORTUNITY: 0 LATE IN PQ: 0 UNCOVERED: 0
ITLB COMMIT LATE MSHR PREFETCHES: 0
ITLB MPKI TOTAL: 0 MSHR LATE: 0 PQ LATE: 0 COMMIT LATE: 0 MISSED OPPORTUNITY: 0 UNCOVERED: 0
ITLB PREFETCHES SAME FILL-ORIGIN LEVEL: 0 DIFFERENT FILL-ORIGIN LEVEL: 0
ITLB AVERAGE MISS LATENCY: -nan cycles
ITLB AVERAGE MISS LATENCY LOAD: -nan cycles
ITLB AVERAGE MISS LATENCY PREFETCH: -nan cycles
ITLB AVERAGE MSHR OCCUPANCY: 0
ITLB MSHR FULL: 0
ITLB RQ	ACCESS:   34389720	FORWARD:          0	MERGED:    9043084	TO_CACHE:   25346636

DTLB SPEC fills:          0  NON-SPEC fills:          0
DTLB Test counter :          0
DTLB Leapfrog:          0
DTLB MSHR merge:          0
DTLB TOTAL     ACCESS:   73901540  HIT:   73760586  MISS:     140954  HIT %:    99.8093  MISS %:   0.190732   MPKI: 0.70477
DTLB LOAD TRANSLATION NON_SPEC    ACCESS:   73901540  HIT:   73760586  MISS:     140954  HIT %:    99.8093  MISS %:   0.190732   MPKI: 0.70477
DTLB PREFETCH  REQUESTED:          0  ISSUED:          0  USEFUL:          0  USELESS:          0
DTLB USEFUL LOAD PREFETCHES:          0 PREFETCH ISSUED TO LOWER LEVEL:          0  ACCURACY: -nan
DTLB TIMELY PREFETCHES:          0 LATE PREFETCHES: 0 DROPPED PREFETCHES: 0
DTLB COMMIT LATE PREFETCHES: 0 MISSED OPPORTUNITY: 0 LATE IN PQ: 0 UNCOVERED: 0
DTLB COMMIT LATE MSHR PREFETCHES: 0
DTLB MPKI TOTAL: 0 MSHR LATE: 0 PQ LATE: 0 COMMIT LATE: 0 MISSED OPPORTUNITY: 0 UNCOVERED: 0
DTLB PREFETCHES SAME FILL-ORIGIN LEVEL: 0 DIFFERENT FILL-ORIGIN LEVEL: 0
DTLB AVERAGE MISS LATENCY: 277.79 cycles
DTLB AVERAGE MISS LATENCY LOAD: -nan cycles
DTLB AVERAGE MISS LATENCY PREFETCH: -nan cycles
DTLB AVERAGE MSHR OCCUPANCY: 0.0205727
DTLB MSHR FULL: 1.44321e-05
DTLB RQ	ACCESS:   86389533	FORWARD:          0	MERGED:   12457201	TO_CACHE:   73932332

STLB SPEC fills:          0  NON-SPEC fills:          0
STLB Test counter :          0
STLB Leapfrog:          0
STLB MSHR merge:          0
STLB TOTAL     ACCESS:   20730173  HIT:   20670791  MISS:      59382  HIT %:    99.7135  MISS %:   0.286452   MPKI: 0.29691
STLB LOAD TRANSLATION NON_SPEC    ACCESS:     140954  HIT:      83864  MISS:      57090  HIT %:    59.4974  MISS %:    40.5026   MPKI: 0.28545
STLB TRANSLATION FROM L1D PREFETCHER NON_SPEC    ACCESS:   20589219  HIT:   20586927  MISS:       2292  HIT %:    99.9889  MISS %:   0.011132   MPKI: 0.01146
STLB PREFETCH  REQUESTED:          0  ISSUED:          0  USEFUL:       2292  USELESS:          0
STLB USEFUL LOAD PREFETCHES:       2292 PREFETCH ISSUED TO LOWER LEVEL:          0  ACCURACY: inf
STLB TIMELY PREFETCHES:       2292 LATE PREFETCHES: 16397 DROPPED PREFETCHES: 336779
STLB COMMIT LATE PREFETCHES: 0 MISSED OPPORTUNITY: 0 LATE IN PQ: 0 UNCOVERED: 0
STLB COMMIT LATE MSHR PREFETCHES: 0
STLB MPKI TOTAL: 0 MSHR LATE: 0.081985 PQ LATE: 0 COMMIT LATE: 0 MISSED OPPORTUNITY: 0 UNCOVERED: 0
STLB PREFETCHES SAME FILL-ORIGIN LEVEL: 0 DIFFERENT FILL-ORIGIN LEVEL: 0
STLB AVERAGE MISS LATENCY: 642.164 cycles
STLB AVERAGE MISS LATENCY LOAD: -nan cycles
STLB AVERAGE MISS LATENCY PREFETCH: -nan cycles
STLB AVERAGE MSHR OCCUPANCY: 0.0906238
STLB MSHR FULL: 0
STLB RQ	ACCESS:   91472181	FORWARD:          0	MERGED:   70334490	TO_CACHE:   21137691

STLB Hit, L1D data hit: 0
STLB Hit, L2C data hit: 0
STLB Hit, LLC data hit: 0
STLB Hit, LLC data miss: 0
STLB STLB hints to L2: 0
L0D SPEC fills:   48391330  NON-SPEC fills:          0
L0D TimeGuard Request with older TS:    1605433 Restricted eviction:   12311180 read:     163466
L0D Test counter :          0
L0D Leapfrog:          0
L0D MSHR merge:    2302026
L0D TOTAL     ACCESS:   72820708  HIT:    6576216  MISS:   66244492  HIT %:    9.03069  MISS %:    90.9693   MPKI: 331.222
L0D LOAD      TOTAL       ACCESS:   72820708  HIT:    6576216  MISS:   66244492  HIT %:    9.03069  MISS %:    90.9693   MPKI: 331.222
L0D LOAD      NON_SPEC    ACCESS:    5882719  HIT:     337804  MISS:    5544915  HIT %:    5.74231  MISS %:    94.2577   MPKI: 27.7246
L0D LOAD      SPEC        ACCESS:   66937989  HIT:    6238412  MISS:   60699577  HIT %:    9.31969  MISS %:    90.6803   MPKI: 303.498
L0D PREFETCH  REQUESTED:          0  ISSUED:          0  USEFUL:          0  USELESS:          0
L0D USEFUL LOAD PREFETCHES:          0 PREFETCH ISSUED TO LOWER LEVEL:          0  ACCURACY: -nan
L0D TIMELY PREFETCHES:          0 LATE PREFETCHES: 0 DROPPED PREFETCHES: 0
L0D COMMIT LATE PREFETCHES: 0 MISSED OPPORTUNITY: 0 LATE IN PQ: 0 UNCOVERED: 0
L0D COMMIT LATE MSHR PREFETCHES: 0
L0D MPKI TOTAL: 342.733 MSHR LATE: 0 PQ LATE: 0 COMMIT LATE: 0 MISSED OPPORTUNITY: 0 UNCOVERED: 0
L0D PREFETCHES SAME FILL-ORIGIN LEVEL: 0 DIFFERENT FILL-ORIGIN LEVEL: 0
L0D AVERAGE MISS LATENCY: 5.73058 cycles
L0D AVERAGE MISS LATENCY LOAD: 5.73058 cycles
L0D AVERAGE MISS LATENCY PREFETCH: -nan cycles
L0D AVERAGE MSHR OCCUPANCY: 1.72212
L0D MSHR FULL: 0.00802329
L0D RQ	ACCESS:   85464437	FORWARD:          0	MERGED:   10341719	TO_CACHE:   75122718
L0D WQ	ACCESS:   11266815	FORWARD:          0	MERGED:          0	TO_CACHE:   11266815

L1D SPEC fills:          0  NON-SPEC fills:       5327
L1D Test counter :     163980
L1D Leapfrog:          0
L1D MSHR merge:      80960
L1D TOTAL     ACCESS:  162375067  HIT:  158126595  MISS:    4248472  HIT %:    97.3835  MISS %:    2.61646   MPKI: 21.2424
L1D LOAD      TOTAL       ACCESS:   66221889  HIT:   65972346  MISS:     249543  HIT %:    99.6232  MISS %:   0.376829   MPKI: 1.24771
L1D LOAD      NON_SPEC    ACCESS:    5544720  HIT:    5539393  MISS:       5327  HIT %:    99.9039  MISS %:  0.0960734   MPKI: 0.026635
L1D LOAD      SPEC        ACCESS:   60677169  HIT:   60432953  MISS:     244216  HIT %:    99.5975  MISS %:   0.402484   MPKI: 1.22108
L1D RFO       NON_SPEC    ACCESS:   11184568  HIT:   11087120  MISS:      97448  HIT %:    99.1287  MISS %:   0.871272   MPKI: 0.48724
L1D PREFETCH  NON_SPEC    ACCESS:   84613208  HIT:   80942621  MISS:    3670587  HIT %:    95.6619  MISS %:    4.33808   MPKI: 18.3529
L1D COMMIT LOAD NON_SPEC    ACCESS:     159015  HIT:     101960  MISS:      57055  HIT %:    64.1197  MISS %:    35.8803   MPKI: 0.285275
L1D COMMIT WRITE NON_SPEC    ACCESS:     196387  HIT:      22548  MISS:     173839  HIT %:    11.4814  MISS %:    88.5186   MPKI: 0.869195
L1D PREFETCH  REQUESTED:  247840530  ISSUED:   93556510  USEFUL:    3667808  USELESS:       2797
L1D USEFUL LOAD PREFETCHES:    3667808 PREFETCH ISSUED TO LOWER LEVEL:    7815243  ACCURACY: 46.9315
L1D TIMELY PREFETCHES:    3667808 LATE PREFETCHES: 67578 DROPPED PREFETCHES: 1006496
L1D COMMIT LATE PREFETCHES: 0 MISSED OPPORTUNITY: 0 LATE IN PQ: 0 UNCOVERED: 0
L1D COMMIT LATE MSHR PREFETCHES: 0
L1D MPKI TOTAL: 1.36072 MSHR LATE: 0.33789 PQ LATE: 0 COMMIT LATE: 0 MISSED OPPORTUNITY: 0 UNCOVERED: 0
L1D PREFETCHES SAME FILL-ORIGIN LEVEL: 3738386 DIFFERENT FILL-ORIGIN LEVEL: 4076857
L1D AVERAGE MISS LATENCY: 129.748 cycles
L1D AVERAGE MISS LATENCY LOAD: 138.6 cycles
L1D AVERAGE MISS LATENCY PREFETCH: 133.032 cycles
L1D AVERAGE MSHR OCCUPANCY: 2.76017
L1D MSHR FULL: 0.0158734
L1D RQ	ACCESS:   66419118	FORWARD:          0	MERGED:       3084	TO_CACHE:   66416034
L1D WQ	ACCESS:   11463201	FORWARD:          0	MERGED:        176	TO_CACHE:   11463025
L1D PQ	ACCESS:   93556510	FORWARD:          0	MERGED:    2225283	TO_CACHE:   91331227

L1D UNIQUE REGIONS ACCESSED: 0
L1D REGIONS CONFLICTS: 0
L1D Cross Page Prefetch Requests: 3186169
L1D Same Page Prefetch Requests: 110516952
L1D ROI Sum of L1D PQ occupancy: 1829241219
L1D PREFETCHES PUSHED FROM L2C: 0
L1I SPEC fills:          0  NON-SPEC fills:          0
L1I Test counter :          0
L1I Leapfrog:          0
L1I MSHR merge:          0
L1I TOTAL     ACCESS:   34389719  HIT:   34389719  MISS:          0  HIT %:        100  MISS %:          0   MPKI: 0
L1I LOAD      TOTAL       ACCESS:   34389719  HIT:   34389719  MISS:          0  HIT %:        100  MISS %:          0   MPKI: 0
L1I LOAD      NON_SPEC    ACCESS:   34389719  HIT:   34389719  MISS:          0  HIT %:        100  MISS %:          0   MPKI: 0
L1I PREFETCH  REQUESTED:          0  ISSUED:          0  USEFUL:          0  USELESS:          0
L1I USEFUL LOAD PREFETCHES:          0 PREFETCH ISSUED TO LOWER LEVEL:          0  ACCURACY: -nan
L1I TIMELY PREFETCHES:          0 LATE PREFETCHES: 0 DROPPED PREFETCHES: 0
L1I COMMIT LATE PREFETCHES: 0 MISSED OPPORTUNITY: 0 LATE IN PQ: 0 UNCOVERED: 0
L1I COMMIT LATE MSHR PREFETCHES: 0
L1I MPKI TOTAL: 0 MSHR LATE: 0 PQ LATE: 0 COMMIT LATE: 0 MISSED OPPORTUNITY: 0 UNCOVERED: 0
L1I PREFETCHES SAME FILL-ORIGIN LEVEL: 0 DIFFERENT FILL-ORIGIN LEVEL: 0
L1I AVERAGE MISS LATENCY: -nan cycles
L1I AVERAGE MISS LATENCY LOAD: -nan cycles
L1I AVERAGE MISS LATENCY PREFETCH: -nan cycles
L1I AVERAGE MSHR OCCUPANCY: 0
L1I MSHR FULL: 0
L1I RQ	ACCESS:   45821696	FORWARD:          0	MERGED:   11431976	TO_CACHE:   34389720

BTB SPEC fills:          0  NON-SPEC fills:          0
BTB Test counter :          0
BTB Leapfrog:          0
BTB MSHR merge:          0
BTB TOTAL     ACCESS:    4834901  HIT:    4834896  MISS:          5  HIT %:    99.9999  MISS %: 0.000103415   MPKI: 2.5e-05
BTB BRANCH_DIRECT_JUMP	ACCESS:          0  HIT:          0  MISS:          0
BTB BRANCH_INDIRECT	ACCESS:          0  HIT:          0  MISS:          0
BTB BRANCH_CONDITIONAL	ACCESS:    4834901  HIT:    4834896  MISS:          5
BTB BRANCH_DIRECT_CALL	ACCESS:          0  HIT:          0  MISS:          0
BTB BRANCH_INDIRECT_CALL	ACCESS:          0  HIT:          0  MISS:          0
BTB BRANCH_RETURN	ACCESS:          0  HIT:          0  MISS:          0
BTB BRANCH_OTHER ACCESS:          0  HIT:          0  MISS:          0

L2C SPEC fills:          0  NON-SPEC fills:       3551
L2C Test counter :     162092
L2C Leapfrog:          0
L2C MSHR merge:       1676
L2C TOTAL     ACCESS:    9981320  HIT:    6029220  MISS:    3952100  HIT %:     60.405  MISS %:     39.595   MPKI: 19.7605
L2C LOAD      TOTAL       ACCESS:     191182  HIT:      44051  MISS:     147131  HIT %:    23.0414  MISS %:    76.9586   MPKI: 0.735655
L2C LOAD      NON_SPEC    ACCESS:       4170  HIT:        619  MISS:       3551  HIT %:    14.8441  MISS %:    85.1559   MPKI: 0.017755
L2C LOAD      SPEC        ACCESS:     187012  HIT:      43432  MISS:     143580  HIT %:    23.2242  MISS %:    76.7758   MPKI: 0.7179
L2C RFO       NON_SPEC    ACCESS:      97448  HIT:          0  MISS:      97448  HIT %:          0  MISS %:        100   MPKI: 0.48724
L2C PREFETCH  NON_SPEC    ACCESS:    7321577  HIT:    3750902  MISS:    3570675  HIT %:    51.2308  MISS %:    48.7692   MPKI: 17.8534
L2C WRITEBACK NON_SPEC    ACCESS:      97464  HIT:      97464  MISS:          0  HIT %:        100  MISS %:          0   MPKI: 0
L2C CLEAN_EVICTION NON_SPEC    ACCESS:     163980  HIT:      68298  MISS:      95682  HIT %:    41.6502  MISS %:    58.3498   MPKI: 0.47841
L2C COMMIT LOAD NON_SPEC    ACCESS:      47835  HIT:      14108  MISS:      33727  HIT %:     29.493  MISS %:     70.507   MPKI: 0.168635
L2C LOAD TRANSLATION NON_SPEC    ACCESS:     285204  HIT:     284716  MISS:        488  HIT %:    99.8289  MISS %:   0.171106   MPKI: 0.00244
L2C TRANSLATION FROM L1D PREFETCHER NON_SPEC    ACCESS:    1776630  HIT:    1769681  MISS:       6949  HIT %:    99.6089  MISS %:   0.391134   MPKI: 0.034745
L2C PREFETCH  REQUESTED:          0  ISSUED:          0  USEFUL:      54086  USELESS:    3523758
L2C USEFUL LOAD PREFETCHES:      54086 PREFETCH ISSUED TO LOWER LEVEL:    3573221  ACCURACY: 1.51365
L2C TIMELY PREFETCHES:      54086 LATE PREFETCHES: 2546 DROPPED PREFETCHES: 0
L2C COMMIT LATE PREFETCHES: 0 MISSED OPPORTUNITY: 0 LATE IN PQ: 0 UNCOVERED: 0
L2C COMMIT LATE MSHR PREFETCHES: 0
L2C MPKI TOTAL: 0.735655 MSHR LATE: 0.01273 PQ LATE: 0 COMMIT LATE: 0 MISSED OPPORTUNITY: 0 UNCOVERED: 0
L2C PREFETCHES SAME FILL-ORIGIN LEVEL: 1132476 DIFFERENT FILL-ORIGIN LEVEL: 0
L2C AVERAGE MISS LATENCY: 168.767 cycles
L2C AVERAGE MISS LATENCY LOAD: 156.27 cycles
L2C AVERAGE MISS LATENCY PREFETCH: 172.568 cycles
L2C AVERAGE MSHR OCCUPANCY: 1.94407
L2C MSHR FULL: 0.000566788
L2C RQ	ACCESS:    2398303	FORWARD:          0	MERGED:          0	TO_CACHE:    2398300
L2C WQ	ACCESS:     261444	FORWARD:          3	MERGED:          0	TO_CACHE:     261444
L2C PQ	ACCESS:    7812803	FORWARD:          0	MERGED:        826	TO_CACHE:    7811977

L2C Instructions Evicting Data 0
L2C Translations Evicting Data 7436
L2C Data Evicting Data 3698154
L2C Instructions Evicting Instructions 0
L2C Translations Evicting Instructions 0
L2C Data Evicting Instructions 0
L2C Instructions Evicting Translations 0
L2C Translations Evicting Translations 1
L2C Data Evicting Translations 7247
L2C Dense regions hint from L2: 0
PSCL5 SPEC fills:          0  NON-SPEC fills:          0
PSCL5 Test counter :          0
PSCL5 Leapfrog:          0
PSCL5 MSHR merge:          0
PSCL5 TOTAL     ACCESS:          0  HIT:          0  MISS:          0  HIT %:       -nan  MISS %:       -nan   MPKI: 0
PSCL5 PREFETCH  REQUESTED:          0  ISSUED:          0  USEFUL:          0  USELESS:          0
PSCL5 USEFUL LOAD PREFETCHES:          0 PREFETCH ISSUED TO LOWER LEVEL:          0  ACCURACY: -nan
PSCL5 TIMELY PREFETCHES:          0 LATE PREFETCHES: 0 DROPPED PREFETCHES: 0
PSCL5 COMMIT LATE PREFETCHES: 0 MISSED OPPORTUNITY: 0 LATE IN PQ: 0 UNCOVERED: 0
PSCL5 COMMIT LATE MSHR PREFETCHES: 0
PSCL5 MPKI TOTAL: 0 MSHR LATE: 0 PQ LATE: 0 COMMIT LATE: 0 MISSED OPPORTUNITY: 0 UNCOVERED: 0
PSCL5 PREFETCHES SAME FILL-ORIGIN LEVEL: 0 DIFFERENT FILL-ORIGIN LEVEL: 0

PSCL4 SPEC fills:          0  NON-SPEC fills:          0
PSCL4 Test counter :          0
PSCL4 Leapfrog:          0
PSCL4 MSHR merge:          0
PSCL4 TOTAL     ACCESS:          0  HIT:          0  MISS:          0  HIT %:       -nan  MISS %:       -nan   MPKI: 0
PSCL4 PREFETCH  REQUESTED:          0  ISSUED:          0  USEFUL:          0  USELESS:          0
PSCL4 USEFUL LOAD PREFETCHES:          0 PREFETCH ISSUED TO LOWER LEVEL:          0  ACCURACY: -nan
PSCL4 TIMELY PREFETCHES:          0 LATE PREFETCHES: 0 DROPPED PREFETCHES: 0
PSCL4 COMMIT LATE PREFETCHES: 0 MISSED OPPORTUNITY: 0 LATE IN PQ: 0 UNCOVERED: 0
PSCL4 COMMIT LATE MSHR PREFETCHES: 0
PSCL4 MPKI TOTAL: 0 MSHR LATE: 0 PQ LATE: 0 COMMIT LATE: 0 MISSED OPPORTUNITY: 0 UNCOVERED: 0
PSCL4 PREFETCHES SAME FILL-ORIGIN LEVEL: 0 DIFFERENT FILL-ORIGIN LEVEL: 0

PSCL3 SPEC fills:          0  NON-SPEC fills:          0
PSCL3 Test counter :          0
PSCL3 Leapfrog:          0
PSCL3 MSHR merge:          0
PSCL3 TOTAL     ACCESS:          0  HIT:          0  MISS:          0  HIT %:       -nan  MISS %:       -nan   MPKI: 0
PSCL3 PREFETCH  REQUESTED:          0  ISSUED:          0  USEFUL:          0  USELESS:          0
PSCL3 USEFUL LOAD PREFETCHES:          0 PREFETCH ISSUED TO LOWER LEVEL:          0  ACCURACY: -nan
PSCL3 TIMELY PREFETCHES:          0 LATE PREFETCHES: 0 DROPPED PREFETCHES: 0
PSCL3 COMMIT LATE PREFETCHES: 0 MISSED OPPORTUNITY: 0 LATE IN PQ: 0 UNCOVERED: 0
PSCL3 COMMIT LATE MSHR PREFETCHES: 0
PSCL3 MPKI TOTAL: 0 MSHR LATE: 0 PQ LATE: 0 COMMIT LATE: 0 MISSED OPPORTUNITY: 0 UNCOVERED: 0
PSCL3 PREFETCHES SAME FILL-ORIGIN LEVEL: 0 DIFFERENT FILL-ORIGIN LEVEL: 0

PSCL2 SPEC fills:          0  NON-SPEC fills:          0
PSCL2 Test counter :          0
PSCL2 Leapfrog:          0
PSCL2 MSHR merge:          0
PSCL2 TOTAL     ACCESS:          0  HIT:          0  MISS:          0  HIT %:       -nan  MISS %:       -nan   MPKI: 0
PSCL2 PREFETCH  REQUESTED:          0  ISSUED:          0  USEFUL:          0  USELESS:          0
PSCL2 USEFUL LOAD PREFETCHES:          0 PREFETCH ISSUED TO LOWER LEVEL:          0  ACCURACY: -nan
PSCL2 TIMELY PREFETCHES:          0 LATE PREFETCHES: 0 DROPPED PREFETCHES: 0
PSCL2 COMMIT LATE PREFETCHES: 0 MISSED OPPORTUNITY: 0 LATE IN PQ: 0 UNCOVERED: 0
PSCL2 COMMIT LATE MSHR PREFETCHES: 0
PSCL2 MPKI TOTAL: 0 MSHR LATE: 0 PQ LATE: 0 COMMIT LATE: 0 MISSED OPPORTUNITY: 0 UNCOVERED: 0
PSCL2 PREFETCHES SAME FILL-ORIGIN LEVEL: 0 DIFFERENT FILL-ORIGIN LEVEL: 0

LLC SPEC fills:          0  NON-SPEC fills:       3516
LLC Test counter :     160536
LLC Leapfrog:          0
LLC MSHR merge:          0
LLC TOTAL     ACCESS:    4115993  HIT:     166688  MISS:    3949305  HIT %:    4.04976  MISS %:    95.9502   MPKI: 19.7465
LLC LOAD      TOTAL       ACCESS:     145455  HIT:        421  MISS:     145034  HIT %:   0.289437  MISS %:    99.7106   MPKI: 0.72517
LLC LOAD      NON_SPEC    ACCESS:       3516  HIT:          0  MISS:       3516  HIT %:          0  MISS %:        100   MPKI: 0.01758
LLC LOAD      SPEC        ACCESS:     141939  HIT:        421  MISS:     141518  HIT %:   0.296606  MISS %:    99.7034   MPKI: 0.70759
LLC RFO       NON_SPEC    ACCESS:      97448  HIT:          0  MISS:      97448  HIT %:          0  MISS %:        100   MPKI: 0.48724
LLC PREFETCH  NON_SPEC    ACCESS:    3573221  HIT:        318  MISS:    3572903  HIT %: 0.00889953  MISS %:    99.9911   MPKI: 17.8645
LLC WRITEBACK NON_SPEC    ACCESS:      97483  HIT:      97483  MISS:          0  HIT %:        100  MISS %:          0   MPKI: 0
LLC CLEAN_EVICTION NON_SPEC    ACCESS:     162092  HIT:      68146  MISS:      93946  HIT %:    42.0416  MISS %:    57.9584   MPKI: 0.46973
LLC COMMIT LOAD NON_SPEC    ACCESS:      32857  HIT:        320  MISS:      32537  HIT %:   0.973917  MISS %:    99.0261   MPKI: 0.162685
LLC LOAD TRANSLATION NON_SPEC    ACCESS:        488  HIT:          0  MISS:        488  HIT %:          0  MISS %:        100   MPKI: 0.00244
LLC TRANSLATION FROM L1D PREFETCHER NON_SPEC    ACCESS:       6949  HIT:          0  MISS:       6949  HIT %:          0  MISS %:        100   MPKI: 0.034745
LLC PREFETCH  REQUESTED:          0  ISSUED:          0  USEFUL:        334  USELESS:    3580169
LLC USEFUL LOAD PREFETCHES:        334 PREFETCH ISSUED TO LOWER LEVEL:    3572903  ACCURACY: 0.00934814
LLC TIMELY PREFETCHES:        334 LATE PREFETCHES: 0 DROPPED PREFETCHES: 0
LLC COMMIT LATE PREFETCHES: 0 MISSED OPPORTUNITY: 0 LATE IN PQ: 0 UNCOVERED: 0
LLC COMMIT LATE MSHR PREFETCHES: 0
LLC MPKI TOTAL: 0.72517 MSHR LATE: 0 PQ LATE: 0 COMMIT LATE: 0 MISSED OPPORTUNITY: 0 UNCOVERED: 0
LLC PREFETCHES SAME FILL-ORIGIN LEVEL: 0 DIFFERENT FILL-ORIGIN LEVEL: 0
LLC AVERAGE MISS LATENCY: 138.574 cycles
LLC AVERAGE MISS LATENCY LOAD: 117.339 cycles
LLC AVERAGE MISS LATENCY PREFETCH: 141.827 cycles
LLC AVERAGE MSHR OCCUPANCY: 3.80301
LLC MSHR FULL: 0
LLC RQ	ACCESS:     283197	FORWARD:          0	MERGED:          0	TO_CACHE:     283197
LLC WQ	ACCESS:     259575	FORWARD:          0	MERGED:          0	TO_CACHE:     259575
LLC PQ	ACCESS:    3573221	FORWARD:          0	MERGED:          0	TO_CACHE:    3573221

LLC Dense regions hint to LLC: 0

RAW hits: 495754
Loads Generated: 85960192
Loads sent to L1D: 85464437
Stores Generated: 11266823
Stores sent to L1D: 11266815
Major fault: 0 Minor fault: 70872
Allocated PAGES: 70872
Total Load insts: 106175233
Total Non-spec loads: 6356120
Percentage of speculative loads: 94.0136

LeapFrogging counter: 552366
Commit hits: 47048523 miss: 32457172
Commit hit %: 59.1763 miss %: 40.8237
Commits not translated: 0
Loads retired: 249543
Stores retired: 11266815
Cache fills: 249543
L1D response latency: 138.6 cycles
Load retirement latency: 513.264 cycles
OOO test counter: 0
Discarded buffer inserts: 47048523 hits: 122 hit %: 0.000259307
Filter prediction accuracy: 99.999
ALL MISSES SIZE: 23058
LATENCY_FILL: 138.617 271517
LATENCY_FILL_ROB: 284.998 270916
test counter pref: 2229279
Max ROB Extended: 24

DRAM Statistics
 CHANNEL 0
 RQ ROW_BUFFER_HIT:    2491066  ROW_BUFFER_MISS:    1364293
 DBUS_CONGESTED:       8173
 WQ ROW_BUFFER_HIT:      42654  ROW_BUFFER_MISS:     215372  FULL:          0

 AVG_CONGESTED_CYCLE: 4
 All warmup complete: 2
Channel 0 Bank busy for read cycles: 0
Channel 0 Bank busy for write cycles: 0
Channel 0
Rank 0
0banks busy for read cycles: 53865020
0banks busy for write cycles: 94646
1banks busy for read cycles: 39991053
1banks busy for write cycles: 12957646
2banks busy for read cycles: 26143380
2banks busy for write cycles: 5761780
3banks busy for read cycles: 18682681
3banks busy for write cycles: 3021570
4banks busy for read cycles: 12658288
4banks busy for write cycles: 1463216
5banks busy for read cycles: 8058189
5banks busy for write cycles: 768443
6banks busy for read cycles: 5439509
6banks busy for write cycles: 476156
7banks busy for read cycles: 4282123
7banks busy for write cycles: 320122
8banks busy for read cycles: 3428098
8banks busy for write cycles: 268244

CPU 0 Branch Prediction Accuracy: 99.9706% MPKI: 0.00733 Average ROB Occupancy at Mispredict: 30.1889
Branch types
NOT_BRANCH: 195007396 97.5037%
BRANCH_DIRECT_JUMP: 0 0%
BRANCH_INDIRECT: 0 0%
BRANCH_CONDITIONAL: 4992275 2.49614%
BRANCH_DIRECT_CALL: 0 0%
BRANCH_INDIRECT_CALL: 0 0%
BRANCH_RETURN: 0 0%
BRANCH_OTHER: 0 0%

DRAM PAGES: 1048576
Allocated PAGES: 70872
