
*** ChampSim Multicore Out-of-Order Simulator ***

Warmup Instructions: 50000000
Simulation Instructions: 200000000
Number of CPUs: 1
LLC sets: 2048
LLC ways: 16
L0D sets: 16
L0D ways: 2
ROB size: 352
LQ size: 128
SQ size: 72
Secure Berti: ON
Berti: ON
Berti Fill: ON
On commit prefetching: OFF
Hit-based filter: ON
Time-guarding: ON
Free-slotting: ON
Leap-frogging: ON
Train prefetcher on L0D bypass: OFF
No translation penalty for prefetchers: OFF
Prefetch to L0D only: OFF
Prefetch to L1D only: OFF
Clean evictions: ON
Commit loads: ON
Commit write: ON
Fill commit loads to L2C, LLC: ON
DRAM IO FREQUENCY: 6400
ROB SIZE: 352
Off-chip DRAM Size: 4096 MB Channels: 1 Width: 64-bit Data Rate: 6400 MT/s
CPU 0 runs /home/sumon/secure_berti/GhostMinion/../../traces/spec/605.mcf_s-1644B.champsimtrace.xz
.xz
BTB has LRU replacement policy
ITLB has LRU replacement policy
DTLB has LRU replacement policy
STLB has LRU replacement policy
L1I has LRU replacement policy
L0D has LRU replacement policy
Berti version on_commit
History Sets: 8
History Ways: 16
BERTI Size: 16
BERTI Stride Size: 16
L1D has LRU replacement policy
L2C has LRU replacement policy
LLC has LRU replacement policy
Heartbeat CPU 0 instructions: 10000003 cycles: 14285322 heartbeat IPC: 0.700019 cumulative IPC: 0.700019 (Simulation time: 0 hr 2 min 41 sec) 
Heartbeat CPU 0 instructions: 20000001 cycles: 28566960 heartbeat IPC: 0.7002 cumulative IPC: 0.70011 (Simulation time: 0 hr 5 min 9 sec) 
Heartbeat CPU 0 instructions: 30000002 cycles: 42850183 heartbeat IPC: 0.700122 cumulative IPC: 0.700114 (Simulation time: 0 hr 7 min 53 sec) 
Heartbeat CPU 0 instructions: 40000001 cycles: 57130853 heartbeat IPC: 0.700247 cumulative IPC: 0.700147 (Simulation time: 0 hr 10 min 16 sec) 
Heartbeat CPU 0 instructions: 50000000 cycles: 71409423 heartbeat IPC: 0.70035 cumulative IPC: 0.700188 (Simulation time: 0 hr 12 min 11 sec) 

Warmup complete CPU 0 instructions: 50000004 cycles: 71409424 (Simulation time: 0 hr 12 min 11 sec) 

Heartbeat CPU 0 instructions: 60000001 cycles: 141107250 heartbeat IPC: 0.143477 cumulative IPC: 0.143476 (Simulation time: 0 hr 14 min 26 sec) 
Heartbeat CPU 0 instructions: 70000003 cycles: 210981074 heartbeat IPC: 0.143115 cumulative IPC: 0.143296 (Simulation time: 0 hr 16 min 38 sec) 
Heartbeat CPU 0 instructions: 80000000 cycles: 281434496 heartbeat IPC: 0.141938 cumulative IPC: 0.14284 (Simulation time: 0 hr 18 min 52 sec) 
Heartbeat CPU 0 instructions: 90000000 cycles: 351724297 heartbeat IPC: 0.142268 cumulative IPC: 0.142697 (Simulation time: 0 hr 20 min 52 sec) 
Heartbeat CPU 0 instructions: 100000003 cycles: 423096961 heartbeat IPC: 0.14011 cumulative IPC: 0.142172 (Simulation time: 0 hr 22 min 39 sec) 
Heartbeat CPU 0 instructions: 110000000 cycles: 494511676 heartbeat IPC: 0.140027 cumulative IPC: 0.14181 (Simulation time: 0 hr 24 min 17 sec) 
Heartbeat CPU 0 instructions: 120000001 cycles: 566212323 heartbeat IPC: 0.139469 cumulative IPC: 0.14147 (Simulation time: 0 hr 25 min 52 sec) 
Heartbeat CPU 0 instructions: 130000001 cycles: 637354423 heartbeat IPC: 0.140564 cumulative IPC: 0.141356 (Simulation time: 0 hr 27 min 26 sec) 
Heartbeat CPU 0 instructions: 140000003 cycles: 707078921 heartbeat IPC: 0.143422 cumulative IPC: 0.141583 (Simulation time: 0 hr 28 min 57 sec) 
Heartbeat CPU 0 instructions: 150000002 cycles: 773948657 heartbeat IPC: 0.149544 cumulative IPC: 0.142341 (Simulation time: 0 hr 30 min 25 sec) 
Heartbeat CPU 0 instructions: 160000002 cycles: 839850267 heartbeat IPC: 0.151741 cumulative IPC: 0.143147 (Simulation time: 0 hr 31 min 54 sec) 
Heartbeat CPU 0 instructions: 170000002 cycles: 907694539 heartbeat IPC: 0.147396 cumulative IPC: 0.143492 (Simulation time: 0 hr 33 min 19 sec) 
Heartbeat CPU 0 instructions: 180000002 cycles: 975814212 heartbeat IPC: 0.1468 cumulative IPC: 0.143741 (Simulation time: 0 hr 34 min 46 sec) 
Heartbeat CPU 0 instructions: 190000000 cycles: 1043622786 heartbeat IPC: 0.147474 cumulative IPC: 0.144001 (Simulation time: 0 hr 36 min 12 sec) 
Heartbeat CPU 0 instructions: 200000001 cycles: 1112557750 heartbeat IPC: 0.145064 cumulative IPC: 0.144072 (Simulation time: 0 hr 37 min 38 sec) 
Heartbeat CPU 0 instructions: 210000003 cycles: 1181484889 heartbeat IPC: 0.145081 cumulative IPC: 0.144134 (Simulation time: 0 hr 39 min 5 sec) 
Heartbeat CPU 0 instructions: 220000000 cycles: 1250051652 heartbeat IPC: 0.145843 cumulative IPC: 0.144234 (Simulation time: 0 hr 40 min 31 sec) 
Heartbeat CPU 0 instructions: 230000003 cycles: 1318687858 heartbeat IPC: 0.145696 cumulative IPC: 0.144314 (Simulation time: 0 hr 41 min 57 sec) 
Heartbeat CPU 0 instructions: 240000000 cycles: 1387649658 heartbeat IPC: 0.145008 cumulative IPC: 0.144351 (Simulation time: 0 hr 43 min 24 sec) 
Heartbeat CPU 0 instructions: 250000000 cycles: 1456892760 heartbeat IPC: 0.144419 cumulative IPC: 0.144354 (Simulation time: 0 hr 44 min 50 sec) 
Finished CPU 0 instructions: 200000000 cycles: 1385483338 cumulative IPC: 0.144354 (Simulation time: 0 hr 44 min 50 sec) 
 Instruction ID: 250000247

ChampSim completed all CPUs

Region of Interest Statistics

CPU 0 cumulative IPC: 0.144354 instructions: 200000000 cycles: 1385483338
ITLB SPEC fills:          0  NON-SPEC fills:          0
ITLB Test counter :          0
ITLB Leapfrog:          0
ITLB MSHR merge:          0
ITLB TOTAL     ACCESS:   33654077  HIT:   33654077  MISS:          0  HIT %:        100  MISS %:          0   MPKI: 0
ITLB LOAD TRANSLATION NON_SPEC    ACCESS:   33654077  HIT:   33654077  MISS:          0  HIT %:        100  MISS %:          0   MPKI: 0
ITLB PREFETCH  REQUESTED:          0  ISSUED:          0  USEFUL:          0  USELESS:          0
ITLB USEFUL LOAD PREFETCHES:          0 PREFETCH ISSUED TO LOWER LEVEL:          0  ACCURACY: -nan
ITLB TIMELY PREFETCHES:          0 LATE PREFETCHES: 0 DROPPED PREFETCHES: 0
ITLB COMMIT LATE PREFETCHES: 0 MISSED OPPORTUNITY: 0 LATE IN PQ: 0 UNCOVERED: 0
ITLB COMMIT LATE MSHR PREFETCHES: 0
ITLB MPKI TOTAL: 0 MSHR LATE: 0 PQ LATE: 0 COMMIT LATE: 0 MISSED OPPORTUNITY: 0 UNCOVERED: 0
ITLB PREFETCHES SAME FILL-ORIGIN LEVEL: 0 DIFFERENT FILL-ORIGIN LEVEL: 0
ITLB AVERAGE MISS LATENCY: -nan cycles
ITLB AVERAGE MISS LATENCY LOAD: -nan cycles
ITLB AVERAGE MISS LATENCY PREFETCH: -nan cycles
ITLB AVERAGE MSHR OCCUPANCY: 0
ITLB MSHR FULL: 0
ITLB RQ	ACCESS:   33656588	FORWARD:          0	MERGED:       2512	TO_CACHE:   33654076

DTLB SPEC fills:          0  NON-SPEC fills:          0
DTLB Test counter :          0
DTLB Leapfrog:          0
DTLB MSHR merge:          0
DTLB TOTAL     ACCESS:   79056364  HIT:   73422535  MISS:    5633829  HIT %:    92.8737  MISS %:    7.12634   MPKI: 28.1691
DTLB LOAD TRANSLATION NON_SPEC    ACCESS:   79056364  HIT:   73422535  MISS:    5633829  HIT %:    92.8737  MISS %:    7.12634   MPKI: 28.1691
DTLB PREFETCH  REQUESTED:          0  ISSUED:          0  USEFUL:          0  USELESS:          0
DTLB USEFUL LOAD PREFETCHES:          0 PREFETCH ISSUED TO LOWER LEVEL:          0  ACCURACY: -nan
DTLB TIMELY PREFETCHES:          0 LATE PREFETCHES: 0 DROPPED PREFETCHES: 0
DTLB COMMIT LATE PREFETCHES: 0 MISSED OPPORTUNITY: 0 LATE IN PQ: 0 UNCOVERED: 0
DTLB COMMIT LATE MSHR PREFETCHES: 0
DTLB MPKI TOTAL: 0 MSHR LATE: 0 PQ LATE: 0 COMMIT LATE: 0 MISSED OPPORTUNITY: 0 UNCOVERED: 0
DTLB PREFETCHES SAME FILL-ORIGIN LEVEL: 0 DIFFERENT FILL-ORIGIN LEVEL: 0
DTLB AVERAGE MISS LATENCY: 873.606 cycles
DTLB AVERAGE MISS LATENCY LOAD: -nan cycles
DTLB AVERAGE MISS LATENCY PREFETCH: -nan cycles
DTLB AVERAGE MSHR OCCUPANCY: 3.15643
DTLB MSHR FULL: 8.58918e-05
DTLB RQ	ACCESS:  125947894	FORWARD:          0	MERGED:   26945133	TO_CACHE:   99002761

STLB SPEC fills:          0  NON-SPEC fills:          0
STLB Test counter :          0
STLB Leapfrog:          0
STLB MSHR merge:          0
STLB TOTAL     ACCESS:    8563483  HIT:    3732405  MISS:    4831078  HIT %:    43.5851  MISS %:    56.4149   MPKI: 24.1554
STLB LOAD TRANSLATION NON_SPEC    ACCESS:    5633829  HIT:     815456  MISS:    4818373  HIT %:    14.4743  MISS %:    85.5257   MPKI: 24.0919
STLB TRANSLATION FROM L1D PREFETCHER NON_SPEC    ACCESS:    2929654  HIT:    2916949  MISS:      12705  HIT %:    99.5663  MISS %:   0.433669   MPKI: 0.063525
STLB PREFETCH  REQUESTED:          0  ISSUED:          0  USEFUL:       8168  USELESS:       4524
STLB USEFUL LOAD PREFETCHES:       8168 PREFETCH ISSUED TO LOWER LEVEL:          0  ACCURACY: inf
STLB TIMELY PREFETCHES:       8168 LATE PREFETCHES: 71494 DROPPED PREFETCHES: 1211977
STLB COMMIT LATE PREFETCHES: 0 MISSED OPPORTUNITY: 0 LATE IN PQ: 0 UNCOVERED: 0
STLB COMMIT LATE MSHR PREFETCHES: 0
STLB MPKI TOTAL: 0 MSHR LATE: 0.35747 PQ LATE: 0 COMMIT LATE: 0 MISSED OPPORTUNITY: 0 UNCOVERED: 0
STLB PREFETCHES SAME FILL-ORIGIN LEVEL: 0 DIFFERENT FILL-ORIGIN LEVEL: 0
STLB AVERAGE MISS LATENCY: 1009.85 cycles
STLB AVERAGE MISS LATENCY LOAD: -nan cycles
STLB AVERAGE MISS LATENCY PREFETCH: -nan cycles
STLB AVERAGE MSHR OCCUPANCY: 3.43689
STLB MSHR FULL: 0
STLB RQ	ACCESS:   39781857	FORWARD:          0	MERGED:   29183324	TO_CACHE:   10598533

STLB Hit, L1D data hit: 0
STLB Hit, L2C data hit: 0
STLB Hit, LLC data hit: 0
STLB Hit, LLC data miss: 0
STLB STLB hints to L2: 0
L0D SPEC fills:   22194941  NON-SPEC fills:          0
L0D TimeGuard Request with older TS:    2774359 Restricted eviction:     549156 read:    5307732
L0D Test counter :          0
L0D Leapfrog:          0
L0D MSHR merge:    1609832
L0D TOTAL     ACCESS:   54364962  HIT:   16915775  MISS:   37449187  HIT %:    31.1152  MISS %:    68.8848   MPKI: 187.246
L0D LOAD      TOTAL       ACCESS:   54364962  HIT:   16915775  MISS:   37449187  HIT %:    31.1152  MISS %:    68.8848   MPKI: 187.246
L0D LOAD      NON_SPEC    ACCESS:   18773104  HIT:    4067188  MISS:   14705916  HIT %:     21.665  MISS %:     78.335   MPKI: 73.5296
L0D LOAD      SPEC        ACCESS:   35591858  HIT:   12848587  MISS:   22743271  HIT %:    36.0998  MISS %:    63.9002   MPKI: 113.716
L0D PREFETCH  REQUESTED:          0  ISSUED:          0  USEFUL:          0  USELESS:          0
L0D USEFUL LOAD PREFETCHES:          0 PREFETCH ISSUED TO LOWER LEVEL:          0  ACCURACY: -nan
L0D TIMELY PREFETCHES:          0 LATE PREFETCHES: 0 DROPPED PREFETCHES: 0
L0D COMMIT LATE PREFETCHES: 0 MISSED OPPORTUNITY: 0 LATE IN PQ: 0 UNCOVERED: 0
L0D COMMIT LATE MSHR PREFETCHES: 0
L0D MPKI TOTAL: 195.295 MSHR LATE: 0 PQ LATE: 0 COMMIT LATE: 0 MISSED OPPORTUNITY: 0 UNCOVERED: 0
L0D PREFETCHES SAME FILL-ORIGIN LEVEL: 0 DIFFERENT FILL-ORIGIN LEVEL: 0
L0D AVERAGE MISS LATENCY: 16.7623 cycles
L0D AVERAGE MISS LATENCY LOAD: 16.7623 cycles
L0D AVERAGE MISS LATENCY PREFETCH: -nan cycles
L0D AVERAGE MSHR OCCUPANCY: 0.816407
L0D MSHR FULL: 9.12904e-06
L0D RQ	ACCESS:   69860090	FORWARD:          0	MERGED:   13885298	TO_CACHE:   55974792
L0D WQ	ACCESS:   69973102	FORWARD:          0	MERGED:          0	TO_CACHE:   69973102

L1D SPEC fills:          0  NON-SPEC fills:     168524
L1D Test counter :    3792261
L1D Leapfrog:          0
L1D MSHR merge:     178752
L1D TOTAL     ACCESS:  106004171  HIT:   83659635  MISS:   22344536  HIT %:    78.9211  MISS %:    21.0789   MPKI: 111.723
L1D LOAD      TOTAL       ACCESS:   37448327  HIT:   32908135  MISS:    4540192  HIT %:    87.8761  MISS %:    12.1239   MPKI: 22.701
L1D LOAD      NON_SPEC    ACCESS:   14705320  HIT:   14536796  MISS:     168524  HIT %:     98.854  MISS %:    1.14601   MPKI: 0.84262
L1D LOAD      SPEC        ACCESS:   22743007  HIT:   18371339  MISS:    4371668  HIT %:     80.778  MISS %:     19.222   MPKI: 21.8583
L1D RFO       NON_SPEC    ACCESS:   37761999  HIT:   29013304  MISS:    8748695  HIT %:     76.832  MISS %:     23.168   MPKI: 43.7435
L1D PREFETCH  NON_SPEC    ACCESS:   26140117  HIT:   21407434  MISS:    4732683  HIT %:    81.8949  MISS %:    18.1051   MPKI: 23.6634
L1D COMMIT LOAD NON_SPEC    ACCESS:     463671  HIT:     246492  MISS:     217179  HIT %:     53.161  MISS %:     46.839   MPKI: 1.0859
L1D COMMIT WRITE NON_SPEC    ACCESS:    4190057  HIT:      84270  MISS:    4105787  HIT %:    2.01119  MISS %:    97.9888   MPKI: 20.5289
L1D PREFETCH  REQUESTED:   79746509  ISSUED:   38498961  USEFUL:    4713375  USELESS:      19299
L1D USEFUL LOAD PREFETCHES:    4713375 PREFETCH ISSUED TO LOWER LEVEL:    6795700  ACCURACY: 69.3582
L1D TIMELY PREFETCHES:    4713375 LATE PREFETCHES: 178367 DROPPED PREFETCHES: 5352256
L1D COMMIT LATE PREFETCHES: 0 MISSED OPPORTUNITY: 0 LATE IN PQ: 0 UNCOVERED: 0
L1D COMMIT LATE MSHR PREFETCHES: 0
L1D MPKI TOTAL: 22.7053 MSHR LATE: 0.891835 PQ LATE: 0 COMMIT LATE: 0 MISSED OPPORTUNITY: 0 UNCOVERED: 0
L1D PREFETCHES SAME FILL-ORIGIN LEVEL: 4911050 DIFFERENT FILL-ORIGIN LEVEL: 1884650
L1D AVERAGE MISS LATENCY: 201.026 cycles
L1D AVERAGE MISS LATENCY LOAD: 94.2514 cycles
L1D AVERAGE MISS LATENCY PREFETCH: 323.515 cycles
L1D AVERAGE MSHR OCCUPANCY: 5.9855
L1D MSHR FULL: 0.173851
L1D RQ	ACCESS:   38053992	FORWARD:          0	MERGED:     140646	TO_CACHE:   37913313
L1D WQ	ACCESS:   74163134	FORWARD:         33	MERGED:    1385405	TO_CACHE:   72777729
L1D PQ	ACCESS:   38498961	FORWARD:          0	MERGED:    4350936	TO_CACHE:   34148025

L1D UNIQUE REGIONS ACCESSED: 0
L1D REGIONS CONFLICTS: 0
L1D Cross Page Prefetch Requests: 13412163
L1D Same Page Prefetch Requests: 43693800
L1D ROI Sum of L1D PQ occupancy: 13035562761
L1D PREFETCHES PUSHED FROM L2C: 0
L1I SPEC fills:          0  NON-SPEC fills:          0
L1I Test counter :          0
L1I Leapfrog:          0
L1I MSHR merge:          0
L1I TOTAL     ACCESS:   33656589  HIT:   33656589  MISS:          0  HIT %:        100  MISS %:          0   MPKI: 0
L1I LOAD      TOTAL       ACCESS:   33656589  HIT:   33656589  MISS:          0  HIT %:        100  MISS %:          0   MPKI: 0
L1I LOAD      NON_SPEC    ACCESS:   33656589  HIT:   33656589  MISS:          0  HIT %:        100  MISS %:          0   MPKI: 0
L1I PREFETCH  REQUESTED:          0  ISSUED:          0  USEFUL:          0  USELESS:          0
L1I USEFUL LOAD PREFETCHES:          0 PREFETCH ISSUED TO LOWER LEVEL:          0  ACCURACY: -nan
L1I TIMELY PREFETCHES:          0 LATE PREFETCHES: 0 DROPPED PREFETCHES: 0
L1I COMMIT LATE PREFETCHES: 0 MISSED OPPORTUNITY: 0 LATE IN PQ: 0 UNCOVERED: 0
L1I COMMIT LATE MSHR PREFETCHES: 0
L1I MPKI TOTAL: 0 MSHR LATE: 0 PQ LATE: 0 COMMIT LATE: 0 MISSED OPPORTUNITY: 0 UNCOVERED: 0
L1I PREFETCHES SAME FILL-ORIGIN LEVEL: 0 DIFFERENT FILL-ORIGIN LEVEL: 0
L1I AVERAGE MISS LATENCY: -nan cycles
L1I AVERAGE MISS LATENCY LOAD: -nan cycles
L1I AVERAGE MISS LATENCY PREFETCH: -nan cycles
L1I AVERAGE MSHR OCCUPANCY: 0
L1I MSHR FULL: 0
L1I RQ	ACCESS:   57296382	FORWARD:          0	MERGED:   23639794	TO_CACHE:   33656588

BTB SPEC fills:          0  NON-SPEC fills:          0
BTB Test counter :          0
BTB Leapfrog:          0
BTB MSHR merge:          0
BTB TOTAL     ACCESS:   20480052  HIT:   20480047  MISS:          5  HIT %:        100  MISS %: 2.4414e-05   MPKI: 2.5e-05
BTB BRANCH_DIRECT_JUMP	ACCESS:    2986818  HIT:    2986817  MISS:          1
BTB BRANCH_INDIRECT	ACCESS:          0  HIT:          0  MISS:          0
BTB BRANCH_CONDITIONAL	ACCESS:    8746602  HIT:    8746600  MISS:          2
BTB BRANCH_DIRECT_CALL	ACCESS:    4373316  HIT:    4373315  MISS:          1
BTB BRANCH_INDIRECT_CALL	ACCESS:          0  HIT:          0  MISS:          0
BTB BRANCH_RETURN	ACCESS:    4373316  HIT:    4373315  MISS:          1
BTB BRANCH_OTHER ACCESS:          0  HIT:          0  MISS:          0

L2C SPEC fills:          0  NON-SPEC fills:     121449
L2C Test counter :    3216465
L2C Leapfrog:          0
L2C MSHR merge:      10222
L2C TOTAL     ACCESS:   67808093  HIT:   43306946  MISS:   24501147  HIT %:    63.8669  MISS %:    36.1331   MPKI: 122.506
L2C LOAD      TOTAL       ACCESS:    4362245  HIT:    1186685  MISS:    3175560  HIT %:    27.2035  MISS %:    72.7965   MPKI: 15.8778
L2C LOAD      NON_SPEC    ACCESS:     167957  HIT:      46508  MISS:     121449  HIT %:    27.6904  MISS %:    72.3096   MPKI: 0.607245
L2C LOAD      SPEC        ACCESS:    4194288  HIT:    1140177  MISS:    3054111  HIT %:     27.184  MISS %:     72.816   MPKI: 15.2706
L2C RFO       NON_SPEC    ACCESS:    8748664  HIT:       3281  MISS:    8745383  HIT %:  0.0375029  MISS %:    99.9625   MPKI: 43.7269
L2C PREFETCH  NON_SPEC    ACCESS:    6540239  HIT:    1168017  MISS:    5372222  HIT %:    17.8589  MISS %:    82.1411   MPKI: 26.8611
L2C WRITEBACK NON_SPEC    ACCESS:   13607527  HIT:   13607076  MISS:        451  HIT %:    99.9967  MISS %: 0.00331434   MPKI: 0.002255
L2C CLEAN_EVICTION NON_SPEC    ACCESS:    3792261  HIT:     861669  MISS:    2930592  HIT %:    22.7218  MISS %:    77.2782   MPKI: 14.653
L2C COMMIT LOAD NON_SPEC    ACCESS:     216704  HIT:      71108  MISS:     145596  HIT %:    32.8134  MISS %:    67.1866   MPKI: 0.72798
L2C LOAD TRANSLATION NON_SPEC    ACCESS:   24062136  HIT:   19943938  MISS:    4118198  HIT %:    82.8852  MISS %:    17.1148   MPKI: 20.591
L2C TRANSLATION FROM L1D PREFETCHER NON_SPEC    ACCESS:    6478317  HIT:    6465172  MISS:      13145  HIT %:    99.7971  MISS %:   0.202908   MPKI: 0.065725
L2C PREFETCH  REQUESTED:          0  ISSUED:          0  USEFUL:      98919  USELESS:    5286486
L2C USEFUL LOAD PREFETCHES:      98919 PREFETCH ISSUED TO LOWER LEVEL:    5419299  ACCURACY: 1.82531
L2C TIMELY PREFETCHES:      98919 LATE PREFETCHES: 47077 DROPPED PREFETCHES: 0
L2C COMMIT LATE PREFETCHES: 0 MISSED OPPORTUNITY: 0 LATE IN PQ: 0 UNCOVERED: 0
L2C COMMIT LATE MSHR PREFETCHES: 0
L2C MPKI TOTAL: 15.8778 MSHR LATE: 0.235385 PQ LATE: 0 COMMIT LATE: 0 MISSED OPPORTUNITY: 0 UNCOVERED: 0
L2C PREFETCHES SAME FILL-ORIGIN LEVEL: 1578633 DIFFERENT FILL-ORIGIN LEVEL: 0
L2C AVERAGE MISS LATENCY: 240.389 cycles
L2C AVERAGE MISS LATENCY LOAD: 101.3 cycles
L2C AVERAGE MISS LATENCY PREFETCH: 405.465 cycles
L2C AVERAGE MSHR OCCUPANCY: 3.17028
L2C MSHR FULL: 0.00244342
L2C RQ	ACCESS:   43868155	FORWARD:          0	MERGED:          0	TO_CACHE:   43868069
L2C WQ	ACCESS:   17399794	FORWARD:         86	MERGED:          6	TO_CACHE:   17399788
L2C PQ	ACCESS:    6795700	FORWARD:          0	MERGED:         13	TO_CACHE:    6795687

L2C Instructions Evicting Data 0
L2C Translations Evicting Data 3334140
L2C Data Evicting Data 11611939
L2C Instructions Evicting Instructions 0
L2C Translations Evicting Instructions 0
L2C Data Evicting Instructions 0
L2C Instructions Evicting Translations 0
L2C Translations Evicting Translations 797203
L2C Data Evicting Translations 2772711
L2C Dense regions hint from L2: 0
PSCL5 SPEC fills:          0  NON-SPEC fills:          0
PSCL5 Test counter :          0
PSCL5 Leapfrog:          0
PSCL5 MSHR merge:          0
PSCL5 TOTAL     ACCESS:          0  HIT:          0  MISS:          0  HIT %:       -nan  MISS %:       -nan   MPKI: 0
PSCL5 PREFETCH  REQUESTED:          0  ISSUED:          0  USEFUL:          0  USELESS:          0
PSCL5 USEFUL LOAD PREFETCHES:          0 PREFETCH ISSUED TO LOWER LEVEL:          0  ACCURACY: -nan
PSCL5 TIMELY PREFETCHES:          0 LATE PREFETCHES: 0 DROPPED PREFETCHES: 0
PSCL5 COMMIT LATE PREFETCHES: 0 MISSED OPPORTUNITY: 0 LATE IN PQ: 0 UNCOVERED: 0
PSCL5 COMMIT LATE MSHR PREFETCHES: 0
PSCL5 MPKI TOTAL: 0 MSHR LATE: 0 PQ LATE: 0 COMMIT LATE: 0 MISSED OPPORTUNITY: 0 UNCOVERED: 0
PSCL5 PREFETCHES SAME FILL-ORIGIN LEVEL: 0 DIFFERENT FILL-ORIGIN LEVEL: 0

PSCL4 SPEC fills:          0  NON-SPEC fills:          0
PSCL4 Test counter :          0
PSCL4 Leapfrog:          0
PSCL4 MSHR merge:          0
PSCL4 TOTAL     ACCESS:          0  HIT:          0  MISS:          0  HIT %:       -nan  MISS %:       -nan   MPKI: 0
PSCL4 PREFETCH  REQUESTED:          0  ISSUED:          0  USEFUL:          0  USELESS:          0
PSCL4 USEFUL LOAD PREFETCHES:          0 PREFETCH ISSUED TO LOWER LEVEL:          0  ACCURACY: -nan
PSCL4 TIMELY PREFETCHES:          0 LATE PREFETCHES: 0 DROPPED PREFETCHES: 0
PSCL4 COMMIT LATE PREFETCHES: 0 MISSED OPPORTUNITY: 0 LATE IN PQ: 0 UNCOVERED: 0
PSCL4 COMMIT LATE MSHR PREFETCHES: 0
PSCL4 MPKI TOTAL: 0 MSHR LATE: 0 PQ LATE: 0 COMMIT LATE: 0 MISSED OPPORTUNITY: 0 UNCOVERED: 0
PSCL4 PREFETCHES SAME FILL-ORIGIN LEVEL: 0 DIFFERENT FILL-ORIGIN LEVEL: 0

PSCL3 SPEC fills:          0  NON-SPEC fills:          0
PSCL3 Test counter :          0
PSCL3 Leapfrog:          0
PSCL3 MSHR merge:          0
PSCL3 TOTAL     ACCESS:          0  HIT:          0  MISS:          0  HIT %:       -nan  MISS %:       -nan   MPKI: 0
PSCL3 PREFETCH  REQUESTED:          0  ISSUED:          0  USEFUL:          0  USELESS:          0
PSCL3 USEFUL LOAD PREFETCHES:          0 PREFETCH ISSUED TO LOWER LEVEL:          0  ACCURACY: -nan
PSCL3 TIMELY PREFETCHES:          0 LATE PREFETCHES: 0 DROPPED PREFETCHES: 0
PSCL3 COMMIT LATE PREFETCHES: 0 MISSED OPPORTUNITY: 0 LATE IN PQ: 0 UNCOVERED: 0
PSCL3 COMMIT LATE MSHR PREFETCHES: 0
PSCL3 MPKI TOTAL: 0 MSHR LATE: 0 PQ LATE: 0 COMMIT LATE: 0 MISSED OPPORTUNITY: 0 UNCOVERED: 0
PSCL3 PREFETCHES SAME FILL-ORIGIN LEVEL: 0 DIFFERENT FILL-ORIGIN LEVEL: 0

PSCL2 SPEC fills:          0  NON-SPEC fills:          0
PSCL2 Test counter :          0
PSCL2 Leapfrog:          0
PSCL2 MSHR merge:          0
PSCL2 TOTAL     ACCESS:          0  HIT:          0  MISS:          0  HIT %:       -nan  MISS %:       -nan   MPKI: 0
PSCL2 PREFETCH  REQUESTED:          0  ISSUED:          0  USEFUL:          0  USELESS:          0
PSCL2 USEFUL LOAD PREFETCHES:          0 PREFETCH ISSUED TO LOWER LEVEL:          0  ACCURACY: -nan
PSCL2 TIMELY PREFETCHES:          0 LATE PREFETCHES: 0 DROPPED PREFETCHES: 0
PSCL2 COMMIT LATE PREFETCHES: 0 MISSED OPPORTUNITY: 0 LATE IN PQ: 0 UNCOVERED: 0
PSCL2 COMMIT LATE MSHR PREFETCHES: 0
PSCL2 MPKI TOTAL: 0 MSHR LATE: 0 PQ LATE: 0 COMMIT LATE: 0 MISSED OPPORTUNITY: 0 UNCOVERED: 0
PSCL2 PREFETCHES SAME FILL-ORIGIN LEVEL: 0 DIFFERENT FILL-ORIGIN LEVEL: 0

LLC SPEC fills:          0  NON-SPEC fills:      32965
LLC Test counter :    1369109
LLC Leapfrog:          0
LLC MSHR merge:          0
LLC TOTAL     ACCESS:   38343056  HIT:   19184259  MISS:   19158797  HIT %:    50.0332  MISS %:    49.9668   MPKI: 95.794
LLC LOAD      TOTAL       ACCESS:    3165304  HIT:    2248814  MISS:     916490  HIT %:    71.0458  MISS %:    28.9542   MPKI: 4.58245
LLC LOAD      NON_SPEC    ACCESS:     121219  HIT:      88254  MISS:      32965  HIT %:    72.8054  MISS %:    27.1946   MPKI: 0.164825
LLC LOAD      SPEC        ACCESS:    3044085  HIT:    2160560  MISS:     883525  HIT %:    70.9757  MISS %:    29.0243   MPKI: 4.41763
LLC RFO       NON_SPEC    ACCESS:    8708747  HIT:      50587  MISS:    8658160  HIT %:   0.580876  MISS %:    99.4191   MPKI: 43.2908
LLC PREFETCH  NON_SPEC    ACCESS:    5419298  HIT:     128479  MISS:    5290819  HIT %:    2.37077  MISS %:    97.6292   MPKI: 26.4541
LLC WRITEBACK NON_SPEC    ACCESS:   13556524  HIT:   13556252  MISS:        272  HIT %:     99.998  MISS %: 0.00200641   MPKI: 0.00136
LLC CLEAN_EVICTION NON_SPEC    ACCESS:    3216465  HIT:    2107675  MISS:    1108790  HIT %:    65.5277  MISS %:    34.4723   MPKI: 5.54395
LLC COMMIT LOAD NON_SPEC    ACCESS:     145375  HIT:     116836  MISS:      28539  HIT %:    80.3687  MISS %:    19.6313   MPKI: 0.142695
LLC LOAD TRANSLATION NON_SPEC    ACCESS:    4118198  HIT:     974073  MISS:    3144125  HIT %:    23.6529  MISS %:    76.3471   MPKI: 15.7206
LLC TRANSLATION FROM L1D PREFETCHER NON_SPEC    ACCESS:      13145  HIT:       1543  MISS:      11602  HIT %:    11.7383  MISS %:    88.2617   MPKI: 0.05801
LLC PREFETCH  REQUESTED:          0  ISSUED:          0  USEFUL:      29915  USELESS:    5271578
LLC USEFUL LOAD PREFETCHES:      29915 PREFETCH ISSUED TO LOWER LEVEL:    5290819  ACCURACY: 0.565413
LLC TIMELY PREFETCHES:      29915 LATE PREFETCHES: 0 DROPPED PREFETCHES: 0
LLC COMMIT LATE PREFETCHES: 0 MISSED OPPORTUNITY: 0 LATE IN PQ: 0 UNCOVERED: 0
LLC COMMIT LATE MSHR PREFETCHES: 0
LLC MPKI TOTAL: 4.58245 MSHR LATE: 0 PQ LATE: 0 COMMIT LATE: 0 MISSED OPPORTUNITY: 0 UNCOVERED: 0
LLC PREFETCHES SAME FILL-ORIGIN LEVEL: 0 DIFFERENT FILL-ORIGIN LEVEL: 0
LLC AVERAGE MISS LATENCY: 275.053 cycles
LLC AVERAGE MISS LATENCY LOAD: 274.578 cycles
LLC AVERAGE MISS LATENCY PREFETCH: 383.794 cycles
LLC AVERAGE MSHR OCCUPANCY: 2.79335
LLC MSHR FULL: 0
LLC RQ	ACCESS:   16150805	FORWARD:          0	MERGED:          0	TO_CACHE:   16150769
LLC WQ	ACCESS:   16772989	FORWARD:         37	MERGED:          0	TO_CACHE:   16772989
LLC PQ	ACCESS:    5419299	FORWARD:          0	MERGED:          0	TO_CACHE:    5419298

LLC Dense regions hint to LLC: 0

RAW hits: 13232997
Loads Generated: 83093086
Loads sent to L1D: 69860090
Stores Generated: 69973136
Stores sent to L1D: 69973102
Major fault: 0 Minor fault: 318411
Allocated PAGES: 318411
Total Load insts: 89124144
Total Non-spec loads: 28478746
Percentage of speculative loads: 68.046

LeapFrogging counter: 1108223
Commit hits: 19728565 miss: 31315908
Commit hit %: 38.6498 miss %: 61.3502
Commits not translated: 0
Loads retired: 4540190
Stores retired: 69973102
Cache fills: 4540192
L1D response latency: 94.2514 cycles
Load retirement latency: 654.13 cycles
OOO test counter: 0
Discarded buffer inserts: 19728565 hits: 3663 hit %: 0.018567
Filter prediction accuracy: 99.9824
ALL MISSES SIZE: 31951
LATENCY_FILL: 93.0551 4534185
LATENCY_FILL_ROB: 518.106 4503958
test counter pref: 78290911
Max ROB Extended: 13

DRAM Statistics
 CHANNEL 0
 RQ ROW_BUFFER_HIT:    1403642  ROW_BUFFER_MISS:   16643990
 DBUS_CONGESTED:         86
 WQ ROW_BUFFER_HIT:    4801215  ROW_BUFFER_MISS:    9981138  FULL:       8766

 AVG_CONGESTED_CYCLE: 5
 All warmup complete: 2
Channel 0 Bank busy for read cycles: 0
Channel 0 Bank busy for write cycles: 0
Channel 0
Rank 0
0banks busy for read cycles: 4072420
0banks busy for write cycles: 1423
1banks busy for read cycles: 204151960
1banks busy for write cycles: 3304263
2banks busy for read cycles: 216423263
2banks busy for write cycles: 3293802
3banks busy for read cycles: 256156842
3banks busy for write cycles: 3374807
4banks busy for read cycles: 109458560
4banks busy for write cycles: 5938328
5banks busy for read cycles: 48755019
5banks busy for write cycles: 11360176
6banks busy for read cycles: 29325167
6banks busy for write cycles: 26194693
7banks busy for read cycles: 20297035
7banks busy for write cycles: 95071272
8banks busy for read cycles: 30594755
8banks busy for write cycles: 317709554

CPU 0 Branch Prediction Accuracy: 95.2594% MPKI: 5.89096 Average ROB Occupancy at Mispredict: 144.178
Branch types
NOT_BRANCH: 175146465 87.5732%
BRANCH_DIRECT_JUMP: 2986818 1.49341%
BRANCH_INDIRECT: 0 0%
BRANCH_CONDITIONAL: 13119949 6.55997%
BRANCH_DIRECT_CALL: 4373316 2.18666%
BRANCH_INDIRECT_CALL: 0 0%
BRANCH_RETURN: 4373316 2.18666%
BRANCH_OTHER: 0 0%

DRAM PAGES: 1048576
Allocated PAGES: 318411
