
*** ChampSim Multicore Out-of-Order Simulator ***

Warmup Instructions: 50000000
Simulation Instructions: 200000000
Number of CPUs: 1
LLC sets: 2048
LLC ways: 16
L0D sets: 16
L0D ways: 2
ROB size: 352
LQ size: 128
SQ size: 72
Secure Berti: ON
Berti: ON
Berti Fill: ON
On commit prefetching: OFF
Hit-based filter: ON
Time-guarding: ON
Free-slotting: ON
Leap-frogging: ON
Train prefetcher on L0D bypass: OFF
No translation penalty for prefetchers: OFF
Prefetch to L0D only: OFF
Prefetch to L1D only: OFF
Clean evictions: ON
Commit loads: ON
Commit write: ON
Fill commit loads to L2C, LLC: ON
DRAM IO FREQUENCY: 6400
ROB SIZE: 352
Off-chip DRAM Size: 4096 MB Channels: 1 Width: 64-bit Data Rate: 6400 MT/s
CPU 0 runs /home/sumon/secure_berti/GhostMinion/../../traces/spec/607.cactuBSSN_s-2421B.champsimtrace.xz
.xz
BTB has LRU replacement policy
ITLB has LRU replacement policy
DTLB has LRU replacement policy
STLB has LRU replacement policy
L1I has LRU replacement policy
L0D has LRU replacement policy
Berti version on_commit
History Sets: 8
History Ways: 16
BERTI Size: 16
BERTI Stride Size: 16
L1D has LRU replacement policy
L2C has LRU replacement policy
LLC has LRU replacement policy
Heartbeat CPU 0 instructions: 10000002 cycles: 4437748 heartbeat IPC: 2.2534 cumulative IPC: 2.2534 (Simulation time: 0 hr 1 min 29 sec) 
Heartbeat CPU 0 instructions: 20000001 cycles: 8873343 heartbeat IPC: 2.25449 cumulative IPC: 2.25394 (Simulation time: 0 hr 3 min 0 sec) 
Heartbeat CPU 0 instructions: 30000002 cycles: 13312973 heartbeat IPC: 2.25244 cumulative IPC: 2.25344 (Simulation time: 0 hr 4 min 31 sec) 
Heartbeat CPU 0 instructions: 40000001 cycles: 17748961 heartbeat IPC: 2.25429 cumulative IPC: 2.25365 (Simulation time: 0 hr 5 min 35 sec) 
Heartbeat CPU 0 instructions: 50000003 cycles: 22186058 heartbeat IPC: 2.25373 cumulative IPC: 2.25367 (Simulation time: 0 hr 7 min 5 sec) 

Warmup complete CPU 0 instructions: 50000003 cycles: 22186058 (Simulation time: 0 hr 7 min 5 sec) 

Heartbeat CPU 0 instructions: 60000002 cycles: 41472773 heartbeat IPC: 0.518492 cumulative IPC: 0.518492 (Simulation time: 0 hr 8 min 26 sec) 
Heartbeat CPU 0 instructions: 70000001 cycles: 60746634 heartbeat IPC: 0.518837 cumulative IPC: 0.518664 (Simulation time: 0 hr 9 min 29 sec) 
Heartbeat CPU 0 instructions: 80000001 cycles: 79841787 heartbeat IPC: 0.523693 cumulative IPC: 0.52033 (Simulation time: 0 hr 10 min 30 sec) 
Heartbeat CPU 0 instructions: 90000000 cycles: 99057844 heartbeat IPC: 0.520398 cumulative IPC: 0.520347 (Simulation time: 0 hr 11 min 33 sec) 
Heartbeat CPU 0 instructions: 100000000 cycles: 118138364 heartbeat IPC: 0.524095 cumulative IPC: 0.521092 (Simulation time: 0 hr 12 min 33 sec) 
Heartbeat CPU 0 instructions: 110000000 cycles: 136935387 heartbeat IPC: 0.531999 cumulative IPC: 0.522879 (Simulation time: 0 hr 13 min 31 sec) 
Heartbeat CPU 0 instructions: 120000000 cycles: 156043550 heartbeat IPC: 0.523337 cumulative IPC: 0.522944 (Simulation time: 0 hr 14 min 30 sec) 
Heartbeat CPU 0 instructions: 130000002 cycles: 175030537 heartbeat IPC: 0.526677 cumulative IPC: 0.523408 (Simulation time: 0 hr 15 min 28 sec) 
Heartbeat CPU 0 instructions: 140000002 cycles: 194042860 heartbeat IPC: 0.525975 cumulative IPC: 0.523692 (Simulation time: 0 hr 16 min 25 sec) 
Heartbeat CPU 0 instructions: 150000001 cycles: 213441928 heartbeat IPC: 0.515489 cumulative IPC: 0.52286 (Simulation time: 0 hr 17 min 24 sec) 
Heartbeat CPU 0 instructions: 160000002 cycles: 232395607 heartbeat IPC: 0.527602 cumulative IPC: 0.523287 (Simulation time: 0 hr 18 min 20 sec) 
Heartbeat CPU 0 instructions: 170000002 cycles: 251776746 heartbeat IPC: 0.515966 cumulative IPC: 0.522669 (Simulation time: 0 hr 19 min 14 sec) 
Heartbeat CPU 0 instructions: 180000001 cycles: 270668030 heartbeat IPC: 0.529345 cumulative IPC: 0.523177 (Simulation time: 0 hr 20 min 6 sec) 
Heartbeat CPU 0 instructions: 190000000 cycles: 289543426 heartbeat IPC: 0.52979 cumulative IPC: 0.523644 (Simulation time: 0 hr 20 min 55 sec) 
Heartbeat CPU 0 instructions: 200000001 cycles: 308573373 heartbeat IPC: 0.525488 cumulative IPC: 0.523766 (Simulation time: 0 hr 21 min 45 sec) 
Heartbeat CPU 0 instructions: 210000003 cycles: 327499085 heartbeat IPC: 0.528382 cumulative IPC: 0.524052 (Simulation time: 0 hr 22 min 30 sec) 
Heartbeat CPU 0 instructions: 220000000 cycles: 346899844 heartbeat IPC: 0.515444 cumulative IPC: 0.523538 (Simulation time: 0 hr 23 min 15 sec) 
Heartbeat CPU 0 instructions: 230000003 cycles: 365929027 heartbeat IPC: 0.525509 cumulative IPC: 0.523647 (Simulation time: 0 hr 23 min 58 sec) 
Heartbeat CPU 0 instructions: 240000000 cycles: 384798077 heartbeat IPC: 0.529968 cumulative IPC: 0.523976 (Simulation time: 0 hr 24 min 41 sec) 
Heartbeat CPU 0 instructions: 250000002 cycles: 403854182 heartbeat IPC: 0.524766 cumulative IPC: 0.524015 (Simulation time: 0 hr 25 min 22 sec) 
Finished CPU 0 instructions: 200000003 cycles: 381668125 cumulative IPC: 0.524015 (Simulation time: 0 hr 25 min 22 sec) 
 Instruction ID: 250000183

ChampSim completed all CPUs

Region of Interest Statistics

CPU 0 cumulative IPC: 0.524015 instructions: 200000003 cycles: 381668125
ITLB SPEC fills:          0  NON-SPEC fills:          0
ITLB Test counter :          0
ITLB Leapfrog:          0
ITLB MSHR merge:          0
ITLB TOTAL     ACCESS:   26906875  HIT:   26906825  MISS:         50  HIT %:    99.9998  MISS %: 0.000185826   MPKI: 0.00025
ITLB LOAD TRANSLATION NON_SPEC    ACCESS:   26906875  HIT:   26906825  MISS:         50  HIT %:    99.9998  MISS %: 0.000185826   MPKI: 0.00025
ITLB PREFETCH  REQUESTED:          0  ISSUED:          0  USEFUL:          0  USELESS:          0
ITLB USEFUL LOAD PREFETCHES:          0 PREFETCH ISSUED TO LOWER LEVEL:          0  ACCURACY: -nan
ITLB TIMELY PREFETCHES:          0 LATE PREFETCHES: 0 DROPPED PREFETCHES: 0
ITLB COMMIT LATE PREFETCHES: 0 MISSED OPPORTUNITY: 0 LATE IN PQ: 0 UNCOVERED: 0
ITLB COMMIT LATE MSHR PREFETCHES: 0
ITLB MPKI TOTAL: 0 MSHR LATE: 0 PQ LATE: 0 COMMIT LATE: 0 MISSED OPPORTUNITY: 0 UNCOVERED: 0
ITLB PREFETCHES SAME FILL-ORIGIN LEVEL: 0 DIFFERENT FILL-ORIGIN LEVEL: 0
ITLB AVERAGE MISS LATENCY: 440.32 cycles
ITLB AVERAGE MISS LATENCY LOAD: -nan cycles
ITLB AVERAGE MISS LATENCY PREFETCH: -nan cycles
ITLB AVERAGE MSHR OCCUPANCY: 3.34487e-07
ITLB MSHR FULL: 0
ITLB RQ	ACCESS:   35204752	FORWARD:          0	MERGED:    8297869	TO_CACHE:   26906883

DTLB SPEC fills:          0  NON-SPEC fills:          0
DTLB Test counter :          0
DTLB Leapfrog:          0
DTLB MSHR merge:          0
DTLB TOTAL     ACCESS:   44080521  HIT:   29074001  MISS:   15006520  HIT %:    65.9566  MISS %:    34.0434   MPKI: 75.0326
DTLB LOAD TRANSLATION NON_SPEC    ACCESS:   44080521  HIT:   29074001  MISS:   15006520  HIT %:    65.9566  MISS %:    34.0434   MPKI: 75.0326
DTLB PREFETCH  REQUESTED:          0  ISSUED:          0  USEFUL:          0  USELESS:          0
DTLB USEFUL LOAD PREFETCHES:          0 PREFETCH ISSUED TO LOWER LEVEL:          0  ACCURACY: -nan
DTLB TIMELY PREFETCHES:          0 LATE PREFETCHES: 0 DROPPED PREFETCHES: 0
DTLB COMMIT LATE PREFETCHES: 0 MISSED OPPORTUNITY: 0 LATE IN PQ: 0 UNCOVERED: 0
DTLB COMMIT LATE MSHR PREFETCHES: 0
DTLB MPKI TOTAL: 0 MSHR LATE: 0 PQ LATE: 0 COMMIT LATE: 0 MISSED OPPORTUNITY: 0 UNCOVERED: 0
DTLB PREFETCHES SAME FILL-ORIGIN LEVEL: 0 DIFFERENT FILL-ORIGIN LEVEL: 0
DTLB AVERAGE MISS LATENCY: 10.0509 cycles
DTLB AVERAGE MISS LATENCY LOAD: -nan cycles
DTLB AVERAGE MISS LATENCY PREFETCH: -nan cycles
DTLB AVERAGE MSHR OCCUPANCY: 1.24567
DTLB MSHR FULL: 0.0455006
DTLB RQ	ACCESS:   62995376	FORWARD:          0	MERGED:   17761384	TO_CACHE:   45233992

STLB SPEC fills:          0  NON-SPEC fills:          0
STLB Test counter :          0
STLB Leapfrog:          0
STLB MSHR merge:          0
STLB TOTAL     ACCESS:   15438477  HIT:   15413931  MISS:      24546  HIT %:     99.841  MISS %:   0.158992   MPKI: 0.12273
STLB LOAD TRANSLATION NON_SPEC    ACCESS:   15006571  HIT:   14982088  MISS:      24483  HIT %:    99.8369  MISS %:   0.163149   MPKI: 0.122415
STLB TRANSLATION FROM L1D PREFETCHER NON_SPEC    ACCESS:     431906  HIT:     431843  MISS:         63  HIT %:    99.9854  MISS %:  0.0145865   MPKI: 0.000315
STLB PREFETCH  REQUESTED:          0  ISSUED:          0  USEFUL:         63  USELESS:          0
STLB USEFUL LOAD PREFETCHES:         63 PREFETCH ISSUED TO LOWER LEVEL:          0  ACCURACY: inf
STLB TIMELY PREFETCHES:         63 LATE PREFETCHES: 0 DROPPED PREFETCHES: 6602
STLB COMMIT LATE PREFETCHES: 0 MISSED OPPORTUNITY: 0 LATE IN PQ: 0 UNCOVERED: 0
STLB COMMIT LATE MSHR PREFETCHES: 0
STLB MPKI TOTAL: 0 MSHR LATE: 0 PQ LATE: 0 COMMIT LATE: 0 MISSED OPPORTUNITY: 0 UNCOVERED: 0
STLB PREFETCHES SAME FILL-ORIGIN LEVEL: 0 DIFFERENT FILL-ORIGIN LEVEL: 0
STLB AVERAGE MISS LATENCY: 421.359 cycles
STLB AVERAGE MISS LATENCY LOAD: -nan cycles
STLB AVERAGE MISS LATENCY PREFETCH: -nan cycles
STLB AVERAGE MSHR OCCUPANCY: 0.0111759
STLB MSHR FULL: 0
STLB RQ	ACCESS:   15586355	FORWARD:          0	MERGED:     141274	TO_CACHE:   15445081

STLB Hit, L1D data hit: 0
STLB Hit, L2C data hit: 0
STLB Hit, LLC data hit: 0
STLB Hit, LLC data miss: 0
STLB STLB hints to L2: 0
L0D SPEC fills:   31535925  NON-SPEC fills:          0
L0D TimeGuard Request with older TS:     509875 Restricted eviction:    1156459 read:     158288
L0D Test counter :          0
L0D Leapfrog:          0
L0D MSHR merge:    2655167
L0D TOTAL     ACCESS:   37555098  HIT:    3784455  MISS:   33770643  HIT %:    10.0771  MISS %:    89.9229   MPKI: 168.853
L0D LOAD      TOTAL       ACCESS:   37555098  HIT:    3784455  MISS:   33770643  HIT %:    10.0771  MISS %:    89.9229   MPKI: 168.853
L0D LOAD      NON_SPEC    ACCESS:    1138151  HIT:      59889  MISS:    1078262  HIT %:    5.26196  MISS %:     94.738   MPKI: 5.39131
L0D LOAD      SPEC        ACCESS:   36416947  HIT:    3724566  MISS:   32692381  HIT %:    10.2276  MISS %:    89.7724   MPKI: 163.462
L0D PREFETCH  REQUESTED:          0  ISSUED:          0  USEFUL:          0  USELESS:          0
L0D USEFUL LOAD PREFETCHES:          0 PREFETCH ISSUED TO LOWER LEVEL:          0  ACCURACY: -nan
L0D TIMELY PREFETCHES:          0 LATE PREFETCHES: 0 DROPPED PREFETCHES: 0
L0D COMMIT LATE PREFETCHES: 0 MISSED OPPORTUNITY: 0 LATE IN PQ: 0 UNCOVERED: 0
L0D COMMIT LATE MSHR PREFETCHES: 0
L0D MPKI TOTAL: 182.129 MSHR LATE: 0 PQ LATE: 0 COMMIT LATE: 0 MISSED OPPORTUNITY: 0 UNCOVERED: 0
L0D PREFETCHES SAME FILL-ORIGIN LEVEL: 0 DIFFERENT FILL-ORIGIN LEVEL: 0
L0D AVERAGE MISS LATENCY: 29.8892 cycles
L0D AVERAGE MISS LATENCY LOAD: 29.8892 cycles
L0D AVERAGE MISS LATENCY PREFETCH: -nan cycles
L0D AVERAGE MSHR OCCUPANCY: 6.00227
L0D MSHR FULL: 0.641895
L0D RQ	ACCESS:   57206847	FORWARD:          0	MERGED:   16996585	TO_CACHE:   40210262
L0D WQ	ACCESS:   22785114	FORWARD:          0	MERGED:          0	TO_CACHE:   22785114

L1D SPEC fills:          0  NON-SPEC fills:     433057
L1D Test counter :    2263855
L1D Leapfrog:          0
L1D MSHR merge:      46653
L1D TOTAL     ACCESS:   80282481  HIT:   36126575  MISS:   44155906  HIT %:    44.9993  MISS %:    55.0007   MPKI: 220.78
L1D LOAD      TOTAL       ACCESS:   33724069  HIT:   12231066  MISS:   21493003  HIT %:    36.2681  MISS %:    63.7319   MPKI: 107.465
L1D LOAD      NON_SPEC    ACCESS:    1075170  HIT:     642113  MISS:     433057  HIT %:     59.722  MISS %:     40.278   MPKI: 2.16528
L1D LOAD      SPEC        ACCESS:   32648899  HIT:   11588953  MISS:   21059946  HIT %:    35.4957  MISS %:    64.5043   MPKI: 105.3
L1D RFO       NON_SPEC    ACCESS:   22607473  HIT:   20993386  MISS:    1614087  HIT %:    92.8604  MISS %:    7.13962   MPKI: 8.07043
L1D PREFETCH  NON_SPEC    ACCESS:     462725  HIT:     410048  MISS:      52677  HIT %:    88.6159  MISS %:    11.3841   MPKI: 0.263385
L1D COMMIT LOAD NON_SPEC    ACCESS:    3199833  HIT:    2450043  MISS:     749790  HIT %:    76.5678  MISS %:    23.4322   MPKI: 3.74895
L1D COMMIT WRITE NON_SPEC    ACCESS:   20288381  HIT:      42032  MISS:   20246349  HIT %:   0.207173  MISS %:    99.7928   MPKI: 101.232
L1D PREFETCH  REQUESTED:     579795  ISSUED:     579795  USEFUL:      27306  USELESS:      25365
L1D USEFUL LOAD PREFETCHES:      27306 PREFETCH ISSUED TO LOWER LEVEL:     162718  ACCURACY: 16.7812
L1D TIMELY PREFETCHES:      27306 LATE PREFETCHES: 82 DROPPED PREFETCHES: 6786
L1D COMMIT LATE PREFETCHES: 0 MISSED OPPORTUNITY: 0 LATE IN PQ: 0 UNCOVERED: 0
L1D COMMIT LATE MSHR PREFETCHES: 0
L1D MPKI TOTAL: 107.698 MSHR LATE: 0.00041 PQ LATE: 0 COMMIT LATE: 0 MISSED OPPORTUNITY: 0 UNCOVERED: 0
L1D PREFETCHES SAME FILL-ORIGIN LEVEL: 52759 DIFFERENT FILL-ORIGIN LEVEL: 109959
L1D AVERAGE MISS LATENCY: 16.1571 cycles
L1D AVERAGE MISS LATENCY LOAD: 29.0001 cycles
L1D AVERAGE MISS LATENCY PREFETCH: 38.2517 cycles
L1D AVERAGE MSHR OCCUPANCY: 2.52506
L1D MSHR FULL: 0.0381571
L1D RQ	ACCESS:   42381901	FORWARD:          0	MERGED:    5384071	TO_CACHE:   36997829
L1D WQ	ACCESS:   43073494	FORWARD:          1	MERGED:      29435	TO_CACHE:   43044059
L1D PQ	ACCESS:     579795	FORWARD:          0	MERGED:         13	TO_CACHE:     579782

L1D UNIQUE REGIONS ACCESSED: 0
L1D REGIONS CONFLICTS: 0
L1D Cross Page Prefetch Requests: 244749
L1D Same Page Prefetch Requests: 446601
L1D ROI Sum of L1D PQ occupancy: 8888259
L1D PREFETCHES PUSHED FROM L2C: 0
L1I SPEC fills:          0  NON-SPEC fills:          0
L1I Test counter :          0
L1I Leapfrog:          0
L1I MSHR merge:      24726
L1I TOTAL     ACCESS:   35180026  HIT:   35130369  MISS:      49657  HIT %:    99.8588  MISS %:   0.141151   MPKI: 0.248285
L1I LOAD      TOTAL       ACCESS:   35180026  HIT:   35130369  MISS:      49657  HIT %:    99.8588  MISS %:   0.141151   MPKI: 0.248285
L1I LOAD      NON_SPEC    ACCESS:   35180026  HIT:   35130369  MISS:      49657  HIT %:    99.8588  MISS %:   0.141151   MPKI: 0.248285
L1I PREFETCH  REQUESTED:          0  ISSUED:          0  USEFUL:          0  USELESS:          0
L1I USEFUL LOAD PREFETCHES:          0 PREFETCH ISSUED TO LOWER LEVEL:          0  ACCURACY: -nan
L1I TIMELY PREFETCHES:          0 LATE PREFETCHES: 0 DROPPED PREFETCHES: 0
L1I COMMIT LATE PREFETCHES: 0 MISSED OPPORTUNITY: 0 LATE IN PQ: 0 UNCOVERED: 0
L1I COMMIT LATE MSHR PREFETCHES: 0
L1I MPKI TOTAL: 0.371915 MSHR LATE: 0 PQ LATE: 0 COMMIT LATE: 0 MISSED OPPORTUNITY: 0 UNCOVERED: 0
L1I PREFETCHES SAME FILL-ORIGIN LEVEL: 0 DIFFERENT FILL-ORIGIN LEVEL: 0
L1I AVERAGE MISS LATENCY: 17.52 cycles
L1I AVERAGE MISS LATENCY LOAD: 17.52 cycles
L1I AVERAGE MISS LATENCY PREFETCH: -nan cycles
L1I AVERAGE MSHR OCCUPANCY: 0.00191187
L1I MSHR FULL: 0
L1I RQ	ACCESS:   52244785	FORWARD:          0	MERGED:   17040033	TO_CACHE:   35204752

BTB SPEC fills:          0  NON-SPEC fills:          0
BTB Test counter :          0
BTB Leapfrog:          0
BTB MSHR merge:          0
BTB TOTAL     ACCESS:     207305  HIT:     204093  MISS:       3212  HIT %:    98.4506  MISS %:    1.54941   MPKI: 0.01606
BTB BRANCH_DIRECT_JUMP	ACCESS:      61458  HIT:      61423  MISS:         35
BTB BRANCH_INDIRECT	ACCESS:      58898  HIT:      58820  MISS:         78
BTB BRANCH_CONDITIONAL	ACCESS:      74915  HIT:      74516  MISS:        399
BTB BRANCH_DIRECT_CALL	ACCESS:       6013  HIT:       5388  MISS:        625
BTB BRANCH_INDIRECT_CALL	ACCESS:          3  HIT:          0  MISS:          3
BTB BRANCH_RETURN	ACCESS:       6018  HIT:       3946  MISS:       2072
BTB BRANCH_OTHER ACCESS:          0  HIT:          0  MISS:          0

L2C SPEC fills:          0  NON-SPEC fills:      37076
L2C Test counter :    1966982
L2C Leapfrog:          0
L2C MSHR merge:          5
L2C TOTAL     ACCESS:   27737085  HIT:   23444070  MISS:    4293015  HIT %:    84.5225  MISS %:    15.4775   MPKI: 21.4651
L2C LOAD      TOTAL       ACCESS:   21165480  HIT:   19016341  MISS:    2149139  HIT %:     89.846  MISS %:     10.154   MPKI: 10.7457
L2C LOAD      NON_SPEC    ACCESS:     452560  HIT:     414643  MISS:      37917  HIT %:    91.6217  MISS %:    8.37834   MPKI: 0.189585
L2C LOAD      SPEC        ACCESS:   20712920  HIT:   18601698  MISS:    2111222  HIT %:    89.8072  MISS %:    10.1928   MPKI: 10.5561
L2C RFO       NON_SPEC    ACCESS:    1609847  HIT:    1608717  MISS:       1130  HIT %:    99.9298  MISS %:   0.070193   MPKI: 0.00565
L2C PREFETCH  NON_SPEC    ACCESS:     162646  HIT:     156223  MISS:       6423  HIT %:    96.0509  MISS %:    3.94907   MPKI: 0.032115
L2C WRITEBACK NON_SPEC    ACCESS:    1630794  HIT:    1630793  MISS:          1  HIT %:    99.9999  MISS %: 6.13198e-05   MPKI: 5e-06
L2C CLEAN_EVICTION NON_SPEC    ACCESS:    2263843  HIT:     296004  MISS:    1967839  HIT %:    13.0753  MISS %:    86.9247   MPKI: 9.83919
L2C COMMIT LOAD NON_SPEC    ACCESS:     748808  HIT:     608226  MISS:     140582  HIT %:    81.2259  MISS %:    18.7741   MPKI: 0.70291
L2C LOAD TRANSLATION NON_SPEC    ACCESS:     122342  HIT:      94547  MISS:      27795  HIT %:    77.2809  MISS %:    22.7191   MPKI: 0.138975
L2C TRANSLATION FROM L1D PREFETCHER NON_SPEC    ACCESS:      33325  HIT:      33219  MISS:        106  HIT %:    99.6819  MISS %:    0.31808   MPKI: 0.00053
L2C PREFETCH  REQUESTED:          0  ISSUED:          0  USEFUL:       6034  USELESS:        482
L2C USEFUL LOAD PREFETCHES:       6034 PREFETCH ISSUED TO LOWER LEVEL:       6428  ACCURACY: 93.8706
L2C TIMELY PREFETCHES:       6034 LATE PREFETCHES: 5 DROPPED PREFETCHES: 0
L2C COMMIT LATE PREFETCHES: 0 MISSED OPPORTUNITY: 0 LATE IN PQ: 0 UNCOVERED: 0
L2C COMMIT LATE MSHR PREFETCHES: 0
L2C MPKI TOTAL: 10.7457 MSHR LATE: 2.5e-05 PQ LATE: 0 COMMIT LATE: 0 MISSED OPPORTUNITY: 0 UNCOVERED: 0
L2C PREFETCHES SAME FILL-ORIGIN LEVEL: 419 DIFFERENT FILL-ORIGIN LEVEL: 0
L2C AVERAGE MISS LATENCY: 100.843 cycles
L2C AVERAGE MISS LATENCY LOAD: 175.943 cycles
L2C AVERAGE MISS LATENCY PREFETCH: 195.364 cycles
L2C AVERAGE MSHR OCCUPANCY: 0.791307
L2C MSHR FULL: 0
L2C RQ	ACCESS:   24062124	FORWARD:          0	MERGED:          0	TO_CACHE:   23679804
L2C WQ	ACCESS:    3894702	FORWARD:     382324	MERGED:         64	TO_CACHE:    3894638
L2C PQ	ACCESS:     162718	FORWARD:          0	MERGED:          0	TO_CACHE:     162714

L2C Instructions Evicting Data 832
L2C Translations Evicting Data 26922
L2C Data Evicting Data 183359
L2C Instructions Evicting Instructions 7
L2C Translations Evicting Instructions 2
L2C Data Evicting Instructions 99
L2C Instructions Evicting Translations 2
L2C Translations Evicting Translations 977
L2C Data Evicting Translations 1753
L2C Dense regions hint from L2: 0
PSCL5 SPEC fills:          0  NON-SPEC fills:          0
PSCL5 Test counter :          0
PSCL5 Leapfrog:          0
PSCL5 MSHR merge:          0
PSCL5 TOTAL     ACCESS:          0  HIT:          0  MISS:          0  HIT %:       -nan  MISS %:       -nan   MPKI: 0
PSCL5 PREFETCH  REQUESTED:          0  ISSUED:          0  USEFUL:          0  USELESS:          0
PSCL5 USEFUL LOAD PREFETCHES:          0 PREFETCH ISSUED TO LOWER LEVEL:          0  ACCURACY: -nan
PSCL5 TIMELY PREFETCHES:          0 LATE PREFETCHES: 0 DROPPED PREFETCHES: 0
PSCL5 COMMIT LATE PREFETCHES: 0 MISSED OPPORTUNITY: 0 LATE IN PQ: 0 UNCOVERED: 0
PSCL5 COMMIT LATE MSHR PREFETCHES: 0
PSCL5 MPKI TOTAL: 0 MSHR LATE: 0 PQ LATE: 0 COMMIT LATE: 0 MISSED OPPORTUNITY: 0 UNCOVERED: 0
PSCL5 PREFETCHES SAME FILL-ORIGIN LEVEL: 0 DIFFERENT FILL-ORIGIN LEVEL: 0

PSCL4 SPEC fills:          0  NON-SPEC fills:          0
PSCL4 Test counter :          0
PSCL4 Leapfrog:          0
PSCL4 MSHR merge:          0
PSCL4 TOTAL     ACCESS:          0  HIT:          0  MISS:          0  HIT %:       -nan  MISS %:       -nan   MPKI: 0
PSCL4 PREFETCH  REQUESTED:          0  ISSUED:          0  USEFUL:          0  USELESS:          0
PSCL4 USEFUL LOAD PREFETCHES:          0 PREFETCH ISSUED TO LOWER LEVEL:          0  ACCURACY: -nan
PSCL4 TIMELY PREFETCHES:          0 LATE PREFETCHES: 0 DROPPED PREFETCHES: 0
PSCL4 COMMIT LATE PREFETCHES: 0 MISSED OPPORTUNITY: 0 LATE IN PQ: 0 UNCOVERED: 0
PSCL4 COMMIT LATE MSHR PREFETCHES: 0
PSCL4 MPKI TOTAL: 0 MSHR LATE: 0 PQ LATE: 0 COMMIT LATE: 0 MISSED OPPORTUNITY: 0 UNCOVERED: 0
PSCL4 PREFETCHES SAME FILL-ORIGIN LEVEL: 0 DIFFERENT FILL-ORIGIN LEVEL: 0

PSCL3 SPEC fills:          0  NON-SPEC fills:          0
PSCL3 Test counter :          0
PSCL3 Leapfrog:          0
PSCL3 MSHR merge:          0
PSCL3 TOTAL     ACCESS:          0  HIT:          0  MISS:          0  HIT %:       -nan  MISS %:       -nan   MPKI: 0
PSCL3 PREFETCH  REQUESTED:          0  ISSUED:          0  USEFUL:          0  USELESS:          0
PSCL3 USEFUL LOAD PREFETCHES:          0 PREFETCH ISSUED TO LOWER LEVEL:          0  ACCURACY: -nan
PSCL3 TIMELY PREFETCHES:          0 LATE PREFETCHES: 0 DROPPED PREFETCHES: 0
PSCL3 COMMIT LATE PREFETCHES: 0 MISSED OPPORTUNITY: 0 LATE IN PQ: 0 UNCOVERED: 0
PSCL3 COMMIT LATE MSHR PREFETCHES: 0
PSCL3 MPKI TOTAL: 0 MSHR LATE: 0 PQ LATE: 0 COMMIT LATE: 0 MISSED OPPORTUNITY: 0 UNCOVERED: 0
PSCL3 PREFETCHES SAME FILL-ORIGIN LEVEL: 0 DIFFERENT FILL-ORIGIN LEVEL: 0

PSCL2 SPEC fills:          0  NON-SPEC fills:          0
PSCL2 Test counter :          0
PSCL2 Leapfrog:          0
PSCL2 MSHR merge:          0
PSCL2 TOTAL     ACCESS:          0  HIT:          0  MISS:          0  HIT %:       -nan  MISS %:       -nan   MPKI: 0
PSCL2 PREFETCH  REQUESTED:          0  ISSUED:          0  USEFUL:          0  USELESS:          0
PSCL2 USEFUL LOAD PREFETCHES:          0 PREFETCH ISSUED TO LOWER LEVEL:          0  ACCURACY: -nan
PSCL2 TIMELY PREFETCHES:          0 LATE PREFETCHES: 0 DROPPED PREFETCHES: 0
PSCL2 COMMIT LATE PREFETCHES: 0 MISSED OPPORTUNITY: 0 LATE IN PQ: 0 UNCOVERED: 0
PSCL2 COMMIT LATE MSHR PREFETCHES: 0
PSCL2 MPKI TOTAL: 0 MSHR LATE: 0 PQ LATE: 0 COMMIT LATE: 0 MISSED OPPORTUNITY: 0 UNCOVERED: 0
PSCL2 PREFETCHES SAME FILL-ORIGIN LEVEL: 0 DIFFERENT FILL-ORIGIN LEVEL: 0

LLC SPEC fills:          0  NON-SPEC fills:      26714
LLC Test counter :    1375611
LLC Leapfrog:          0
LLC MSHR merge:          0
LLC TOTAL     ACCESS:    4393524  HIT:    1367325  MISS:    3026199  HIT %:    31.1214  MISS %:    68.8786   MPKI: 15.131
LLC LOAD      TOTAL       ACCESS:    2148646  HIT:     626231  MISS:    1522415  HIT %:    29.1454  MISS %:    70.8546   MPKI: 7.61207
LLC LOAD      NON_SPEC    ACCESS:      37905  HIT:      10361  MISS:      27544  HIT %:    27.3341  MISS %:    72.6659   MPKI: 0.13772
LLC LOAD      SPEC        ACCESS:    2110741  HIT:     615870  MISS:    1494871  HIT %:    29.1779  MISS %:    70.8221   MPKI: 7.47435
LLC RFO       NON_SPEC    ACCESS:       1117  HIT:         10  MISS:       1107  HIT %:   0.895255  MISS %:    99.1047   MPKI: 0.005535
LLC PREFETCH  NON_SPEC    ACCESS:       6428  HIT:        193  MISS:       6235  HIT %:    3.00249  MISS %:    96.9975   MPKI: 0.031175
LLC WRITEBACK NON_SPEC    ACCESS:     101906  HIT:     101887  MISS:         19  HIT %:    99.9814  MISS %:  0.0186446   MPKI: 9.5e-05
LLC CLEAN_EVICTION NON_SPEC    ACCESS:    1966982  HIT:     589746  MISS:    1377236  HIT %:    29.9823  MISS %:    70.0177   MPKI: 6.88618
LLC COMMIT LOAD NON_SPEC    ACCESS:     140544  HIT:      24970  MISS:     115574  HIT %:    17.7667  MISS %:    82.2333   MPKI: 0.57787
LLC LOAD TRANSLATION NON_SPEC    ACCESS:      27795  HIT:      24196  MISS:       3599  HIT %:    87.0516  MISS %:    12.9484   MPKI: 0.017995
LLC TRANSLATION FROM L1D PREFETCHER NON_SPEC    ACCESS:        106  HIT:         92  MISS:         14  HIT %:    86.7925  MISS %:    13.2075   MPKI: 7e-05
LLC PREFETCH  REQUESTED:          0  ISSUED:          0  USEFUL:        456  USELESS:       5846
LLC USEFUL LOAD PREFETCHES:        456 PREFETCH ISSUED TO LOWER LEVEL:       6235  ACCURACY: 7.31355
LLC TIMELY PREFETCHES:        456 LATE PREFETCHES: 0 DROPPED PREFETCHES: 0
LLC COMMIT LATE PREFETCHES: 0 MISSED OPPORTUNITY: 0 LATE IN PQ: 0 UNCOVERED: 0
LLC COMMIT LATE MSHR PREFETCHES: 0
LLC MPKI TOTAL: 7.61208 MSHR LATE: 0 PQ LATE: 0 COMMIT LATE: 0 MISSED OPPORTUNITY: 0 UNCOVERED: 0
LLC PREFETCHES SAME FILL-ORIGIN LEVEL: 0 DIFFERENT FILL-ORIGIN LEVEL: 0
LLC AVERAGE MISS LATENCY: 126.005 cycles
LLC AVERAGE MISS LATENCY LOAD: 217.982 cycles
LLC AVERAGE MISS LATENCY PREFETCH: 170.12 cycles
LLC AVERAGE MSHR OCCUPANCY: 3.12805
LLC MSHR FULL: 0
LLC RQ	ACCESS:    2318748	FORWARD:          0	MERGED:          0	TO_CACHE:    2318209
LLC WQ	ACCESS:    2068888	FORWARD:        539	MERGED:          0	TO_CACHE:    2068888
LLC PQ	ACCESS:       6428	FORWARD:          0	MERGED:          0	TO_CACHE:       6428

LLC Dense regions hint to LLC: 0

RAW hits: 84922
Loads Generated: 57291776
Loads sent to L1D: 57206847
Stores Generated: 22785115
Stores sent to L1D: 22785114
Major fault: 0 Minor fault: 17275
Allocated PAGES: 17275
Total Load insts: 86467829
Total Non-spec loads: 2219856
Percentage of speculative loads: 97.4327

LeapFrogging counter: 26998571
Commit hits: 31079461 miss: 24920086
Commit hit %: 55.4995 miss %: 44.5005
Commits not translated: 0
Loads retired: 21492998
Stores retired: 22785114
Cache fills: 21493003
L1D response latency: 29.0001 cycles
Load retirement latency: 141.393 cycles
OOO test counter: 0
Discarded buffer inserts: 31079461 hits: 3760116 hit %: 12.0984
Filter prediction accuracy: 98.5924
ALL MISSES SIZE: 137370
LATENCY_FILL: 28.8537 21529515
LATENCY_FILL_ROB: 94.6181 21441751
test counter pref: 2062969
Max ROB Extended: 50

DRAM Statistics
 CHANNEL 0
 RQ ROW_BUFFER_HIT:     629543  ROW_BUFFER_MISS:    1019401
 DBUS_CONGESTED:        779
 WQ ROW_BUFFER_HIT:     398503  ROW_BUFFER_MISS:    1082906  FULL:         40

 AVG_CONGESTED_CYCLE: 6
 All warmup complete: 2
Channel 0 Bank busy for read cycles: 0
Channel 0 Bank busy for write cycles: 0
Channel 0
Rank 0
0banks busy for read cycles: 196771276
0banks busy for write cycles: 384245
1banks busy for read cycles: 39006916
1banks busy for write cycles: 42683722
2banks busy for read cycles: 7857808
2banks busy for write cycles: 18879890
3banks busy for read cycles: 38756301
3banks busy for write cycles: 17723819
4banks busy for read cycles: 3188061
4banks busy for write cycles: 12534800
5banks busy for read cycles: 132320
5banks busy for write cycles: 2522670
6banks busy for read cycles: 6246
6banks busy for write cycles: 828544
7banks busy for read cycles: 330
7banks busy for write cycles: 281394
8banks busy for read cycles: 106
8banks busy for write cycles: 109678

CPU 0 Branch Prediction Accuracy: 99.5304% MPKI: 0.00654 Average ROB Occupancy at Mispredict: 30.6261
Branch types
NOT_BRANCH: 199721272 99.8606%
BRANCH_DIRECT_JUMP: 61458 0.030729%
BRANCH_INDIRECT: 58898 0.029449%
BRANCH_CONDITIONAL: 146150 0.073075%
BRANCH_DIRECT_CALL: 6013 0.0030065%
BRANCH_INDIRECT_CALL: 3 1.5e-06%
BRANCH_RETURN: 6018 0.003009%
BRANCH_OTHER: 0 0%

DRAM PAGES: 1048576
Allocated PAGES: 17275
