
*** ChampSim Multicore Out-of-Order Simulator ***

Warmup Instructions: 50000000
Simulation Instructions: 200000000
Number of CPUs: 1
LLC sets: 2048
LLC ways: 16
L0D sets: 16
L0D ways: 2
ROB size: 352
LQ size: 128
SQ size: 72
Secure Berti: ON
Berti: ON
Berti Fill: ON
On commit prefetching: OFF
Hit-based filter: ON
Time-guarding: ON
Free-slotting: ON
Leap-frogging: ON
Train prefetcher on L0D bypass: OFF
No translation penalty for prefetchers: OFF
Prefetch to L0D only: OFF
Prefetch to L1D only: OFF
Clean evictions: ON
Commit loads: ON
Commit write: ON
Fill commit loads to L2C, LLC: ON
DRAM IO FREQUENCY: 6400
ROB SIZE: 352
Off-chip DRAM Size: 4096 MB Channels: 1 Width: 64-bit Data Rate: 6400 MT/s
CPU 0 runs /home/sumon/secure_berti/GhostMinion/../../traces/spec/607.cactuBSSN_s-3477B.champsimtrace.xz
.xz
BTB has LRU replacement policy
ITLB has LRU replacement policy
DTLB has LRU replacement policy
STLB has LRU replacement policy
L1I has LRU replacement policy
L0D has LRU replacement policy
Berti version on_commit
History Sets: 8
History Ways: 16
BERTI Size: 16
BERTI Stride Size: 16
L1D has LRU replacement policy
L2C has LRU replacement policy
LLC has LRU replacement policy
Heartbeat CPU 0 instructions: 10000000 cycles: 4518707 heartbeat IPC: 2.21302 cumulative IPC: 2.21302 (Simulation time: 0 hr 1 min 18 sec) 
Heartbeat CPU 0 instructions: 20000001 cycles: 9046352 heartbeat IPC: 2.20865 cumulative IPC: 2.21084 (Simulation time: 0 hr 2 min 39 sec) 
Heartbeat CPU 0 instructions: 30000000 cycles: 13563054 heartbeat IPC: 2.214 cumulative IPC: 2.21189 (Simulation time: 0 hr 3 min 43 sec) 
Heartbeat CPU 0 instructions: 40000003 cycles: 18079592 heartbeat IPC: 2.21409 cumulative IPC: 2.21244 (Simulation time: 0 hr 4 min 53 sec) 
Heartbeat CPU 0 instructions: 50000002 cycles: 22607129 heartbeat IPC: 2.20871 cumulative IPC: 2.21169 (Simulation time: 0 hr 5 min 59 sec) 

Warmup complete CPU 0 instructions: 50000002 cycles: 22607129 (Simulation time: 0 hr 5 min 59 sec) 

Heartbeat CPU 0 instructions: 60000000 cycles: 40058094 heartbeat IPC: 0.573034 cumulative IPC: 0.573034 (Simulation time: 0 hr 7 min 2 sec) 
Heartbeat CPU 0 instructions: 70000002 cycles: 57453419 heartbeat IPC: 0.574867 cumulative IPC: 0.573949 (Simulation time: 0 hr 8 min 8 sec) 
Heartbeat CPU 0 instructions: 80000003 cycles: 74936802 heartbeat IPC: 0.571972 cumulative IPC: 0.573289 (Simulation time: 0 hr 9 min 18 sec) 
Heartbeat CPU 0 instructions: 90000002 cycles: 92371445 heartbeat IPC: 0.573571 cumulative IPC: 0.573359 (Simulation time: 0 hr 10 min 19 sec) 
Heartbeat CPU 0 instructions: 100000001 cycles: 109772344 heartbeat IPC: 0.574683 cumulative IPC: 0.573623 (Simulation time: 0 hr 11 min 19 sec) 
Heartbeat CPU 0 instructions: 110000000 cycles: 127069347 heartbeat IPC: 0.578135 cumulative IPC: 0.57437 (Simulation time: 0 hr 12 min 16 sec) 
Heartbeat CPU 0 instructions: 120000002 cycles: 144534883 heartbeat IPC: 0.572556 cumulative IPC: 0.57411 (Simulation time: 0 hr 13 min 14 sec) 
Heartbeat CPU 0 instructions: 130000000 cycles: 162140725 heartbeat IPC: 0.567993 cumulative IPC: 0.573339 (Simulation time: 0 hr 14 min 12 sec) 
Heartbeat CPU 0 instructions: 140000000 cycles: 179689372 heartbeat IPC: 0.569844 cumulative IPC: 0.572948 (Simulation time: 0 hr 15 min 10 sec) 
Heartbeat CPU 0 instructions: 150000000 cycles: 197099693 heartbeat IPC: 0.574372 cumulative IPC: 0.57309 (Simulation time: 0 hr 16 min 8 sec) 
Heartbeat CPU 0 instructions: 160000001 cycles: 214828241 heartbeat IPC: 0.564062 cumulative IPC: 0.572258 (Simulation time: 0 hr 17 min 7 sec) 
Heartbeat CPU 0 instructions: 170000000 cycles: 232228643 heartbeat IPC: 0.574699 cumulative IPC: 0.57246 (Simulation time: 0 hr 18 min 3 sec) 
Heartbeat CPU 0 instructions: 180000000 cycles: 249766592 heartbeat IPC: 0.570192 cumulative IPC: 0.572285 (Simulation time: 0 hr 18 min 58 sec) 
Heartbeat CPU 0 instructions: 190000000 cycles: 267129672 heartbeat IPC: 0.575935 cumulative IPC: 0.572544 (Simulation time: 0 hr 19 min 51 sec) 
Heartbeat CPU 0 instructions: 200000000 cycles: 285208812 heartbeat IPC: 0.553124 cumulative IPC: 0.571207 (Simulation time: 0 hr 20 min 45 sec) 
Heartbeat CPU 0 instructions: 210000001 cycles: 302765954 heartbeat IPC: 0.569569 cumulative IPC: 0.571105 (Simulation time: 0 hr 21 min 37 sec) 
Heartbeat CPU 0 instructions: 220000000 cycles: 320127355 heartbeat IPC: 0.57599 cumulative IPC: 0.57139 (Simulation time: 0 hr 22 min 26 sec) 
Heartbeat CPU 0 instructions: 230000000 cycles: 337511695 heartbeat IPC: 0.57523 cumulative IPC: 0.571602 (Simulation time: 0 hr 23 min 13 sec) 
Heartbeat CPU 0 instructions: 240000001 cycles: 355073138 heartbeat IPC: 0.569429 cumulative IPC: 0.571487 (Simulation time: 0 hr 24 min 1 sec) 
Heartbeat CPU 0 instructions: 250000002 cycles: 372578264 heartbeat IPC: 0.571261 cumulative IPC: 0.571476 (Simulation time: 0 hr 24 min 48 sec) 
Finished CPU 0 instructions: 200000000 cycles: 349971135 cumulative IPC: 0.571476 (Simulation time: 0 hr 24 min 48 sec) 
 Instruction ID: 250000026

ChampSim completed all CPUs

Region of Interest Statistics

CPU 0 cumulative IPC: 0.571476 instructions: 200000000 cycles: 349971135
ITLB SPEC fills:          0  NON-SPEC fills:          0
ITLB Test counter :          0
ITLB Leapfrog:          0
ITLB MSHR merge:          0
ITLB TOTAL     ACCESS:   28724138  HIT:   28724138  MISS:          0  HIT %:        100  MISS %:          0   MPKI: 0
ITLB LOAD TRANSLATION NON_SPEC    ACCESS:   28724138  HIT:   28724138  MISS:          0  HIT %:        100  MISS %:          0   MPKI: 0
ITLB PREFETCH  REQUESTED:          0  ISSUED:          0  USEFUL:          0  USELESS:          0
ITLB USEFUL LOAD PREFETCHES:          0 PREFETCH ISSUED TO LOWER LEVEL:          0  ACCURACY: -nan
ITLB TIMELY PREFETCHES:          0 LATE PREFETCHES: 0 DROPPED PREFETCHES: 0
ITLB COMMIT LATE PREFETCHES: 0 MISSED OPPORTUNITY: 0 LATE IN PQ: 0 UNCOVERED: 0
ITLB COMMIT LATE MSHR PREFETCHES: 0
ITLB MPKI TOTAL: 0 MSHR LATE: 0 PQ LATE: 0 COMMIT LATE: 0 MISSED OPPORTUNITY: 0 UNCOVERED: 0
ITLB PREFETCHES SAME FILL-ORIGIN LEVEL: 0 DIFFERENT FILL-ORIGIN LEVEL: 0
ITLB AVERAGE MISS LATENCY: -nan cycles
ITLB AVERAGE MISS LATENCY LOAD: -nan cycles
ITLB AVERAGE MISS LATENCY PREFETCH: -nan cycles
ITLB AVERAGE MSHR OCCUPANCY: 0
ITLB MSHR FULL: 0
ITLB RQ	ACCESS:   34844309	FORWARD:          0	MERGED:    6120171	TO_CACHE:   28724138

DTLB SPEC fills:          0  NON-SPEC fills:          0
DTLB Test counter :          0
DTLB Leapfrog:          0
DTLB MSHR merge:          0
DTLB TOTAL     ACCESS:   61900687  HIT:   54325336  MISS:    7575351  HIT %:    87.7621  MISS %:    12.2379   MPKI: 37.8768
DTLB LOAD TRANSLATION NON_SPEC    ACCESS:   61900687  HIT:   54325336  MISS:    7575351  HIT %:    87.7621  MISS %:    12.2379   MPKI: 37.8768
DTLB PREFETCH  REQUESTED:          0  ISSUED:          0  USEFUL:          0  USELESS:          0
DTLB USEFUL LOAD PREFETCHES:          0 PREFETCH ISSUED TO LOWER LEVEL:          0  ACCURACY: -nan
DTLB TIMELY PREFETCHES:          0 LATE PREFETCHES: 0 DROPPED PREFETCHES: 0
DTLB COMMIT LATE PREFETCHES: 0 MISSED OPPORTUNITY: 0 LATE IN PQ: 0 UNCOVERED: 0
DTLB COMMIT LATE MSHR PREFETCHES: 0
DTLB MPKI TOTAL: 0 MSHR LATE: 0 PQ LATE: 0 COMMIT LATE: 0 MISSED OPPORTUNITY: 0 UNCOVERED: 0
DTLB PREFETCHES SAME FILL-ORIGIN LEVEL: 0 DIFFERENT FILL-ORIGIN LEVEL: 0
DTLB AVERAGE MISS LATENCY: 10.0484 cycles
DTLB AVERAGE MISS LATENCY LOAD: -nan cycles
DTLB AVERAGE MISS LATENCY PREFETCH: -nan cycles
DTLB AVERAGE MSHR OCCUPANCY: 0.783167
DTLB MSHR FULL: 0.0212644
DTLB RQ	ACCESS:   82889233	FORWARD:          0	MERGED:   20021857	TO_CACHE:   62867376

STLB SPEC fills:          0  NON-SPEC fills:          0
STLB Test counter :          0
STLB Leapfrog:          0
STLB MSHR merge:          0
STLB TOTAL     ACCESS:    7773168  HIT:    7764856  MISS:       8312  HIT %:    99.8931  MISS %:   0.106932   MPKI: 0.04156
STLB LOAD TRANSLATION NON_SPEC    ACCESS:    7575351  HIT:    7567172  MISS:       8179  HIT %:     99.892  MISS %:   0.107969   MPKI: 0.040895
STLB TRANSLATION FROM L1D PREFETCHER NON_SPEC    ACCESS:     197817  HIT:     197684  MISS:        133  HIT %:    99.9328  MISS %:  0.0672339   MPKI: 0.000665
STLB PREFETCH  REQUESTED:          0  ISSUED:          0  USEFUL:        133  USELESS:          0
STLB USEFUL LOAD PREFETCHES:        133 PREFETCH ISSUED TO LOWER LEVEL:          0  ACCURACY: inf
STLB TIMELY PREFETCHES:        133 LATE PREFETCHES: 0 DROPPED PREFETCHES: 41312
STLB COMMIT LATE PREFETCHES: 0 MISSED OPPORTUNITY: 0 LATE IN PQ: 0 UNCOVERED: 0
STLB COMMIT LATE MSHR PREFETCHES: 0
STLB MPKI TOTAL: 0 MSHR LATE: 0 PQ LATE: 0 COMMIT LATE: 0 MISSED OPPORTUNITY: 0 UNCOVERED: 0
STLB PREFETCHES SAME FILL-ORIGIN LEVEL: 0 DIFFERENT FILL-ORIGIN LEVEL: 0
STLB AVERAGE MISS LATENCY: 634.749 cycles
STLB AVERAGE MISS LATENCY LOAD: -nan cycles
STLB AVERAGE MISS LATENCY PREFETCH: -nan cycles
STLB AVERAGE MSHR OCCUPANCY: 0.0132756
STLB MSHR FULL: 0
STLB RQ	ACCESS:    7821318	FORWARD:          0	MERGED:       5686	TO_CACHE:    7815632

STLB Hit, L1D data hit: 0
STLB Hit, L2C data hit: 0
STLB Hit, LLC data hit: 0
STLB Hit, LLC data miss: 0
STLB STLB hints to L2: 0
L0D SPEC fills:   46371027  NON-SPEC fills:          0
L0D TimeGuard Request with older TS:    2884037 Restricted eviction:    2972043 read:    2808963
L0D Test counter :          0
L0D Leapfrog:          0
L0D MSHR merge:    2728589
L0D TOTAL     ACCESS:   64144378  HIT:    8795241  MISS:   55349137  HIT %:    13.7116  MISS %:    86.2884   MPKI: 276.746
L0D LOAD      TOTAL       ACCESS:   64144378  HIT:    8795241  MISS:   55349137  HIT %:    13.7116  MISS %:    86.2884   MPKI: 276.746
L0D LOAD      NON_SPEC    ACCESS:    6356814  HIT:     350213  MISS:    6006601  HIT %:    5.50925  MISS %:    94.4907   MPKI: 30.033
L0D LOAD      SPEC        ACCESS:   57787564  HIT:    8445028  MISS:   49342536  HIT %:    14.6139  MISS %:    85.3861   MPKI: 246.713
L0D PREFETCH  REQUESTED:          0  ISSUED:          0  USEFUL:          0  USELESS:          0
L0D USEFUL LOAD PREFETCHES:          0 PREFETCH ISSUED TO LOWER LEVEL:          0  ACCURACY: -nan
L0D TIMELY PREFETCHES:          0 LATE PREFETCHES: 0 DROPPED PREFETCHES: 0
L0D COMMIT LATE PREFETCHES: 0 MISSED OPPORTUNITY: 0 LATE IN PQ: 0 UNCOVERED: 0
L0D COMMIT LATE MSHR PREFETCHES: 0
L0D MPKI TOTAL: 290.389 MSHR LATE: 0 PQ LATE: 0 COMMIT LATE: 0 MISSED OPPORTUNITY: 0 UNCOVERED: 0
L0D PREFETCHES SAME FILL-ORIGIN LEVEL: 0 DIFFERENT FILL-ORIGIN LEVEL: 0
L0D AVERAGE MISS LATENCY: 15.411 cycles
L0D AVERAGE MISS LATENCY LOAD: 15.411 cycles
L0D AVERAGE MISS LATENCY PREFETCH: -nan cycles
L0D AVERAGE MSHR OCCUPANCY: 5.33291
L0D MSHR FULL: 0.453474
L0D RQ	ACCESS:   77325683	FORWARD:          0	MERGED:   10452727	TO_CACHE:   66872956
L0D WQ	ACCESS:   16016277	FORWARD:          0	MERGED:          0	TO_CACHE:   16016277

L1D SPEC fills:          0  NON-SPEC fills:     604546
L1D Test counter :    1273630
L1D Leapfrog:          0
L1D MSHR merge:      85120
L1D TOTAL     ACCESS:   87713167  HIT:   59291826  MISS:   28421341  HIT %:    67.5974  MISS %:    32.4026   MPKI: 142.107
L1D LOAD      TOTAL       ACCESS:   55264021  HIT:   40933291  MISS:   14330730  HIT %:    74.0686  MISS %:    25.9314   MPKI: 71.6536
L1D LOAD      NON_SPEC    ACCESS:    5993406  HIT:    5388860  MISS:     604546  HIT %:    89.9131  MISS %:    10.0869   MPKI: 3.02273
L1D LOAD      SPEC        ACCESS:   49270615  HIT:   35544431  MISS:   13726184  HIT %:    72.1412  MISS %:    27.8588   MPKI: 68.6309
L1D RFO       NON_SPEC    ACCESS:   15720755  HIT:   14498514  MISS:    1222241  HIT %:    92.2253  MISS %:     7.7747   MPKI: 6.1112
L1D PREFETCH  NON_SPEC    ACCESS:     119769  HIT:     110179  MISS:       9590  HIT %:    91.9929  MISS %:    8.00708   MPKI: 0.04795
L1D COMMIT LOAD NON_SPEC    ACCESS:    5729769  HIT:    3225160  MISS:    2504609  HIT %:    56.2878  MISS %:    43.7122   MPKI: 12.523
L1D COMMIT WRITE NON_SPEC    ACCESS:   10878853  HIT:     524682  MISS:   10354171  HIT %:    4.82295  MISS %:     95.177   MPKI: 51.7709
L1D PREFETCH  REQUESTED:     247446  ISSUED:     247446  USEFUL:       5201  USELESS:       4389
L1D USEFUL LOAD PREFETCHES:       5201 PREFETCH ISSUED TO LOWER LEVEL:      90844  ACCURACY: 5.7252
L1D TIMELY PREFETCHES:       5201 LATE PREFETCHES: 6 DROPPED PREFETCHES: 43765
L1D COMMIT LATE PREFETCHES: 0 MISSED OPPORTUNITY: 0 LATE IN PQ: 0 UNCOVERED: 0
L1D COMMIT LATE MSHR PREFETCHES: 0
L1D MPKI TOTAL: 72.0792 MSHR LATE: 3e-05 PQ LATE: 0 COMMIT LATE: 0 MISSED OPPORTUNITY: 0 UNCOVERED: 0
L1D PREFETCHES SAME FILL-ORIGIN LEVEL: 9596 DIFFERENT FILL-ORIGIN LEVEL: 81248
L1D AVERAGE MISS LATENCY: 14.7582 cycles
L1D AVERAGE MISS LATENCY LOAD: 18.0034 cycles
L1D AVERAGE MISS LATENCY PREFETCH: 16.8178 cycles
L1D AVERAGE MSHR OCCUPANCY: 3.30845
L1D MSHR FULL: 0.119533
L1D RQ	ACCESS:   62352611	FORWARD:          0	MERGED:    1134895	TO_CACHE:   61217715
L1D WQ	ACCESS:   26895127	FORWARD:          1	MERGED:     125090	TO_CACHE:   26770037
L1D PQ	ACCESS:     247446	FORWARD:          0	MERGED:       1479	TO_CACHE:     245967

L1D UNIQUE REGIONS ACCESSED: 0
L1D REGIONS CONFLICTS: 0
L1D Cross Page Prefetch Requests: 224399
L1D Same Page Prefetch Requests: 123079
L1D ROI Sum of L1D PQ occupancy: 6291264
L1D PREFETCHES PUSHED FROM L2C: 0
L1I SPEC fills:          0  NON-SPEC fills:          0
L1I Test counter :          0
L1I Leapfrog:          0
L1I MSHR merge:    2854634
L1I TOTAL     ACCESS:   31989673  HIT:   26205244  MISS:    5784429  HIT %:    81.9178  MISS %:    18.0822   MPKI: 28.9221
L1I LOAD      TOTAL       ACCESS:   31989673  HIT:   26205244  MISS:    5784429  HIT %:    81.9178  MISS %:    18.0822   MPKI: 28.9221
L1I LOAD      NON_SPEC    ACCESS:   31989673  HIT:   26205244  MISS:    5784429  HIT %:    81.9178  MISS %:    18.0822   MPKI: 28.9221
L1I PREFETCH  REQUESTED:          0  ISSUED:          0  USEFUL:          0  USELESS:          0
L1I USEFUL LOAD PREFETCHES:          0 PREFETCH ISSUED TO LOWER LEVEL:          0  ACCURACY: -nan
L1I TIMELY PREFETCHES:          0 LATE PREFETCHES: 0 DROPPED PREFETCHES: 0
L1I COMMIT LATE PREFETCHES: 0 MISSED OPPORTUNITY: 0 LATE IN PQ: 0 UNCOVERED: 0
L1I COMMIT LATE MSHR PREFETCHES: 0
L1I MPKI TOTAL: 43.1953 MSHR LATE: 0 PQ LATE: 0 COMMIT LATE: 0 MISSED OPPORTUNITY: 0 UNCOVERED: 0
L1I PREFETCHES SAME FILL-ORIGIN LEVEL: 0 DIFFERENT FILL-ORIGIN LEVEL: 0
L1I AVERAGE MISS LATENCY: 14.0391 cycles
L1I AVERAGE MISS LATENCY LOAD: 14.0391 cycles
L1I AVERAGE MISS LATENCY PREFETCH: -nan cycles
L1I AVERAGE MSHR OCCUPANCY: 0.218312
L1I MSHR FULL: 0
L1I RQ	ACCESS:   49661441	FORWARD:          0	MERGED:   14817132	TO_CACHE:   34844309

BTB SPEC fills:          0  NON-SPEC fills:          0
BTB Test counter :          0
BTB Leapfrog:          0
BTB MSHR merge:          0
BTB TOTAL     ACCESS:    1169485  HIT:    1096958  MISS:      72527  HIT %:    93.7984  MISS %:    6.20162   MPKI: 0.362635
BTB BRANCH_DIRECT_JUMP	ACCESS:     217104  HIT:     217073  MISS:         31
BTB BRANCH_INDIRECT	ACCESS:      36158  HIT:      36156  MISS:          2
BTB BRANCH_CONDITIONAL	ACCESS:     482257  HIT:     482171  MISS:         86
BTB BRANCH_DIRECT_CALL	ACCESS:     216983  HIT:     216939  MISS:         44
BTB BRANCH_INDIRECT_CALL	ACCESS:          0  HIT:          0  MISS:          0
BTB BRANCH_RETURN	ACCESS:     216983  HIT:     144619  MISS:      72364
BTB BRANCH_OTHER ACCESS:          0  HIT:          0  MISS:          0

L2C SPEC fills:          0  NON-SPEC fills:      48534
L2C Test counter :     780072
L2C Leapfrog:          0
L2C MSHR merge:          3
L2C TOTAL     ACCESS:   26683558  HIT:   24684139  MISS:    1999419  HIT %:    92.5069  MISS %:    7.49307   MPKI: 9.99709
L2C LOAD      TOTAL       ACCESS:   20108593  HIT:   19151409  MISS:     957184  HIT %:    95.2399  MISS %:    4.76007   MPKI: 4.78592
L2C LOAD      NON_SPEC    ACCESS:    6388751  HIT:    6339838  MISS:      48913  HIT %:    99.2344  MISS %:   0.765611   MPKI: 0.244565
L2C LOAD      SPEC        ACCESS:   13719842  HIT:   12811571  MISS:     908271  HIT %:    93.3799  MISS %:    6.62013   MPKI: 4.54136
L2C RFO       NON_SPEC    ACCESS:    1219799  HIT:    1102712  MISS:     117087  HIT %:    90.4011  MISS %:    9.59888   MPKI: 0.585435
L2C PREFETCH  NON_SPEC    ACCESS:      90800  HIT:      85148  MISS:       5652  HIT %:    93.7753  MISS %:    6.22467   MPKI: 0.02826
L2C WRITEBACK NON_SPEC    ACCESS:    1238061  HIT:    1238061  MISS:          0  HIT %:        100  MISS %:          0   MPKI: 0
L2C CLEAN_EVICTION NON_SPEC    ACCESS:    1273629  HIT:     538911  MISS:     734718  HIT %:     42.313  MISS %:     57.687   MPKI: 3.67359
L2C COMMIT LOAD NON_SPEC    ACCESS:    2504565  HIT:    2331452  MISS:     173113  HIT %:    93.0881  MISS %:     6.9119   MPKI: 0.865565
L2C LOAD TRANSLATION NON_SPEC    ACCESS:      40886  HIT:      29738  MISS:      11148  HIT %:    72.7339  MISS %:    27.2661   MPKI: 0.05574
L2C TRANSLATION FROM L1D PREFETCHER NON_SPEC    ACCESS:     207225  HIT:     206708  MISS:        517  HIT %:    99.7505  MISS %:   0.249487   MPKI: 0.002585
L2C PREFETCH  REQUESTED:          0  ISSUED:          0  USEFUL:       3175  USELESS:       3024
L2C USEFUL LOAD PREFETCHES:       3175 PREFETCH ISSUED TO LOWER LEVEL:       5655  ACCURACY: 56.145
L2C TIMELY PREFETCHES:       3175 LATE PREFETCHES: 3 DROPPED PREFETCHES: 0
L2C COMMIT LATE PREFETCHES: 0 MISSED OPPORTUNITY: 0 LATE IN PQ: 0 UNCOVERED: 0
L2C COMMIT LATE MSHR PREFETCHES: 0
L2C MPKI TOTAL: 4.78592 MSHR LATE: 1.5e-05 PQ LATE: 0 COMMIT LATE: 0 MISSED OPPORTUNITY: 0 UNCOVERED: 0
L2C PREFETCHES SAME FILL-ORIGIN LEVEL: 5130 DIFFERENT FILL-ORIGIN LEVEL: 0
L2C AVERAGE MISS LATENCY: 95.8152 cycles
L2C AVERAGE MISS LATENCY LOAD: 90.5001 cycles
L2C AVERAGE MISS LATENCY PREFETCH: 158.783 cycles
L2C AVERAGE MSHR OCCUPANCY: 0.587222
L2C MSHR FULL: 0
L2C RQ	ACCESS:   24090116	FORWARD:          0	MERGED:          0	TO_CACHE:   24081068
L2C WQ	ACCESS:    2511692	FORWARD:       9088	MERGED:          2	TO_CACHE:    2511690
L2C PQ	ACCESS:      90844	FORWARD:          0	MERGED:          0	TO_CACHE:      90804

L2C Instructions Evicting Data 375
L2C Translations Evicting Data 11537
L2C Data Evicting Data 340575
L2C Instructions Evicting Instructions 0
L2C Translations Evicting Instructions 4
L2C Data Evicting Instructions 111
L2C Instructions Evicting Translations 4
L2C Translations Evicting Translations 124
L2C Data Evicting Translations 3700
L2C Dense regions hint from L2: 0
PSCL5 SPEC fills:          0  NON-SPEC fills:          0
PSCL5 Test counter :          0
PSCL5 Leapfrog:          0
PSCL5 MSHR merge:          0
PSCL5 TOTAL     ACCESS:          0  HIT:          0  MISS:          0  HIT %:       -nan  MISS %:       -nan   MPKI: 0
PSCL5 PREFETCH  REQUESTED:          0  ISSUED:          0  USEFUL:          0  USELESS:          0
PSCL5 USEFUL LOAD PREFETCHES:          0 PREFETCH ISSUED TO LOWER LEVEL:          0  ACCURACY: -nan
PSCL5 TIMELY PREFETCHES:          0 LATE PREFETCHES: 0 DROPPED PREFETCHES: 0
PSCL5 COMMIT LATE PREFETCHES: 0 MISSED OPPORTUNITY: 0 LATE IN PQ: 0 UNCOVERED: 0
PSCL5 COMMIT LATE MSHR PREFETCHES: 0
PSCL5 MPKI TOTAL: 0 MSHR LATE: 0 PQ LATE: 0 COMMIT LATE: 0 MISSED OPPORTUNITY: 0 UNCOVERED: 0
PSCL5 PREFETCHES SAME FILL-ORIGIN LEVEL: 0 DIFFERENT FILL-ORIGIN LEVEL: 0

PSCL4 SPEC fills:          0  NON-SPEC fills:          0
PSCL4 Test counter :          0
PSCL4 Leapfrog:          0
PSCL4 MSHR merge:          0
PSCL4 TOTAL     ACCESS:          0  HIT:          0  MISS:          0  HIT %:       -nan  MISS %:       -nan   MPKI: 0
PSCL4 PREFETCH  REQUESTED:          0  ISSUED:          0  USEFUL:          0  USELESS:          0
PSCL4 USEFUL LOAD PREFETCHES:          0 PREFETCH ISSUED TO LOWER LEVEL:          0  ACCURACY: -nan
PSCL4 TIMELY PREFETCHES:          0 LATE PREFETCHES: 0 DROPPED PREFETCHES: 0
PSCL4 COMMIT LATE PREFETCHES: 0 MISSED OPPORTUNITY: 0 LATE IN PQ: 0 UNCOVERED: 0
PSCL4 COMMIT LATE MSHR PREFETCHES: 0
PSCL4 MPKI TOTAL: 0 MSHR LATE: 0 PQ LATE: 0 COMMIT LATE: 0 MISSED OPPORTUNITY: 0 UNCOVERED: 0
PSCL4 PREFETCHES SAME FILL-ORIGIN LEVEL: 0 DIFFERENT FILL-ORIGIN LEVEL: 0

PSCL3 SPEC fills:          0  NON-SPEC fills:          0
PSCL3 Test counter :          0
PSCL3 Leapfrog:          0
PSCL3 MSHR merge:          0
PSCL3 TOTAL     ACCESS:          0  HIT:          0  MISS:          0  HIT %:       -nan  MISS %:       -nan   MPKI: 0
PSCL3 PREFETCH  REQUESTED:          0  ISSUED:          0  USEFUL:          0  USELESS:          0
PSCL3 USEFUL LOAD PREFETCHES:          0 PREFETCH ISSUED TO LOWER LEVEL:          0  ACCURACY: -nan
PSCL3 TIMELY PREFETCHES:          0 LATE PREFETCHES: 0 DROPPED PREFETCHES: 0
PSCL3 COMMIT LATE PREFETCHES: 0 MISSED OPPORTUNITY: 0 LATE IN PQ: 0 UNCOVERED: 0
PSCL3 COMMIT LATE MSHR PREFETCHES: 0
PSCL3 MPKI TOTAL: 0 MSHR LATE: 0 PQ LATE: 0 COMMIT LATE: 0 MISSED OPPORTUNITY: 0 UNCOVERED: 0
PSCL3 PREFETCHES SAME FILL-ORIGIN LEVEL: 0 DIFFERENT FILL-ORIGIN LEVEL: 0

PSCL2 SPEC fills:          0  NON-SPEC fills:          0
PSCL2 Test counter :          0
PSCL2 Leapfrog:          0
PSCL2 MSHR merge:          0
PSCL2 TOTAL     ACCESS:          0  HIT:          0  MISS:          0  HIT %:       -nan  MISS %:       -nan   MPKI: 0
PSCL2 PREFETCH  REQUESTED:          0  ISSUED:          0  USEFUL:          0  USELESS:          0
PSCL2 USEFUL LOAD PREFETCHES:          0 PREFETCH ISSUED TO LOWER LEVEL:          0  ACCURACY: -nan
PSCL2 TIMELY PREFETCHES:          0 LATE PREFETCHES: 0 DROPPED PREFETCHES: 0
PSCL2 COMMIT LATE PREFETCHES: 0 MISSED OPPORTUNITY: 0 LATE IN PQ: 0 UNCOVERED: 0
PSCL2 COMMIT LATE MSHR PREFETCHES: 0
PSCL2 MPKI TOTAL: 0 MSHR LATE: 0 PQ LATE: 0 COMMIT LATE: 0 MISSED OPPORTUNITY: 0 UNCOVERED: 0
PSCL2 PREFETCHES SAME FILL-ORIGIN LEVEL: 0 DIFFERENT FILL-ORIGIN LEVEL: 0

LLC SPEC fills:          0  NON-SPEC fills:      10103
LLC Test counter :     359214
LLC Leapfrog:          0
LLC MSHR merge:          0
LLC TOTAL     ACCESS:    2160872  HIT:    1239197  MISS:     921675  HIT %:    57.3471  MISS %:    42.6529   MPKI: 4.60837
LLC LOAD      TOTAL       ACCESS:     956483  HIT:     551645  MISS:     404838  HIT %:    57.6743  MISS %:    42.3257   MPKI: 2.02419
LLC LOAD      NON_SPEC    ACCESS:      48897  HIT:      38415  MISS:      10482  HIT %:    78.5631  MISS %:    21.4369   MPKI: 0.05241
LLC LOAD      SPEC        ACCESS:     907586  HIT:     513230  MISS:     394356  HIT %:    56.5489  MISS %:    43.4511   MPKI: 1.97178
LLC RFO       NON_SPEC    ACCESS:     117087  HIT:          0  MISS:     117087  HIT %:          0  MISS %:        100   MPKI: 0.585435
LLC PREFETCH  NON_SPEC    ACCESS:       5655  HIT:       1372  MISS:       4283  HIT %:    24.2617  MISS %:    75.7383   MPKI: 0.021415
LLC WRITEBACK NON_SPEC    ACCESS:     116996  HIT:     116996  MISS:          0  HIT %:        100  MISS %:          0   MPKI: 0
LLC CLEAN_EVICTION NON_SPEC    ACCESS:     780072  HIT:     450319  MISS:     329753  HIT %:    57.7279  MISS %:    42.2721   MPKI: 1.64877
LLC COMMIT LOAD NON_SPEC    ACCESS:     172914  HIT:     108385  MISS:      64529  HIT %:    62.6814  MISS %:    37.3186   MPKI: 0.322645
LLC LOAD TRANSLATION NON_SPEC    ACCESS:      11148  HIT:      10061  MISS:       1087  HIT %:    90.2494  MISS %:    9.75063   MPKI: 0.005435
LLC TRANSLATION FROM L1D PREFETCHER NON_SPEC    ACCESS:        517  HIT:        419  MISS:         98  HIT %:    81.0445  MISS %:    18.9555   MPKI: 0.00049
LLC PREFETCH  REQUESTED:          0  ISSUED:          0  USEFUL:       3497  USELESS:       1048
LLC USEFUL LOAD PREFETCHES:       3497 PREFETCH ISSUED TO LOWER LEVEL:       4283  ACCURACY: 81.6484
LLC TIMELY PREFETCHES:       3497 LATE PREFETCHES: 0 DROPPED PREFETCHES: 0
LLC COMMIT LATE PREFETCHES: 0 MISSED OPPORTUNITY: 0 LATE IN PQ: 0 UNCOVERED: 0
LLC COMMIT LATE MSHR PREFETCHES: 0
LLC MPKI TOTAL: 2.02419 MSHR LATE: 0 PQ LATE: 0 COMMIT LATE: 0 MISSED OPPORTUNITY: 0 UNCOVERED: 0
LLC PREFETCHES SAME FILL-ORIGIN LEVEL: 0 DIFFERENT FILL-ORIGIN LEVEL: 0
LLC AVERAGE MISS LATENCY: 175.309 cycles
LLC AVERAGE MISS LATENCY LOAD: 162.724 cycles
LLC AVERAGE MISS LATENCY PREFETCH: 169.912 cycles
LLC AVERAGE MSHR OCCUPANCY: 2.04959
LLC MSHR FULL: 0
LLC RQ	ACCESS:    1259046	FORWARD:          0	MERGED:          0	TO_CACHE:    1258149
LLC WQ	ACCESS:     897068	FORWARD:        897	MERGED:          0	TO_CACHE:     897068
LLC PQ	ACCESS:       5655	FORWARD:          0	MERGED:          0	TO_CACHE:       5655

LLC Dense regions hint to LLC: 0

RAW hits: 509980
Loads Generated: 77835662
Loads sent to L1D: 77325683
Stores Generated: 16016275
Stores sent to L1D: 16016277
Major fault: 0 Minor fault: 8463
Allocated PAGES: 8463
Total Load insts: 136172585
Total Non-spec loads: 9033621
Percentage of speculative loads: 93.366

LeapFrogging counter: 32997474
Commit hits: 43824426 miss: 27056403
Commit hit %: 61.8283 miss %: 38.1717
Commits not translated: 0
Loads retired: 14330730
Stores retired: 16016277
Cache fills: 14330730
L1D response latency: 18.0034 cycles
Load retirement latency: 211.645 cycles
OOO test counter: 0
Discarded buffer inserts: 43824426 hits: 571976 hit %: 1.30515
Filter prediction accuracy: 98.2578
ALL MISSES SIZE: 219353
LATENCY_FILL: 17.8648 14365108
LATENCY_FILL_ROB: 175.85 14356987
test counter pref: 1949346
Max ROB Extended: 55

DRAM Statistics
 CHANNEL 0
 RQ ROW_BUFFER_HIT:     341589  ROW_BUFFER_MISS:     250333
 DBUS_CONGESTED:        738
 WQ ROW_BUFFER_HIT:     114610  ROW_BUFFER_MISS:     360479  FULL:          0

 AVG_CONGESTED_CYCLE: 5
 All warmup complete: 2
Channel 0 Bank busy for read cycles: 0
Channel 0 Bank busy for write cycles: 0
Channel 0
Rank 0
0banks busy for read cycles: 265554299
0banks busy for write cycles: 255677
1banks busy for read cycles: 29045315
1banks busy for write cycles: 31377275
2banks busy for read cycles: 6151342
2banks busy for write cycles: 8787653
3banks busy for read cycles: 2585629
3banks busy for write cycles: 3227773
4banks busy for read cycles: 836181
4banks busy for write cycles: 1093290
5banks busy for read cycles: 360573
5banks busy for write cycles: 371034
6banks busy for read cycles: 60381
6banks busy for write cycles: 169576
7banks busy for read cycles: 2660
7banks busy for write cycles: 71208
8banks busy for read cycles: 33
8banks busy for write cycles: 21237

CPU 0 Branch Prediction Accuracy: 99.9869% MPKI: 0.001165 Average ROB Occupancy at Mispredict: 21.7768
Branch types
NOT_BRANCH: 198225688 99.1128%
BRANCH_DIRECT_JUMP: 217104 0.108552%
BRANCH_INDIRECT: 36158 0.018079%
BRANCH_CONDITIONAL: 1086728 0.543364%
BRANCH_DIRECT_CALL: 216983 0.108492%
BRANCH_INDIRECT_CALL: 0 0%
BRANCH_RETURN: 216983 0.108492%
BRANCH_OTHER: 0 0%

DRAM PAGES: 1048576
Allocated PAGES: 8463
