
*** ChampSim Multicore Out-of-Order Simulator ***

Warmup Instructions: 50000000
Simulation Instructions: 200000000
Number of CPUs: 1
LLC sets: 2048
LLC ways: 16
L0D sets: 16
L0D ways: 2
ROB size: 352
LQ size: 128
SQ size: 72
Secure Berti: ON
Berti: ON
Berti Fill: ON
On commit prefetching: OFF
Hit-based filter: ON
Time-guarding: ON
Free-slotting: ON
Leap-frogging: ON
Train prefetcher on L0D bypass: OFF
No translation penalty for prefetchers: OFF
Prefetch to L0D only: OFF
Prefetch to L1D only: OFF
Clean evictions: ON
Commit loads: ON
Commit write: ON
Fill commit loads to L2C, LLC: ON
DRAM IO FREQUENCY: 6400
ROB SIZE: 352
Off-chip DRAM Size: 4096 MB Channels: 1 Width: 64-bit Data Rate: 6400 MT/s
CPU 0 runs /home/sumon/secure_berti/GhostMinion/../../traces/spec/619.lbm_s-4268B.champsimtrace.xz
.xz
BTB has LRU replacement policy
ITLB has LRU replacement policy
DTLB has LRU replacement policy
STLB has LRU replacement policy
L1I has LRU replacement policy
L0D has LRU replacement policy
Berti version on_commit
History Sets: 8
History Ways: 16
BERTI Size: 16
BERTI Stride Size: 16
L1D has LRU replacement policy
L2C has LRU replacement policy
LLC has LRU replacement policy
Heartbeat CPU 0 instructions: 10000000 cycles: 3104345 heartbeat IPC: 3.22129 cumulative IPC: 3.22129 (Simulation time: 0 hr 1 min 16 sec) 
Heartbeat CPU 0 instructions: 20000003 cycles: 6207680 heartbeat IPC: 3.22234 cumulative IPC: 3.22182 (Simulation time: 0 hr 2 min 31 sec) 
Heartbeat CPU 0 instructions: 30000000 cycles: 9300916 heartbeat IPC: 3.23286 cumulative IPC: 3.22549 (Simulation time: 0 hr 3 min 49 sec) 
Heartbeat CPU 0 instructions: 40000000 cycles: 12406911 heartbeat IPC: 3.21958 cumulative IPC: 3.22401 (Simulation time: 0 hr 5 min 5 sec) 
Heartbeat CPU 0 instructions: 50000003 cycles: 15515396 heartbeat IPC: 3.217 cumulative IPC: 3.22261 (Simulation time: 0 hr 6 min 15 sec) 

Warmup complete CPU 0 instructions: 50000003 cycles: 15515396 (Simulation time: 0 hr 6 min 15 sec) 

Heartbeat CPU 0 instructions: 60000000 cycles: 41099976 heartbeat IPC: 0.39086 cumulative IPC: 0.39086 (Simulation time: 0 hr 8 min 40 sec) 
Heartbeat CPU 0 instructions: 70000000 cycles: 66274112 heartbeat IPC: 0.397233 cumulative IPC: 0.394021 (Simulation time: 0 hr 11 min 0 sec) 
Heartbeat CPU 0 instructions: 80000001 cycles: 91237872 heartbeat IPC: 0.400581 cumulative IPC: 0.396184 (Simulation time: 0 hr 13 min 15 sec) 
Heartbeat CPU 0 instructions: 90000001 cycles: 116029392 heartbeat IPC: 0.403364 cumulative IPC: 0.397955 (Simulation time: 0 hr 15 min 1 sec) 
Heartbeat CPU 0 instructions: 100000001 cycles: 140666350 heartbeat IPC: 0.405894 cumulative IPC: 0.399518 (Simulation time: 0 hr 16 min 21 sec) 
Heartbeat CPU 0 instructions: 110000000 cycles: 165598106 heartbeat IPC: 0.401095 cumulative IPC: 0.39978 (Simulation time: 0 hr 17 min 41 sec) 
Heartbeat CPU 0 instructions: 120000001 cycles: 190995611 heartbeat IPC: 0.393739 cumulative IPC: 0.398905 (Simulation time: 0 hr 19 min 2 sec) 
Heartbeat CPU 0 instructions: 130000001 cycles: 215355399 heartbeat IPC: 0.410513 cumulative IPC: 0.40032 (Simulation time: 0 hr 20 min 16 sec) 
Heartbeat CPU 0 instructions: 140000003 cycles: 240232621 heartbeat IPC: 0.401974 cumulative IPC: 0.400503 (Simulation time: 0 hr 21 min 28 sec) 
Heartbeat CPU 0 instructions: 150000003 cycles: 265502867 heartbeat IPC: 0.395722 cumulative IPC: 0.40002 (Simulation time: 0 hr 22 min 35 sec) 
Heartbeat CPU 0 instructions: 160000002 cycles: 291215292 heartbeat IPC: 0.388917 cumulative IPC: 0.398985 (Simulation time: 0 hr 23 min 39 sec) 
Heartbeat CPU 0 instructions: 170000002 cycles: 316475139 heartbeat IPC: 0.395885 cumulative IPC: 0.398724 (Simulation time: 0 hr 24 min 40 sec) 
Heartbeat CPU 0 instructions: 180000001 cycles: 341711176 heartbeat IPC: 0.396259 cumulative IPC: 0.398534 (Simulation time: 0 hr 25 min 40 sec) 
Heartbeat CPU 0 instructions: 190000003 cycles: 367330205 heartbeat IPC: 0.390335 cumulative IPC: 0.397937 (Simulation time: 0 hr 26 min 39 sec) 
Heartbeat CPU 0 instructions: 200000000 cycles: 392730564 heartbeat IPC: 0.393695 cumulative IPC: 0.397651 (Simulation time: 0 hr 27 min 38 sec) 
Heartbeat CPU 0 instructions: 210000003 cycles: 418742045 heartbeat IPC: 0.384446 cumulative IPC: 0.396799 (Simulation time: 0 hr 28 min 36 sec) 
Heartbeat CPU 0 instructions: 220000000 cycles: 444639726 heartbeat IPC: 0.386135 cumulative IPC: 0.396156 (Simulation time: 0 hr 29 min 35 sec) 
Heartbeat CPU 0 instructions: 230000000 cycles: 470232215 heartbeat IPC: 0.39074 cumulative IPC: 0.395851 (Simulation time: 0 hr 30 min 32 sec) 
Heartbeat CPU 0 instructions: 240000001 cycles: 495742538 heartbeat IPC: 0.391998 cumulative IPC: 0.395646 (Simulation time: 0 hr 31 min 30 sec) 
Heartbeat CPU 0 instructions: 250000002 cycles: 520513211 heartbeat IPC: 0.403703 cumulative IPC: 0.396041 (Simulation time: 0 hr 32 min 26 sec) 
Finished CPU 0 instructions: 200000003 cycles: 504997816 cumulative IPC: 0.396041 (Simulation time: 0 hr 32 min 26 sec) 
 Instruction ID: 250000228

ChampSim completed all CPUs

Region of Interest Statistics

CPU 0 cumulative IPC: 0.396041 instructions: 200000003 cycles: 504997816
ITLB SPEC fills:          0  NON-SPEC fills:          0
ITLB Test counter :          0
ITLB Leapfrog:          0
ITLB MSHR merge:          0
ITLB TOTAL     ACCESS:   26784795  HIT:   26784795  MISS:          0  HIT %:        100  MISS %:          0   MPKI: 0
ITLB LOAD TRANSLATION NON_SPEC    ACCESS:   26784795  HIT:   26784795  MISS:          0  HIT %:        100  MISS %:          0   MPKI: 0
ITLB PREFETCH  REQUESTED:          0  ISSUED:          0  USEFUL:          0  USELESS:          0
ITLB USEFUL LOAD PREFETCHES:          0 PREFETCH ISSUED TO LOWER LEVEL:          0  ACCURACY: -nan
ITLB TIMELY PREFETCHES:          0 LATE PREFETCHES: 0 DROPPED PREFETCHES: 0
ITLB COMMIT LATE PREFETCHES: 0 MISSED OPPORTUNITY: 0 LATE IN PQ: 0 UNCOVERED: 0
ITLB COMMIT LATE MSHR PREFETCHES: 0
ITLB MPKI TOTAL: 0 MSHR LATE: 0 PQ LATE: 0 COMMIT LATE: 0 MISSED OPPORTUNITY: 0 UNCOVERED: 0
ITLB PREFETCHES SAME FILL-ORIGIN LEVEL: 0 DIFFERENT FILL-ORIGIN LEVEL: 0
ITLB AVERAGE MISS LATENCY: -nan cycles
ITLB AVERAGE MISS LATENCY LOAD: -nan cycles
ITLB AVERAGE MISS LATENCY PREFETCH: -nan cycles
ITLB AVERAGE MSHR OCCUPANCY: 0
ITLB MSHR FULL: 0
ITLB RQ	ACCESS:   34562224	FORWARD:          0	MERGED:    7777429	TO_CACHE:   26784795

DTLB SPEC fills:          0  NON-SPEC fills:          0
DTLB Test counter :          0
DTLB Leapfrog:          0
DTLB MSHR merge:          0
DTLB TOTAL     ACCESS:   46587530  HIT:   46311003  MISS:     276527  HIT %:    99.4064  MISS %:   0.593564   MPKI: 1.38263
DTLB LOAD TRANSLATION NON_SPEC    ACCESS:   46587530  HIT:   46311003  MISS:     276527  HIT %:    99.4064  MISS %:   0.593564   MPKI: 1.38263
DTLB PREFETCH  REQUESTED:          0  ISSUED:          0  USEFUL:          0  USELESS:          0
DTLB USEFUL LOAD PREFETCHES:          0 PREFETCH ISSUED TO LOWER LEVEL:          0  ACCURACY: -nan
DTLB TIMELY PREFETCHES:          0 LATE PREFETCHES: 0 DROPPED PREFETCHES: 0
DTLB COMMIT LATE PREFETCHES: 0 MISSED OPPORTUNITY: 0 LATE IN PQ: 0 UNCOVERED: 0
DTLB COMMIT LATE MSHR PREFETCHES: 0
DTLB MPKI TOTAL: 0 MSHR LATE: 0 PQ LATE: 0 COMMIT LATE: 0 MISSED OPPORTUNITY: 0 UNCOVERED: 0
DTLB PREFETCHES SAME FILL-ORIGIN LEVEL: 0 DIFFERENT FILL-ORIGIN LEVEL: 0
DTLB AVERAGE MISS LATENCY: 135.415 cycles
DTLB AVERAGE MISS LATENCY LOAD: -nan cycles
DTLB AVERAGE MISS LATENCY PREFETCH: -nan cycles
DTLB AVERAGE MSHR OCCUPANCY: 0.10518
DTLB MSHR FULL: 0
DTLB RQ	ACCESS:   67050810	FORWARD:          0	MERGED:   20263671	TO_CACHE:   46787139

STLB SPEC fills:          0  NON-SPEC fills:          0
STLB Test counter :          0
STLB Leapfrog:          0
STLB MSHR merge:          0
STLB TOTAL     ACCESS:    1695225  HIT:    1545201  MISS:     150024  HIT %:    91.1502  MISS %:     8.8498   MPKI: 0.75012
STLB LOAD TRANSLATION NON_SPEC    ACCESS:     276527  HIT:     126503  MISS:     150024  HIT %:    45.7471  MISS %:    54.2529   MPKI: 0.75012
STLB TRANSLATION FROM L1D PREFETCHER NON_SPEC    ACCESS:    1418698  HIT:    1418698  MISS:          0  HIT %:        100  MISS %:          0   MPKI: 0
STLB PREFETCH  REQUESTED:          0  ISSUED:          0  USEFUL:          0  USELESS:          0
STLB USEFUL LOAD PREFETCHES:          0 PREFETCH ISSUED TO LOWER LEVEL:          0  ACCURACY: -nan
STLB TIMELY PREFETCHES:          0 LATE PREFETCHES: 15307 DROPPED PREFETCHES: 572473
STLB COMMIT LATE PREFETCHES: 0 MISSED OPPORTUNITY: 0 LATE IN PQ: 0 UNCOVERED: 0
STLB COMMIT LATE MSHR PREFETCHES: 0
STLB MPKI TOTAL: 0 MSHR LATE: 0.076535 PQ LATE: 0 COMMIT LATE: 0 MISSED OPPORTUNITY: 0 UNCOVERED: 0
STLB PREFETCHES SAME FILL-ORIGIN LEVEL: 0 DIFFERENT FILL-ORIGIN LEVEL: 0
STLB AVERAGE MISS LATENCY: 232.414 cycles
STLB AVERAGE MISS LATENCY LOAD: -nan cycles
STLB AVERAGE MISS LATENCY PREFETCH: -nan cycles
STLB AVERAGE MSHR OCCUPANCY: 0.357313
STLB MSHR FULL: 0
STLB RQ	ACCESS:   14183378	FORWARD:          0	MERGED:   11719128	TO_CACHE:    2464250

STLB Hit, L1D data hit: 0
STLB Hit, L2C data hit: 0
STLB Hit, LLC data hit: 0
STLB Hit, LLC data miss: 0
STLB STLB hints to L2: 0
L0D SPEC fills:   18753122  NON-SPEC fills:          0
L0D TimeGuard Request with older TS:     201398 Restricted eviction:      19823 read:    1010126
L0D Test counter :          0
L0D Leapfrog:          0
L0D MSHR merge:    2991600
L0D TOTAL     ACCESS:   27091309  HIT:    6412993  MISS:   20678316  HIT %:    23.6718  MISS %:    76.3282   MPKI: 103.392
L0D LOAD      TOTAL       ACCESS:   27091309  HIT:    6412993  MISS:   20678316  HIT %:    23.6718  MISS %:    76.3282   MPKI: 103.392
L0D LOAD      NON_SPEC    ACCESS:    2896076  HIT:     990705  MISS:    1905371  HIT %:    34.2085  MISS %:    65.7915   MPKI: 9.52685
L0D LOAD      SPEC        ACCESS:   24195233  HIT:    5422288  MISS:   18772945  HIT %:    22.4106  MISS %:    77.5894   MPKI: 93.8647
L0D PREFETCH  REQUESTED:          0  ISSUED:          0  USEFUL:          0  USELESS:          0
L0D USEFUL LOAD PREFETCHES:          0 PREFETCH ISSUED TO LOWER LEVEL:          0  ACCURACY: -nan
L0D TIMELY PREFETCHES:          0 LATE PREFETCHES: 0 DROPPED PREFETCHES: 0
L0D COMMIT LATE PREFETCHES: 0 MISSED OPPORTUNITY: 0 LATE IN PQ: 0 UNCOVERED: 0
L0D COMMIT LATE MSHR PREFETCHES: 0
L0D MPKI TOTAL: 118.35 MSHR LATE: 0 PQ LATE: 0 COMMIT LATE: 0 MISSED OPPORTUNITY: 0 UNCOVERED: 0
L0D PREFETCHES SAME FILL-ORIGIN LEVEL: 0 DIFFERENT FILL-ORIGIN LEVEL: 0
L0D AVERAGE MISS LATENCY: 52.2067 cycles
L0D AVERAGE MISS LATENCY LOAD: 52.2067 cycles
L0D AVERAGE MISS LATENCY PREFETCH: -nan cycles
L0D AVERAGE MSHR OCCUPANCY: 2.05961
L0D MSHR FULL: 0.154499
L0D RQ	ACCESS:   50157382	FORWARD:          0	MERGED:   20074476	TO_CACHE:   30082906
L0D WQ	ACCESS:   36967904	FORWARD:          0	MERGED:          0	TO_CACHE:   36967904

L1D SPEC fills:          0  NON-SPEC fills:      87998
L1D Test counter :     486518
L1D Leapfrog:          0
L1D MSHR merge:      90201
L1D TOTAL     ACCESS:   64840768  HIT:   47493599  MISS:   17347169  HIT %:    73.2465  MISS %:    26.7535   MPKI: 86.7358
L1D LOAD      TOTAL       ACCESS:   20658340  HIT:   19170248  MISS:    1488092  HIT %:    92.7967  MISS %:    7.20335   MPKI: 7.44046
L1D LOAD      NON_SPEC    ACCESS:    1899079  HIT:    1811081  MISS:      87998  HIT %:    95.3663  MISS %:    4.63372   MPKI: 0.43999
L1D LOAD      SPEC        ACCESS:   18759261  HIT:   17359167  MISS:    1400094  HIT %:    92.5365  MISS %:    7.46348   MPKI: 7.00047
L1D RFO       NON_SPEC    ACCESS:   36088020  HIT:   22735988  MISS:   13352032  HIT %:    63.0015  MISS %:    36.9985   MPKI: 66.7602
L1D PREFETCH  NON_SPEC    ACCESS:    5123767  HIT:    4084120  MISS:    1039647  HIT %:    79.7093  MISS %:    20.2907   MPKI: 5.19823
L1D COMMIT LOAD NON_SPEC    ACCESS:    1544981  HIT:    1294422  MISS:     250559  HIT %:    83.7824  MISS %:    16.2176   MPKI: 1.25279
L1D COMMIT WRITE NON_SPEC    ACCESS:    1425660  HIT:     208821  MISS:    1216839  HIT %:    14.6473  MISS %:    85.3527   MPKI: 6.08419
L1D PREFETCH  REQUESTED:   36905656  ISSUED:   16743001  USEFUL:    1021801  USELESS:      17866
L1D USEFUL LOAD PREFETCHES:    1021801 PREFETCH ISSUED TO LOWER LEVEL:    7000248  ACCURACY: 14.5966
L1D TIMELY PREFETCHES:    1021801 LATE PREFETCHES: 88465 DROPPED PREFETCHES: 2471328
L1D COMMIT LATE PREFETCHES: 0 MISSED OPPORTUNITY: 0 LATE IN PQ: 0 UNCOVERED: 0
L1D COMMIT LATE MSHR PREFETCHES: 0
L1D MPKI TOTAL: 7.54033 MSHR LATE: 0.442325 PQ LATE: 0 COMMIT LATE: 0 MISSED OPPORTUNITY: 0 UNCOVERED: 0
L1D PREFETCHES SAME FILL-ORIGIN LEVEL: 1128353 DIFFERENT FILL-ORIGIN LEVEL: 5871895
L1D AVERAGE MISS LATENCY: 276.796 cycles
L1D AVERAGE MISS LATENCY LOAD: 275.545 cycles
L1D AVERAGE MISS LATENCY PREFETCH: 164.946 cycles
L1D AVERAGE MSHR OCCUPANCY: 15.4921
L1D MSHR FULL: 0.932357
L1D RQ	ACCESS:   29032142	FORWARD:          0	MERGED:    6804242	TO_CACHE:   22227871
L1D WQ	ACCESS:   38188772	FORWARD:         29	MERGED:     430134	TO_CACHE:   37758638
L1D PQ	ACCESS:   16743001	FORWARD:          0	MERGED:    2836150	TO_CACHE:   13906851

L1D UNIQUE REGIONS ACCESSED: 0
L1D REGIONS CONFLICTS: 0
L1D Cross Page Prefetch Requests: 5001977
L1D Same Page Prefetch Requests: 17895886
L1D ROI Sum of L1D PQ occupancy: 2900838766
L1D PREFETCHES PUSHED FROM L2C: 0
L1I SPEC fills:          0  NON-SPEC fills:          0
L1I Test counter :          0
L1I Leapfrog:          0
L1I MSHR merge:          0
L1I TOTAL     ACCESS:   34562222  HIT:   34562222  MISS:          0  HIT %:        100  MISS %:          0   MPKI: 0
L1I LOAD      TOTAL       ACCESS:   34562222  HIT:   34562222  MISS:          0  HIT %:        100  MISS %:          0   MPKI: 0
L1I LOAD      NON_SPEC    ACCESS:   34562222  HIT:   34562222  MISS:          0  HIT %:        100  MISS %:          0   MPKI: 0
L1I PREFETCH  REQUESTED:          0  ISSUED:          0  USEFUL:          0  USELESS:          0
L1I USEFUL LOAD PREFETCHES:          0 PREFETCH ISSUED TO LOWER LEVEL:          0  ACCURACY: -nan
L1I TIMELY PREFETCHES:          0 LATE PREFETCHES: 0 DROPPED PREFETCHES: 0
L1I COMMIT LATE PREFETCHES: 0 MISSED OPPORTUNITY: 0 LATE IN PQ: 0 UNCOVERED: 0
L1I COMMIT LATE MSHR PREFETCHES: 0
L1I MPKI TOTAL: 0 MSHR LATE: 0 PQ LATE: 0 COMMIT LATE: 0 MISSED OPPORTUNITY: 0 UNCOVERED: 0
L1I PREFETCHES SAME FILL-ORIGIN LEVEL: 0 DIFFERENT FILL-ORIGIN LEVEL: 0
L1I AVERAGE MISS LATENCY: -nan cycles
L1I AVERAGE MISS LATENCY LOAD: -nan cycles
L1I AVERAGE MISS LATENCY PREFETCH: -nan cycles
L1I AVERAGE MSHR OCCUPANCY: 0
L1I MSHR FULL: 0
L1I RQ	ACCESS:   49860313	FORWARD:          0	MERGED:   15298089	TO_CACHE:   34562224

BTB SPEC fills:          0  NON-SPEC fills:          0
BTB Test counter :          0
BTB Leapfrog:          0
BTB MSHR merge:          0
BTB TOTAL     ACCESS:    3614433  HIT:    3614427  MISS:          6  HIT %:    99.9998  MISS %: 0.000166001   MPKI: 3e-05
BTB BRANCH_DIRECT_JUMP	ACCESS:     592790  HIT:     592789  MISS:          1
BTB BRANCH_INDIRECT	ACCESS:          0  HIT:          0  MISS:          0
BTB BRANCH_CONDITIONAL	ACCESS:    3021643  HIT:    3021638  MISS:          5
BTB BRANCH_DIRECT_CALL	ACCESS:          0  HIT:          0  MISS:          0
BTB BRANCH_INDIRECT_CALL	ACCESS:          0  HIT:          0  MISS:          0
BTB BRANCH_RETURN	ACCESS:          0  HIT:          0  MISS:          0
BTB BRANCH_OTHER ACCESS:          0  HIT:          0  MISS:          0

L2C SPEC fills:          0  NON-SPEC fills:      13663
L2C Test counter :     479531
L2C Leapfrog:          0
L2C MSHR merge:      49457
L2C TOTAL     ACCESS:   39158430  HIT:   29063236  MISS:   10095194  HIT %:    74.2196  MISS %:    25.7804   MPKI: 50.476
L2C LOAD      TOTAL       ACCESS:    1417752  HIT:    1016549  MISS:     401203  HIT %:    71.7015  MISS %:    28.2985   MPKI: 2.00601
L2C LOAD      NON_SPEC    ACCESS:      86795  HIT:      73132  MISS:      13663  HIT %:    84.2583  MISS %:    15.7417   MPKI: 0.068315
L2C LOAD      SPEC        ACCESS:    1330957  HIT:     943417  MISS:     387540  HIT %:    70.8826  MISS %:    29.1174   MPKI: 1.9377
L2C RFO       NON_SPEC    ACCESS:   13352002  HIT:    6067956  MISS:    7284046  HIT %:     45.446  MISS %:     54.554   MPKI: 36.4202
L2C PREFETCH  NON_SPEC    ACCESS:    6629988  HIT:    4565970  MISS:    2064018  HIT %:    68.8685  MISS %:    31.1315   MPKI: 10.3201
L2C WRITEBACK NON_SPEC    ACCESS:   13352036  HIT:   13351492  MISS:        544  HIT %:    99.9959  MISS %: 0.00407429   MPKI: 0.00272
L2C CLEAN_EVICTION NON_SPEC    ACCESS:     486510  HIT:     201451  MISS:     285059  HIT %:    41.4074  MISS %:    58.5926   MPKI: 1.42529
L2C COMMIT LOAD NON_SPEC    ACCESS:     232320  HIT:     191133  MISS:      41187  HIT %:    82.2714  MISS %:    17.7286   MPKI: 0.205935
L2C LOAD TRANSLATION NON_SPEC    ACCESS:     749974  HIT:     735807  MISS:      14167  HIT %:     98.111  MISS %:      1.889   MPKI: 0.070835
L2C TRANSLATION FROM L1D PREFETCHER NON_SPEC    ACCESS:    2937848  HIT:    2932878  MISS:       4970  HIT %:    99.8308  MISS %:   0.169171   MPKI: 0.02485
L2C PREFETCH  REQUESTED:          0  ISSUED:          0  USEFUL:     960796  USELESS:    1108657
L2C USEFUL LOAD PREFETCHES:     960796 PREFETCH ISSUED TO LOWER LEVEL:    2114922  ACCURACY: 45.4294
L2C TIMELY PREFETCHES:     960796 LATE PREFETCHES: 50899 DROPPED PREFETCHES: 0
L2C COMMIT LATE PREFETCHES: 0 MISSED OPPORTUNITY: 0 LATE IN PQ: 0 UNCOVERED: 0
L2C COMMIT LATE MSHR PREFETCHES: 0
L2C MPKI TOTAL: 2.00601 MSHR LATE: 0.254495 PQ LATE: 0 COMMIT LATE: 0 MISSED OPPORTUNITY: 0 UNCOVERED: 0
L2C PREFETCHES SAME FILL-ORIGIN LEVEL: 1666708 DIFFERENT FILL-ORIGIN LEVEL: 0
L2C AVERAGE MISS LATENCY: 518.67 cycles
L2C AVERAGE MISS LATENCY LOAD: 467.687 cycles
L2C AVERAGE MISS LATENCY PREFETCH: 497.595 cycles
L2C AVERAGE MSHR OCCUPANCY: 12.8229
L2C MSHR FULL: 0.0254354
L2C RQ	ACCESS:   18690057	FORWARD:          0	MERGED:          0	TO_CACHE:   18689912
L2C WQ	ACCESS:   13838554	FORWARD:        145	MERGED:          8	TO_CACHE:   13838546
L2C PQ	ACCESS:    6994340	FORWARD:          0	MERGED:       1996	TO_CACHE:    6992344

L2C Instructions Evicting Data 0
L2C Translations Evicting Data 19071
L2C Data Evicting Data 9384490
L2C Instructions Evicting Instructions 0
L2C Translations Evicting Instructions 0
L2C Data Evicting Instructions 0
L2C Instructions Evicting Translations 0
L2C Translations Evicting Translations 66
L2C Data Evicting Translations 18424
L2C Dense regions hint from L2: 0
PSCL5 SPEC fills:          0  NON-SPEC fills:          0
PSCL5 Test counter :          0
PSCL5 Leapfrog:          0
PSCL5 MSHR merge:          0
PSCL5 TOTAL     ACCESS:          0  HIT:          0  MISS:          0  HIT %:       -nan  MISS %:       -nan   MPKI: 0
PSCL5 PREFETCH  REQUESTED:          0  ISSUED:          0  USEFUL:          0  USELESS:          0
PSCL5 USEFUL LOAD PREFETCHES:          0 PREFETCH ISSUED TO LOWER LEVEL:          0  ACCURACY: -nan
PSCL5 TIMELY PREFETCHES:          0 LATE PREFETCHES: 0 DROPPED PREFETCHES: 0
PSCL5 COMMIT LATE PREFETCHES: 0 MISSED OPPORTUNITY: 0 LATE IN PQ: 0 UNCOVERED: 0
PSCL5 COMMIT LATE MSHR PREFETCHES: 0
PSCL5 MPKI TOTAL: 0 MSHR LATE: 0 PQ LATE: 0 COMMIT LATE: 0 MISSED OPPORTUNITY: 0 UNCOVERED: 0
PSCL5 PREFETCHES SAME FILL-ORIGIN LEVEL: 0 DIFFERENT FILL-ORIGIN LEVEL: 0

PSCL4 SPEC fills:          0  NON-SPEC fills:          0
PSCL4 Test counter :          0
PSCL4 Leapfrog:          0
PSCL4 MSHR merge:          0
PSCL4 TOTAL     ACCESS:          0  HIT:          0  MISS:          0  HIT %:       -nan  MISS %:       -nan   MPKI: 0
PSCL4 PREFETCH  REQUESTED:          0  ISSUED:          0  USEFUL:          0  USELESS:          0
PSCL4 USEFUL LOAD PREFETCHES:          0 PREFETCH ISSUED TO LOWER LEVEL:          0  ACCURACY: -nan
PSCL4 TIMELY PREFETCHES:          0 LATE PREFETCHES: 0 DROPPED PREFETCHES: 0
PSCL4 COMMIT LATE PREFETCHES: 0 MISSED OPPORTUNITY: 0 LATE IN PQ: 0 UNCOVERED: 0
PSCL4 COMMIT LATE MSHR PREFETCHES: 0
PSCL4 MPKI TOTAL: 0 MSHR LATE: 0 PQ LATE: 0 COMMIT LATE: 0 MISSED OPPORTUNITY: 0 UNCOVERED: 0
PSCL4 PREFETCHES SAME FILL-ORIGIN LEVEL: 0 DIFFERENT FILL-ORIGIN LEVEL: 0

PSCL3 SPEC fills:          0  NON-SPEC fills:          0
PSCL3 Test counter :          0
PSCL3 Leapfrog:          0
PSCL3 MSHR merge:          0
PSCL3 TOTAL     ACCESS:          0  HIT:          0  MISS:          0  HIT %:       -nan  MISS %:       -nan   MPKI: 0
PSCL3 PREFETCH  REQUESTED:          0  ISSUED:          0  USEFUL:          0  USELESS:          0
PSCL3 USEFUL LOAD PREFETCHES:          0 PREFETCH ISSUED TO LOWER LEVEL:          0  ACCURACY: -nan
PSCL3 TIMELY PREFETCHES:          0 LATE PREFETCHES: 0 DROPPED PREFETCHES: 0
PSCL3 COMMIT LATE PREFETCHES: 0 MISSED OPPORTUNITY: 0 LATE IN PQ: 0 UNCOVERED: 0
PSCL3 COMMIT LATE MSHR PREFETCHES: 0
PSCL3 MPKI TOTAL: 0 MSHR LATE: 0 PQ LATE: 0 COMMIT LATE: 0 MISSED OPPORTUNITY: 0 UNCOVERED: 0
PSCL3 PREFETCHES SAME FILL-ORIGIN LEVEL: 0 DIFFERENT FILL-ORIGIN LEVEL: 0

PSCL2 SPEC fills:          0  NON-SPEC fills:          0
PSCL2 Test counter :          0
PSCL2 Leapfrog:          0
PSCL2 MSHR merge:          0
PSCL2 TOTAL     ACCESS:          0  HIT:          0  MISS:          0  HIT %:       -nan  MISS %:       -nan   MPKI: 0
PSCL2 PREFETCH  REQUESTED:          0  ISSUED:          0  USEFUL:          0  USELESS:          0
PSCL2 USEFUL LOAD PREFETCHES:          0 PREFETCH ISSUED TO LOWER LEVEL:          0  ACCURACY: -nan
PSCL2 TIMELY PREFETCHES:          0 LATE PREFETCHES: 0 DROPPED PREFETCHES: 0
PSCL2 COMMIT LATE PREFETCHES: 0 MISSED OPPORTUNITY: 0 LATE IN PQ: 0 UNCOVERED: 0
PSCL2 COMMIT LATE MSHR PREFETCHES: 0
PSCL2 MPKI TOTAL: 0 MSHR LATE: 0 PQ LATE: 0 COMMIT LATE: 0 MISSED OPPORTUNITY: 0 UNCOVERED: 0
PSCL2 PREFETCHES SAME FILL-ORIGIN LEVEL: 0 DIFFERENT FILL-ORIGIN LEVEL: 0

LLC SPEC fills:          0  NON-SPEC fills:      12529
LLC Test counter :     476132
LLC Leapfrog:          0
LLC MSHR merge:          0
LLC TOTAL     ACCESS:   17575148  HIT:    7640390  MISS:    9934758  HIT %:    43.4727  MISS %:    56.5273   MPKI: 49.6738
LLC LOAD      TOTAL       ACCESS:     351738  HIT:       2513  MISS:     349225  HIT %:   0.714452  MISS %:    99.2855   MPKI: 1.74612
LLC LOAD      NON_SPEC    ACCESS:      12567  HIT:         38  MISS:      12529  HIT %:   0.302379  MISS %:    99.6976   MPKI: 0.062645
LLC LOAD      SPEC        ACCESS:     339171  HIT:       2475  MISS:     336696  HIT %:    0.72972  MISS %:    99.2703   MPKI: 1.68348
LLC RFO       NON_SPEC    ACCESS:    7284020  HIT:     106300  MISS:    7177720  HIT %:    1.45936  MISS %:    98.5406   MPKI: 35.8886
LLC PREFETCH  NON_SPEC    ACCESS:    2114917  HIT:       6869  MISS:    2108048  HIT %:   0.324788  MISS %:    99.6752   MPKI: 10.5402
LLC WRITEBACK NON_SPEC    ACCESS:    7286060  HIT:    7285634  MISS:        426  HIT %:    99.9942  MISS %: 0.00584678   MPKI: 0.00213
LLC CLEAN_EVICTION NON_SPEC    ACCESS:     479531  HIT:     234104  MISS:     245427  HIT %:    48.8194  MISS %:    51.1806   MPKI: 1.22713
LLC COMMIT LOAD NON_SPEC    ACCESS:      39745  HIT:       4886  MISS:      34859  HIT %:    12.2934  MISS %:    87.7066   MPKI: 0.174295
LLC LOAD TRANSLATION NON_SPEC    ACCESS:      14167  HIT:          0  MISS:      14167  HIT %:          0  MISS %:        100   MPKI: 0.070835
LLC TRANSLATION FROM L1D PREFETCHER NON_SPEC    ACCESS:       4970  HIT:         84  MISS:       4886  HIT %:    1.69014  MISS %:    98.3099   MPKI: 0.02443
LLC PREFETCH  REQUESTED:          0  ISSUED:          0  USEFUL:       5208  USELESS:    2103505
LLC USEFUL LOAD PREFETCHES:       5208 PREFETCH ISSUED TO LOWER LEVEL:    2108053  ACCURACY: 0.247053
LLC TIMELY PREFETCHES:       5208 LATE PREFETCHES: 0 DROPPED PREFETCHES: 0
LLC COMMIT LATE PREFETCHES: 0 MISSED OPPORTUNITY: 0 LATE IN PQ: 0 UNCOVERED: 0
LLC COMMIT LATE MSHR PREFETCHES: 0
LLC MPKI TOTAL: 1.74612 MSHR LATE: 0 PQ LATE: 0 COMMIT LATE: 0 MISSED OPPORTUNITY: 0 UNCOVERED: 0
LLC PREFETCHES SAME FILL-ORIGIN LEVEL: 0 DIFFERENT FILL-ORIGIN LEVEL: 0
LLC AVERAGE MISS LATENCY: 498.682 cycles
LLC AVERAGE MISS LATENCY LOAD: 465.834 cycles
LLC AVERAGE MISS LATENCY PREFETCH: 474.532 cycles
LLC AVERAGE MSHR OCCUPANCY: 11.6476
LLC MSHR FULL: 0
LLC RQ	ACCESS:    7694689	FORWARD:          0	MERGED:          0	TO_CACHE:    7694655
LLC WQ	ACCESS:    7765591	FORWARD:         34	MERGED:          0	TO_CACHE:    7765591
LLC PQ	ACCESS:    2114922	FORWARD:          0	MERGED:          0	TO_CACHE:    2114922

LLC Dense regions hint to LLC: 0

RAW hits: 2091822
Loads Generated: 52249206
Loads sent to L1D: 50157382
Stores Generated: 36967900
Stores sent to L1D: 36967904
Major fault: 0 Minor fault: 96698
Allocated PAGES: 96698
Total Load insts: 61681943
Total Non-spec loads: 3782733
Percentage of speculative loads: 93.8674

LeapFrogging counter: 26282826
Commit hits: 18551765 miss: 28219309
Commit hit %: 39.665 miss %: 60.335
Commits not translated: 0
Loads retired: 1488092
Stores retired: 36967904
Cache fills: 1488092
L1D response latency: 275.545 cycles
Load retirement latency: 950.469 cycles
OOO test counter: 0
Discarded buffer inserts: 18551765 hits: 302215 hit %: 1.62904
Filter prediction accuracy: 99.462
ALL MISSES SIZE: 66249
LATENCY_FILL: 180.417 1485260
LATENCY_FILL_ROB: 368.037 1446185
test counter pref: 15453687
Max ROB Extended: 9

DRAM Statistics
 CHANNEL 0
 RQ ROW_BUFFER_HIT:    1187066  ROW_BUFFER_MISS:    8501839
 DBUS_CONGESTED:         45
 WQ ROW_BUFFER_HIT:    1701506  ROW_BUFFER_MISS:    5957946  FULL:       2702

 AVG_CONGESTED_CYCLE: 3
 All warmup complete: 2
Channel 0 Bank busy for read cycles: 0
Channel 0 Bank busy for write cycles: 0
Channel 0
Rank 0
0banks busy for read cycles: 77063070
0banks busy for write cycles: 46240
1banks busy for read cycles: 10172310
1banks busy for write cycles: 4740669
2banks busy for read cycles: 11438844
2banks busy for write cycles: 3714908
3banks busy for read cycles: 17630223
3banks busy for write cycles: 3333827
4banks busy for read cycles: 23250289
4banks busy for write cycles: 3276112
5banks busy for read cycles: 41066536
5banks busy for write cycles: 3398075
6banks busy for read cycles: 50505106
6banks busy for write cycles: 3956855
7banks busy for read cycles: 56989314
7banks busy for write cycles: 11950643
8banks busy for read cycles: 50338606
8banks busy for write cycles: 132126190

CPU 0 Branch Prediction Accuracy: 97.0917% MPKI: 0.525585 Average ROB Occupancy at Mispredict: 166.461
Branch types
NOT_BRANCH: 196385412 98.1927%
BRANCH_DIRECT_JUMP: 592790 0.296395%
BRANCH_INDIRECT: 0 0%
BRANCH_CONDITIONAL: 3021643 1.51082%
BRANCH_DIRECT_CALL: 0 0%
BRANCH_INDIRECT_CALL: 0 0%
BRANCH_RETURN: 0 0%
BRANCH_OTHER: 0 0%

DRAM PAGES: 1048576
Allocated PAGES: 96698
