
*** ChampSim Multicore Out-of-Order Simulator ***

Warmup Instructions: 50000000
Simulation Instructions: 200000000
Number of CPUs: 1
LLC sets: 2048
LLC ways: 16
L0D sets: 16
L0D ways: 2
ROB size: 352
LQ size: 128
SQ size: 72
Secure Berti: ON
Berti: ON
Berti Fill: ON
On commit prefetching: OFF
Hit-based filter: ON
Time-guarding: ON
Free-slotting: ON
Leap-frogging: ON
Train prefetcher on L0D bypass: OFF
No translation penalty for prefetchers: OFF
Prefetch to L0D only: OFF
Prefetch to L1D only: OFF
Clean evictions: ON
Commit loads: ON
Commit write: ON
Fill commit loads to L2C, LLC: ON
DRAM IO FREQUENCY: 6400
ROB SIZE: 352
Off-chip DRAM Size: 4096 MB Channels: 1 Width: 64-bit Data Rate: 6400 MT/s
CPU 0 runs /home/sumon/secure_berti/GhostMinion/../../traces/spec/620.omnetpp_s-141B.champsimtrace.xz
.xz
BTB has LRU replacement policy
ITLB has LRU replacement policy
DTLB has LRU replacement policy
STLB has LRU replacement policy
L1I has LRU replacement policy
L0D has LRU replacement policy
Berti version on_commit
History Sets: 8
History Ways: 16
BERTI Size: 16
BERTI Stride Size: 16
L1D has LRU replacement policy
L2C has LRU replacement policy
LLC has LRU replacement policy
Heartbeat CPU 0 instructions: 10000000 cycles: 7997773 heartbeat IPC: 1.25035 cumulative IPC: 1.25035 (Simulation time: 0 hr 1 min 41 sec) 
Heartbeat CPU 0 instructions: 20000001 cycles: 16041826 heartbeat IPC: 1.24315 cumulative IPC: 1.24674 (Simulation time: 0 hr 3 min 25 sec) 
Heartbeat CPU 0 instructions: 30000000 cycles: 24102484 heartbeat IPC: 1.24059 cumulative IPC: 1.24468 (Simulation time: 0 hr 5 min 13 sec) 
Heartbeat CPU 0 instructions: 40000000 cycles: 32131161 heartbeat IPC: 1.24554 cumulative IPC: 1.2449 (Simulation time: 0 hr 6 min 54 sec) 
Heartbeat CPU 0 instructions: 50000003 cycles: 40206767 heartbeat IPC: 1.2383 cumulative IPC: 1.24357 (Simulation time: 0 hr 8 min 31 sec) 

Warmup complete CPU 0 instructions: 50000003 cycles: 40206767 (Simulation time: 0 hr 8 min 31 sec) 

Heartbeat CPU 0 instructions: 60000001 cycles: 82415702 heartbeat IPC: 0.236917 cumulative IPC: 0.236917 (Simulation time: 0 hr 10 min 28 sec) 
Heartbeat CPU 0 instructions: 70000000 cycles: 125086647 heartbeat IPC: 0.234351 cumulative IPC: 0.235627 (Simulation time: 0 hr 12 min 23 sec) 
Heartbeat CPU 0 instructions: 80000003 cycles: 167455912 heartbeat IPC: 0.23602 cumulative IPC: 0.235758 (Simulation time: 0 hr 14 min 16 sec) 
Heartbeat CPU 0 instructions: 90000003 cycles: 209939382 heartbeat IPC: 0.235386 cumulative IPC: 0.235665 (Simulation time: 0 hr 16 min 7 sec) 
Heartbeat CPU 0 instructions: 100000003 cycles: 252013489 heartbeat IPC: 0.237676 cumulative IPC: 0.236064 (Simulation time: 0 hr 17 min 29 sec) 
Heartbeat CPU 0 instructions: 110000000 cycles: 294350702 heartbeat IPC: 0.236199 cumulative IPC: 0.236087 (Simulation time: 0 hr 18 min 35 sec) 
Heartbeat CPU 0 instructions: 120000000 cycles: 336468191 heartbeat IPC: 0.237431 cumulative IPC: 0.236278 (Simulation time: 0 hr 19 min 39 sec) 
Heartbeat CPU 0 instructions: 130000000 cycles: 378753584 heartbeat IPC: 0.236488 cumulative IPC: 0.236304 (Simulation time: 0 hr 20 min 38 sec) 
Heartbeat CPU 0 instructions: 140000000 cycles: 421014595 heartbeat IPC: 0.236625 cumulative IPC: 0.23634 (Simulation time: 0 hr 21 min 35 sec) 
Heartbeat CPU 0 instructions: 150000003 cycles: 463673457 heartbeat IPC: 0.234418 cumulative IPC: 0.236146 (Simulation time: 0 hr 22 min 29 sec) 
Heartbeat CPU 0 instructions: 160000001 cycles: 506006603 heartbeat IPC: 0.236221 cumulative IPC: 0.236153 (Simulation time: 0 hr 23 min 21 sec) 
Heartbeat CPU 0 instructions: 170000000 cycles: 548047909 heartbeat IPC: 0.237861 cumulative IPC: 0.236294 (Simulation time: 0 hr 24 min 11 sec) 
Heartbeat CPU 0 instructions: 180000000 cycles: 590150066 heartbeat IPC: 0.237518 cumulative IPC: 0.236388 (Simulation time: 0 hr 25 min 0 sec) 
Heartbeat CPU 0 instructions: 190000000 cycles: 632085339 heartbeat IPC: 0.238463 cumulative IPC: 0.236535 (Simulation time: 0 hr 25 min 48 sec) 
Heartbeat CPU 0 instructions: 200000000 cycles: 674973361 heartbeat IPC: 0.233165 cumulative IPC: 0.236307 (Simulation time: 0 hr 26 min 36 sec) 
Heartbeat CPU 0 instructions: 210000000 cycles: 717414311 heartbeat IPC: 0.235621 cumulative IPC: 0.236264 (Simulation time: 0 hr 27 min 22 sec) 
Heartbeat CPU 0 instructions: 220000000 cycles: 760097422 heartbeat IPC: 0.234285 cumulative IPC: 0.236147 (Simulation time: 0 hr 28 min 8 sec) 
Heartbeat CPU 0 instructions: 230000001 cycles: 802498687 heartbeat IPC: 0.235842 cumulative IPC: 0.23613 (Simulation time: 0 hr 28 min 55 sec) 
Heartbeat CPU 0 instructions: 240000001 cycles: 844936134 heartbeat IPC: 0.235641 cumulative IPC: 0.236104 (Simulation time: 0 hr 29 min 42 sec) 
Heartbeat CPU 0 instructions: 250000000 cycles: 886554257 heartbeat IPC: 0.24028 cumulative IPC: 0.23631 (Simulation time: 0 hr 30 min 27 sec) 
Finished CPU 0 instructions: 200000001 cycles: 846347491 cumulative IPC: 0.23631 (Simulation time: 0 hr 30 min 27 sec) 
 Instruction ID: 250000041

ChampSim completed all CPUs

Region of Interest Statistics

CPU 0 cumulative IPC: 0.23631 instructions: 200000001 cycles: 846347491
ITLB SPEC fills:          0  NON-SPEC fills:          0
ITLB Test counter :          0
ITLB Leapfrog:          0
ITLB MSHR merge:          0
ITLB TOTAL     ACCESS:   33302227  HIT:   32990123  MISS:     312104  HIT %:    99.0628  MISS %:   0.937187   MPKI: 1.56052
ITLB LOAD TRANSLATION NON_SPEC    ACCESS:   33302227  HIT:   32990123  MISS:     312104  HIT %:    99.0628  MISS %:   0.937187   MPKI: 1.56052
ITLB PREFETCH  REQUESTED:          0  ISSUED:          0  USEFUL:          0  USELESS:          0
ITLB USEFUL LOAD PREFETCHES:          0 PREFETCH ISSUED TO LOWER LEVEL:          0  ACCURACY: -nan
ITLB TIMELY PREFETCHES:          0 LATE PREFETCHES: 0 DROPPED PREFETCHES: 0
ITLB COMMIT LATE PREFETCHES: 0 MISSED OPPORTUNITY: 0 LATE IN PQ: 0 UNCOVERED: 0
ITLB COMMIT LATE MSHR PREFETCHES: 0
ITLB MPKI TOTAL: 0 MSHR LATE: 0 PQ LATE: 0 COMMIT LATE: 0 MISSED OPPORTUNITY: 0 UNCOVERED: 0
ITLB PREFETCHES SAME FILL-ORIGIN LEVEL: 0 DIFFERENT FILL-ORIGIN LEVEL: 0
ITLB AVERAGE MISS LATENCY: 10.1965 cycles
ITLB AVERAGE MISS LATENCY LOAD: -nan cycles
ITLB AVERAGE MISS LATENCY PREFETCH: -nan cycles
ITLB AVERAGE MSHR OCCUPANCY: 0.0092269
ITLB MSHR FULL: 0
ITLB RQ	ACCESS:   37446142	FORWARD:          0	MERGED:    4061381	TO_CACHE:   33384761

DTLB SPEC fills:          0  NON-SPEC fills:          0
DTLB Test counter :          0
DTLB Leapfrog:          0
DTLB MSHR merge:          0
DTLB TOTAL     ACCESS:   81629752  HIT:   77465447  MISS:    4164305  HIT %:    94.8985  MISS %:    5.10145   MPKI: 20.8215
DTLB LOAD TRANSLATION NON_SPEC    ACCESS:   81629752  HIT:   77465447  MISS:    4164305  HIT %:    94.8985  MISS %:    5.10145   MPKI: 20.8215
DTLB PREFETCH  REQUESTED:          0  ISSUED:          0  USEFUL:          0  USELESS:          0
DTLB USEFUL LOAD PREFETCHES:          0 PREFETCH ISSUED TO LOWER LEVEL:          0  ACCURACY: -nan
DTLB TIMELY PREFETCHES:          0 LATE PREFETCHES: 0 DROPPED PREFETCHES: 0
DTLB COMMIT LATE PREFETCHES: 0 MISSED OPPORTUNITY: 0 LATE IN PQ: 0 UNCOVERED: 0
DTLB COMMIT LATE MSHR PREFETCHES: 0
DTLB MPKI TOTAL: 0 MSHR LATE: 0 PQ LATE: 0 COMMIT LATE: 0 MISSED OPPORTUNITY: 0 UNCOVERED: 0
DTLB PREFETCHES SAME FILL-ORIGIN LEVEL: 0 DIFFERENT FILL-ORIGIN LEVEL: 0
DTLB AVERAGE MISS LATENCY: 39.6804 cycles
DTLB AVERAGE MISS LATENCY LOAD: -nan cycles
DTLB AVERAGE MISS LATENCY PREFETCH: -nan cycles
DTLB AVERAGE MSHR OCCUPANCY: 0.131289
DTLB MSHR FULL: 4.55107e-05
DTLB RQ	ACCESS:   92557267	FORWARD:          0	MERGED:   10821730	TO_CACHE:   81735537

STLB SPEC fills:          0  NON-SPEC fills:          0
STLB Test counter :          0
STLB Leapfrog:          0
STLB MSHR merge:          0
STLB TOTAL     ACCESS:    4629229  HIT:    3643945  MISS:     985284  HIT %:     78.716  MISS %:     21.284   MPKI: 4.92642
STLB LOAD TRANSLATION NON_SPEC    ACCESS:    4476409  HIT:    3512719  MISS:     963690  HIT %:    78.4718  MISS %:    21.5282   MPKI: 4.81845
STLB TRANSLATION FROM L1D PREFETCHER NON_SPEC    ACCESS:     152820  HIT:     131226  MISS:      21594  HIT %:    85.8697  MISS %:    14.1303   MPKI: 0.10797
STLB PREFETCH  REQUESTED:          0  ISSUED:          0  USEFUL:      15308  USELESS:       6298
STLB USEFUL LOAD PREFETCHES:      15308 PREFETCH ISSUED TO LOWER LEVEL:          0  ACCURACY: inf
STLB TIMELY PREFETCHES:      15308 LATE PREFETCHES: 9 DROPPED PREFETCHES: 49440
STLB COMMIT LATE PREFETCHES: 0 MISSED OPPORTUNITY: 0 LATE IN PQ: 0 UNCOVERED: 0
STLB COMMIT LATE MSHR PREFETCHES: 0
STLB MPKI TOTAL: 0 MSHR LATE: 4.5e-05 PQ LATE: 0 COMMIT LATE: 0 MISSED OPPORTUNITY: 0 UNCOVERED: 0
STLB PREFETCHES SAME FILL-ORIGIN LEVEL: 0 DIFFERENT FILL-ORIGIN LEVEL: 0
STLB AVERAGE MISS LATENCY: 132.354 cycles
STLB AVERAGE MISS LATENCY LOAD: -nan cycles
STLB AVERAGE MISS LATENCY PREFETCH: -nan cycles
STLB AVERAGE MSHR OCCUPANCY: 0.125507
STLB MSHR FULL: 0
STLB RQ	ACCESS:    4762623	FORWARD:          0	MERGED:      83332	TO_CACHE:    4679291

STLB Hit, L1D data hit: 0
STLB Hit, L2C data hit: 0
STLB Hit, LLC data hit: 0
STLB Hit, LLC data miss: 0
STLB STLB hints to L2: 0
L0D SPEC fills:   23206429  NON-SPEC fills:          0
L0D TimeGuard Request with older TS:     267208 Restricted eviction:     140971 read:     303278
L0D Test counter :          0
L0D Leapfrog:          0
L0D MSHR merge:    1013102
L0D TOTAL     ACCESS:   54399064  HIT:    6924660  MISS:   47474404  HIT %:    12.7294  MISS %:    87.2706   MPKI: 237.372
L0D LOAD      TOTAL       ACCESS:   54399064  HIT:    6924660  MISS:   47474404  HIT %:    12.7294  MISS %:    87.2706   MPKI: 237.372
L0D LOAD      NON_SPEC    ACCESS:   24338089  HIT:     211075  MISS:   24127014  HIT %:   0.867262  MISS %:    99.1327   MPKI: 120.635
L0D LOAD      SPEC        ACCESS:   30060975  HIT:    6713585  MISS:   23347390  HIT %:    22.3332  MISS %:    77.6668   MPKI: 116.737
L0D PREFETCH  REQUESTED:          0  ISSUED:          0  USEFUL:          0  USELESS:          0
L0D USEFUL LOAD PREFETCHES:          0 PREFETCH ISSUED TO LOWER LEVEL:          0  ACCURACY: -nan
L0D TIMELY PREFETCHES:          0 LATE PREFETCHES: 0 DROPPED PREFETCHES: 0
L0D COMMIT LATE PREFETCHES: 0 MISSED OPPORTUNITY: 0 LATE IN PQ: 0 UNCOVERED: 0
L0D COMMIT LATE MSHR PREFETCHES: 0
L0D MPKI TOTAL: 242.437 MSHR LATE: 0 PQ LATE: 0 COMMIT LATE: 0 MISSED OPPORTUNITY: 0 UNCOVERED: 0
L0D PREFETCHES SAME FILL-ORIGIN LEVEL: 0 DIFFERENT FILL-ORIGIN LEVEL: 0
L0D AVERAGE MISS LATENCY: 12.8565 cycles
L0D AVERAGE MISS LATENCY LOAD: 12.8565 cycles
L0D AVERAGE MISS LATENCY PREFETCH: -nan cycles
L0D AVERAGE MSHR OCCUPANCY: 0.548419
L0D MSHR FULL: 3.18513e-05
L0D RQ	ACCESS:   63413640	FORWARD:          0	MERGED:    8001480	TO_CACHE:   55412160
L0D WQ	ACCESS:   37145107	FORWARD:          0	MERGED:          0	TO_CACHE:   37145107

L1D SPEC fills:          0  NON-SPEC fills:     640156
L1D Test counter :    2343046
L1D Leapfrog:          0
L1D MSHR merge:      25602
L1D TOTAL     ACCESS:   87683630  HIT:   81121040  MISS:    6562590  HIT %:    92.5156  MISS %:     7.4844   MPKI: 32.8129
L1D LOAD      TOTAL       ACCESS:   47448802  HIT:   44066246  MISS:    3382556  HIT %:    92.8711  MISS %:    7.12885   MPKI: 16.9128
L1D LOAD      NON_SPEC    ACCESS:   24118813  HIT:   23478657  MISS:     640156  HIT %:    97.3458  MISS %:    2.65418   MPKI: 3.20078
L1D LOAD      SPEC        ACCESS:   23329989  HIT:   20587589  MISS:    2742400  HIT %:    88.2452  MISS %:    11.7548   MPKI: 13.712
L1D RFO       NON_SPEC    ACCESS:   35849055  HIT:   35386904  MISS:     462151  HIT %:    98.7108  MISS %:    1.28916   MPKI: 2.31075
L1D PREFETCH  NON_SPEC    ACCESS:      68971  HIT:      60928  MISS:       8043  HIT %:    88.3386  MISS %:    11.6614   MPKI: 0.040215
L1D COMMIT LOAD NON_SPEC    ACCESS:    1557095  HIT:    1544264  MISS:      12831  HIT %:     99.176  MISS %:   0.824035   MPKI: 0.064155
L1D COMMIT WRITE NON_SPEC    ACCESS:    2759707  HIT:      62698  MISS:    2697009  HIT %:    2.27191  MISS %:    97.7281   MPKI: 13.485
L1D PREFETCH  REQUESTED:     329102  ISSUED:     329094  USEFUL:       5057  USELESS:       2986
L1D USEFUL LOAD PREFETCHES:       5057 PREFETCH ISSUED TO LOWER LEVEL:     168764  ACCURACY: 2.99649
L1D TIMELY PREFETCHES:       5057 LATE PREFETCHES: 0 DROPPED PREFETCHES: 56422
L1D COMMIT LATE PREFETCHES: 0 MISSED OPPORTUNITY: 0 LATE IN PQ: 0 UNCOVERED: 0
L1D COMMIT LATE MSHR PREFETCHES: 0
L1D MPKI TOTAL: 17.0408 MSHR LATE: 0 PQ LATE: 0 COMMIT LATE: 0 MISSED OPPORTUNITY: 0 UNCOVERED: 0
L1D PREFETCHES SAME FILL-ORIGIN LEVEL: 8043 DIFFERENT FILL-ORIGIN LEVEL: 160721
L1D AVERAGE MISS LATENCY: 65.42 cycles
L1D AVERAGE MISS LATENCY LOAD: 108.861 cycles
L1D AVERAGE MISS LATENCY PREFETCH: 93.1063 cycles
L1D AVERAGE MSHR OCCUPANCY: 0.252812
L1D MSHR FULL: 0
L1D RQ	ACCESS:   49389933	FORWARD:          0	MERGED:     307226	TO_CACHE:   49032323
L1D WQ	ACCESS:   39907708	FORWARD:      50384	MERGED:     362132	TO_CACHE:   39545576
L1D PQ	ACCESS:     329094	FORWARD:          0	MERGED:      42880	TO_CACHE:     286214

L1D UNIQUE REGIONS ACCESSED: 0
L1D REGIONS CONFLICTS: 0
L1D Cross Page Prefetch Requests: 184666
L1D Same Page Prefetch Requests: 230265
L1D ROI Sum of L1D PQ occupancy: 13351641
L1D PREFETCHES PUSHED FROM L2C: 0
L1I SPEC fills:          0  NON-SPEC fills:          0
L1I Test counter :          0
L1I Leapfrog:          0
L1I MSHR merge:      37652
L1I TOTAL     ACCESS:   37408491  HIT:   37287553  MISS:     120938  HIT %:    99.6767  MISS %:    0.32329   MPKI: 0.60469
L1I LOAD      TOTAL       ACCESS:   37408491  HIT:   37287553  MISS:     120938  HIT %:    99.6767  MISS %:    0.32329   MPKI: 0.60469
L1I LOAD      NON_SPEC    ACCESS:   37408491  HIT:   37287553  MISS:     120938  HIT %:    99.6767  MISS %:    0.32329   MPKI: 0.60469
L1I PREFETCH  REQUESTED:          0  ISSUED:          0  USEFUL:          0  USELESS:          0
L1I USEFUL LOAD PREFETCHES:          0 PREFETCH ISSUED TO LOWER LEVEL:          0  ACCURACY: -nan
L1I TIMELY PREFETCHES:          0 LATE PREFETCHES: 0 DROPPED PREFETCHES: 0
L1I COMMIT LATE PREFETCHES: 0 MISSED OPPORTUNITY: 0 LATE IN PQ: 0 UNCOVERED: 0
L1I COMMIT LATE MSHR PREFETCHES: 0
L1I MPKI TOTAL: 0.79295 MSHR LATE: 0 PQ LATE: 0 COMMIT LATE: 0 MISSED OPPORTUNITY: 0 UNCOVERED: 0
L1I PREFETCHES SAME FILL-ORIGIN LEVEL: 0 DIFFERENT FILL-ORIGIN LEVEL: 0
L1I AVERAGE MISS LATENCY: 27.1193 cycles
L1I AVERAGE MISS LATENCY LOAD: 27.1193 cycles
L1I AVERAGE MISS LATENCY PREFETCH: -nan cycles
L1I AVERAGE MSHR OCCUPANCY: 0.00491103
L1I MSHR FULL: 0
L1I RQ	ACCESS:   56566529	FORWARD:          0	MERGED:   19120387	TO_CACHE:   37446142

BTB SPEC fills:          0  NON-SPEC fills:          0
BTB Test counter :          0
BTB Leapfrog:          0
BTB MSHR merge:          0
BTB TOTAL     ACCESS:   32873214  HIT:   30947951  MISS:    1925263  HIT %:    94.1434  MISS %:    5.85663   MPKI: 9.62631
BTB BRANCH_DIRECT_JUMP	ACCESS:    2330259  HIT:    2330115  MISS:        144
BTB BRANCH_INDIRECT	ACCESS:     674228  HIT:     571149  MISS:     103079
BTB BRANCH_CONDITIONAL	ACCESS:   17721648  HIT:   17721119  MISS:        529
BTB BRANCH_DIRECT_CALL	ACCESS:    3701835  HIT:    3701543  MISS:        292
BTB BRANCH_INDIRECT_CALL	ACCESS:    2371706  HIT:    2363088  MISS:       8618
BTB BRANCH_RETURN	ACCESS:    6073538  HIT:    4260937  MISS:    1812601
BTB BRANCH_OTHER ACCESS:          0  HIT:          0  MISS:          0

L2C SPEC fills:          0  NON-SPEC fills:     425275
L2C Test counter :    2039585
L2C Leapfrog:          0
L2C MSHR merge:        309
L2C TOTAL     ACCESS:   12326247  HIT:    6755724  MISS:    5570523  HIT %:    54.8076  MISS %:    45.1924   MPKI: 27.8526
L2C LOAD      TOTAL       ACCESS:    3503395  HIT:    1036243  MISS:    2467152  HIT %:    29.5783  MISS %:    70.4217   MPKI: 12.3358
L2C LOAD      NON_SPEC    ACCESS:     761070  HIT:     316134  MISS:     444936  HIT %:    41.5381  MISS %:    58.4619   MPKI: 2.22468
L2C LOAD      SPEC        ACCESS:    2742325  HIT:     720109  MISS:    2022216  HIT %:    26.2591  MISS %:    73.7409   MPKI: 10.1111
L2C RFO       NON_SPEC    ACCESS:     462040  HIT:      80360  MISS:     381680  HIT %:    17.3924  MISS %:    82.6076   MPKI: 1.9084
L2C PREFETCH  NON_SPEC    ACCESS:     167378  HIT:      39337  MISS:     128041  HIT %:    23.5019  MISS %:    76.4981   MPKI: 0.640205
L2C WRITEBACK NON_SPEC    ACCESS:     664083  HIT:     662778  MISS:       1305  HIT %:    99.8035  MISS %:   0.196512   MPKI: 0.006525
L2C CLEAN_EVICTION NON_SPEC    ACCESS:    2343046  HIT:     330206  MISS:    2012840  HIT %:     14.093  MISS %:     85.907   MPKI: 10.0642
L2C COMMIT LOAD NON_SPEC    ACCESS:      12831  HIT:       7078  MISS:       5753  HIT %:    55.1633  MISS %:    44.8367   MPKI: 0.028765
L2C LOAD TRANSLATION NON_SPEC    ACCESS:    4818405  HIT:    4248478  MISS:     569927  HIT %:    88.1719  MISS %:    11.8281   MPKI: 2.84963
L2C TRANSLATION FROM L1D PREFETCHER NON_SPEC    ACCESS:     355069  HIT:     351244  MISS:       3825  HIT %:    98.9227  MISS %:    1.07726   MPKI: 0.019125
L2C PREFETCH  REQUESTED:          0  ISSUED:          0  USEFUL:      35937  USELESS:      96074
L2C USEFUL LOAD PREFETCHES:      35937 PREFETCH ISSUED TO LOWER LEVEL:     128350  ACCURACY: 27.9992
L2C TIMELY PREFETCHES:      35937 LATE PREFETCHES: 309 DROPPED PREFETCHES: 0
L2C COMMIT LATE PREFETCHES: 0 MISSED OPPORTUNITY: 0 LATE IN PQ: 0 UNCOVERED: 0
L2C COMMIT LATE MSHR PREFETCHES: 0
L2C MPKI TOTAL: 12.3358 MSHR LATE: 0.001545 PQ LATE: 0 COMMIT LATE: 0 MISSED OPPORTUNITY: 0 UNCOVERED: 0
L2C PREFETCHES SAME FILL-ORIGIN LEVEL: 125098 DIFFERENT FILL-ORIGIN LEVEL: 0
L2C AVERAGE MISS LATENCY: 81.687 cycles
L2C AVERAGE MISS LATENCY LOAD: 133.642 cycles
L2C AVERAGE MISS LATENCY PREFETCH: 182.598 cycles
L2C AVERAGE MSHR OCCUPANCY: 0.398516
L2C MSHR FULL: 0
L2C RQ	ACCESS:    9151950	FORWARD:          0	MERGED:          0	TO_CACHE:    9151740
L2C WQ	ACCESS:    3007130	FORWARD:        212	MERGED:          1	TO_CACHE:    3007129
L2C PQ	ACCESS:     168764	FORWARD:          0	MERGED:          0	TO_CACHE:     168762

L2C Instructions Evicting Data 16145
L2C Translations Evicting Data 481414
L2C Data Evicting Data 782573
L2C Instructions Evicting Instructions 450
L2C Translations Evicting Instructions 3084
L2C Data Evicting Instructions 5282
L2C Instructions Evicting Translations 3066
L2C Translations Evicting Translations 89254
L2C Data Evicting Translations 152894
L2C Dense regions hint from L2: 0
PSCL5 SPEC fills:          0  NON-SPEC fills:          0
PSCL5 Test counter :          0
PSCL5 Leapfrog:          0
PSCL5 MSHR merge:          0
PSCL5 TOTAL     ACCESS:          0  HIT:          0  MISS:          0  HIT %:       -nan  MISS %:       -nan   MPKI: 0
PSCL5 PREFETCH  REQUESTED:          0  ISSUED:          0  USEFUL:          0  USELESS:          0
PSCL5 USEFUL LOAD PREFETCHES:          0 PREFETCH ISSUED TO LOWER LEVEL:          0  ACCURACY: -nan
PSCL5 TIMELY PREFETCHES:          0 LATE PREFETCHES: 0 DROPPED PREFETCHES: 0
PSCL5 COMMIT LATE PREFETCHES: 0 MISSED OPPORTUNITY: 0 LATE IN PQ: 0 UNCOVERED: 0
PSCL5 COMMIT LATE MSHR PREFETCHES: 0
PSCL5 MPKI TOTAL: 0 MSHR LATE: 0 PQ LATE: 0 COMMIT LATE: 0 MISSED OPPORTUNITY: 0 UNCOVERED: 0
PSCL5 PREFETCHES SAME FILL-ORIGIN LEVEL: 0 DIFFERENT FILL-ORIGIN LEVEL: 0

PSCL4 SPEC fills:          0  NON-SPEC fills:          0
PSCL4 Test counter :          0
PSCL4 Leapfrog:          0
PSCL4 MSHR merge:          0
PSCL4 TOTAL     ACCESS:          0  HIT:          0  MISS:          0  HIT %:       -nan  MISS %:       -nan   MPKI: 0
PSCL4 PREFETCH  REQUESTED:          0  ISSUED:          0  USEFUL:          0  USELESS:          0
PSCL4 USEFUL LOAD PREFETCHES:          0 PREFETCH ISSUED TO LOWER LEVEL:          0  ACCURACY: -nan
PSCL4 TIMELY PREFETCHES:          0 LATE PREFETCHES: 0 DROPPED PREFETCHES: 0
PSCL4 COMMIT LATE PREFETCHES: 0 MISSED OPPORTUNITY: 0 LATE IN PQ: 0 UNCOVERED: 0
PSCL4 COMMIT LATE MSHR PREFETCHES: 0
PSCL4 MPKI TOTAL: 0 MSHR LATE: 0 PQ LATE: 0 COMMIT LATE: 0 MISSED OPPORTUNITY: 0 UNCOVERED: 0
PSCL4 PREFETCHES SAME FILL-ORIGIN LEVEL: 0 DIFFERENT FILL-ORIGIN LEVEL: 0

PSCL3 SPEC fills:          0  NON-SPEC fills:          0
PSCL3 Test counter :          0
PSCL3 Leapfrog:          0
PSCL3 MSHR merge:          0
PSCL3 TOTAL     ACCESS:          0  HIT:          0  MISS:          0  HIT %:       -nan  MISS %:       -nan   MPKI: 0
PSCL3 PREFETCH  REQUESTED:          0  ISSUED:          0  USEFUL:          0  USELESS:          0
PSCL3 USEFUL LOAD PREFETCHES:          0 PREFETCH ISSUED TO LOWER LEVEL:          0  ACCURACY: -nan
PSCL3 TIMELY PREFETCHES:          0 LATE PREFETCHES: 0 DROPPED PREFETCHES: 0
PSCL3 COMMIT LATE PREFETCHES: 0 MISSED OPPORTUNITY: 0 LATE IN PQ: 0 UNCOVERED: 0
PSCL3 COMMIT LATE MSHR PREFETCHES: 0
PSCL3 MPKI TOTAL: 0 MSHR LATE: 0 PQ LATE: 0 COMMIT LATE: 0 MISSED OPPORTUNITY: 0 UNCOVERED: 0
PSCL3 PREFETCHES SAME FILL-ORIGIN LEVEL: 0 DIFFERENT FILL-ORIGIN LEVEL: 0

PSCL2 SPEC fills:          0  NON-SPEC fills:          0
PSCL2 Test counter :          0
PSCL2 Leapfrog:          0
PSCL2 MSHR merge:          0
PSCL2 TOTAL     ACCESS:          0  HIT:          0  MISS:          0  HIT %:       -nan  MISS %:       -nan   MPKI: 0
PSCL2 PREFETCH  REQUESTED:          0  ISSUED:          0  USEFUL:          0  USELESS:          0
PSCL2 USEFUL LOAD PREFETCHES:          0 PREFETCH ISSUED TO LOWER LEVEL:          0  ACCURACY: -nan
PSCL2 TIMELY PREFETCHES:          0 LATE PREFETCHES: 0 DROPPED PREFETCHES: 0
PSCL2 COMMIT LATE PREFETCHES: 0 MISSED OPPORTUNITY: 0 LATE IN PQ: 0 UNCOVERED: 0
PSCL2 COMMIT LATE MSHR PREFETCHES: 0
PSCL2 MPKI TOTAL: 0 MSHR LATE: 0 PQ LATE: 0 COMMIT LATE: 0 MISSED OPPORTUNITY: 0 UNCOVERED: 0
PSCL2 PREFETCHES SAME FILL-ORIGIN LEVEL: 0 DIFFERENT FILL-ORIGIN LEVEL: 0

LLC SPEC fills:          0  NON-SPEC fills:     286173
LLC Test counter :    1605916
LLC Leapfrog:          0
LLC MSHR merge:          0
LLC TOTAL     ACCESS:    6113354  HIT:    2144376  MISS:    3968978  HIT %:    35.0769  MISS %:    64.9231   MPKI: 19.8449
LLC LOAD      TOTAL       ACCESS:    2466838  HIT:     616716  MISS:    1850122  HIT %:    25.0003  MISS %:    74.9997   MPKI: 9.25061
LLC LOAD      NON_SPEC    ACCESS:     444933  HIT:     152998  MISS:     291935  HIT %:    34.3868  MISS %:    65.6132   MPKI: 1.45967
LLC LOAD      SPEC        ACCESS:    2021905  HIT:     463718  MISS:    1558187  HIT %:    22.9347  MISS %:    77.0653   MPKI: 7.79093
LLC RFO       NON_SPEC    ACCESS:     381678  HIT:     139171  MISS:     242507  HIT %:    36.4629  MISS %:    63.5371   MPKI: 1.21253
LLC PREFETCH  NON_SPEC    ACCESS:     128350  HIT:       5189  MISS:     123161  HIT %:    4.04285  MISS %:    95.9571   MPKI: 0.615805
LLC WRITEBACK NON_SPEC    ACCESS:     517401  HIT:     516506  MISS:        895  HIT %:     99.827  MISS %:    0.17298   MPKI: 0.004475
LLC CLEAN_EVICTION NON_SPEC    ACCESS:    2039585  HIT:     471901  MISS:    1567684  HIT %:    23.1371  MISS %:    76.8629   MPKI: 7.83842
LLC COMMIT LOAD NON_SPEC    ACCESS:       5750  HIT:       2968  MISS:       2782  HIT %:    51.6174  MISS %:    48.3826   MPKI: 0.01391
LLC LOAD TRANSLATION NON_SPEC    ACCESS:     569927  HIT:     390072  MISS:     179855  HIT %:    68.4424  MISS %:    31.5576   MPKI: 0.899275
LLC TRANSLATION FROM L1D PREFETCHER NON_SPEC    ACCESS:       3825  HIT:       1853  MISS:       1972  HIT %:    48.4444  MISS %:    51.5556   MPKI: 0.00986
LLC PREFETCH  REQUESTED:          0  ISSUED:          0  USEFUL:       4051  USELESS:     121196
LLC USEFUL LOAD PREFETCHES:       4051 PREFETCH ISSUED TO LOWER LEVEL:     123161  ACCURACY: 3.28919
LLC TIMELY PREFETCHES:       4051 LATE PREFETCHES: 0 DROPPED PREFETCHES: 0
LLC COMMIT LATE PREFETCHES: 0 MISSED OPPORTUNITY: 0 LATE IN PQ: 0 UNCOVERED: 0
LLC COMMIT LATE MSHR PREFETCHES: 0
LLC MPKI TOTAL: 9.25061 MSHR LATE: 0 PQ LATE: 0 COMMIT LATE: 0 MISSED OPPORTUNITY: 0 UNCOVERED: 0
LLC PREFETCHES SAME FILL-ORIGIN LEVEL: 0 DIFFERENT FILL-ORIGIN LEVEL: 0
LLC AVERAGE MISS LATENCY: 92.3554 cycles
LLC AVERAGE MISS LATENCY LOAD: 148.021 cycles
LLC AVERAGE MISS LATENCY PREFETCH: 159.147 cycles
LLC AVERAGE MSHR OCCUPANCY: 0.385385
LLC MSHR FULL: 0
LLC RQ	ACCESS:    3428028	FORWARD:          0	MERGED:          0	TO_CACHE:    3428018
LLC WQ	ACCESS:    2556986	FORWARD:         10	MERGED:          0	TO_CACHE:    2556986
LLC PQ	ACCESS:     128350	FORWARD:          0	MERGED:          0	TO_CACHE:     128350

LLC Dense regions hint to LLC: 0

RAW hits: 3458901
Loads Generated: 66872541
Loads sent to L1D: 63413640
Stores Generated: 37145093
Stores sent to L1D: 37145107
Major fault: 0 Minor fault: 53031
Allocated PAGES: 53031
Total Load insts: 78556236
Total Non-spec loads: 27806938
Percentage of speculative loads: 64.6025

LeapFrogging counter: 616
Commit hits: 23019876 miss: 16001996
Commit hit %: 58.9922 miss %: 41.0078
Commits not translated: 0
Loads retired: 3382556
Stores retired: 37145107
Cache fills: 3382556
L1D response latency: 108.861 cycles
Load retirement latency: 197.307 cycles
OOO test counter: 0
Discarded buffer inserts: 23019876 hits: 21627 hit %: 0.0939492
Filter prediction accuracy: 99.9793
ALL MISSES SIZE: 28263
LATENCY_FILL: 108.476 3400378
LATENCY_FILL_ROB: 148.466 3400486
test counter pref: 14521524
Max ROB Extended: 19

DRAM Statistics
 CHANNEL 0
 RQ ROW_BUFFER_HIT:     178390  ROW_BUFFER_MISS:    2222000
 DBUS_CONGESTED:       1332
 WQ ROW_BUFFER_HIT:     360286  ROW_BUFFER_MISS:    1575978  FULL:          0

 AVG_CONGESTED_CYCLE: 4
 All warmup complete: 2
Channel 0 Bank busy for read cycles: 0
Channel 0 Bank busy for write cycles: 0
Channel 0
Rank 0
0banks busy for read cycles: 372211695
0banks busy for write cycles: 744760
1banks busy for read cycles: 191898671
1banks busy for write cycles: 121404346
2banks busy for read cycles: 48481044
2banks busy for write cycles: 56132324
3banks busy for read cycles: 11858444
3banks busy for write cycles: 24055662
4banks busy for read cycles: 3902731
4banks busy for write cycles: 9566711
5banks busy for read cycles: 319558
5banks busy for write cycles: 3694687
6banks busy for read cycles: 89092
6banks busy for write cycles: 1382305
7banks busy for read cycles: 6028
7banks busy for write cycles: 476110
8banks busy for read cycles: 507
8banks busy for write cycles: 122817

CPU 0 Branch Prediction Accuracy: 98.172% MPKI: 3.83776 Average ROB Occupancy at Mispredict: 36.8529
Branch types
NOT_BRANCH: 158010836 79.0054%
BRANCH_DIRECT_JUMP: 2330259 1.16513%
BRANCH_INDIRECT: 674228 0.337114%
BRANCH_CONDITIONAL: 26837262 13.4186%
BRANCH_DIRECT_CALL: 3701835 1.85092%
BRANCH_INDIRECT_CALL: 2371706 1.18585%
BRANCH_RETURN: 6073538 3.03677%
BRANCH_OTHER: 0 0%

DRAM PAGES: 1048576
Allocated PAGES: 53031
