
*** ChampSim Multicore Out-of-Order Simulator ***

Warmup Instructions: 50000000
Simulation Instructions: 200000000
Number of CPUs: 1
LLC sets: 2048
LLC ways: 16
L0D sets: 16
L0D ways: 2
ROB size: 352
LQ size: 128
SQ size: 72
Secure Berti: ON
Berti: ON
Berti Fill: ON
On commit prefetching: OFF
Hit-based filter: ON
Time-guarding: ON
Free-slotting: ON
Leap-frogging: ON
Train prefetcher on L0D bypass: OFF
No translation penalty for prefetchers: OFF
Prefetch to L0D only: OFF
Prefetch to L1D only: OFF
Clean evictions: ON
Commit loads: ON
Commit write: ON
Fill commit loads to L2C, LLC: ON
DRAM IO FREQUENCY: 6400
ROB SIZE: 352
Off-chip DRAM Size: 4096 MB Channels: 1 Width: 64-bit Data Rate: 6400 MT/s
CPU 0 runs /home/sumon/secure_berti/GhostMinion/../../traces/spec/649.fotonik3d_s-10881B.champsimtrace.xz
.xz
BTB has LRU replacement policy
ITLB has LRU replacement policy
DTLB has LRU replacement policy
STLB has LRU replacement policy
L1I has LRU replacement policy
L0D has LRU replacement policy
Berti version on_commit
History Sets: 8
History Ways: 16
BERTI Size: 16
BERTI Stride Size: 16
L1D has LRU replacement policy
L2C has LRU replacement policy
LLC has LRU replacement policy
Heartbeat CPU 0 instructions: 10000000 cycles: 5561938 heartbeat IPC: 1.79793 cumulative IPC: 1.79793 (Simulation time: 0 hr 2 min 12 sec) 
Heartbeat CPU 0 instructions: 20000000 cycles: 11101319 heartbeat IPC: 1.80526 cumulative IPC: 1.80159 (Simulation time: 0 hr 4 min 22 sec) 
Heartbeat CPU 0 instructions: 30000000 cycles: 16640856 heartbeat IPC: 1.8052 cumulative IPC: 1.80279 (Simulation time: 0 hr 6 min 20 sec) 
Heartbeat CPU 0 instructions: 40000002 cycles: 22181402 heartbeat IPC: 1.80488 cumulative IPC: 1.80331 (Simulation time: 0 hr 8 min 14 sec) 
Heartbeat CPU 0 instructions: 50000002 cycles: 27727524 heartbeat IPC: 1.80306 cumulative IPC: 1.80326 (Simulation time: 0 hr 10 min 9 sec) 

Warmup complete CPU 0 instructions: 50000002 cycles: 27727524 (Simulation time: 0 hr 10 min 9 sec) 

Heartbeat CPU 0 instructions: 60000000 cycles: 44092275 heartbeat IPC: 0.611069 cumulative IPC: 0.611069 (Simulation time: 0 hr 12 min 8 sec) 
Heartbeat CPU 0 instructions: 70000000 cycles: 60468227 heartbeat IPC: 0.610651 cumulative IPC: 0.61086 (Simulation time: 0 hr 14 min 6 sec) 
Heartbeat CPU 0 instructions: 80000003 cycles: 76735740 heartbeat IPC: 0.614722 cumulative IPC: 0.612142 (Simulation time: 0 hr 15 min 29 sec) 
Heartbeat CPU 0 instructions: 90000003 cycles: 93066416 heartbeat IPC: 0.612345 cumulative IPC: 0.612193 (Simulation time: 0 hr 16 min 42 sec) 
Heartbeat CPU 0 instructions: 100000003 cycles: 109474447 heartbeat IPC: 0.609458 cumulative IPC: 0.611644 (Simulation time: 0 hr 17 min 55 sec) 
Heartbeat CPU 0 instructions: 110000000 cycles: 125767761 heartbeat IPC: 0.613748 cumulative IPC: 0.611994 (Simulation time: 0 hr 19 min 6 sec) 
Heartbeat CPU 0 instructions: 120000003 cycles: 142125244 heartbeat IPC: 0.611341 cumulative IPC: 0.6119 (Simulation time: 0 hr 20 min 15 sec) 
Heartbeat CPU 0 instructions: 130000000 cycles: 158507646 heartbeat IPC: 0.610411 cumulative IPC: 0.611714 (Simulation time: 0 hr 21 min 23 sec) 
Heartbeat CPU 0 instructions: 140000002 cycles: 174872338 heartbeat IPC: 0.611072 cumulative IPC: 0.611642 (Simulation time: 0 hr 22 min 27 sec) 
Heartbeat CPU 0 instructions: 150000003 cycles: 191200380 heartbeat IPC: 0.612443 cumulative IPC: 0.611722 (Simulation time: 0 hr 23 min 30 sec) 
Heartbeat CPU 0 instructions: 160000001 cycles: 207445231 heartbeat IPC: 0.61558 cumulative IPC: 0.612071 (Simulation time: 0 hr 24 min 31 sec) 
Heartbeat CPU 0 instructions: 170000001 cycles: 223837692 heartbeat IPC: 0.610037 cumulative IPC: 0.611901 (Simulation time: 0 hr 25 min 32 sec) 
Heartbeat CPU 0 instructions: 180000002 cycles: 240199308 heartbeat IPC: 0.611187 cumulative IPC: 0.611846 (Simulation time: 0 hr 26 min 31 sec) 
Heartbeat CPU 0 instructions: 190000000 cycles: 256502563 heartbeat IPC: 0.613374 cumulative IPC: 0.611955 (Simulation time: 0 hr 27 min 29 sec) 
Heartbeat CPU 0 instructions: 200000002 cycles: 272877351 heartbeat IPC: 0.610695 cumulative IPC: 0.611871 (Simulation time: 0 hr 28 min 26 sec) 
Heartbeat CPU 0 instructions: 210000001 cycles: 289264851 heartbeat IPC: 0.610221 cumulative IPC: 0.611767 (Simulation time: 0 hr 29 min 24 sec) 
Heartbeat CPU 0 instructions: 220000000 cycles: 305661155 heartbeat IPC: 0.609894 cumulative IPC: 0.611657 (Simulation time: 0 hr 30 min 21 sec) 
Heartbeat CPU 0 instructions: 230000001 cycles: 321944583 heartbeat IPC: 0.614121 cumulative IPC: 0.611793 (Simulation time: 0 hr 31 min 18 sec) 
Heartbeat CPU 0 instructions: 240000002 cycles: 338272764 heartbeat IPC: 0.612438 cumulative IPC: 0.611827 (Simulation time: 0 hr 32 min 15 sec) 
Heartbeat CPU 0 instructions: 250000000 cycles: 354647263 heartbeat IPC: 0.610706 cumulative IPC: 0.611771 (Simulation time: 0 hr 33 min 11 sec) 
Finished CPU 0 instructions: 200000002 cycles: 326919740 cumulative IPC: 0.611771 (Simulation time: 0 hr 33 min 11 sec) 
 Instruction ID: 250000353

ChampSim completed all CPUs

Region of Interest Statistics

CPU 0 cumulative IPC: 0.611771 instructions: 200000002 cycles: 326919740
ITLB SPEC fills:          0  NON-SPEC fills:          0
ITLB Test counter :          0
ITLB Leapfrog:          0
ITLB MSHR merge:          0
ITLB TOTAL     ACCESS:   25948841  HIT:   25948841  MISS:          0  HIT %:        100  MISS %:          0   MPKI: 0
ITLB LOAD TRANSLATION NON_SPEC    ACCESS:   25948841  HIT:   25948841  MISS:          0  HIT %:        100  MISS %:          0   MPKI: 0
ITLB PREFETCH  REQUESTED:          0  ISSUED:          0  USEFUL:          0  USELESS:          0
ITLB USEFUL LOAD PREFETCHES:          0 PREFETCH ISSUED TO LOWER LEVEL:          0  ACCURACY: -nan
ITLB TIMELY PREFETCHES:          0 LATE PREFETCHES: 0 DROPPED PREFETCHES: 0
ITLB COMMIT LATE PREFETCHES: 0 MISSED OPPORTUNITY: 0 LATE IN PQ: 0 UNCOVERED: 0
ITLB COMMIT LATE MSHR PREFETCHES: 0
ITLB MPKI TOTAL: 0 MSHR LATE: 0 PQ LATE: 0 COMMIT LATE: 0 MISSED OPPORTUNITY: 0 UNCOVERED: 0
ITLB PREFETCHES SAME FILL-ORIGIN LEVEL: 0 DIFFERENT FILL-ORIGIN LEVEL: 0
ITLB AVERAGE MISS LATENCY: -nan cycles
ITLB AVERAGE MISS LATENCY LOAD: -nan cycles
ITLB AVERAGE MISS LATENCY PREFETCH: -nan cycles
ITLB AVERAGE MSHR OCCUPANCY: 0
ITLB MSHR FULL: 0
ITLB RQ	ACCESS:   27507912	FORWARD:          0	MERGED:    1559071	TO_CACHE:   25948841

DTLB SPEC fills:          0  NON-SPEC fills:          0
DTLB Test counter :          0
DTLB Leapfrog:          0
DTLB MSHR merge:          0
DTLB TOTAL     ACCESS:   93437881  HIT:   92420860  MISS:    1017021  HIT %:    98.9116  MISS %:    1.08845   MPKI: 5.0851
DTLB LOAD TRANSLATION NON_SPEC    ACCESS:   93437881  HIT:   92420860  MISS:    1017021  HIT %:    98.9116  MISS %:    1.08845   MPKI: 5.0851
DTLB PREFETCH  REQUESTED:          0  ISSUED:          0  USEFUL:          0  USELESS:          0
DTLB USEFUL LOAD PREFETCHES:          0 PREFETCH ISSUED TO LOWER LEVEL:          0  ACCURACY: -nan
DTLB TIMELY PREFETCHES:          0 LATE PREFETCHES: 0 DROPPED PREFETCHES: 0
DTLB COMMIT LATE PREFETCHES: 0 MISSED OPPORTUNITY: 0 LATE IN PQ: 0 UNCOVERED: 0
DTLB COMMIT LATE MSHR PREFETCHES: 0
DTLB MPKI TOTAL: 0 MSHR LATE: 0 PQ LATE: 0 COMMIT LATE: 0 MISSED OPPORTUNITY: 0 UNCOVERED: 0
DTLB PREFETCHES SAME FILL-ORIGIN LEVEL: 0 DIFFERENT FILL-ORIGIN LEVEL: 0
DTLB AVERAGE MISS LATENCY: 210.161 cycles
DTLB AVERAGE MISS LATENCY LOAD: -nan cycles
DTLB AVERAGE MISS LATENCY PREFETCH: -nan cycles
DTLB AVERAGE MSHR OCCUPANCY: 0.223706
DTLB MSHR FULL: 0.000169004
DTLB RQ	ACCESS:  109134067	FORWARD:          0	MERGED:   15629829	TO_CACHE:   93504238

STLB SPEC fills:          0  NON-SPEC fills:          0
STLB Test counter :          0
STLB Leapfrog:          0
STLB MSHR merge:          0
STLB TOTAL     ACCESS:    7675351  HIT:    6996297  MISS:     679054  HIT %:    91.1528  MISS %:     8.8472   MPKI: 3.39527
STLB LOAD TRANSLATION NON_SPEC    ACCESS:    1017021  HIT:     501500  MISS:     515521  HIT %:    49.3107  MISS %:    50.6893   MPKI: 2.5776
STLB TRANSLATION FROM L1D PREFETCHER NON_SPEC    ACCESS:    6658330  HIT:    6494797  MISS:     163533  HIT %:    97.5439  MISS %:    2.45607   MPKI: 0.817665
STLB PREFETCH  REQUESTED:          0  ISSUED:          0  USEFUL:     163533  USELESS:          0
STLB USEFUL LOAD PREFETCHES:     163533 PREFETCH ISSUED TO LOWER LEVEL:          0  ACCURACY: inf
STLB TIMELY PREFETCHES:     163533 LATE PREFETCHES: 96000 DROPPED PREFETCHES: 2756466
STLB COMMIT LATE PREFETCHES: 0 MISSED OPPORTUNITY: 0 LATE IN PQ: 0 UNCOVERED: 0
STLB COMMIT LATE MSHR PREFETCHES: 0
STLB MPKI TOTAL: 0 MSHR LATE: 0.48 PQ LATE: 0 COMMIT LATE: 0 MISSED OPPORTUNITY: 0 UNCOVERED: 0
STLB PREFETCHES SAME FILL-ORIGIN LEVEL: 0 DIFFERENT FILL-ORIGIN LEVEL: 0
STLB AVERAGE MISS LATENCY: 339.754 cycles
STLB AVERAGE MISS LATENCY LOAD: -nan cycles
STLB AVERAGE MISS LATENCY PREFETCH: -nan cycles
STLB AVERAGE MSHR OCCUPANCY: 1.62888
STLB MSHR FULL: 0
STLB RQ	ACCESS:   26014972	FORWARD:          0	MERGED:   15312375	TO_CACHE:   10702597

STLB Hit, L1D data hit: 0
STLB Hit, L2C data hit: 0
STLB Hit, LLC data hit: 0
STLB Hit, LLC data miss: 0
STLB STLB hints to L2: 0
L0D SPEC fills:   52576557  NON-SPEC fills:          0
L0D TimeGuard Request with older TS:    8607077 Restricted eviction:    6627270 read:    2002598
L0D Test counter :          0
L0D Leapfrog:          0
L0D MSHR merge:    4702480
L0D TOTAL     ACCESS:   91608968  HIT:   28261857  MISS:   63347111  HIT %:    30.8505  MISS %:    69.1495   MPKI: 316.736
L0D LOAD      TOTAL       ACCESS:   91608968  HIT:   28261857  MISS:   63347111  HIT %:    30.8505  MISS %:    69.1495   MPKI: 316.736
L0D LOAD      NON_SPEC    ACCESS:    5132357  HIT:     988816  MISS:    4143541  HIT %:    19.2663  MISS %:    80.7337   MPKI: 20.7177
L0D LOAD      SPEC        ACCESS:   86476611  HIT:   27273041  MISS:   59203570  HIT %:    31.5381  MISS %:    68.4619   MPKI: 296.018
L0D PREFETCH  REQUESTED:          0  ISSUED:          0  USEFUL:          0  USELESS:          0
L0D USEFUL LOAD PREFETCHES:          0 PREFETCH ISSUED TO LOWER LEVEL:          0  ACCURACY: -nan
L0D TIMELY PREFETCHES:          0 LATE PREFETCHES: 0 DROPPED PREFETCHES: 0
L0D COMMIT LATE PREFETCHES: 0 MISSED OPPORTUNITY: 0 LATE IN PQ: 0 UNCOVERED: 0
L0D COMMIT LATE MSHR PREFETCHES: 0
L0D MPKI TOTAL: 340.248 MSHR LATE: 0 PQ LATE: 0 COMMIT LATE: 0 MISSED OPPORTUNITY: 0 UNCOVERED: 0
L0D PREFETCHES SAME FILL-ORIGIN LEVEL: 0 DIFFERENT FILL-ORIGIN LEVEL: 0
L0D AVERAGE MISS LATENCY: 8.50505 cycles
L0D AVERAGE MISS LATENCY LOAD: 8.50505 cycles
L0D AVERAGE MISS LATENCY PREFETCH: -nan cycles
L0D AVERAGE MSHR OCCUPANCY: 2.50691
L0D MSHR FULL: 0.000772368
L0D RQ	ACCESS:  127614307	FORWARD:          0	MERGED:   31302857	TO_CACHE:   96311450
L0D WQ	ACCESS:   12822617	FORWARD:          0	MERGED:          0	TO_CACHE:   12822617

L1D SPEC fills:          0  NON-SPEC fills:      81559
L1D Test counter :    1140723
L1D Leapfrog:          0
L1D MSHR merge:      79018
L1D TOTAL     ACCESS:   88641154  HIT:   82812226  MISS:    5828928  HIT %:    93.4241  MISS %:    6.57587   MPKI: 29.1446
L1D LOAD      TOTAL       ACCESS:   63289675  HIT:   61520771  MISS:    1768904  HIT %:    97.2051  MISS %:    2.79493   MPKI: 8.84452
L1D LOAD      NON_SPEC    ACCESS:    4142805  HIT:    4061246  MISS:      81559  HIT %:    98.0313  MISS %:    1.96869   MPKI: 0.407795
L1D LOAD      SPEC        ACCESS:   59146870  HIT:   57459525  MISS:    1687345  HIT %:    97.1472  MISS %:    2.85281   MPKI: 8.43672
L1D RFO       NON_SPEC    ACCESS:   12674919  HIT:   12673907  MISS:       1012  HIT %:     99.992  MISS %: 0.00798427   MPKI: 0.00506
L1D PREFETCH  NON_SPEC    ACCESS:   10358752  HIT:    7922130  MISS:    2436622  HIT %:    76.4776  MISS %:    23.5224   MPKI: 12.1831
L1D COMMIT LOAD NON_SPEC    ACCESS:     749836  HIT:     591492  MISS:     158344  HIT %:    78.8828  MISS %:    21.1172   MPKI: 0.79172
L1D COMMIT WRITE NON_SPEC    ACCESS:    1567972  HIT:     103926  MISS:    1464046  HIT %:    6.62805  MISS %:    93.3719   MPKI: 7.32023
L1D PREFETCH  REQUESTED:  154198533  ISSUED:   26655976  USEFUL:    2204539  USELESS:     232109
L1D USEFUL LOAD PREFETCHES:    2204539 PREFETCH ISSUED TO LOWER LEVEL:    8763809  ACCURACY: 25.155
L1D TIMELY PREFETCHES:    2204539 LATE PREFETCHES: 22183 DROPPED PREFETCHES: 7985505
L1D COMMIT LATE PREFETCHES: 0 MISSED OPPORTUNITY: 0 LATE IN PQ: 0 UNCOVERED: 0
L1D COMMIT LATE MSHR PREFETCHES: 0
L1D MPKI TOTAL: 9.1317 MSHR LATE: 0.110915 PQ LATE: 0 COMMIT LATE: 0 MISSED OPPORTUNITY: 0 UNCOVERED: 0
L1D PREFETCHES SAME FILL-ORIGIN LEVEL: 2458805 DIFFERENT FILL-ORIGIN LEVEL: 6305004
L1D AVERAGE MISS LATENCY: 95.0915 cycles
L1D AVERAGE MISS LATENCY LOAD: 111.626 cycles
L1D AVERAGE MISS LATENCY PREFETCH: 143.359 cycles
L1D AVERAGE MSHR OCCUPANCY: 1.55464
L1D MSHR FULL: 3.60301e-06
L1D RQ	ACCESS:   64157983	FORWARD:          0	MERGED:      44926	TO_CACHE:   64113033
L1D WQ	ACCESS:   14390589	FORWARD:         24	MERGED:      82436	TO_CACHE:   14308153
L1D PQ	ACCESS:   26655976	FORWARD:          0	MERGED:    1658025	TO_CACHE:   24997951

L1D UNIQUE REGIONS ACCESSED: 0
L1D REGIONS CONFLICTS: 0
L1D Cross Page Prefetch Requests: 21102177
L1D Same Page Prefetch Requests: 25283190
L1D ROI Sum of L1D PQ occupancy: 2907888473
L1D PREFETCHES PUSHED FROM L2C: 0
L1I SPEC fills:          0  NON-SPEC fills:          0
L1I Test counter :          0
L1I Leapfrog:          0
L1I MSHR merge:          0
L1I TOTAL     ACCESS:   27507910  HIT:   27507910  MISS:          0  HIT %:        100  MISS %:          0   MPKI: 0
L1I LOAD      TOTAL       ACCESS:   27507910  HIT:   27507910  MISS:          0  HIT %:        100  MISS %:          0   MPKI: 0
L1I LOAD      NON_SPEC    ACCESS:   27507910  HIT:   27507910  MISS:          0  HIT %:        100  MISS %:          0   MPKI: 0
L1I PREFETCH  REQUESTED:          0  ISSUED:          0  USEFUL:          0  USELESS:          0
L1I USEFUL LOAD PREFETCHES:          0 PREFETCH ISSUED TO LOWER LEVEL:          0  ACCURACY: -nan
L1I TIMELY PREFETCHES:          0 LATE PREFETCHES: 0 DROPPED PREFETCHES: 0
L1I COMMIT LATE PREFETCHES: 0 MISSED OPPORTUNITY: 0 LATE IN PQ: 0 UNCOVERED: 0
L1I COMMIT LATE MSHR PREFETCHES: 0
L1I MPKI TOTAL: 0 MSHR LATE: 0 PQ LATE: 0 COMMIT LATE: 0 MISSED OPPORTUNITY: 0 UNCOVERED: 0
L1I PREFETCHES SAME FILL-ORIGIN LEVEL: 0 DIFFERENT FILL-ORIGIN LEVEL: 0
L1I AVERAGE MISS LATENCY: -nan cycles
L1I AVERAGE MISS LATENCY LOAD: -nan cycles
L1I AVERAGE MISS LATENCY PREFETCH: -nan cycles
L1I AVERAGE MSHR OCCUPANCY: 0
L1I MSHR FULL: 0
L1I RQ	ACCESS:   62062797	FORWARD:          0	MERGED:   34554885	TO_CACHE:   27507912

BTB SPEC fills:          0  NON-SPEC fills:          0
BTB Test counter :          0
BTB Leapfrog:          0
BTB MSHR merge:          0
BTB TOTAL     ACCESS:    2243766  HIT:    2243761  MISS:          5  HIT %:    99.9998  MISS %: 0.00022284   MPKI: 2.5e-05
BTB BRANCH_DIRECT_JUMP	ACCESS:     160245  HIT:     160244  MISS:          1
BTB BRANCH_INDIRECT	ACCESS:          0  HIT:          0  MISS:          0
BTB BRANCH_CONDITIONAL	ACCESS:    2083521  HIT:    2083517  MISS:          4
BTB BRANCH_DIRECT_CALL	ACCESS:          0  HIT:          0  MISS:          0
BTB BRANCH_INDIRECT_CALL	ACCESS:          0  HIT:          0  MISS:          0
BTB BRANCH_RETURN	ACCESS:          0  HIT:          0  MISS:          0
BTB BRANCH_OTHER ACCESS:          0  HIT:          0  MISS:          0

L2C SPEC fills:          0  NON-SPEC fills:      40605
L2C Test counter :    1137245
L2C Leapfrog:          0
L2C MSHR merge:      86121
L2C TOTAL     ACCESS:   30295325  HIT:   24009413  MISS:    6285912  HIT %:    79.2512  MISS %:    20.7488   MPKI: 31.4296
L2C LOAD      TOTAL       ACCESS:    1746941  HIT:     756899  MISS:     990042  HIT %:    43.3271  MISS %:    56.6729   MPKI: 4.95021
L2C LOAD      NON_SPEC    ACCESS:      81290  HIT:      40685  MISS:      40605  HIT %:    50.0492  MISS %:    49.9508   MPKI: 0.203025
L2C LOAD      SPEC        ACCESS:    1665651  HIT:     716214  MISS:     949437  HIT %:     42.999  MISS %:     57.001   MPKI: 4.74718
L2C RFO       NON_SPEC    ACCESS:       1012  HIT:        902  MISS:        110  HIT %:    89.1304  MISS %:    10.8696   MPKI: 0.00055
L2C PREFETCH  NON_SPEC    ACCESS:    8336505  HIT:    4052636  MISS:    4283869  HIT %:    48.6131  MISS %:    51.3869   MPKI: 21.4193
L2C WRITEBACK NON_SPEC    ACCESS:    1262898  HIT:    1262885  MISS:         13  HIT %:     99.999  MISS %: 0.00102938   MPKI: 6.5e-05
L2C CLEAN_EVICTION NON_SPEC    ACCESS:    1140723  HIT:     249904  MISS:     890819  HIT %:    21.9075  MISS %:    78.0925   MPKI: 4.45409
L2C COMMIT LOAD NON_SPEC    ACCESS:     157743  HIT:     123071  MISS:      34672  HIT %:    78.0199  MISS %:    21.9801   MPKI: 0.17336
L2C LOAD TRANSLATION NON_SPEC    ACCESS:    2575837  HIT:    2573447  MISS:       2390  HIT %:    99.9072  MISS %:  0.0927854   MPKI: 0.01195
L2C TRANSLATION FROM L1D PREFETCHER NON_SPEC    ACCESS:   15073666  HIT:   14989669  MISS:      83997  HIT %:    99.4428  MISS %:   0.557243   MPKI: 0.419985
L2C PREFETCH  REQUESTED:          0  ISSUED:          0  USEFUL:     734873  USELESS:    3633497
L2C USEFUL LOAD PREFETCHES:     734873 PREFETCH ISSUED TO LOWER LEVEL:    4372911  ACCURACY: 16.8051
L2C TIMELY PREFETCHES:     734873 LATE PREFETCHES: 89042 DROPPED PREFETCHES: 0
L2C COMMIT LATE PREFETCHES: 0 MISSED OPPORTUNITY: 0 LATE IN PQ: 0 UNCOVERED: 0
L2C COMMIT LATE MSHR PREFETCHES: 0
L2C MPKI TOTAL: 4.95021 MSHR LATE: 0.44521 PQ LATE: 0 COMMIT LATE: 0 MISSED OPPORTUNITY: 0 UNCOVERED: 0
L2C PREFETCHES SAME FILL-ORIGIN LEVEL: 2879769 DIFFERENT FILL-ORIGIN LEVEL: 0
L2C AVERAGE MISS LATENCY: 175.193 cycles
L2C AVERAGE MISS LATENCY LOAD: 176.16 cycles
L2C AVERAGE MISS LATENCY PREFETCH: 210.662 cycles
L2C AVERAGE MSHR OCCUPANCY: 3.45151
L2C MSHR FULL: 0
L2C RQ	ACCESS:   19555581	FORWARD:          0	MERGED:          0	TO_CACHE:   19555200
L2C WQ	ACCESS:    2403623	FORWARD:        381	MERGED:          2	TO_CACHE:    2403621
L2C PQ	ACCESS:    8763809	FORWARD:          0	MERGED:          2	TO_CACHE:    8763807

L2C Instructions Evicting Data 0
L2C Translations Evicting Data 85297
L2C Data Evicting Data 4289916
L2C Instructions Evicting Instructions 0
L2C Translations Evicting Instructions 0
L2C Data Evicting Instructions 0
L2C Instructions Evicting Translations 0
L2C Translations Evicting Translations 1090
L2C Data Evicting Translations 69340
L2C Dense regions hint from L2: 0
PSCL5 SPEC fills:          0  NON-SPEC fills:          0
PSCL5 Test counter :          0
PSCL5 Leapfrog:          0
PSCL5 MSHR merge:          0
PSCL5 TOTAL     ACCESS:          0  HIT:          0  MISS:          0  HIT %:       -nan  MISS %:       -nan   MPKI: 0
PSCL5 PREFETCH  REQUESTED:          0  ISSUED:          0  USEFUL:          0  USELESS:          0
PSCL5 USEFUL LOAD PREFETCHES:          0 PREFETCH ISSUED TO LOWER LEVEL:          0  ACCURACY: -nan
PSCL5 TIMELY PREFETCHES:          0 LATE PREFETCHES: 0 DROPPED PREFETCHES: 0
PSCL5 COMMIT LATE PREFETCHES: 0 MISSED OPPORTUNITY: 0 LATE IN PQ: 0 UNCOVERED: 0
PSCL5 COMMIT LATE MSHR PREFETCHES: 0
PSCL5 MPKI TOTAL: 0 MSHR LATE: 0 PQ LATE: 0 COMMIT LATE: 0 MISSED OPPORTUNITY: 0 UNCOVERED: 0
PSCL5 PREFETCHES SAME FILL-ORIGIN LEVEL: 0 DIFFERENT FILL-ORIGIN LEVEL: 0

PSCL4 SPEC fills:          0  NON-SPEC fills:          0
PSCL4 Test counter :          0
PSCL4 Leapfrog:          0
PSCL4 MSHR merge:          0
PSCL4 TOTAL     ACCESS:          0  HIT:          0  MISS:          0  HIT %:       -nan  MISS %:       -nan   MPKI: 0
PSCL4 PREFETCH  REQUESTED:          0  ISSUED:          0  USEFUL:          0  USELESS:          0
PSCL4 USEFUL LOAD PREFETCHES:          0 PREFETCH ISSUED TO LOWER LEVEL:          0  ACCURACY: -nan
PSCL4 TIMELY PREFETCHES:          0 LATE PREFETCHES: 0 DROPPED PREFETCHES: 0
PSCL4 COMMIT LATE PREFETCHES: 0 MISSED OPPORTUNITY: 0 LATE IN PQ: 0 UNCOVERED: 0
PSCL4 COMMIT LATE MSHR PREFETCHES: 0
PSCL4 MPKI TOTAL: 0 MSHR LATE: 0 PQ LATE: 0 COMMIT LATE: 0 MISSED OPPORTUNITY: 0 UNCOVERED: 0
PSCL4 PREFETCHES SAME FILL-ORIGIN LEVEL: 0 DIFFERENT FILL-ORIGIN LEVEL: 0

PSCL3 SPEC fills:          0  NON-SPEC fills:          0
PSCL3 Test counter :          0
PSCL3 Leapfrog:          0
PSCL3 MSHR merge:          0
PSCL3 TOTAL     ACCESS:          0  HIT:          0  MISS:          0  HIT %:       -nan  MISS %:       -nan   MPKI: 0
PSCL3 PREFETCH  REQUESTED:          0  ISSUED:          0  USEFUL:          0  USELESS:          0
PSCL3 USEFUL LOAD PREFETCHES:          0 PREFETCH ISSUED TO LOWER LEVEL:          0  ACCURACY: -nan
PSCL3 TIMELY PREFETCHES:          0 LATE PREFETCHES: 0 DROPPED PREFETCHES: 0
PSCL3 COMMIT LATE PREFETCHES: 0 MISSED OPPORTUNITY: 0 LATE IN PQ: 0 UNCOVERED: 0
PSCL3 COMMIT LATE MSHR PREFETCHES: 0
PSCL3 MPKI TOTAL: 0 MSHR LATE: 0 PQ LATE: 0 COMMIT LATE: 0 MISSED OPPORTUNITY: 0 UNCOVERED: 0
PSCL3 PREFETCHES SAME FILL-ORIGIN LEVEL: 0 DIFFERENT FILL-ORIGIN LEVEL: 0

PSCL2 SPEC fills:          0  NON-SPEC fills:          0
PSCL2 Test counter :          0
PSCL2 Leapfrog:          0
PSCL2 MSHR merge:          0
PSCL2 TOTAL     ACCESS:          0  HIT:          0  MISS:          0  HIT %:       -nan  MISS %:       -nan   MPKI: 0
PSCL2 PREFETCH  REQUESTED:          0  ISSUED:          0  USEFUL:          0  USELESS:          0
PSCL2 USEFUL LOAD PREFETCHES:          0 PREFETCH ISSUED TO LOWER LEVEL:          0  ACCURACY: -nan
PSCL2 TIMELY PREFETCHES:          0 LATE PREFETCHES: 0 DROPPED PREFETCHES: 0
PSCL2 COMMIT LATE PREFETCHES: 0 MISSED OPPORTUNITY: 0 LATE IN PQ: 0 UNCOVERED: 0
PSCL2 COMMIT LATE MSHR PREFETCHES: 0
PSCL2 MPKI TOTAL: 0 MSHR LATE: 0 PQ LATE: 0 COMMIT LATE: 0 MISSED OPPORTUNITY: 0 UNCOVERED: 0
PSCL2 PREFETCHES SAME FILL-ORIGIN LEVEL: 0 DIFFERENT FILL-ORIGIN LEVEL: 0

LLC SPEC fills:          0  NON-SPEC fills:      36216
LLC Test counter :    1098182
LLC Leapfrog:          0
LLC MSHR merge:          0
LLC TOTAL     ACCESS:    7794753  HIT:    2226814  MISS:    5567939  HIT %:    28.5681  MISS %:    71.4319   MPKI: 27.8397
LLC LOAD      TOTAL       ACCESS:     903919  HIT:      80656  MISS:     823263  HIT %:    8.92292  MISS %:    91.0771   MPKI: 4.11631
LLC LOAD      NON_SPEC    ACCESS:      39463  HIT:       3247  MISS:      36216  HIT %:    8.22796  MISS %:     91.772   MPKI: 0.18108
LLC LOAD      SPEC        ACCESS:     864456  HIT:      77409  MISS:     787047  HIT %:    8.95465  MISS %:    91.0454   MPKI: 3.93523
LLC RFO       NON_SPEC    ACCESS:        109  HIT:         68  MISS:         41  HIT %:    62.3853  MISS %:    37.6147   MPKI: 0.000205
LLC PREFETCH  NON_SPEC    ACCESS:    4372911  HIT:     499300  MISS:    3873611  HIT %:     11.418  MISS %:     88.582   MPKI: 19.3681
LLC WRITEBACK NON_SPEC    ACCESS:    1262431  HIT:    1262422  MISS:          9  HIT %:    99.9993  MISS %: 0.00071291   MPKI: 4.5e-05
LLC CLEAN_EVICTION NON_SPEC    ACCESS:    1137244  HIT:     363910  MISS:     773334  HIT %:    31.9993  MISS %:    68.0007   MPKI: 3.86667
LLC COMMIT LOAD NON_SPEC    ACCESS:      31752  HIT:       8971  MISS:      22781  HIT %:    28.2533  MISS %:    71.7467   MPKI: 0.113905
LLC LOAD TRANSLATION NON_SPEC    ACCESS:       2390  HIT:       1128  MISS:       1262  HIT %:    47.1967  MISS %:    52.8033   MPKI: 0.00631
LLC TRANSLATION FROM L1D PREFETCHER NON_SPEC    ACCESS:      83997  HIT:      10359  MISS:      73638  HIT %:    12.3326  MISS %:    87.6674   MPKI: 0.36819
LLC PREFETCH  REQUESTED:          0  ISSUED:          0  USEFUL:      32927  USELESS:    3916196
LLC USEFUL LOAD PREFETCHES:      32927 PREFETCH ISSUED TO LOWER LEVEL:    3873611  ACCURACY: 0.850034
LLC TIMELY PREFETCHES:      32927 LATE PREFETCHES: 0 DROPPED PREFETCHES: 0
LLC COMMIT LATE PREFETCHES: 0 MISSED OPPORTUNITY: 0 LATE IN PQ: 0 UNCOVERED: 0
LLC COMMIT LATE MSHR PREFETCHES: 0
LLC MPKI TOTAL: 4.11631 MSHR LATE: 0 PQ LATE: 0 COMMIT LATE: 0 MISSED OPPORTUNITY: 0 UNCOVERED: 0
LLC PREFETCHES SAME FILL-ORIGIN LEVEL: 0 DIFFERENT FILL-ORIGIN LEVEL: 0
LLC AVERAGE MISS LATENCY: 167.012 cycles
LLC AVERAGE MISS LATENCY LOAD: 167.192 cycles
LLC AVERAGE MISS LATENCY PREFETCH: 199.25 cycles
LLC AVERAGE MSHR OCCUPANCY: 2.10549
LLC MSHR FULL: 0
LLC RQ	ACCESS:    1022169	FORWARD:          0	MERGED:          0	TO_CACHE:    1022167
LLC WQ	ACCESS:    2399676	FORWARD:          2	MERGED:          0	TO_CACHE:    2399676
LLC PQ	ACCESS:    4372911	FORWARD:          0	MERGED:          0	TO_CACHE:    4372911

LLC Dense regions hint to LLC: 0

RAW hits: 427203
Loads Generated: 128041518
Loads sent to L1D: 127614307
Stores Generated: 12822620
Stores sent to L1D: 12822617
Major fault: 0 Minor fault: 641201
Allocated PAGES: 641201
Total Load insts: 159477951
Total Non-spec loads: 6781326
Percentage of speculative loads: 95.7478

LeapFrogging counter: 44038
Commit hits: 44698983 miss: 77462462
Commit hit %: 36.5901 miss %: 63.4099
Commits not translated: 0
Loads retired: 1768904
Stores retired: 12822617
Cache fills: 1768904
L1D response latency: 111.626 cycles
Load retirement latency: 383.508 cycles
OOO test counter: 0
Discarded buffer inserts: 44698983 hits: 22083 hit %: 0.0494038
Filter prediction accuracy: 99.9225
ALL MISSES SIZE: 64399
LATENCY_FILL: 110.112 1823218
LATENCY_FILL_ROB: 245.864 1819466
test counter pref: 10323242
Max ROB Extended: 31

DRAM Statistics
 CHANNEL 0
 RQ ROW_BUFFER_HIT:    1330151  ROW_BUFFER_MISS:    3463907
 DBUS_CONGESTED:      41106
 WQ ROW_BUFFER_HIT:     599297  ROW_BUFFER_MISS:    1761353  FULL:          0

 AVG_CONGESTED_CYCLE: 5
 All warmup complete: 2
Channel 0 Bank busy for read cycles: 0
Channel 0 Bank busy for write cycles: 0
Channel 0
Rank 0
0banks busy for read cycles: 854628
0banks busy for write cycles: 133
1banks busy for read cycles: 84889045
1banks busy for write cycles: 783460
2banks busy for read cycles: 61906336
2banks busy for write cycles: 805474
3banks busy for read cycles: 47772659
3banks busy for write cycles: 860875
4banks busy for read cycles: 29601558
4banks busy for write cycles: 924517
5banks busy for read cycles: 14401465
5banks busy for write cycles: 1160600
6banks busy for read cycles: 5707050
6banks busy for write cycles: 2671078
7banks busy for read cycles: 1791843
7banks busy for write cycles: 13264637
8banks busy for read cycles: 370250
8banks busy for write cycles: 59154133

CPU 0 Branch Prediction Accuracy: 99.9931% MPKI: 0.00083 Average ROB Occupancy at Mispredict: 337.958
Branch types
NOT_BRANCH: 197595958 98.798%
BRANCH_DIRECT_JUMP: 160245 0.0801225%
BRANCH_INDIRECT: 0 0%
BRANCH_CONDITIONAL: 2243766 1.12188%
BRANCH_DIRECT_CALL: 0 0%
BRANCH_INDIRECT_CALL: 0 0%
BRANCH_RETURN: 0 0%
BRANCH_OTHER: 0 0%

DRAM PAGES: 1048576
Allocated PAGES: 641201
