
*** ChampSim Multicore Out-of-Order Simulator ***

Warmup Instructions: 50000000
Simulation Instructions: 200000000
Number of CPUs: 1
LLC sets: 2048
LLC ways: 16
L0D sets: 16
L0D ways: 2
ROB size: 352
LQ size: 128
SQ size: 72
Secure Berti: OFF
Berti: OFF
Berti Fill: OFF
On commit prefetching: ON
Hit-based filter: OFF
Time-guarding: ON
Free-slotting: ON
Leap-frogging: ON
Train prefetcher on L0D bypass: OFF
No translation penalty for prefetchers: OFF
Prefetch to L0D only: OFF
Prefetch to L1D only: OFF
Clean evictions: ON
Commit loads: ON
Commit write: ON
Fill commit loads to L2C, LLC: ON
DRAM IO FREQUENCY: 6400
ROB SIZE: 352
Off-chip DRAM Size: 4096 MB Channels: 1 Width: 64-bit Data Rate: 6400 MT/s
CPU 0 runs /home/sumon/secure_berti/GhostMinion/../../traces/spec/603.bwaves_s-2609B.champsimtrace.xz
.xz
BTB has LRU replacement policy
ITLB has LRU replacement policy
DTLB has LRU replacement policy
STLB has LRU replacement policy
L1I has LRU replacement policy
L0D has LRU replacement policy
CPU 0 L1D IP-based stride prefetcher
CPU 0 L1D IP-based stride prefetcher
L1D has LRU replacement policy
L2C has LRU replacement policy
LLC has LRU replacement policy
Heartbeat CPU 0 instructions: 10000002 cycles: 3683567 heartbeat IPC: 2.71476 cumulative IPC: 2.71476 (Simulation time: 0 hr 1 min 11 sec) 
Heartbeat CPU 0 instructions: 20000003 cycles: 7366899 heartbeat IPC: 2.71493 cumulative IPC: 2.71485 (Simulation time: 0 hr 2 min 39 sec) 
Heartbeat CPU 0 instructions: 30000001 cycles: 11050336 heartbeat IPC: 2.71486 cumulative IPC: 2.71485 (Simulation time: 0 hr 3 min 52 sec) 
Heartbeat CPU 0 instructions: 40000002 cycles: 14734676 heartbeat IPC: 2.71419 cumulative IPC: 2.71468 (Simulation time: 0 hr 4 min 44 sec) 
Heartbeat CPU 0 instructions: 50000003 cycles: 18418262 heartbeat IPC: 2.71475 cumulative IPC: 2.7147 (Simulation time: 0 hr 5 min 36 sec) 

Warmup complete CPU 0 instructions: 50000003 cycles: 18418262 (Simulation time: 0 hr 5 min 36 sec) 

Heartbeat CPU 0 instructions: 60000000 cycles: 28217403 heartbeat IPC: 1.0205 cumulative IPC: 1.0205 (Simulation time: 0 hr 6 min 38 sec) 
Heartbeat CPU 0 instructions: 70000000 cycles: 38055047 heartbeat IPC: 1.0165 cumulative IPC: 1.0185 (Simulation time: 0 hr 7 min 39 sec) 
Heartbeat CPU 0 instructions: 80000003 cycles: 47889833 heartbeat IPC: 1.0168 cumulative IPC: 1.01793 (Simulation time: 0 hr 8 min 39 sec) 
Heartbeat CPU 0 instructions: 90000003 cycles: 57715670 heartbeat IPC: 1.01772 cumulative IPC: 1.01788 (Simulation time: 0 hr 9 min 38 sec) 
Heartbeat CPU 0 instructions: 100000001 cycles: 67564677 heartbeat IPC: 1.01533 cumulative IPC: 1.01737 (Simulation time: 0 hr 10 min 38 sec) 
Heartbeat CPU 0 instructions: 110000000 cycles: 77395244 heartbeat IPC: 1.01724 cumulative IPC: 1.01735 (Simulation time: 0 hr 11 min 39 sec) 
Heartbeat CPU 0 instructions: 120000000 cycles: 87211357 heartbeat IPC: 1.01873 cumulative IPC: 1.01754 (Simulation time: 0 hr 12 min 41 sec) 
Heartbeat CPU 0 instructions: 130000001 cycles: 97039701 heartbeat IPC: 1.01747 cumulative IPC: 1.01753 (Simulation time: 0 hr 13 min 40 sec) 
Heartbeat CPU 0 instructions: 140000000 cycles: 106868946 heartbeat IPC: 1.01737 cumulative IPC: 1.01752 (Simulation time: 0 hr 14 min 37 sec) 
Heartbeat CPU 0 instructions: 150000003 cycles: 116684613 heartbeat IPC: 1.01878 cumulative IPC: 1.01764 (Simulation time: 0 hr 15 min 34 sec) 
Heartbeat CPU 0 instructions: 160000000 cycles: 126532001 heartbeat IPC: 1.0155 cumulative IPC: 1.01745 (Simulation time: 0 hr 16 min 30 sec) 
Heartbeat CPU 0 instructions: 170000002 cycles: 136349642 heartbeat IPC: 1.01857 cumulative IPC: 1.01754 (Simulation time: 0 hr 17 min 50 sec) 
Heartbeat CPU 0 instructions: 180000001 cycles: 146176647 heartbeat IPC: 1.0176 cumulative IPC: 1.01755 (Simulation time: 0 hr 19 min 19 sec) 
Heartbeat CPU 0 instructions: 190000000 cycles: 156014258 heartbeat IPC: 1.01651 cumulative IPC: 1.01747 (Simulation time: 0 hr 20 min 48 sec) 
Heartbeat CPU 0 instructions: 200000001 cycles: 165829165 heartbeat IPC: 1.01886 cumulative IPC: 1.01756 (Simulation time: 0 hr 22 min 13 sec) 
Heartbeat CPU 0 instructions: 210000003 cycles: 175649192 heartbeat IPC: 1.01833 cumulative IPC: 1.01761 (Simulation time: 0 hr 23 min 6 sec) 
Heartbeat CPU 0 instructions: 220000000 cycles: 185455885 heartbeat IPC: 1.01971 cumulative IPC: 1.01773 (Simulation time: 0 hr 23 min 59 sec) 
Heartbeat CPU 0 instructions: 230000002 cycles: 195269126 heartbeat IPC: 1.01903 cumulative IPC: 1.01781 (Simulation time: 0 hr 24 min 51 sec) 
Heartbeat CPU 0 instructions: 240000000 cycles: 205099632 heartbeat IPC: 1.01724 cumulative IPC: 1.01778 (Simulation time: 0 hr 25 min 43 sec) 
Heartbeat CPU 0 instructions: 250000002 cycles: 214918529 heartbeat IPC: 1.01844 cumulative IPC: 1.01781 (Simulation time: 0 hr 26 min 35 sec) 
Finished CPU 0 instructions: 200000003 cycles: 196500272 cumulative IPC: 1.01781 (Simulation time: 0 hr 26 min 35 sec) 
 Instruction ID: 250000052

ChampSim completed all CPUs

Region of Interest Statistics

CPU 0 cumulative IPC: 1.01781 instructions: 200000003 cycles: 196500272
ITLB SPEC fills:          0  NON-SPEC fills:          0
ITLB Test counter :          0
ITLB Leapfrog:          0
ITLB MSHR merge:          0
ITLB TOTAL     ACCESS:   25358210  HIT:   25358210  MISS:          0  HIT %:        100  MISS %:          0   MPKI: 0
ITLB LOAD TRANSLATION NON_SPEC    ACCESS:   25358210  HIT:   25358210  MISS:          0  HIT %:        100  MISS %:          0   MPKI: 0
ITLB PREFETCH  REQUESTED:          0  ISSUED:          0  USEFUL:          0  USELESS:          0
ITLB USEFUL LOAD PREFETCHES:          0 PREFETCH ISSUED TO LOWER LEVEL:          0  ACCURACY: -nan
ITLB TIMELY PREFETCHES:          0 LATE PREFETCHES: 0 DROPPED PREFETCHES: 0
ITLB COMMIT LATE PREFETCHES: 0 NORMAL LATE: 0 MISSED OPPORTUNITY: 0 UNCOVERED: 0
ITLB PREFETCHES SAME FILL-ORIGIN LEVEL: 0 DIFFERENT FILL-ORIGIN LEVEL: 0
ITLB AVERAGE MISS LATENCY: -nan cycles
ITLB AVERAGE MISS LATENCY LOAD: -nan cycles
ITLB AVERAGE MISS LATENCY PREFETCH: -nan cycles
ITLB AVERAGE MSHR OCCUPANCY: 0
ITLB MSHR FULL: 0
ITLB RQ	ACCESS:   34400840	FORWARD:          0	MERGED:    9042630	TO_CACHE:   25358210

DTLB SPEC fills:          0  NON-SPEC fills:          0
DTLB Test counter :          0
DTLB Leapfrog:          0
DTLB MSHR merge:          0
DTLB TOTAL     ACCESS:   74064040  HIT:   73923448  MISS:     140592  HIT %:    99.8102  MISS %:   0.189825   MPKI: 0.70296
DTLB LOAD TRANSLATION NON_SPEC    ACCESS:   74064040  HIT:   73923448  MISS:     140592  HIT %:    99.8102  MISS %:   0.189825   MPKI: 0.70296
DTLB PREFETCH  REQUESTED:          0  ISSUED:          0  USEFUL:          0  USELESS:          0
DTLB USEFUL LOAD PREFETCHES:          0 PREFETCH ISSUED TO LOWER LEVEL:          0  ACCURACY: -nan
DTLB TIMELY PREFETCHES:          0 LATE PREFETCHES: 0 DROPPED PREFETCHES: 0
DTLB COMMIT LATE PREFETCHES: 0 NORMAL LATE: 0 MISSED OPPORTUNITY: 0 UNCOVERED: 0
DTLB PREFETCHES SAME FILL-ORIGIN LEVEL: 0 DIFFERENT FILL-ORIGIN LEVEL: 0
DTLB AVERAGE MISS LATENCY: 285.582 cycles
DTLB AVERAGE MISS LATENCY LOAD: -nan cycles
DTLB AVERAGE MISS LATENCY PREFETCH: -nan cycles
DTLB AVERAGE MSHR OCCUPANCY: 0.021462
DTLB MSHR FULL: 7.234e-06
DTLB RQ	ACCESS:   86542061	FORWARD:          0	MERGED:   12447523	TO_CACHE:   74094538

STLB SPEC fills:          0  NON-SPEC fills:          0
STLB Test counter :          0
STLB Leapfrog:          0
STLB MSHR merge:          0
STLB TOTAL     ACCESS:    9772022  HIT:    9712640  MISS:      59382  HIT %:    99.3923  MISS %:   0.607674   MPKI: 0.29691
STLB LOAD TRANSLATION NON_SPEC    ACCESS:     140592  HIT:      81210  MISS:      59382  HIT %:    57.7629  MISS %:    42.2371   MPKI: 0.29691
STLB TRANSLATION FROM L1D PREFETCHER NON_SPEC    ACCESS:    9631430  HIT:    9631430  MISS:          0  HIT %:        100  MISS %:          0   MPKI: 0
STLB PREFETCH  REQUESTED:          0  ISSUED:          0  USEFUL:          0  USELESS:          0
STLB USEFUL LOAD PREFETCHES:          0 PREFETCH ISSUED TO LOWER LEVEL:          0  ACCURACY: -nan
STLB TIMELY PREFETCHES:          0 LATE PREFETCHES: 0 DROPPED PREFETCHES: 0
STLB COMMIT LATE PREFETCHES: 0 NORMAL LATE: 0 MISSED OPPORTUNITY: 0 UNCOVERED: 0
STLB PREFETCHES SAME FILL-ORIGIN LEVEL: 0 DIFFERENT FILL-ORIGIN LEVEL: 0
STLB AVERAGE MISS LATENCY: 654.38 cycles
STLB AVERAGE MISS LATENCY LOAD: -nan cycles
STLB AVERAGE MISS LATENCY PREFETCH: -nan cycles
STLB AVERAGE MSHR OCCUPANCY: 0.0315236
STLB MSHR FULL: 0
STLB RQ	ACCESS:   27403370	FORWARD:          0	MERGED:   17631348	TO_CACHE:    9772022

STLB Hit, L1D data hit: 0
STLB Hit, L2C data hit: 0
STLB Hit, LLC data hit: 0
STLB Hit, LLC data miss: 0
STLB STLB hints to L2: 0
L0D SPEC fills:   48728996  NON-SPEC fills:          0
L0D TimeGuard Request with older TS:    1590741 Restricted eviction:   12252354 read:     159622
L0D Test counter :          0
L0D Leapfrog:          0
L0D MSHR merge:    2246079
L0D TOTAL     ACCESS:   73029186  HIT:    6462195  MISS:   66566991  HIT %:    8.84878  MISS %:    91.1512   MPKI: 332.835
L0D LOAD      TOTAL       ACCESS:   73029186  HIT:    6462195  MISS:   66566991  HIT %:    8.84878  MISS %:    91.1512   MPKI: 332.835
L0D LOAD      NON_SPEC    ACCESS:    5919771  HIT:     332029  MISS:    5587742  HIT %:    5.60881  MISS %:    94.3912   MPKI: 27.9387
L0D LOAD      SPEC        ACCESS:   67109415  HIT:    6130166  MISS:   60979249  HIT %:    9.13458  MISS %:    90.8654   MPKI: 304.896
L0D PREFETCH  REQUESTED:          0  ISSUED:          0  USEFUL:          0  USELESS:          0
L0D USEFUL LOAD PREFETCHES:          0 PREFETCH ISSUED TO LOWER LEVEL:          0  ACCURACY: -nan
L0D TIMELY PREFETCHES:          0 LATE PREFETCHES: 0 DROPPED PREFETCHES: 0
L0D COMMIT LATE PREFETCHES: 0 NORMAL LATE: 0 MISSED OPPORTUNITY: 0 UNCOVERED: 0
L0D PREFETCHES SAME FILL-ORIGIN LEVEL: 0 DIFFERENT FILL-ORIGIN LEVEL: 0
L0D AVERAGE MISS LATENCY: 5.67366 cycles
L0D AVERAGE MISS LATENCY LOAD: 5.67366 cycles
L0D AVERAGE MISS LATENCY PREFETCH: -nan cycles
L0D AVERAGE MSHR OCCUPANCY: 1.68869
L0D MSHR FULL: 0.00156947
L0D RQ	ACCESS:   85449138	FORWARD:          0	MERGED:   10173892	TO_CACHE:   75275246
L0D WQ	ACCESS:   11266815	FORWARD:          0	MERGED:          0	TO_CACHE:   11266815

L1D SPEC fills:          0  NON-SPEC fills:       5118
L1D Test counter :          0
L1D Leapfrog:          0
L1D MSHR merge:     120678
L1D TOTAL     ACCESS:  167636661  HIT:  163357460  MISS:    4279201  HIT %:    97.4473  MISS %:    2.55266   MPKI: 21.396
L1D LOAD      TOTAL       ACCESS:   66559640  HIT:   66276193  MISS:     283447  HIT %:    99.5741  MISS %:   0.425854   MPKI: 1.41723
L1D LOAD      NON_SPEC    ACCESS:    5587677  HIT:    5582559  MISS:       5118  HIT %:    99.9084  MISS %:  0.0915944   MPKI: 0.02559
L1D LOAD      SPEC        ACCESS:   60971963  HIT:   60693634  MISS:     278329  HIT %:    99.5435  MISS %:   0.456487   MPKI: 1.39164
L1D RFO       NON_SPEC    ACCESS:   10829889  HIT:   10825743  MISS:       4146  HIT %:    99.9617  MISS %:  0.0382829   MPKI: 0.02073
L1D PREFETCH  NON_SPEC    ACCESS:   18861790  HIT:   15123776  MISS:    3738014  HIT %:    80.1821  MISS %:    19.8179   MPKI: 18.6901
L1D COMMIT LOAD NON_SPEC    ACCESS:   23982670  HIT:   23946637  MISS:      36033  HIT %:    99.8498  MISS %:   0.150246   MPKI: 0.180165
L1D COMMIT WRITE NON_SPEC    ACCESS:   47402672  HIT:   47185111  MISS:     217561  HIT %:     99.541  MISS %:   0.458964   MPKI: 1.0878
L1D PREFETCH  REQUESTED:   29894271  ISSUED:   27458162  USEFUL:    3643468  USELESS:      94573
L1D USEFUL LOAD PREFETCHES:    3643468 PREFETCH ISSUED TO LOWER LEVEL:    6861018  ACCURACY: 53.1039
L1D TIMELY PREFETCHES:    3643468 LATE PREFETCHES: 119613 DROPPED PREFETCHES: 0
L1D COMMIT LATE PREFETCHES: 51292 NORMAL LATE: 95794 MISSED OPPORTUNITY: 172 UNCOVERED: 142697
L1D PREFETCHES SAME FILL-ORIGIN LEVEL: 3857636 DIFFERENT FILL-ORIGIN LEVEL: 3003382
L1D AVERAGE MISS LATENCY: 252.102 cycles
L1D AVERAGE MISS LATENCY LOAD: 123.561 cycles
L1D AVERAGE MISS LATENCY PREFETCH: 278.626 cycles
L1D AVERAGE MSHR OCCUPANCY: 5.92477
L1D MSHR FULL: 0.00503751
L1D RQ	ACCESS:   98616826	FORWARD:          0	MERGED:    8060743	TO_CACHE:   90556036
L1D WQ	ACCESS:   58669593	FORWARD:         47	MERGED:     434063	TO_CACHE:   58235530
L1D PQ	ACCESS:   27458162	FORWARD:          0	MERGED:     195384	TO_CACHE:   27262778

L1D UNIQUE REGIONS ACCESSED: 0
L1D REGIONS CONFLICTS: 0
L1D Cross Page Prefetch Requests: 0
L1D Same Page Prefetch Requests: 32130875
L1D ROI Sum of L1D PQ occupancy: 431797076
L1D PREFETCHES PUSHED FROM L2C: 0
L1I SPEC fills:          0  NON-SPEC fills:          0
L1I Test counter :          0
L1I Leapfrog:          0
L1I MSHR merge:          0
L1I TOTAL     ACCESS:   34400839  HIT:   34400839  MISS:          0  HIT %:        100  MISS %:          0   MPKI: 0
L1I LOAD      TOTAL       ACCESS:   34400839  HIT:   34400839  MISS:          0  HIT %:        100  MISS %:          0   MPKI: 0
L1I LOAD      NON_SPEC    ACCESS:   34400839  HIT:   34400839  MISS:          0  HIT %:        100  MISS %:          0   MPKI: 0
L1I PREFETCH  REQUESTED:          0  ISSUED:          0  USEFUL:          0  USELESS:          0
L1I USEFUL LOAD PREFETCHES:          0 PREFETCH ISSUED TO LOWER LEVEL:          0  ACCURACY: -nan
L1I TIMELY PREFETCHES:          0 LATE PREFETCHES: 0 DROPPED PREFETCHES: 0
L1I COMMIT LATE PREFETCHES: 0 NORMAL LATE: 0 MISSED OPPORTUNITY: 0 UNCOVERED: 0
L1I PREFETCHES SAME FILL-ORIGIN LEVEL: 0 DIFFERENT FILL-ORIGIN LEVEL: 0
L1I AVERAGE MISS LATENCY: -nan cycles
L1I AVERAGE MISS LATENCY LOAD: -nan cycles
L1I AVERAGE MISS LATENCY PREFETCH: -nan cycles
L1I AVERAGE MSHR OCCUPANCY: 0
L1I MSHR FULL: 0
L1I RQ	ACCESS:   45825780	FORWARD:          0	MERGED:   11424940	TO_CACHE:   34400840

BTB SPEC fills:          0  NON-SPEC fills:          0
BTB Test counter :          0
BTB Leapfrog:          0
BTB MSHR merge:          0
BTB TOTAL     ACCESS:    4834901  HIT:    4834896  MISS:          5  HIT %:    99.9999  MISS %: 0.000103415   MPKI: 2.5e-05
BTB BRANCH_DIRECT_JUMP	ACCESS:          0  HIT:          0  MISS:          0
BTB BRANCH_INDIRECT	ACCESS:          0  HIT:          0  MISS:          0
BTB BRANCH_CONDITIONAL	ACCESS:    4834901  HIT:    4834896  MISS:          5
BTB BRANCH_DIRECT_CALL	ACCESS:          0  HIT:          0  MISS:          0
BTB BRANCH_INDIRECT_CALL	ACCESS:          0  HIT:          0  MISS:          0
BTB BRANCH_RETURN	ACCESS:          0  HIT:          0  MISS:          0
BTB BRANCH_OTHER ACCESS:          0  HIT:          0  MISS:          0

L2C SPEC fills:          0  NON-SPEC fills:       1059
L2C Test counter :          0
L2C Leapfrog:          0
L2C MSHR merge:       1690
L2C TOTAL     ACCESS:    8449040  HIT:    4541758  MISS:    3907282  HIT %:    53.7547  MISS %:    46.2453   MPKI: 19.5364
L2C LOAD      TOTAL       ACCESS:     170119  HIT:      69742  MISS:     100377  HIT %:     40.996  MISS %:     59.004   MPKI: 0.501885
L2C LOAD      NON_SPEC    ACCESS:       4646  HIT:       3587  MISS:       1059  HIT %:    77.2062  MISS %:    22.7938   MPKI: 0.005295
L2C LOAD      SPEC        ACCESS:     165473  HIT:      66155  MISS:      99318  HIT %:    39.9793  MISS %:    60.0207   MPKI: 0.49659
L2C RFO       NON_SPEC    ACCESS:       4146  HIT:       2623  MISS:       1523  HIT %:    63.2658  MISS %:    36.7342   MPKI: 0.007615
L2C PREFETCH  NON_SPEC    ACCESS:    4846279  HIT:    1125803  MISS:    3720476  HIT %:    23.2303  MISS %:    76.7697   MPKI: 18.6024
L2C WRITEBACK NON_SPEC    ACCESS:      97467  HIT:      97467  MISS:          0  HIT %:        100  MISS %:          0   MPKI: 0
L2C CLEAN_EVICTION NON_SPEC    ACCESS:    3004482  HIT:    2933906  MISS:      70576  HIT %:     97.651  MISS %:    2.34902   MPKI: 0.35288
L2C COMMIT LOAD NON_SPEC    ACCESS:      29748  HIT:      22855  MISS:       6893  HIT %:    76.8287  MISS %:    23.1713   MPKI: 0.034465
L2C LOAD TRANSLATION NON_SPEC    ACCESS:     296799  HIT:     289362  MISS:       7437  HIT %:    97.4943  MISS %:    2.50574   MPKI: 0.037185
L2C PREFETCH  REQUESTED:          0  ISSUED:          0  USEFUL:      84072  USELESS:    3635969
L2C USEFUL LOAD PREFETCHES:      84072 PREFETCH ISSUED TO LOWER LEVEL:    3722913  ACCURACY: 2.25823
L2C TIMELY PREFETCHES:      84072 LATE PREFETCHES: 2422 DROPPED PREFETCHES: 0
L2C COMMIT LATE PREFETCHES: 0 NORMAL LATE: 2422 MISSED OPPORTUNITY: 0 UNCOVERED: 98687
L2C PREFETCHES SAME FILL-ORIGIN LEVEL: 1639182 DIFFERENT FILL-ORIGIN LEVEL: 0
L2C AVERAGE MISS LATENCY: 407.642 cycles
L2C AVERAGE MISS LATENCY LOAD: 182.158 cycles
L2C AVERAGE MISS LATENCY PREFETCH: 422.271 cycles
L2C AVERAGE MSHR OCCUPANCY: 4.74087
L2C MSHR FULL: 0
L2C RQ	ACCESS:     500812	FORWARD:          0	MERGED:          0	TO_CACHE:     500812
L2C WQ	ACCESS:    3101960	FORWARD:          0	MERGED:         11	TO_CACHE:    3101949
L2C PQ	ACCESS:    6861018	FORWARD:          0	MERGED:          0	TO_CACHE:    6861018

L2C Instructions Evicting Data 0
L2C Translations Evicting Data 7434
L2C Data Evicting Data 3722664
L2C Instructions Evicting Instructions 0
L2C Translations Evicting Instructions 0
L2C Data Evicting Instructions 0
L2C Instructions Evicting Translations 0
L2C Translations Evicting Translations 3
L2C Data Evicting Translations 7287
L2C Dense regions hint from L2: 0
PSCL5 SPEC fills:          0  NON-SPEC fills:          0
PSCL5 Test counter :          0
PSCL5 Leapfrog:          0
PSCL5 MSHR merge:          0
PSCL5 TOTAL     ACCESS:          0  HIT:          0  MISS:          0  HIT %:       -nan  MISS %:       -nan   MPKI: 0
PSCL5 PREFETCH  REQUESTED:          0  ISSUED:          0  USEFUL:          0  USELESS:          0
PSCL5 USEFUL LOAD PREFETCHES:          0 PREFETCH ISSUED TO LOWER LEVEL:          0  ACCURACY: -nan
PSCL5 TIMELY PREFETCHES:          0 LATE PREFETCHES: 0 DROPPED PREFETCHES: 0
PSCL5 COMMIT LATE PREFETCHES: 0 NORMAL LATE: 0 MISSED OPPORTUNITY: 0 UNCOVERED: 0
PSCL5 PREFETCHES SAME FILL-ORIGIN LEVEL: 0 DIFFERENT FILL-ORIGIN LEVEL: 0

PSCL4 SPEC fills:          0  NON-SPEC fills:          0
PSCL4 Test counter :          0
PSCL4 Leapfrog:          0
PSCL4 MSHR merge:          0
PSCL4 TOTAL     ACCESS:          0  HIT:          0  MISS:          0  HIT %:       -nan  MISS %:       -nan   MPKI: 0
PSCL4 PREFETCH  REQUESTED:          0  ISSUED:          0  USEFUL:          0  USELESS:          0
PSCL4 USEFUL LOAD PREFETCHES:          0 PREFETCH ISSUED TO LOWER LEVEL:          0  ACCURACY: -nan
PSCL4 TIMELY PREFETCHES:          0 LATE PREFETCHES: 0 DROPPED PREFETCHES: 0
PSCL4 COMMIT LATE PREFETCHES: 0 NORMAL LATE: 0 MISSED OPPORTUNITY: 0 UNCOVERED: 0
PSCL4 PREFETCHES SAME FILL-ORIGIN LEVEL: 0 DIFFERENT FILL-ORIGIN LEVEL: 0

PSCL3 SPEC fills:          0  NON-SPEC fills:          0
PSCL3 Test counter :          0
PSCL3 Leapfrog:          0
PSCL3 MSHR merge:          0
PSCL3 TOTAL     ACCESS:          0  HIT:          0  MISS:          0  HIT %:       -nan  MISS %:       -nan   MPKI: 0
PSCL3 PREFETCH  REQUESTED:          0  ISSUED:          0  USEFUL:          0  USELESS:          0
PSCL3 USEFUL LOAD PREFETCHES:          0 PREFETCH ISSUED TO LOWER LEVEL:          0  ACCURACY: -nan
PSCL3 TIMELY PREFETCHES:          0 LATE PREFETCHES: 0 DROPPED PREFETCHES: 0
PSCL3 COMMIT LATE PREFETCHES: 0 NORMAL LATE: 0 MISSED OPPORTUNITY: 0 UNCOVERED: 0
PSCL3 PREFETCHES SAME FILL-ORIGIN LEVEL: 0 DIFFERENT FILL-ORIGIN LEVEL: 0

PSCL2 SPEC fills:          0  NON-SPEC fills:          0
PSCL2 Test counter :          0
PSCL2 Leapfrog:          0
PSCL2 MSHR merge:          0
PSCL2 TOTAL     ACCESS:          0  HIT:          0  MISS:          0  HIT %:       -nan  MISS %:       -nan   MPKI: 0
PSCL2 PREFETCH  REQUESTED:          0  ISSUED:          0  USEFUL:          0  USELESS:          0
PSCL2 USEFUL LOAD PREFETCHES:          0 PREFETCH ISSUED TO LOWER LEVEL:          0  ACCURACY: -nan
PSCL2 TIMELY PREFETCHES:          0 LATE PREFETCHES: 0 DROPPED PREFETCHES: 0
PSCL2 COMMIT LATE PREFETCHES: 0 NORMAL LATE: 0 MISSED OPPORTUNITY: 0 UNCOVERED: 0
PSCL2 PREFETCHES SAME FILL-ORIGIN LEVEL: 0 DIFFERENT FILL-ORIGIN LEVEL: 0

LLC SPEC fills:          0  NON-SPEC fills:       1054
LLC Test counter :          0
LLC Leapfrog:          0
LLC MSHR merge:          0
LLC TOTAL     ACCESS:    6739215  HIT:    2833533  MISS:    3905682  HIT %:    42.0454  MISS %:    57.9546   MPKI: 19.5284
LLC LOAD      TOTAL       ACCESS:      98687  HIT:          1  MISS:      98686  HIT %:  0.0010133  MISS %:     99.999   MPKI: 0.49343
LLC LOAD      NON_SPEC    ACCESS:       1054  HIT:          0  MISS:       1054  HIT %:          0  MISS %:        100   MPKI: 0.00527
LLC LOAD      SPEC        ACCESS:      97633  HIT:          1  MISS:      97632  HIT %: 0.00102424  MISS %:     99.999   MPKI: 0.48816
LLC RFO       NON_SPEC    ACCESS:       1523  HIT:          0  MISS:       1523  HIT %:          0  MISS %:        100   MPKI: 0.007615
LLC PREFETCH  NON_SPEC    ACCESS:    3722898  HIT:        368  MISS:    3722530  HIT %: 0.00988477  MISS %:    99.9901   MPKI: 18.6126
LLC WRITEBACK NON_SPEC    ACCESS:      97483  HIT:      97483  MISS:          0  HIT %:        100  MISS %:          0   MPKI: 0
LLC CLEAN_EVICTION NON_SPEC    ACCESS:    2805026  HIT:    2735307  MISS:      69719  HIT %:    97.5145  MISS %:     2.4855   MPKI: 0.348595
LLC COMMIT LOAD NON_SPEC    ACCESS:       6161  HIT:        374  MISS:       5787  HIT %:    6.07044  MISS %:    93.9296   MPKI: 0.028935
LLC LOAD TRANSLATION NON_SPEC    ACCESS:       7437  HIT:          0  MISS:       7437  HIT %:          0  MISS %:        100   MPKI: 0.037185
LLC PREFETCH  REQUESTED:          0  ISSUED:          0  USEFUL:        374  USELESS:    3720580
LLC USEFUL LOAD PREFETCHES:        374 PREFETCH ISSUED TO LOWER LEVEL:    3722545  ACCURACY: 0.0100469
LLC TIMELY PREFETCHES:        374 LATE PREFETCHES: 0 DROPPED PREFETCHES: 0
LLC COMMIT LATE PREFETCHES: 0 NORMAL LATE: 0 MISSED OPPORTUNITY: 0 UNCOVERED: 0
LLC PREFETCHES SAME FILL-ORIGIN LEVEL: 0 DIFFERENT FILL-ORIGIN LEVEL: 0
LLC AVERAGE MISS LATENCY: 377.655 cycles
LLC AVERAGE MISS LATENCY LOAD: 139.89 cycles
LLC AVERAGE MISS LATENCY PREFETCH: 391.745 cycles
LLC AVERAGE MSHR OCCUPANCY: 3.26603
LLC MSHR FULL: 0
LLC RQ	ACCESS:     113808	FORWARD:          0	MERGED:          0	TO_CACHE:     113808
LLC WQ	ACCESS:    2902509	FORWARD:          0	MERGED:          0	TO_CACHE:    2902509
LLC PQ	ACCESS:    3722913	FORWARD:          0	MERGED:          0	TO_CACHE:    3722913

LLC Dense regions hint to LLC: 0

RAW hits: 511057
Loads Generated: 85960196
Loads sent to L1D: 85449138
Stores Generated: 11266823
Stores sent to L1D: 11266815
Major fault: 0 Minor fault: 70872
Allocated PAGES: 70872
Total Load insts: 106159929
Total Non-spec loads: 6411411
Percentage of speculative loads: 93.9606

LeapFrogging counter: 57663
Commit hits: 47402792 miss: 32049842
Commit hit %: 59.6617 miss %: 40.3383
Commits not translated: 0
Loads retired: 283447
Stores retired: 11266815
Cache fills: 283447
L1D response latency: 123.561 cycles
Load retirement latency: 418.14 cycles
OOO test counter: 0
Discarded buffer inserts: 47402792 hits: 228 hit %: 0.000480984
Filter prediction accuracy: -nan
Speculative prefetch buffer size: 0
CPU 0 L1D PC-based stride prefetcher final stats
Degree: 3
CPU 0 L1D PC-based stride prefetcher final stats
Degree: 3

DRAM Statistics
 CHANNEL 0
 RQ ROW_BUFFER_HIT:    2456468  ROW_BUFFER_MISS:    1379495
 DBUS_CONGESTED:       6542
 WQ ROW_BUFFER_HIT:    1120175  ROW_BUFFER_MISS:    1780170  FULL:          0

 AVG_CONGESTED_CYCLE: 5
 All warmup complete: 2
Channel 0 Bank busy for read cycles: 0
Channel 0 Bank busy for write cycles: 0
Channel 0
Rank 0
0banks busy for read cycles: 926848
0banks busy for write cycles: 4066
1banks busy for read cycles: 33410783
1banks busy for write cycles: 809495
2banks busy for read cycles: 27306612
2banks busy for write cycles: 955861
3banks busy for read cycles: 51124337
3banks busy for write cycles: 1849120
4banks busy for read cycles: 16660972
4banks busy for write cycles: 2650331
5banks busy for read cycles: 4419282
5banks busy for write cycles: 3306697
6banks busy for read cycles: 1627286
6banks busy for write cycles: 4637905
7banks busy for read cycles: 542297
7banks busy for write cycles: 8467367
8banks busy for read cycles: 29863
8banks busy for write cycles: 37771151

CPU 0 Branch Prediction Accuracy: 99.9706% MPKI: 0.00733 Average ROB Occupancy at Mispredict: 38.5164
Branch types
NOT_BRANCH: 195007396 97.5037%
BRANCH_DIRECT_JUMP: 0 0%
BRANCH_INDIRECT: 0 0%
BRANCH_CONDITIONAL: 4992275 2.49614%
BRANCH_DIRECT_CALL: 0 0%
BRANCH_INDIRECT_CALL: 0 0%
BRANCH_RETURN: 0 0%
BRANCH_OTHER: 0 0%

DRAM PAGES: 1048576
Allocated PAGES: 70872
