
*** ChampSim Multicore Out-of-Order Simulator ***

Warmup Instructions: 50000000
Simulation Instructions: 200000000
Number of CPUs: 1
LLC sets: 2048
LLC ways: 16
L0D sets: 16
L0D ways: 2
ROB size: 352
LQ size: 128
SQ size: 72
Secure Berti: OFF
Berti: OFF
Berti Fill: OFF
On commit prefetching: ON
Hit-based filter: OFF
Time-guarding: ON
Free-slotting: ON
Leap-frogging: ON
Train prefetcher on L0D bypass: OFF
No translation penalty for prefetchers: OFF
Prefetch to L0D only: OFF
Prefetch to L1D only: OFF
Clean evictions: ON
Commit loads: ON
Commit write: ON
Fill commit loads to L2C, LLC: ON
DRAM IO FREQUENCY: 6400
ROB SIZE: 352
Off-chip DRAM Size: 4096 MB Channels: 1 Width: 64-bit Data Rate: 6400 MT/s
CPU 0 runs /home/sumon/secure_berti/GhostMinion/../../traces/spec/603.bwaves_s-891B.champsimtrace.xz
.xz
BTB has LRU replacement policy
ITLB has LRU replacement policy
DTLB has LRU replacement policy
STLB has LRU replacement policy
L1I has LRU replacement policy
L0D has LRU replacement policy
CPU 0 L1D IP-based stride prefetcher
CPU 0 L1D IP-based stride prefetcher
L1D has LRU replacement policy
L2C has LRU replacement policy
LLC has LRU replacement policy
Heartbeat CPU 0 instructions: 10000003 cycles: 2770239 heartbeat IPC: 3.6098 cumulative IPC: 3.6098 (Simulation time: 0 hr 0 min 58 sec) 
Heartbeat CPU 0 instructions: 20000003 cycles: 5540506 heartbeat IPC: 3.60976 cumulative IPC: 3.60978 (Simulation time: 0 hr 1 min 59 sec) 
Heartbeat CPU 0 instructions: 30000003 cycles: 8310968 heartbeat IPC: 3.60951 cumulative IPC: 3.60969 (Simulation time: 0 hr 3 min 1 sec) 
Heartbeat CPU 0 instructions: 40000000 cycles: 11081111 heartbeat IPC: 3.60992 cumulative IPC: 3.60975 (Simulation time: 0 hr 4 min 5 sec) 
Heartbeat CPU 0 instructions: 50000002 cycles: 14013910 heartbeat IPC: 3.40971 cumulative IPC: 3.56788 (Simulation time: 0 hr 4 min 52 sec) 

Warmup complete CPU 0 instructions: 50000002 cycles: 14013910 (Simulation time: 0 hr 4 min 52 sec) 

Heartbeat CPU 0 instructions: 60000003 cycles: 28370538 heartbeat IPC: 0.696542 cumulative IPC: 0.696542 (Simulation time: 0 hr 6 min 5 sec) 
Heartbeat CPU 0 instructions: 70000001 cycles: 42708652 heartbeat IPC: 0.697442 cumulative IPC: 0.696992 (Simulation time: 0 hr 7 min 19 sec) 
Heartbeat CPU 0 instructions: 80000002 cycles: 57054658 heartbeat IPC: 0.697058 cumulative IPC: 0.697014 (Simulation time: 0 hr 8 min 33 sec) 
Heartbeat CPU 0 instructions: 90000001 cycles: 71402519 heartbeat IPC: 0.696968 cumulative IPC: 0.697002 (Simulation time: 0 hr 9 min 44 sec) 
Heartbeat CPU 0 instructions: 100000002 cycles: 85759100 heartbeat IPC: 0.696545 cumulative IPC: 0.696911 (Simulation time: 0 hr 10 min 57 sec) 
Heartbeat CPU 0 instructions: 110000000 cycles: 100105716 heartbeat IPC: 0.697028 cumulative IPC: 0.69693 (Simulation time: 0 hr 12 min 9 sec) 
Heartbeat CPU 0 instructions: 120000001 cycles: 114455336 heartbeat IPC: 0.696883 cumulative IPC: 0.696924 (Simulation time: 0 hr 13 min 22 sec) 
Heartbeat CPU 0 instructions: 130000000 cycles: 128812124 heartbeat IPC: 0.696535 cumulative IPC: 0.696875 (Simulation time: 0 hr 14 min 34 sec) 
Heartbeat CPU 0 instructions: 140000001 cycles: 143169079 heartbeat IPC: 0.696527 cumulative IPC: 0.696836 (Simulation time: 0 hr 15 min 46 sec) 
Heartbeat CPU 0 instructions: 150000001 cycles: 157513457 heartbeat IPC: 0.697137 cumulative IPC: 0.696866 (Simulation time: 0 hr 17 min 0 sec) 
Heartbeat CPU 0 instructions: 160000002 cycles: 171861454 heartbeat IPC: 0.696961 cumulative IPC: 0.696875 (Simulation time: 0 hr 18 min 13 sec) 
Heartbeat CPU 0 instructions: 170000000 cycles: 186259758 heartbeat IPC: 0.694526 cumulative IPC: 0.696679 (Simulation time: 0 hr 19 min 26 sec) 
Heartbeat CPU 0 instructions: 180000002 cycles: 200734997 heartbeat IPC: 0.690835 cumulative IPC: 0.696226 (Simulation time: 0 hr 20 min 31 sec) 
Heartbeat CPU 0 instructions: 190000002 cycles: 218124984 heartbeat IPC: 0.575044 cumulative IPC: 0.685901 (Simulation time: 0 hr 21 min 41 sec) 
Heartbeat CPU 0 instructions: 200000002 cycles: 238701668 heartbeat IPC: 0.485987 cumulative IPC: 0.667593 (Simulation time: 0 hr 22 min 59 sec) 
Heartbeat CPU 0 instructions: 210000002 cycles: 259265899 heartbeat IPC: 0.486281 cumulative IPC: 0.65239 (Simulation time: 0 hr 24 min 16 sec) 
Heartbeat CPU 0 instructions: 220000000 cycles: 279814316 heartbeat IPC: 0.486655 cumulative IPC: 0.639578 (Simulation time: 0 hr 25 min 34 sec) 
Heartbeat CPU 0 instructions: 230000000 cycles: 300395599 heartbeat IPC: 0.485878 cumulative IPC: 0.628532 (Simulation time: 0 hr 26 min 29 sec) 
Heartbeat CPU 0 instructions: 240000000 cycles: 321002896 heartbeat IPC: 0.485265 cumulative IPC: 0.618915 (Simulation time: 0 hr 27 min 14 sec) 
Heartbeat CPU 0 instructions: 250000002 cycles: 341569958 heartbeat IPC: 0.486214 cumulative IPC: 0.610583 (Simulation time: 0 hr 27 min 57 sec) 
Finished CPU 0 instructions: 200000000 cycles: 327556048 cumulative IPC: 0.610583 (Simulation time: 0 hr 27 min 57 sec) 
 Instruction ID: 250000306

ChampSim completed all CPUs

Region of Interest Statistics

CPU 0 cumulative IPC: 0.610583 instructions: 200000000 cycles: 327556048
ITLB SPEC fills:          0  NON-SPEC fills:          0
ITLB Test counter :          0
ITLB Leapfrog:          0
ITLB MSHR merge:          0
ITLB TOTAL     ACCESS:   34069956  HIT:   34069955  MISS:          1  HIT %:        100  MISS %: 2.93514e-06   MPKI: 5e-06
ITLB LOAD TRANSLATION NON_SPEC    ACCESS:   34069956  HIT:   34069955  MISS:          1  HIT %:        100  MISS %: 2.93514e-06   MPKI: 5e-06
ITLB PREFETCH  REQUESTED:          0  ISSUED:          0  USEFUL:          0  USELESS:          0
ITLB USEFUL LOAD PREFETCHES:          0 PREFETCH ISSUED TO LOWER LEVEL:          0  ACCURACY: -nan
ITLB TIMELY PREFETCHES:          0 LATE PREFETCHES: 0 DROPPED PREFETCHES: 0
ITLB COMMIT LATE PREFETCHES: 0 NORMAL LATE: 0 MISSED OPPORTUNITY: 0 UNCOVERED: 0
ITLB PREFETCHES SAME FILL-ORIGIN LEVEL: 0 DIFFERENT FILL-ORIGIN LEVEL: 0
ITLB AVERAGE MISS LATENCY: 1063 cycles
ITLB AVERAGE MISS LATENCY LOAD: -nan cycles
ITLB AVERAGE MISS LATENCY PREFETCH: -nan cycles
ITLB AVERAGE MSHR OCCUPANCY: 2.93514e-08
ITLB MSHR FULL: 0
ITLB RQ	ACCESS:   35427091	FORWARD:          0	MERGED:    1357134	TO_CACHE:   34069957

DTLB SPEC fills:          0  NON-SPEC fills:          0
DTLB Test counter :          0
DTLB Leapfrog:          0
DTLB MSHR merge:          0
DTLB TOTAL     ACCESS:   22608150  HIT:   22547496  MISS:      60654  HIT %:    99.7317  MISS %:   0.268284   MPKI: 0.30327
DTLB LOAD TRANSLATION NON_SPEC    ACCESS:   22608150  HIT:   22547496  MISS:      60654  HIT %:    99.7317  MISS %:   0.268284   MPKI: 0.30327
DTLB PREFETCH  REQUESTED:          0  ISSUED:          0  USEFUL:          0  USELESS:          0
DTLB USEFUL LOAD PREFETCHES:          0 PREFETCH ISSUED TO LOWER LEVEL:          0  ACCURACY: -nan
DTLB TIMELY PREFETCHES:          0 LATE PREFETCHES: 0 DROPPED PREFETCHES: 0
DTLB COMMIT LATE PREFETCHES: 0 NORMAL LATE: 0 MISSED OPPORTUNITY: 0 UNCOVERED: 0
DTLB PREFETCHES SAME FILL-ORIGIN LEVEL: 0 DIFFERENT FILL-ORIGIN LEVEL: 0
DTLB AVERAGE MISS LATENCY: 163.152 cycles
DTLB AVERAGE MISS LATENCY LOAD: -nan cycles
DTLB AVERAGE MISS LATENCY PREFETCH: -nan cycles
DTLB AVERAGE MSHR OCCUPANCY: 0.00646523
DTLB MSHR FULL: 0
DTLB RQ	ACCESS:   24444529	FORWARD:          0	MERGED:    1792442	TO_CACHE:   22652087

STLB SPEC fills:          0  NON-SPEC fills:          0
STLB Test counter :          0
STLB Leapfrog:          0
STLB MSHR merge:          0
STLB TOTAL     ACCESS:    3858783  HIT:    3798465  MISS:      60318  HIT %:    98.4369  MISS %:    1.56314   MPKI: 0.30159
STLB LOAD TRANSLATION NON_SPEC    ACCESS:      60655  HIT:        337  MISS:      60318  HIT %:   0.555601  MISS %:    99.4444   MPKI: 0.30159
STLB TRANSLATION FROM L1D PREFETCHER NON_SPEC    ACCESS:    3798128  HIT:    3798128  MISS:          0  HIT %:        100  MISS %:          0   MPKI: 0
STLB PREFETCH  REQUESTED:          0  ISSUED:          0  USEFUL:          0  USELESS:          0
STLB USEFUL LOAD PREFETCHES:          0 PREFETCH ISSUED TO LOWER LEVEL:          0  ACCURACY: -nan
STLB TIMELY PREFETCHES:          0 LATE PREFETCHES: 0 DROPPED PREFETCHES: 0
STLB COMMIT LATE PREFETCHES: 0 NORMAL LATE: 0 MISSED OPPORTUNITY: 0 UNCOVERED: 0
STLB PREFETCHES SAME FILL-ORIGIN LEVEL: 0 DIFFERENT FILL-ORIGIN LEVEL: 0
STLB AVERAGE MISS LATENCY: 155.026 cycles
STLB AVERAGE MISS LATENCY LOAD: -nan cycles
STLB AVERAGE MISS LATENCY PREFETCH: -nan cycles
STLB AVERAGE MSHR OCCUPANCY: 0.00059086
STLB MSHR FULL: 0
STLB RQ	ACCESS:   11212519	FORWARD:          0	MERGED:    7353736	TO_CACHE:    3858783

STLB Hit, L1D data hit: 0
STLB Hit, L2C data hit: 0
STLB Hit, LLC data hit: 0
STLB Hit, LLC data miss: 0
STLB STLB hints to L2: 0
L0D SPEC fills:    7854276  NON-SPEC fills:          0
L0D TimeGuard Request with older TS:      34869 Restricted eviction:       1982 read:       4683
L0D Test counter :          0
L0D Leapfrog:          0
L0D MSHR merge:    7637676
L0D TOTAL     ACCESS:   13431031  HIT:    3445862  MISS:    9985169  HIT %:     25.656  MISS %:     74.344   MPKI: 49.9258
L0D LOAD      TOTAL       ACCESS:   13431031  HIT:    3445862  MISS:    9985169  HIT %:     25.656  MISS %:     74.344   MPKI: 49.9258
L0D LOAD      NON_SPEC    ACCESS:    2213449  HIT:      84421  MISS:    2129028  HIT %:      3.814  MISS %:     96.186   MPKI: 10.6451
L0D LOAD      SPEC        ACCESS:   11217582  HIT:    3361441  MISS:    7856141  HIT %:    29.9658  MISS %:    70.0342   MPKI: 39.2807
L0D PREFETCH  REQUESTED:          0  ISSUED:          0  USEFUL:          0  USELESS:          0
L0D USEFUL LOAD PREFETCHES:          0 PREFETCH ISSUED TO LOWER LEVEL:          0  ACCURACY: -nan
L0D TIMELY PREFETCHES:          0 LATE PREFETCHES: 0 DROPPED PREFETCHES: 0
L0D COMMIT LATE PREFETCHES: 0 NORMAL LATE: 0 MISSED OPPORTUNITY: 0 UNCOVERED: 0
L0D PREFETCHES SAME FILL-ORIGIN LEVEL: 0 DIFFERENT FILL-ORIGIN LEVEL: 0
L0D AVERAGE MISS LATENCY: 51.0245 cycles
L0D AVERAGE MISS LATENCY LOAD: 51.0245 cycles
L0D AVERAGE MISS LATENCY PREFETCH: -nan cycles
L0D AVERAGE MSHR OCCUPANCY: 1.12191
L0D MSHR FULL: 0
L0D RQ	ACCESS:   35804815	FORWARD:          0	MERGED:   14736108	TO_CACHE:   21068707
L0D WQ	ACCESS:    3375822	FORWARD:          0	MERGED:          0	TO_CACHE:    3375822

L1D SPEC fills:          0  NON-SPEC fills:     360168
L1D Test counter :          0
L1D Leapfrog:          0
L1D MSHR merge:    2700671
L1D TOTAL     ACCESS:   35269187  HIT:   28528219  MISS:    6740968  HIT %:    80.8871  MISS %:    19.1129   MPKI: 33.7048
L1D LOAD      TOTAL       ACCESS:    9984984  HIT:    7052601  MISS:    2932383  HIT %:    70.6321  MISS %:    29.3679   MPKI: 14.6619
L1D LOAD      NON_SPEC    ACCESS:    2128843  HIT:    1768675  MISS:     360168  HIT %:    83.0815  MISS %:    16.9185   MPKI: 1.80084
L1D LOAD      SPEC        ACCESS:    7856141  HIT:    5283926  MISS:    2572215  HIT %:    67.2585  MISS %:    32.7415   MPKI: 12.8611
L1D RFO       NON_SPEC    ACCESS:    3375823  HIT:    3375821  MISS:          2  HIT %:    99.9999  MISS %: 5.92448e-05   MPKI: 1e-05
L1D PREFETCH  NON_SPEC    ACCESS:    2787432  HIT:    1147633  MISS:    1639799  HIT %:    41.1717  MISS %:    58.8283   MPKI: 8.199
L1D COMMIT LOAD NON_SPEC    ACCESS:   11288993  HIT:   11288565  MISS:        428  HIT %:    99.9962  MISS %:  0.0037913   MPKI: 0.00214
L1D COMMIT WRITE NON_SPEC    ACCESS:    7831955  HIT:    5663599  MISS:    2168356  HIT %:     72.314  MISS %:     27.686   MPKI: 10.8418
L1D PREFETCH  REQUESTED:   11218725  ISSUED:   11218725  USEFUL:    1487949  USELESS:     151835
L1D USEFUL LOAD PREFETCHES:    1487949 PREFETCH ISSUED TO LOWER LEVEL:    4340688  ACCURACY: 34.2791
L1D TIMELY PREFETCHES:    1487949 LATE PREFETCHES: 2700881 DROPPED PREFETCHES: 0
L1D COMMIT LATE PREFETCHES: 1352583 NORMAL LATE: 1390284 MISSED OPPORTUNITY: 0 UNCOVERED: 189964
L1D PREFETCHES SAME FILL-ORIGIN LEVEL: 4340683 DIFFERENT FILL-ORIGIN LEVEL: 5
L1D AVERAGE MISS LATENCY: 116.756 cycles
L1D AVERAGE MISS LATENCY LOAD: 160.273 cycles
L1D AVERAGE MISS LATENCY PREFETCH: 193.357 cycles
L1D AVERAGE MSHR OCCUPANCY: 2.92438
L1D MSHR FULL: 0
L1D RQ	ACCESS:   35744560	FORWARD:          0	MERGED:   14470331	TO_CACHE:   21274229
L1D WQ	ACCESS:   11207778	FORWARD:          0	MERGED:          0	TO_CACHE:   11207778
L1D PQ	ACCESS:   11218725	FORWARD:          0	MERGED:      66861	TO_CACHE:   11151864

L1D UNIQUE REGIONS ACCESSED: 0
L1D REGIONS CONFLICTS: 0
L1D Cross Page Prefetch Requests: 0
L1D Same Page Prefetch Requests: 21694719
L1D ROI Sum of L1D PQ occupancy: 162047385
L1D PREFETCHES PUSHED FROM L2C: 0
L1I SPEC fills:          0  NON-SPEC fills:          0
L1I Test counter :          0
L1I Leapfrog:          0
L1I MSHR merge:          1
L1I TOTAL     ACCESS:   35427089  HIT:   35427082  MISS:          7  HIT %:        100  MISS %: 1.97589e-05   MPKI: 3.5e-05
L1I LOAD      TOTAL       ACCESS:   35427089  HIT:   35427082  MISS:          7  HIT %:        100  MISS %: 1.97589e-05   MPKI: 3.5e-05
L1I LOAD      NON_SPEC    ACCESS:   35427089  HIT:   35427082  MISS:          7  HIT %:        100  MISS %: 1.97589e-05   MPKI: 3.5e-05
L1I PREFETCH  REQUESTED:          0  ISSUED:          0  USEFUL:          0  USELESS:          0
L1I USEFUL LOAD PREFETCHES:          0 PREFETCH ISSUED TO LOWER LEVEL:          0  ACCURACY: -nan
L1I TIMELY PREFETCHES:          0 LATE PREFETCHES: 0 DROPPED PREFETCHES: 0
L1I COMMIT LATE PREFETCHES: 0 NORMAL LATE: 0 MISSED OPPORTUNITY: 0 UNCOVERED: 0
L1I PREFETCHES SAME FILL-ORIGIN LEVEL: 0 DIFFERENT FILL-ORIGIN LEVEL: 0
L1I AVERAGE MISS LATENCY: 280.857 cycles
L1I AVERAGE MISS LATENCY LOAD: 280.857 cycles
L1I AVERAGE MISS LATENCY PREFETCH: -nan cycles
L1I AVERAGE MSHR OCCUPANCY: 1.41135e-07
L1I MSHR FULL: 0
L1I RQ	ACCESS:   44365091	FORWARD:          0	MERGED:    8938000	TO_CACHE:   35427091

BTB SPEC fills:          0  NON-SPEC fills:          0
BTB Test counter :          0
BTB Leapfrog:          0
BTB MSHR merge:          0
BTB TOTAL     ACCESS:   30088226  HIT:   30088215  MISS:         11  HIT %:        100  MISS %: 3.65592e-05   MPKI: 5.5e-05
BTB BRANCH_DIRECT_JUMP	ACCESS:    1387298  HIT:    1387296  MISS:          2
BTB BRANCH_INDIRECT	ACCESS:          0  HIT:          0  MISS:          0
BTB BRANCH_CONDITIONAL	ACCESS:   28700928  HIT:   28700919  MISS:          9
BTB BRANCH_DIRECT_CALL	ACCESS:          0  HIT:          0  MISS:          0
BTB BRANCH_INDIRECT_CALL	ACCESS:          0  HIT:          0  MISS:          0
BTB BRANCH_RETURN	ACCESS:          0  HIT:          0  MISS:          0
BTB BRANCH_OTHER ACCESS:          0  HIT:          0  MISS:          0

L2C SPEC fills:          0  NON-SPEC fills:      15947
L2C Test counter :          0
L2C Leapfrog:          0
L2C MSHR merge:          0
L2C TOTAL     ACCESS:    8348303  HIT:    4368188  MISS:    3980115  HIT %:    52.3243  MISS %:    47.6757   MPKI: 19.9006
L2C LOAD      TOTAL       ACCESS:     231905  HIT:     104459  MISS:     127446  HIT %:    45.0439  MISS %:    54.9561   MPKI: 0.63723
L2C LOAD      NON_SPEC    ACCESS:      16866  HIT:        912  MISS:      15954  HIT %:    5.40733  MISS %:    94.5927   MPKI: 0.07977
L2C LOAD      SPEC        ACCESS:     215039  HIT:     103547  MISS:     111492  HIT %:    48.1527  MISS %:    51.8473   MPKI: 0.55746
L2C RFO       NON_SPEC    ACCESS:          2  HIT:          0  MISS:          2  HIT %:          0  MISS %:        100   MPKI: 1e-05
L2C PREFETCH  NON_SPEC    ACCESS:    4340680  HIT:     560855  MISS:    3779825  HIT %:    12.9209  MISS %:    87.0791   MPKI: 18.8991
L2C WRITEBACK NON_SPEC    ACCESS:          3  HIT:          1  MISS:          2  HIT %:    33.3333  MISS %:    66.6667   MPKI: 1e-05
L2C CLEAN_EVICTION NON_SPEC    ACCESS:    3474171  HIT:    3408894  MISS:      65277  HIT %:    98.1211  MISS %:    1.87892   MPKI: 0.326385
L2C COMMIT LOAD NON_SPEC    ACCESS:         33  HIT:         33  MISS:          0  HIT %:        100  MISS %:          0   MPKI: 0
L2C LOAD TRANSLATION NON_SPEC    ACCESS:     301509  HIT:     293946  MISS:       7563  HIT %:    97.4916  MISS %:    2.50838   MPKI: 0.037815
L2C PREFETCH  REQUESTED:          0  ISSUED:          0  USEFUL:     104426  USELESS:    3675875
L2C USEFUL LOAD PREFETCHES:     104426 PREFETCH ISSUED TO LOWER LEVEL:    3779828  ACCURACY: 2.76272
L2C TIMELY PREFETCHES:     104426 LATE PREFETCHES: 0 DROPPED PREFETCHES: 0
L2C COMMIT LATE PREFETCHES: 0 NORMAL LATE: 0 MISSED OPPORTUNITY: 0 UNCOVERED: 127446
L2C PREFETCHES SAME FILL-ORIGIN LEVEL: 5 DIFFERENT FILL-ORIGIN LEVEL: 0
L2C AVERAGE MISS LATENCY: 265.338 cycles
L2C AVERAGE MISS LATENCY LOAD: 183.97 cycles
L2C AVERAGE MISS LATENCY PREFETCH: 272.751 cycles
L2C AVERAGE MSHR OCCUPANCY: 1.57758
L2C MSHR FULL: 0
L2C RQ	ACCESS:     533449	FORWARD:          0	MERGED:          0	TO_CACHE:     533449
L2C WQ	ACCESS:    3476135	FORWARD:          0	MERGED:       1961	TO_CACHE:    3474174
L2C PQ	ACCESS:    4340688	FORWARD:          0	MERGED:          0	TO_CACHE:    4340688

L2C Instructions Evicting Data 7
L2C Translations Evicting Data 7563
L2C Data Evicting Data 3788347
L2C Instructions Evicting Instructions 0
L2C Translations Evicting Instructions 0
L2C Data Evicting Instructions 7
L2C Instructions Evicting Translations 0
L2C Translations Evicting Translations 0
L2C Data Evicting Translations 7420
L2C Dense regions hint from L2: 0
PSCL5 SPEC fills:          0  NON-SPEC fills:          0
PSCL5 Test counter :          0
PSCL5 Leapfrog:          0
PSCL5 MSHR merge:          0
PSCL5 TOTAL     ACCESS:          0  HIT:          0  MISS:          0  HIT %:       -nan  MISS %:       -nan   MPKI: 0
PSCL5 PREFETCH  REQUESTED:          0  ISSUED:          0  USEFUL:          0  USELESS:          0
PSCL5 USEFUL LOAD PREFETCHES:          0 PREFETCH ISSUED TO LOWER LEVEL:          0  ACCURACY: -nan
PSCL5 TIMELY PREFETCHES:          0 LATE PREFETCHES: 0 DROPPED PREFETCHES: 0
PSCL5 COMMIT LATE PREFETCHES: 0 NORMAL LATE: 0 MISSED OPPORTUNITY: 0 UNCOVERED: 0
PSCL5 PREFETCHES SAME FILL-ORIGIN LEVEL: 0 DIFFERENT FILL-ORIGIN LEVEL: 0

PSCL4 SPEC fills:          0  NON-SPEC fills:          0
PSCL4 Test counter :          0
PSCL4 Leapfrog:          0
PSCL4 MSHR merge:          0
PSCL4 TOTAL     ACCESS:          0  HIT:          0  MISS:          0  HIT %:       -nan  MISS %:       -nan   MPKI: 0
PSCL4 PREFETCH  REQUESTED:          0  ISSUED:          0  USEFUL:          0  USELESS:          0
PSCL4 USEFUL LOAD PREFETCHES:          0 PREFETCH ISSUED TO LOWER LEVEL:          0  ACCURACY: -nan
PSCL4 TIMELY PREFETCHES:          0 LATE PREFETCHES: 0 DROPPED PREFETCHES: 0
PSCL4 COMMIT LATE PREFETCHES: 0 NORMAL LATE: 0 MISSED OPPORTUNITY: 0 UNCOVERED: 0
PSCL4 PREFETCHES SAME FILL-ORIGIN LEVEL: 0 DIFFERENT FILL-ORIGIN LEVEL: 0

PSCL3 SPEC fills:          0  NON-SPEC fills:          0
PSCL3 Test counter :          0
PSCL3 Leapfrog:          0
PSCL3 MSHR merge:          0
PSCL3 TOTAL     ACCESS:          0  HIT:          0  MISS:          0  HIT %:       -nan  MISS %:       -nan   MPKI: 0
PSCL3 PREFETCH  REQUESTED:          0  ISSUED:          0  USEFUL:          0  USELESS:          0
PSCL3 USEFUL LOAD PREFETCHES:          0 PREFETCH ISSUED TO LOWER LEVEL:          0  ACCURACY: -nan
PSCL3 TIMELY PREFETCHES:          0 LATE PREFETCHES: 0 DROPPED PREFETCHES: 0
PSCL3 COMMIT LATE PREFETCHES: 0 NORMAL LATE: 0 MISSED OPPORTUNITY: 0 UNCOVERED: 0
PSCL3 PREFETCHES SAME FILL-ORIGIN LEVEL: 0 DIFFERENT FILL-ORIGIN LEVEL: 0

PSCL2 SPEC fills:          0  NON-SPEC fills:          0
PSCL2 Test counter :          0
PSCL2 Leapfrog:          0
PSCL2 MSHR merge:          0
PSCL2 TOTAL     ACCESS:          0  HIT:          0  MISS:          0  HIT %:       -nan  MISS %:       -nan   MPKI: 0
PSCL2 PREFETCH  REQUESTED:          0  ISSUED:          0  USEFUL:          0  USELESS:          0
PSCL2 USEFUL LOAD PREFETCHES:          0 PREFETCH ISSUED TO LOWER LEVEL:          0  ACCURACY: -nan
PSCL2 TIMELY PREFETCHES:          0 LATE PREFETCHES: 0 DROPPED PREFETCHES: 0
PSCL2 COMMIT LATE PREFETCHES: 0 NORMAL LATE: 0 MISSED OPPORTUNITY: 0 UNCOVERED: 0
PSCL2 PREFETCHES SAME FILL-ORIGIN LEVEL: 0 DIFFERENT FILL-ORIGIN LEVEL: 0

LLC SPEC fills:          0  NON-SPEC fills:      15872
LLC Test counter :          0
LLC Leapfrog:          0
LLC MSHR merge:          0
LLC TOTAL     ACCESS:    7350242  HIT:    3371667  MISS:    3978575  HIT %:    45.8715  MISS %:    54.1285   MPKI: 19.8929
LLC LOAD      TOTAL       ACCESS:     127446  HIT:        821  MISS:     126625  HIT %:   0.644194  MISS %:    99.3558   MPKI: 0.633125
LLC LOAD      NON_SPEC    ACCESS:      15954  HIT:         75  MISS:      15879  HIT %:   0.470102  MISS %:    99.5299   MPKI: 0.079395
LLC LOAD      SPEC        ACCESS:     111492  HIT:        746  MISS:     110746  HIT %:   0.669106  MISS %:    99.3309   MPKI: 0.55373
LLC RFO       NON_SPEC    ACCESS:          2  HIT:          0  MISS:          2  HIT %:          0  MISS %:        100   MPKI: 1e-05
LLC PREFETCH  NON_SPEC    ACCESS:    3779825  HIT:          0  MISS:    3779825  HIT %:          0  MISS %:        100   MPKI: 18.8991
LLC WRITEBACK NON_SPEC    ACCESS:          3  HIT:          1  MISS:          2  HIT %:    33.3333  MISS %:    66.6667   MPKI: 1e-05
LLC CLEAN_EVICTION NON_SPEC    ACCESS:    3435403  HIT:    3370845  MISS:      64558  HIT %:    98.1208  MISS %:     1.8792   MPKI: 0.32279
LLC LOAD TRANSLATION NON_SPEC    ACCESS:       7563  HIT:          0  MISS:       7563  HIT %:          0  MISS %:        100   MPKI: 0.037815
LLC PREFETCH  REQUESTED:          0  ISSUED:          0  USEFUL:          0  USELESS:    3779975
LLC USEFUL LOAD PREFETCHES:          0 PREFETCH ISSUED TO LOWER LEVEL:    3779828  ACCURACY: 0
LLC TIMELY PREFETCHES:          0 LATE PREFETCHES: 0 DROPPED PREFETCHES: 0
LLC COMMIT LATE PREFETCHES: 0 NORMAL LATE: 0 MISSED OPPORTUNITY: 0 UNCOVERED: 0
LLC PREFETCHES SAME FILL-ORIGIN LEVEL: 0 DIFFERENT FILL-ORIGIN LEVEL: 0
LLC AVERAGE MISS LATENCY: 236.054 cycles
LLC AVERAGE MISS LATENCY LOAD: 162.891 cycles
LLC AVERAGE MISS LATENCY PREFETCH: 242.625 cycles
LLC AVERAGE MSHR OCCUPANCY: 1.20174
LLC MSHR FULL: 0
LLC RQ	ACCESS:     135011	FORWARD:          0	MERGED:          0	TO_CACHE:     135011
LLC WQ	ACCESS:    3435406	FORWARD:          0	MERGED:          0	TO_CACHE:    3435406
LLC PQ	ACCESS:    3779828	FORWARD:          0	MERGED:          0	TO_CACHE:    3779828

LLC Dense regions hint to LLC: 0

RAW hits: 1
Loads Generated: 35804822
Loads sent to L1D: 35804815
Stores Generated: 3375822
Stores sent to L1D: 3375822
Major fault: 0 Minor fault: 62153
Allocated PAGES: 62153
Total Load insts: 43892566
Total Non-spec loads: 2573977
Percentage of speculative loads: 94.1357

LeapFrogging counter: 0
Commit hits: 7831955 miss: 25759391
Commit hit %: 23.3154 miss %: 76.6846
Commits not translated: 0
Loads retired: 2932383
Stores retired: 3375822
Cache fills: 2932383
L1D response latency: 160.273 cycles
Load retirement latency: 190.67 cycles
OOO test counter: 0
Discarded buffer inserts: 7831955 hits: 112355 hit %: 1.43457
Filter prediction accuracy: -nan
Speculative prefetch buffer size: 2
CPU 0 L1D PC-based stride prefetcher final stats
Degree: 3
CPU 0 L1D PC-based stride prefetcher final stats
Degree: 3

DRAM Statistics
 CHANNEL 0
 RQ ROW_BUFFER_HIT:      38609  ROW_BUFFER_MISS:    3875406
 DBUS_CONGESTED:       1220
 WQ ROW_BUFFER_HIT:    1688514  ROW_BUFFER_MISS:    1748097  FULL:          0

 AVG_CONGESTED_CYCLE: 6
 All warmup complete: 2
Channel 0 Bank busy for read cycles: 0
Channel 0 Bank busy for write cycles: 0
Channel 0
Rank 0
0banks busy for read cycles: 786852
0banks busy for write cycles: 0
1banks busy for read cycles: 42592904
1banks busy for write cycles: 868913
2banks busy for read cycles: 53382049
2banks busy for write cycles: 865455
3banks busy for read cycles: 103789787
3banks busy for write cycles: 859309
4banks busy for read cycles: 35094852
4banks busy for write cycles: 854033
5banks busy for read cycles: 1297202
5banks busy for write cycles: 864840
6banks busy for read cycles: 0
6banks busy for write cycles: 979192
7banks busy for read cycles: 0
7banks busy for write cycles: 5061274
8banks busy for read cycles: 0
8banks busy for write cycles: 80259387

CPU 0 Branch Prediction Accuracy: 99.8669% MPKI: 0.223155 Average ROB Occupancy at Mispredict: 251.849
Branch types
NOT_BRANCH: 166478564 83.2393%
BRANCH_DIRECT_JUMP: 1387298 0.693649%
BRANCH_INDIRECT: 0 0%
BRANCH_CONDITIONAL: 32134378 16.0672%
BRANCH_DIRECT_CALL: 0 0%
BRANCH_INDIRECT_CALL: 0 0%
BRANCH_RETURN: 0 0%
BRANCH_OTHER: 0 0%

DRAM PAGES: 1048576
Allocated PAGES: 62153
