
*** ChampSim Multicore Out-of-Order Simulator ***

Warmup Instructions: 50000000
Simulation Instructions: 200000000
Number of CPUs: 1
LLC sets: 2048
LLC ways: 16
L0D sets: 16
L0D ways: 2
ROB size: 352
LQ size: 128
SQ size: 72
Secure Berti: OFF
Berti: OFF
Berti Fill: OFF
On commit prefetching: ON
Hit-based filter: OFF
Time-guarding: ON
Free-slotting: ON
Leap-frogging: ON
Train prefetcher on L0D bypass: OFF
No translation penalty for prefetchers: OFF
Prefetch to L0D only: OFF
Prefetch to L1D only: OFF
Clean evictions: ON
Commit loads: ON
Commit write: ON
Fill commit loads to L2C, LLC: ON
DRAM IO FREQUENCY: 6400
ROB SIZE: 352
Off-chip DRAM Size: 4096 MB Channels: 1 Width: 64-bit Data Rate: 6400 MT/s
CPU 0 runs /home/sumon/secure_berti/GhostMinion/../../traces/spec/605.mcf_s-484B.champsimtrace.xz
.xz
BTB has LRU replacement policy
ITLB has LRU replacement policy
DTLB has LRU replacement policy
STLB has LRU replacement policy
L1I has LRU replacement policy
L0D has LRU replacement policy
CPU 0 L1D IP-based stride prefetcher
CPU 0 L1D IP-based stride prefetcher
L1D has LRU replacement policy
L2C has LRU replacement policy
LLC has LRU replacement policy
Heartbeat CPU 0 instructions: 10000001 cycles: 5821355 heartbeat IPC: 1.71781 cumulative IPC: 1.71781 (Simulation time: 0 hr 0 min 58 sec) 
Heartbeat CPU 0 instructions: 20000000 cycles: 11552996 heartbeat IPC: 1.7447 cumulative IPC: 1.73115 (Simulation time: 0 hr 2 min 6 sec) 
Heartbeat CPU 0 instructions: 30000001 cycles: 17065202 heartbeat IPC: 1.81416 cumulative IPC: 1.75796 (Simulation time: 0 hr 3 min 48 sec) 
Heartbeat CPU 0 instructions: 40000000 cycles: 22853328 heartbeat IPC: 1.72767 cumulative IPC: 1.75029 (Simulation time: 0 hr 5 min 25 sec) 
Heartbeat CPU 0 instructions: 50000000 cycles: 28538004 heartbeat IPC: 1.75912 cumulative IPC: 1.75205 (Simulation time: 0 hr 7 min 3 sec) 

Warmup complete CPU 0 instructions: 50000004 cycles: 28538005 (Simulation time: 0 hr 7 min 3 sec) 

Heartbeat CPU 0 instructions: 60000003 cycles: 57202452 heartbeat IPC: 0.348864 cumulative IPC: 0.348864 (Simulation time: 0 hr 9 min 9 sec) 
Heartbeat CPU 0 instructions: 70000003 cycles: 96023610 heartbeat IPC: 0.257591 cumulative IPC: 0.296359 (Simulation time: 0 hr 11 min 33 sec) 
Heartbeat CPU 0 instructions: 80000000 cycles: 131678368 heartbeat IPC: 0.280467 cumulative IPC: 0.290866 (Simulation time: 0 hr 13 min 27 sec) 
Heartbeat CPU 0 instructions: 90000000 cycles: 165388602 heartbeat IPC: 0.296646 cumulative IPC: 0.29229 (Simulation time: 0 hr 14 min 48 sec) 
Heartbeat CPU 0 instructions: 100000000 cycles: 194090576 heartbeat IPC: 0.348408 cumulative IPC: 0.302019 (Simulation time: 0 hr 16 min 2 sec) 
Heartbeat CPU 0 instructions: 110000000 cycles: 224493147 heartbeat IPC: 0.32892 cumulative IPC: 0.306193 (Simulation time: 0 hr 17 min 19 sec) 
Heartbeat CPU 0 instructions: 120000001 cycles: 248517990 heartbeat IPC: 0.416236 cumulative IPC: 0.318211 (Simulation time: 0 hr 18 min 28 sec) 
Heartbeat CPU 0 instructions: 130000000 cycles: 273465483 heartbeat IPC: 0.400842 cumulative IPC: 0.326627 (Simulation time: 0 hr 20 min 1 sec) 
Heartbeat CPU 0 instructions: 140000001 cycles: 303464047 heartbeat IPC: 0.333349 cumulative IPC: 0.327361 (Simulation time: 0 hr 21 min 20 sec) 
Heartbeat CPU 0 instructions: 150000001 cycles: 327986722 heartbeat IPC: 0.407786 cumulative IPC: 0.333947 (Simulation time: 0 hr 22 min 27 sec) 
Heartbeat CPU 0 instructions: 160000001 cycles: 354942791 heartbeat IPC: 0.370974 cumulative IPC: 0.337005 (Simulation time: 0 hr 23 min 35 sec) 
Heartbeat CPU 0 instructions: 170000000 cycles: 386569400 heartbeat IPC: 0.316189 cumulative IPC: 0.335166 (Simulation time: 0 hr 24 min 48 sec) 
Heartbeat CPU 0 instructions: 180000000 cycles: 415421556 heartbeat IPC: 0.346595 cumulative IPC: 0.336018 (Simulation time: 0 hr 25 min 58 sec) 
Heartbeat CPU 0 instructions: 190000000 cycles: 444313428 heartbeat IPC: 0.346118 cumulative IPC: 0.33672 (Simulation time: 0 hr 27 min 7 sec) 
Heartbeat CPU 0 instructions: 200000002 cycles: 484023866 heartbeat IPC: 0.251823 cumulative IPC: 0.329319 (Simulation time: 0 hr 28 min 26 sec) 
Heartbeat CPU 0 instructions: 210000002 cycles: 523135461 heartbeat IPC: 0.255679 cumulative IPC: 0.323495 (Simulation time: 0 hr 29 min 40 sec) 
Heartbeat CPU 0 instructions: 220000000 cycles: 550621859 heartbeat IPC: 0.363816 cumulative IPC: 0.325618 (Simulation time: 0 hr 30 min 44 sec) 
Heartbeat CPU 0 instructions: 230000002 cycles: 577343330 heartbeat IPC: 0.374231 cumulative IPC: 0.327985 (Simulation time: 0 hr 31 min 45 sec) 
Heartbeat CPU 0 instructions: 240000000 cycles: 606023584 heartbeat IPC: 0.348672 cumulative IPC: 0.329013 (Simulation time: 0 hr 32 min 47 sec) 
Heartbeat CPU 0 instructions: 250000001 cycles: 640114930 heartbeat IPC: 0.29333 cumulative IPC: 0.327023 (Simulation time: 0 hr 33 min 54 sec) 
Finished CPU 0 instructions: 200000001 cycles: 611576927 cumulative IPC: 0.327023 (Simulation time: 0 hr 33 min 54 sec) 
 Instruction ID: 250000298

ChampSim completed all CPUs

Region of Interest Statistics

CPU 0 cumulative IPC: 0.327023 instructions: 200000001 cycles: 611576927
ITLB SPEC fills:          0  NON-SPEC fills:          0
ITLB Test counter :          0
ITLB Leapfrog:          0
ITLB MSHR merge:          0
ITLB TOTAL     ACCESS:   32620030  HIT:   32620030  MISS:          0  HIT %:        100  MISS %:          0   MPKI: 0
ITLB LOAD TRANSLATION NON_SPEC    ACCESS:   32620030  HIT:   32620030  MISS:          0  HIT %:        100  MISS %:          0   MPKI: 0
ITLB PREFETCH  REQUESTED:          0  ISSUED:          0  USEFUL:          0  USELESS:          0
ITLB USEFUL LOAD PREFETCHES:          0 PREFETCH ISSUED TO LOWER LEVEL:          0  ACCURACY: -nan
ITLB TIMELY PREFETCHES:          0 LATE PREFETCHES: 0 DROPPED PREFETCHES: 0
ITLB COMMIT LATE PREFETCHES: 0 NORMAL LATE: 0 MISSED OPPORTUNITY: 0 UNCOVERED: 0
ITLB PREFETCHES SAME FILL-ORIGIN LEVEL: 0 DIFFERENT FILL-ORIGIN LEVEL: 0
ITLB AVERAGE MISS LATENCY: -nan cycles
ITLB AVERAGE MISS LATENCY LOAD: -nan cycles
ITLB AVERAGE MISS LATENCY PREFETCH: -nan cycles
ITLB AVERAGE MSHR OCCUPANCY: 0
ITLB MSHR FULL: 0
ITLB RQ	ACCESS:   43001742	FORWARD:          0	MERGED:   10381712	TO_CACHE:   32620030

DTLB SPEC fills:          0  NON-SPEC fills:          0
DTLB Test counter :          0
DTLB Leapfrog:          0
DTLB MSHR merge:          0
DTLB TOTAL     ACCESS:   56270829  HIT:   55792914  MISS:     477915  HIT %:    99.1507  MISS %:   0.849312   MPKI: 2.38957
DTLB LOAD TRANSLATION NON_SPEC    ACCESS:   56270829  HIT:   55792914  MISS:     477915  HIT %:    99.1507  MISS %:   0.849312   MPKI: 2.38957
DTLB PREFETCH  REQUESTED:          0  ISSUED:          0  USEFUL:          0  USELESS:          0
DTLB USEFUL LOAD PREFETCHES:          0 PREFETCH ISSUED TO LOWER LEVEL:          0  ACCURACY: -nan
DTLB TIMELY PREFETCHES:          0 LATE PREFETCHES: 0 DROPPED PREFETCHES: 0
DTLB COMMIT LATE PREFETCHES: 0 NORMAL LATE: 0 MISSED OPPORTUNITY: 0 UNCOVERED: 0
DTLB PREFETCHES SAME FILL-ORIGIN LEVEL: 0 DIFFERENT FILL-ORIGIN LEVEL: 0
DTLB AVERAGE MISS LATENCY: 50.7995 cycles
DTLB AVERAGE MISS LATENCY LOAD: -nan cycles
DTLB AVERAGE MISS LATENCY PREFETCH: -nan cycles
DTLB AVERAGE MSHR OCCUPANCY: 0.018829
DTLB MSHR FULL: 0
DTLB RQ	ACCESS:   97636687	FORWARD:          0	MERGED:   41263350	TO_CACHE:   56373337

STLB SPEC fills:          0  NON-SPEC fills:          0
STLB Test counter :          0
STLB Leapfrog:          0
STLB MSHR merge:          0
STLB TOTAL     ACCESS:    2569703  HIT:    2423692  MISS:     146011  HIT %:     94.318  MISS %:    5.68202   MPKI: 0.730055
STLB LOAD TRANSLATION NON_SPEC    ACCESS:     477915  HIT:     331918  MISS:     145997  HIT %:    69.4513  MISS %:    30.5487   MPKI: 0.729985
STLB TRANSLATION FROM L1D PREFETCHER NON_SPEC    ACCESS:    2091788  HIT:    2091774  MISS:         14  HIT %:    99.9993  MISS %: 0.000669284   MPKI: 7e-05
STLB PREFETCH  REQUESTED:          0  ISSUED:          0  USEFUL:         10  USELESS:          4
STLB USEFUL LOAD PREFETCHES:         10 PREFETCH ISSUED TO LOWER LEVEL:          0  ACCURACY: inf
STLB TIMELY PREFETCHES:         10 LATE PREFETCHES: 0 DROPPED PREFETCHES: 0
STLB COMMIT LATE PREFETCHES: 0 NORMAL LATE: 0 MISSED OPPORTUNITY: 0 UNCOVERED: 0
STLB PREFETCHES SAME FILL-ORIGIN LEVEL: 0 DIFFERENT FILL-ORIGIN LEVEL: 0
STLB AVERAGE MISS LATENCY: 136.804 cycles
STLB AVERAGE MISS LATENCY LOAD: -nan cycles
STLB AVERAGE MISS LATENCY PREFETCH: -nan cycles
STLB AVERAGE MSHR OCCUPANCY: 0.0312577
STLB MSHR FULL: 0
STLB RQ	ACCESS:    6738885	FORWARD:          0	MERGED:    4169182	TO_CACHE:    2569703

STLB Hit, L1D data hit: 0
STLB Hit, L2C data hit: 0
STLB Hit, LLC data hit: 0
STLB Hit, LLC data miss: 0
STLB STLB hints to L2: 0
L0D SPEC fills:   26860749  NON-SPEC fills:          0
L0D TimeGuard Request with older TS:     485801 Restricted eviction:     138164 read:     915602
L0D Test counter :          0
L0D Leapfrog:          0
L0D MSHR merge:    1880367
L0D TOTAL     ACCESS:   38413130  HIT:    4619995  MISS:   33793135  HIT %:    12.0271  MISS %:    87.9729   MPKI: 168.966
L0D LOAD      TOTAL       ACCESS:   38413130  HIT:    4619995  MISS:   33793135  HIT %:    12.0271  MISS %:    87.9729   MPKI: 168.966
L0D LOAD      NON_SPEC    ACCESS:    7218066  HIT:     423844  MISS:    6794222  HIT %:    5.87199  MISS %:     94.128   MPKI: 33.9711
L0D LOAD      SPEC        ACCESS:   31195064  HIT:    4196151  MISS:   26998913  HIT %:    13.4513  MISS %:    86.5487   MPKI: 134.995
L0D PREFETCH  REQUESTED:          0  ISSUED:          0  USEFUL:          0  USELESS:          0
L0D USEFUL LOAD PREFETCHES:          0 PREFETCH ISSUED TO LOWER LEVEL:          0  ACCURACY: -nan
L0D TIMELY PREFETCHES:          0 LATE PREFETCHES: 0 DROPPED PREFETCHES: 0
L0D COMMIT LATE PREFETCHES: 0 NORMAL LATE: 0 MISSED OPPORTUNITY: 0 UNCOVERED: 0
L0D PREFETCHES SAME FILL-ORIGIN LEVEL: 0 DIFFERENT FILL-ORIGIN LEVEL: 0
L0D AVERAGE MISS LATENCY: 32.1236 cycles
L0D AVERAGE MISS LATENCY LOAD: 32.1236 cycles
L0D AVERAGE MISS LATENCY PREFETCH: -nan cycles
L0D AVERAGE MSHR OCCUPANCY: 1.62611
L0D MSHR FULL: 0.0425501
L0D RQ	ACCESS:   62778303	FORWARD:          0	MERGED:   22484804	TO_CACHE:   40293499
L0D WQ	ACCESS:   57343188	FORWARD:          0	MERGED:          0	TO_CACHE:   57343188

L1D SPEC fills:          0  NON-SPEC fills:     817453
L1D Test counter :          0
L1D Leapfrog:          0
L1D MSHR merge:     380361
L1D TOTAL     ACCESS:  134677985  HIT:  124499254  MISS:   10178731  HIT %:    92.4422  MISS %:    7.55783   MPKI: 50.8937
L1D LOAD      TOTAL       ACCESS:   33792017  HIT:   29653113  MISS:    4138904  HIT %:    87.7518  MISS %:    12.2482   MPKI: 20.6945
L1D LOAD      NON_SPEC    ACCESS:    6793301  HIT:    5975848  MISS:     817453  HIT %:    87.9668  MISS %:    12.0332   MPKI: 4.08726
L1D LOAD      SPEC        ACCESS:   26998716  HIT:   23677265  MISS:    3321451  HIT %:    87.6977  MISS %:    12.3023   MPKI: 16.6073
L1D RFO       NON_SPEC    ACCESS:   55375641  HIT:   55034679  MISS:     340962  HIT %:    99.3843  MISS %:   0.615726   MPKI: 1.70481
L1D PREFETCH  NON_SPEC    ACCESS:    4559424  HIT:    1993577  MISS:    2565847  HIT %:    43.7243  MISS %:    56.2757   MPKI: 12.8292
L1D COMMIT LOAD NON_SPEC    ACCESS:   14537900  HIT:   14417104  MISS:     120796  HIT %:    99.1691  MISS %:   0.830904   MPKI: 0.60398
L1D COMMIT WRITE NON_SPEC    ACCESS:   26413003  HIT:   23400781  MISS:    3012222  HIT %:    88.5957  MISS %:    11.4043   MPKI: 15.0611
L1D PREFETCH  REQUESTED:    8717892  ISSUED:    8716832  USEFUL:    1071024  USELESS:    1494850
L1D USEFUL LOAD PREFETCHES:    1071024 PREFETCH ISSUED TO LOWER LEVEL:    3432125  ACCURACY: 31.2059
L1D TIMELY PREFETCHES:    1071024 LATE PREFETCHES: 387826 DROPPED PREFETCHES: 0
L1D COMMIT LATE PREFETCHES: 393925 NORMAL LATE: 270968 MISSED OPPORTUNITY: 9420 UNCOVERED: 3477987
L1D PREFETCHES SAME FILL-ORIGIN LEVEL: 2984408 DIFFERENT FILL-ORIGIN LEVEL: 447717
L1D AVERAGE MISS LATENCY: 166.409 cycles
L1D AVERAGE MISS LATENCY LOAD: 218.141 cycles
L1D AVERAGE MISS LATENCY PREFETCH: 269.106 cycles
L1D AVERAGE MSHR OCCUPANCY: 2.02056
L1D MSHR FULL: 0.0241851
L1D RQ	ACCESS:   61436036	FORWARD:          0	MERGED:   11465930	TO_CACHE:   48337992
L1D WQ	ACCESS:   83805652	FORWARD:    1632114	MERGED:    1043343	TO_CACHE:   82762309
L1D PQ	ACCESS:    8716832	FORWARD:          0	MERGED:    2455862	TO_CACHE:    6260970

L1D UNIQUE REGIONS ACCESSED: 0
L1D REGIONS CONFLICTS: 0
L1D Cross Page Prefetch Requests: 0
L1D Same Page Prefetch Requests: 10327845
L1D ROI Sum of L1D PQ occupancy: 95682062
L1D PREFETCHES PUSHED FROM L2C: 0
L1I SPEC fills:          0  NON-SPEC fills:          0
L1I Test counter :          0
L1I Leapfrog:          0
L1I MSHR merge:          0
L1I TOTAL     ACCESS:   43001742  HIT:   43001742  MISS:          0  HIT %:        100  MISS %:          0   MPKI: 0
L1I LOAD      TOTAL       ACCESS:   43001742  HIT:   43001742  MISS:          0  HIT %:        100  MISS %:          0   MPKI: 0
L1I LOAD      NON_SPEC    ACCESS:   43001742  HIT:   43001742  MISS:          0  HIT %:        100  MISS %:          0   MPKI: 0
L1I PREFETCH  REQUESTED:          0  ISSUED:          0  USEFUL:          0  USELESS:          0
L1I USEFUL LOAD PREFETCHES:          0 PREFETCH ISSUED TO LOWER LEVEL:          0  ACCURACY: -nan
L1I TIMELY PREFETCHES:          0 LATE PREFETCHES: 0 DROPPED PREFETCHES: 0
L1I COMMIT LATE PREFETCHES: 0 NORMAL LATE: 0 MISSED OPPORTUNITY: 0 UNCOVERED: 0
L1I PREFETCHES SAME FILL-ORIGIN LEVEL: 0 DIFFERENT FILL-ORIGIN LEVEL: 0
L1I AVERAGE MISS LATENCY: -nan cycles
L1I AVERAGE MISS LATENCY LOAD: -nan cycles
L1I AVERAGE MISS LATENCY PREFETCH: -nan cycles
L1I AVERAGE MSHR OCCUPANCY: 0
L1I MSHR FULL: 0
L1I RQ	ACCESS:   58222102	FORWARD:          0	MERGED:   15220360	TO_CACHE:   43001742

BTB SPEC fills:          0  NON-SPEC fills:          0
BTB Test counter :          0
BTB Leapfrog:          0
BTB MSHR merge:          0
BTB TOTAL     ACCESS:   19468364  HIT:   19468330  MISS:         34  HIT %:    99.9998  MISS %: 0.000174642   MPKI: 0.00017
BTB BRANCH_DIRECT_JUMP	ACCESS:     976614  HIT:     976608  MISS:          6
BTB BRANCH_INDIRECT	ACCESS:          0  HIT:          0  MISS:          0
BTB BRANCH_CONDITIONAL	ACCESS:   18491562  HIT:   18491538  MISS:         24
BTB BRANCH_DIRECT_CALL	ACCESS:         94  HIT:         92  MISS:          2
BTB BRANCH_INDIRECT_CALL	ACCESS:          0  HIT:          0  MISS:          0
BTB BRANCH_RETURN	ACCESS:         94  HIT:         92  MISS:          2
BTB BRANCH_OTHER ACCESS:          0  HIT:          0  MISS:          0

L2C SPEC fills:          0  NON-SPEC fills:     726792
L2C Test counter :          0
L2C Leapfrog:          0
L2C MSHR merge:      65892
L2C TOTAL     ACCESS:   12888519  HIT:    3372910  MISS:    9515609  HIT %:    26.1699  MISS %:    73.8301   MPKI: 47.578
L2C LOAD      TOTAL       ACCESS:    3759643  HIT:     218417  MISS:    3541226  HIT %:    5.80951  MISS %:    94.1905   MPKI: 17.7061
L2C LOAD      NON_SPEC    ACCESS:     770229  HIT:      43437  MISS:     726792  HIT %:    5.63949  MISS %:    94.3605   MPKI: 3.63396
L2C LOAD      SPEC        ACCESS:    2989414  HIT:     174980  MISS:    2814434  HIT %:    5.85332  MISS %:    94.1467   MPKI: 14.0722
L2C RFO       NON_SPEC    ACCESS:     310220  HIT:      10340  MISS:     299880  HIT %:    3.33312  MISS %:    96.6669   MPKI: 1.4994
L2C PREFETCH  NON_SPEC    ACCESS:    3291079  HIT:     251926  MISS:    3039153  HIT %:    7.65481  MISS %:    92.3452   MPKI: 15.1958
L2C WRITEBACK NON_SPEC    ACCESS:     502983  HIT:     502648  MISS:        335  HIT %:    99.9334  MISS %:  0.0666026   MPKI: 0.001675
L2C CLEAN_EVICTION NON_SPEC    ACCESS:    4182424  HIT:    1677795  MISS:    2504629  HIT %:    40.1154  MISS %:    59.8846   MPKI: 12.5231
L2C COMMIT LOAD NON_SPEC    ACCESS:     112212  HIT:       4105  MISS:     108107  HIT %:    3.65825  MISS %:    96.3417   MPKI: 0.540535
L2C LOAD TRANSLATION NON_SPEC    ACCESS:     729888  HIT:     707623  MISS:      22265  HIT %:    96.9495  MISS %:    3.05047   MPKI: 0.111325
L2C TRANSLATION FROM L1D PREFETCHER NON_SPEC    ACCESS:         70  HIT:         56  MISS:         14  HIT %:         80  MISS %:         20   MPKI: 7e-05
L2C PREFETCH  REQUESTED:          0  ISSUED:          0  USEFUL:      86697  USELESS:    2953221
L2C USEFUL LOAD PREFETCHES:      86697 PREFETCH ISSUED TO LOWER LEVEL:    3106391  ACCURACY: 2.79092
L2C TIMELY PREFETCHES:      86697 LATE PREFETCHES: 67238 DROPPED PREFETCHES: 0
L2C COMMIT LATE PREFETCHES: 0 NORMAL LATE: 67626 MISSED OPPORTUNITY: 0 UNCOVERED: 3474946
L2C PREFETCHES SAME FILL-ORIGIN LEVEL: 378972 DIFFERENT FILL-ORIGIN LEVEL: 0
L2C AVERAGE MISS LATENCY: 187.351 cycles
L2C AVERAGE MISS LATENCY LOAD: 218.296 cycles
L2C AVERAGE MISS LATENCY PREFETCH: 299.173 cycles
L2C AVERAGE MSHR OCCUPANCY: 3.63187
L2C MSHR FULL: 0
L2C RQ	ACCESS:    4912060	FORWARD:          0	MERGED:          0	TO_CACHE:    4912034
L2C WQ	ACCESS:    4685420	FORWARD:         26	MERGED:         13	TO_CACHE:    4685407
L2C PQ	ACCESS:    3432125	FORWARD:          0	MERGED:         14	TO_CACHE:    3432111

L2C Instructions Evicting Data 0
L2C Translations Evicting Data 22240
L2C Data Evicting Data 4160311
L2C Instructions Evicting Instructions 0
L2C Translations Evicting Instructions 0
L2C Data Evicting Instructions 0
L2C Instructions Evicting Translations 0
L2C Translations Evicting Translations 39
L2C Data Evicting Translations 13621
L2C Dense regions hint from L2: 0
PSCL5 SPEC fills:          0  NON-SPEC fills:          0
PSCL5 Test counter :          0
PSCL5 Leapfrog:          0
PSCL5 MSHR merge:          0
PSCL5 TOTAL     ACCESS:          0  HIT:          0  MISS:          0  HIT %:       -nan  MISS %:       -nan   MPKI: 0
PSCL5 PREFETCH  REQUESTED:          0  ISSUED:          0  USEFUL:          0  USELESS:          0
PSCL5 USEFUL LOAD PREFETCHES:          0 PREFETCH ISSUED TO LOWER LEVEL:          0  ACCURACY: -nan
PSCL5 TIMELY PREFETCHES:          0 LATE PREFETCHES: 0 DROPPED PREFETCHES: 0
PSCL5 COMMIT LATE PREFETCHES: 0 NORMAL LATE: 0 MISSED OPPORTUNITY: 0 UNCOVERED: 0
PSCL5 PREFETCHES SAME FILL-ORIGIN LEVEL: 0 DIFFERENT FILL-ORIGIN LEVEL: 0

PSCL4 SPEC fills:          0  NON-SPEC fills:          0
PSCL4 Test counter :          0
PSCL4 Leapfrog:          0
PSCL4 MSHR merge:          0
PSCL4 TOTAL     ACCESS:          0  HIT:          0  MISS:          0  HIT %:       -nan  MISS %:       -nan   MPKI: 0
PSCL4 PREFETCH  REQUESTED:          0  ISSUED:          0  USEFUL:          0  USELESS:          0
PSCL4 USEFUL LOAD PREFETCHES:          0 PREFETCH ISSUED TO LOWER LEVEL:          0  ACCURACY: -nan
PSCL4 TIMELY PREFETCHES:          0 LATE PREFETCHES: 0 DROPPED PREFETCHES: 0
PSCL4 COMMIT LATE PREFETCHES: 0 NORMAL LATE: 0 MISSED OPPORTUNITY: 0 UNCOVERED: 0
PSCL4 PREFETCHES SAME FILL-ORIGIN LEVEL: 0 DIFFERENT FILL-ORIGIN LEVEL: 0

PSCL3 SPEC fills:          0  NON-SPEC fills:          0
PSCL3 Test counter :          0
PSCL3 Leapfrog:          0
PSCL3 MSHR merge:          0
PSCL3 TOTAL     ACCESS:          0  HIT:          0  MISS:          0  HIT %:       -nan  MISS %:       -nan   MPKI: 0
PSCL3 PREFETCH  REQUESTED:          0  ISSUED:          0  USEFUL:          0  USELESS:          0
PSCL3 USEFUL LOAD PREFETCHES:          0 PREFETCH ISSUED TO LOWER LEVEL:          0  ACCURACY: -nan
PSCL3 TIMELY PREFETCHES:          0 LATE PREFETCHES: 0 DROPPED PREFETCHES: 0
PSCL3 COMMIT LATE PREFETCHES: 0 NORMAL LATE: 0 MISSED OPPORTUNITY: 0 UNCOVERED: 0
PSCL3 PREFETCHES SAME FILL-ORIGIN LEVEL: 0 DIFFERENT FILL-ORIGIN LEVEL: 0

PSCL2 SPEC fills:          0  NON-SPEC fills:          0
PSCL2 Test counter :          0
PSCL2 Leapfrog:          0
PSCL2 MSHR merge:          0
PSCL2 TOTAL     ACCESS:          0  HIT:          0  MISS:          0  HIT %:       -nan  MISS %:       -nan   MPKI: 0
PSCL2 PREFETCH  REQUESTED:          0  ISSUED:          0  USEFUL:          0  USELESS:          0
PSCL2 USEFUL LOAD PREFETCHES:          0 PREFETCH ISSUED TO LOWER LEVEL:          0  ACCURACY: -nan
PSCL2 TIMELY PREFETCHES:          0 LATE PREFETCHES: 0 DROPPED PREFETCHES: 0
PSCL2 COMMIT LATE PREFETCHES: 0 NORMAL LATE: 0 MISSED OPPORTUNITY: 0 UNCOVERED: 0
PSCL2 PREFETCHES SAME FILL-ORIGIN LEVEL: 0 DIFFERENT FILL-ORIGIN LEVEL: 0

LLC SPEC fills:          0  NON-SPEC fills:     718948
LLC Test counter :          0
LLC Leapfrog:          0
LLC MSHR merge:          0
LLC TOTAL     ACCESS:   11572897  HIT:    2136329  MISS:    9436568  HIT %:    18.4598  MISS %:    81.5402   MPKI: 47.1828
LLC LOAD      TOTAL       ACCESS:    3475334  HIT:      11060  MISS:    3464274  HIT %:   0.318243  MISS %:    99.6818   MPKI: 17.3214
LLC LOAD      NON_SPEC    ACCESS:     720967  HIT:       2019  MISS:     718948  HIT %:   0.280041  MISS %:      99.72   MPKI: 3.59474
LLC LOAD      SPEC        ACCESS:    2754367  HIT:       9041  MISS:    2745326  HIT %:   0.328242  MISS %:    99.6718   MPKI: 13.7266
LLC RFO       NON_SPEC    ACCESS:     298767  HIT:        177  MISS:     298590  HIT %:  0.0592435  MISS %:    99.9408   MPKI: 1.49295
LLC PREFETCH  NON_SPEC    ACCESS:    3106391  HIT:      25628  MISS:    3080763  HIT %:   0.825009  MISS %:     99.175   MPKI: 15.4038
LLC WRITEBACK NON_SPEC    ACCESS:     495962  HIT:     495661  MISS:        301  HIT %:    99.9393  MISS %:  0.0606901   MPKI: 0.001505
LLC CLEAN_EVICTION NON_SPEC    ACCESS:    4066290  HIT:    1601931  MISS:    2464359  HIT %:    39.3954  MISS %:    60.6046   MPKI: 12.3218
LLC COMMIT LOAD NON_SPEC    ACCESS:     107874  HIT:        424  MISS:     107450  HIT %:   0.393051  MISS %:    99.6069   MPKI: 0.53725
LLC LOAD TRANSLATION NON_SPEC    ACCESS:      22265  HIT:       1448  MISS:      20817  HIT %:    6.50348  MISS %:    93.4965   MPKI: 0.104085
LLC TRANSLATION FROM L1D PREFETCHER NON_SPEC    ACCESS:         14  HIT:          0  MISS:         14  HIT %:          0  MISS %:        100   MPKI: 7e-05
LLC PREFETCH  REQUESTED:          0  ISSUED:          0  USEFUL:       3336  USELESS:    3075777
LLC USEFUL LOAD PREFETCHES:       3336 PREFETCH ISSUED TO LOWER LEVEL:    3080763  ACCURACY: 0.108285
LLC TIMELY PREFETCHES:       3336 LATE PREFETCHES: 0 DROPPED PREFETCHES: 0
LLC COMMIT LATE PREFETCHES: 0 NORMAL LATE: 0 MISSED OPPORTUNITY: 0 UNCOVERED: 0
LLC PREFETCHES SAME FILL-ORIGIN LEVEL: 0 DIFFERENT FILL-ORIGIN LEVEL: 0
LLC AVERAGE MISS LATENCY: 170.367 cycles
LLC AVERAGE MISS LATENCY LOAD: 195.376 cycles
LLC AVERAGE MISS LATENCY PREFETCH: 273.832 cycles
LLC AVERAGE MSHR OCCUPANCY: 3.08846
LLC MSHR FULL: 0
LLC RQ	ACCESS:    3904255	FORWARD:          0	MERGED:          0	TO_CACHE:    3904255
LLC WQ	ACCESS:    4562252	FORWARD:          0	MERGED:          0	TO_CACHE:    4562252
LLC PQ	ACCESS:    3106391	FORWARD:          0	MERGED:          0	TO_CACHE:    3106391

LLC Dense regions hint to LLC: 0

RAW hits: 1389217
Loads Generated: 64167520
Loads sent to L1D: 62778303
Stores Generated: 57343183
Stores sent to L1D: 57343188
Major fault: 0 Minor fault: 60491
Allocated PAGES: 60491
Total Load insts: 78207773
Total Non-spec loads: 10401842
Percentage of speculative loads: 86.6997

LeapFrogging counter: 1813742
Commit hits: 26462538 miss: 27642898
Commit hit %: 48.9092 miss %: 51.0908
Commits not translated: 0
Loads retired: 4138904
Stores retired: 57343188
Cache fills: 4138904
L1D response latency: 218.141 cycles
Load retirement latency: 383.795 cycles
OOO test counter: 0
Discarded buffer inserts: 26462538 hits: 58034 hit %: 0.219306
Filter prediction accuracy: -nan
Speculative prefetch buffer size: 0
CPU 0 L1D PC-based stride prefetcher final stats
Degree: 3
CPU 0 L1D PC-based stride prefetcher final stats
Degree: 3

DRAM Statistics
 CHANNEL 0
 RQ ROW_BUFFER_HIT:    2389479  ROW_BUFFER_MISS:    4582429
 DBUS_CONGESTED:       2666
 WQ ROW_BUFFER_HIT:     770217  ROW_BUFFER_MISS:    3788115  FULL:      44241

 AVG_CONGESTED_CYCLE: 5
 All warmup complete: 2
Channel 0 Bank busy for read cycles: 0
Channel 0 Bank busy for write cycles: 0
Channel 0
Rank 0
0banks busy for read cycles: 67711002
0banks busy for write cycles: 259612
1banks busy for read cycles: 157177139
1banks busy for write cycles: 44687360
2banks busy for read cycles: 56292956
2banks busy for write cycles: 33840176
3banks busy for read cycles: 34819176
3banks busy for write cycles: 23698227
4banks busy for read cycles: 26869030
4banks busy for write cycles: 16722545
5banks busy for read cycles: 21712344
5banks busy for write cycles: 11370133
6banks busy for read cycles: 18552029
6banks busy for write cycles: 7295659
7banks busy for read cycles: 12603535
7banks busy for write cycles: 11024317
8banks busy for read cycles: 6116743
8banks busy for write cycles: 60824945

CPU 0 Branch Prediction Accuracy: 99.1376% MPKI: 0.85602 Average ROB Occupancy at Mispredict: 247.601
Branch types
NOT_BRANCH: 180147862 90.0739%
BRANCH_DIRECT_JUMP: 976614 0.488307%
BRANCH_INDIRECT: 0 0%
BRANCH_CONDITIONAL: 18875250 9.43762%
BRANCH_DIRECT_CALL: 94 4.7e-05%
BRANCH_INDIRECT_CALL: 0 0%
BRANCH_RETURN: 94 4.7e-05%
BRANCH_OTHER: 0 0%

DRAM PAGES: 1048576
Allocated PAGES: 60491
