
*** ChampSim Multicore Out-of-Order Simulator ***

Warmup Instructions: 50000000
Simulation Instructions: 200000000
Number of CPUs: 1
LLC sets: 2048
LLC ways: 16
L0D sets: 16
L0D ways: 2
ROB size: 352
LQ size: 128
SQ size: 72
Secure Berti: OFF
Berti: OFF
Berti Fill: OFF
On commit prefetching: ON
Hit-based filter: OFF
Time-guarding: ON
Free-slotting: ON
Leap-frogging: ON
Train prefetcher on L0D bypass: OFF
No translation penalty for prefetchers: OFF
Prefetch to L0D only: OFF
Prefetch to L1D only: OFF
Clean evictions: ON
Commit loads: ON
Commit write: ON
Fill commit loads to L2C, LLC: ON
DRAM IO FREQUENCY: 6400
ROB SIZE: 352
Off-chip DRAM Size: 4096 MB Channels: 1 Width: 64-bit Data Rate: 6400 MT/s
CPU 0 runs /home/sumon/secure_berti/GhostMinion/../../traces/spec/605.mcf_s-1536B.champsimtrace.xz
.xz
BTB has LRU replacement policy
ITLB has LRU replacement policy
DTLB has LRU replacement policy
STLB has LRU replacement policy
L1I has LRU replacement policy
L0D has LRU replacement policy
CPU 0 L1D IP-based stride prefetcher
CPU 0 L1D IP-based stride prefetcher
L1D has LRU replacement policy
L2C has LRU replacement policy
LLC has LRU replacement policy
Heartbeat CPU 0 instructions: 10000003 cycles: 4479799 heartbeat IPC: 2.23224 cumulative IPC: 2.23224 (Simulation time: 0 hr 0 min 44 sec) 
Heartbeat CPU 0 instructions: 20000003 cycles: 8929409 heartbeat IPC: 2.24739 cumulative IPC: 2.23979 (Simulation time: 0 hr 1 min 28 sec) 
Heartbeat CPU 0 instructions: 30000001 cycles: 13422569 heartbeat IPC: 2.2256 cumulative IPC: 2.23504 (Simulation time: 0 hr 2 min 12 sec) 
Heartbeat CPU 0 instructions: 40000002 cycles: 17944280 heartbeat IPC: 2.21155 cumulative IPC: 2.22912 (Simulation time: 0 hr 3 min 0 sec) 
Heartbeat CPU 0 instructions: 50000003 cycles: 22488875 heartbeat IPC: 2.20042 cumulative IPC: 2.22332 (Simulation time: 0 hr 3 min 49 sec) 

Warmup complete CPU 0 instructions: 50000003 cycles: 22488875 (Simulation time: 0 hr 3 min 49 sec) 

Heartbeat CPU 0 instructions: 60000003 cycles: 72616052 heartbeat IPC: 0.199493 cumulative IPC: 0.199493 (Simulation time: 0 hr 5 min 22 sec) 
Heartbeat CPU 0 instructions: 70000003 cycles: 122887425 heartbeat IPC: 0.19892 cumulative IPC: 0.199206 (Simulation time: 0 hr 6 min 55 sec) 
Heartbeat CPU 0 instructions: 80000001 cycles: 173037739 heartbeat IPC: 0.1994 cumulative IPC: 0.199271 (Simulation time: 0 hr 8 min 29 sec) 
Heartbeat CPU 0 instructions: 90000000 cycles: 223629991 heartbeat IPC: 0.197659 cumulative IPC: 0.198865 (Simulation time: 0 hr 10 min 3 sec) 
Heartbeat CPU 0 instructions: 100000002 cycles: 274066433 heartbeat IPC: 0.198269 cumulative IPC: 0.198746 (Simulation time: 0 hr 11 min 38 sec) 
Heartbeat CPU 0 instructions: 110000000 cycles: 324581587 heartbeat IPC: 0.19796 cumulative IPC: 0.198615 (Simulation time: 0 hr 13 min 12 sec) 
Heartbeat CPU 0 instructions: 120000000 cycles: 375527244 heartbeat IPC: 0.196288 cumulative IPC: 0.198279 (Simulation time: 0 hr 14 min 47 sec) 
Heartbeat CPU 0 instructions: 130000003 cycles: 426492791 heartbeat IPC: 0.196211 cumulative IPC: 0.198018 (Simulation time: 0 hr 16 min 22 sec) 
Heartbeat CPU 0 instructions: 140000003 cycles: 477724367 heartbeat IPC: 0.195192 cumulative IPC: 0.1977 (Simulation time: 0 hr 17 min 57 sec) 
Heartbeat CPU 0 instructions: 150000001 cycles: 528662232 heartbeat IPC: 0.196318 cumulative IPC: 0.197561 (Simulation time: 0 hr 19 min 31 sec) 
Heartbeat CPU 0 instructions: 160000000 cycles: 579384281 heartbeat IPC: 0.197153 cumulative IPC: 0.197524 (Simulation time: 0 hr 22 min 11 sec) 
Heartbeat CPU 0 instructions: 170000002 cycles: 629956451 heartbeat IPC: 0.197737 cumulative IPC: 0.197541 (Simulation time: 0 hr 24 min 49 sec) 
Heartbeat CPU 0 instructions: 180000001 cycles: 679862809 heartbeat IPC: 0.200375 cumulative IPC: 0.197757 (Simulation time: 0 hr 27 min 26 sec) 
Heartbeat CPU 0 instructions: 190000000 cycles: 729791639 heartbeat IPC: 0.200285 cumulative IPC: 0.197935 (Simulation time: 0 hr 29 min 17 sec) 
Heartbeat CPU 0 instructions: 200000003 cycles: 779594631 heartbeat IPC: 0.200791 cumulative IPC: 0.198123 (Simulation time: 0 hr 30 min 43 sec) 
Heartbeat CPU 0 instructions: 210000000 cycles: 828893948 heartbeat IPC: 0.202843 cumulative IPC: 0.198411 (Simulation time: 0 hr 31 min 59 sec) 
Heartbeat CPU 0 instructions: 220000000 cycles: 878049045 heartbeat IPC: 0.203438 cumulative IPC: 0.1987 (Simulation time: 0 hr 33 min 7 sec) 
Heartbeat CPU 0 instructions: 230000000 cycles: 927398448 heartbeat IPC: 0.202637 cumulative IPC: 0.198915 (Simulation time: 0 hr 34 min 13 sec) 
Heartbeat CPU 0 instructions: 240000002 cycles: 976442491 heartbeat IPC: 0.203898 cumulative IPC: 0.199171 (Simulation time: 0 hr 35 min 18 sec) 
Heartbeat CPU 0 instructions: 250000001 cycles: 1025498871 heartbeat IPC: 0.203847 cumulative IPC: 0.1994 (Simulation time: 0 hr 36 min 22 sec) 
Finished CPU 0 instructions: 200000002 cycles: 1003009997 cumulative IPC: 0.1994 (Simulation time: 0 hr 36 min 22 sec) 
 Instruction ID: 250000381

ChampSim completed all CPUs

Region of Interest Statistics

CPU 0 cumulative IPC: 0.1994 instructions: 200000002 cycles: 1003009997
ITLB SPEC fills:          0  NON-SPEC fills:          0
ITLB Test counter :          0
ITLB Leapfrog:          0
ITLB MSHR merge:          0
ITLB TOTAL     ACCESS:   37752167  HIT:   37752167  MISS:          0  HIT %:        100  MISS %:          0   MPKI: 0
ITLB LOAD TRANSLATION NON_SPEC    ACCESS:   37752167  HIT:   37752167  MISS:          0  HIT %:        100  MISS %:          0   MPKI: 0
ITLB PREFETCH  REQUESTED:          0  ISSUED:          0  USEFUL:          0  USELESS:          0
ITLB USEFUL LOAD PREFETCHES:          0 PREFETCH ISSUED TO LOWER LEVEL:          0  ACCURACY: -nan
ITLB TIMELY PREFETCHES:          0 LATE PREFETCHES: 0 DROPPED PREFETCHES: 0
ITLB COMMIT LATE PREFETCHES: 0 NORMAL LATE: 0 MISSED OPPORTUNITY: 0 UNCOVERED: 0
ITLB PREFETCHES SAME FILL-ORIGIN LEVEL: 0 DIFFERENT FILL-ORIGIN LEVEL: 0
ITLB AVERAGE MISS LATENCY: -nan cycles
ITLB AVERAGE MISS LATENCY LOAD: -nan cycles
ITLB AVERAGE MISS LATENCY PREFETCH: -nan cycles
ITLB AVERAGE MSHR OCCUPANCY: 0
ITLB MSHR FULL: 0
ITLB RQ	ACCESS:   39231279	FORWARD:          0	MERGED:    1479112	TO_CACHE:   37752167

DTLB SPEC fills:          0  NON-SPEC fills:          0
DTLB Test counter :          0
DTLB Leapfrog:          0
DTLB MSHR merge:          0
DTLB TOTAL     ACCESS:   33894663  HIT:   29020322  MISS:    4874341  HIT %:    85.6191  MISS %:    14.3809   MPKI: 24.3717
DTLB LOAD TRANSLATION NON_SPEC    ACCESS:   33894663  HIT:   29020322  MISS:    4874341  HIT %:    85.6191  MISS %:    14.3809   MPKI: 24.3717
DTLB PREFETCH  REQUESTED:          0  ISSUED:          0  USEFUL:          0  USELESS:          0
DTLB USEFUL LOAD PREFETCHES:          0 PREFETCH ISSUED TO LOWER LEVEL:          0  ACCURACY: -nan
DTLB TIMELY PREFETCHES:          0 LATE PREFETCHES: 0 DROPPED PREFETCHES: 0
DTLB COMMIT LATE PREFETCHES: 0 NORMAL LATE: 0 MISSED OPPORTUNITY: 0 UNCOVERED: 0
DTLB PREFETCHES SAME FILL-ORIGIN LEVEL: 0 DIFFERENT FILL-ORIGIN LEVEL: 0
DTLB AVERAGE MISS LATENCY: 125.82 cycles
DTLB AVERAGE MISS LATENCY LOAD: -nan cycles
DTLB AVERAGE MISS LATENCY PREFETCH: -nan cycles
DTLB AVERAGE MSHR OCCUPANCY: 0.504951
DTLB MSHR FULL: 0
DTLB RQ	ACCESS:   38887152	FORWARD:          0	MERGED:    4939175	TO_CACHE:   33947977

STLB SPEC fills:          0  NON-SPEC fills:          0
STLB Test counter :          0
STLB Leapfrog:          0
STLB MSHR merge:          0
STLB TOTAL     ACCESS:    5251312  HIT:     607017  MISS:    4644295  HIT %:    11.5593  MISS %:    88.4407   MPKI: 23.2215
STLB LOAD TRANSLATION NON_SPEC    ACCESS:    4874341  HIT:     230493  MISS:    4643848  HIT %:     4.7287  MISS %:    95.2713   MPKI: 23.2192
STLB TRANSLATION FROM L1D PREFETCHER NON_SPEC    ACCESS:     376971  HIT:     376524  MISS:        447  HIT %:    99.8814  MISS %:   0.118577   MPKI: 0.002235
STLB PREFETCH  REQUESTED:          0  ISSUED:          0  USEFUL:          4  USELESS:        443
STLB USEFUL LOAD PREFETCHES:          4 PREFETCH ISSUED TO LOWER LEVEL:          0  ACCURACY: inf
STLB TIMELY PREFETCHES:          4 LATE PREFETCHES: 0 DROPPED PREFETCHES: 0
STLB COMMIT LATE PREFETCHES: 0 NORMAL LATE: 0 MISSED OPPORTUNITY: 0 UNCOVERED: 0
STLB PREFETCHES SAME FILL-ORIGIN LEVEL: 0 DIFFERENT FILL-ORIGIN LEVEL: 0
STLB AVERAGE MISS LATENCY: 122.588 cycles
STLB AVERAGE MISS LATENCY LOAD: -nan cycles
STLB AVERAGE MISS LATENCY PREFETCH: -nan cycles
STLB AVERAGE MSHR OCCUPANCY: 0.487894
STLB MSHR FULL: 0
STLB RQ	ACCESS:    5945292	FORWARD:          0	MERGED:     693981	TO_CACHE:    5251311

STLB Hit, L1D data hit: 0
STLB Hit, L2C data hit: 0
STLB Hit, LLC data hit: 0
STLB Hit, LLC data miss: 0
STLB STLB hints to L2: 0
L0D SPEC fills:   19769803  NON-SPEC fills:          0
L0D TimeGuard Request with older TS:     646123 Restricted eviction:       9679 read:    2467676
L0D Test counter :          0
L0D Leapfrog:          0
L0D MSHR merge:     929778
L0D TOTAL     ACCESS:   29088963  HIT:    2042769  MISS:   27046194  HIT %:    7.02249  MISS %:    92.9775   MPKI: 135.231
L0D LOAD      TOTAL       ACCESS:   29088963  HIT:    2042769  MISS:   27046194  HIT %:    7.02249  MISS %:    92.9775   MPKI: 135.231
L0D LOAD      NON_SPEC    ACCESS:    7646610  HIT:     379898  MISS:    7266712  HIT %:    4.96819  MISS %:    95.0318   MPKI: 36.3336
L0D LOAD      SPEC        ACCESS:   21442353  HIT:    1662871  MISS:   19779482  HIT %:    7.75508  MISS %:    92.2449   MPKI: 98.8974
L0D PREFETCH  REQUESTED:          0  ISSUED:          0  USEFUL:          0  USELESS:          0
L0D USEFUL LOAD PREFETCHES:          0 PREFETCH ISSUED TO LOWER LEVEL:          0  ACCURACY: -nan
L0D TIMELY PREFETCHES:          0 LATE PREFETCHES: 0 DROPPED PREFETCHES: 0
L0D COMMIT LATE PREFETCHES: 0 NORMAL LATE: 0 MISSED OPPORTUNITY: 0 UNCOVERED: 0
L0D PREFETCHES SAME FILL-ORIGIN LEVEL: 0 DIFFERENT FILL-ORIGIN LEVEL: 0
L0D AVERAGE MISS LATENCY: 43.4611 cycles
L0D AVERAGE MISS LATENCY LOAD: 43.4611 cycles
L0D AVERAGE MISS LATENCY PREFETCH: -nan cycles
L0D AVERAGE MSHR OCCUPANCY: 0.899495
L0D MSHR FULL: 0
L0D RQ	ACCESS:   49171847	FORWARD:          0	MERGED:   19153109	TO_CACHE:   30018738
L0D WQ	ACCESS:    8868414	FORWARD:          0	MERGED:          0	TO_CACHE:    8868414

L1D SPEC fills:          0  NON-SPEC fills:    3307873
L1D Test counter :          0
L1D Leapfrog:          0
L1D MSHR merge:       2527
L1D TOTAL     ACCESS:   71628088  HIT:   52714897  MISS:   18913191  HIT %:    73.5953  MISS %:    26.4047   MPKI: 94.566
L1D LOAD      TOTAL       ACCESS:   27046118  HIT:   16720368  MISS:   10325750  HIT %:    61.8217  MISS %:    38.1783   MPKI: 51.6287
L1D LOAD      NON_SPEC    ACCESS:    7266658  HIT:    3958785  MISS:    3307873  HIT %:    54.4788  MISS %:    45.5212   MPKI: 16.5394
L1D LOAD      SPEC        ACCESS:   19779460  HIT:   12761583  MISS:    7017877  HIT %:    64.5194  MISS %:    35.4806   MPKI: 35.0894
L1D RFO       NON_SPEC    ACCESS:    8867471  HIT:    8313124  MISS:     554347  HIT %:    93.7485  MISS %:    6.25147   MPKI: 2.77173
L1D PREFETCH  NON_SPEC    ACCESS:    1064795  HIT:      44551  MISS:    1020244  HIT %:      4.184  MISS %:     95.816   MPKI: 5.10122
L1D COMMIT LOAD NON_SPEC    ACCESS:   15260830  HIT:   15256467  MISS:       4363  HIT %:    99.9714  MISS %:  0.0285895   MPKI: 0.021815
L1D COMMIT WRITE NON_SPEC    ACCESS:   19388874  HIT:   12380387  MISS:    7008487  HIT %:     63.853  MISS %:     36.147   MPKI: 35.0424
L1D PREFETCH  REQUESTED:    1071357  ISSUED:    1071357  USEFUL:     208805  USELESS:     811442
L1D USEFUL LOAD PREFETCHES:     208805 PREFETCH ISSUED TO LOWER LEVEL:    1022705  ACCURACY: 20.4169
L1D TIMELY PREFETCHES:     208805 LATE PREFETCHES: 2461 DROPPED PREFETCHES: 0
L1D COMMIT LATE PREFETCHES: 2141 NORMAL LATE: 4272 MISSED OPPORTUNITY: 186 UNCOVERED: 10319174
L1D PREFETCHES SAME FILL-ORIGIN LEVEL: 1022705 DIFFERENT FILL-ORIGIN LEVEL: 0
L1D AVERAGE MISS LATENCY: 57.0186 cycles
L1D AVERAGE MISS LATENCY LOAD: 100.373 cycles
L1D AVERAGE MISS LATENCY PREFETCH: 25.8178 cycles
L1D AVERAGE MSHR OCCUPANCY: 0.711634
L1D MSHR FULL: 0
L1D RQ	ACCESS:   49082784	FORWARD:          0	MERGED:    6775662	TO_CACHE:   42307122
L1D WQ	ACCESS:   28257290	FORWARD:          0	MERGED:          0	TO_CACHE:   28257290
L1D PQ	ACCESS:    1071357	FORWARD:          0	MERGED:        405	TO_CACHE:    1070952

L1D UNIQUE REGIONS ACCESSED: 0
L1D REGIONS CONFLICTS: 0
L1D Cross Page Prefetch Requests: 0
L1D Same Page Prefetch Requests: 1203569
L1D ROI Sum of L1D PQ occupancy: 15481756
L1D PREFETCHES PUSHED FROM L2C: 0
L1I SPEC fills:          0  NON-SPEC fills:          0
L1I Test counter :          0
L1I Leapfrog:          0
L1I MSHR merge:          0
L1I TOTAL     ACCESS:   39231277  HIT:   39231277  MISS:          0  HIT %:        100  MISS %:          0   MPKI: 0
L1I LOAD      TOTAL       ACCESS:   39231277  HIT:   39231277  MISS:          0  HIT %:        100  MISS %:          0   MPKI: 0
L1I LOAD      NON_SPEC    ACCESS:   39231277  HIT:   39231277  MISS:          0  HIT %:        100  MISS %:          0   MPKI: 0
L1I PREFETCH  REQUESTED:          0  ISSUED:          0  USEFUL:          0  USELESS:          0
L1I USEFUL LOAD PREFETCHES:          0 PREFETCH ISSUED TO LOWER LEVEL:          0  ACCURACY: -nan
L1I TIMELY PREFETCHES:          0 LATE PREFETCHES: 0 DROPPED PREFETCHES: 0
L1I COMMIT LATE PREFETCHES: 0 NORMAL LATE: 0 MISSED OPPORTUNITY: 0 UNCOVERED: 0
L1I PREFETCHES SAME FILL-ORIGIN LEVEL: 0 DIFFERENT FILL-ORIGIN LEVEL: 0
L1I AVERAGE MISS LATENCY: -nan cycles
L1I AVERAGE MISS LATENCY LOAD: -nan cycles
L1I AVERAGE MISS LATENCY PREFETCH: -nan cycles
L1I AVERAGE MSHR OCCUPANCY: 0
L1I MSHR FULL: 0
L1I RQ	ACCESS:   60566810	FORWARD:          0	MERGED:   21335531	TO_CACHE:   39231279

BTB SPEC fills:          0  NON-SPEC fills:          0
BTB Test counter :          0
BTB Leapfrog:          0
BTB MSHR merge:          0
BTB TOTAL     ACCESS:   26649158  HIT:   26649150  MISS:          8  HIT %:        100  MISS %: 3.00197e-05   MPKI: 4e-05
BTB BRANCH_DIRECT_JUMP	ACCESS:    4549688  HIT:    4549686  MISS:          2
BTB BRANCH_INDIRECT	ACCESS:          0  HIT:          0  MISS:          0
BTB BRANCH_CONDITIONAL	ACCESS:   13231060  HIT:   13231056  MISS:          4
BTB BRANCH_DIRECT_CALL	ACCESS:    4434205  HIT:    4434204  MISS:          1
BTB BRANCH_INDIRECT_CALL	ACCESS:          0  HIT:          0  MISS:          0
BTB BRANCH_RETURN	ACCESS:    4434205  HIT:    4434204  MISS:          1
BTB BRANCH_OTHER ACCESS:          0  HIT:          0  MISS:          0

L2C SPEC fills:          0  NON-SPEC fills:     861723
L2C Test counter :          0
L2C Leapfrog:          0
L2C MSHR merge:          0
L2C TOTAL     ACCESS:   42910737  HIT:   27199908  MISS:   15710829  HIT %:    63.3872  MISS %:    36.6128   MPKI: 78.5541
L2C LOAD      TOTAL       ACCESS:   10323299  HIT:    4014086  MISS:    6309213  HIT %:    38.8838  MISS %:    61.1162   MPKI: 31.5461
L2C LOAD      NON_SPEC    ACCESS:    3306538  HIT:    2444815  MISS:     861723  HIT %:    73.9388  MISS %:    26.0612   MPKI: 4.30861
L2C LOAD      SPEC        ACCESS:    7016761  HIT:    1569271  MISS:    5447490  HIT %:    22.3646  MISS %:    77.6354   MPKI: 27.2374
L2C RFO       NON_SPEC    ACCESS:     554347  HIT:     320481  MISS:     233866  HIT %:    57.8123  MISS %:    42.1877   MPKI: 1.16933
L2C PREFETCH  NON_SPEC    ACCESS:    1022705  HIT:     809931  MISS:     212774  HIT %:     79.195  MISS %:     20.805   MPKI: 1.06387
L2C WRITEBACK NON_SPEC    ACCESS:     717847  HIT:     717847  MISS:          0  HIT %:        100  MISS %:          0   MPKI: 0
L2C CLEAN_EVICTION NON_SPEC    ACCESS:    7066716  HIT:    1435863  MISS:    5630853  HIT %:    20.3187  MISS %:    79.6813   MPKI: 28.1543
L2C COMMIT LOAD NON_SPEC    ACCESS:       4353  HIT:       2594  MISS:       1759  HIT %:    59.5911  MISS %:    40.4089   MPKI: 0.008795
L2C LOAD TRANSLATION NON_SPEC    ACCESS:   23219235  HIT:   19897406  MISS:    3321829  HIT %:    85.6936  MISS %:    14.3064   MPKI: 16.6091
L2C TRANSLATION FROM L1D PREFETCHER NON_SPEC    ACCESS:       2235  HIT:       1700  MISS:        535  HIT %:    76.0626  MISS %:    23.9374   MPKI: 0.002675
L2C PREFETCH  REQUESTED:          0  ISSUED:          0  USEFUL:       2445  USELESS:     210507
L2C USEFUL LOAD PREFETCHES:       2445 PREFETCH ISSUED TO LOWER LEVEL:     212774  ACCURACY: 1.14911
L2C TIMELY PREFETCHES:       2445 LATE PREFETCHES: 0 DROPPED PREFETCHES: 0
L2C COMMIT LATE PREFETCHES: 0 NORMAL LATE: 0 MISSED OPPORTUNITY: 0 UNCOVERED: 6309213
L2C PREFETCHES SAME FILL-ORIGIN LEVEL: 0 DIFFERENT FILL-ORIGIN LEVEL: 0
L2C AVERAGE MISS LATENCY: 65.6114 cycles
L2C AVERAGE MISS LATENCY LOAD: 143.91 cycles
L2C AVERAGE MISS LATENCY PREFETCH: 49.4873 cycles
L2C AVERAGE MSHR OCCUPANCY: 0.658457
L2C MSHR FULL: 0
L2C RQ	ACCESS:   34103469	FORWARD:          0	MERGED:          0	TO_CACHE:   34103469
L2C WQ	ACCESS:    7784563	FORWARD:          0	MERGED:          0	TO_CACHE:    7784563
L2C PQ	ACCESS:    1022705	FORWARD:          0	MERGED:          0	TO_CACHE:    1022705

L2C Instructions Evicting Data 0
L2C Translations Evicting Data 1818898
L2C Data Evicting Data 872413
L2C Instructions Evicting Instructions 0
L2C Translations Evicting Instructions 0
L2C Data Evicting Instructions 0
L2C Instructions Evicting Translations 0
L2C Translations Evicting Translations 1503466
L2C Data Evicting Translations 437709
L2C Dense regions hint from L2: 0
PSCL5 SPEC fills:          0  NON-SPEC fills:          0
PSCL5 Test counter :          0
PSCL5 Leapfrog:          0
PSCL5 MSHR merge:          0
PSCL5 TOTAL     ACCESS:          0  HIT:          0  MISS:          0  HIT %:       -nan  MISS %:       -nan   MPKI: 0
PSCL5 PREFETCH  REQUESTED:          0  ISSUED:          0  USEFUL:          0  USELESS:          0
PSCL5 USEFUL LOAD PREFETCHES:          0 PREFETCH ISSUED TO LOWER LEVEL:          0  ACCURACY: -nan
PSCL5 TIMELY PREFETCHES:          0 LATE PREFETCHES: 0 DROPPED PREFETCHES: 0
PSCL5 COMMIT LATE PREFETCHES: 0 NORMAL LATE: 0 MISSED OPPORTUNITY: 0 UNCOVERED: 0
PSCL5 PREFETCHES SAME FILL-ORIGIN LEVEL: 0 DIFFERENT FILL-ORIGIN LEVEL: 0

PSCL4 SPEC fills:          0  NON-SPEC fills:          0
PSCL4 Test counter :          0
PSCL4 Leapfrog:          0
PSCL4 MSHR merge:          0
PSCL4 TOTAL     ACCESS:          0  HIT:          0  MISS:          0  HIT %:       -nan  MISS %:       -nan   MPKI: 0
PSCL4 PREFETCH  REQUESTED:          0  ISSUED:          0  USEFUL:          0  USELESS:          0
PSCL4 USEFUL LOAD PREFETCHES:          0 PREFETCH ISSUED TO LOWER LEVEL:          0  ACCURACY: -nan
PSCL4 TIMELY PREFETCHES:          0 LATE PREFETCHES: 0 DROPPED PREFETCHES: 0
PSCL4 COMMIT LATE PREFETCHES: 0 NORMAL LATE: 0 MISSED OPPORTUNITY: 0 UNCOVERED: 0
PSCL4 PREFETCHES SAME FILL-ORIGIN LEVEL: 0 DIFFERENT FILL-ORIGIN LEVEL: 0

PSCL3 SPEC fills:          0  NON-SPEC fills:          0
PSCL3 Test counter :          0
PSCL3 Leapfrog:          0
PSCL3 MSHR merge:          0
PSCL3 TOTAL     ACCESS:          0  HIT:          0  MISS:          0  HIT %:       -nan  MISS %:       -nan   MPKI: 0
PSCL3 PREFETCH  REQUESTED:          0  ISSUED:          0  USEFUL:          0  USELESS:          0
PSCL3 USEFUL LOAD PREFETCHES:          0 PREFETCH ISSUED TO LOWER LEVEL:          0  ACCURACY: -nan
PSCL3 TIMELY PREFETCHES:          0 LATE PREFETCHES: 0 DROPPED PREFETCHES: 0
PSCL3 COMMIT LATE PREFETCHES: 0 NORMAL LATE: 0 MISSED OPPORTUNITY: 0 UNCOVERED: 0
PSCL3 PREFETCHES SAME FILL-ORIGIN LEVEL: 0 DIFFERENT FILL-ORIGIN LEVEL: 0

PSCL2 SPEC fills:          0  NON-SPEC fills:          0
PSCL2 Test counter :          0
PSCL2 Leapfrog:          0
PSCL2 MSHR merge:          0
PSCL2 TOTAL     ACCESS:          0  HIT:          0  MISS:          0  HIT %:       -nan  MISS %:       -nan   MPKI: 0
PSCL2 PREFETCH  REQUESTED:          0  ISSUED:          0  USEFUL:          0  USELESS:          0
PSCL2 USEFUL LOAD PREFETCHES:          0 PREFETCH ISSUED TO LOWER LEVEL:          0  ACCURACY: -nan
PSCL2 TIMELY PREFETCHES:          0 LATE PREFETCHES: 0 DROPPED PREFETCHES: 0
PSCL2 COMMIT LATE PREFETCHES: 0 NORMAL LATE: 0 MISSED OPPORTUNITY: 0 UNCOVERED: 0
PSCL2 PREFETCHES SAME FILL-ORIGIN LEVEL: 0 DIFFERENT FILL-ORIGIN LEVEL: 0

LLC SPEC fills:          0  NON-SPEC fills:     322226
LLC Test counter :          0
LLC Leapfrog:          0
LLC MSHR merge:          0
LLC TOTAL     ACCESS:   16232579  HIT:    6407686  MISS:    9824893  HIT %:    39.4742  MISS %:    60.5258   MPKI: 49.1245
LLC LOAD      TOTAL       ACCESS:    6309116  HIT:    1278252  MISS:    5030864  HIT %:    20.2604  MISS %:    79.7396   MPKI: 25.1543
LLC LOAD      NON_SPEC    ACCESS:     861634  HIT:     539408  MISS:     322226  HIT %:    62.6029  MISS %:    37.3971   MPKI: 1.61113
LLC LOAD      SPEC        ACCESS:    5447482  HIT:     738844  MISS:    4708638  HIT %:     13.563  MISS %:     86.437   MPKI: 23.5432
LLC RFO       NON_SPEC    ACCESS:     233862  HIT:     233860  MISS:          2  HIT %:    99.9991  MISS %: 0.000855205   MPKI: 1e-05
LLC PREFETCH  NON_SPEC    ACCESS:     212773  HIT:     191219  MISS:      21554  HIT %:      89.87  MISS %:      10.13   MPKI: 0.10777
LLC WRITEBACK NON_SPEC    ACCESS:     411726  HIT:     411726  MISS:          0  HIT %:        100  MISS %:          0   MPKI: 0
LLC CLEAN_EVICTION NON_SPEC    ACCESS:    5740979  HIT:     999747  MISS:    4741232  HIT %:    17.4142  MISS %:    82.5858   MPKI: 23.7062
LLC COMMIT LOAD NON_SPEC    ACCESS:       1759  HIT:        886  MISS:        873  HIT %:    50.3695  MISS %:    49.6305   MPKI: 0.004365
LLC LOAD TRANSLATION NON_SPEC    ACCESS:    3321829  HIT:    3291473  MISS:      30356  HIT %:    99.0862  MISS %:   0.913834   MPKI: 0.15178
LLC TRANSLATION FROM L1D PREFETCHER NON_SPEC    ACCESS:        535  HIT:        523  MISS:         12  HIT %:     97.757  MISS %:    2.24299   MPKI: 6e-05
LLC PREFETCH  REQUESTED:          0  ISSUED:          0  USEFUL:        493  USELESS:      20709
LLC USEFUL LOAD PREFETCHES:        493 PREFETCH ISSUED TO LOWER LEVEL:      21554  ACCURACY: 2.28728
LLC TIMELY PREFETCHES:        493 LATE PREFETCHES: 0 DROPPED PREFETCHES: 0
LLC COMMIT LATE PREFETCHES: 0 NORMAL LATE: 0 MISSED OPPORTUNITY: 0 UNCOVERED: 0
LLC PREFETCHES SAME FILL-ORIGIN LEVEL: 0 DIFFERENT FILL-ORIGIN LEVEL: 0
LLC AVERAGE MISS LATENCY: 79.0439 cycles
LLC AVERAGE MISS LATENCY LOAD: 152.445 cycles
LLC AVERAGE MISS LATENCY PREFETCH: 190.791 cycles
LLC AVERAGE MSHR OCCUPANCY: 0.664846
LLC MSHR FULL: 0
LLC RQ	ACCESS:    9867202	FORWARD:          0	MERGED:          0	TO_CACHE:    9867101
LLC WQ	ACCESS:    6152704	FORWARD:        102	MERGED:          0	TO_CACHE:    6152704
LLC PQ	ACCESS:     212774	FORWARD:          0	MERGED:          0	TO_CACHE:     212773

LLC Dense regions hint to LLC: 0

RAW hits: 4036872
Loads Generated: 53208719
Loads sent to L1D: 49171847
Stores Generated: 8868414
Stores sent to L1D: 8868414
Major fault: 0 Minor fault: 101164
Allocated PAGES: 101164
Total Load insts: 61412269
Total Non-spec loads: 9116903
Percentage of speculative loads: 85.1546

LeapFrogging counter: 0
Commit hits: 19388877 miss: 22036592
Commit hit %: 46.8042 miss %: 53.1958
Commits not translated: 0
Loads retired: 10325750
Stores retired: 8868414
Cache fills: 10325750
L1D response latency: 100.373 cycles
Load retirement latency: 232.549 cycles
OOO test counter: 0
Discarded buffer inserts: 19388877 hits: 93 hit %: 0.000479656
Filter prediction accuracy: -nan
Speculative prefetch buffer size: 0
CPU 0 L1D PC-based stride prefetcher final stats
Degree: 3
CPU 0 L1D PC-based stride prefetcher final stats
Degree: 3

DRAM Statistics
 CHANNEL 0
 RQ ROW_BUFFER_HIT:      11000  ROW_BUFFER_MISS:    5072659
 DBUS_CONGESTED:         89
 WQ ROW_BUFFER_HIT:    1415581  ROW_BUFFER_MISS:    3598198  FULL:          0

 AVG_CONGESTED_CYCLE: 5
 All warmup complete: 2
Channel 0 Bank busy for read cycles: 0
Channel 0 Bank busy for write cycles: 0
Channel 0
Rank 0
0banks busy for read cycles: 64032298
0banks busy for write cycles: 631865
1banks busy for read cycles: 388915227
1banks busy for write cycles: 108752473
2banks busy for read cycles: 134672316
2banks busy for write cycles: 94568781
3banks busy for read cycles: 31703613
3banks busy for write cycles: 71008357
4banks busy for read cycles: 1944286
4banks busy for write cycles: 50584975
5banks busy for read cycles: 74380
5banks busy for write cycles: 31016357
6banks busy for read cycles: 8980
6banks busy for write cycles: 15510280
7banks busy for read cycles: 544
7banks busy for write cycles: 6458355
8banks busy for read cycles: 0
8banks busy for write cycles: 3126911

CPU 0 Branch Prediction Accuracy: 99.988% MPKI: 0.01864 Average ROB Occupancy at Mispredict: 327.171
Branch types
NOT_BRANCH: 168845084 84.4225%
BRANCH_DIRECT_JUMP: 4549688 2.27484%
BRANCH_INDIRECT: 0 0%
BRANCH_CONDITIONAL: 17736819 8.86841%
BRANCH_DIRECT_CALL: 4434205 2.2171%
BRANCH_INDIRECT_CALL: 0 0%
BRANCH_RETURN: 4434205 2.2171%
BRANCH_OTHER: 0 0%

DRAM PAGES: 1048576
Allocated PAGES: 101164
