
*** ChampSim Multicore Out-of-Order Simulator ***

Warmup Instructions: 50000000
Simulation Instructions: 200000000
Number of CPUs: 1
LLC sets: 2048
LLC ways: 16
L0D sets: 16
L0D ways: 2
ROB size: 352
LQ size: 128
SQ size: 72
Secure Berti: OFF
Berti: OFF
Berti Fill: OFF
On commit prefetching: ON
Hit-based filter: OFF
Time-guarding: ON
Free-slotting: ON
Leap-frogging: ON
Train prefetcher on L0D bypass: OFF
No translation penalty for prefetchers: OFF
Prefetch to L0D only: OFF
Prefetch to L1D only: OFF
Clean evictions: ON
Commit loads: ON
Commit write: ON
Fill commit loads to L2C, LLC: ON
DRAM IO FREQUENCY: 6400
ROB SIZE: 352
Off-chip DRAM Size: 4096 MB Channels: 1 Width: 64-bit Data Rate: 6400 MT/s
CPU 0 runs /home/sumon/secure_berti/GhostMinion/../../traces/spec/605.mcf_s-472B.champsimtrace.xz
.xz
BTB has LRU replacement policy
ITLB has LRU replacement policy
DTLB has LRU replacement policy
STLB has LRU replacement policy
L1I has LRU replacement policy
L0D has LRU replacement policy
CPU 0 L1D IP-based stride prefetcher
CPU 0 L1D IP-based stride prefetcher
L1D has LRU replacement policy
L2C has LRU replacement policy
LLC has LRU replacement policy
Heartbeat CPU 0 instructions: 10000001 cycles: 5599545 heartbeat IPC: 1.78586 cumulative IPC: 1.78586 (Simulation time: 0 hr 1 min 30 sec) 
Heartbeat CPU 0 instructions: 20000001 cycles: 10929563 heartbeat IPC: 1.87617 cumulative IPC: 1.8299 (Simulation time: 0 hr 3 min 22 sec) 
Heartbeat CPU 0 instructions: 30000002 cycles: 16152859 heartbeat IPC: 1.9145 cumulative IPC: 1.85726 (Simulation time: 0 hr 5 min 16 sec) 
Heartbeat CPU 0 instructions: 40000001 cycles: 21786135 heartbeat IPC: 1.77517 cumulative IPC: 1.83603 (Simulation time: 0 hr 6 min 55 sec) 
Heartbeat CPU 0 instructions: 50000001 cycles: 27299186 heartbeat IPC: 1.81388 cumulative IPC: 1.83156 (Simulation time: 0 hr 8 min 34 sec) 

Warmup complete CPU 0 instructions: 50000001 cycles: 27299186 (Simulation time: 0 hr 8 min 34 sec) 

Heartbeat CPU 0 instructions: 60000001 cycles: 65711748 heartbeat IPC: 0.260332 cumulative IPC: 0.260332 (Simulation time: 0 hr 10 min 57 sec) 
Heartbeat CPU 0 instructions: 70000003 cycles: 100629668 heartbeat IPC: 0.286386 cumulative IPC: 0.272738 (Simulation time: 0 hr 13 min 15 sec) 
Heartbeat CPU 0 instructions: 80000002 cycles: 148820042 heartbeat IPC: 0.20751 cumulative IPC: 0.246871 (Simulation time: 0 hr 15 min 56 sec) 
Heartbeat CPU 0 instructions: 90000000 cycles: 183758373 heartbeat IPC: 0.286219 cumulative IPC: 0.255658 (Simulation time: 0 hr 18 min 12 sec) 
Heartbeat CPU 0 instructions: 100000002 cycles: 228007528 heartbeat IPC: 0.225993 cumulative IPC: 0.249118 (Simulation time: 0 hr 20 min 12 sec) 
Heartbeat CPU 0 instructions: 110000000 cycles: 261252268 heartbeat IPC: 0.300799 cumulative IPC: 0.256462 (Simulation time: 0 hr 21 min 26 sec) 
Heartbeat CPU 0 instructions: 120000002 cycles: 300588050 heartbeat IPC: 0.254221 cumulative IPC: 0.256139 (Simulation time: 0 hr 22 min 45 sec) 
Heartbeat CPU 0 instructions: 130000002 cycles: 343135026 heartbeat IPC: 0.235034 cumulative IPC: 0.253296 (Simulation time: 0 hr 24 min 8 sec) 
Heartbeat CPU 0 instructions: 140000003 cycles: 386444148 heartbeat IPC: 0.230898 cumulative IPC: 0.250595 (Simulation time: 0 hr 25 min 31 sec) 
Heartbeat CPU 0 instructions: 150000002 cycles: 430071295 heartbeat IPC: 0.229215 cumulative IPC: 0.248279 (Simulation time: 0 hr 26 min 54 sec) 
Heartbeat CPU 0 instructions: 160000003 cycles: 468667820 heartbeat IPC: 0.259091 cumulative IPC: 0.249225 (Simulation time: 0 hr 28 min 10 sec) 
Heartbeat CPU 0 instructions: 170000001 cycles: 504263223 heartbeat IPC: 0.280935 cumulative IPC: 0.251591 (Simulation time: 0 hr 29 min 20 sec) 
Heartbeat CPU 0 instructions: 180000002 cycles: 537133077 heartbeat IPC: 0.30423 cumulative IPC: 0.254985 (Simulation time: 0 hr 30 min 28 sec) 
Heartbeat CPU 0 instructions: 190000000 cycles: 588368853 heartbeat IPC: 0.195176 cumulative IPC: 0.249523 (Simulation time: 0 hr 31 min 51 sec) 
Heartbeat CPU 0 instructions: 200000002 cycles: 627202450 heartbeat IPC: 0.257509 cumulative IPC: 0.25004 (Simulation time: 0 hr 33 min 2 sec) 
Heartbeat CPU 0 instructions: 210000003 cycles: 663389265 heartbeat IPC: 0.276344 cumulative IPC: 0.251537 (Simulation time: 0 hr 34 min 9 sec) 
Heartbeat CPU 0 instructions: 220000000 cycles: 705743065 heartbeat IPC: 0.236106 cumulative IPC: 0.250573 (Simulation time: 0 hr 35 min 22 sec) 
Heartbeat CPU 0 instructions: 230000001 cycles: 745781688 heartbeat IPC: 0.249759 cumulative IPC: 0.250528 (Simulation time: 0 hr 36 min 33 sec) 
Heartbeat CPU 0 instructions: 240000002 cycles: 799343838 heartbeat IPC: 0.186699 cumulative IPC: 0.2461 (Simulation time: 0 hr 37 min 52 sec) 
Heartbeat CPU 0 instructions: 250000000 cycles: 866803508 heartbeat IPC: 0.148237 cumulative IPC: 0.238236 (Simulation time: 0 hr 39 min 16 sec) 
Finished CPU 0 instructions: 200000000 cycles: 839504324 cumulative IPC: 0.238236 (Simulation time: 0 hr 39 min 16 sec) 
 Instruction ID: 250000382

ChampSim completed all CPUs

Region of Interest Statistics

CPU 0 cumulative IPC: 0.238236 instructions: 200000000 cycles: 839504324
ITLB SPEC fills:          0  NON-SPEC fills:          0
ITLB Test counter :          0
ITLB Leapfrog:          0
ITLB MSHR merge:          0
ITLB TOTAL     ACCESS:   35635042  HIT:   35635042  MISS:          0  HIT %:        100  MISS %:          0   MPKI: 0
ITLB LOAD TRANSLATION NON_SPEC    ACCESS:   35635042  HIT:   35635042  MISS:          0  HIT %:        100  MISS %:          0   MPKI: 0
ITLB PREFETCH  REQUESTED:          0  ISSUED:          0  USEFUL:          0  USELESS:          0
ITLB USEFUL LOAD PREFETCHES:          0 PREFETCH ISSUED TO LOWER LEVEL:          0  ACCURACY: -nan
ITLB TIMELY PREFETCHES:          0 LATE PREFETCHES: 0 DROPPED PREFETCHES: 0
ITLB COMMIT LATE PREFETCHES: 0 NORMAL LATE: 0 MISSED OPPORTUNITY: 0 UNCOVERED: 0
ITLB PREFETCHES SAME FILL-ORIGIN LEVEL: 0 DIFFERENT FILL-ORIGIN LEVEL: 0
ITLB AVERAGE MISS LATENCY: -nan cycles
ITLB AVERAGE MISS LATENCY LOAD: -nan cycles
ITLB AVERAGE MISS LATENCY PREFETCH: -nan cycles
ITLB AVERAGE MSHR OCCUPANCY: 0
ITLB MSHR FULL: 0
ITLB RQ	ACCESS:   45335987	FORWARD:          0	MERGED:    9700946	TO_CACHE:   35635041

DTLB SPEC fills:          0  NON-SPEC fills:          0
DTLB Test counter :          0
DTLB Leapfrog:          0
DTLB MSHR merge:          0
DTLB TOTAL     ACCESS:   56531790  HIT:   55816624  MISS:     715166  HIT %:    98.7349  MISS %:    1.26507   MPKI: 3.57583
DTLB LOAD TRANSLATION NON_SPEC    ACCESS:   56531790  HIT:   55816624  MISS:     715166  HIT %:    98.7349  MISS %:    1.26507   MPKI: 3.57583
DTLB PREFETCH  REQUESTED:          0  ISSUED:          0  USEFUL:          0  USELESS:          0
DTLB USEFUL LOAD PREFETCHES:          0 PREFETCH ISSUED TO LOWER LEVEL:          0  ACCURACY: -nan
DTLB TIMELY PREFETCHES:          0 LATE PREFETCHES: 0 DROPPED PREFETCHES: 0
DTLB COMMIT LATE PREFETCHES: 0 NORMAL LATE: 0 MISSED OPPORTUNITY: 0 UNCOVERED: 0
DTLB PREFETCHES SAME FILL-ORIGIN LEVEL: 0 DIFFERENT FILL-ORIGIN LEVEL: 0
DTLB AVERAGE MISS LATENCY: 56.8311 cycles
DTLB AVERAGE MISS LATENCY LOAD: -nan cycles
DTLB AVERAGE MISS LATENCY PREFETCH: -nan cycles
DTLB AVERAGE MSHR OCCUPANCY: 0.0319641
DTLB MSHR FULL: 0
DTLB RQ	ACCESS:   92007481	FORWARD:          0	MERGED:   35184381	TO_CACHE:   56823100

STLB SPEC fills:          0  NON-SPEC fills:          0
STLB Test counter :          0
STLB Leapfrog:          0
STLB MSHR merge:          0
STLB TOTAL     ACCESS:    5264943  HIT:    5005269  MISS:     259674  HIT %:    95.0679  MISS %:    4.93213   MPKI: 1.29837
STLB LOAD TRANSLATION NON_SPEC    ACCESS:     715166  HIT:     455509  MISS:     259657  HIT %:    63.6928  MISS %:    36.3072   MPKI: 1.29828
STLB TRANSLATION FROM L1D PREFETCHER NON_SPEC    ACCESS:    4549777  HIT:    4549760  MISS:         17  HIT %:    99.9996  MISS %: 0.000373645   MPKI: 8.5e-05
STLB PREFETCH  REQUESTED:          0  ISSUED:          0  USEFUL:          9  USELESS:          8
STLB USEFUL LOAD PREFETCHES:          9 PREFETCH ISSUED TO LOWER LEVEL:          0  ACCURACY: inf
STLB TIMELY PREFETCHES:          9 LATE PREFETCHES: 0 DROPPED PREFETCHES: 0
STLB COMMIT LATE PREFETCHES: 0 NORMAL LATE: 0 MISSED OPPORTUNITY: 0 UNCOVERED: 0
STLB PREFETCHES SAME FILL-ORIGIN LEVEL: 0 DIFFERENT FILL-ORIGIN LEVEL: 0
STLB AVERAGE MISS LATENCY: 131.717 cycles
STLB AVERAGE MISS LATENCY LOAD: -nan cycles
STLB AVERAGE MISS LATENCY PREFETCH: -nan cycles
STLB AVERAGE MSHR OCCUPANCY: 0.0369301
STLB MSHR FULL: 0
STLB RQ	ACCESS:   14518262	FORWARD:          0	MERGED:    9253319	TO_CACHE:    5264943

STLB Hit, L1D data hit: 0
STLB Hit, L2C data hit: 0
STLB Hit, LLC data hit: 0
STLB Hit, LLC data miss: 0
STLB STLB hints to L2: 0
L0D SPEC fills:   29303687  NON-SPEC fills:          0
L0D TimeGuard Request with older TS:     758551 Restricted eviction:     208515 read:    1338735
L0D Test counter :          0
L0D Leapfrog:          0
L0D MSHR merge:    2547922
L0D TOTAL     ACCESS:   43211148  HIT:    6833946  MISS:   36377202  HIT %:    15.8152  MISS %:    84.1848   MPKI: 181.886
L0D LOAD      TOTAL       ACCESS:   43211148  HIT:    6833946  MISS:   36377202  HIT %:    15.8152  MISS %:    84.1848   MPKI: 181.886
L0D LOAD      NON_SPEC    ACCESS:    7378357  HIT:     513357  MISS:    6865000  HIT %:    6.95761  MISS %:    93.0424   MPKI: 34.325
L0D LOAD      SPEC        ACCESS:   35832791  HIT:    6320589  MISS:   29512202  HIT %:    17.6391  MISS %:    82.3609   MPKI: 147.561
L0D PREFETCH  REQUESTED:          0  ISSUED:          0  USEFUL:          0  USELESS:          0
L0D USEFUL LOAD PREFETCHES:          0 PREFETCH ISSUED TO LOWER LEVEL:          0  ACCURACY: -nan
L0D TIMELY PREFETCHES:          0 LATE PREFETCHES: 0 DROPPED PREFETCHES: 0
L0D COMMIT LATE PREFETCHES: 0 NORMAL LATE: 0 MISSED OPPORTUNITY: 0 UNCOVERED: 0
L0D PREFETCHES SAME FILL-ORIGIN LEVEL: 0 DIFFERENT FILL-ORIGIN LEVEL: 0
L0D AVERAGE MISS LATENCY: 60.6296 cycles
L0D AVERAGE MISS LATENCY LOAD: 60.6296 cycles
L0D AVERAGE MISS LATENCY PREFETCH: -nan cycles
L0D AVERAGE MSHR OCCUPANCY: 4.516
L0D MSHR FULL: 0.410731
L0D RQ	ACCESS:   66809906	FORWARD:          0	MERGED:   21050843	TO_CACHE:   45759063
L0D WQ	ACCESS:   46248418	FORWARD:          0	MERGED:          0	TO_CACHE:   46248418

L1D SPEC fills:          0  NON-SPEC fills:    1039195
L1D Test counter :          0
L1D Leapfrog:          0
L1D MSHR merge:    1015688
L1D TOTAL     ACCESS:  135406058  HIT:  113495257  MISS:   21910801  HIT %:    83.8184  MISS %:    16.1816   MPKI: 109.554
L1D LOAD      TOTAL       ACCESS:   36374664  HIT:   27494270  MISS:    8880394  HIT %:    75.5863  MISS %:    24.4137   MPKI: 44.402
L1D LOAD      NON_SPEC    ACCESS:    6862825  HIT:    5823630  MISS:    1039195  HIT %:    84.8576  MISS %:    15.1424   MPKI: 5.19597
L1D LOAD      SPEC        ACCESS:   29511839  HIT:   21670640  MISS:    7841199  HIT %:    73.4303  MISS %:    26.5697   MPKI: 39.206
L1D RFO       NON_SPEC    ACCESS:   44300740  HIT:   44007038  MISS:     293702  HIT %:     99.337  MISS %:   0.662973   MPKI: 1.46851
L1D PREFETCH  NON_SPEC    ACCESS:    9078109  HIT:    3584185  MISS:    5493924  HIT %:    39.4816  MISS %:    60.5184   MPKI: 27.4696
L1D COMMIT LOAD NON_SPEC    ACCESS:   17087412  HIT:   16816488  MISS:     270924  HIT %:    98.4145  MISS %:    1.58552   MPKI: 1.35462
L1D COMMIT WRITE NON_SPEC    ACCESS:   28565133  HIT:   21593276  MISS:    6971857  HIT %:    75.5931  MISS %:    24.4069   MPKI: 34.8593
L1D PREFETCH  REQUESTED:   20184855  ISSUED:   20177892  USEFUL:    1927173  USELESS:    3566702
L1D USEFUL LOAD PREFETCHES:    1927173 PREFETCH ISSUED TO LOWER LEVEL:    7851649  ACCURACY: 24.5448
L1D TIMELY PREFETCHES:    1927173 LATE PREFETCHES: 1038377 DROPPED PREFETCHES: 0
L1D COMMIT LATE PREFETCHES: 1673384 NORMAL LATE: 696820 MISSED OPPORTUNITY: 33315 UNCOVERED: 6514923
L1D PREFETCHES SAME FILL-ORIGIN LEVEL: 6555434 DIFFERENT FILL-ORIGIN LEVEL: 1296215
L1D AVERAGE MISS LATENCY: 158.653 cycles
L1D AVERAGE MISS LATENCY LOAD: 217.046 cycles
L1D AVERAGE MISS LATENCY PREFETCH: 258.584 cycles
L1D AVERAGE MSHR OCCUPANCY: 3.56422
L1D MSHR FULL: 0.043953
L1D RQ	ACCESS:   66026214	FORWARD:          0	MERGED:   10493856	TO_CACHE:   53481922
L1D WQ	ACCESS:   74907936	FORWARD:    2050436	MERGED:    1250875	TO_CACHE:   73657061
L1D PQ	ACCESS:   20177892	FORWARD:          0	MERGED:    6374796	TO_CACHE:   13803096

L1D UNIQUE REGIONS ACCESSED: 0
L1D REGIONS CONFLICTS: 0
L1D Cross Page Prefetch Requests: 0
L1D Same Page Prefetch Requests: 24726640
L1D ROI Sum of L1D PQ occupancy: 211641416
L1D PREFETCHES PUSHED FROM L2C: 0
L1I SPEC fills:          0  NON-SPEC fills:          0
L1I Test counter :          0
L1I Leapfrog:          0
L1I MSHR merge:          0
L1I TOTAL     ACCESS:   45335987  HIT:   45335981  MISS:          6  HIT %:        100  MISS %: 1.32345e-05   MPKI: 3e-05
L1I LOAD      TOTAL       ACCESS:   45335987  HIT:   45335981  MISS:          6  HIT %:        100  MISS %: 1.32345e-05   MPKI: 3e-05
L1I LOAD      NON_SPEC    ACCESS:   45335987  HIT:   45335981  MISS:          6  HIT %:        100  MISS %: 1.32345e-05   MPKI: 3e-05
L1I PREFETCH  REQUESTED:          0  ISSUED:          0  USEFUL:          0  USELESS:          0
L1I USEFUL LOAD PREFETCHES:          0 PREFETCH ISSUED TO LOWER LEVEL:          0  ACCURACY: -nan
L1I TIMELY PREFETCHES:          0 LATE PREFETCHES: 0 DROPPED PREFETCHES: 0
L1I COMMIT LATE PREFETCHES: 0 NORMAL LATE: 0 MISSED OPPORTUNITY: 0 UNCOVERED: 0
L1I PREFETCHES SAME FILL-ORIGIN LEVEL: 0 DIFFERENT FILL-ORIGIN LEVEL: 0
L1I AVERAGE MISS LATENCY: 231.667 cycles
L1I AVERAGE MISS LATENCY LOAD: 231.667 cycles
L1I AVERAGE MISS LATENCY PREFETCH: -nan cycles
L1I AVERAGE MSHR OCCUPANCY: 4.41151e-08
L1I MSHR FULL: 0
L1I RQ	ACCESS:   61029625	FORWARD:          0	MERGED:   15693638	TO_CACHE:   45335987

BTB SPEC fills:          0  NON-SPEC fills:          0
BTB Test counter :          0
BTB Leapfrog:          0
BTB MSHR merge:          0
BTB TOTAL     ACCESS:   25427294  HIT:   25427255  MISS:         39  HIT %:    99.9998  MISS %: 0.000153378   MPKI: 0.000195
BTB BRANCH_DIRECT_JUMP	ACCESS:    2120382  HIT:    2120376  MISS:          6
BTB BRANCH_INDIRECT	ACCESS:          0  HIT:          0  MISS:          0
BTB BRANCH_CONDITIONAL	ACCESS:   23306431  HIT:   23306403  MISS:         28
BTB BRANCH_DIRECT_CALL	ACCESS:        241  HIT:        238  MISS:          3
BTB BRANCH_INDIRECT_CALL	ACCESS:          0  HIT:          0  MISS:          0
BTB BRANCH_RETURN	ACCESS:        240  HIT:        238  MISS:          2
BTB BRANCH_OTHER ACCESS:          0  HIT:          0  MISS:          0

L2C SPEC fills:          0  NON-SPEC fills:     838177
L2C Test counter :          0
L2C Leapfrog:          0
L2C MSHR merge:     199101
L2C TOTAL     ACCESS:   26394897  HIT:    6640972  MISS:   19753925  HIT %:    25.1601  MISS %:    74.8399   MPKI: 98.7696
L2C LOAD      TOTAL       ACCESS:    7867175  HIT:     422377  MISS:    7444798  HIT %:    5.36885  MISS %:    94.6311   MPKI: 37.224
L2C LOAD      NON_SPEC    ACCESS:     920370  HIT:      82187  MISS:     838183  HIT %:    8.92978  MISS %:    91.0702   MPKI: 4.19092
L2C LOAD      SPEC        ACCESS:    6946805  HIT:     340190  MISS:    6606615  HIT %:    4.89707  MISS %:    95.1029   MPKI: 33.0331
L2C RFO       NON_SPEC    ACCESS:     270555  HIT:      21836  MISS:     248719  HIT %:    8.07082  MISS %:    91.9292   MPKI: 1.2436
L2C PREFETCH  NON_SPEC    ACCESS:    7454873  HIT:     649196  MISS:    6805677  HIT %:    8.70834  MISS %:    91.2917   MPKI: 34.0284
L2C WRITEBACK NON_SPEC    ACCESS:     450923  HIT:     450103  MISS:        820  HIT %:    99.8182  MISS %:   0.181849   MPKI: 0.0041
L2C CLEAN_EVICTION NON_SPEC    ACCESS:    8807440  HIT:    3826866  MISS:    4980574  HIT %:    43.4504  MISS %:    56.5496   MPKI: 24.9029
L2C COMMIT LOAD NON_SPEC    ACCESS:     245697  HIT:      11830  MISS:     233867  HIT %:    4.81487  MISS %:    95.1851   MPKI: 1.16934
L2C LOAD TRANSLATION NON_SPEC    ACCESS:    1298149  HIT:    1258696  MISS:      39453  HIT %:    96.9608  MISS %:    3.03917   MPKI: 0.197265
L2C TRANSLATION FROM L1D PREFETCHER NON_SPEC    ACCESS:         85  HIT:         68  MISS:         17  HIT %:         80  MISS %:         20   MPKI: 8.5e-05
L2C PREFETCH  REQUESTED:          0  ISSUED:          0  USEFUL:     214988  USELESS:    6588866
L2C USEFUL LOAD PREFETCHES:     214988 PREFETCH ISSUED TO LOWER LEVEL:    7007606  ACCURACY: 3.06792
L2C TIMELY PREFETCHES:     214988 LATE PREFETCHES: 201929 DROPPED PREFETCHES: 0
L2C COMMIT LATE PREFETCHES: 0 NORMAL LATE: 202950 MISSED OPPORTUNITY: 0 UNCOVERED: 7244675
L2C PREFETCHES SAME FILL-ORIGIN LEVEL: 1104788 DIFFERENT FILL-ORIGIN LEVEL: 0
L2C AVERAGE MISS LATENCY: 187.731 cycles
L2C AVERAGE MISS LATENCY LOAD: 215.946 cycles
L2C AVERAGE MISS LATENCY PREFETCH: 289.164 cycles
L2C AVERAGE MSHR OCCUPANCY: 5.11455
L2C MSHR FULL: 0
L2C RQ	ACCESS:    9681748	FORWARD:          0	MERGED:          0	TO_CACHE:    9681660
L2C WQ	ACCESS:    9258409	FORWARD:         88	MERGED:         46	TO_CACHE:    9258363
L2C PQ	ACCESS:    7851649	FORWARD:          0	MERGED:        131	TO_CACHE:    7851518

L2C Instructions Evicting Data 6
L2C Translations Evicting Data 39419
L2C Data Evicting Data 8101555
L2C Instructions Evicting Instructions 0
L2C Translations Evicting Instructions 0
L2C Data Evicting Instructions 6
L2C Instructions Evicting Translations 0
L2C Translations Evicting Translations 51
L2C Data Evicting Translations 24879
L2C Dense regions hint from L2: 0
PSCL5 SPEC fills:          0  NON-SPEC fills:          0
PSCL5 Test counter :          0
PSCL5 Leapfrog:          0
PSCL5 MSHR merge:          0
PSCL5 TOTAL     ACCESS:          0  HIT:          0  MISS:          0  HIT %:       -nan  MISS %:       -nan   MPKI: 0
PSCL5 PREFETCH  REQUESTED:          0  ISSUED:          0  USEFUL:          0  USELESS:          0
PSCL5 USEFUL LOAD PREFETCHES:          0 PREFETCH ISSUED TO LOWER LEVEL:          0  ACCURACY: -nan
PSCL5 TIMELY PREFETCHES:          0 LATE PREFETCHES: 0 DROPPED PREFETCHES: 0
PSCL5 COMMIT LATE PREFETCHES: 0 NORMAL LATE: 0 MISSED OPPORTUNITY: 0 UNCOVERED: 0
PSCL5 PREFETCHES SAME FILL-ORIGIN LEVEL: 0 DIFFERENT FILL-ORIGIN LEVEL: 0

PSCL4 SPEC fills:          0  NON-SPEC fills:          0
PSCL4 Test counter :          0
PSCL4 Leapfrog:          0
PSCL4 MSHR merge:          0
PSCL4 TOTAL     ACCESS:          0  HIT:          0  MISS:          0  HIT %:       -nan  MISS %:       -nan   MPKI: 0
PSCL4 PREFETCH  REQUESTED:          0  ISSUED:          0  USEFUL:          0  USELESS:          0
PSCL4 USEFUL LOAD PREFETCHES:          0 PREFETCH ISSUED TO LOWER LEVEL:          0  ACCURACY: -nan
PSCL4 TIMELY PREFETCHES:          0 LATE PREFETCHES: 0 DROPPED PREFETCHES: 0
PSCL4 COMMIT LATE PREFETCHES: 0 NORMAL LATE: 0 MISSED OPPORTUNITY: 0 UNCOVERED: 0
PSCL4 PREFETCHES SAME FILL-ORIGIN LEVEL: 0 DIFFERENT FILL-ORIGIN LEVEL: 0

PSCL3 SPEC fills:          0  NON-SPEC fills:          0
PSCL3 Test counter :          0
PSCL3 Leapfrog:          0
PSCL3 MSHR merge:          0
PSCL3 TOTAL     ACCESS:          0  HIT:          0  MISS:          0  HIT %:       -nan  MISS %:       -nan   MPKI: 0
PSCL3 PREFETCH  REQUESTED:          0  ISSUED:          0  USEFUL:          0  USELESS:          0
PSCL3 USEFUL LOAD PREFETCHES:          0 PREFETCH ISSUED TO LOWER LEVEL:          0  ACCURACY: -nan
PSCL3 TIMELY PREFETCHES:          0 LATE PREFETCHES: 0 DROPPED PREFETCHES: 0
PSCL3 COMMIT LATE PREFETCHES: 0 NORMAL LATE: 0 MISSED OPPORTUNITY: 0 UNCOVERED: 0
PSCL3 PREFETCHES SAME FILL-ORIGIN LEVEL: 0 DIFFERENT FILL-ORIGIN LEVEL: 0

PSCL2 SPEC fills:          0  NON-SPEC fills:          0
PSCL2 Test counter :          0
PSCL2 Leapfrog:          0
PSCL2 MSHR merge:          0
PSCL2 TOTAL     ACCESS:          0  HIT:          0  MISS:          0  HIT %:       -nan  MISS %:       -nan   MPKI: 0
PSCL2 PREFETCH  REQUESTED:          0  ISSUED:          0  USEFUL:          0  USELESS:          0
PSCL2 USEFUL LOAD PREFETCHES:          0 PREFETCH ISSUED TO LOWER LEVEL:          0  ACCURACY: -nan
PSCL2 TIMELY PREFETCHES:          0 LATE PREFETCHES: 0 DROPPED PREFETCHES: 0
PSCL2 COMMIT LATE PREFETCHES: 0 NORMAL LATE: 0 MISSED OPPORTUNITY: 0 UNCOVERED: 0
PSCL2 PREFETCHES SAME FILL-ORIGIN LEVEL: 0 DIFFERENT FILL-ORIGIN LEVEL: 0

LLC SPEC fills:          0  NON-SPEC fills:     817479
LLC Test counter :          0
LLC Leapfrog:          0
LLC MSHR merge:          0
LLC TOTAL     ACCESS:   23829284  HIT:    4280893  MISS:   19548391  HIT %:    17.9648  MISS %:    82.0352   MPKI: 97.742
LLC LOAD      TOTAL       ACCESS:    7245697  HIT:      16498  MISS:    7229199  HIT %:   0.227694  MISS %:    99.7723   MPKI: 36.146
LLC LOAD      NON_SPEC    ACCESS:     819887  HIT:       2402  MISS:     817485  HIT %:   0.292967  MISS %:     99.707   MPKI: 4.08742
LLC LOAD      SPEC        ACCESS:    6425810  HIT:      14096  MISS:    6411714  HIT %:   0.219365  MISS %:    99.7806   MPKI: 32.0586
LLC RFO       NON_SPEC    ACCESS:     247665  HIT:        401  MISS:     247264  HIT %:   0.161912  MISS %:    99.8381   MPKI: 1.23632
LLC PREFETCH  NON_SPEC    ACCESS:    7007606  HIT:      80235  MISS:    6927371  HIT %:    1.14497  MISS %:     98.855   MPKI: 34.6369
LLC WRITEBACK NON_SPEC    ACCESS:     433089  HIT:     432261  MISS:        828  HIT %:    99.8088  MISS %:   0.191185   MPKI: 0.00414
LLC CLEAN_EVICTION NON_SPEC    ACCESS:    8623664  HIT:    3748420  MISS:    4875244  HIT %:    43.4667  MISS %:    56.5333   MPKI: 24.3762
LLC COMMIT LOAD NON_SPEC    ACCESS:     232093  HIT:       1042  MISS:     231051  HIT %:   0.448958  MISS %:     99.551   MPKI: 1.15525
LLC LOAD TRANSLATION NON_SPEC    ACCESS:      39453  HIT:       2036  MISS:      37417  HIT %:    5.16057  MISS %:    94.8394   MPKI: 0.187085
LLC TRANSLATION FROM L1D PREFETCHER NON_SPEC    ACCESS:         17  HIT:          0  MISS:         17  HIT %:          0  MISS %:        100   MPKI: 8.5e-05
LLC PREFETCH  REQUESTED:          0  ISSUED:          0  USEFUL:       8256  USELESS:    6911006
LLC USEFUL LOAD PREFETCHES:       8256 PREFETCH ISSUED TO LOWER LEVEL:    6927371  ACCURACY: 0.119179
LLC TIMELY PREFETCHES:       8256 LATE PREFETCHES: 0 DROPPED PREFETCHES: 0
LLC COMMIT LATE PREFETCHES: 0 NORMAL LATE: 0 MISSED OPPORTUNITY: 0 UNCOVERED: 0
LLC PREFETCHES SAME FILL-ORIGIN LEVEL: 0 DIFFERENT FILL-ORIGIN LEVEL: 0
LLC AVERAGE MISS LATENCY: 171.238 cycles
LLC AVERAGE MISS LATENCY LOAD: 193.582 cycles
LLC AVERAGE MISS LATENCY PREFETCH: 264.375 cycles
LLC AVERAGE MSHR OCCUPANCY: 4.39278
LLC MSHR FULL: 0
LLC RQ	ACCESS:    7764924	FORWARD:          0	MERGED:          0	TO_CACHE:    7764924
LLC WQ	ACCESS:    9056753	FORWARD:          0	MERGED:          0	TO_CACHE:    9056753
LLC PQ	ACCESS:    7007606	FORWARD:          0	MERGED:          0	TO_CACHE:    7007606

LLC Dense regions hint to LLC: 0

RAW hits: 2408553
Loads Generated: 69218456
Loads sent to L1D: 66809906
Stores Generated: 46248414
Stores sent to L1D: 46248418
Major fault: 0 Minor fault: 63874
Allocated PAGES: 63874
Total Load insts: 83607871
Total Non-spec loads: 10032086
Percentage of speculative loads: 88.001

LeapFrogging counter: 15830084
Commit hits: 28659537 miss: 29649017
Commit hit %: 49.1515 miss %: 50.8485
Commits not translated: 0
Loads retired: 8880383
Stores retired: 46248418
Cache fills: 8880394
L1D response latency: 217.046 cycles
Load retirement latency: 458.928 cycles
OOO test counter: 0
Discarded buffer inserts: 28659537 hits: 114061 hit %: 0.397986
Filter prediction accuracy: -nan
Speculative prefetch buffer size: 3
CPU 0 L1D PC-based stride prefetcher final stats
Degree: 3
CPU 0 L1D PC-based stride prefetcher final stats
Degree: 3

DRAM Statistics
 CHANNEL 0
 RQ ROW_BUFFER_HIT:    6732443  ROW_BUFFER_MISS:    7939874
 DBUS_CONGESTED:      12295
 WQ ROW_BUFFER_HIT:    1741546  ROW_BUFFER_MISS:    7301951  FULL:      91792

 AVG_CONGESTED_CYCLE: 5
 All warmup complete: 2
Channel 0 Bank busy for read cycles: 0
Channel 0 Bank busy for write cycles: 0
Channel 0
Rank 0
0banks busy for read cycles: 79468981
0banks busy for write cycles: 251315
1banks busy for read cycles: 133601464
1banks busy for write cycles: 37794747
2banks busy for read cycles: 67778298
2banks busy for write cycles: 28085473
3banks busy for read cycles: 59811288
3banks busy for write cycles: 20122240
4banks busy for read cycles: 52907382
4banks busy for write cycles: 15438343
5banks busy for read cycles: 48682995
5banks busy for write cycles: 12703251
6banks busy for read cycles: 44937501
6banks busy for write cycles: 11619606
7banks busy for read cycles: 34150374
7banks busy for write cycles: 26936981
8banks busy for read cycles: 23030281
8banks busy for write cycles: 142183805

CPU 0 Branch Prediction Accuracy: 99.1418% MPKI: 1.10599 Average ROB Occupancy at Mispredict: 204.103
Branch types
NOT_BRANCH: 174224605 87.1123%
BRANCH_DIRECT_JUMP: 2120382 1.06019%
BRANCH_INDIRECT: 0 0%
BRANCH_CONDITIONAL: 23654532 11.8273%
BRANCH_DIRECT_CALL: 241 0.0001205%
BRANCH_INDIRECT_CALL: 0 0%
BRANCH_RETURN: 240 0.00012%
BRANCH_OTHER: 0 0%

DRAM PAGES: 1048576
Allocated PAGES: 63874
