
*** ChampSim Multicore Out-of-Order Simulator ***

Warmup Instructions: 50000000
Simulation Instructions: 200000000
Number of CPUs: 1
LLC sets: 2048
LLC ways: 16
L0D sets: 16
L0D ways: 2
ROB size: 352
LQ size: 128
SQ size: 72
Secure Berti: OFF
Berti: OFF
Berti Fill: OFF
On commit prefetching: ON
Hit-based filter: OFF
Time-guarding: ON
Free-slotting: ON
Leap-frogging: ON
Train prefetcher on L0D bypass: OFF
No translation penalty for prefetchers: OFF
Prefetch to L0D only: OFF
Prefetch to L1D only: OFF
Clean evictions: ON
Commit loads: ON
Commit write: ON
Fill commit loads to L2C, LLC: ON
DRAM IO FREQUENCY: 6400
ROB SIZE: 352
Off-chip DRAM Size: 4096 MB Channels: 1 Width: 64-bit Data Rate: 6400 MT/s
CPU 0 runs /home/sumon/secure_berti/GhostMinion/../../traces/spec/607.cactuBSSN_s-2421B.champsimtrace.xz
.xz
BTB has LRU replacement policy
ITLB has LRU replacement policy
DTLB has LRU replacement policy
STLB has LRU replacement policy
L1I has LRU replacement policy
L0D has LRU replacement policy
CPU 0 L1D IP-based stride prefetcher
CPU 0 L1D IP-based stride prefetcher
L1D has LRU replacement policy
L2C has LRU replacement policy
LLC has LRU replacement policy
Heartbeat CPU 0 instructions: 10000002 cycles: 4564580 heartbeat IPC: 2.19078 cumulative IPC: 2.19078 (Simulation time: 0 hr 1 min 0 sec) 
Heartbeat CPU 0 instructions: 20000001 cycles: 9114523 heartbeat IPC: 2.19783 cumulative IPC: 2.1943 (Simulation time: 0 hr 2 min 0 sec) 
Heartbeat CPU 0 instructions: 30000002 cycles: 13675230 heartbeat IPC: 2.19264 cumulative IPC: 2.19375 (Simulation time: 0 hr 3 min 3 sec) 
Heartbeat CPU 0 instructions: 40000001 cycles: 18237043 heartbeat IPC: 2.19211 cumulative IPC: 2.19334 (Simulation time: 0 hr 4 min 8 sec) 
Heartbeat CPU 0 instructions: 50000003 cycles: 22799021 heartbeat IPC: 2.19203 cumulative IPC: 2.19308 (Simulation time: 0 hr 5 min 15 sec) 

Warmup complete CPU 0 instructions: 50000003 cycles: 22799021 (Simulation time: 0 hr 5 min 15 sec) 

Heartbeat CPU 0 instructions: 60000002 cycles: 41825067 heartbeat IPC: 0.525595 cumulative IPC: 0.525595 (Simulation time: 0 hr 6 min 24 sec) 
Heartbeat CPU 0 instructions: 70000000 cycles: 61058060 heartbeat IPC: 0.51994 cumulative IPC: 0.522752 (Simulation time: 0 hr 8 min 6 sec) 
Heartbeat CPU 0 instructions: 80000001 cycles: 80033657 heartbeat IPC: 0.526993 cumulative IPC: 0.524158 (Simulation time: 0 hr 9 min 51 sec) 
Heartbeat CPU 0 instructions: 90000000 cycles: 99401690 heartbeat IPC: 0.516315 cumulative IPC: 0.522175 (Simulation time: 0 hr 11 min 38 sec) 
Heartbeat CPU 0 instructions: 100000000 cycles: 118505380 heartbeat IPC: 0.523459 cumulative IPC: 0.522431 (Simulation time: 0 hr 13 min 24 sec) 
Heartbeat CPU 0 instructions: 110000000 cycles: 137274039 heartbeat IPC: 0.532803 cumulative IPC: 0.524132 (Simulation time: 0 hr 15 min 10 sec) 
Heartbeat CPU 0 instructions: 120000000 cycles: 156147918 heartbeat IPC: 0.529833 cumulative IPC: 0.524939 (Simulation time: 0 hr 16 min 57 sec) 
Heartbeat CPU 0 instructions: 130000002 cycles: 175074241 heartbeat IPC: 0.528365 cumulative IPC: 0.525365 (Simulation time: 0 hr 18 min 46 sec) 
Heartbeat CPU 0 instructions: 140000002 cycles: 194283276 heartbeat IPC: 0.520588 cumulative IPC: 0.52483 (Simulation time: 0 hr 20 min 32 sec) 
Heartbeat CPU 0 instructions: 150000001 cycles: 213683071 heartbeat IPC: 0.515469 cumulative IPC: 0.523878 (Simulation time: 0 hr 22 min 18 sec) 
Heartbeat CPU 0 instructions: 160000002 cycles: 232592950 heartbeat IPC: 0.528824 cumulative IPC: 0.524324 (Simulation time: 0 hr 24 min 3 sec) 
Heartbeat CPU 0 instructions: 170000002 cycles: 252039139 heartbeat IPC: 0.51424 cumulative IPC: 0.523469 (Simulation time: 0 hr 25 min 32 sec) 
Heartbeat CPU 0 instructions: 180000001 cycles: 271114110 heartbeat IPC: 0.524247 cumulative IPC: 0.523528 (Simulation time: 0 hr 26 min 34 sec) 
Heartbeat CPU 0 instructions: 190000000 cycles: 290244253 heartbeat IPC: 0.522735 cumulative IPC: 0.523472 (Simulation time: 0 hr 27 min 35 sec) 
Heartbeat CPU 0 instructions: 200000001 cycles: 309682504 heartbeat IPC: 0.51445 cumulative IPC: 0.52286 (Simulation time: 0 hr 28 min 36 sec) 
Heartbeat CPU 0 instructions: 210000003 cycles: 328565038 heartbeat IPC: 0.52959 cumulative IPC: 0.523276 (Simulation time: 0 hr 29 min 34 sec) 
Heartbeat CPU 0 instructions: 220000000 cycles: 347961471 heartbeat IPC: 0.515559 cumulative IPC: 0.522816 (Simulation time: 0 hr 30 min 31 sec) 
Heartbeat CPU 0 instructions: 230000003 cycles: 367109157 heartbeat IPC: 0.522256 cumulative IPC: 0.522784 (Simulation time: 0 hr 31 min 25 sec) 
Heartbeat CPU 0 instructions: 240000000 cycles: 385882084 heartbeat IPC: 0.532682 cumulative IPC: 0.523296 (Simulation time: 0 hr 32 min 15 sec) 
Heartbeat CPU 0 instructions: 250000002 cycles: 404654932 heartbeat IPC: 0.532684 cumulative IPC: 0.523758 (Simulation time: 0 hr 33 min 3 sec) 
Finished CPU 0 instructions: 200000003 cycles: 381855912 cumulative IPC: 0.523758 (Simulation time: 0 hr 33 min 3 sec) 
 Instruction ID: 250000183

ChampSim completed all CPUs

Region of Interest Statistics

CPU 0 cumulative IPC: 0.523758 instructions: 200000003 cycles: 381855912
ITLB SPEC fills:          0  NON-SPEC fills:          0
ITLB Test counter :          0
ITLB Leapfrog:          0
ITLB MSHR merge:          0
ITLB TOTAL     ACCESS:   26897629  HIT:   26897579  MISS:         50  HIT %:    99.9998  MISS %: 0.00018589   MPKI: 0.00025
ITLB LOAD TRANSLATION NON_SPEC    ACCESS:   26897629  HIT:   26897579  MISS:         50  HIT %:    99.9998  MISS %: 0.00018589   MPKI: 0.00025
ITLB PREFETCH  REQUESTED:          0  ISSUED:          0  USEFUL:          0  USELESS:          0
ITLB USEFUL LOAD PREFETCHES:          0 PREFETCH ISSUED TO LOWER LEVEL:          0  ACCURACY: -nan
ITLB TIMELY PREFETCHES:          0 LATE PREFETCHES: 0 DROPPED PREFETCHES: 0
ITLB COMMIT LATE PREFETCHES: 0 NORMAL LATE: 0 MISSED OPPORTUNITY: 0 UNCOVERED: 0
ITLB PREFETCHES SAME FILL-ORIGIN LEVEL: 0 DIFFERENT FILL-ORIGIN LEVEL: 0
ITLB AVERAGE MISS LATENCY: 451.18 cycles
ITLB AVERAGE MISS LATENCY LOAD: -nan cycles
ITLB AVERAGE MISS LATENCY PREFETCH: -nan cycles
ITLB AVERAGE MSHR OCCUPANCY: 3.34602e-07
ITLB MSHR FULL: 0
ITLB RQ	ACCESS:   35195913	FORWARD:          0	MERGED:    8298276	TO_CACHE:   26897637

DTLB SPEC fills:          0  NON-SPEC fills:          0
DTLB Test counter :          0
DTLB Leapfrog:          0
DTLB MSHR merge:          0
DTLB TOTAL     ACCESS:   44159728  HIT:   29153213  MISS:   15006515  HIT %:    66.0176  MISS %:    33.9824   MPKI: 75.0326
DTLB LOAD TRANSLATION NON_SPEC    ACCESS:   44159728  HIT:   29153213  MISS:   15006515  HIT %:    66.0176  MISS %:    33.9824   MPKI: 75.0326
DTLB PREFETCH  REQUESTED:          0  ISSUED:          0  USEFUL:          0  USELESS:          0
DTLB USEFUL LOAD PREFETCHES:          0 PREFETCH ISSUED TO LOWER LEVEL:          0  ACCURACY: -nan
DTLB TIMELY PREFETCHES:          0 LATE PREFETCHES: 0 DROPPED PREFETCHES: 0
DTLB COMMIT LATE PREFETCHES: 0 NORMAL LATE: 0 MISSED OPPORTUNITY: 0 UNCOVERED: 0
DTLB PREFETCHES SAME FILL-ORIGIN LEVEL: 0 DIFFERENT FILL-ORIGIN LEVEL: 0
DTLB AVERAGE MISS LATENCY: 10.0545 cycles
DTLB AVERAGE MISS LATENCY LOAD: -nan cycles
DTLB AVERAGE MISS LATENCY PREFETCH: -nan cycles
DTLB AVERAGE MSHR OCCUPANCY: 1.24016
DTLB MSHR FULL: 0.0448715
DTLB RQ	ACCESS:   62990467	FORWARD:          0	MERGED:   17680824	TO_CACHE:   45309643

STLB SPEC fills:          0  NON-SPEC fills:          0
STLB Test counter :          0
STLB Leapfrog:          0
STLB MSHR merge:          0
STLB TOTAL     ACCESS:   15007163  HIT:   14982611  MISS:      24552  HIT %:    99.8364  MISS %:   0.163602   MPKI: 0.12276
STLB LOAD TRANSLATION NON_SPEC    ACCESS:   15006566  HIT:   14982014  MISS:      24552  HIT %:    99.8364  MISS %:   0.163608   MPKI: 0.12276
STLB TRANSLATION FROM L1D PREFETCHER NON_SPEC    ACCESS:        597  HIT:        597  MISS:          0  HIT %:        100  MISS %:          0   MPKI: 0
STLB PREFETCH  REQUESTED:          0  ISSUED:          0  USEFUL:          0  USELESS:          0
STLB USEFUL LOAD PREFETCHES:          0 PREFETCH ISSUED TO LOWER LEVEL:          0  ACCURACY: -nan
STLB TIMELY PREFETCHES:          0 LATE PREFETCHES: 0 DROPPED PREFETCHES: 0
STLB COMMIT LATE PREFETCHES: 0 NORMAL LATE: 0 MISSED OPPORTUNITY: 0 UNCOVERED: 0
STLB PREFETCHES SAME FILL-ORIGIN LEVEL: 0 DIFFERENT FILL-ORIGIN LEVEL: 0
STLB AVERAGE MISS LATENCY: 426.863 cycles
STLB AVERAGE MISS LATENCY LOAD: -nan cycles
STLB AVERAGE MISS LATENCY PREFETCH: -nan cycles
STLB AVERAGE MSHR OCCUPANCY: 0.0101266
STLB MSHR FULL: 0
STLB RQ	ACCESS:   15008343	FORWARD:          0	MERGED:       1178	TO_CACHE:   15007165

STLB Hit, L1D data hit: 0
STLB Hit, L2C data hit: 0
STLB Hit, LLC data hit: 0
STLB Hit, LLC data miss: 0
STLB STLB hints to L2: 0
L0D SPEC fills:   31557025  NON-SPEC fills:          0
L0D TimeGuard Request with older TS:     466763 Restricted eviction:    1113225 read:     157219
L0D Test counter :          0
L0D Leapfrog:          0
L0D MSHR merge:    2676897
L0D TOTAL     ACCESS:   37528460  HIT:    3785885  MISS:   33742575  HIT %:     10.088  MISS %:     89.912   MPKI: 168.713
L0D LOAD      TOTAL       ACCESS:   37528460  HIT:    3785885  MISS:   33742575  HIT %:     10.088  MISS %:     89.912   MPKI: 168.713
L0D LOAD      NON_SPEC    ACCESS:    1132685  HIT:      60356  MISS:    1072329  HIT %:    5.32858  MISS %:    94.6714   MPKI: 5.36164
L0D LOAD      SPEC        ACCESS:   36395775  HIT:    3725529  MISS:   32670246  HIT %:    10.2362  MISS %:    89.7638   MPKI: 163.351
L0D PREFETCH  REQUESTED:          0  ISSUED:          0  USEFUL:          0  USELESS:          0
L0D USEFUL LOAD PREFETCHES:          0 PREFETCH ISSUED TO LOWER LEVEL:          0  ACCURACY: -nan
L0D TIMELY PREFETCHES:          0 LATE PREFETCHES: 0 DROPPED PREFETCHES: 0
L0D COMMIT LATE PREFETCHES: 0 NORMAL LATE: 0 MISSED OPPORTUNITY: 0 UNCOVERED: 0
L0D PREFETCHES SAME FILL-ORIGIN LEVEL: 0 DIFFERENT FILL-ORIGIN LEVEL: 0
L0D AVERAGE MISS LATENCY: 29.8282 cycles
L0D AVERAGE MISS LATENCY LOAD: 29.8282 cycles
L0D AVERAGE MISS LATENCY PREFETCH: -nan cycles
L0D AVERAGE MSHR OCCUPANCY: 5.99285
L0D MSHR FULL: 0.64113
L0D RQ	ACCESS:   57206979	FORWARD:          0	MERGED:   17001626	TO_CACHE:   40205353
L0D WQ	ACCESS:   22785114	FORWARD:          0	MERGED:          0	TO_CACHE:   22785114

L1D SPEC fills:          0  NON-SPEC fills:     417526
L1D Test counter :          0
L1D Leapfrog:          0
L1D MSHR merge:      60194
L1D TOTAL     ACCESS:   96985150  HIT:   52120684  MISS:   44864466  HIT %:    53.7409  MISS %:    46.2591   MPKI: 224.322
L1D LOAD      TOTAL       ACCESS:   33682380  HIT:   12176290  MISS:   21506090  HIT %:    36.1503  MISS %:    63.8497   MPKI: 107.53
L1D LOAD      NON_SPEC    ACCESS:    1069180  HIT:     651654  MISS:     417526  HIT %:     60.949  MISS %:     39.051   MPKI: 2.08763
L1D LOAD      SPEC        ACCESS:   32613200  HIT:   11524636  MISS:   21088564  HIT %:    35.3373  MISS %:    64.6627   MPKI: 105.443
L1D RFO       NON_SPEC    ACCESS:   21373930  HIT:   19766499  MISS:    1607431  HIT %:    92.4795  MISS %:    7.52052   MPKI: 8.03715
L1D PREFETCH  NON_SPEC    ACCESS:       1772  HIT:       1706  MISS:         66  HIT %:    96.2754  MISS %:     3.7246   MPKI: 0.00033
L1D COMMIT LOAD NON_SPEC    ACCESS:   10799240  HIT:    9413624  MISS:    1385616  HIT %:    87.1693  MISS %:    12.8307   MPKI: 6.92808
L1D COMMIT WRITE NON_SPEC    ACCESS:   31127828  HIT:   10762565  MISS:   20365263  HIT %:    34.5754  MISS %:    65.4246   MPKI: 101.826
L1D PREFETCH  REQUESTED:       1993  ISSUED:       1993  USEFUL:         38  USELESS:         28
L1D USEFUL LOAD PREFETCHES:         38 PREFETCH ISSUED TO LOWER LEVEL:         67  ACCURACY: 56.7164
L1D TIMELY PREFETCHES:         38 LATE PREFETCHES: 1 DROPPED PREFETCHES: 0
L1D COMMIT LATE PREFETCHES: 0 NORMAL LATE: 1 MISSED OPPORTUNITY: 21844 UNCOVERED: 21486210
L1D PREFETCHES SAME FILL-ORIGIN LEVEL: 67 DIFFERENT FILL-ORIGIN LEVEL: 0
L1D AVERAGE MISS LATENCY: 16.0678 cycles
L1D AVERAGE MISS LATENCY LOAD: 28.9502 cycles
L1D AVERAGE MISS LATENCY PREFETCH: 206.106 cycles
L1D AVERAGE MSHR OCCUPANCY: 2.38527
L1D MSHR FULL: 0.0308844
L1D RQ	ACCESS:   58619223	FORWARD:          0	MERGED:   14043633	TO_CACHE:   44574076
L1D WQ	ACCESS:   53913835	FORWARD:       1514	MERGED:    1288483	TO_CACHE:   52625352
L1D PQ	ACCESS:       1993	FORWARD:          0	MERGED:        218	TO_CACHE:       1775

L1D UNIQUE REGIONS ACCESSED: 0
L1D REGIONS CONFLICTS: 0
L1D Cross Page Prefetch Requests: 0
L1D Same Page Prefetch Requests: 2005
L1D ROI Sum of L1D PQ occupancy: 25468
L1D PREFETCHES PUSHED FROM L2C: 0
L1I SPEC fills:          0  NON-SPEC fills:          0
L1I Test counter :          0
L1I Leapfrog:          0
L1I MSHR merge:      24746
L1I TOTAL     ACCESS:   35171167  HIT:   35121510  MISS:      49657  HIT %:    99.8588  MISS %:   0.141187   MPKI: 0.248285
L1I LOAD      TOTAL       ACCESS:   35171167  HIT:   35121510  MISS:      49657  HIT %:    99.8588  MISS %:   0.141187   MPKI: 0.248285
L1I LOAD      NON_SPEC    ACCESS:   35171167  HIT:   35121510  MISS:      49657  HIT %:    99.8588  MISS %:   0.141187   MPKI: 0.248285
L1I PREFETCH  REQUESTED:          0  ISSUED:          0  USEFUL:          0  USELESS:          0
L1I USEFUL LOAD PREFETCHES:          0 PREFETCH ISSUED TO LOWER LEVEL:          0  ACCURACY: -nan
L1I TIMELY PREFETCHES:          0 LATE PREFETCHES: 0 DROPPED PREFETCHES: 0
L1I COMMIT LATE PREFETCHES: 0 NORMAL LATE: 0 MISSED OPPORTUNITY: 0 UNCOVERED: 0
L1I PREFETCHES SAME FILL-ORIGIN LEVEL: 0 DIFFERENT FILL-ORIGIN LEVEL: 0
L1I AVERAGE MISS LATENCY: 17.5177 cycles
L1I AVERAGE MISS LATENCY LOAD: 17.5177 cycles
L1I AVERAGE MISS LATENCY PREFETCH: -nan cycles
L1I AVERAGE MSHR OCCUPANCY: 0.00191284
L1I MSHR FULL: 0
L1I RQ	ACCESS:   52224885	FORWARD:          0	MERGED:   17028972	TO_CACHE:   35195913

BTB SPEC fills:          0  NON-SPEC fills:          0
BTB Test counter :          0
BTB Leapfrog:          0
BTB MSHR merge:          0
BTB TOTAL     ACCESS:     207305  HIT:     204093  MISS:       3212  HIT %:    98.4506  MISS %:    1.54941   MPKI: 0.01606
BTB BRANCH_DIRECT_JUMP	ACCESS:      61458  HIT:      61423  MISS:         35
BTB BRANCH_INDIRECT	ACCESS:      58898  HIT:      58820  MISS:         78
BTB BRANCH_CONDITIONAL	ACCESS:      74915  HIT:      74516  MISS:        399
BTB BRANCH_DIRECT_CALL	ACCESS:       6013  HIT:       5388  MISS:        625
BTB BRANCH_INDIRECT_CALL	ACCESS:          3  HIT:          0  MISS:          3
BTB BRANCH_RETURN	ACCESS:       6018  HIT:       3946  MISS:       2072
BTB BRANCH_OTHER ACCESS:          0  HIT:          0  MISS:          0

L2C SPEC fills:          0  NON-SPEC fills:      34020
L2C Test counter :          0
L2C Leapfrog:          0
L2C MSHR merge:          0
L2C TOTAL     ACCESS:   46210071  HIT:   42217121  MISS:    3992950  HIT %:    91.3591  MISS %:    8.64087   MPKI: 19.9647
L2C LOAD      TOTAL       ACCESS:   21185733  HIT:   19191859  MISS:    1993874  HIT %:    90.5886  MISS %:     9.4114   MPKI: 9.96937
L2C LOAD      NON_SPEC    ACCESS:     448096  HIT:     413234  MISS:      34862  HIT %:      92.22  MISS %:    7.78003   MPKI: 0.17431
L2C LOAD      SPEC        ACCESS:   20737637  HIT:   18778625  MISS:    1959012  HIT %:    90.5533  MISS %:    9.44665   MPKI: 9.79506
L2C RFO       NON_SPEC    ACCESS:    1602831  HIT:    1601011  MISS:       1820  HIT %:    99.8865  MISS %:   0.113549   MPKI: 0.0091
L2C PREFETCH  NON_SPEC    ACCESS:         67  HIT:          0  MISS:         67  HIT %:          0  MISS %:        100   MPKI: 0.000335
L2C WRITEBACK NON_SPEC    ACCESS:    1614147  HIT:    1614127  MISS:         20  HIT %:    99.9988  MISS %: 0.00123904   MPKI: 0.0001
L2C CLEAN_EVICTION NON_SPEC    ACCESS:   20376749  HIT:   18545168  MISS:    1831581  HIT %:    91.0114  MISS %:    8.98858   MPKI: 9.1579
L2C COMMIT LOAD NON_SPEC    ACCESS:    1307857  HIT:    1171634  MISS:     136223  HIT %:    89.5843  MISS %:    10.4157   MPKI: 0.681115
L2C LOAD TRANSLATION NON_SPEC    ACCESS:     122687  HIT:      93322  MISS:      29365  HIT %:    76.0651  MISS %:    23.9349   MPKI: 0.146825
L2C PREFETCH  REQUESTED:          0  ISSUED:          0  USEFUL:          0  USELESS:         67
L2C USEFUL LOAD PREFETCHES:          0 PREFETCH ISSUED TO LOWER LEVEL:         67  ACCURACY: 0
L2C TIMELY PREFETCHES:          0 LATE PREFETCHES: 0 DROPPED PREFETCHES: 0
L2C COMMIT LATE PREFETCHES: 0 NORMAL LATE: 0 MISSED OPPORTUNITY: 0 UNCOVERED: 1993875
L2C PREFETCHES SAME FILL-ORIGIN LEVEL: 0 DIFFERENT FILL-ORIGIN LEVEL: 0
L2C AVERAGE MISS LATENCY: 108.131 cycles
L2C AVERAGE MISS LATENCY LOAD: 189.39 cycles
L2C AVERAGE MISS LATENCY PREFETCH: 187.985 cycles
L2C AVERAGE MSHR OCCUPANCY: 0.746718
L2C MSHR FULL: 0
L2C RQ	ACCESS:   24671482	FORWARD:          0	MERGED:          0	TO_CACHE:   24219110
L2C WQ	ACCESS:   21992814	FORWARD:     452372	MERGED:       1916	TO_CACHE:   21990898
L2C PQ	ACCESS:         67	FORWARD:          0	MERGED:          0	TO_CACHE:         67

L2C Instructions Evicting Data 832
L2C Translations Evicting Data 28013
L2C Data Evicting Data 170068
L2C Instructions Evicting Instructions 7
L2C Translations Evicting Instructions 6
L2C Data Evicting Instructions 103
L2C Instructions Evicting Translations 3
L2C Translations Evicting Translations 1346
L2C Data Evicting Translations 1959
L2C Dense regions hint from L2: 0
PSCL5 SPEC fills:          0  NON-SPEC fills:          0
PSCL5 Test counter :          0
PSCL5 Leapfrog:          0
PSCL5 MSHR merge:          0
PSCL5 TOTAL     ACCESS:          0  HIT:          0  MISS:          0  HIT %:       -nan  MISS %:       -nan   MPKI: 0
PSCL5 PREFETCH  REQUESTED:          0  ISSUED:          0  USEFUL:          0  USELESS:          0
PSCL5 USEFUL LOAD PREFETCHES:          0 PREFETCH ISSUED TO LOWER LEVEL:          0  ACCURACY: -nan
PSCL5 TIMELY PREFETCHES:          0 LATE PREFETCHES: 0 DROPPED PREFETCHES: 0
PSCL5 COMMIT LATE PREFETCHES: 0 NORMAL LATE: 0 MISSED OPPORTUNITY: 0 UNCOVERED: 0
PSCL5 PREFETCHES SAME FILL-ORIGIN LEVEL: 0 DIFFERENT FILL-ORIGIN LEVEL: 0

PSCL4 SPEC fills:          0  NON-SPEC fills:          0
PSCL4 Test counter :          0
PSCL4 Leapfrog:          0
PSCL4 MSHR merge:          0
PSCL4 TOTAL     ACCESS:          0  HIT:          0  MISS:          0  HIT %:       -nan  MISS %:       -nan   MPKI: 0
PSCL4 PREFETCH  REQUESTED:          0  ISSUED:          0  USEFUL:          0  USELESS:          0
PSCL4 USEFUL LOAD PREFETCHES:          0 PREFETCH ISSUED TO LOWER LEVEL:          0  ACCURACY: -nan
PSCL4 TIMELY PREFETCHES:          0 LATE PREFETCHES: 0 DROPPED PREFETCHES: 0
PSCL4 COMMIT LATE PREFETCHES: 0 NORMAL LATE: 0 MISSED OPPORTUNITY: 0 UNCOVERED: 0
PSCL4 PREFETCHES SAME FILL-ORIGIN LEVEL: 0 DIFFERENT FILL-ORIGIN LEVEL: 0

PSCL3 SPEC fills:          0  NON-SPEC fills:          0
PSCL3 Test counter :          0
PSCL3 Leapfrog:          0
PSCL3 MSHR merge:          0
PSCL3 TOTAL     ACCESS:          0  HIT:          0  MISS:          0  HIT %:       -nan  MISS %:       -nan   MPKI: 0
PSCL3 PREFETCH  REQUESTED:          0  ISSUED:          0  USEFUL:          0  USELESS:          0
PSCL3 USEFUL LOAD PREFETCHES:          0 PREFETCH ISSUED TO LOWER LEVEL:          0  ACCURACY: -nan
PSCL3 TIMELY PREFETCHES:          0 LATE PREFETCHES: 0 DROPPED PREFETCHES: 0
PSCL3 COMMIT LATE PREFETCHES: 0 NORMAL LATE: 0 MISSED OPPORTUNITY: 0 UNCOVERED: 0
PSCL3 PREFETCHES SAME FILL-ORIGIN LEVEL: 0 DIFFERENT FILL-ORIGIN LEVEL: 0

PSCL2 SPEC fills:          0  NON-SPEC fills:          0
PSCL2 Test counter :          0
PSCL2 Leapfrog:          0
PSCL2 MSHR merge:          0
PSCL2 TOTAL     ACCESS:          0  HIT:          0  MISS:          0  HIT %:       -nan  MISS %:       -nan   MPKI: 0
PSCL2 PREFETCH  REQUESTED:          0  ISSUED:          0  USEFUL:          0  USELESS:          0
PSCL2 USEFUL LOAD PREFETCHES:          0 PREFETCH ISSUED TO LOWER LEVEL:          0  ACCURACY: -nan
PSCL2 TIMELY PREFETCHES:          0 LATE PREFETCHES: 0 DROPPED PREFETCHES: 0
PSCL2 COMMIT LATE PREFETCHES: 0 NORMAL LATE: 0 MISSED OPPORTUNITY: 0 UNCOVERED: 0
PSCL2 PREFETCHES SAME FILL-ORIGIN LEVEL: 0 DIFFERENT FILL-ORIGIN LEVEL: 0

LLC SPEC fills:          0  NON-SPEC fills:      26997
LLC Test counter :          0
LLC Leapfrog:          0
LLC MSHR merge:          0
LLC TOTAL     ACCESS:    4163767  HIT:    1131545  MISS:    3032222  HIT %:     27.176  MISS %:     72.824   MPKI: 15.1611
LLC LOAD      TOTAL       ACCESS:    1993718  HIT:     465240  MISS:    1528478  HIT %:    23.3353  MISS %:    76.6647   MPKI: 7.64239
LLC LOAD      NON_SPEC    ACCESS:      34861  HIT:       7034  MISS:      27827  HIT %:    20.1773  MISS %:    79.8227   MPKI: 0.139135
LLC LOAD      SPEC        ACCESS:    1958857  HIT:     458206  MISS:    1500651  HIT %:    23.3915  MISS %:    76.6085   MPKI: 7.50325
LLC RFO       NON_SPEC    ACCESS:       1320  HIT:        212  MISS:       1108  HIT %:    16.0606  MISS %:    83.9394   MPKI: 0.00554
LLC PREFETCH  NON_SPEC    ACCESS:         67  HIT:          0  MISS:         67  HIT %:          0  MISS %:        100   MPKI: 0.000335
LLC WRITEBACK NON_SPEC    ACCESS:     103362  HIT:     103331  MISS:         31  HIT %:      99.97  MISS %:  0.0299917   MPKI: 0.000155
LLC CLEAN_EVICTION NON_SPEC    ACCESS:    1899764  HIT:     517410  MISS:    1382354  HIT %:    27.2355  MISS %:    72.7645   MPKI: 6.91177
LLC COMMIT LOAD NON_SPEC    ACCESS:     136171  HIT:      19730  MISS:     116441  HIT %:    14.4891  MISS %:    85.5109   MPKI: 0.582205
LLC LOAD TRANSLATION NON_SPEC    ACCESS:      29365  HIT:      25622  MISS:       3743  HIT %:    87.2535  MISS %:    12.7465   MPKI: 0.018715
LLC PREFETCH  REQUESTED:          0  ISSUED:          0  USEFUL:          0  USELESS:         67
LLC USEFUL LOAD PREFETCHES:          0 PREFETCH ISSUED TO LOWER LEVEL:         67  ACCURACY: 0
LLC TIMELY PREFETCHES:          0 LATE PREFETCHES: 0 DROPPED PREFETCHES: 0
LLC COMMIT LATE PREFETCHES: 0 NORMAL LATE: 0 MISSED OPPORTUNITY: 0 UNCOVERED: 0
LLC PREFETCHES SAME FILL-ORIGIN LEVEL: 0 DIFFERENT FILL-ORIGIN LEVEL: 0
LLC AVERAGE MISS LATENCY: 126.548 cycles
LLC AVERAGE MISS LATENCY LOAD: 218.942 cycles
LLC AVERAGE MISS LATENCY PREFETCH: 156.552 cycles
LLC AVERAGE MSHR OCCUPANCY: 3.32097
LLC MSHR FULL: 0
LLC RQ	ACCESS:    2161283	FORWARD:          0	MERGED:          0	TO_CACHE:    2160575
LLC WQ	ACCESS:    2003126	FORWARD:        708	MERGED:          0	TO_CACHE:    2003126
LLC PQ	ACCESS:         67	FORWARD:          0	MERGED:          0	TO_CACHE:         67

LLC Dense regions hint to LLC: 0

RAW hits: 84790
Loads Generated: 57291776
Loads sent to L1D: 57206979
Stores Generated: 22785115
Stores sent to L1D: 22785114
Major fault: 0 Minor fault: 17275
Allocated PAGES: 17275
Total Load insts: 86325796
Total Non-spec loads: 2229200
Percentage of speculative loads: 97.4177

LeapFrogging counter: 26728754
Commit hits: 31128722 miss: 24876654
Commit hit %: 55.5817 miss %: 44.4183
Commits not translated: 0
Loads retired: 21506085
Stores retired: 22785114
Cache fills: 21506090
L1D response latency: 28.9502 cycles
Load retirement latency: 140.506 cycles
OOO test counter: 0
Discarded buffer inserts: 31128722 hits: 3687571 hit %: 11.8462
Filter prediction accuracy: -nan
Speculative prefetch buffer size: 3
CPU 0 L1D PC-based stride prefetcher final stats
Degree: 3
CPU 0 L1D PC-based stride prefetcher final stats
Degree: 3

DRAM Statistics
 CHANNEL 0
 RQ ROW_BUFFER_HIT:     631503  ROW_BUFFER_MISS:    1018334
 DBUS_CONGESTED:        627
 WQ ROW_BUFFER_HIT:     505896  ROW_BUFFER_MISS:    1020886  FULL:          0

 AVG_CONGESTED_CYCLE: 6
 All warmup complete: 2
Channel 0 Bank busy for read cycles: 0
Channel 0 Bank busy for write cycles: 0
Channel 0
Rank 0
0banks busy for read cycles: 197591636
0banks busy for write cycles: 417730
1banks busy for read cycles: 39123379
1banks busy for write cycles: 44486352
2banks busy for read cycles: 7598319
2banks busy for write cycles: 18710713
3banks busy for read cycles: 39547369
3banks busy for write cycles: 16267582
4banks busy for read cycles: 2710148
4banks busy for write cycles: 10454549
5banks busy for read cycles: 116794
5banks busy for write cycles: 3765168
6banks busy for read cycles: 4861
6banks busy for write cycles: 634242
7banks busy for read cycles: 298
7banks busy for write cycles: 288028
8banks busy for read cycles: 0
8banks busy for write cycles: 138745

CPU 0 Branch Prediction Accuracy: 99.5304% MPKI: 0.00654 Average ROB Occupancy at Mispredict: 30.7492
Branch types
NOT_BRANCH: 199721272 99.8606%
BRANCH_DIRECT_JUMP: 61458 0.030729%
BRANCH_INDIRECT: 58898 0.029449%
BRANCH_CONDITIONAL: 146150 0.073075%
BRANCH_DIRECT_CALL: 6013 0.0030065%
BRANCH_INDIRECT_CALL: 3 1.5e-06%
BRANCH_RETURN: 6018 0.003009%
BRANCH_OTHER: 0 0%

DRAM PAGES: 1048576
Allocated PAGES: 17275
