
*** ChampSim Multicore Out-of-Order Simulator ***

Warmup Instructions: 50000000
Simulation Instructions: 200000000
Number of CPUs: 1
LLC sets: 2048
LLC ways: 16
L0D sets: 16
L0D ways: 2
ROB size: 352
LQ size: 128
SQ size: 72
Secure Berti: OFF
Berti: OFF
Berti Fill: OFF
On commit prefetching: ON
Hit-based filter: OFF
Time-guarding: ON
Free-slotting: ON
Leap-frogging: ON
Train prefetcher on L0D bypass: OFF
No translation penalty for prefetchers: OFF
Prefetch to L0D only: OFF
Prefetch to L1D only: OFF
Clean evictions: ON
Commit loads: ON
Commit write: ON
Fill commit loads to L2C, LLC: ON
DRAM IO FREQUENCY: 6400
ROB SIZE: 352
Off-chip DRAM Size: 4096 MB Channels: 1 Width: 64-bit Data Rate: 6400 MT/s
CPU 0 runs /home/sumon/secure_berti/GhostMinion/../../traces/spec/619.lbm_s-2677B.champsimtrace.xz
.xz
BTB has LRU replacement policy
ITLB has LRU replacement policy
DTLB has LRU replacement policy
STLB has LRU replacement policy
L1I has LRU replacement policy
L0D has LRU replacement policy
CPU 0 L1D IP-based stride prefetcher
CPU 0 L1D IP-based stride prefetcher
L1D has LRU replacement policy
L2C has LRU replacement policy
LLC has LRU replacement policy
Heartbeat CPU 0 instructions: 10000001 cycles: 3060195 heartbeat IPC: 3.26777 cumulative IPC: 3.26777 (Simulation time: 0 hr 0 min 42 sec) 
Heartbeat CPU 0 instructions: 20000003 cycles: 6108886 heartbeat IPC: 3.2801 cumulative IPC: 3.27392 (Simulation time: 0 hr 1 min 25 sec) 
Heartbeat CPU 0 instructions: 30000000 cycles: 9165559 heartbeat IPC: 3.27153 cumulative IPC: 3.27312 (Simulation time: 0 hr 2 min 8 sec) 
Heartbeat CPU 0 instructions: 40000000 cycles: 12220453 heartbeat IPC: 3.27344 cumulative IPC: 3.2732 (Simulation time: 0 hr 2 min 51 sec) 
Heartbeat CPU 0 instructions: 50000003 cycles: 15281717 heartbeat IPC: 3.26663 cumulative IPC: 3.27188 (Simulation time: 0 hr 3 min 36 sec) 

Warmup complete CPU 0 instructions: 50000003 cycles: 15281717 (Simulation time: 0 hr 3 min 36 sec) 

Heartbeat CPU 0 instructions: 60000001 cycles: 43918089 heartbeat IPC: 0.349206 cumulative IPC: 0.349206 (Simulation time: 0 hr 4 min 51 sec) 
Heartbeat CPU 0 instructions: 70000002 cycles: 72249127 heartbeat IPC: 0.35297 cumulative IPC: 0.351078 (Simulation time: 0 hr 6 min 5 sec) 
Heartbeat CPU 0 instructions: 80000001 cycles: 100665200 heartbeat IPC: 0.351913 cumulative IPC: 0.351356 (Simulation time: 0 hr 7 min 18 sec) 
Heartbeat CPU 0 instructions: 90000003 cycles: 129859255 heartbeat IPC: 0.342536 cumulative IPC: 0.349109 (Simulation time: 0 hr 8 min 31 sec) 
Heartbeat CPU 0 instructions: 100000000 cycles: 158733753 heartbeat IPC: 0.346326 cumulative IPC: 0.348549 (Simulation time: 0 hr 9 min 43 sec) 
Heartbeat CPU 0 instructions: 110000000 cycles: 187781335 heartbeat IPC: 0.344263 cumulative IPC: 0.347827 (Simulation time: 0 hr 10 min 56 sec) 
Heartbeat CPU 0 instructions: 120000000 cycles: 216538648 heartbeat IPC: 0.347738 cumulative IPC: 0.347814 (Simulation time: 0 hr 12 min 8 sec) 
Heartbeat CPU 0 instructions: 130000001 cycles: 245001963 heartbeat IPC: 0.351329 cumulative IPC: 0.34825 (Simulation time: 0 hr 13 min 20 sec) 
Heartbeat CPU 0 instructions: 140000001 cycles: 273896015 heartbeat IPC: 0.346092 cumulative IPC: 0.348009 (Simulation time: 0 hr 14 min 33 sec) 
Heartbeat CPU 0 instructions: 150000002 cycles: 302843498 heartbeat IPC: 0.345453 cumulative IPC: 0.347751 (Simulation time: 0 hr 15 min 46 sec) 
Heartbeat CPU 0 instructions: 160000002 cycles: 331362169 heartbeat IPC: 0.350647 cumulative IPC: 0.348013 (Simulation time: 0 hr 16 min 57 sec) 
Heartbeat CPU 0 instructions: 170000002 cycles: 359564090 heartbeat IPC: 0.354586 cumulative IPC: 0.348551 (Simulation time: 0 hr 18 min 7 sec) 
Heartbeat CPU 0 instructions: 180000000 cycles: 387159109 heartbeat IPC: 0.362384 cumulative IPC: 0.349578 (Simulation time: 0 hr 19 min 16 sec) 
Heartbeat CPU 0 instructions: 190000001 cycles: 415757037 heartbeat IPC: 0.349676 cumulative IPC: 0.349585 (Simulation time: 0 hr 20 min 26 sec) 
Heartbeat CPU 0 instructions: 200000000 cycles: 443936172 heartbeat IPC: 0.354872 cumulative IPC: 0.349932 (Simulation time: 0 hr 21 min 35 sec) 
Heartbeat CPU 0 instructions: 210000000 cycles: 472085967 heartbeat IPC: 0.355242 cumulative IPC: 0.350259 (Simulation time: 0 hr 22 min 43 sec) 
Heartbeat CPU 0 instructions: 220000000 cycles: 501241161 heartbeat IPC: 0.342992 cumulative IPC: 0.349823 (Simulation time: 0 hr 24 min 3 sec) 
Heartbeat CPU 0 instructions: 230000000 cycles: 530449612 heartbeat IPC: 0.342367 cumulative IPC: 0.349401 (Simulation time: 0 hr 26 min 2 sec) 
Heartbeat CPU 0 instructions: 240000002 cycles: 561086436 heartbeat IPC: 0.326405 cumulative IPC: 0.34811 (Simulation time: 0 hr 27 min 26 sec) 
Heartbeat CPU 0 instructions: 250000003 cycles: 590950956 heartbeat IPC: 0.334846 cumulative IPC: 0.347422 (Simulation time: 0 hr 28 min 51 sec) 
Finished CPU 0 instructions: 200000000 cycles: 575669239 cumulative IPC: 0.347422 (Simulation time: 0 hr 28 min 51 sec) 
 Instruction ID: 250000377

ChampSim completed all CPUs

Region of Interest Statistics

CPU 0 cumulative IPC: 0.347422 instructions: 200000000 cycles: 575669239
ITLB SPEC fills:          0  NON-SPEC fills:          0
ITLB Test counter :          0
ITLB Leapfrog:          0
ITLB MSHR merge:          0
ITLB TOTAL     ACCESS:   27159615  HIT:   27159615  MISS:          0  HIT %:        100  MISS %:          0   MPKI: 0
ITLB LOAD TRANSLATION NON_SPEC    ACCESS:   27159615  HIT:   27159615  MISS:          0  HIT %:        100  MISS %:          0   MPKI: 0
ITLB PREFETCH  REQUESTED:          0  ISSUED:          0  USEFUL:          0  USELESS:          0
ITLB USEFUL LOAD PREFETCHES:          0 PREFETCH ISSUED TO LOWER LEVEL:          0  ACCURACY: -nan
ITLB TIMELY PREFETCHES:          0 LATE PREFETCHES: 0 DROPPED PREFETCHES: 0
ITLB COMMIT LATE PREFETCHES: 0 NORMAL LATE: 0 MISSED OPPORTUNITY: 0 UNCOVERED: 0
ITLB PREFETCHES SAME FILL-ORIGIN LEVEL: 0 DIFFERENT FILL-ORIGIN LEVEL: 0
ITLB AVERAGE MISS LATENCY: -nan cycles
ITLB AVERAGE MISS LATENCY LOAD: -nan cycles
ITLB AVERAGE MISS LATENCY PREFETCH: -nan cycles
ITLB AVERAGE MSHR OCCUPANCY: 0
ITLB MSHR FULL: 0
ITLB RQ	ACCESS:   34984116	FORWARD:          0	MERGED:    7824502	TO_CACHE:   27159614

DTLB SPEC fills:          0  NON-SPEC fills:          0
DTLB Test counter :          0
DTLB Leapfrog:          0
DTLB MSHR merge:          0
DTLB TOTAL     ACCESS:   38836857  HIT:   38560810  MISS:     276047  HIT %:    99.2892  MISS %:   0.710786   MPKI: 1.38024
DTLB LOAD TRANSLATION NON_SPEC    ACCESS:   38836857  HIT:   38560810  MISS:     276047  HIT %:    99.2892  MISS %:   0.710786   MPKI: 1.38024
DTLB PREFETCH  REQUESTED:          0  ISSUED:          0  USEFUL:          0  USELESS:          0
DTLB USEFUL LOAD PREFETCHES:          0 PREFETCH ISSUED TO LOWER LEVEL:          0  ACCURACY: -nan
DTLB TIMELY PREFETCHES:          0 LATE PREFETCHES: 0 DROPPED PREFETCHES: 0
DTLB COMMIT LATE PREFETCHES: 0 NORMAL LATE: 0 MISSED OPPORTUNITY: 0 UNCOVERED: 0
DTLB PREFETCHES SAME FILL-ORIGIN LEVEL: 0 DIFFERENT FILL-ORIGIN LEVEL: 0
DTLB AVERAGE MISS LATENCY: 130.934 cycles
DTLB AVERAGE MISS LATENCY LOAD: -nan cycles
DTLB AVERAGE MISS LATENCY PREFETCH: -nan cycles
DTLB AVERAGE MSHR OCCUPANCY: 0.0872135
DTLB MSHR FULL: 0
DTLB RQ	ACCESS:   61683894	FORWARD:          0	MERGED:   22712096	TO_CACHE:   38971798

STLB SPEC fills:          0  NON-SPEC fills:          0
STLB Test counter :          0
STLB Leapfrog:          0
STLB MSHR merge:          0
STLB TOTAL     ACCESS:     282135  HIT:     132351  MISS:     149784  HIT %:    46.9105  MISS %:    53.0895   MPKI: 0.74892
STLB LOAD TRANSLATION NON_SPEC    ACCESS:     276047  HIT:     126263  MISS:     149784  HIT %:    45.7397  MISS %:    54.2603   MPKI: 0.74892
STLB TRANSLATION FROM L1D PREFETCHER NON_SPEC    ACCESS:       6088  HIT:       6088  MISS:          0  HIT %:        100  MISS %:          0   MPKI: 0
STLB PREFETCH  REQUESTED:          0  ISSUED:          0  USEFUL:          0  USELESS:          0
STLB USEFUL LOAD PREFETCHES:          0 PREFETCH ISSUED TO LOWER LEVEL:          0  ACCURACY: -nan
STLB TIMELY PREFETCHES:          0 LATE PREFETCHES: 0 DROPPED PREFETCHES: 0
STLB COMMIT LATE PREFETCHES: 0 NORMAL LATE: 0 MISSED OPPORTUNITY: 0 UNCOVERED: 0
STLB PREFETCHES SAME FILL-ORIGIN LEVEL: 0 DIFFERENT FILL-ORIGIN LEVEL: 0
STLB AVERAGE MISS LATENCY: 224.596 cycles
STLB AVERAGE MISS LATENCY LOAD: -nan cycles
STLB AVERAGE MISS LATENCY PREFETCH: -nan cycles
STLB AVERAGE MSHR OCCUPANCY: 0.157843
STLB MSHR FULL: 0
STLB RQ	ACCESS:     286990	FORWARD:          0	MERGED:       4848	TO_CACHE:     282142

STLB Hit, L1D data hit: 0
STLB Hit, L2C data hit: 0
STLB Hit, LLC data hit: 0
STLB Hit, LLC data miss: 0
STLB STLB hints to L2: 0
L0D SPEC fills:   11908822  NON-SPEC fills:          0
L0D TimeGuard Request with older TS:     238468 Restricted eviction:      53825 read:    1214961
L0D Test counter :          0
L0D Leapfrog:          0
L0D MSHR merge:    4862805
L0D TOTAL     ACCESS:   19876156  HIT:    6697419  MISS:   13178737  HIT %:    33.6957  MISS %:    66.3043   MPKI: 65.8937
L0D LOAD      TOTAL       ACCESS:   19876156  HIT:    6697419  MISS:   13178737  HIT %:    33.6957  MISS %:    66.3043   MPKI: 65.8937
L0D LOAD      NON_SPEC    ACCESS:    1718843  HIT:     502753  MISS:    1216090  HIT %:    29.2495  MISS %:    70.7505   MPKI: 6.08045
L0D LOAD      SPEC        ACCESS:   18157313  HIT:    6194666  MISS:   11962647  HIT %:    34.1166  MISS %:    65.8834   MPKI: 59.8132
L0D PREFETCH  REQUESTED:          0  ISSUED:          0  USEFUL:          0  USELESS:          0
L0D USEFUL LOAD PREFETCHES:          0 PREFETCH ISSUED TO LOWER LEVEL:          0  ACCURACY: -nan
L0D TIMELY PREFETCHES:          0 LATE PREFETCHES: 0 DROPPED PREFETCHES: 0
L0D COMMIT LATE PREFETCHES: 0 NORMAL LATE: 0 MISSED OPPORTUNITY: 0 UNCOVERED: 0
L0D PREFETCHES SAME FILL-ORIGIN LEVEL: 0 DIFFERENT FILL-ORIGIN LEVEL: 0
L0D AVERAGE MISS LATENCY: 127.09 cycles
L0D AVERAGE MISS LATENCY LOAD: 127.09 cycles
L0D AVERAGE MISS LATENCY PREFETCH: -nan cycles
L0D AVERAGE MSHR OCCUPANCY: 2.13257
L0D MSHR FULL: 0.0757632
L0D RQ	ACCESS:   47506446	FORWARD:          0	MERGED:   22767489	TO_CACHE:   24738957
L0D WQ	ACCESS:   36944937	FORWARD:          0	MERGED:          0	TO_CACHE:   36944937

L1D SPEC fills:          0  NON-SPEC fills:      20804
L1D Test counter :          0
L1D Leapfrog:          0
L1D MSHR merge:       6285
L1D TOTAL     ACCESS:   74004296  HIT:   55529290  MISS:   18475006  HIT %:    75.0352  MISS %:    24.9648   MPKI: 92.375
L1D LOAD      TOTAL       ACCESS:   13172456  HIT:   10752800  MISS:    2419656  HIT %:    81.6309  MISS %:    18.3691   MPKI: 12.0983
L1D LOAD      NON_SPEC    ACCESS:    1213341  HIT:    1192537  MISS:      20804  HIT %:    98.2854  MISS %:     1.7146   MPKI: 0.10402
L1D LOAD      SPEC        ACCESS:   11959115  HIT:    9560263  MISS:    2398852  HIT %:    79.9412  MISS %:    20.0588   MPKI: 11.9943
L1D RFO       NON_SPEC    ACCESS:   35940451  HIT:   22526771  MISS:   13413680  HIT %:     62.678  MISS %:     37.322   MPKI: 67.0684
L1D PREFETCH  NON_SPEC    ACCESS:       3204  HIT:        265  MISS:       2939  HIT %:    8.27091  MISS %:    91.7291   MPKI: 0.014695
L1D COMMIT LOAD NON_SPEC    ACCESS:   13299144  HIT:   13033831  MISS:     265313  HIT %:     98.005  MISS %:    1.99496   MPKI: 1.32656
L1D COMMIT WRITE NON_SPEC    ACCESS:   11589041  HIT:    9215623  MISS:    2373418  HIT %:    79.5202  MISS %:    20.4798   MPKI: 11.8671
L1D PREFETCH  REQUESTED:      22485  ISSUED:      20822  USEFUL:        798  USELESS:       2141
L1D USEFUL LOAD PREFETCHES:        798 PREFETCH ISSUED TO LOWER LEVEL:       9929  ACCURACY: 8.03706
L1D TIMELY PREFETCHES:        798 LATE PREFETCHES: 5 DROPPED PREFETCHES: 0
L1D COMMIT LATE PREFETCHES: 1 NORMAL LATE: 6 MISSED OPPORTUNITY: 203541 UNCOVERED: 2216162
L1D PREFETCHES SAME FILL-ORIGIN LEVEL: 2949 DIFFERENT FILL-ORIGIN LEVEL: 6980
L1D AVERAGE MISS LATENCY: 279.851 cycles
L1D AVERAGE MISS LATENCY LOAD: 490.187 cycles
L1D AVERAGE MISS LATENCY PREFETCH: 294.749 cycles
L1D AVERAGE MSHR OCCUPANCY: 14.8164
L1D MSHR FULL: 0.896213
L1D RQ	ACCESS:   47251995	FORWARD:          0	MERGED:   20642738	TO_CACHE:   26478065
L1D WQ	ACCESS:   48605967	FORWARD:     131192	MERGED:     961059	TO_CACHE:   47644908
L1D PQ	ACCESS:      20822	FORWARD:          0	MERGED:       9879	TO_CACHE:      10943

L1D UNIQUE REGIONS ACCESSED: 0
L1D REGIONS CONFLICTS: 0
L1D Cross Page Prefetch Requests: 0
L1D Same Page Prefetch Requests: 27321
L1D ROI Sum of L1D PQ occupancy: 1683614
L1D PREFETCHES PUSHED FROM L2C: 0
L1I SPEC fills:          0  NON-SPEC fills:          0
L1I Test counter :          0
L1I Leapfrog:          0
L1I MSHR merge:          0
L1I TOTAL     ACCESS:   34984116  HIT:   34984116  MISS:          0  HIT %:        100  MISS %:          0   MPKI: 0
L1I LOAD      TOTAL       ACCESS:   34984116  HIT:   34984116  MISS:          0  HIT %:        100  MISS %:          0   MPKI: 0
L1I LOAD      NON_SPEC    ACCESS:   34984116  HIT:   34984116  MISS:          0  HIT %:        100  MISS %:          0   MPKI: 0
L1I PREFETCH  REQUESTED:          0  ISSUED:          0  USEFUL:          0  USELESS:          0
L1I USEFUL LOAD PREFETCHES:          0 PREFETCH ISSUED TO LOWER LEVEL:          0  ACCURACY: -nan
L1I TIMELY PREFETCHES:          0 LATE PREFETCHES: 0 DROPPED PREFETCHES: 0
L1I COMMIT LATE PREFETCHES: 0 NORMAL LATE: 0 MISSED OPPORTUNITY: 0 UNCOVERED: 0
L1I PREFETCHES SAME FILL-ORIGIN LEVEL: 0 DIFFERENT FILL-ORIGIN LEVEL: 0
L1I AVERAGE MISS LATENCY: -nan cycles
L1I AVERAGE MISS LATENCY LOAD: -nan cycles
L1I AVERAGE MISS LATENCY PREFETCH: -nan cycles
L1I AVERAGE MSHR OCCUPANCY: 0
L1I MSHR FULL: 0
L1I RQ	ACCESS:   51165785	FORWARD:          0	MERGED:   16181669	TO_CACHE:   34984116

BTB SPEC fills:          0  NON-SPEC fills:          0
BTB Test counter :          0
BTB Leapfrog:          0
BTB MSHR merge:          0
BTB TOTAL     ACCESS:    3609719  HIT:    3609713  MISS:          6  HIT %:    99.9998  MISS %: 0.000166218   MPKI: 3e-05
BTB BRANCH_DIRECT_JUMP	ACCESS:     590927  HIT:     590926  MISS:          1
BTB BRANCH_INDIRECT	ACCESS:          0  HIT:          0  MISS:          0
BTB BRANCH_CONDITIONAL	ACCESS:    3018792  HIT:    3018787  MISS:          5
BTB BRANCH_DIRECT_CALL	ACCESS:          0  HIT:          0  MISS:          0
BTB BRANCH_INDIRECT_CALL	ACCESS:          0  HIT:          0  MISS:          0
BTB BRANCH_RETURN	ACCESS:          0  HIT:          0  MISS:          0
BTB BRANCH_OTHER ACCESS:          0  HIT:          0  MISS:          0

L2C SPEC fills:          0  NON-SPEC fills:      20775
L2C Test counter :          0
L2C Leapfrog:          0
L2C MSHR merge:          1
L2C TOTAL     ACCESS:   32663648  HIT:   20572301  MISS:   12091347  HIT %:    62.9823  MISS %:    37.0177   MPKI: 60.4567
L2C LOAD      TOTAL       ACCESS:    2419648  HIT:        987  MISS:    2418661  HIT %:  0.0407911  MISS %:    99.9592   MPKI: 12.0933
L2C LOAD      NON_SPEC    ACCESS:      20803  HIT:         28  MISS:      20775  HIT %:   0.134596  MISS %:    99.8654   MPKI: 0.103875
L2C LOAD      SPEC        ACCESS:    2398845  HIT:        959  MISS:    2397886  HIT %:  0.0399776  MISS %:      99.96   MPKI: 11.9894
L2C RFO       NON_SPEC    ACCESS:   13413669  HIT:    6140110  MISS:    7273559  HIT %:     45.775  MISS %:     54.225   MPKI: 36.3678
L2C PREFETCH  NON_SPEC    ACCESS:       9418  HIT:       3646  MISS:       5772  HIT %:    38.7131  MISS %:    61.2869   MPKI: 0.02886
L2C WRITEBACK NON_SPEC    ACCESS:   13415819  HIT:   13415284  MISS:        535  HIT %:     99.996  MISS %: 0.00398783   MPKI: 0.002675
L2C CLEAN_EVICTION NON_SPEC    ACCESS:    2391007  HIT:     282278  MISS:    2108729  HIT %:    11.8058  MISS %:    88.1942   MPKI: 10.5436
L2C COMMIT LOAD NON_SPEC    ACCESS:     265313  HIT:        125  MISS:     265188  HIT %:  0.0471142  MISS %:    99.9529   MPKI: 1.32594
L2C LOAD TRANSLATION NON_SPEC    ACCESS:     748774  HIT:     729871  MISS:      18903  HIT %:    97.4755  MISS %:    2.52453   MPKI: 0.094515
L2C PREFETCH  REQUESTED:          0  ISSUED:          0  USEFUL:       4601  USELESS:       1171
L2C USEFUL LOAD PREFETCHES:       4601 PREFETCH ISSUED TO LOWER LEVEL:       5800  ACCURACY: 79.3276
L2C TIMELY PREFETCHES:       4601 LATE PREFETCHES: 28 DROPPED PREFETCHES: 0
L2C COMMIT LATE PREFETCHES: 0 NORMAL LATE: 28 MISSED OPPORTUNITY: 0 UNCOVERED: 2418660
L2C PREFETCHES SAME FILL-ORIGIN LEVEL: 3978 DIFFERENT FILL-ORIGIN LEVEL: 0
L2C AVERAGE MISS LATENCY: 397.394 cycles
L2C AVERAGE MISS LATENCY LOAD: 420.391 cycles
L2C AVERAGE MISS LATENCY PREFETCH: 608.676 cycles
L2C AVERAGE MSHR OCCUPANCY: 9.14074
L2C MSHR FULL: 8.76616e-05
L2C RQ	ACCESS:   16847414	FORWARD:          0	MERGED:          0	TO_CACHE:   16847405
L2C WQ	ACCESS:   15806827	FORWARD:          9	MERGED:          1	TO_CACHE:   15806826
L2C PQ	ACCESS:       9929	FORWARD:          0	MERGED:          3	TO_CACHE:       9926

L2C Instructions Evicting Data 0
L2C Translations Evicting Data 18815
L2C Data Evicting Data 7550899
L2C Instructions Evicting Instructions 0
L2C Translations Evicting Instructions 0
L2C Data Evicting Instructions 0
L2C Instructions Evicting Translations 0
L2C Translations Evicting Translations 88
L2C Data Evicting Translations 14395
L2C Dense regions hint from L2: 0
PSCL5 SPEC fills:          0  NON-SPEC fills:          0
PSCL5 Test counter :          0
PSCL5 Leapfrog:          0
PSCL5 MSHR merge:          0
PSCL5 TOTAL     ACCESS:          0  HIT:          0  MISS:          0  HIT %:       -nan  MISS %:       -nan   MPKI: 0
PSCL5 PREFETCH  REQUESTED:          0  ISSUED:          0  USEFUL:          0  USELESS:          0
PSCL5 USEFUL LOAD PREFETCHES:          0 PREFETCH ISSUED TO LOWER LEVEL:          0  ACCURACY: -nan
PSCL5 TIMELY PREFETCHES:          0 LATE PREFETCHES: 0 DROPPED PREFETCHES: 0
PSCL5 COMMIT LATE PREFETCHES: 0 NORMAL LATE: 0 MISSED OPPORTUNITY: 0 UNCOVERED: 0
PSCL5 PREFETCHES SAME FILL-ORIGIN LEVEL: 0 DIFFERENT FILL-ORIGIN LEVEL: 0

PSCL4 SPEC fills:          0  NON-SPEC fills:          0
PSCL4 Test counter :          0
PSCL4 Leapfrog:          0
PSCL4 MSHR merge:          0
PSCL4 TOTAL     ACCESS:          0  HIT:          0  MISS:          0  HIT %:       -nan  MISS %:       -nan   MPKI: 0
PSCL4 PREFETCH  REQUESTED:          0  ISSUED:          0  USEFUL:          0  USELESS:          0
PSCL4 USEFUL LOAD PREFETCHES:          0 PREFETCH ISSUED TO LOWER LEVEL:          0  ACCURACY: -nan
PSCL4 TIMELY PREFETCHES:          0 LATE PREFETCHES: 0 DROPPED PREFETCHES: 0
PSCL4 COMMIT LATE PREFETCHES: 0 NORMAL LATE: 0 MISSED OPPORTUNITY: 0 UNCOVERED: 0
PSCL4 PREFETCHES SAME FILL-ORIGIN LEVEL: 0 DIFFERENT FILL-ORIGIN LEVEL: 0

PSCL3 SPEC fills:          0  NON-SPEC fills:          0
PSCL3 Test counter :          0
PSCL3 Leapfrog:          0
PSCL3 MSHR merge:          0
PSCL3 TOTAL     ACCESS:          0  HIT:          0  MISS:          0  HIT %:       -nan  MISS %:       -nan   MPKI: 0
PSCL3 PREFETCH  REQUESTED:          0  ISSUED:          0  USEFUL:          0  USELESS:          0
PSCL3 USEFUL LOAD PREFETCHES:          0 PREFETCH ISSUED TO LOWER LEVEL:          0  ACCURACY: -nan
PSCL3 TIMELY PREFETCHES:          0 LATE PREFETCHES: 0 DROPPED PREFETCHES: 0
PSCL3 COMMIT LATE PREFETCHES: 0 NORMAL LATE: 0 MISSED OPPORTUNITY: 0 UNCOVERED: 0
PSCL3 PREFETCHES SAME FILL-ORIGIN LEVEL: 0 DIFFERENT FILL-ORIGIN LEVEL: 0

PSCL2 SPEC fills:          0  NON-SPEC fills:          0
PSCL2 Test counter :          0
PSCL2 Leapfrog:          0
PSCL2 MSHR merge:          0
PSCL2 TOTAL     ACCESS:          0  HIT:          0  MISS:          0  HIT %:       -nan  MISS %:       -nan   MPKI: 0
PSCL2 PREFETCH  REQUESTED:          0  ISSUED:          0  USEFUL:          0  USELESS:          0
PSCL2 USEFUL LOAD PREFETCHES:          0 PREFETCH ISSUED TO LOWER LEVEL:          0  ACCURACY: -nan
PSCL2 TIMELY PREFETCHES:          0 LATE PREFETCHES: 0 DROPPED PREFETCHES: 0
PSCL2 COMMIT LATE PREFETCHES: 0 NORMAL LATE: 0 MISSED OPPORTUNITY: 0 UNCOVERED: 0
PSCL2 PREFETCHES SAME FILL-ORIGIN LEVEL: 0 DIFFERENT FILL-ORIGIN LEVEL: 0

LLC SPEC fills:          0  NON-SPEC fills:      20773
LLC Test counter :          0
LLC Leapfrog:          0
LLC MSHR merge:          0
LLC TOTAL     ACCESS:   19647694  HIT:    7647462  MISS:   12000232  HIT %:    38.9229  MISS %:    61.0771   MPKI: 60.0012
LLC LOAD      TOTAL       ACCESS:    2418660  HIT:          7  MISS:    2418653  HIT %: 0.000289416  MISS %:    99.9997   MPKI: 12.0933
LLC LOAD      NON_SPEC    ACCESS:      20775  HIT:          2  MISS:      20773  HIT %: 0.00962696  MISS %:    99.9904   MPKI: 0.103865
LLC LOAD      SPEC        ACCESS:    2397885  HIT:          5  MISS:    2397880  HIT %: 0.000208517  MISS %:    99.9998   MPKI: 11.9894
LLC RFO       NON_SPEC    ACCESS:    7273527  HIT:      90814  MISS:    7182713  HIT %:    1.24856  MISS %:    98.7514   MPKI: 35.9136
LLC PREFETCH  NON_SPEC    ACCESS:       5800  HIT:         75  MISS:       5725  HIT %:     1.2931  MISS %:    98.7069   MPKI: 0.028625
LLC WRITEBACK NON_SPEC    ACCESS:    7277747  HIT:    7277352  MISS:        395  HIT %:    99.9946  MISS %:  0.0054275   MPKI: 0.001975
LLC CLEAN_EVICTION NON_SPEC    ACCESS:    2387869  HIT:     279214  MISS:    2108655  HIT %:     11.693  MISS %:     88.307   MPKI: 10.5433
LLC COMMIT LOAD NON_SPEC    ACCESS:     265188  HIT:          0  MISS:     265188  HIT %:          0  MISS %:        100   MPKI: 1.32594
LLC LOAD TRANSLATION NON_SPEC    ACCESS:      18903  HIT:          0  MISS:      18903  HIT %:          0  MISS %:        100   MPKI: 0.094515
LLC PREFETCH  REQUESTED:          0  ISSUED:          0  USEFUL:         67  USELESS:       5667
LLC USEFUL LOAD PREFETCHES:         67 PREFETCH ISSUED TO LOWER LEVEL:       5725  ACCURACY: 1.17031
LLC TIMELY PREFETCHES:         67 LATE PREFETCHES: 0 DROPPED PREFETCHES: 0
LLC COMMIT LATE PREFETCHES: 0 NORMAL LATE: 0 MISSED OPPORTUNITY: 0 UNCOVERED: 0
LLC PREFETCHES SAME FILL-ORIGIN LEVEL: 0 DIFFERENT FILL-ORIGIN LEVEL: 0
LLC AVERAGE MISS LATENCY: 376.84 cycles
LLC AVERAGE MISS LATENCY LOAD: 398.92 cycles
LLC AVERAGE MISS LATENCY PREFETCH: 586.646 cycles
LLC AVERAGE MSHR OCCUPANCY: 8.48896
LLC MSHR FULL: 0
LLC RQ	ACCESS:    9976284	FORWARD:          0	MERGED:          0	TO_CACHE:    9976279
LLC WQ	ACCESS:    9665617	FORWARD:          5	MERGED:          0	TO_CACHE:    9665617
LLC PQ	ACCESS:       5800	FORWARD:          0	MERGED:          0	TO_CACHE:       5800

LLC Dense regions hint to LLC: 0

RAW hits: 4725028
Loads Generated: 52231474
Loads sent to L1D: 47506446
Stores Generated: 36944939
Stores sent to L1D: 36944937
Major fault: 0 Minor fault: 96650
Allocated PAGES: 96650
Total Load insts: 59042745
Total Non-spec loads: 2133094
Percentage of speculative loads: 96.3872

LeapFrogging counter: 21478109
Commit hits: 11670589 miss: 34073259
Commit hit %: 25.5129 miss %: 74.4871
Commits not translated: 0
Loads retired: 2419656
Stores retired: 36944937
Cache fills: 2419656
L1D response latency: 490.187 cycles
Load retirement latency: 859.855 cycles
OOO test counter: 0
Discarded buffer inserts: 11670589 hits: 295896 hit %: 2.5354
Filter prediction accuracy: -nan
Speculative prefetch buffer size: 0
CPU 0 L1D PC-based stride prefetcher final stats
Degree: 3
CPU 0 L1D PC-based stride prefetcher final stats
Degree: 3

DRAM Statistics
 CHANNEL 0
 RQ ROW_BUFFER_HIT:     549054  ROW_BUFFER_MISS:    9342128
 DBUS_CONGESTED:          8
 WQ ROW_BUFFER_HIT:    2272427  ROW_BUFFER_MISS:    7302081  FULL:      81625

 AVG_CONGESTED_CYCLE: 5
 All warmup complete: 2
Channel 0 Bank busy for read cycles: 0
Channel 0 Bank busy for write cycles: 0
Channel 0
Rank 0
0banks busy for read cycles: 48557013
0banks busy for write cycles: 42617
1banks busy for read cycles: 32321937
1banks busy for write cycles: 4862084
2banks busy for read cycles: 15769686
2banks busy for write cycles: 3970345
3banks busy for read cycles: 15633333
3banks busy for write cycles: 3630427
4banks busy for read cycles: 57830609
4banks busy for write cycles: 3616453
5banks busy for read cycles: 57836830
5banks busy for write cycles: 4056573
6banks busy for read cycles: 47649451
6banks busy for write cycles: 4436067
7banks busy for read cycles: 49439925
7banks busy for write cycles: 14852980
8banks busy for read cycles: 38912202
8banks busy for write cycles: 172250708

CPU 0 Branch Prediction Accuracy: 97.0951% MPKI: 0.52429 Average ROB Occupancy at Mispredict: 280.21
Branch types
NOT_BRANCH: 196390261 98.1951%
BRANCH_DIRECT_JUMP: 590927 0.295463%
BRANCH_INDIRECT: 0 0%
BRANCH_CONDITIONAL: 3018804 1.5094%
BRANCH_DIRECT_CALL: 0 0%
BRANCH_INDIRECT_CALL: 0 0%
BRANCH_RETURN: 0 0%
BRANCH_OTHER: 0 0%

DRAM PAGES: 1048576
Allocated PAGES: 96650
