
*** ChampSim Multicore Out-of-Order Simulator ***

Warmup Instructions: 50000000
Simulation Instructions: 200000000
Number of CPUs: 1
LLC sets: 2048
LLC ways: 16
L0D sets: 16
L0D ways: 2
ROB size: 352
LQ size: 128
SQ size: 72
Secure Berti: OFF
Berti: OFF
Berti Fill: OFF
On commit prefetching: ON
Hit-based filter: OFF
Time-guarding: ON
Free-slotting: ON
Leap-frogging: ON
Train prefetcher on L0D bypass: OFF
No translation penalty for prefetchers: OFF
Prefetch to L0D only: OFF
Prefetch to L1D only: OFF
Clean evictions: ON
Commit loads: ON
Commit write: ON
Fill commit loads to L2C, LLC: ON
DRAM IO FREQUENCY: 6400
ROB SIZE: 352
Off-chip DRAM Size: 4096 MB Channels: 1 Width: 64-bit Data Rate: 6400 MT/s
CPU 0 runs /home/sumon/secure_berti/GhostMinion/../../traces/spec/620.omnetpp_s-874B.champsimtrace.xz
.xz
BTB has LRU replacement policy
ITLB has LRU replacement policy
DTLB has LRU replacement policy
STLB has LRU replacement policy
L1I has LRU replacement policy
L0D has LRU replacement policy
CPU 0 L1D IP-based stride prefetcher
CPU 0 L1D IP-based stride prefetcher
L1D has LRU replacement policy
L2C has LRU replacement policy
LLC has LRU replacement policy
Heartbeat CPU 0 instructions: 10000001 cycles: 8124069 heartbeat IPC: 1.23091 cumulative IPC: 1.23091 (Simulation time: 0 hr 1 min 5 sec) 
Heartbeat CPU 0 instructions: 20000000 cycles: 16249863 heartbeat IPC: 1.23065 cumulative IPC: 1.23078 (Simulation time: 0 hr 2 min 11 sec) 
Heartbeat CPU 0 instructions: 30000003 cycles: 24354964 heartbeat IPC: 1.23379 cumulative IPC: 1.23178 (Simulation time: 0 hr 3 min 20 sec) 
Heartbeat CPU 0 instructions: 40000000 cycles: 32485547 heartbeat IPC: 1.22992 cumulative IPC: 1.23132 (Simulation time: 0 hr 4 min 32 sec) 
Heartbeat CPU 0 instructions: 50000000 cycles: 40621987 heartbeat IPC: 1.22904 cumulative IPC: 1.23086 (Simulation time: 0 hr 5 min 44 sec) 

Warmup complete CPU 0 instructions: 50000004 cycles: 40621988 (Simulation time: 0 hr 5 min 44 sec) 

Heartbeat CPU 0 instructions: 60000001 cycles: 81126100 heartbeat IPC: 0.246889 cumulative IPC: 0.246888 (Simulation time: 0 hr 7 min 10 sec) 
Heartbeat CPU 0 instructions: 70000001 cycles: 121289673 heartbeat IPC: 0.248982 cumulative IPC: 0.247931 (Simulation time: 0 hr 8 min 34 sec) 
Heartbeat CPU 0 instructions: 80000002 cycles: 161676185 heartbeat IPC: 0.247607 cumulative IPC: 0.247823 (Simulation time: 0 hr 9 min 56 sec) 
Heartbeat CPU 0 instructions: 90000002 cycles: 201476074 heartbeat IPC: 0.251257 cumulative IPC: 0.248673 (Simulation time: 0 hr 11 min 17 sec) 
Heartbeat CPU 0 instructions: 100000000 cycles: 242300363 heartbeat IPC: 0.244952 cumulative IPC: 0.247919 (Simulation time: 0 hr 12 min 38 sec) 
Heartbeat CPU 0 instructions: 110000000 cycles: 282313025 heartbeat IPC: 0.249921 cumulative IPC: 0.248251 (Simulation time: 0 hr 14 min 0 sec) 
Heartbeat CPU 0 instructions: 120000000 cycles: 322674107 heartbeat IPC: 0.247763 cumulative IPC: 0.248181 (Simulation time: 0 hr 15 min 27 sec) 
Heartbeat CPU 0 instructions: 130000000 cycles: 363210680 heartbeat IPC: 0.246691 cumulative IPC: 0.247994 (Simulation time: 0 hr 17 min 43 sec) 
Heartbeat CPU 0 instructions: 140000001 cycles: 403543711 heartbeat IPC: 0.247936 cumulative IPC: 0.247987 (Simulation time: 0 hr 20 min 0 sec) 
Heartbeat CPU 0 instructions: 150000002 cycles: 444039556 heartbeat IPC: 0.246939 cumulative IPC: 0.247882 (Simulation time: 0 hr 22 min 15 sec) 
Heartbeat CPU 0 instructions: 160000000 cycles: 484822718 heartbeat IPC: 0.245199 cumulative IPC: 0.247636 (Simulation time: 0 hr 24 min 30 sec) 
Heartbeat CPU 0 instructions: 170000000 cycles: 524896758 heartbeat IPC: 0.249538 cumulative IPC: 0.247793 (Simulation time: 0 hr 26 min 42 sec) 
Heartbeat CPU 0 instructions: 180000000 cycles: 565262910 heartbeat IPC: 0.247732 cumulative IPC: 0.247789 (Simulation time: 0 hr 28 min 9 sec) 
Heartbeat CPU 0 instructions: 190000003 cycles: 605749645 heartbeat IPC: 0.246995 cumulative IPC: 0.247732 (Simulation time: 0 hr 29 min 26 sec) 
Heartbeat CPU 0 instructions: 200000000 cycles: 646048217 heartbeat IPC: 0.248148 cumulative IPC: 0.247759 (Simulation time: 0 hr 30 min 38 sec) 
Heartbeat CPU 0 instructions: 210000000 cycles: 686533112 heartbeat IPC: 0.247006 cumulative IPC: 0.247712 (Simulation time: 0 hr 31 min 46 sec) 
Heartbeat CPU 0 instructions: 220000000 cycles: 726684250 heartbeat IPC: 0.249059 cumulative IPC: 0.247791 (Simulation time: 0 hr 32 min 44 sec) 
Heartbeat CPU 0 instructions: 230000002 cycles: 766763599 heartbeat IPC: 0.249505 cumulative IPC: 0.247886 (Simulation time: 0 hr 33 min 37 sec) 
Heartbeat CPU 0 instructions: 240000001 cycles: 807363461 heartbeat IPC: 0.246306 cumulative IPC: 0.247802 (Simulation time: 0 hr 34 min 31 sec) 
Heartbeat CPU 0 instructions: 250000000 cycles: 847803926 heartbeat IPC: 0.247277 cumulative IPC: 0.247776 (Simulation time: 0 hr 35 min 23 sec) 
Finished CPU 0 instructions: 200000000 cycles: 807181939 cumulative IPC: 0.247776 (Simulation time: 0 hr 35 min 23 sec) 
 Instruction ID: 250000019

ChampSim completed all CPUs

Region of Interest Statistics

CPU 0 cumulative IPC: 0.247776 instructions: 200000000 cycles: 807181939
ITLB SPEC fills:          0  NON-SPEC fills:          0
ITLB Test counter :          0
ITLB Leapfrog:          0
ITLB MSHR merge:          0
ITLB TOTAL     ACCESS:   32902634  HIT:   32585273  MISS:     317361  HIT %:    99.0355  MISS %:   0.964546   MPKI: 1.58681
ITLB LOAD TRANSLATION NON_SPEC    ACCESS:   32902634  HIT:   32585273  MISS:     317361  HIT %:    99.0355  MISS %:   0.964546   MPKI: 1.58681
ITLB PREFETCH  REQUESTED:          0  ISSUED:          0  USEFUL:          0  USELESS:          0
ITLB USEFUL LOAD PREFETCHES:          0 PREFETCH ISSUED TO LOWER LEVEL:          0  ACCURACY: -nan
ITLB TIMELY PREFETCHES:          0 LATE PREFETCHES: 0 DROPPED PREFETCHES: 0
ITLB COMMIT LATE PREFETCHES: 0 NORMAL LATE: 0 MISSED OPPORTUNITY: 0 UNCOVERED: 0
ITLB PREFETCHES SAME FILL-ORIGIN LEVEL: 0 DIFFERENT FILL-ORIGIN LEVEL: 0
ITLB AVERAGE MISS LATENCY: 10.4289 cycles
ITLB AVERAGE MISS LATENCY LOAD: -nan cycles
ITLB AVERAGE MISS LATENCY PREFETCH: -nan cycles
ITLB AVERAGE MSHR OCCUPANCY: 0.00937916
ITLB MSHR FULL: 0
ITLB RQ	ACCESS:   37061593	FORWARD:          0	MERGED:    4062376	TO_CACHE:   32999217

DTLB SPEC fills:          0  NON-SPEC fills:          0
DTLB Test counter :          0
DTLB Leapfrog:          0
DTLB MSHR merge:          0
DTLB TOTAL     ACCESS:   81624445  HIT:   77812518  MISS:    3811927  HIT %:    95.3299  MISS %:    4.67008   MPKI: 19.0596
DTLB LOAD TRANSLATION NON_SPEC    ACCESS:   81624445  HIT:   77812518  MISS:    3811927  HIT %:    95.3299  MISS %:    4.67008   MPKI: 19.0596
DTLB PREFETCH  REQUESTED:          0  ISSUED:          0  USEFUL:          0  USELESS:          0
DTLB USEFUL LOAD PREFETCHES:          0 PREFETCH ISSUED TO LOWER LEVEL:          0  ACCURACY: -nan
DTLB TIMELY PREFETCHES:          0 LATE PREFETCHES: 0 DROPPED PREFETCHES: 0
DTLB COMMIT LATE PREFETCHES: 0 NORMAL LATE: 0 MISSED OPPORTUNITY: 0 UNCOVERED: 0
DTLB PREFETCHES SAME FILL-ORIGIN LEVEL: 0 DIFFERENT FILL-ORIGIN LEVEL: 0
DTLB AVERAGE MISS LATENCY: 37.1593 cycles
DTLB AVERAGE MISS LATENCY LOAD: -nan cycles
DTLB AVERAGE MISS LATENCY PREFETCH: -nan cycles
DTLB AVERAGE MSHR OCCUPANCY: 0.113415
DTLB MSHR FULL: 2.49429e-05
DTLB RQ	ACCESS:   92235971	FORWARD:          0	MERGED:   10531177	TO_CACHE:   81704794

STLB SPEC fills:          0  NON-SPEC fills:          0
STLB Test counter :          0
STLB Leapfrog:          0
STLB MSHR merge:          0
STLB TOTAL     ACCESS:    4698297  HIT:    3844052  MISS:     854245  HIT %:     81.818  MISS %:     18.182   MPKI: 4.27123
STLB LOAD TRANSLATION NON_SPEC    ACCESS:    4129288  HIT:    3275046  MISS:     854242  HIT %:    79.3126  MISS %:    20.6874   MPKI: 4.27121
STLB TRANSLATION FROM L1D PREFETCHER NON_SPEC    ACCESS:     569009  HIT:     569006  MISS:          3  HIT %:    99.9995  MISS %: 0.000527232   MPKI: 1.5e-05
STLB PREFETCH  REQUESTED:          0  ISSUED:          0  USEFUL:          3  USELESS:          0
STLB USEFUL LOAD PREFETCHES:          3 PREFETCH ISSUED TO LOWER LEVEL:          0  ACCURACY: inf
STLB TIMELY PREFETCHES:          3 LATE PREFETCHES: 0 DROPPED PREFETCHES: 0
STLB COMMIT LATE PREFETCHES: 0 NORMAL LATE: 0 MISSED OPPORTUNITY: 0 UNCOVERED: 0
STLB PREFETCHES SAME FILL-ORIGIN LEVEL: 0 DIFFERENT FILL-ORIGIN LEVEL: 0
STLB AVERAGE MISS LATENCY: 126.061 cycles
STLB AVERAGE MISS LATENCY LOAD: -nan cycles
STLB AVERAGE MISS LATENCY PREFETCH: -nan cycles
STLB AVERAGE MSHR OCCUPANCY: 0.0970017
STLB MSHR FULL: 0
STLB RQ	ACCESS:    5834493	FORWARD:          0	MERGED:    1136196	TO_CACHE:    4698297

STLB Hit, L1D data hit: 0
STLB Hit, L2C data hit: 0
STLB Hit, LLC data hit: 0
STLB Hit, LLC data miss: 0
STLB STLB hints to L2: 0
L0D SPEC fills:   23005429  NON-SPEC fills:          0
L0D TimeGuard Request with older TS:     303107 Restricted eviction:     189800 read:     268708
L0D Test counter :          0
L0D Leapfrog:          0
L0D MSHR merge:    1049895
L0D TOTAL     ACCESS:   54067748  HIT:    6558811  MISS:   47508937  HIT %:    12.1307  MISS %:    87.8693   MPKI: 237.545
L0D LOAD      TOTAL       ACCESS:   54067748  HIT:    6558811  MISS:   47508937  HIT %:    12.1307  MISS %:    87.8693   MPKI: 237.545
L0D LOAD      NON_SPEC    ACCESS:   24526921  HIT:     213207  MISS:   24313714  HIT %:   0.869277  MISS %:    99.1307   MPKI: 121.569
L0D LOAD      SPEC        ACCESS:   29540827  HIT:    6345604  MISS:   23195223  HIT %:    21.4808  MISS %:    78.5192   MPKI: 115.976
L0D PREFETCH  REQUESTED:          0  ISSUED:          0  USEFUL:          0  USELESS:          0
L0D USEFUL LOAD PREFETCHES:          0 PREFETCH ISSUED TO LOWER LEVEL:          0  ACCURACY: -nan
L0D TIMELY PREFETCHES:          0 LATE PREFETCHES: 0 DROPPED PREFETCHES: 0
L0D COMMIT LATE PREFETCHES: 0 NORMAL LATE: 0 MISSED OPPORTUNITY: 0 UNCOVERED: 0
L0D PREFETCHES SAME FILL-ORIGIN LEVEL: 0 DIFFERENT FILL-ORIGIN LEVEL: 0
L0D AVERAGE MISS LATENCY: 11.895 cycles
L0D AVERAGE MISS LATENCY LOAD: 11.895 cycles
L0D AVERAGE MISS LATENCY PREFETCH: -nan cycles
L0D AVERAGE MSHR OCCUPANCY: 0.549494
L0D MSHR FULL: 5.40997e-05
L0D RQ	ACCESS:   64238570	FORWARD:          0	MERGED:    9120929	TO_CACHE:   55117641
L0D WQ	ACCESS:   37118330	FORWARD:          0	MERGED:          0	TO_CACHE:   37118330

L1D SPEC fills:          0  NON-SPEC fills:     612867
L1D Test counter :          0
L1D Leapfrog:          0
L1D MSHR merge:      17498
L1D TOTAL     ACCESS:  117302207  HIT:  111058900  MISS:    6243307  HIT %:    94.6776  MISS %:    5.32241   MPKI: 31.2165
L1D LOAD      TOTAL       ACCESS:   47491569  HIT:   44337604  MISS:    3153965  HIT %:    93.3589  MISS %:    6.64111   MPKI: 15.7698
L1D LOAD      NON_SPEC    ACCESS:   24306640  HIT:   23693773  MISS:     612867  HIT %:    97.4786  MISS %:     2.5214   MPKI: 3.06433
L1D LOAD      SPEC        ACCESS:   23184929  HIT:   20643831  MISS:    2541098  HIT %:    89.0399  MISS %:    10.9601   MPKI: 12.7055
L1D RFO       NON_SPEC    ACCESS:   34757132  HIT:   34280213  MISS:     476919  HIT %:    98.6279  MISS %:    1.37215   MPKI: 2.3846
L1D PREFETCH  NON_SPEC    ACCESS:    1689125  HIT:    1593873  MISS:      95252  HIT %:    94.3609  MISS %:    5.63913   MPKI: 0.47626
L1D COMMIT LOAD NON_SPEC    ACCESS:   10637417  HIT:   10619498  MISS:      17919  HIT %:    99.8315  MISS %:   0.168453   MPKI: 0.089595
L1D COMMIT WRITE NON_SPEC    ACCESS:   22726964  HIT:   20227712  MISS:    2499252  HIT %:    89.0031  MISS %:    10.9969   MPKI: 12.4963
L1D PREFETCH  REQUESTED:    3166076  ISSUED:    3166076  USEFUL:      47081  USELESS:      48169
L1D USEFUL LOAD PREFETCHES:      47081 PREFETCH ISSUED TO LOWER LEVEL:      95916  ACCURACY: 49.0857
L1D TIMELY PREFETCHES:      47081 LATE PREFETCHES: 134 DROPPED PREFETCHES: 0
L1D COMMIT LATE PREFETCHES: 291 NORMAL LATE: 217 MISSED OPPORTUNITY: 9 UNCOVERED: 3153912
L1D PREFETCHES SAME FILL-ORIGIN LEVEL: 95493 DIFFERENT FILL-ORIGIN LEVEL: 423
L1D AVERAGE MISS LATENCY: 61.2051 cycles
L1D AVERAGE MISS LATENCY LOAD: 102.599 cycles
L1D AVERAGE MISS LATENCY PREFETCH: 125.183 cycles
L1D AVERAGE MSHR OCCUPANCY: 0.238679
L1D MSHR FULL: 5.26243e-06
L1D RQ	ACCESS:   64354739	FORWARD:          0	MERGED:    4702373	TO_CACHE:   58147879
L1D WQ	ACCESS:   59930374	FORWARD:    1504487	MERGED:    1722358	TO_CACHE:   58208016
L1D PQ	ACCESS:    3166076	FORWARD:          0	MERGED:    1460871	TO_CACHE:    1705205

L1D UNIQUE REGIONS ACCESSED: 0
L1D REGIONS CONFLICTS: 0
L1D Cross Page Prefetch Requests: 0
L1D Same Page Prefetch Requests: 3958939
L1D ROI Sum of L1D PQ occupancy: 24391449
L1D PREFETCHES PUSHED FROM L2C: 0
L1I SPEC fills:          0  NON-SPEC fills:          0
L1I Test counter :          0
L1I Leapfrog:          0
L1I MSHR merge:      30129
L1I TOTAL     ACCESS:   37031465  HIT:   36952457  MISS:      79008  HIT %:    99.7866  MISS %:   0.213354   MPKI: 0.39504
L1I LOAD      TOTAL       ACCESS:   37031465  HIT:   36952457  MISS:      79008  HIT %:    99.7866  MISS %:   0.213354   MPKI: 0.39504
L1I LOAD      NON_SPEC    ACCESS:   37031465  HIT:   36952457  MISS:      79008  HIT %:    99.7866  MISS %:   0.213354   MPKI: 0.39504
L1I PREFETCH  REQUESTED:          0  ISSUED:          0  USEFUL:          0  USELESS:          0
L1I USEFUL LOAD PREFETCHES:          0 PREFETCH ISSUED TO LOWER LEVEL:          0  ACCURACY: -nan
L1I TIMELY PREFETCHES:          0 LATE PREFETCHES: 0 DROPPED PREFETCHES: 0
L1I COMMIT LATE PREFETCHES: 0 NORMAL LATE: 0 MISSED OPPORTUNITY: 0 UNCOVERED: 0
L1I PREFETCHES SAME FILL-ORIGIN LEVEL: 0 DIFFERENT FILL-ORIGIN LEVEL: 0
L1I AVERAGE MISS LATENCY: 26.4697 cycles
L1I AVERAGE MISS LATENCY LOAD: 26.4697 cycles
L1I AVERAGE MISS LATENCY PREFETCH: -nan cycles
L1I AVERAGE MSHR OCCUPANCY: 0.00328753
L1I MSHR FULL: 0
L1I RQ	ACCESS:   56948746	FORWARD:          0	MERGED:   19887153	TO_CACHE:   37061593

BTB SPEC fills:          0  NON-SPEC fills:          0
BTB Test counter :          0
BTB Leapfrog:          0
BTB MSHR merge:          0
BTB TOTAL     ACCESS:   32188164  HIT:   30296058  MISS:    1892106  HIT %:    94.1217  MISS %:    5.87827   MPKI: 9.46053
BTB BRANCH_DIRECT_JUMP	ACCESS:    2276304  HIT:    2276179  MISS:        125
BTB BRANCH_INDIRECT	ACCESS:     671328  HIT:     585871  MISS:      85457
BTB BRANCH_CONDITIONAL	ACCESS:   17350102  HIT:   17349618  MISS:        484
BTB BRANCH_DIRECT_CALL	ACCESS:    3559126  HIT:    3558870  MISS:        256
BTB BRANCH_INDIRECT_CALL	ACCESS:    2386088  HIT:    2378106  MISS:       7982
BTB BRANCH_RETURN	ACCESS:    5945216  HIT:    4147414  MISS:    1797802
BTB BRANCH_OTHER ACCESS:          0  HIT:          0  MISS:          0

L2C SPEC fills:          0  NON-SPEC fills:     364750
L2C Test counter :          0
L2C Leapfrog:          0
L2C MSHR merge:          0
L2C TOTAL     ACCESS:   11461925  HIT:    6628288  MISS:    4833637  HIT %:    57.8288  MISS %:    42.1712   MPKI: 24.1682
L2C LOAD      TOTAL       ACCESS:    3232759  HIT:    1061481  MISS:    2171278  HIT %:    32.8351  MISS %:    67.1649   MPKI: 10.8564
L2C LOAD      NON_SPEC    ACCESS:     691855  HIT:     313781  MISS:     378074  HIT %:    45.3536  MISS %:    54.6464   MPKI: 1.89037
L2C LOAD      SPEC        ACCESS:    2540904  HIT:     747700  MISS:    1793204  HIT %:    29.4265  MISS %:    70.5735   MPKI: 8.96602
L2C RFO       NON_SPEC    ACCESS:     476798  HIT:     143386  MISS:     333412  HIT %:    30.0727  MISS %:    69.9273   MPKI: 1.66706
L2C PREFETCH  NON_SPEC    ACCESS:      95784  HIT:      28748  MISS:      67036  HIT %:    30.0134  MISS %:    69.9866   MPKI: 0.33518
L2C WRITEBACK NON_SPEC    ACCESS:     615256  HIT:     614306  MISS:        950  HIT %:    99.8456  MISS %:   0.154407   MPKI: 0.00475
L2C CLEAN_EVICTION NON_SPEC    ACCESS:    2752207  HIT:     957383  MISS:    1794824  HIT %:     34.786  MISS %:     65.214   MPKI: 8.97412
L2C COMMIT LOAD NON_SPEC    ACCESS:      17896  HIT:       7673  MISS:      10223  HIT %:    42.8755  MISS %:    57.1245   MPKI: 0.051115
L2C LOAD TRANSLATION NON_SPEC    ACCESS:    4271210  HIT:    3815308  MISS:     455902  HIT %:    89.3262  MISS %:    10.6738   MPKI: 2.27951
L2C TRANSLATION FROM L1D PREFETCHER NON_SPEC    ACCESS:         15  HIT:          3  MISS:         12  HIT %:         20  MISS %:         80   MPKI: 6e-05
L2C PREFETCH  REQUESTED:          0  ISSUED:          0  USEFUL:       3017  USELESS:      64054
L2C USEFUL LOAD PREFETCHES:       3017 PREFETCH ISSUED TO LOWER LEVEL:      67036  ACCURACY: 4.50057
L2C TIMELY PREFETCHES:       3017 LATE PREFETCHES: 0 DROPPED PREFETCHES: 0
L2C COMMIT LATE PREFETCHES: 0 NORMAL LATE: 0 MISSED OPPORTUNITY: 0 UNCOVERED: 2171278
L2C PREFETCHES SAME FILL-ORIGIN LEVEL: 351 DIFFERENT FILL-ORIGIN LEVEL: 0
L2C AVERAGE MISS LATENCY: 77.6519 cycles
L2C AVERAGE MISS LATENCY LOAD: 132.226 cycles
L2C AVERAGE MISS LATENCY PREFETCH: 156.923 cycles
L2C AVERAGE MSHR OCCUPANCY: 0.345392
L2C MSHR FULL: 0
L2C RQ	ACCESS:    7998795	FORWARD:          0	MERGED:          0	TO_CACHE:    7998678
L2C WQ	ACCESS:    3367464	FORWARD:        120	MERGED:          0	TO_CACHE:    3367464
L2C PQ	ACCESS:      95916	FORWARD:          0	MERGED:          0	TO_CACHE:      95913

L2C Instructions Evicting Data 11007
L2C Translations Evicting Data 384491
L2C Data Evicting Data 655508
L2C Instructions Evicting Instructions 729
L2C Translations Evicting Instructions 1769
L2C Data Evicting Instructions 3301
L2C Instructions Evicting Translations 1588
L2C Translations Evicting Translations 69654
L2C Data Evicting Translations 116612
L2C Dense regions hint from L2: 0
PSCL5 SPEC fills:          0  NON-SPEC fills:          0
PSCL5 Test counter :          0
PSCL5 Leapfrog:          0
PSCL5 MSHR merge:          0
PSCL5 TOTAL     ACCESS:          0  HIT:          0  MISS:          0  HIT %:       -nan  MISS %:       -nan   MPKI: 0
PSCL5 PREFETCH  REQUESTED:          0  ISSUED:          0  USEFUL:          0  USELESS:          0
PSCL5 USEFUL LOAD PREFETCHES:          0 PREFETCH ISSUED TO LOWER LEVEL:          0  ACCURACY: -nan
PSCL5 TIMELY PREFETCHES:          0 LATE PREFETCHES: 0 DROPPED PREFETCHES: 0
PSCL5 COMMIT LATE PREFETCHES: 0 NORMAL LATE: 0 MISSED OPPORTUNITY: 0 UNCOVERED: 0
PSCL5 PREFETCHES SAME FILL-ORIGIN LEVEL: 0 DIFFERENT FILL-ORIGIN LEVEL: 0

PSCL4 SPEC fills:          0  NON-SPEC fills:          0
PSCL4 Test counter :          0
PSCL4 Leapfrog:          0
PSCL4 MSHR merge:          0
PSCL4 TOTAL     ACCESS:          0  HIT:          0  MISS:          0  HIT %:       -nan  MISS %:       -nan   MPKI: 0
PSCL4 PREFETCH  REQUESTED:          0  ISSUED:          0  USEFUL:          0  USELESS:          0
PSCL4 USEFUL LOAD PREFETCHES:          0 PREFETCH ISSUED TO LOWER LEVEL:          0  ACCURACY: -nan
PSCL4 TIMELY PREFETCHES:          0 LATE PREFETCHES: 0 DROPPED PREFETCHES: 0
PSCL4 COMMIT LATE PREFETCHES: 0 NORMAL LATE: 0 MISSED OPPORTUNITY: 0 UNCOVERED: 0
PSCL4 PREFETCHES SAME FILL-ORIGIN LEVEL: 0 DIFFERENT FILL-ORIGIN LEVEL: 0

PSCL3 SPEC fills:          0  NON-SPEC fills:          0
PSCL3 Test counter :          0
PSCL3 Leapfrog:          0
PSCL3 MSHR merge:          0
PSCL3 TOTAL     ACCESS:          0  HIT:          0  MISS:          0  HIT %:       -nan  MISS %:       -nan   MPKI: 0
PSCL3 PREFETCH  REQUESTED:          0  ISSUED:          0  USEFUL:          0  USELESS:          0
PSCL3 USEFUL LOAD PREFETCHES:          0 PREFETCH ISSUED TO LOWER LEVEL:          0  ACCURACY: -nan
PSCL3 TIMELY PREFETCHES:          0 LATE PREFETCHES: 0 DROPPED PREFETCHES: 0
PSCL3 COMMIT LATE PREFETCHES: 0 NORMAL LATE: 0 MISSED OPPORTUNITY: 0 UNCOVERED: 0
PSCL3 PREFETCHES SAME FILL-ORIGIN LEVEL: 0 DIFFERENT FILL-ORIGIN LEVEL: 0

PSCL2 SPEC fills:          0  NON-SPEC fills:          0
PSCL2 Test counter :          0
PSCL2 Leapfrog:          0
PSCL2 MSHR merge:          0
PSCL2 TOTAL     ACCESS:          0  HIT:          0  MISS:          0  HIT %:       -nan  MISS %:       -nan   MPKI: 0
PSCL2 PREFETCH  REQUESTED:          0  ISSUED:          0  USEFUL:          0  USELESS:          0
PSCL2 USEFUL LOAD PREFETCHES:          0 PREFETCH ISSUED TO LOWER LEVEL:          0  ACCURACY: -nan
PSCL2 TIMELY PREFETCHES:          0 LATE PREFETCHES: 0 DROPPED PREFETCHES: 0
PSCL2 COMMIT LATE PREFETCHES: 0 NORMAL LATE: 0 MISSED OPPORTUNITY: 0 UNCOVERED: 0
PSCL2 PREFETCHES SAME FILL-ORIGIN LEVEL: 0 DIFFERENT FILL-ORIGIN LEVEL: 0

LLC SPEC fills:          0  NON-SPEC fills:     245384
LLC Test counter :          0
LLC Leapfrog:          0
LLC MSHR merge:          0
LLC TOTAL     ACCESS:    5424242  HIT:    2024651  MISS:    3399591  HIT %:     37.326  MISS %:     62.674   MPKI: 16.998
LLC LOAD      TOTAL       ACCESS:    2171277  HIT:     539869  MISS:    1631408  HIT %:    24.8641  MISS %:    75.1359   MPKI: 8.15704
LLC LOAD      NON_SPEC    ACCESS:     378074  HIT:     129297  MISS:     248777  HIT %:    34.1989  MISS %:    65.8011   MPKI: 1.24388
LLC LOAD      SPEC        ACCESS:    1793203  HIT:     410572  MISS:    1382631  HIT %:     22.896  MISS %:     77.104   MPKI: 6.91315
LLC RFO       NON_SPEC    ACCESS:     333411  HIT:     166598  MISS:     166813  HIT %:    49.9678  MISS %:    50.0322   MPKI: 0.834065
LLC PREFETCH  NON_SPEC    ACCESS:      67036  HIT:      13060  MISS:      53976  HIT %:    19.4821  MISS %:    80.5179   MPKI: 0.26988
LLC WRITEBACK NON_SPEC    ACCESS:     419057  HIT:     417868  MISS:       1189  HIT %:    99.7163  MISS %:   0.283732   MPKI: 0.005945
LLC CLEAN_EVICTION NON_SPEC    ACCESS:    1967324  HIT:     571516  MISS:    1395808  HIT %:    29.0504  MISS %:    70.9496   MPKI: 6.97904
LLC COMMIT LOAD NON_SPEC    ACCESS:      10223  HIT:       3424  MISS:       6799  HIT %:    33.4931  MISS %:    66.5069   MPKI: 0.033995
LLC LOAD TRANSLATION NON_SPEC    ACCESS:     455902  HIT:     312316  MISS:     143586  HIT %:    68.5051  MISS %:    31.4949   MPKI: 0.71793
LLC TRANSLATION FROM L1D PREFETCHER NON_SPEC    ACCESS:         12  HIT:          0  MISS:         12  HIT %:          0  MISS %:        100   MPKI: 6e-05
LLC PREFETCH  REQUESTED:          0  ISSUED:          0  USEFUL:       1091  USELESS:      52757
LLC USEFUL LOAD PREFETCHES:       1091 PREFETCH ISSUED TO LOWER LEVEL:      53976  ACCURACY: 2.02127
LLC TIMELY PREFETCHES:       1091 LATE PREFETCHES: 0 DROPPED PREFETCHES: 0
LLC COMMIT LATE PREFETCHES: 0 NORMAL LATE: 0 MISSED OPPORTUNITY: 0 UNCOVERED: 0
LLC PREFETCHES SAME FILL-ORIGIN LEVEL: 0 DIFFERENT FILL-ORIGIN LEVEL: 0
LLC AVERAGE MISS LATENCY: 88.3435 cycles
LLC AVERAGE MISS LATENCY LOAD: 145.942 cycles
LLC AVERAGE MISS LATENCY PREFETCH: 157.628 cycles
LLC AVERAGE MSHR OCCUPANCY: 0.369626
LLC MSHR FULL: 0
LLC RQ	ACCESS:    2970827	FORWARD:          0	MERGED:          0	TO_CACHE:    2970825
LLC WQ	ACCESS:    2386382	FORWARD:          2	MERGED:          0	TO_CACHE:    2386382
LLC PQ	ACCESS:      67036	FORWARD:          0	MERGED:          0	TO_CACHE:      67036

LLC Dense regions hint to LLC: 0

RAW hits: 3210179
Loads Generated: 67448749
Loads sent to L1D: 64238570
Stores Generated: 37118330
Stores sent to L1D: 37118330
Major fault: 0 Minor fault: 47401
Allocated PAGES: 47401
Total Load insts: 79565724
Total Non-spec loads: 28057182
Percentage of speculative loads: 64.7371

LeapFrogging counter: 1178
Commit hits: 22812047 miss: 16845803
Commit hit %: 57.5221 miss %: 42.4779
Commits not translated: 0
Loads retired: 3153963
Stores retired: 37118330
Cache fills: 3153965
L1D response latency: 102.599 cycles
Load retirement latency: 183.657 cycles
OOO test counter: 0
Discarded buffer inserts: 22812047 hits: 9825 hit %: 0.0430693
Filter prediction accuracy: -nan
Speculative prefetch buffer size: 0
CPU 0 L1D PC-based stride prefetcher final stats
Degree: 3
CPU 0 L1D PC-based stride prefetcher final stats
Degree: 3

DRAM Statistics
 CHANNEL 0
 RQ ROW_BUFFER_HIT:     185987  ROW_BUFFER_MISS:    1816595
 DBUS_CONGESTED:        816
 WQ ROW_BUFFER_HIT:     302395  ROW_BUFFER_MISS:    1451532  FULL:          0

 AVG_CONGESTED_CYCLE: 3
 All warmup complete: 2
Channel 0 Bank busy for read cycles: 0
Channel 0 Bank busy for write cycles: 0
Channel 0
Rank 0
0banks busy for read cycles: 391980208
0banks busy for write cycles: 723711
1banks busy for read cycles: 164462267
1banks busy for write cycles: 117907227
2banks busy for read cycles: 36023995
2banks busy for write cycles: 50393974
3banks busy for read cycles: 10259928
3banks busy for write cycles: 19880830
4banks busy for read cycles: 3331534
4banks busy for write cycles: 7457023
5banks busy for read cycles: 151246
5banks busy for write cycles: 2857412
6banks busy for read cycles: 37218
6banks busy for write cycles: 1117898
7banks busy for read cycles: 23452
7banks busy for write cycles: 403627
8banks busy for read cycles: 4053
8banks busy for write cycles: 166337

CPU 0 Branch Prediction Accuracy: 98.2082% MPKI: 3.72743 Average ROB Occupancy at Mispredict: 33.796
Branch types
NOT_BRANCH: 158393545 79.1968%
BRANCH_DIRECT_JUMP: 2276304 1.13815%
BRANCH_INDIRECT: 671328 0.335664%
BRANCH_CONDITIONAL: 26768026 13.384%
BRANCH_DIRECT_CALL: 3559126 1.77956%
BRANCH_INDIRECT_CALL: 2386088 1.19304%
BRANCH_RETURN: 5945216 2.97261%
BRANCH_OTHER: 0 0%

DRAM PAGES: 1048576
Allocated PAGES: 47401
