
*** ChampSim Multicore Out-of-Order Simulator ***

Warmup Instructions: 50000000
Simulation Instructions: 200000000
Number of CPUs: 1
LLC sets: 2048
LLC ways: 16
L0D sets: 16
L0D ways: 2
ROB size: 352
LQ size: 128
SQ size: 72
Secure Berti: OFF
Berti: OFF
Berti Fill: OFF
On commit prefetching: ON
Hit-based filter: OFF
Time-guarding: ON
Free-slotting: ON
Leap-frogging: ON
Train prefetcher on L0D bypass: OFF
No translation penalty for prefetchers: OFF
Prefetch to L0D only: OFF
Prefetch to L1D only: OFF
Clean evictions: ON
Commit loads: ON
Commit write: ON
Fill commit loads to L2C, LLC: ON
DRAM IO FREQUENCY: 6400
ROB SIZE: 352
Off-chip DRAM Size: 4096 MB Channels: 1 Width: 64-bit Data Rate: 6400 MT/s
CPU 0 runs /home/sumon/secure_berti/GhostMinion/../../traces/spec/628.pop2_s-17B.champsimtrace.xz
.xz
BTB has LRU replacement policy
ITLB has LRU replacement policy
DTLB has LRU replacement policy
STLB has LRU replacement policy
L1I has LRU replacement policy
L0D has LRU replacement policy
CPU 0 L1D IP-based stride prefetcher
CPU 0 L1D IP-based stride prefetcher
L1D has LRU replacement policy
L2C has LRU replacement policy
LLC has LRU replacement policy
Heartbeat CPU 0 instructions: 10000003 cycles: 3179505 heartbeat IPC: 3.14514 cumulative IPC: 3.14514 (Simulation time: 0 hr 0 min 36 sec) 
Heartbeat CPU 0 instructions: 20000001 cycles: 6357295 heartbeat IPC: 3.14684 cumulative IPC: 3.14599 (Simulation time: 0 hr 1 min 11 sec) 
Heartbeat CPU 0 instructions: 30000003 cycles: 9534383 heartbeat IPC: 3.14754 cumulative IPC: 3.14651 (Simulation time: 0 hr 1 min 46 sec) 
Heartbeat CPU 0 instructions: 40000003 cycles: 12709580 heartbeat IPC: 3.14941 cumulative IPC: 3.14723 (Simulation time: 0 hr 2 min 21 sec) 
Heartbeat CPU 0 instructions: 50000000 cycles: 15884924 heartbeat IPC: 3.14926 cumulative IPC: 3.14764 (Simulation time: 0 hr 2 min 56 sec) 

Warmup complete CPU 0 instructions: 50000004 cycles: 15884925 (Simulation time: 0 hr 2 min 56 sec) 

Heartbeat CPU 0 instructions: 60000000 cycles: 27960341 heartbeat IPC: 0.828129 cumulative IPC: 0.828129 (Simulation time: 0 hr 3 min 41 sec) 
Heartbeat CPU 0 instructions: 70000000 cycles: 39942476 heartbeat IPC: 0.834576 cumulative IPC: 0.83134 (Simulation time: 0 hr 4 min 23 sec) 
Heartbeat CPU 0 instructions: 80000000 cycles: 51770254 heartbeat IPC: 0.845467 cumulative IPC: 0.835996 (Simulation time: 0 hr 5 min 1 sec) 
Heartbeat CPU 0 instructions: 90000003 cycles: 65284320 heartbeat IPC: 0.73997 cumulative IPC: 0.809726 (Simulation time: 0 hr 5 min 40 sec) 
Heartbeat CPU 0 instructions: 100000001 cycles: 76851827 heartbeat IPC: 0.86449 cumulative IPC: 0.820117 (Simulation time: 0 hr 6 min 22 sec) 
Heartbeat CPU 0 instructions: 110000000 cycles: 89410637 heartbeat IPC: 0.796254 cumulative IPC: 0.816041 (Simulation time: 0 hr 7 min 2 sec) 
Heartbeat CPU 0 instructions: 120000000 cycles: 102519301 heartbeat IPC: 0.762854 cumulative IPC: 0.807993 (Simulation time: 0 hr 7 min 38 sec) 
Heartbeat CPU 0 instructions: 130000000 cycles: 115896788 heartbeat IPC: 0.747525 cumulative IPC: 0.799905 (Simulation time: 0 hr 8 min 16 sec) 
Heartbeat CPU 0 instructions: 140000003 cycles: 130001343 heartbeat IPC: 0.708991 cumulative IPC: 0.788668 (Simulation time: 0 hr 8 min 48 sec) 
Heartbeat CPU 0 instructions: 150000000 cycles: 143345039 heartbeat IPC: 0.749417 cumulative IPC: 0.784559 (Simulation time: 0 hr 9 min 18 sec) 
Heartbeat CPU 0 instructions: 160000000 cycles: 157793891 heartbeat IPC: 0.692097 cumulative IPC: 0.775145 (Simulation time: 0 hr 9 min 51 sec) 
Heartbeat CPU 0 instructions: 170000000 cycles: 168859056 heartbeat IPC: 0.903737 cumulative IPC: 0.784446 (Simulation time: 0 hr 10 min 29 sec) 
Heartbeat CPU 0 instructions: 180000003 cycles: 180582181 heartbeat IPC: 0.853015 cumulative IPC: 0.789327 (Simulation time: 0 hr 11 min 10 sec) 
Heartbeat CPU 0 instructions: 190000000 cycles: 192577166 heartbeat IPC: 0.833681 cumulative IPC: 0.792338 (Simulation time: 0 hr 11 min 52 sec) 
Heartbeat CPU 0 instructions: 200000000 cycles: 204507701 heartbeat IPC: 0.838185 cumulative IPC: 0.795238 (Simulation time: 0 hr 12 min 34 sec) 
Heartbeat CPU 0 instructions: 210000000 cycles: 216429443 heartbeat IPC: 0.838804 cumulative IPC: 0.797828 (Simulation time: 0 hr 13 min 16 sec) 
Heartbeat CPU 0 instructions: 220000000 cycles: 228406056 heartbeat IPC: 0.834961 cumulative IPC: 0.79992 (Simulation time: 0 hr 13 min 58 sec) 
Heartbeat CPU 0 instructions: 230000000 cycles: 240486311 heartbeat IPC: 0.827797 cumulative IPC: 0.80142 (Simulation time: 0 hr 14 min 40 sec) 
Heartbeat CPU 0 instructions: 240000002 cycles: 252583407 heartbeat IPC: 0.826645 cumulative IPC: 0.802709 (Simulation time: 0 hr 15 min 22 sec) 
Heartbeat CPU 0 instructions: 250000002 cycles: 264653412 heartbeat IPC: 0.8285 cumulative IPC: 0.80396 (Simulation time: 0 hr 16 min 3 sec) 
Finished CPU 0 instructions: 200000002 cycles: 248768488 cumulative IPC: 0.80396 (Simulation time: 0 hr 16 min 3 sec) 
 Instruction ID: 250000115

ChampSim completed all CPUs

Region of Interest Statistics

CPU 0 cumulative IPC: 0.80396 instructions: 200000002 cycles: 248768488
ITLB SPEC fills:          0  NON-SPEC fills:          0
ITLB Test counter :          0
ITLB Leapfrog:          0
ITLB MSHR merge:          0
ITLB TOTAL     ACCESS:   34342697  HIT:   34337881  MISS:       4816  HIT %:     99.986  MISS %:  0.0140234   MPKI: 0.02408
ITLB LOAD TRANSLATION NON_SPEC    ACCESS:   34342697  HIT:   34337881  MISS:       4816  HIT %:     99.986  MISS %:  0.0140234   MPKI: 0.02408
ITLB PREFETCH  REQUESTED:          0  ISSUED:          0  USEFUL:          0  USELESS:          0
ITLB USEFUL LOAD PREFETCHES:          0 PREFETCH ISSUED TO LOWER LEVEL:          0  ACCURACY: -nan
ITLB TIMELY PREFETCHES:          0 LATE PREFETCHES: 0 DROPPED PREFETCHES: 0
ITLB COMMIT LATE PREFETCHES: 0 NORMAL LATE: 0 MISSED OPPORTUNITY: 0 UNCOVERED: 0
ITLB PREFETCHES SAME FILL-ORIGIN LEVEL: 0 DIFFERENT FILL-ORIGIN LEVEL: 0
ITLB AVERAGE MISS LATENCY: 15.7905 cycles
ITLB AVERAGE MISS LATENCY LOAD: -nan cycles
ITLB AVERAGE MISS LATENCY PREFETCH: -nan cycles
ITLB AVERAGE MSHR OCCUPANCY: 7.28218e-05
ITLB MSHR FULL: 0
ITLB RQ	ACCESS:   39063771	FORWARD:          0	MERGED:    4719676	TO_CACHE:   34344095

DTLB SPEC fills:          0  NON-SPEC fills:          0
DTLB Test counter :          0
DTLB Leapfrog:          0
DTLB MSHR merge:          0
DTLB TOTAL     ACCESS:   45106093  HIT:   45006031  MISS:     100062  HIT %:    99.7782  MISS %:   0.221837   MPKI: 0.50031
DTLB LOAD TRANSLATION NON_SPEC    ACCESS:   45106093  HIT:   45006031  MISS:     100062  HIT %:    99.7782  MISS %:   0.221837   MPKI: 0.50031
DTLB PREFETCH  REQUESTED:          0  ISSUED:          0  USEFUL:          0  USELESS:          0
DTLB USEFUL LOAD PREFETCHES:          0 PREFETCH ISSUED TO LOWER LEVEL:          0  ACCURACY: -nan
DTLB TIMELY PREFETCHES:          0 LATE PREFETCHES: 0 DROPPED PREFETCHES: 0
DTLB COMMIT LATE PREFETCHES: 0 NORMAL LATE: 0 MISSED OPPORTUNITY: 0 UNCOVERED: 0
DTLB PREFETCHES SAME FILL-ORIGIN LEVEL: 0 DIFFERENT FILL-ORIGIN LEVEL: 0
DTLB AVERAGE MISS LATENCY: 32.3111 cycles
DTLB AVERAGE MISS LATENCY LOAD: -nan cycles
DTLB AVERAGE MISS LATENCY PREFETCH: -nan cycles
DTLB AVERAGE MSHR OCCUPANCY: 0.00727012
DTLB MSHR FULL: 4.23932e-05
DTLB RQ	ACCESS:   49316985	FORWARD:          0	MERGED:    4170045	TO_CACHE:   45146940

STLB SPEC fills:          0  NON-SPEC fills:          0
STLB Test counter :          0
STLB Leapfrog:          0
STLB MSHR merge:          0
STLB TOTAL     ACCESS:    6269863  HIT:    6260229  MISS:       9634  HIT %:    99.8463  MISS %:   0.153656   MPKI: 0.04817
STLB LOAD TRANSLATION NON_SPEC    ACCESS:     104878  HIT:      95244  MISS:       9634  HIT %:    90.8141  MISS %:    9.18591   MPKI: 0.04817
STLB TRANSLATION FROM L1D PREFETCHER NON_SPEC    ACCESS:    6164985  HIT:    6164985  MISS:          0  HIT %:        100  MISS %:          0   MPKI: 0
STLB PREFETCH  REQUESTED:          0  ISSUED:          0  USEFUL:          0  USELESS:          0
STLB USEFUL LOAD PREFETCHES:          0 PREFETCH ISSUED TO LOWER LEVEL:          0  ACCURACY: -nan
STLB TIMELY PREFETCHES:          0 LATE PREFETCHES: 0 DROPPED PREFETCHES: 0
STLB COMMIT LATE PREFETCHES: 0 NORMAL LATE: 0 MISSED OPPORTUNITY: 0 UNCOVERED: 0
STLB PREFETCHES SAME FILL-ORIGIN LEVEL: 0 DIFFERENT FILL-ORIGIN LEVEL: 0
STLB AVERAGE MISS LATENCY: 245.172 cycles
STLB AVERAGE MISS LATENCY LOAD: -nan cycles
STLB AVERAGE MISS LATENCY PREFETCH: -nan cycles
STLB AVERAGE MSHR OCCUPANCY: 0.00270847
STLB MSHR FULL: 0
STLB RQ	ACCESS:   18157573	FORWARD:          0	MERGED:   11887606	TO_CACHE:    6269967

STLB Hit, L1D data hit: 0
STLB Hit, L2C data hit: 0
STLB Hit, LLC data hit: 0
STLB Hit, LLC data miss: 0
STLB STLB hints to L2: 0
L0D SPEC fills:   25321190  NON-SPEC fills:          0
L0D TimeGuard Request with older TS:     113291 Restricted eviction:      92716 read:     131412
L0D Test counter :          0
L0D Leapfrog:          0
L0D MSHR merge:     997845
L0D TOTAL     ACCESS:   34718823  HIT:    3967689  MISS:   30751134  HIT %:    11.4281  MISS %:    88.5719   MPKI: 153.756
L0D LOAD      TOTAL       ACCESS:   34718823  HIT:    3967689  MISS:   30751134  HIT %:    11.4281  MISS %:    88.5719   MPKI: 153.756
L0D LOAD      NON_SPEC    ACCESS:    5482619  HIT:     145265  MISS:    5337354  HIT %:    2.64955  MISS %:    97.3504   MPKI: 26.6868
L0D LOAD      SPEC        ACCESS:   29236204  HIT:    3822424  MISS:   25413780  HIT %:    13.0743  MISS %:    86.9257   MPKI: 127.069
L0D PREFETCH  REQUESTED:          0  ISSUED:          0  USEFUL:          0  USELESS:          0
L0D USEFUL LOAD PREFETCHES:          0 PREFETCH ISSUED TO LOWER LEVEL:          0  ACCURACY: -nan
L0D TIMELY PREFETCHES:          0 LATE PREFETCHES: 0 DROPPED PREFETCHES: 0
L0D COMMIT LATE PREFETCHES: 0 NORMAL LATE: 0 MISSED OPPORTUNITY: 0 UNCOVERED: 0
L0D PREFETCHES SAME FILL-ORIGIN LEVEL: 0 DIFFERENT FILL-ORIGIN LEVEL: 0
L0D AVERAGE MISS LATENCY: 6.18442 cycles
L0D AVERAGE MISS LATENCY LOAD: 6.18442 cycles
L0D AVERAGE MISS LATENCY PREFETCH: -nan cycles
L0D AVERAGE MSHR OCCUPANCY: 0.792592
L0D MSHR FULL: 0.00273187
L0D RQ	ACCESS:   40082732	FORWARD:          0	MERGED:    4366064	TO_CACHE:   35716668
L0D WQ	ACCESS:   13600317	FORWARD:          0	MERGED:          0	TO_CACHE:   13600317

L1D SPEC fills:          0  NON-SPEC fills:      72243
L1D Test counter :          0
L1D Leapfrog:          0
L1D MSHR merge:     112946
L1D TOTAL     ACCESS:   91720415  HIT:   88123869  MISS:    3596546  HIT %:    96.0788  MISS %:    3.92121   MPKI: 17.9827
L1D LOAD      TOTAL       ACCESS:   30749042  HIT:   30229121  MISS:     519921  HIT %:    98.3091  MISS %:    1.69085   MPKI: 2.5996
L1D LOAD      NON_SPEC    ACCESS:    5337039  HIT:    5264796  MISS:      72243  HIT %:    98.6464  MISS %:    1.35362   MPKI: 0.361215
L1D LOAD      SPEC        ACCESS:   25412003  HIT:   24964325  MISS:     447678  HIT %:    98.2383  MISS %:    1.76168   MPKI: 2.23839
L1D RFO       NON_SPEC    ACCESS:   12417710  HIT:   12155929  MISS:     261781  HIT %:    97.8919  MISS %:    2.10813   MPKI: 1.3089
L1D PREFETCH  NON_SPEC    ACCESS:   16945281  HIT:   14558364  MISS:    2386917  HIT %:     85.914  MISS %:     14.086   MPKI: 11.9346
L1D COMMIT LOAD NON_SPEC    ACCESS:    6398772  HIT:    6389074  MISS:       9698  HIT %:    99.8484  MISS %:    0.15156   MPKI: 0.04849
L1D COMMIT WRITE NON_SPEC    ACCESS:   25209610  HIT:   24791381  MISS:     418229  HIT %:     98.341  MISS %:    1.65901   MPKI: 2.09114
L1D PREFETCH  REQUESTED:   23661748  ISSUED:   23214787  USEFUL:    1912404  USELESS:     474685
L1D USEFUL LOAD PREFETCHES:    1912404 PREFETCH ISSUED TO LOWER LEVEL:    2800578  ACCURACY: 68.286
L1D TIMELY PREFETCHES:    1912404 LATE PREFETCHES: 112444 DROPPED PREFETCHES: 0
L1D COMMIT LATE PREFETCHES: 86766 NORMAL LATE: 67812 MISSED OPPORTUNITY: 76 UNCOVERED: 367194
L1D PREFETCHES SAME FILL-ORIGIN LEVEL: 2601969 DIFFERENT FILL-ORIGIN LEVEL: 198609
L1D AVERAGE MISS LATENCY: 53.9232 cycles
L1D AVERAGE MISS LATENCY LOAD: 65.4467 cycles
L1D AVERAGE MISS LATENCY PREFETCH: 55.2507 cycles
L1D AVERAGE MSHR OCCUPANCY: 1.05578
L1D MSHR FULL: 0.00555144
L1D RQ	ACCESS:   39929036	FORWARD:          0	MERGED:    2494867	TO_CACHE:   37150640
L1D WQ	ACCESS:   38621765	FORWARD:     283529	MERGED:     400196	TO_CACHE:   38221569
L1D PQ	ACCESS:   23214787	FORWARD:          0	MERGED:    5162092	TO_CACHE:   18052695

L1D UNIQUE REGIONS ACCESSED: 0
L1D REGIONS CONFLICTS: 0
L1D Cross Page Prefetch Requests: 0
L1D Same Page Prefetch Requests: 30967078
L1D ROI Sum of L1D PQ occupancy: 275593822
L1D PREFETCHES PUSHED FROM L2C: 0
L1I SPEC fills:          0  NON-SPEC fills:          0
L1I Test counter :          0
L1I Leapfrog:          0
L1I MSHR merge:      48250
L1I TOTAL     ACCESS:   39015521  HIT:   38900717  MISS:     114804  HIT %:    99.7057  MISS %:   0.294252   MPKI: 0.57402
L1I LOAD      TOTAL       ACCESS:   39015521  HIT:   38900717  MISS:     114804  HIT %:    99.7057  MISS %:   0.294252   MPKI: 0.57402
L1I LOAD      NON_SPEC    ACCESS:   39015521  HIT:   38900717  MISS:     114804  HIT %:    99.7057  MISS %:   0.294252   MPKI: 0.57402
L1I PREFETCH  REQUESTED:          0  ISSUED:          0  USEFUL:          0  USELESS:          0
L1I USEFUL LOAD PREFETCHES:          0 PREFETCH ISSUED TO LOWER LEVEL:          0  ACCURACY: -nan
L1I TIMELY PREFETCHES:          0 LATE PREFETCHES: 0 DROPPED PREFETCHES: 0
L1I COMMIT LATE PREFETCHES: 0 NORMAL LATE: 0 MISSED OPPORTUNITY: 0 UNCOVERED: 0
L1I PREFETCHES SAME FILL-ORIGIN LEVEL: 0 DIFFERENT FILL-ORIGIN LEVEL: 0
L1I AVERAGE MISS LATENCY: 49.9846 cycles
L1I AVERAGE MISS LATENCY LOAD: 49.9846 cycles
L1I AVERAGE MISS LATENCY PREFETCH: -nan cycles
L1I AVERAGE MSHR OCCUPANCY: 0.00446091
L1I MSHR FULL: 0
L1I RQ	ACCESS:   60773215	FORWARD:          0	MERGED:   21709444	TO_CACHE:   39063771

BTB SPEC fills:          0  NON-SPEC fills:          0
BTB Test counter :          0
BTB Leapfrog:          0
BTB MSHR merge:          0
BTB TOTAL     ACCESS:   29674711  HIT:   29620836  MISS:      53875  HIT %:    99.8184  MISS %:   0.181552   MPKI: 0.269375
BTB BRANCH_DIRECT_JUMP	ACCESS:     633395  HIT:     632983  MISS:        412
BTB BRANCH_INDIRECT	ACCESS:       8917  HIT:       8176  MISS:        741
BTB BRANCH_CONDITIONAL	ACCESS:   27681837  HIT:   27678187  MISS:       3650
BTB BRANCH_DIRECT_CALL	ACCESS:     675281  HIT:     673574  MISS:       1707
BTB BRANCH_INDIRECT_CALL	ACCESS:          0  HIT:          0  MISS:          0
BTB BRANCH_RETURN	ACCESS:     675281  HIT:     627916  MISS:      47365
BTB BRANCH_OTHER ACCESS:          0  HIT:          0  MISS:          0

L2C SPEC fills:          0  NON-SPEC fills:      18502
L2C Test counter :          0
L2C Leapfrog:          0
L2C MSHR merge:       1967
L2C TOTAL     ACCESS:    6326886  HIT:    4851156  MISS:    1475730  HIT %:    76.6753  MISS %:    23.3247   MPKI: 7.37865
L2C LOAD      TOTAL       ACCESS:     523711  HIT:     260938  MISS:     262773  HIT %:    49.8248  MISS %:    50.1752   MPKI: 1.31386
L2C LOAD      NON_SPEC    ACCESS:     183968  HIT:      56781  MISS:     127187  HIT %:    30.8646  MISS %:    69.1354   MPKI: 0.635935
L2C LOAD      SPEC        ACCESS:     339743  HIT:     204157  MISS:     135586  HIT %:    60.0916  MISS %:    39.9084   MPKI: 0.67793
L2C RFO       NON_SPEC    ACCESS:     159162  HIT:      85522  MISS:      73640  HIT %:    53.7327  MISS %:    46.2673   MPKI: 0.3682
L2C PREFETCH  NON_SPEC    ACCESS:    2730832  HIT:    1717641  MISS:    1013191  HIT %:    62.8981  MISS %:    37.1019   MPKI: 5.06595
L2C WRITEBACK NON_SPEC    ACCESS:     983310  HIT:     982237  MISS:       1073  HIT %:    99.8909  MISS %:   0.109121   MPKI: 0.005365
L2C CLEAN_EVICTION NON_SPEC    ACCESS:    1873684  HIT:    1756667  MISS:     117017  HIT %:    93.7547  MISS %:    6.24529   MPKI: 0.585085
L2C COMMIT LOAD NON_SPEC    ACCESS:       8063  HIT:       6705  MISS:       1358  HIT %:    83.1576  MISS %:    16.8424   MPKI: 0.00679
L2C LOAD TRANSLATION NON_SPEC    ACCESS:      48124  HIT:      41446  MISS:       6678  HIT %:    86.1233  MISS %:    13.8767   MPKI: 0.03339
L2C PREFETCH  REQUESTED:          0  ISSUED:          0  USEFUL:      58316  USELESS:     954543
L2C USEFUL LOAD PREFETCHES:      58316 PREFETCH ISSUED TO LOWER LEVEL:    1031899  ACCURACY: 5.65133
L2C TIMELY PREFETCHES:      58316 LATE PREFETCHES: 18708 DROPPED PREFETCHES: 0
L2C COMMIT LATE PREFETCHES: 0 NORMAL LATE: 18712 MISSED OPPORTUNITY: 0 UNCOVERED: 260802
L2C PREFETCHES SAME FILL-ORIGIN LEVEL: 85787 DIFFERENT FILL-ORIGIN LEVEL: 0
L2C AVERAGE MISS LATENCY: 141.873 cycles
L2C AVERAGE MISS LATENCY LOAD: 71.2513 cycles
L2C AVERAGE MISS LATENCY PREFETCH: 164.13 cycles
L2C AVERAGE MSHR OCCUPANCY: 16.6531
L2C MSHR FULL: 0.484556
L2C RQ	ACCESS:     739299	FORWARD:          0	MERGED:          0	TO_CACHE:     739060
L2C WQ	ACCESS:    2857059	FORWARD:        803	MERGED:         65	TO_CACHE:    2856994
L2C PQ	ACCESS:    2790568	FORWARD:          0	MERGED:        796	TO_CACHE:    2789208

L2C Instructions Evicting Data 97262
L2C Translations Evicting Data 6272
L2C Data Evicting Data 1014947
L2C Instructions Evicting Instructions 10806
L2C Translations Evicting Instructions 373
L2C Data Evicting Instructions 86370
L2C Instructions Evicting Translations 617
L2C Translations Evicting Translations 33
L2C Data Evicting Translations 5374
L2C Dense regions hint from L2: 0
PSCL5 SPEC fills:          0  NON-SPEC fills:          0
PSCL5 Test counter :          0
PSCL5 Leapfrog:          0
PSCL5 MSHR merge:          0
PSCL5 TOTAL     ACCESS:          0  HIT:          0  MISS:          0  HIT %:       -nan  MISS %:       -nan   MPKI: 0
PSCL5 PREFETCH  REQUESTED:          0  ISSUED:          0  USEFUL:          0  USELESS:          0
PSCL5 USEFUL LOAD PREFETCHES:          0 PREFETCH ISSUED TO LOWER LEVEL:          0  ACCURACY: -nan
PSCL5 TIMELY PREFETCHES:          0 LATE PREFETCHES: 0 DROPPED PREFETCHES: 0
PSCL5 COMMIT LATE PREFETCHES: 0 NORMAL LATE: 0 MISSED OPPORTUNITY: 0 UNCOVERED: 0
PSCL5 PREFETCHES SAME FILL-ORIGIN LEVEL: 0 DIFFERENT FILL-ORIGIN LEVEL: 0

PSCL4 SPEC fills:          0  NON-SPEC fills:          0
PSCL4 Test counter :          0
PSCL4 Leapfrog:          0
PSCL4 MSHR merge:          0
PSCL4 TOTAL     ACCESS:          0  HIT:          0  MISS:          0  HIT %:       -nan  MISS %:       -nan   MPKI: 0
PSCL4 PREFETCH  REQUESTED:          0  ISSUED:          0  USEFUL:          0  USELESS:          0
PSCL4 USEFUL LOAD PREFETCHES:          0 PREFETCH ISSUED TO LOWER LEVEL:          0  ACCURACY: -nan
PSCL4 TIMELY PREFETCHES:          0 LATE PREFETCHES: 0 DROPPED PREFETCHES: 0
PSCL4 COMMIT LATE PREFETCHES: 0 NORMAL LATE: 0 MISSED OPPORTUNITY: 0 UNCOVERED: 0
PSCL4 PREFETCHES SAME FILL-ORIGIN LEVEL: 0 DIFFERENT FILL-ORIGIN LEVEL: 0

PSCL3 SPEC fills:          0  NON-SPEC fills:          0
PSCL3 Test counter :          0
PSCL3 Leapfrog:          0
PSCL3 MSHR merge:          0
PSCL3 TOTAL     ACCESS:          0  HIT:          0  MISS:          0  HIT %:       -nan  MISS %:       -nan   MPKI: 0
PSCL3 PREFETCH  REQUESTED:          0  ISSUED:          0  USEFUL:          0  USELESS:          0
PSCL3 USEFUL LOAD PREFETCHES:          0 PREFETCH ISSUED TO LOWER LEVEL:          0  ACCURACY: -nan
PSCL3 TIMELY PREFETCHES:          0 LATE PREFETCHES: 0 DROPPED PREFETCHES: 0
PSCL3 COMMIT LATE PREFETCHES: 0 NORMAL LATE: 0 MISSED OPPORTUNITY: 0 UNCOVERED: 0
PSCL3 PREFETCHES SAME FILL-ORIGIN LEVEL: 0 DIFFERENT FILL-ORIGIN LEVEL: 0

PSCL2 SPEC fills:          0  NON-SPEC fills:          0
PSCL2 Test counter :          0
PSCL2 Leapfrog:          0
PSCL2 MSHR merge:          0
PSCL2 TOTAL     ACCESS:          0  HIT:          0  MISS:          0  HIT %:       -nan  MISS %:       -nan   MPKI: 0
PSCL2 PREFETCH  REQUESTED:          0  ISSUED:          0  USEFUL:          0  USELESS:          0
PSCL2 USEFUL LOAD PREFETCHES:          0 PREFETCH ISSUED TO LOWER LEVEL:          0  ACCURACY: -nan
PSCL2 TIMELY PREFETCHES:          0 LATE PREFETCHES: 0 DROPPED PREFETCHES: 0
PSCL2 COMMIT LATE PREFETCHES: 0 NORMAL LATE: 0 MISSED OPPORTUNITY: 0 UNCOVERED: 0
PSCL2 PREFETCHES SAME FILL-ORIGIN LEVEL: 0 DIFFERENT FILL-ORIGIN LEVEL: 0

LLC SPEC fills:          0  NON-SPEC fills:       7185
LLC Test counter :          0
LLC Leapfrog:          0
LLC MSHR merge:          0
LLC TOTAL     ACCESS:    2492477  HIT:    1760104  MISS:     732373  HIT %:    70.6167  MISS %:    29.3833   MPKI: 3.66186
LLC LOAD      TOTAL       ACCESS:     260804  HIT:     188715  MISS:      72089  HIT %:    72.3589  MISS %:    27.6411   MPKI: 0.360445
LLC LOAD      NON_SPEC    ACCESS:     127149  HIT:     115530  MISS:      11619  HIT %:    90.8619  MISS %:     9.1381   MPKI: 0.058095
LLC LOAD      SPEC        ACCESS:     133655  HIT:      73185  MISS:      60470  HIT %:    54.7566  MISS %:    45.2434   MPKI: 0.30235
LLC RFO       NON_SPEC    ACCESS:      56938  HIT:      25037  MISS:      31901  HIT %:    43.9724  MISS %:    56.0276   MPKI: 0.159505
LLC PREFETCH  NON_SPEC    ACCESS:    1031889  HIT:     458134  MISS:     573755  HIT %:    44.3976  MISS %:    55.6024   MPKI: 2.86877
LLC WRITEBACK NON_SPEC    ACCESS:     363622  HIT:     357976  MISS:       5646  HIT %:    98.4473  MISS %:    1.55271   MPKI: 0.02823
LLC CLEAN_EVICTION NON_SPEC    ACCESS:     771227  HIT:     724307  MISS:      46920  HIT %:    93.9162  MISS %:    6.08381   MPKI: 0.2346
LLC COMMIT LOAD NON_SPEC    ACCESS:       1319  HIT:       1102  MISS:        217  HIT %:    83.5481  MISS %:    16.4519   MPKI: 0.001085
LLC LOAD TRANSLATION NON_SPEC    ACCESS:       6678  HIT:       4833  MISS:       1845  HIT %:     72.372  MISS %:     27.628   MPKI: 0.009225
LLC PREFETCH  REQUESTED:          0  ISSUED:          0  USEFUL:      21706  USELESS:     552532
LLC USEFUL LOAD PREFETCHES:      21706 PREFETCH ISSUED TO LOWER LEVEL:     573755  ACCURACY: 3.78315
LLC TIMELY PREFETCHES:      21706 LATE PREFETCHES: 0 DROPPED PREFETCHES: 0
LLC COMMIT LATE PREFETCHES: 0 NORMAL LATE: 0 MISSED OPPORTUNITY: 0 UNCOVERED: 0
LLC PREFETCHES SAME FILL-ORIGIN LEVEL: 0 DIFFERENT FILL-ORIGIN LEVEL: 0
LLC AVERAGE MISS LATENCY: 235.161 cycles
LLC AVERAGE MISS LATENCY LOAD: 159.671 cycles
LLC AVERAGE MISS LATENCY PREFETCH: 254.951 cycles
LLC AVERAGE MSHR OCCUPANCY: 1.60215
LLC MSHR FULL: 0
LLC RQ	ACCESS:     325741	FORWARD:          0	MERGED:          0	TO_CACHE:     325739
LLC WQ	ACCESS:    1134849	FORWARD:         12	MERGED:          0	TO_CACHE:    1134849
LLC PQ	ACCESS:    1031899	FORWARD:          0	MERGED:          0	TO_CACHE:    1031889

LLC Dense regions hint to LLC: 0

RAW hits: 411814
Loads Generated: 40494547
Loads sent to L1D: 40082732
Stores Generated: 13600307
Stores sent to L1D: 13600317
Major fault: 0 Minor fault: 9397
Allocated PAGES: 9397
Total Load insts: 51095932
Total Non-spec loads: 6120709
Percentage of speculative loads: 88.0211

LeapFrogging counter: 50468
Commit hits: 25236643 miss: 9177903
Commit hit %: 73.3313 miss %: 26.6687
Commits not translated: 0
Loads retired: 519921
Stores retired: 13600317
Cache fills: 519921
L1D response latency: 65.4467 cycles
Load retirement latency: 104.605 cycles
OOO test counter: 0
Discarded buffer inserts: 25236643 hits: 15294 hit %: 0.0606024
Filter prediction accuracy: -nan
Speculative prefetch buffer size: 1
CPU 0 L1D PC-based stride prefetcher final stats
Degree: 3
CPU 0 L1D PC-based stride prefetcher final stats
Degree: 3

DRAM Statistics
 CHANNEL 0
 RQ ROW_BUFFER_HIT:     136950  ROW_BUFFER_MISS:     542838
 DBUS_CONGESTED:       1179
 WQ ROW_BUFFER_HIT:     167609  ROW_BUFFER_MISS:     464345  FULL:       2787

 AVG_CONGESTED_CYCLE: 5
 All warmup complete: 2
Channel 0 Bank busy for read cycles: 0
Channel 0 Bank busy for write cycles: 0
Channel 0
Rank 0
0banks busy for read cycles: 187494305
0banks busy for write cycles: 38138
1banks busy for read cycles: 17599058
1banks busy for write cycles: 4478442
2banks busy for read cycles: 10356045
2banks busy for write cycles: 1759798
3banks busy for read cycles: 4813101
3banks busy for write cycles: 1162380
4banks busy for read cycles: 2732784
4banks busy for write cycles: 908515
5banks busy for read cycles: 1788676
5banks busy for write cycles: 802860
6banks busy for read cycles: 1094948
6banks busy for write cycles: 885033
7banks busy for read cycles: 638218
7banks busy for write cycles: 1430312
8banks busy for read cycles: 880966
8banks busy for write cycles: 9904910

CPU 0 Branch Prediction Accuracy: 99.215% MPKI: 1.19675 Average ROB Occupancy at Mispredict: 25.4457
Branch types
NOT_BRANCH: 169508277 84.7541%
BRANCH_DIRECT_JUMP: 633395 0.316697%
BRANCH_INDIRECT: 8917 0.0044585%
BRANCH_CONDITIONAL: 28498600 14.2493%
BRANCH_DIRECT_CALL: 675281 0.33764%
BRANCH_INDIRECT_CALL: 0 0%
BRANCH_RETURN: 675281 0.33764%
BRANCH_OTHER: 0 0%

DRAM PAGES: 1048576
Allocated PAGES: 9397
