
*** ChampSim Multicore Out-of-Order Simulator ***

Warmup Instructions: 50000000
Simulation Instructions: 200000000
Number of CPUs: 1
LLC sets: 2048
LLC ways: 16
L0D sets: 16
L0D ways: 2
ROB size: 352
LQ size: 128
SQ size: 72
Secure Berti: OFF
Berti: OFF
Berti Fill: OFF
On commit prefetching: ON
Hit-based filter: OFF
Time-guarding: ON
Free-slotting: ON
Leap-frogging: ON
Train prefetcher on L0D bypass: OFF
No translation penalty for prefetchers: OFF
Prefetch to L0D only: OFF
Prefetch to L1D only: OFF
Clean evictions: ON
Commit loads: ON
Commit write: ON
Fill commit loads to L2C, LLC: ON
DRAM IO FREQUENCY: 6400
ROB SIZE: 352
Off-chip DRAM Size: 4096 MB Channels: 1 Width: 64-bit Data Rate: 6400 MT/s
CPU 0 runs /home/sumon/secure_berti/GhostMinion/../../traces/spec/649.fotonik3d_s-8225B.champsimtrace.xz
.xz
BTB has LRU replacement policy
ITLB has LRU replacement policy
DTLB has LRU replacement policy
STLB has LRU replacement policy
L1I has LRU replacement policy
L0D has LRU replacement policy
CPU 0 L1D IP-based stride prefetcher
CPU 0 L1D IP-based stride prefetcher
L1D has LRU replacement policy
L2C has LRU replacement policy
LLC has LRU replacement policy
Heartbeat CPU 0 instructions: 10000000 cycles: 3138299 heartbeat IPC: 3.18644 cumulative IPC: 3.18644 (Simulation time: 0 hr 0 min 37 sec) 
Heartbeat CPU 0 instructions: 20000001 cycles: 6276550 heartbeat IPC: 3.18649 cumulative IPC: 3.18646 (Simulation time: 0 hr 1 min 33 sec) 
Heartbeat CPU 0 instructions: 30000000 cycles: 9414732 heartbeat IPC: 3.18656 cumulative IPC: 3.1865 (Simulation time: 0 hr 2 min 36 sec) 
Heartbeat CPU 0 instructions: 40000002 cycles: 12552894 heartbeat IPC: 3.18658 cumulative IPC: 3.18652 (Simulation time: 0 hr 3 min 38 sec) 
Heartbeat CPU 0 instructions: 50000001 cycles: 15691023 heartbeat IPC: 3.18661 cumulative IPC: 3.18654 (Simulation time: 0 hr 4 min 39 sec) 

Warmup complete CPU 0 instructions: 50000001 cycles: 15691023 (Simulation time: 0 hr 4 min 39 sec) 

Heartbeat CPU 0 instructions: 60000000 cycles: 25711628 heartbeat IPC: 0.997944 cumulative IPC: 0.997944 (Simulation time: 0 hr 5 min 50 sec) 
Heartbeat CPU 0 instructions: 70000001 cycles: 35734372 heartbeat IPC: 0.997731 cumulative IPC: 0.997837 (Simulation time: 0 hr 7 min 0 sec) 
Heartbeat CPU 0 instructions: 80000002 cycles: 45755743 heartbeat IPC: 0.997868 cumulative IPC: 0.997847 (Simulation time: 0 hr 8 min 9 sec) 
Heartbeat CPU 0 instructions: 90000003 cycles: 55778075 heartbeat IPC: 0.997772 cumulative IPC: 0.997828 (Simulation time: 0 hr 9 min 18 sec) 
Heartbeat CPU 0 instructions: 100000000 cycles: 65797578 heartbeat IPC: 0.998053 cumulative IPC: 0.997873 (Simulation time: 0 hr 10 min 26 sec) 
Heartbeat CPU 0 instructions: 110000000 cycles: 75820450 heartbeat IPC: 0.997718 cumulative IPC: 0.997847 (Simulation time: 0 hr 11 min 35 sec) 
Heartbeat CPU 0 instructions: 120000002 cycles: 85840354 heartbeat IPC: 0.998014 cumulative IPC: 0.997871 (Simulation time: 0 hr 12 min 44 sec) 
Heartbeat CPU 0 instructions: 130000003 cycles: 95863299 heartbeat IPC: 0.997711 cumulative IPC: 0.997851 (Simulation time: 0 hr 13 min 54 sec) 
Heartbeat CPU 0 instructions: 140000002 cycles: 105884239 heartbeat IPC: 0.99791 cumulative IPC: 0.997858 (Simulation time: 0 hr 15 min 3 sec) 
Heartbeat CPU 0 instructions: 150000003 cycles: 115906348 heartbeat IPC: 0.997794 cumulative IPC: 0.997851 (Simulation time: 0 hr 16 min 12 sec) 
Heartbeat CPU 0 instructions: 160000003 cycles: 125926703 heartbeat IPC: 0.997969 cumulative IPC: 0.997862 (Simulation time: 0 hr 17 min 20 sec) 
Heartbeat CPU 0 instructions: 170000003 cycles: 135950583 heartbeat IPC: 0.997618 cumulative IPC: 0.997842 (Simulation time: 0 hr 18 min 28 sec) 
Heartbeat CPU 0 instructions: 180000000 cycles: 145970430 heartbeat IPC: 0.998019 cumulative IPC: 0.997855 (Simulation time: 0 hr 19 min 22 sec) 
Heartbeat CPU 0 instructions: 190000001 cycles: 155992554 heartbeat IPC: 0.997793 cumulative IPC: 0.997851 (Simulation time: 0 hr 20 min 0 sec) 
Heartbeat CPU 0 instructions: 200000003 cycles: 166014909 heartbeat IPC: 0.99777 cumulative IPC: 0.997845 (Simulation time: 0 hr 21 min 8 sec) 
Heartbeat CPU 0 instructions: 210000000 cycles: 176035385 heartbeat IPC: 0.997956 cumulative IPC: 0.997852 (Simulation time: 0 hr 22 min 11 sec) 
Heartbeat CPU 0 instructions: 220000000 cycles: 186056472 heartbeat IPC: 0.997896 cumulative IPC: 0.997855 (Simulation time: 0 hr 22 min 57 sec) 
Heartbeat CPU 0 instructions: 230000000 cycles: 196077117 heartbeat IPC: 0.99794 cumulative IPC: 0.99786 (Simulation time: 0 hr 23 min 42 sec) 
Heartbeat CPU 0 instructions: 240000003 cycles: 206100388 heartbeat IPC: 0.997679 cumulative IPC: 0.99785 (Simulation time: 0 hr 24 min 26 sec) 
Heartbeat CPU 0 instructions: 250000000 cycles: 216121104 heartbeat IPC: 0.997932 cumulative IPC: 0.997854 (Simulation time: 0 hr 25 min 11 sec) 
Finished CPU 0 instructions: 200000003 cycles: 200430082 cumulative IPC: 0.997854 (Simulation time: 0 hr 25 min 11 sec) 
 Instruction ID: 250000051

ChampSim completed all CPUs

Region of Interest Statistics

CPU 0 cumulative IPC: 0.997854 instructions: 200000003 cycles: 200430082
ITLB SPEC fills:          0  NON-SPEC fills:          0
ITLB Test counter :          0
ITLB Leapfrog:          0
ITLB MSHR merge:          0
ITLB TOTAL     ACCESS:   28072700  HIT:   28072700  MISS:          0  HIT %:        100  MISS %:          0   MPKI: 0
ITLB LOAD TRANSLATION NON_SPEC    ACCESS:   28072700  HIT:   28072700  MISS:          0  HIT %:        100  MISS %:          0   MPKI: 0
ITLB PREFETCH  REQUESTED:          0  ISSUED:          0  USEFUL:          0  USELESS:          0
ITLB USEFUL LOAD PREFETCHES:          0 PREFETCH ISSUED TO LOWER LEVEL:          0  ACCURACY: -nan
ITLB TIMELY PREFETCHES:          0 LATE PREFETCHES: 0 DROPPED PREFETCHES: 0
ITLB COMMIT LATE PREFETCHES: 0 NORMAL LATE: 0 MISSED OPPORTUNITY: 0 UNCOVERED: 0
ITLB PREFETCHES SAME FILL-ORIGIN LEVEL: 0 DIFFERENT FILL-ORIGIN LEVEL: 0
ITLB AVERAGE MISS LATENCY: -nan cycles
ITLB AVERAGE MISS LATENCY LOAD: -nan cycles
ITLB AVERAGE MISS LATENCY PREFETCH: -nan cycles
ITLB AVERAGE MSHR OCCUPANCY: 0
ITLB MSHR FULL: 0
ITLB RQ	ACCESS:   35092850	FORWARD:          0	MERGED:    7020150	TO_CACHE:   28072700

DTLB SPEC fills:          0  NON-SPEC fills:          0
DTLB Test counter :          0
DTLB Leapfrog:          0
DTLB MSHR merge:          0
DTLB TOTAL     ACCESS:   36783271  HIT:   36736422  MISS:      46849  HIT %:    99.8726  MISS %:   0.127365   MPKI: 0.234245
DTLB LOAD TRANSLATION NON_SPEC    ACCESS:   36783271  HIT:   36736422  MISS:      46849  HIT %:    99.8726  MISS %:   0.127365   MPKI: 0.234245
DTLB PREFETCH  REQUESTED:          0  ISSUED:          0  USEFUL:          0  USELESS:          0
DTLB USEFUL LOAD PREFETCHES:          0 PREFETCH ISSUED TO LOWER LEVEL:          0  ACCURACY: -nan
DTLB TIMELY PREFETCHES:          0 LATE PREFETCHES: 0 DROPPED PREFETCHES: 0
DTLB COMMIT LATE PREFETCHES: 0 NORMAL LATE: 0 MISSED OPPORTUNITY: 0 UNCOVERED: 0
DTLB PREFETCHES SAME FILL-ORIGIN LEVEL: 0 DIFFERENT FILL-ORIGIN LEVEL: 0
DTLB AVERAGE MISS LATENCY: 115.104 cycles
DTLB AVERAGE MISS LATENCY LOAD: -nan cycles
DTLB AVERAGE MISS LATENCY PREFETCH: -nan cycles
DTLB AVERAGE MSHR OCCUPANCY: 0.00693126
DTLB MSHR FULL: 0
DTLB RQ	ACCESS:   57550668	FORWARD:          0	MERGED:   20764590	TO_CACHE:   36786078

STLB SPEC fills:          0  NON-SPEC fills:          0
STLB Test counter :          0
STLB Leapfrog:          0
STLB MSHR merge:          0
STLB TOTAL     ACCESS:    5081257  HIT:    5053801  MISS:      27456  HIT %:    99.4597  MISS %:   0.540339   MPKI: 0.13728
STLB LOAD TRANSLATION NON_SPEC    ACCESS:      46849  HIT:      19393  MISS:      27456  HIT %:    41.3947  MISS %:    58.6053   MPKI: 0.13728
STLB TRANSLATION FROM L1D PREFETCHER NON_SPEC    ACCESS:    5034408  HIT:    5034408  MISS:          0  HIT %:        100  MISS %:          0   MPKI: 0
STLB PREFETCH  REQUESTED:          0  ISSUED:          0  USEFUL:          0  USELESS:          0
STLB USEFUL LOAD PREFETCHES:          0 PREFETCH ISSUED TO LOWER LEVEL:          0  ACCURACY: -nan
STLB TIMELY PREFETCHES:          0 LATE PREFETCHES: 0 DROPPED PREFETCHES: 0
STLB COMMIT LATE PREFETCHES: 0 NORMAL LATE: 0 MISSED OPPORTUNITY: 0 UNCOVERED: 0
STLB PREFETCHES SAME FILL-ORIGIN LEVEL: 0 DIFFERENT FILL-ORIGIN LEVEL: 0
STLB AVERAGE MISS LATENCY: 180.979 cycles
STLB AVERAGE MISS LATENCY LOAD: -nan cycles
STLB AVERAGE MISS LATENCY PREFETCH: -nan cycles
STLB AVERAGE MSHR OCCUPANCY: 0.000188339
STLB MSHR FULL: 0
STLB RQ	ACCESS:   14837558	FORWARD:          0	MERGED:    9756301	TO_CACHE:    5081257

STLB Hit, L1D data hit: 0
STLB Hit, L2C data hit: 0
STLB Hit, LLC data hit: 0
STLB Hit, LLC data miss: 0
STLB STLB hints to L2: 0
L0D SPEC fills:   27659454  NON-SPEC fills:          0
L0D TimeGuard Request with older TS:      11226 Restricted eviction:        513 read:     224279
L0D Test counter :          0
L0D Leapfrog:          0
L0D MSHR merge:    5752245
L0D TOTAL     ACCESS:   37757331  HIT:    4491627  MISS:   33265704  HIT %:     11.896  MISS %:     88.104   MPKI: 166.329
L0D LOAD      TOTAL       ACCESS:   37757331  HIT:    4491627  MISS:   33265704  HIT %:     11.896  MISS %:     88.104   MPKI: 166.329
L0D LOAD      NON_SPEC    ACCESS:    5611003  HIT:       5266  MISS:    5605737  HIT %:  0.0938513  MISS %:    99.9061   MPKI: 28.0287
L0D LOAD      SPEC        ACCESS:   32146328  HIT:    4486361  MISS:   27659967  HIT %:    13.9561  MISS %:    86.0439   MPKI: 138.3
L0D PREFETCH  REQUESTED:          0  ISSUED:          0  USEFUL:          0  USELESS:          0
L0D USEFUL LOAD PREFETCHES:          0 PREFETCH ISSUED TO LOWER LEVEL:          0  ACCURACY: -nan
L0D TIMELY PREFETCHES:          0 LATE PREFETCHES: 0 DROPPED PREFETCHES: 0
L0D COMMIT LATE PREFETCHES: 0 NORMAL LATE: 0 MISSED OPPORTUNITY: 0 UNCOVERED: 0
L0D PREFETCHES SAME FILL-ORIGIN LEVEL: 0 DIFFERENT FILL-ORIGIN LEVEL: 0
L0D AVERAGE MISS LATENCY: 5.93393 cycles
L0D AVERAGE MISS LATENCY LOAD: 5.93393 cycles
L0D AVERAGE MISS LATENCY PREFETCH: -nan cycles
L0D AVERAGE MSHR OCCUPANCY: 1.24593
L0D MSHR FULL: 5.05636e-07
L0D RQ	ACCESS:   70166184	FORWARD:          0	MERGED:   26656612	TO_CACHE:   43509572
L0D WQ	ACCESS:   14041096	FORWARD:          0	MERGED:          0	TO_CACHE:   14041096

L1D SPEC fills:          0  NON-SPEC fills:     142268
L1D Test counter :          0
L1D Leapfrog:          0
L1D MSHR merge:     267683
L1D TOTAL     ACCESS:  112489458  HIT:  109616169  MISS:    2873289  HIT %:    97.4457  MISS %:    2.55427   MPKI: 14.3664
L1D LOAD      TOTAL       ACCESS:   33265068  HIT:   32920548  MISS:     344520  HIT %:    98.9643  MISS %:    1.03568   MPKI: 1.7226
L1D LOAD      NON_SPEC    ACCESS:    5605732  HIT:    5463464  MISS:     142268  HIT %:    97.4621  MISS %:     2.5379   MPKI: 0.71134
L1D LOAD      SPEC        ACCESS:   27659336  HIT:   27457084  MISS:     202252  HIT %:    99.2688  MISS %:   0.731225   MPKI: 1.01126
L1D RFO       NON_SPEC    ACCESS:   13724354  HIT:   13721486  MISS:       2868  HIT %:    99.9791  MISS %:  0.0208972   MPKI: 0.01434
L1D PREFETCH  NON_SPEC    ACCESS:    8842545  HIT:    6500684  MISS:    2341861  HIT %:     73.516  MISS %:     26.484   MPKI: 11.7093
L1D COMMIT LOAD NON_SPEC    ACCESS:   29009293  HIT:   29007426  MISS:       1867  HIT %:    99.9936  MISS %: 0.00643587   MPKI: 0.009335
L1D COMMIT WRITE NON_SPEC    ACCESS:   27648198  HIT:   27466025  MISS:     182173  HIT %:    99.3411  MISS %:   0.658896   MPKI: 0.910865
L1D PREFETCH  REQUESTED:   50943739  ISSUED:   50943739  USEFUL:    2320001  USELESS:      21857
L1D USEFUL LOAD PREFETCHES:    2320001 PREFETCH ISSUED TO LOWER LEVEL:    2608966  ACCURACY: 88.9242
L1D TIMELY PREFETCHES:    2320001 LATE PREFETCHES: 267050 DROPPED PREFETCHES: 0
L1D COMMIT LATE PREFETCHES: 40986 NORMAL LATE: 240958 MISSED OPPORTUNITY: 38 UNCOVERED: 62579
L1D PREFETCHES SAME FILL-ORIGIN LEVEL: 2608913 DIFFERENT FILL-ORIGIN LEVEL: 53
L1D AVERAGE MISS LATENCY: 118.8 cycles
L1D AVERAGE MISS LATENCY LOAD: 73.9103 cycles
L1D AVERAGE MISS LATENCY PREFETCH: 134.842 cycles
L1D AVERAGE MSHR OCCUPANCY: 1.98535
L1D MSHR FULL: 0
L1D RQ	ACCESS:   66954875	FORWARD:          0	MERGED:    4314078	TO_CACHE:   62275092
L1D WQ	ACCESS:   41691485	FORWARD:     365705	MERGED:     311969	TO_CACHE:   41379516
L1D PQ	ACCESS:   50943739	FORWARD:          0	MERGED:   36153030	TO_CACHE:   14790709

L1D UNIQUE REGIONS ACCESSED: 0
L1D REGIONS CONFLICTS: 0
L1D Cross Page Prefetch Requests: 0
L1D Same Page Prefetch Requests: 63679543
L1D ROI Sum of L1D PQ occupancy: 215592942
L1D PREFETCHES PUSHED FROM L2C: 0
L1I SPEC fills:          0  NON-SPEC fills:          0
L1I Test counter :          0
L1I Leapfrog:          0
L1I MSHR merge:          0
L1I TOTAL     ACCESS:   35092849  HIT:   35092849  MISS:          0  HIT %:        100  MISS %:          0   MPKI: 0
L1I LOAD      TOTAL       ACCESS:   35092849  HIT:   35092849  MISS:          0  HIT %:        100  MISS %:          0   MPKI: 0
L1I LOAD      NON_SPEC    ACCESS:   35092849  HIT:   35092849  MISS:          0  HIT %:        100  MISS %:          0   MPKI: 0
L1I PREFETCH  REQUESTED:          0  ISSUED:          0  USEFUL:          0  USELESS:          0
L1I USEFUL LOAD PREFETCHES:          0 PREFETCH ISSUED TO LOWER LEVEL:          0  ACCURACY: -nan
L1I TIMELY PREFETCHES:          0 LATE PREFETCHES: 0 DROPPED PREFETCHES: 0
L1I COMMIT LATE PREFETCHES: 0 NORMAL LATE: 0 MISSED OPPORTUNITY: 0 UNCOVERED: 0
L1I PREFETCHES SAME FILL-ORIGIN LEVEL: 0 DIFFERENT FILL-ORIGIN LEVEL: 0
L1I AVERAGE MISS LATENCY: -nan cycles
L1I AVERAGE MISS LATENCY LOAD: -nan cycles
L1I AVERAGE MISS LATENCY PREFETCH: -nan cycles
L1I AVERAGE MSHR OCCUPANCY: 0
L1I MSHR FULL: 0
L1I RQ	ACCESS:   45649361	FORWARD:          0	MERGED:   10556511	TO_CACHE:   35092850

BTB SPEC fills:          0  NON-SPEC fills:          0
BTB Test counter :          0
BTB Leapfrog:          0
BTB MSHR merge:          0
BTB TOTAL     ACCESS:    3509173  HIT:    3509164  MISS:          9  HIT %:    99.9997  MISS %: 0.000256471   MPKI: 4.5e-05
BTB BRANCH_DIRECT_JUMP	ACCESS:        876  HIT:        874  MISS:          2
BTB BRANCH_INDIRECT	ACCESS:          0  HIT:          0  MISS:          0
BTB BRANCH_CONDITIONAL	ACCESS:    3506545  HIT:    3506542  MISS:          3
BTB BRANCH_DIRECT_CALL	ACCESS:        876  HIT:        874  MISS:          2
BTB BRANCH_INDIRECT_CALL	ACCESS:          0  HIT:          0  MISS:          0
BTB BRANCH_RETURN	ACCESS:        876  HIT:        874  MISS:          2
BTB BRANCH_OTHER ACCESS:          0  HIT:          0  MISS:          0

L2C SPEC fills:          0  NON-SPEC fills:      22011
L2C Test counter :          0
L2C Leapfrog:          0
L2C MSHR merge:          0
L2C TOTAL     ACCESS:    5474370  HIT:    3673522  MISS:    1800848  HIT %:     67.104  MISS %:     32.896   MPKI: 9.00424
L2C LOAD      TOTAL       ACCESS:      77472  HIT:      29825  MISS:      47647  HIT %:    38.4978  MISS %:    61.5022   MPKI: 0.238235
L2C LOAD      NON_SPEC    ACCESS:      35571  HIT:      13560  MISS:      22011  HIT %:    38.1209  MISS %:    61.8791   MPKI: 0.110055
L2C LOAD      SPEC        ACCESS:      41901  HIT:      16265  MISS:      25636  HIT %:    38.8177  MISS %:    61.1823   MPKI: 0.12818
L2C RFO       NON_SPEC    ACCESS:       2868  HIT:       1846  MISS:       1022  HIT %:    64.3654  MISS %:    35.6346   MPKI: 0.00511
L2C PREFETCH  NON_SPEC    ACCESS:    2608946  HIT:     871344  MISS:    1737602  HIT %:    33.3983  MISS %:    66.6017   MPKI: 8.68801
L2C WRITEBACK NON_SPEC    ACCESS:    1211889  HIT:    1211889  MISS:          0  HIT %:        100  MISS %:          0   MPKI: 0
L2C CLEAN_EVICTION NON_SPEC    ACCESS:    1434139  HIT:    1423125  MISS:      11014  HIT %:     99.232  MISS %:   0.767987   MPKI: 0.05507
L2C COMMIT LOAD NON_SPEC    ACCESS:       1865  HIT:       1848  MISS:         17  HIT %:    99.0885  MISS %:   0.911528   MPKI: 8.5e-05
L2C LOAD TRANSLATION NON_SPEC    ACCESS:     137191  HIT:     133645  MISS:       3546  HIT %:    97.4153  MISS %:    2.58472   MPKI: 0.01773
L2C PREFETCH  REQUESTED:          0  ISSUED:          0  USEFUL:       2753  USELESS:    1734865
L2C USEFUL LOAD PREFETCHES:       2753 PREFETCH ISSUED TO LOWER LEVEL:    1737604  ACCURACY: 0.158437
L2C TIMELY PREFETCHES:       2753 LATE PREFETCHES: 0 DROPPED PREFETCHES: 0
L2C COMMIT LATE PREFETCHES: 0 NORMAL LATE: 0 MISSED OPPORTUNITY: 0 UNCOVERED: 47647
L2C PREFETCHES SAME FILL-ORIGIN LEVEL: 18 DIFFERENT FILL-ORIGIN LEVEL: 0
L2C AVERAGE MISS LATENCY: 197.633 cycles
L2C AVERAGE MISS LATENCY LOAD: 180.991 cycles
L2C AVERAGE MISS LATENCY PREFETCH: 199.438 cycles
L2C AVERAGE MSHR OCCUPANCY: 0.377701
L2C MSHR FULL: 0
L2C RQ	ACCESS:     219396	FORWARD:          0	MERGED:          0	TO_CACHE:     219396
L2C WQ	ACCESS:    2646028	FORWARD:          0	MERGED:          0	TO_CACHE:    2646028
L2C PQ	ACCESS:    2608966	FORWARD:          0	MERGED:          0	TO_CACHE:    2608966

L2C Instructions Evicting Data 0
L2C Translations Evicting Data 3546
L2C Data Evicting Data 1757131
L2C Instructions Evicting Instructions 0
L2C Translations Evicting Instructions 0
L2C Data Evicting Instructions 0
L2C Instructions Evicting Translations 0
L2C Translations Evicting Translations 0
L2C Data Evicting Translations 3521
L2C Dense regions hint from L2: 0
PSCL5 SPEC fills:          0  NON-SPEC fills:          0
PSCL5 Test counter :          0
PSCL5 Leapfrog:          0
PSCL5 MSHR merge:          0
PSCL5 TOTAL     ACCESS:          0  HIT:          0  MISS:          0  HIT %:       -nan  MISS %:       -nan   MPKI: 0
PSCL5 PREFETCH  REQUESTED:          0  ISSUED:          0  USEFUL:          0  USELESS:          0
PSCL5 USEFUL LOAD PREFETCHES:          0 PREFETCH ISSUED TO LOWER LEVEL:          0  ACCURACY: -nan
PSCL5 TIMELY PREFETCHES:          0 LATE PREFETCHES: 0 DROPPED PREFETCHES: 0
PSCL5 COMMIT LATE PREFETCHES: 0 NORMAL LATE: 0 MISSED OPPORTUNITY: 0 UNCOVERED: 0
PSCL5 PREFETCHES SAME FILL-ORIGIN LEVEL: 0 DIFFERENT FILL-ORIGIN LEVEL: 0

PSCL4 SPEC fills:          0  NON-SPEC fills:          0
PSCL4 Test counter :          0
PSCL4 Leapfrog:          0
PSCL4 MSHR merge:          0
PSCL4 TOTAL     ACCESS:          0  HIT:          0  MISS:          0  HIT %:       -nan  MISS %:       -nan   MPKI: 0
PSCL4 PREFETCH  REQUESTED:          0  ISSUED:          0  USEFUL:          0  USELESS:          0
PSCL4 USEFUL LOAD PREFETCHES:          0 PREFETCH ISSUED TO LOWER LEVEL:          0  ACCURACY: -nan
PSCL4 TIMELY PREFETCHES:          0 LATE PREFETCHES: 0 DROPPED PREFETCHES: 0
PSCL4 COMMIT LATE PREFETCHES: 0 NORMAL LATE: 0 MISSED OPPORTUNITY: 0 UNCOVERED: 0
PSCL4 PREFETCHES SAME FILL-ORIGIN LEVEL: 0 DIFFERENT FILL-ORIGIN LEVEL: 0

PSCL3 SPEC fills:          0  NON-SPEC fills:          0
PSCL3 Test counter :          0
PSCL3 Leapfrog:          0
PSCL3 MSHR merge:          0
PSCL3 TOTAL     ACCESS:          0  HIT:          0  MISS:          0  HIT %:       -nan  MISS %:       -nan   MPKI: 0
PSCL3 PREFETCH  REQUESTED:          0  ISSUED:          0  USEFUL:          0  USELESS:          0
PSCL3 USEFUL LOAD PREFETCHES:          0 PREFETCH ISSUED TO LOWER LEVEL:          0  ACCURACY: -nan
PSCL3 TIMELY PREFETCHES:          0 LATE PREFETCHES: 0 DROPPED PREFETCHES: 0
PSCL3 COMMIT LATE PREFETCHES: 0 NORMAL LATE: 0 MISSED OPPORTUNITY: 0 UNCOVERED: 0
PSCL3 PREFETCHES SAME FILL-ORIGIN LEVEL: 0 DIFFERENT FILL-ORIGIN LEVEL: 0

PSCL2 SPEC fills:          0  NON-SPEC fills:          0
PSCL2 Test counter :          0
PSCL2 Leapfrog:          0
PSCL2 MSHR merge:          0
PSCL2 TOTAL     ACCESS:          0  HIT:          0  MISS:          0  HIT %:       -nan  MISS %:       -nan   MPKI: 0
PSCL2 PREFETCH  REQUESTED:          0  ISSUED:          0  USEFUL:          0  USELESS:          0
PSCL2 USEFUL LOAD PREFETCHES:          0 PREFETCH ISSUED TO LOWER LEVEL:          0  ACCURACY: -nan
PSCL2 TIMELY PREFETCHES:          0 LATE PREFETCHES: 0 DROPPED PREFETCHES: 0
PSCL2 COMMIT LATE PREFETCHES: 0 NORMAL LATE: 0 MISSED OPPORTUNITY: 0 UNCOVERED: 0
PSCL2 PREFETCHES SAME FILL-ORIGIN LEVEL: 0 DIFFERENT FILL-ORIGIN LEVEL: 0

LLC SPEC fills:          0  NON-SPEC fills:      21638
LLC Test counter :          0
LLC Leapfrog:          0
LLC MSHR merge:          0
LLC TOTAL     ACCESS:    3559484  HIT:    1771229  MISS:    1788255  HIT %:    49.7608  MISS %:    50.2392   MPKI: 8.94127
LLC LOAD      TOTAL       ACCESS:      47647  HIT:       1227  MISS:      46420  HIT %:    2.57519  MISS %:    97.4248   MPKI: 0.2321
LLC LOAD      NON_SPEC    ACCESS:      22011  HIT:        373  MISS:      21638  HIT %:    1.69461  MISS %:    98.3054   MPKI: 0.10819
LLC LOAD      SPEC        ACCESS:      25636  HIT:        854  MISS:      24782  HIT %:    3.33125  MISS %:    96.6687   MPKI: 0.12391
LLC RFO       NON_SPEC    ACCESS:       1022  HIT:       1022  MISS:          0  HIT %:        100  MISS %:          0   MPKI: 0
LLC PREFETCH  NON_SPEC    ACCESS:    1737599  HIT:      13806  MISS:    1723793  HIT %:   0.794545  MISS %:    99.2055   MPKI: 8.61896
LLC WRITEBACK NON_SPEC    ACCESS:    1205998  HIT:    1205993  MISS:          5  HIT %:    99.9996  MISS %: 0.000414594   MPKI: 2.5e-05
LLC CLEAN_EVICTION NON_SPEC    ACCESS:     563655  HIT:     549163  MISS:      14492  HIT %:    97.4289  MISS %:    2.57108   MPKI: 0.07246
LLC COMMIT LOAD NON_SPEC    ACCESS:         17  HIT:         17  MISS:          0  HIT %:        100  MISS %:          0   MPKI: 0
LLC LOAD TRANSLATION NON_SPEC    ACCESS:       3546  HIT:          1  MISS:       3545  HIT %:  0.0282008  MISS %:    99.9718   MPKI: 0.017725
LLC PREFETCH  REQUESTED:          0  ISSUED:          0  USEFUL:        188  USELESS:    1723719
LLC USEFUL LOAD PREFETCHES:        188 PREFETCH ISSUED TO LOWER LEVEL:    1723794  ACCURACY: 0.0109062
LLC TIMELY PREFETCHES:        188 LATE PREFETCHES: 0 DROPPED PREFETCHES: 0
LLC COMMIT LATE PREFETCHES: 0 NORMAL LATE: 0 MISSED OPPORTUNITY: 0 UNCOVERED: 0
LLC PREFETCHES SAME FILL-ORIGIN LEVEL: 0 DIFFERENT FILL-ORIGIN LEVEL: 0
LLC AVERAGE MISS LATENCY: 169.127 cycles
LLC AVERAGE MISS LATENCY LOAD: 159.949 cycles
LLC AVERAGE MISS LATENCY PREFETCH: 170.795 cycles
LLC AVERAGE MSHR OCCUPANCY: 0.41084
LLC MSHR FULL: 0
LLC RQ	ACCESS:      52232	FORWARD:          0	MERGED:          0	TO_CACHE:      52232
LLC WQ	ACCESS:    1769653	FORWARD:          4	MERGED:          0	TO_CACHE:    1769653
LLC PQ	ACCESS:    1737604	FORWARD:          0	MERGED:          0	TO_CACHE:    1737600

LLC Dense regions hint to LLC: 0

RAW hits: 2909
Loads Generated: 70169100
Loads sent to L1D: 70166184
Stores Generated: 14041094
Stores sent to L1D: 14041096
Major fault: 0 Minor fault: 34487
Allocated PAGES: 34487
Total Load insts: 87707326
Total Non-spec loads: 10162628
Percentage of speculative loads: 88.413

LeapFrogging counter: 0
Commit hits: 27650387 miss: 33689174
Commit hit %: 45.0776 miss %: 54.9224
Commits not translated: 0
Loads retired: 344520
Stores retired: 14041096
Cache fills: 344520
L1D response latency: 73.9103 cycles
Load retirement latency: 101.858 cycles
OOO test counter: 0
Discarded buffer inserts: 27650387 hits: 3258 hit %: 0.0117828
Filter prediction accuracy: -nan
Speculative prefetch buffer size: 0
CPU 0 L1D PC-based stride prefetcher final stats
Degree: 3
CPU 0 L1D PC-based stride prefetcher final stats
Degree: 3

DRAM Statistics
 CHANNEL 0
 RQ ROW_BUFFER_HIT:     164026  ROW_BUFFER_MISS:    1609732
 DBUS_CONGESTED:         56
 WQ ROW_BUFFER_HIT:     652403  ROW_BUFFER_MISS:    1106314  FULL:          0

 AVG_CONGESTED_CYCLE: 7
 All warmup complete: 2
Channel 0 Bank busy for read cycles: 0
Channel 0 Bank busy for write cycles: 0
Channel 0
Rank 0
0banks busy for read cycles: 275537
0banks busy for write cycles: 6
1banks busy for read cycles: 85985837
1banks busy for write cycles: 274355
2banks busy for read cycles: 61302286
2banks busy for write cycles: 274881
3banks busy for read cycles: 11467860
3banks busy for write cycles: 275175
4banks busy for read cycles: 1667428
4banks busy for write cycles: 277473
5banks busy for read cycles: 3009
5banks busy for write cycles: 288341
6banks busy for read cycles: 2495
6banks busy for write cycles: 379389
7banks busy for read cycles: 239
7banks busy for write cycles: 2622001
8banks busy for read cycles: 0
8banks busy for write cycles: 35333771

CPU 0 Branch Prediction Accuracy: 99.9751% MPKI: 0.00438 Average ROB Occupancy at Mispredict: 58.1313
Branch types
NOT_BRANCH: 196487432 98.2437%
BRANCH_DIRECT_JUMP: 876 0.000438%
BRANCH_INDIRECT: 0 0%
BRANCH_CONDITIONAL: 3509611 1.75481%
BRANCH_DIRECT_CALL: 876 0.000438%
BRANCH_INDIRECT_CALL: 0 0%
BRANCH_RETURN: 876 0.000438%
BRANCH_OTHER: 0 0%

DRAM PAGES: 1048576
Allocated PAGES: 34487
