
*** ChampSim Multicore Out-of-Order Simulator ***

Warmup Instructions: 50000000
Simulation Instructions: 200000000
Number of CPUs: 1
LLC sets: 2048
LLC ways: 16
L0D sets: 16
L0D ways: 2
ROB size: 352
LQ size: 128
SQ size: 72
Secure Berti: OFF
Berti: OFF
Berti Fill: OFF
On commit prefetching: ON
Hit-based filter: OFF
Time-guarding: ON
Free-slotting: ON
Leap-frogging: ON
Train prefetcher on L0D bypass: OFF
No translation penalty for prefetchers: OFF
Prefetch to L0D only: OFF
Prefetch to L1D only: OFF
Clean evictions: ON
Commit loads: ON
Commit write: ON
Fill commit loads to L2C, LLC: ON
DRAM IO FREQUENCY: 6400
ROB SIZE: 352
Off-chip DRAM Size: 4096 MB Channels: 1 Width: 64-bit Data Rate: 6400 MT/s
CPU 0 runs /home/sumon/secure_berti/GhostMinion/../../traces/spec/654.roms_s-1613B.champsimtrace.xz
.xz
BTB has LRU replacement policy
ITLB has LRU replacement policy
DTLB has LRU replacement policy
STLB has LRU replacement policy
L1I has LRU replacement policy
L0D has LRU replacement policy
CPU 0 L1D IP-based stride prefetcher
CPU 0 L1D IP-based stride prefetcher
L1D has LRU replacement policy
L2C has LRU replacement policy
LLC has LRU replacement policy
Heartbeat CPU 0 instructions: 10000001 cycles: 4746478 heartbeat IPC: 2.10683 cumulative IPC: 2.10683 (Simulation time: 0 hr 0 min 52 sec) 
Heartbeat CPU 0 instructions: 20000003 cycles: 9493094 heartbeat IPC: 2.10676 cumulative IPC: 2.1068 (Simulation time: 0 hr 1 min 52 sec) 
Heartbeat CPU 0 instructions: 30000000 cycles: 14239741 heartbeat IPC: 2.10675 cumulative IPC: 2.10678 (Simulation time: 0 hr 2 min 31 sec) 
Heartbeat CPU 0 instructions: 40000002 cycles: 18985330 heartbeat IPC: 2.10722 cumulative IPC: 2.10689 (Simulation time: 0 hr 3 min 10 sec) 
Heartbeat CPU 0 instructions: 50000003 cycles: 25234438 heartbeat IPC: 1.60023 cumulative IPC: 1.98142 (Simulation time: 0 hr 4 min 5 sec) 

Warmup complete CPU 0 instructions: 50000003 cycles: 25234438 (Simulation time: 0 hr 4 min 5 sec) 

Heartbeat CPU 0 instructions: 60000001 cycles: 40873528 heartbeat IPC: 0.639423 cumulative IPC: 0.639423 (Simulation time: 0 hr 5 min 11 sec) 
Heartbeat CPU 0 instructions: 70000003 cycles: 56503446 heartbeat IPC: 0.639799 cumulative IPC: 0.639611 (Simulation time: 0 hr 6 min 16 sec) 
Heartbeat CPU 0 instructions: 80000000 cycles: 72124013 heartbeat IPC: 0.640181 cumulative IPC: 0.639801 (Simulation time: 0 hr 7 min 19 sec) 
Heartbeat CPU 0 instructions: 90000001 cycles: 87738193 heartbeat IPC: 0.640444 cumulative IPC: 0.639962 (Simulation time: 0 hr 8 min 21 sec) 
Heartbeat CPU 0 instructions: 100000000 cycles: 103355699 heartbeat IPC: 0.640307 cumulative IPC: 0.640031 (Simulation time: 0 hr 9 min 23 sec) 
Heartbeat CPU 0 instructions: 110000000 cycles: 118973543 heartbeat IPC: 0.640293 cumulative IPC: 0.640074 (Simulation time: 0 hr 10 min 25 sec) 
Heartbeat CPU 0 instructions: 120000001 cycles: 146993913 heartbeat IPC: 0.356883 cumulative IPC: 0.574904 (Simulation time: 0 hr 11 min 21 sec) 
Heartbeat CPU 0 instructions: 130000000 cycles: 162603497 heartbeat IPC: 0.640632 cumulative IPC: 0.582373 (Simulation time: 0 hr 12 min 2 sec) 
Heartbeat CPU 0 instructions: 140000003 cycles: 178220171 heartbeat IPC: 0.640341 cumulative IPC: 0.58829 (Simulation time: 0 hr 12 min 43 sec) 
Heartbeat CPU 0 instructions: 150000001 cycles: 193836402 heartbeat IPC: 0.640359 cumulative IPC: 0.593113 (Simulation time: 0 hr 13 min 23 sec) 
Heartbeat CPU 0 instructions: 160000001 cycles: 209450472 heartbeat IPC: 0.640448 cumulative IPC: 0.597125 (Simulation time: 0 hr 14 min 3 sec) 
Heartbeat CPU 0 instructions: 170000002 cycles: 225065585 heartbeat IPC: 0.640405 cumulative IPC: 0.600507 (Simulation time: 0 hr 14 min 44 sec) 
Heartbeat CPU 0 instructions: 180000000 cycles: 240681121 heartbeat IPC: 0.640388 cumulative IPC: 0.603398 (Simulation time: 0 hr 15 min 24 sec) 
Heartbeat CPU 0 instructions: 190000000 cycles: 256297307 heartbeat IPC: 0.640361 cumulative IPC: 0.605896 (Simulation time: 0 hr 16 min 3 sec) 
Heartbeat CPU 0 instructions: 200000003 cycles: 285244815 heartbeat IPC: 0.345453 cumulative IPC: 0.5769 (Simulation time: 0 hr 17 min 3 sec) 
Heartbeat CPU 0 instructions: 210000001 cycles: 300863670 heartbeat IPC: 0.640252 cumulative IPC: 0.58049 (Simulation time: 0 hr 18 min 5 sec) 
Heartbeat CPU 0 instructions: 220000000 cycles: 316480683 heartbeat IPC: 0.640327 cumulative IPC: 0.583699 (Simulation time: 0 hr 19 min 6 sec) 
Heartbeat CPU 0 instructions: 230000003 cycles: 332097386 heartbeat IPC: 0.64034 cumulative IPC: 0.586581 (Simulation time: 0 hr 20 min 7 sec) 
Heartbeat CPU 0 instructions: 240000003 cycles: 347710521 heartbeat IPC: 0.640486 cumulative IPC: 0.589191 (Simulation time: 0 hr 21 min 8 sec) 
Heartbeat CPU 0 instructions: 250000000 cycles: 363326760 heartbeat IPC: 0.640359 cumulative IPC: 0.591554 (Simulation time: 0 hr 22 min 8 sec) 
Finished CPU 0 instructions: 200000000 cycles: 338092352 cumulative IPC: 0.591554 (Simulation time: 0 hr 22 min 8 sec) 
 Instruction ID: 250000065

ChampSim completed all CPUs

Region of Interest Statistics

CPU 0 cumulative IPC: 0.591554 instructions: 200000000 cycles: 338092352
ITLB SPEC fills:          0  NON-SPEC fills:          0
ITLB Test counter :          0
ITLB Leapfrog:          0
ITLB MSHR merge:          0
ITLB TOTAL     ACCESS:   30478820  HIT:   30478812  MISS:          8  HIT %:        100  MISS %: 2.62477e-05   MPKI: 4e-05
ITLB LOAD TRANSLATION NON_SPEC    ACCESS:   30478820  HIT:   30478812  MISS:          8  HIT %:        100  MISS %: 2.62477e-05   MPKI: 4e-05
ITLB PREFETCH  REQUESTED:          0  ISSUED:          0  USEFUL:          0  USELESS:          0
ITLB USEFUL LOAD PREFETCHES:          0 PREFETCH ISSUED TO LOWER LEVEL:          0  ACCURACY: -nan
ITLB TIMELY PREFETCHES:          0 LATE PREFETCHES: 0 DROPPED PREFETCHES: 0
ITLB COMMIT LATE PREFETCHES: 0 NORMAL LATE: 0 MISSED OPPORTUNITY: 0 UNCOVERED: 0
ITLB PREFETCHES SAME FILL-ORIGIN LEVEL: 0 DIFFERENT FILL-ORIGIN LEVEL: 0
ITLB AVERAGE MISS LATENCY: 386.875 cycles
ITLB AVERAGE MISS LATENCY LOAD: -nan cycles
ITLB AVERAGE MISS LATENCY PREFETCH: -nan cycles
ITLB AVERAGE MSHR OCCUPANCY: 0
ITLB MSHR FULL: 0
ITLB RQ	ACCESS:   39739548	FORWARD:          0	MERGED:    9260728	TO_CACHE:   30478820

DTLB SPEC fills:          0  NON-SPEC fills:          0
DTLB Test counter :          0
DTLB Leapfrog:          0
DTLB MSHR merge:          0
DTLB TOTAL     ACCESS:   44270560  HIT:   44258364  MISS:      12196  HIT %:    99.9725  MISS %:  0.0275488   MPKI: 0.06098
DTLB LOAD TRANSLATION NON_SPEC    ACCESS:   44270560  HIT:   44258364  MISS:      12196  HIT %:    99.9725  MISS %:  0.0275488   MPKI: 0.06098
DTLB PREFETCH  REQUESTED:          0  ISSUED:          0  USEFUL:          0  USELESS:          0
DTLB USEFUL LOAD PREFETCHES:          0 PREFETCH ISSUED TO LOWER LEVEL:          0  ACCURACY: -nan
DTLB TIMELY PREFETCHES:          0 LATE PREFETCHES: 0 DROPPED PREFETCHES: 0
DTLB COMMIT LATE PREFETCHES: 0 NORMAL LATE: 0 MISSED OPPORTUNITY: 0 UNCOVERED: 0
DTLB PREFETCHES SAME FILL-ORIGIN LEVEL: 0 DIFFERENT FILL-ORIGIN LEVEL: 0
DTLB AVERAGE MISS LATENCY: 145.004 cycles
DTLB AVERAGE MISS LATENCY LOAD: -nan cycles
DTLB AVERAGE MISS LATENCY PREFETCH: -nan cycles
DTLB AVERAGE MSHR OCCUPANCY: 0.00190283
DTLB MSHR FULL: 0
DTLB RQ	ACCESS:   53475693	FORWARD:          0	MERGED:    9187334	TO_CACHE:   44288359

STLB SPEC fills:          0  NON-SPEC fills:          0
STLB Test counter :          0
STLB Leapfrog:          0
STLB MSHR merge:          0
STLB TOTAL     ACCESS:     938172  HIT:     926816  MISS:      11356  HIT %:    98.7896  MISS %:    1.21044   MPKI: 0.05678
STLB LOAD TRANSLATION NON_SPEC    ACCESS:      12204  HIT:        848  MISS:      11356  HIT %:    6.94854  MISS %:    93.0515   MPKI: 0.05678
STLB TRANSLATION FROM L1D PREFETCHER NON_SPEC    ACCESS:     925968  HIT:     925968  MISS:          0  HIT %:        100  MISS %:          0   MPKI: 0
STLB PREFETCH  REQUESTED:          0  ISSUED:          0  USEFUL:          0  USELESS:          0
STLB USEFUL LOAD PREFETCHES:          0 PREFETCH ISSUED TO LOWER LEVEL:          0  ACCURACY: -nan
STLB TIMELY PREFETCHES:          0 LATE PREFETCHES: 0 DROPPED PREFETCHES: 0
STLB COMMIT LATE PREFETCHES: 0 NORMAL LATE: 0 MISSED OPPORTUNITY: 0 UNCOVERED: 0
STLB PREFETCHES SAME FILL-ORIGIN LEVEL: 0 DIFFERENT FILL-ORIGIN LEVEL: 0
STLB AVERAGE MISS LATENCY: 146.515 cycles
STLB AVERAGE MISS LATENCY LOAD: -nan cycles
STLB AVERAGE MISS LATENCY PREFETCH: -nan cycles
STLB AVERAGE MSHR OCCUPANCY: 0.00728541
STLB MSHR FULL: 0
STLB RQ	ACCESS:    2746775	FORWARD:          0	MERGED:    1807912	TO_CACHE:     938863

STLB Hit, L1D data hit: 0
STLB Hit, L2C data hit: 0
STLB Hit, LLC data hit: 0
STLB Hit, LLC data miss: 0
STLB STLB hints to L2: 0
L0D SPEC fills:   16162183  NON-SPEC fills:          0
L0D TimeGuard Request with older TS:       7014 Restricted eviction:        151 read:     867704
L0D Test counter :          0
L0D Leapfrog:          0
L0D MSHR merge:     342562
L0D TOTAL     ACCESS:   31420763  HIT:    1904779  MISS:   29515984  HIT %:    6.06217  MISS %:    93.9378   MPKI: 147.58
L0D LOAD      TOTAL       ACCESS:   31420763  HIT:    1904779  MISS:   29515984  HIT %:    6.06217  MISS %:    93.9378   MPKI: 147.58
L0D LOAD      NON_SPEC    ACCESS:   13363366  HIT:       9716  MISS:   13353650  HIT %:  0.0727062  MISS %:    99.9273   MPKI: 66.7682
L0D LOAD      SPEC        ACCESS:   18057397  HIT:    1895063  MISS:   16162334  HIT %:    10.4947  MISS %:    89.5053   MPKI: 80.8117
L0D PREFETCH  REQUESTED:          0  ISSUED:          0  USEFUL:          0  USELESS:          0
L0D USEFUL LOAD PREFETCHES:          0 PREFETCH ISSUED TO LOWER LEVEL:          0  ACCURACY: -nan
L0D TIMELY PREFETCHES:          0 LATE PREFETCHES: 0 DROPPED PREFETCHES: 0
L0D COMMIT LATE PREFETCHES: 0 NORMAL LATE: 0 MISSED OPPORTUNITY: 0 UNCOVERED: 0
L0D PREFETCHES SAME FILL-ORIGIN LEVEL: 0 DIFFERENT FILL-ORIGIN LEVEL: 0
L0D AVERAGE MISS LATENCY: 6.33535 cycles
L0D AVERAGE MISS LATENCY LOAD: 6.33535 cycles
L0D AVERAGE MISS LATENCY PREFETCH: -nan cycles
L0D AVERAGE MSHR OCCUPANCY: 0.547429
L0D MSHR FULL: 0
L0D RQ	ACCESS:   40096878	FORWARD:          0	MERGED:    8333558	TO_CACHE:   31763320
L0D WQ	ACCESS:   21712373	FORWARD:          0	MERGED:          0	TO_CACHE:   21712373

L1D SPEC fills:          0  NON-SPEC fills:      75345
L1D Test counter :          0
L1D Leapfrog:          0
L1D MSHR merge:      70655
L1D TOTAL     ACCESS:   77564554  HIT:   76906437  MISS:     658117  HIT %:    99.1515  MISS %:   0.848476   MPKI: 3.29059
L1D LOAD      TOTAL       ACCESS:   29515972  HIT:   29360026  MISS:     155946  HIT %:    99.4717  MISS %:   0.528344   MPKI: 0.77973
L1D LOAD      NON_SPEC    ACCESS:   13353649  HIT:   13278304  MISS:      75345  HIT %:    99.4358  MISS %:   0.564228   MPKI: 0.376725
L1D LOAD      SPEC        ACCESS:   16162323  HIT:   16081722  MISS:      80601  HIT %:    99.5013  MISS %:   0.498697   MPKI: 0.403005
L1D RFO       NON_SPEC    ACCESS:   19941053  HIT:   19867917  MISS:      73136  HIT %:    99.6332  MISS %:   0.366761   MPKI: 0.36568
L1D PREFETCH  NON_SPEC    ACCESS:    2418245  HIT:    2059533  MISS:     358712  HIT %:    85.1664  MISS %:    14.8336   MPKI: 1.79356
L1D COMMIT LOAD NON_SPEC    ACCESS:    9530604  HIT:    9530572  MISS:         32  HIT %:    99.9997  MISS %: 0.00033576   MPKI: 0.00016
L1D COMMIT WRITE NON_SPEC    ACCESS:   16158680  HIT:   16088389  MISS:      70291  HIT %:     99.565  MISS %:   0.435005   MPKI: 0.351455
L1D PREFETCH  REQUESTED:    2743901  ISSUED:    2743901  USEFUL:     194607  USELESS:     164102
L1D USEFUL LOAD PREFETCHES:     194607 PREFETCH ISSUED TO LOWER LEVEL:     452657  ACCURACY: 42.9922
L1D TIMELY PREFETCHES:     194607 LATE PREFETCHES: 70647 DROPPED PREFETCHES: 0
L1D COMMIT LATE PREFETCHES: 42462 NORMAL LATE: 31534 MISSED OPPORTUNITY: 0 UNCOVERED: 81958
L1D PREFETCHES SAME FILL-ORIGIN LEVEL: 433579 DIFFERENT FILL-ORIGIN LEVEL: 19078
L1D AVERAGE MISS LATENCY: 210.418 cycles
L1D AVERAGE MISS LATENCY LOAD: 227.427 cycles
L1D AVERAGE MISS LATENCY PREFETCH: 244.481 cycles
L1D AVERAGE MSHR OCCUPANCY: 0.249354
L1D MSHR FULL: 3.58546e-07
L1D RQ	ACCESS:   40089048	FORWARD:          0	MERGED:     923657	TO_CACHE:   39046594
L1D WQ	ACCESS:   37872721	FORWARD:     118797	MERGED:    1415273	TO_CACHE:   36457448
L1D PQ	ACCESS:    2743901	FORWARD:          0	MERGED:       9330	TO_CACHE:    2734571

L1D UNIQUE REGIONS ACCESSED: 0
L1D REGIONS CONFLICTS: 0
L1D Cross Page Prefetch Requests: 0
L1D Same Page Prefetch Requests: 3558319
L1D ROI Sum of L1D PQ occupancy: 41631733
L1D PREFETCHES PUSHED FROM L2C: 0
L1I SPEC fills:          0  NON-SPEC fills:          0
L1I Test counter :          0
L1I Leapfrog:          0
L1I MSHR merge:         16
L1I TOTAL     ACCESS:   39739530  HIT:   39739424  MISS:        106  HIT %:    99.9997  MISS %: 0.000266737   MPKI: 0.00053
L1I LOAD      TOTAL       ACCESS:   39739530  HIT:   39739424  MISS:        106  HIT %:    99.9997  MISS %: 0.000266737   MPKI: 0.00053
L1I LOAD      NON_SPEC    ACCESS:   39739530  HIT:   39739424  MISS:        106  HIT %:    99.9997  MISS %: 0.000266737   MPKI: 0.00053
L1I PREFETCH  REQUESTED:          0  ISSUED:          0  USEFUL:          0  USELESS:          0
L1I USEFUL LOAD PREFETCHES:          0 PREFETCH ISSUED TO LOWER LEVEL:          0  ACCURACY: -nan
L1I TIMELY PREFETCHES:          0 LATE PREFETCHES: 0 DROPPED PREFETCHES: 0
L1I COMMIT LATE PREFETCHES: 0 NORMAL LATE: 0 MISSED OPPORTUNITY: 0 UNCOVERED: 0
L1I PREFETCHES SAME FILL-ORIGIN LEVEL: 0 DIFFERENT FILL-ORIGIN LEVEL: 0
L1I AVERAGE MISS LATENCY: 204.434 cycles
L1I AVERAGE MISS LATENCY LOAD: 204.434 cycles
L1I AVERAGE MISS LATENCY PREFETCH: -nan cycles
L1I AVERAGE MSHR OCCUPANCY: 1.53499e-06
L1I MSHR FULL: 0
L1I RQ	ACCESS:   57899043	FORWARD:          0	MERGED:   18159495	TO_CACHE:   39739548

BTB SPEC fills:          0  NON-SPEC fills:          0
BTB Test counter :          0
BTB Leapfrog:          0
BTB MSHR merge:          0
BTB TOTAL     ACCESS:   13350901  HIT:   11926181  MISS:    1424720  HIT %:    89.3287  MISS %:    10.6713   MPKI: 7.1236
BTB BRANCH_DIRECT_JUMP	ACCESS:    1424895  HIT:    1424857  MISS:         38
BTB BRANCH_INDIRECT	ACCESS:         16  HIT:         15  MISS:          1
BTB BRANCH_CONDITIONAL	ACCESS:    6226070  HIT:    6225943  MISS:        127
BTB BRANCH_DIRECT_CALL	ACCESS:    2849960  HIT:    2849915  MISS:         45
BTB BRANCH_INDIRECT_CALL	ACCESS:          0  HIT:          0  MISS:          0
BTB BRANCH_RETURN	ACCESS:    2849960  HIT:    1425451  MISS:    1424509
BTB BRANCH_OTHER ACCESS:          0  HIT:          0  MISS:          0

L2C SPEC fills:          0  NON-SPEC fills:      69675
L2C Test counter :          0
L2C Leapfrog:          0
L2C MSHR merge:        233
L2C TOTAL     ACCESS:    1131790  HIT:     544841  MISS:     586949  HIT %:    48.1398  MISS %:    51.8602   MPKI: 2.93474
L2C LOAD      TOTAL       ACCESS:      85408  HIT:        185  MISS:      85223  HIT %:   0.216607  MISS %:    99.7834   MPKI: 0.426115
L2C LOAD      NON_SPEC    ACCESS:      69782  HIT:          1  MISS:      69781  HIT %: 0.00143303  MISS %:    99.9986   MPKI: 0.348905
L2C LOAD      SPEC        ACCESS:      15626  HIT:        184  MISS:      15442  HIT %:    1.17752  MISS %:    98.8225   MPKI: 0.07721
L2C RFO       NON_SPEC    ACCESS:      68916  HIT:         33  MISS:      68883  HIT %:  0.0478844  MISS %:    99.9521   MPKI: 0.344415
L2C PREFETCH  NON_SPEC    ACCESS:     440950  HIT:      24056  MISS:     416894  HIT %:    5.45549  MISS %:    94.5445   MPKI: 2.08447
L2C WRITEBACK NON_SPEC    ACCESS:     223130  HIT:     222729  MISS:        401  HIT %:    99.8203  MISS %:   0.179716   MPKI: 0.002005
L2C CLEAN_EVICTION NON_SPEC    ACCESS:     256588  HIT:     243201  MISS:      13387  HIT %:    94.7827  MISS %:    5.21731   MPKI: 0.066935
L2C COMMIT LOAD NON_SPEC    ACCESS:         29  HIT:          5  MISS:         24  HIT %:    17.2414  MISS %:    82.7586   MPKI: 0.00012
L2C LOAD TRANSLATION NON_SPEC    ACCESS:      56769  HIT:      54632  MISS:       2137  HIT %:    96.2356  MISS %:    3.76438   MPKI: 0.010685
L2C PREFETCH  REQUESTED:          0  ISSUED:          0  USEFUL:        216  USELESS:     416622
L2C USEFUL LOAD PREFETCHES:        216 PREFETCH ISSUED TO LOWER LEVEL:     417164  ACCURACY: 0.0517782
L2C TIMELY PREFETCHES:        216 LATE PREFETCHES: 270 DROPPED PREFETCHES: 0
L2C COMMIT LATE PREFETCHES: 0 NORMAL LATE: 270 MISSED OPPORTUNITY: 0 UNCOVERED: 84990
L2C PREFETCHES SAME FILL-ORIGIN LEVEL: 16960 DIFFERENT FILL-ORIGIN LEVEL: 0
L2C AVERAGE MISS LATENCY: 248.329 cycles
L2C AVERAGE MISS LATENCY LOAD: 206.831 cycles
L2C AVERAGE MISS LATENCY PREFETCH: 271.641 cycles
L2C AVERAGE MSHR OCCUPANCY: 1.10625
L2C MSHR FULL: 0
L2C RQ	ACCESS:     211122	FORWARD:          0	MERGED:          0	TO_CACHE:     211122
L2C WQ	ACCESS:     479743	FORWARD:          0	MERGED:         25	TO_CACHE:     479718
L2C PQ	ACCESS:     452657	FORWARD:          0	MERGED:          0	TO_CACHE:     452657

L2C Instructions Evicting Data 106
L2C Translations Evicting Data 2128
L2C Data Evicting Data 553262
L2C Instructions Evicting Instructions 0
L2C Translations Evicting Instructions 0
L2C Data Evicting Instructions 143
L2C Instructions Evicting Translations 0
L2C Translations Evicting Translations 9
L2C Data Evicting Translations 2071
L2C Dense regions hint from L2: 0
PSCL5 SPEC fills:          0  NON-SPEC fills:          0
PSCL5 Test counter :          0
PSCL5 Leapfrog:          0
PSCL5 MSHR merge:          0
PSCL5 TOTAL     ACCESS:          0  HIT:          0  MISS:          0  HIT %:       -nan  MISS %:       -nan   MPKI: 0
PSCL5 PREFETCH  REQUESTED:          0  ISSUED:          0  USEFUL:          0  USELESS:          0
PSCL5 USEFUL LOAD PREFETCHES:          0 PREFETCH ISSUED TO LOWER LEVEL:          0  ACCURACY: -nan
PSCL5 TIMELY PREFETCHES:          0 LATE PREFETCHES: 0 DROPPED PREFETCHES: 0
PSCL5 COMMIT LATE PREFETCHES: 0 NORMAL LATE: 0 MISSED OPPORTUNITY: 0 UNCOVERED: 0
PSCL5 PREFETCHES SAME FILL-ORIGIN LEVEL: 0 DIFFERENT FILL-ORIGIN LEVEL: 0

PSCL4 SPEC fills:          0  NON-SPEC fills:          0
PSCL4 Test counter :          0
PSCL4 Leapfrog:          0
PSCL4 MSHR merge:          0
PSCL4 TOTAL     ACCESS:          0  HIT:          0  MISS:          0  HIT %:       -nan  MISS %:       -nan   MPKI: 0
PSCL4 PREFETCH  REQUESTED:          0  ISSUED:          0  USEFUL:          0  USELESS:          0
PSCL4 USEFUL LOAD PREFETCHES:          0 PREFETCH ISSUED TO LOWER LEVEL:          0  ACCURACY: -nan
PSCL4 TIMELY PREFETCHES:          0 LATE PREFETCHES: 0 DROPPED PREFETCHES: 0
PSCL4 COMMIT LATE PREFETCHES: 0 NORMAL LATE: 0 MISSED OPPORTUNITY: 0 UNCOVERED: 0
PSCL4 PREFETCHES SAME FILL-ORIGIN LEVEL: 0 DIFFERENT FILL-ORIGIN LEVEL: 0

PSCL3 SPEC fills:          0  NON-SPEC fills:          0
PSCL3 Test counter :          0
PSCL3 Leapfrog:          0
PSCL3 MSHR merge:          0
PSCL3 TOTAL     ACCESS:          0  HIT:          0  MISS:          0  HIT %:       -nan  MISS %:       -nan   MPKI: 0
PSCL3 PREFETCH  REQUESTED:          0  ISSUED:          0  USEFUL:          0  USELESS:          0
PSCL3 USEFUL LOAD PREFETCHES:          0 PREFETCH ISSUED TO LOWER LEVEL:          0  ACCURACY: -nan
PSCL3 TIMELY PREFETCHES:          0 LATE PREFETCHES: 0 DROPPED PREFETCHES: 0
PSCL3 COMMIT LATE PREFETCHES: 0 NORMAL LATE: 0 MISSED OPPORTUNITY: 0 UNCOVERED: 0
PSCL3 PREFETCHES SAME FILL-ORIGIN LEVEL: 0 DIFFERENT FILL-ORIGIN LEVEL: 0

PSCL2 SPEC fills:          0  NON-SPEC fills:          0
PSCL2 Test counter :          0
PSCL2 Leapfrog:          0
PSCL2 MSHR merge:          0
PSCL2 TOTAL     ACCESS:          0  HIT:          0  MISS:          0  HIT %:       -nan  MISS %:       -nan   MPKI: 0
PSCL2 PREFETCH  REQUESTED:          0  ISSUED:          0  USEFUL:          0  USELESS:          0
PSCL2 USEFUL LOAD PREFETCHES:          0 PREFETCH ISSUED TO LOWER LEVEL:          0  ACCURACY: -nan
PSCL2 TIMELY PREFETCHES:          0 LATE PREFETCHES: 0 DROPPED PREFETCHES: 0
PSCL2 COMMIT LATE PREFETCHES: 0 NORMAL LATE: 0 MISSED OPPORTUNITY: 0 UNCOVERED: 0
PSCL2 PREFETCHES SAME FILL-ORIGIN LEVEL: 0 DIFFERENT FILL-ORIGIN LEVEL: 0

LLC SPEC fills:          0  NON-SPEC fills:      69675
LLC Test counter :          0
LLC Leapfrog:          0
LLC MSHR merge:          0
LLC TOTAL     ACCESS:    1052087  HIT:     465347  MISS:     586740  HIT %:    44.2308  MISS %:    55.7692   MPKI: 2.9337
LLC LOAD      TOTAL       ACCESS:      84990  HIT:          0  MISS:      84990  HIT %:          0  MISS %:        100   MPKI: 0.42495
LLC LOAD      NON_SPEC    ACCESS:      69781  HIT:          0  MISS:      69781  HIT %:          0  MISS %:        100   MPKI: 0.348905
LLC LOAD      SPEC        ACCESS:      15209  HIT:          0  MISS:      15209  HIT %:          0  MISS %:        100   MPKI: 0.076045
LLC RFO       NON_SPEC    ACCESS:      68846  HIT:          1  MISS:      68845  HIT %: 0.00145252  MISS %:    99.9985   MPKI: 0.344225
LLC PREFETCH  NON_SPEC    ACCESS:     417164  HIT:         43  MISS:     417121  HIT %:  0.0103077  MISS %:    99.9897   MPKI: 2.08561
LLC WRITEBACK NON_SPEC    ACCESS:     222748  HIT:     222347  MISS:        401  HIT %:      99.82  MISS %:   0.180024   MPKI: 0.002005
LLC CLEAN_EVICTION NON_SPEC    ACCESS:     256178  HIT:     242951  MISS:      13227  HIT %:    94.8368  MISS %:    5.16321   MPKI: 0.066135
LLC COMMIT LOAD NON_SPEC    ACCESS:         24  HIT:          0  MISS:         24  HIT %:          0  MISS %:        100   MPKI: 0.00012
LLC LOAD TRANSLATION NON_SPEC    ACCESS:       2137  HIT:          5  MISS:       2132  HIT %:   0.233973  MISS %:     99.766   MPKI: 0.01066
LLC PREFETCH  REQUESTED:          0  ISSUED:          0  USEFUL:          0  USELESS:     416693
LLC USEFUL LOAD PREFETCHES:          0 PREFETCH ISSUED TO LOWER LEVEL:     417121  ACCURACY: 0
LLC TIMELY PREFETCHES:          0 LATE PREFETCHES: 0 DROPPED PREFETCHES: 0
LLC COMMIT LATE PREFETCHES: 0 NORMAL LATE: 0 MISSED OPPORTUNITY: 0 UNCOVERED: 0
LLC PREFETCHES SAME FILL-ORIGIN LEVEL: 0 DIFFERENT FILL-ORIGIN LEVEL: 0
LLC AVERAGE MISS LATENCY: 219.38 cycles
LLC AVERAGE MISS LATENCY LOAD: 178.336 cycles
LLC AVERAGE MISS LATENCY PREFETCH: 241.727 cycles
LLC AVERAGE MSHR OCCUPANCY: 0.758809
LLC MSHR FULL: 0
LLC RQ	ACCESS:     155997	FORWARD:          0	MERGED:          0	TO_CACHE:     155997
LLC WQ	ACCESS:     478926	FORWARD:          0	MERGED:          0	TO_CACHE:     478926
LLC PQ	ACCESS:     417164	FORWARD:          0	MERGED:          0	TO_CACHE:     417164

LLC Dense regions hint to LLC: 0

RAW hits: 5673469
Loads Generated: 45770347
Loads sent to L1D: 40096878
Stores Generated: 21712374
Stores sent to L1D: 21712373
Major fault: 0 Minor fault: 7557
Allocated PAGES: 7557
Total Load insts: 49375575
Total Non-spec loads: 15192595
Percentage of speculative loads: 69.2305

LeapFrogging counter: 0
Commit hits: 16160347 miss: 10573068
Commit hit %: 60.45 miss %: 39.55
Commits not translated: 0
Loads retired: 155946
Stores retired: 21712373
Cache fills: 155946
L1D response latency: 227.427 cycles
Load retirement latency: 265.896 cycles
OOO test counter: 0
Discarded buffer inserts: 16160347 hits: 522 hit %: 0.00323013
Filter prediction accuracy: -nan
Speculative prefetch buffer size: 0
CPU 0 L1D PC-based stride prefetcher final stats
Degree: 3
CPU 0 L1D PC-based stride prefetcher final stats
Degree: 3

DRAM Statistics
 CHANNEL 0
 RQ ROW_BUFFER_HIT:      18372  ROW_BUFFER_MISS:     554740
 DBUS_CONGESTED:         17
 WQ ROW_BUFFER_HIT:     150823  ROW_BUFFER_MISS:     327585  FULL:          0

 AVG_CONGESTED_CYCLE: 5
 All warmup complete: 2
Channel 0 Bank busy for read cycles: 0
Channel 0 Bank busy for write cycles: 0
Channel 0
Rank 0
0banks busy for read cycles: 242847454
0banks busy for write cycles: 171027
1banks busy for read cycles: 41207936
1banks busy for write cycles: 28424033
2banks busy for read cycles: 6437172
2banks busy for write cycles: 1984812
3banks busy for read cycles: 1848314
3banks busy for write cycles: 905636
4banks busy for read cycles: 1024628
4banks busy for write cycles: 1785820
5banks busy for read cycles: 822220
5banks busy for write cycles: 1026663
6banks busy for read cycles: 1363433
6banks busy for write cycles: 309531
7banks busy for read cycles: 445981
7banks busy for write cycles: 459532
8banks busy for read cycles: 1024996
8banks busy for write cycles: 6003165

CPU 0 Branch Prediction Accuracy: 99.9797% MPKI: 0.020805 Average ROB Occupancy at Mispredict: 87.9503
Branch types
NOT_BRANCH: 179514591 89.7573%
BRANCH_DIRECT_JUMP: 1424895 0.712448%
BRANCH_INDIRECT: 16 8e-06%
BRANCH_CONDITIONAL: 13360262 6.68013%
BRANCH_DIRECT_CALL: 2849960 1.42498%
BRANCH_INDIRECT_CALL: 0 0%
BRANCH_RETURN: 2849960 1.42498%
BRANCH_OTHER: 0 0%

DRAM PAGES: 1048576
Allocated PAGES: 7557
