
*** ChampSim Multicore Out-of-Order Simulator ***

Warmup Instructions: 50000000
Simulation Instructions: 200000000
Number of CPUs: 1
LLC sets: 2048
LLC ways: 16
L0D sets: 16
L0D ways: 2
ROB size: 352
LQ size: 128
SQ size: 72
Secure Berti: OFF
Berti: OFF
Berti Fill: OFF
On commit prefetching: ON
Hit-based filter: OFF
Time-guarding: ON
Free-slotting: ON
Leap-frogging: ON
Train prefetcher on L0D bypass: OFF
No translation penalty for prefetchers: OFF
Prefetch to L0D only: OFF
Prefetch to L1D only: OFF
Clean evictions: ON
Commit loads: ON
Commit write: ON
Fill commit loads to L2C, LLC: ON
DRAM IO FREQUENCY: 6400
ROB SIZE: 352
Off-chip DRAM Size: 4096 MB Channels: 1 Width: 64-bit Data Rate: 6400 MT/s
CPU 0 runs /home/sumon/secure_berti/GhostMinion/../../traces/spec/654.roms_s-294B.champsimtrace.xz
.xz
BTB has LRU replacement policy
ITLB has LRU replacement policy
DTLB has LRU replacement policy
STLB has LRU replacement policy
L1I has LRU replacement policy
L0D has LRU replacement policy
CPU 0 L1D IP-based stride prefetcher
CPU 0 L1D IP-based stride prefetcher
L1D has LRU replacement policy
L2C has LRU replacement policy
LLC has LRU replacement policy
Heartbeat CPU 0 instructions: 10000001 cycles: 3445284 heartbeat IPC: 2.90252 cumulative IPC: 2.90252 (Simulation time: 0 hr 1 min 13 sec) 
Heartbeat CPU 0 instructions: 20000000 cycles: 6890203 heartbeat IPC: 2.90283 cumulative IPC: 2.90267 (Simulation time: 0 hr 2 min 28 sec) 
Heartbeat CPU 0 instructions: 30000003 cycles: 10335331 heartbeat IPC: 2.90265 cumulative IPC: 2.90266 (Simulation time: 0 hr 3 min 49 sec) 
Heartbeat CPU 0 instructions: 40000001 cycles: 13779813 heartbeat IPC: 2.90319 cumulative IPC: 2.9028 (Simulation time: 0 hr 5 min 12 sec) 
Heartbeat CPU 0 instructions: 50000002 cycles: 17224355 heartbeat IPC: 2.90314 cumulative IPC: 2.90287 (Simulation time: 0 hr 6 min 36 sec) 

Warmup complete CPU 0 instructions: 50000002 cycles: 17224355 (Simulation time: 0 hr 6 min 36 sec) 

Heartbeat CPU 0 instructions: 60000002 cycles: 27131930 heartbeat IPC: 1.00933 cumulative IPC: 1.00933 (Simulation time: 0 hr 8 min 11 sec) 
Heartbeat CPU 0 instructions: 70000001 cycles: 37044920 heartbeat IPC: 1.00878 cumulative IPC: 1.00905 (Simulation time: 0 hr 9 min 44 sec) 
Heartbeat CPU 0 instructions: 80000001 cycles: 46968107 heartbeat IPC: 1.00774 cumulative IPC: 1.00862 (Simulation time: 0 hr 11 min 15 sec) 
Heartbeat CPU 0 instructions: 90000002 cycles: 56894319 heartbeat IPC: 1.00743 cumulative IPC: 1.00832 (Simulation time: 0 hr 12 min 46 sec) 
Heartbeat CPU 0 instructions: 100000001 cycles: 66804464 heartbeat IPC: 1.00907 cumulative IPC: 1.00847 (Simulation time: 0 hr 14 min 19 sec) 
Heartbeat CPU 0 instructions: 110000000 cycles: 76748370 heartbeat IPC: 1.00564 cumulative IPC: 1.008 (Simulation time: 0 hr 15 min 52 sec) 
Heartbeat CPU 0 instructions: 120000002 cycles: 86666088 heartbeat IPC: 1.0083 cumulative IPC: 1.00804 (Simulation time: 0 hr 17 min 25 sec) 
Heartbeat CPU 0 instructions: 130000001 cycles: 96583162 heartbeat IPC: 1.00836 cumulative IPC: 1.00808 (Simulation time: 0 hr 18 min 58 sec) 
Heartbeat CPU 0 instructions: 140000001 cycles: 106497652 heartbeat IPC: 1.00862 cumulative IPC: 1.00814 (Simulation time: 0 hr 20 min 31 sec) 
Heartbeat CPU 0 instructions: 150000000 cycles: 116420137 heartbeat IPC: 1.00781 cumulative IPC: 1.00811 (Simulation time: 0 hr 22 min 3 sec) 
Heartbeat CPU 0 instructions: 160000003 cycles: 126332621 heartbeat IPC: 1.00883 cumulative IPC: 1.00817 (Simulation time: 0 hr 23 min 34 sec) 
Heartbeat CPU 0 instructions: 170000000 cycles: 136244389 heartbeat IPC: 1.0089 cumulative IPC: 1.00823 (Simulation time: 0 hr 25 min 5 sec) 
Heartbeat CPU 0 instructions: 180000000 cycles: 146149431 heartbeat IPC: 1.00959 cumulative IPC: 1.00834 (Simulation time: 0 hr 26 min 35 sec) 
Heartbeat CPU 0 instructions: 190000002 cycles: 156074006 heartbeat IPC: 1.0076 cumulative IPC: 1.00828 (Simulation time: 0 hr 28 min 3 sec) 
Heartbeat CPU 0 instructions: 200000002 cycles: 165998062 heartbeat IPC: 1.00765 cumulative IPC: 1.00824 (Simulation time: 0 hr 28 min 55 sec) 
Heartbeat CPU 0 instructions: 210000002 cycles: 175926280 heartbeat IPC: 1.00723 cumulative IPC: 1.00818 (Simulation time: 0 hr 29 min 45 sec) 
Heartbeat CPU 0 instructions: 220000000 cycles: 185856801 heartbeat IPC: 1.007 cumulative IPC: 1.00811 (Simulation time: 0 hr 30 min 33 sec) 
Heartbeat CPU 0 instructions: 230000002 cycles: 195785786 heartbeat IPC: 1.00715 cumulative IPC: 1.00806 (Simulation time: 0 hr 31 min 19 sec) 
Heartbeat CPU 0 instructions: 240000002 cycles: 205704107 heartbeat IPC: 1.00824 cumulative IPC: 1.00807 (Simulation time: 0 hr 32 min 3 sec) 
Heartbeat CPU 0 instructions: 250000001 cycles: 215614755 heartbeat IPC: 1.00902 cumulative IPC: 1.00811 (Simulation time: 0 hr 32 min 44 sec) 
Finished CPU 0 instructions: 200000003 cycles: 198390401 cumulative IPC: 1.00811 (Simulation time: 0 hr 32 min 44 sec) 
 Instruction ID: 250000056

ChampSim completed all CPUs

Region of Interest Statistics

CPU 0 cumulative IPC: 1.00811 instructions: 200000003 cycles: 198390401
ITLB SPEC fills:          0  NON-SPEC fills:          0
ITLB Test counter :          0
ITLB Leapfrog:          0
ITLB MSHR merge:          0
ITLB TOTAL     ACCESS:   26903639  HIT:   26903639  MISS:          0  HIT %:        100  MISS %:          0   MPKI: 0
ITLB LOAD TRANSLATION NON_SPEC    ACCESS:   26903639  HIT:   26903639  MISS:          0  HIT %:        100  MISS %:          0   MPKI: 0
ITLB PREFETCH  REQUESTED:          0  ISSUED:          0  USEFUL:          0  USELESS:          0
ITLB USEFUL LOAD PREFETCHES:          0 PREFETCH ISSUED TO LOWER LEVEL:          0  ACCURACY: -nan
ITLB TIMELY PREFETCHES:          0 LATE PREFETCHES: 0 DROPPED PREFETCHES: 0
ITLB COMMIT LATE PREFETCHES: 0 NORMAL LATE: 0 MISSED OPPORTUNITY: 0 UNCOVERED: 0
ITLB PREFETCHES SAME FILL-ORIGIN LEVEL: 0 DIFFERENT FILL-ORIGIN LEVEL: 0
ITLB AVERAGE MISS LATENCY: -nan cycles
ITLB AVERAGE MISS LATENCY LOAD: -nan cycles
ITLB AVERAGE MISS LATENCY PREFETCH: -nan cycles
ITLB AVERAGE MSHR OCCUPANCY: 0
ITLB MSHR FULL: 0
ITLB RQ	ACCESS:   33529828	FORWARD:          0	MERGED:    6626190	TO_CACHE:   26903638

DTLB SPEC fills:          0  NON-SPEC fills:          0
DTLB Test counter :          0
DTLB Leapfrog:          0
DTLB MSHR merge:          0
DTLB TOTAL     ACCESS:   58450225  HIT:   58362212  MISS:      88013  HIT %:    99.8494  MISS %:   0.150578   MPKI: 0.440065
DTLB LOAD TRANSLATION NON_SPEC    ACCESS:   58450225  HIT:   58362212  MISS:      88013  HIT %:    99.8494  MISS %:   0.150578   MPKI: 0.440065
DTLB PREFETCH  REQUESTED:          0  ISSUED:          0  USEFUL:          0  USELESS:          0
DTLB USEFUL LOAD PREFETCHES:          0 PREFETCH ISSUED TO LOWER LEVEL:          0  ACCURACY: -nan
DTLB TIMELY PREFETCHES:          0 LATE PREFETCHES: 0 DROPPED PREFETCHES: 0
DTLB COMMIT LATE PREFETCHES: 0 NORMAL LATE: 0 MISSED OPPORTUNITY: 0 UNCOVERED: 0
DTLB PREFETCHES SAME FILL-ORIGIN LEVEL: 0 DIFFERENT FILL-ORIGIN LEVEL: 0
DTLB AVERAGE MISS LATENCY: 419.723 cycles
DTLB AVERAGE MISS LATENCY LOAD: -nan cycles
DTLB AVERAGE MISS LATENCY PREFETCH: -nan cycles
DTLB AVERAGE MSHR OCCUPANCY: 0.0171435
DTLB MSHR FULL: 9.06582e-07
DTLB RQ	ACCESS:   62510511	FORWARD:          0	MERGED:    4049200	TO_CACHE:   58461311

STLB SPEC fills:          0  NON-SPEC fills:          0
STLB Test counter :          0
STLB Leapfrog:          0
STLB MSHR merge:          0
STLB TOTAL     ACCESS:    4121885  HIT:    4056129  MISS:      65756  HIT %:    98.4047  MISS %:    1.59529   MPKI: 0.32878
STLB LOAD TRANSLATION NON_SPEC    ACCESS:      88013  HIT:      22257  MISS:      65756  HIT %:    25.2883  MISS %:    74.7117   MPKI: 0.32878
STLB TRANSLATION FROM L1D PREFETCHER NON_SPEC    ACCESS:    4033872  HIT:    4033872  MISS:          0  HIT %:        100  MISS %:          0   MPKI: 0
STLB PREFETCH  REQUESTED:          0  ISSUED:          0  USEFUL:          0  USELESS:          0
STLB USEFUL LOAD PREFETCHES:          0 PREFETCH ISSUED TO LOWER LEVEL:          0  ACCURACY: -nan
STLB TIMELY PREFETCHES:          0 LATE PREFETCHES: 0 DROPPED PREFETCHES: 0
STLB COMMIT LATE PREFETCHES: 0 NORMAL LATE: 0 MISSED OPPORTUNITY: 0 UNCOVERED: 0
STLB PREFETCHES SAME FILL-ORIGIN LEVEL: 0 DIFFERENT FILL-ORIGIN LEVEL: 0
STLB AVERAGE MISS LATENCY: 549.537 cycles
STLB AVERAGE MISS LATENCY LOAD: -nan cycles
STLB AVERAGE MISS LATENCY PREFETCH: -nan cycles
STLB AVERAGE MSHR OCCUPANCY: 0.0374775
STLB MSHR FULL: 0
STLB RQ	ACCESS:   11981360	FORWARD:          0	MERGED:    7859475	TO_CACHE:    4121885

STLB Hit, L1D data hit: 0
STLB Hit, L2C data hit: 0
STLB Hit, LLC data hit: 0
STLB Hit, LLC data miss: 0
STLB STLB hints to L2: 0
L0D SPEC fills:   34640338  NON-SPEC fills:          0
L0D TimeGuard Request with older TS:    1608278 Restricted eviction:    2037227 read:      61560
L0D Test counter :          0
L0D Leapfrog:          0
L0D MSHR merge:    3264798
L0D TOTAL     ACCESS:   52445024  HIT:    7631204  MISS:   44813820  HIT %:    14.5509  MISS %:    85.4491   MPKI: 224.069
L0D LOAD      TOTAL       ACCESS:   52445024  HIT:    7631204  MISS:   44813820  HIT %:    14.5509  MISS %:    85.4491   MPKI: 224.069
L0D LOAD      NON_SPEC    ACCESS:    8266710  HIT:     130455  MISS:    8136255  HIT %:    1.57808  MISS %:    98.4219   MPKI: 40.6813
L0D LOAD      SPEC        ACCESS:   44178314  HIT:    7500749  MISS:   36677565  HIT %:    16.9784  MISS %:    83.0216   MPKI: 183.388
L0D PREFETCH  REQUESTED:          0  ISSUED:          0  USEFUL:          0  USELESS:          0
L0D USEFUL LOAD PREFETCHES:          0 PREFETCH ISSUED TO LOWER LEVEL:          0  ACCURACY: -nan
L0D TIMELY PREFETCHES:          0 LATE PREFETCHES: 0 DROPPED PREFETCHES: 0
L0D COMMIT LATE PREFETCHES: 0 NORMAL LATE: 0 MISSED OPPORTUNITY: 0 UNCOVERED: 0
L0D PREFETCHES SAME FILL-ORIGIN LEVEL: 0 DIFFERENT FILL-ORIGIN LEVEL: 0
L0D AVERAGE MISS LATENCY: 5.77895 cycles
L0D AVERAGE MISS LATENCY LOAD: 5.77895 cycles
L0D AVERAGE MISS LATENCY PREFETCH: -nan cycles
L0D AVERAGE MSHR OCCUPANCY: 1.2812
L0D MSHR FULL: 3.13765e-05
L0D RQ	ACCESS:   76447372	FORWARD:          0	MERGED:   20737552	TO_CACHE:   55709820
L0D WQ	ACCESS:    6800691	FORWARD:          0	MERGED:          0	TO_CACHE:    6800691

L1D SPEC fills:          0  NON-SPEC fills:       8929
L1D Test counter :          0
L1D Leapfrog:          0
L1D MSHR merge:      12469
L1D TOTAL     ACCESS:  109896496  HIT:  106968571  MISS:    2927925  HIT %:    97.3357  MISS %:    2.66426   MPKI: 14.6396
L1D LOAD      TOTAL       ACCESS:   44809263  HIT:   44621745  MISS:     187518  HIT %:    99.5815  MISS %:    0.41848   MPKI: 0.93759
L1D LOAD      NON_SPEC    ACCESS:    8136100  HIT:    8127171  MISS:       8929  HIT %:    99.8903  MISS %:   0.109745   MPKI: 0.044645
L1D LOAD      SPEC        ACCESS:   36673163  HIT:   36494574  MISS:     178589  HIT %:     99.513  MISS %:   0.486975   MPKI: 0.892945
L1D RFO       NON_SPEC    ACCESS:    5675098  HIT:    5661681  MISS:      13417  HIT %:    99.7636  MISS %:   0.236419   MPKI: 0.067085
L1D PREFETCH  NON_SPEC    ACCESS:   11294535  HIT:    8738174  MISS:    2556361  HIT %:    77.3664  MISS %:    22.6336   MPKI: 12.7818
L1D COMMIT LOAD NON_SPEC    ACCESS:   14626596  HIT:   14618322  MISS:       8274  HIT %:    99.9434  MISS %:  0.0565682   MPKI: 0.04137
L1D COMMIT WRITE NON_SPEC    ACCESS:   33491004  HIT:   33328649  MISS:     162355  HIT %:    99.5152  MISS %:   0.484772   MPKI: 0.811775
L1D PREFETCH  REQUESTED:   14388472  ISSUED:   14323572  USEFUL:    2435507  USELESS:     120856
L1D USEFUL LOAD PREFETCHES:    2435507 PREFETCH ISSUED TO LOWER LEVEL:    2611840  ACCURACY: 93.2487
L1D TIMELY PREFETCHES:    2435507 LATE PREFETCHES: 7913 DROPPED PREFETCHES: 0
L1D COMMIT LATE PREFETCHES: 3495 NORMAL LATE: 4617 MISSED OPPORTUNITY: 0 UNCOVERED: 182125
L1D PREFETCHES SAME FILL-ORIGIN LEVEL: 2571716 DIFFERENT FILL-ORIGIN LEVEL: 40124
L1D AVERAGE MISS LATENCY: 198.534 cycles
L1D AVERAGE MISS LATENCY LOAD: 158.613 cycles
L1D AVERAGE MISS LATENCY PREFETCH: 214.244 cycles
L1D AVERAGE MSHR OCCUPANCY: 3.03096
L1D MSHR FULL: 0.000169704
L1D RQ	ACCESS:   79487598	FORWARD:          0	MERGED:   20040852	TO_CACHE:   59446746
L1D WQ	ACCESS:   40278758	FORWARD:          0	MERGED:    1054300	TO_CACHE:   39224458
L1D PQ	ACCESS:   14323572	FORWARD:          0	MERGED:    2430225	TO_CACHE:   11893347

L1D UNIQUE REGIONS ACCESSED: 0
L1D REGIONS CONFLICTS: 0
L1D Cross Page Prefetch Requests: 0
L1D Same Page Prefetch Requests: 17903584
L1D ROI Sum of L1D PQ occupancy: 177817294
L1D PREFETCHES PUSHED FROM L2C: 0
L1I SPEC fills:          0  NON-SPEC fills:          0
L1I Test counter :          0
L1I Leapfrog:          0
L1I MSHR merge:          0
L1I TOTAL     ACCESS:   33529829  HIT:   33529829  MISS:          0  HIT %:        100  MISS %:          0   MPKI: 0
L1I LOAD      TOTAL       ACCESS:   33529829  HIT:   33529829  MISS:          0  HIT %:        100  MISS %:          0   MPKI: 0
L1I LOAD      NON_SPEC    ACCESS:   33529829  HIT:   33529829  MISS:          0  HIT %:        100  MISS %:          0   MPKI: 0
L1I PREFETCH  REQUESTED:          0  ISSUED:          0  USEFUL:          0  USELESS:          0
L1I USEFUL LOAD PREFETCHES:          0 PREFETCH ISSUED TO LOWER LEVEL:          0  ACCURACY: -nan
L1I TIMELY PREFETCHES:          0 LATE PREFETCHES: 0 DROPPED PREFETCHES: 0
L1I COMMIT LATE PREFETCHES: 0 NORMAL LATE: 0 MISSED OPPORTUNITY: 0 UNCOVERED: 0
L1I PREFETCHES SAME FILL-ORIGIN LEVEL: 0 DIFFERENT FILL-ORIGIN LEVEL: 0
L1I AVERAGE MISS LATENCY: -nan cycles
L1I AVERAGE MISS LATENCY LOAD: -nan cycles
L1I AVERAGE MISS LATENCY PREFETCH: -nan cycles
L1I AVERAGE MSHR OCCUPANCY: 0
L1I MSHR FULL: 0
L1I RQ	ACCESS:   53686736	FORWARD:          0	MERGED:   20156908	TO_CACHE:   33529828

BTB SPEC fills:          0  NON-SPEC fills:          0
BTB Test counter :          0
BTB Leapfrog:          0
BTB MSHR merge:          0
BTB TOTAL     ACCESS:   10024820  HIT:   10024809  MISS:         11  HIT %:    99.9999  MISS %: 0.000109728   MPKI: 5.5e-05
BTB BRANCH_DIRECT_JUMP	ACCESS:        162  HIT:        161  MISS:          1
BTB BRANCH_INDIRECT	ACCESS:          0  HIT:          0  MISS:          0
BTB BRANCH_CONDITIONAL	ACCESS:   10024334  HIT:   10024326  MISS:          8
BTB BRANCH_DIRECT_CALL	ACCESS:        162  HIT:        161  MISS:          1
BTB BRANCH_INDIRECT_CALL	ACCESS:          0  HIT:          0  MISS:          0
BTB BRANCH_RETURN	ACCESS:        162  HIT:        161  MISS:          1
BTB BRANCH_OTHER ACCESS:          0  HIT:          0  MISS:          0

L2C SPEC fills:          0  NON-SPEC fills:       3811
L2C Test counter :          0
L2C Leapfrog:          0
L2C MSHR merge:        151
L2C TOTAL     ACCESS:    5723942  HIT:    2805295  MISS:    2918647  HIT %:    49.0098  MISS %:    50.9902   MPKI: 14.5932
L2C LOAD      TOTAL       ACCESS:     179224  HIT:      18851  MISS:     160373  HIT %:    10.5181  MISS %:    89.4819   MPKI: 0.801865
L2C LOAD      NON_SPEC    ACCESS:       8483  HIT:       4672  MISS:       3811  HIT %:    55.0749  MISS %:    44.9251   MPKI: 0.019055
L2C LOAD      SPEC        ACCESS:     170741  HIT:      14179  MISS:     156562  HIT %:    8.30439  MISS %:    91.6956   MPKI: 0.78281
L2C RFO       NON_SPEC    ACCESS:       5975  HIT:        105  MISS:       5870  HIT %:    1.75732  MISS %:    98.2427   MPKI: 0.02935
L2C PREFETCH  NON_SPEC    ACCESS:    2603241  HIT:      83700  MISS:    2519541  HIT %:    3.21522  MISS %:    96.7848   MPKI: 12.5977
L2C WRITEBACK NON_SPEC    ACCESS:      48521  HIT:      32292  MISS:      16229  HIT %:    66.5526  MISS %:    33.4474   MPKI: 0.081145
L2C CLEAN_EVICTION NON_SPEC    ACCESS:    2550192  HIT:    2395121  MISS:     155071  HIT %:    93.9192  MISS %:    6.08076   MPKI: 0.775355
L2C COMMIT LOAD NON_SPEC    ACCESS:       8268  HIT:       1546  MISS:       6722  HIT %:    18.6986  MISS %:    81.3014   MPKI: 0.03361
L2C LOAD TRANSLATION NON_SPEC    ACCESS:     328521  HIT:     273680  MISS:      54841  HIT %:    83.3067  MISS %:    16.6933   MPKI: 0.274205
L2C PREFETCH  REQUESTED:          0  ISSUED:          0  USEFUL:       8173  USELESS:    2511482
L2C USEFUL LOAD PREFETCHES:       8173 PREFETCH ISSUED TO LOWER LEVEL:    2523577  ACCURACY: 0.323866
L2C TIMELY PREFETCHES:       8173 LATE PREFETCHES: 4036 DROPPED PREFETCHES: 0
L2C COMMIT LATE PREFETCHES: 0 NORMAL LATE: 4036 MISSED OPPORTUNITY: 0 UNCOVERED: 160222
L2C PREFETCHES SAME FILL-ORIGIN LEVEL: 37427 DIFFERENT FILL-ORIGIN LEVEL: 0
L2C AVERAGE MISS LATENCY: 190.531 cycles
L2C AVERAGE MISS LATENCY LOAD: 161.243 cycles
L2C AVERAGE MISS LATENCY PREFETCH: 206.985 cycles
L2C AVERAGE MSHR OCCUPANCY: 2.07452
L2C MSHR FULL: 0.00355517
L2C RQ	ACCESS:     522375	FORWARD:          0	MERGED:          0	TO_CACHE:     521988
L2C WQ	ACCESS:    2598714	FORWARD:        518	MERGED:          0	TO_CACHE:    2598714
L2C PQ	ACCESS:    2611840	FORWARD:          0	MERGED:         89	TO_CACHE:    2611620

L2C Instructions Evicting Data 0
L2C Translations Evicting Data 53980
L2C Data Evicting Data 2485898
L2C Instructions Evicting Instructions 0
L2C Translations Evicting Instructions 0
L2C Data Evicting Instructions 0
L2C Instructions Evicting Translations 0
L2C Translations Evicting Translations 861
L2C Data Evicting Translations 50046
L2C Dense regions hint from L2: 0
PSCL5 SPEC fills:          0  NON-SPEC fills:          0
PSCL5 Test counter :          0
PSCL5 Leapfrog:          0
PSCL5 MSHR merge:          0
PSCL5 TOTAL     ACCESS:          0  HIT:          0  MISS:          0  HIT %:       -nan  MISS %:       -nan   MPKI: 0
PSCL5 PREFETCH  REQUESTED:          0  ISSUED:          0  USEFUL:          0  USELESS:          0
PSCL5 USEFUL LOAD PREFETCHES:          0 PREFETCH ISSUED TO LOWER LEVEL:          0  ACCURACY: -nan
PSCL5 TIMELY PREFETCHES:          0 LATE PREFETCHES: 0 DROPPED PREFETCHES: 0
PSCL5 COMMIT LATE PREFETCHES: 0 NORMAL LATE: 0 MISSED OPPORTUNITY: 0 UNCOVERED: 0
PSCL5 PREFETCHES SAME FILL-ORIGIN LEVEL: 0 DIFFERENT FILL-ORIGIN LEVEL: 0

PSCL4 SPEC fills:          0  NON-SPEC fills:          0
PSCL4 Test counter :          0
PSCL4 Leapfrog:          0
PSCL4 MSHR merge:          0
PSCL4 TOTAL     ACCESS:          0  HIT:          0  MISS:          0  HIT %:       -nan  MISS %:       -nan   MPKI: 0
PSCL4 PREFETCH  REQUESTED:          0  ISSUED:          0  USEFUL:          0  USELESS:          0
PSCL4 USEFUL LOAD PREFETCHES:          0 PREFETCH ISSUED TO LOWER LEVEL:          0  ACCURACY: -nan
PSCL4 TIMELY PREFETCHES:          0 LATE PREFETCHES: 0 DROPPED PREFETCHES: 0
PSCL4 COMMIT LATE PREFETCHES: 0 NORMAL LATE: 0 MISSED OPPORTUNITY: 0 UNCOVERED: 0
PSCL4 PREFETCHES SAME FILL-ORIGIN LEVEL: 0 DIFFERENT FILL-ORIGIN LEVEL: 0

PSCL3 SPEC fills:          0  NON-SPEC fills:          0
PSCL3 Test counter :          0
PSCL3 Leapfrog:          0
PSCL3 MSHR merge:          0
PSCL3 TOTAL     ACCESS:          0  HIT:          0  MISS:          0  HIT %:       -nan  MISS %:       -nan   MPKI: 0
PSCL3 PREFETCH  REQUESTED:          0  ISSUED:          0  USEFUL:          0  USELESS:          0
PSCL3 USEFUL LOAD PREFETCHES:          0 PREFETCH ISSUED TO LOWER LEVEL:          0  ACCURACY: -nan
PSCL3 TIMELY PREFETCHES:          0 LATE PREFETCHES: 0 DROPPED PREFETCHES: 0
PSCL3 COMMIT LATE PREFETCHES: 0 NORMAL LATE: 0 MISSED OPPORTUNITY: 0 UNCOVERED: 0
PSCL3 PREFETCHES SAME FILL-ORIGIN LEVEL: 0 DIFFERENT FILL-ORIGIN LEVEL: 0

PSCL2 SPEC fills:          0  NON-SPEC fills:          0
PSCL2 Test counter :          0
PSCL2 Leapfrog:          0
PSCL2 MSHR merge:          0
PSCL2 TOTAL     ACCESS:          0  HIT:          0  MISS:          0  HIT %:       -nan  MISS %:       -nan   MPKI: 0
PSCL2 PREFETCH  REQUESTED:          0  ISSUED:          0  USEFUL:          0  USELESS:          0
PSCL2 USEFUL LOAD PREFETCHES:          0 PREFETCH ISSUED TO LOWER LEVEL:          0  ACCURACY: -nan
PSCL2 TIMELY PREFETCHES:          0 LATE PREFETCHES: 0 DROPPED PREFETCHES: 0
PSCL2 COMMIT LATE PREFETCHES: 0 NORMAL LATE: 0 MISSED OPPORTUNITY: 0 UNCOVERED: 0
PSCL2 PREFETCHES SAME FILL-ORIGIN LEVEL: 0 DIFFERENT FILL-ORIGIN LEVEL: 0

LLC SPEC fills:          0  NON-SPEC fills:       3554
LLC Test counter :          0
LLC Leapfrog:          0
LLC MSHR merge:          0
LLC TOTAL     ACCESS:    5288913  HIT:    2891397  MISS:    2397516  HIT %:     54.669  MISS %:     45.331   MPKI: 11.9876
LLC LOAD      TOTAL       ACCESS:     160221  HIT:      27187  MISS:     133034  HIT %:    16.9684  MISS %:    83.0316   MPKI: 0.66517
LLC LOAD      NON_SPEC    ACCESS:       3810  HIT:        256  MISS:       3554  HIT %:    6.71916  MISS %:    93.2808   MPKI: 0.01777
LLC LOAD      SPEC        ACCESS:     156411  HIT:      26931  MISS:     129480  HIT %:    17.2181  MISS %:    82.7819   MPKI: 0.6474
LLC RFO       NON_SPEC    ACCESS:       1985  HIT:        151  MISS:       1834  HIT %:    7.60705  MISS %:    92.3929   MPKI: 0.00917
LLC PREFETCH  NON_SPEC    ACCESS:    2523577  HIT:     413897  MISS:    2109680  HIT %:    16.4012  MISS %:    83.5988   MPKI: 10.5484
LLC WRITEBACK NON_SPEC    ACCESS:      22296  HIT:      16491  MISS:       5805  HIT %:    73.9639  MISS %:    26.0361   MPKI: 0.029025
LLC CLEAN_EVICTION NON_SPEC    ACCESS:    2519271  HIT:    2393358  MISS:     125913  HIT %:     95.002  MISS %:    4.99799   MPKI: 0.629565
LLC COMMIT LOAD NON_SPEC    ACCESS:       6722  HIT:       3128  MISS:       3594  HIT %:    46.5338  MISS %:    53.4662   MPKI: 0.01797
LLC LOAD TRANSLATION NON_SPEC    ACCESS:      54841  HIT:      37185  MISS:      17656  HIT %:    67.8051  MISS %:    32.1949   MPKI: 0.08828
LLC PREFETCH  REQUESTED:          0  ISSUED:          0  USEFUL:        114  USELESS:    2109411
LLC USEFUL LOAD PREFETCHES:        114 PREFETCH ISSUED TO LOWER LEVEL:    2109680  ACCURACY: 0.00540366
LLC TIMELY PREFETCHES:        114 LATE PREFETCHES: 0 DROPPED PREFETCHES: 0
LLC COMMIT LATE PREFETCHES: 0 NORMAL LATE: 0 MISSED OPPORTUNITY: 0 UNCOVERED: 0
LLC PREFETCHES SAME FILL-ORIGIN LEVEL: 0 DIFFERENT FILL-ORIGIN LEVEL: 0
LLC AVERAGE MISS LATENCY: 197.283 cycles
LLC AVERAGE MISS LATENCY LOAD: 163.975 cycles
LLC AVERAGE MISS LATENCY PREFETCH: 211.594 cycles
LLC AVERAGE MSHR OCCUPANCY: 1.4045
LLC MSHR FULL: 0
LLC RQ	ACCESS:     223770	FORWARD:          0	MERGED:          0	TO_CACHE:     223769
LLC WQ	ACCESS:    2541568	FORWARD:          1	MERGED:          0	TO_CACHE:    2541568
LLC PQ	ACCESS:    2523577	FORWARD:          0	MERGED:          0	TO_CACHE:    2523577

LLC Dense regions hint to LLC: 0

RAW hits: 368
Loads Generated: 76447741
Loads sent to L1D: 76447372
Stores Generated: 6800691
Stores sent to L1D: 6800691
Major fault: 0 Minor fault: 82777
Allocated PAGES: 82777
Total Load insts: 95559950
Total Non-spec loads: 9236786
Percentage of speculative loads: 90.334

LeapFrogging counter: 385
Commit hits: 33491262 miss: 34673781
Commit hit %: 49.1326 miss %: 50.8674
Commits not translated: 0
Loads retired: 187518
Stores retired: 6800691
Cache fills: 187518
L1D response latency: 158.613 cycles
Load retirement latency: 511.159 cycles
OOO test counter: 0
Discarded buffer inserts: 33491262 hits: 2440 hit %: 0.00728548
Filter prediction accuracy: -nan
Speculative prefetch buffer size: 0
CPU 0 L1D PC-based stride prefetcher final stats
Degree: 3
CPU 0 L1D PC-based stride prefetcher final stats
Degree: 3

DRAM Statistics
 CHANNEL 0
 RQ ROW_BUFFER_HIT:     862601  ROW_BUFFER_MISS:    1403196
 DBUS_CONGESTED:       6001
 WQ ROW_BUFFER_HIT:    1191473  ROW_BUFFER_MISS:     938595  FULL:        565

 AVG_CONGESTED_CYCLE: 5
 All warmup complete: 2
Channel 0 Bank busy for read cycles: 0
Channel 0 Bank busy for write cycles: 0
Channel 0
Rank 0
0banks busy for read cycles: 575235
0banks busy for write cycles: 92
1banks busy for read cycles: 47183982
1banks busy for write cycles: 487032
2banks busy for read cycles: 71116402
2banks busy for write cycles: 512397
3banks busy for read cycles: 15258547
3banks busy for write cycles: 564892
4banks busy for read cycles: 3740639
4banks busy for write cycles: 641893
5banks busy for read cycles: 494998
5banks busy for write cycles: 765383
6banks busy for read cycles: 311527
6banks busy for write cycles: 1102749
7banks busy for read cycles: 23805
7banks busy for write cycles: 4217662
8banks busy for read cycles: 97539
8banks busy for write cycles: 51295628

CPU 0 Branch Prediction Accuracy: 99.9315% MPKI: 0.03438 Average ROB Occupancy at Mispredict: 56.099
Branch types
NOT_BRANCH: 189955080 94.9775%
BRANCH_DIRECT_JUMP: 162 8.1e-05%
BRANCH_INDIRECT: 0 0%
BRANCH_CONDITIONAL: 10044110 5.02205%
BRANCH_DIRECT_CALL: 162 8.1e-05%
BRANCH_INDIRECT_CALL: 0 0%
BRANCH_RETURN: 162 8.1e-05%
BRANCH_OTHER: 0 0%

DRAM PAGES: 1048576
Allocated PAGES: 82777
