
*** ChampSim Multicore Out-of-Order Simulator ***

Warmup Instructions: 50000000
Simulation Instructions: 200000000
Number of CPUs: 1
LLC sets: 2048
LLC ways: 16
L0D sets: 16
L0D ways: 2
ROB size: 352
LQ size: 128
SQ size: 72
Secure Berti: OFF
Berti: OFF
Berti Fill: OFF
On commit prefetching: ON
Hit-based filter: OFF
Time-guarding: ON
Free-slotting: ON
Leap-frogging: ON
Train prefetcher on L0D bypass: OFF
No translation penalty for prefetchers: OFF
Prefetch to L0D only: OFF
Prefetch to L1D only: OFF
Clean evictions: ON
Commit loads: ON
Commit write: ON
Fill commit loads to L2C, LLC: ON
DRAM IO FREQUENCY: 6400
ROB SIZE: 352
Off-chip DRAM Size: 4096 MB Channels: 1 Width: 64-bit Data Rate: 6400 MT/s
CPU 0 runs /home/sumon/secure_berti/GhostMinion/../../traces/spec/654.roms_s-1070B.champsimtrace.xz
.xz
BTB has LRU replacement policy
ITLB has LRU replacement policy
DTLB has LRU replacement policy
STLB has LRU replacement policy
L1I has LRU replacement policy
L0D has LRU replacement policy
CPU 0 L1D IP-based stride prefetcher
CPU 0 L1D IP-based stride prefetcher
L1D has LRU replacement policy
L2C has LRU replacement policy
LLC has LRU replacement policy
Heartbeat CPU 0 instructions: 10000002 cycles: 4623319 heartbeat IPC: 2.16295 cumulative IPC: 2.16295 (Simulation time: 0 hr 0 min 44 sec) 
Heartbeat CPU 0 instructions: 20000002 cycles: 8553536 heartbeat IPC: 2.54439 cumulative IPC: 2.33821 (Simulation time: 0 hr 1 min 55 sec) 
Heartbeat CPU 0 instructions: 30000003 cycles: 11769079 heartbeat IPC: 3.10989 cumulative IPC: 2.54905 (Simulation time: 0 hr 3 min 8 sec) 
Heartbeat CPU 0 instructions: 40000001 cycles: 17106190 heartbeat IPC: 1.87367 cumulative IPC: 2.33833 (Simulation time: 0 hr 4 min 25 sec) 
Heartbeat CPU 0 instructions: 50000001 cycles: 20448205 heartbeat IPC: 2.99221 cumulative IPC: 2.4452 (Simulation time: 0 hr 5 min 37 sec) 

Warmup complete CPU 0 instructions: 50000001 cycles: 20448205 (Simulation time: 0 hr 5 min 37 sec) 

Heartbeat CPU 0 instructions: 60000000 cycles: 37441611 heartbeat IPC: 0.588463 cumulative IPC: 0.588463 (Simulation time: 0 hr 7 min 18 sec) 
Heartbeat CPU 0 instructions: 70000002 cycles: 47687690 heartbeat IPC: 0.975983 cumulative IPC: 0.734228 (Simulation time: 0 hr 8 min 43 sec) 
Heartbeat CPU 0 instructions: 80000003 cycles: 62140851 heartbeat IPC: 0.69189 cumulative IPC: 0.719551 (Simulation time: 0 hr 10 min 12 sec) 
Heartbeat CPU 0 instructions: 90000002 cycles: 75378180 heartbeat IPC: 0.755439 cumulative IPC: 0.7282 (Simulation time: 0 hr 11 min 47 sec) 
Heartbeat CPU 0 instructions: 100000003 cycles: 86373163 heartbeat IPC: 0.909506 cumulative IPC: 0.758438 (Simulation time: 0 hr 13 min 11 sec) 
Heartbeat CPU 0 instructions: 110000000 cycles: 102830045 heartbeat IPC: 0.607648 cumulative IPC: 0.728316 (Simulation time: 0 hr 14 min 51 sec) 
Heartbeat CPU 0 instructions: 120000002 cycles: 113398095 heartbeat IPC: 0.946249 cumulative IPC: 0.753094 (Simulation time: 0 hr 16 min 14 sec) 
Heartbeat CPU 0 instructions: 130000002 cycles: 128715083 heartbeat IPC: 0.65287 cumulative IPC: 0.738915 (Simulation time: 0 hr 17 min 23 sec) 
Heartbeat CPU 0 instructions: 140000001 cycles: 141137393 heartbeat IPC: 0.805003 cumulative IPC: 0.745717 (Simulation time: 0 hr 18 min 18 sec) 
Heartbeat CPU 0 instructions: 150000003 cycles: 152446768 heartbeat IPC: 0.884222 cumulative IPC: 0.757584 (Simulation time: 0 hr 19 min 8 sec) 
Heartbeat CPU 0 instructions: 160000000 cycles: 168294864 heartbeat IPC: 0.63099 cumulative IPC: 0.744014 (Simulation time: 0 hr 20 min 5 sec) 
Heartbeat CPU 0 instructions: 170000000 cycles: 178386388 heartbeat IPC: 0.990931 cumulative IPC: 0.759791 (Simulation time: 0 hr 20 min 53 sec) 
Heartbeat CPU 0 instructions: 180000002 cycles: 193357366 heartbeat IPC: 0.667959 cumulative IPC: 0.75184 (Simulation time: 0 hr 21 min 47 sec) 
Heartbeat CPU 0 instructions: 190000000 cycles: 205727099 heartbeat IPC: 0.808425 cumulative IPC: 0.755618 (Simulation time: 0 hr 22 min 39 sec) 
Heartbeat CPU 0 instructions: 200000002 cycles: 219207838 heartbeat IPC: 0.741799 cumulative IPC: 0.75468 (Simulation time: 0 hr 23 min 29 sec) 
Heartbeat CPU 0 instructions: 210000001 cycles: 234291169 heartbeat IPC: 0.662983 cumulative IPC: 0.748213 (Simulation time: 0 hr 24 min 23 sec) 
Heartbeat CPU 0 instructions: 220000000 cycles: 246653799 heartbeat IPC: 0.808889 cumulative IPC: 0.751529 (Simulation time: 0 hr 25 min 9 sec) 
Heartbeat CPU 0 instructions: 230000002 cycles: 262672826 heartbeat IPC: 0.624258 cumulative IPC: 0.743112 (Simulation time: 0 hr 26 min 2 sec) 
Heartbeat CPU 0 instructions: 240000000 cycles: 275738012 heartbeat IPC: 0.765393 cumulative IPC: 0.744252 (Simulation time: 0 hr 26 min 51 sec) 
Heartbeat CPU 0 instructions: 250000001 cycles: 289171436 heartbeat IPC: 0.744412 cumulative IPC: 0.74426 (Simulation time: 0 hr 27 min 37 sec) 
Finished CPU 0 instructions: 200000000 cycles: 268723231 cumulative IPC: 0.74426 (Simulation time: 0 hr 27 min 37 sec) 
 Instruction ID: 250000357

ChampSim completed all CPUs

Region of Interest Statistics

CPU 0 cumulative IPC: 0.74426 instructions: 200000000 cycles: 268723231
ITLB SPEC fills:          0  NON-SPEC fills:          0
ITLB Test counter :          0
ITLB Leapfrog:          0
ITLB MSHR merge:          0
ITLB TOTAL     ACCESS:   29378894  HIT:   29378893  MISS:          1  HIT %:        100  MISS %: 3.4038e-06   MPKI: 5e-06
ITLB LOAD TRANSLATION NON_SPEC    ACCESS:   29378894  HIT:   29378893  MISS:          1  HIT %:        100  MISS %: 3.4038e-06   MPKI: 5e-06
ITLB PREFETCH  REQUESTED:          0  ISSUED:          0  USEFUL:          0  USELESS:          0
ITLB USEFUL LOAD PREFETCHES:          0 PREFETCH ISSUED TO LOWER LEVEL:          0  ACCURACY: -nan
ITLB TIMELY PREFETCHES:          0 LATE PREFETCHES: 0 DROPPED PREFETCHES: 0
ITLB COMMIT LATE PREFETCHES: 0 NORMAL LATE: 0 MISSED OPPORTUNITY: 0 UNCOVERED: 0
ITLB PREFETCHES SAME FILL-ORIGIN LEVEL: 0 DIFFERENT FILL-ORIGIN LEVEL: 0
ITLB AVERAGE MISS LATENCY: 564 cycles
ITLB AVERAGE MISS LATENCY LOAD: -nan cycles
ITLB AVERAGE MISS LATENCY PREFETCH: -nan cycles
ITLB AVERAGE MSHR OCCUPANCY: 0
ITLB MSHR FULL: 0
ITLB RQ	ACCESS:   33601933	FORWARD:          0	MERGED:    4223040	TO_CACHE:   29378893

DTLB SPEC fills:          0  NON-SPEC fills:          0
DTLB Test counter :          0
DTLB Leapfrog:          0
DTLB MSHR merge:          0
DTLB TOTAL     ACCESS:   54956596  HIT:   54851195  MISS:     105401  HIT %:    99.8082  MISS %:    0.19179   MPKI: 0.527005
DTLB LOAD TRANSLATION NON_SPEC    ACCESS:   54956596  HIT:   54851195  MISS:     105401  HIT %:    99.8082  MISS %:    0.19179   MPKI: 0.527005
DTLB PREFETCH  REQUESTED:          0  ISSUED:          0  USEFUL:          0  USELESS:          0
DTLB USEFUL LOAD PREFETCHES:          0 PREFETCH ISSUED TO LOWER LEVEL:          0  ACCURACY: -nan
DTLB TIMELY PREFETCHES:          0 LATE PREFETCHES: 0 DROPPED PREFETCHES: 0
DTLB COMMIT LATE PREFETCHES: 0 NORMAL LATE: 0 MISSED OPPORTUNITY: 0 UNCOVERED: 0
DTLB PREFETCHES SAME FILL-ORIGIN LEVEL: 0 DIFFERENT FILL-ORIGIN LEVEL: 0
DTLB AVERAGE MISS LATENCY: 266.575 cycles
DTLB AVERAGE MISS LATENCY LOAD: -nan cycles
DTLB AVERAGE MISS LATENCY PREFETCH: -nan cycles
DTLB AVERAGE MSHR OCCUPANCY: 0.0357738
DTLB MSHR FULL: 8.43535e-05
DTLB RQ	ACCESS:   62454872	FORWARD:          0	MERGED:    7358054	TO_CACHE:   55096818

STLB SPEC fills:          0  NON-SPEC fills:          0
STLB Test counter :          0
STLB Leapfrog:          0
STLB MSHR merge:          0
STLB TOTAL     ACCESS:    6561488  HIT:    6465273  MISS:      96215  HIT %:    98.5336  MISS %:    1.46636   MPKI: 0.481075
STLB LOAD TRANSLATION NON_SPEC    ACCESS:     105402  HIT:       9187  MISS:      96215  HIT %:    8.71615  MISS %:    91.2838   MPKI: 0.481075
STLB TRANSLATION FROM L1D PREFETCHER NON_SPEC    ACCESS:    6456086  HIT:    6456086  MISS:          0  HIT %:        100  MISS %:          0   MPKI: 0
STLB PREFETCH  REQUESTED:          0  ISSUED:          0  USEFUL:          0  USELESS:          0
STLB USEFUL LOAD PREFETCHES:          0 PREFETCH ISSUED TO LOWER LEVEL:          0  ACCURACY: -nan
STLB TIMELY PREFETCHES:          0 LATE PREFETCHES: 0 DROPPED PREFETCHES: 0
STLB COMMIT LATE PREFETCHES: 0 NORMAL LATE: 0 MISSED OPPORTUNITY: 0 UNCOVERED: 0
STLB PREFETCHES SAME FILL-ORIGIN LEVEL: 0 DIFFERENT FILL-ORIGIN LEVEL: 0
STLB AVERAGE MISS LATENCY: 282.199 cycles
STLB AVERAGE MISS LATENCY LOAD: -nan cycles
STLB AVERAGE MISS LATENCY PREFETCH: -nan cycles
STLB AVERAGE MSHR OCCUPANCY: 0.0256333
STLB MSHR FULL: 0
STLB RQ	ACCESS:   18986647	FORWARD:          0	MERGED:   12421198	TO_CACHE:    6565449

STLB Hit, L1D data hit: 0
STLB Hit, L2C data hit: 0
STLB Hit, LLC data hit: 0
STLB Hit, LLC data miss: 0
STLB STLB hints to L2: 0
L0D SPEC fills:   28487159  NON-SPEC fills:          0
L0D TimeGuard Request with older TS:    3240577 Restricted eviction:     940360 read:     304799
L0D Test counter :          0
L0D Leapfrog:          0
L0D MSHR merge:    2875749
L0D TOTAL     ACCESS:   48859840  HIT:   11896464  MISS:   36963376  HIT %:    24.3481  MISS %:    75.6519   MPKI: 184.817
L0D LOAD      TOTAL       ACCESS:   48859840  HIT:   11896464  MISS:   36963376  HIT %:    24.3481  MISS %:    75.6519   MPKI: 184.817
L0D LOAD      NON_SPEC    ACCESS:    7678965  HIT:     143106  MISS:    7535859  HIT %:    1.86361  MISS %:    98.1364   MPKI: 37.6793
L0D LOAD      SPEC        ACCESS:   41180875  HIT:   11753358  MISS:   29427517  HIT %:    28.5408  MISS %:    71.4592   MPKI: 147.138
L0D PREFETCH  REQUESTED:          0  ISSUED:          0  USEFUL:          0  USELESS:          0
L0D USEFUL LOAD PREFETCHES:          0 PREFETCH ISSUED TO LOWER LEVEL:          0  ACCURACY: -nan
L0D TIMELY PREFETCHES:          0 LATE PREFETCHES: 0 DROPPED PREFETCHES: 0
L0D COMMIT LATE PREFETCHES: 0 NORMAL LATE: 0 MISSED OPPORTUNITY: 0 UNCOVERED: 0
L0D PREFETCHES SAME FILL-ORIGIN LEVEL: 0 DIFFERENT FILL-ORIGIN LEVEL: 0
L0D AVERAGE MISS LATENCY: 10.1202 cycles
L0D AVERAGE MISS LATENCY LOAD: 10.1202 cycles
L0D AVERAGE MISS LATENCY PREFETCH: -nan cycles
L0D AVERAGE MSHR OCCUPANCY: 1.44885
L0D MSHR FULL: 9.35676e-05
L0D RQ	ACCESS:   73913391	FORWARD:          0	MERGED:   22177806	TO_CACHE:   51735585
L0D WQ	ACCESS:   10719287	FORWARD:          0	MERGED:          0	TO_CACHE:   10719287

L1D SPEC fills:          0  NON-SPEC fills:      31836
L1D Test counter :          0
L1D Leapfrog:          0
L1D MSHR merge:     454510
L1D TOTAL     ACCESS:  112338001  HIT:  106840415  MISS:    5497586  HIT %:    95.1062  MISS %:    4.89379   MPKI: 27.4879
L1D LOAD      TOTAL       ACCESS:   36955011  HIT:   36246614  MISS:     708397  HIT %:    98.0831  MISS %:    1.91692   MPKI: 3.54198
L1D LOAD      NON_SPEC    ACCESS:    7535541  HIT:    7503705  MISS:      31836  HIT %:    99.5775  MISS %:   0.422478   MPKI: 0.15918
L1D LOAD      SPEC        ACCESS:   29419470  HIT:   28742909  MISS:     676561  HIT %:    97.7003  MISS %:     2.2997   MPKI: 3.3828
L1D RFO       NON_SPEC    ACCESS:    9849897  HIT:    9625598  MISS:     224299  HIT %:    97.7228  MISS %:    2.27717   MPKI: 1.12149
L1D PREFETCH  NON_SPEC    ACCESS:   11442728  HIT:    7455084  MISS:    3987644  HIT %:    65.1513  MISS %:    34.8487   MPKI: 19.9382
L1D COMMIT LOAD NON_SPEC    ACCESS:   27659411  HIT:   27641851  MISS:      17560  HIT %:    99.9365  MISS %:  0.0634865   MPKI: 0.0878
L1D COMMIT WRITE NON_SPEC    ACCESS:   26430954  HIT:   25871268  MISS:     559686  HIT %:    97.8825  MISS %:    2.11754   MPKI: 2.79843
L1D PREFETCH  REQUESTED:   20051739  ISSUED:   19920226  USEFUL:    2766141  USELESS:    1221356
L1D USEFUL LOAD PREFETCHES:    2766141 PREFETCH ISSUED TO LOWER LEVEL:    6905739  ACCURACY: 40.0557
L1D TIMELY PREFETCHES:    2766141 LATE PREFETCHES: 446161 DROPPED PREFETCHES: 0
L1D COMMIT LATE PREFETCHES: 172549 NORMAL LATE: 293449 MISSED OPPORTUNITY: 136 UNCOVERED: 252544
L1D PREFETCHES SAME FILL-ORIGIN LEVEL: 4573645 DIFFERENT FILL-ORIGIN LEVEL: 2332094
L1D AVERAGE MISS LATENCY: 258.753 cycles
L1D AVERAGE MISS LATENCY LOAD: 256.117 cycles
L1D AVERAGE MISS LATENCY PREFETCH: 306.628 cycles
L1D AVERAGE MSHR OCCUPANCY: 6.47989
L1D MSHR FULL: 0.00029527
L1D RQ	ACCESS:   76678179	FORWARD:          0	MERGED:   11474968	TO_CACHE:   64640354
L1D WQ	ACCESS:   37150625	FORWARD:     562857	MERGED:       2512	TO_CACHE:   37148113
L1D PQ	ACCESS:   19920226	FORWARD:          0	MERGED:    1038981	TO_CACHE:   18881245

L1D UNIQUE REGIONS ACCESSED: 0
L1D REGIONS CONFLICTS: 0
L1D Cross Page Prefetch Requests: 0
L1D Same Page Prefetch Requests: 24961915
L1D ROI Sum of L1D PQ occupancy: 300751016
L1D PREFETCHES PUSHED FROM L2C: 0
L1I SPEC fills:          0  NON-SPEC fills:          0
L1I Test counter :          0
L1I Leapfrog:          0
L1I MSHR merge:         27
L1I TOTAL     ACCESS:   33601906  HIT:   33601856  MISS:         50  HIT %:    99.9999  MISS %: 0.000148801   MPKI: 0.00025
L1I LOAD      TOTAL       ACCESS:   33601906  HIT:   33601856  MISS:         50  HIT %:    99.9999  MISS %: 0.000148801   MPKI: 0.00025
L1I LOAD      NON_SPEC    ACCESS:   33601906  HIT:   33601856  MISS:         50  HIT %:    99.9999  MISS %: 0.000148801   MPKI: 0.00025
L1I PREFETCH  REQUESTED:          0  ISSUED:          0  USEFUL:          0  USELESS:          0
L1I USEFUL LOAD PREFETCHES:          0 PREFETCH ISSUED TO LOWER LEVEL:          0  ACCURACY: -nan
L1I TIMELY PREFETCHES:          0 LATE PREFETCHES: 0 DROPPED PREFETCHES: 0
L1I COMMIT LATE PREFETCHES: 0 NORMAL LATE: 0 MISSED OPPORTUNITY: 0 UNCOVERED: 0
L1I PREFETCHES SAME FILL-ORIGIN LEVEL: 0 DIFFERENT FILL-ORIGIN LEVEL: 0
L1I AVERAGE MISS LATENCY: 315.9 cycles
L1I AVERAGE MISS LATENCY LOAD: 315.9 cycles
L1I AVERAGE MISS LATENCY PREFETCH: -nan cycles
L1I AVERAGE MSHR OCCUPANCY: 2.14273e-06
L1I MSHR FULL: 0
L1I RQ	ACCESS:   52827263	FORWARD:          0	MERGED:   19225330	TO_CACHE:   33601933

BTB SPEC fills:          0  NON-SPEC fills:          0
BTB Test counter :          0
BTB Leapfrog:          0
BTB MSHR merge:          0
BTB TOTAL     ACCESS:   10637216  HIT:   10637195  MISS:         21  HIT %:    99.9998  MISS %: 0.00019742   MPKI: 0.000105
BTB BRANCH_DIRECT_JUMP	ACCESS:      26624  HIT:      26622  MISS:          2
BTB BRANCH_INDIRECT	ACCESS:          0  HIT:          0  MISS:          0
BTB BRANCH_CONDITIONAL	ACCESS:   10610592  HIT:   10610573  MISS:         19
BTB BRANCH_DIRECT_CALL	ACCESS:          0  HIT:          0  MISS:          0
BTB BRANCH_INDIRECT_CALL	ACCESS:          0  HIT:          0  MISS:          0
BTB BRANCH_RETURN	ACCESS:          0  HIT:          0  MISS:          0
BTB BRANCH_OTHER ACCESS:          0  HIT:          0  MISS:          0

L2C SPEC fills:          0  NON-SPEC fills:       8052
L2C Test counter :          0
L2C Leapfrog:          0
L2C MSHR merge:      10616
L2C TOTAL     ACCESS:   11072756  HIT:    6512354  MISS:    4560402  HIT %:    58.8142  MISS %:    41.1858   MPKI: 22.802
L2C LOAD      TOTAL       ACCESS:     262189  HIT:     112530  MISS:     149659  HIT %:    42.9194  MISS %:    57.0806   MPKI: 0.748295
L2C LOAD      NON_SPEC    ACCESS:      20602  HIT:      12500  MISS:       8102  HIT %:    60.6737  MISS %:    39.3263   MPKI: 0.04051
L2C LOAD      SPEC        ACCESS:     241587  HIT:     100030  MISS:     141557  HIT %:    41.4054  MISS %:    58.5946   MPKI: 0.707785
L2C RFO       NON_SPEC    ACCESS:      84460  HIT:      40888  MISS:      43572  HIT %:    48.4111  MISS %:    51.5889   MPKI: 0.21786
L2C PREFETCH  NON_SPEC    ACCESS:    5626663  HIT:    1403394  MISS:    4223269  HIT %:    24.9419  MISS %:    75.0581   MPKI: 21.1163
L2C WRITEBACK NON_SPEC    ACCESS:    1349203  HIT:    1349172  MISS:         31  HIT %:    99.9977  MISS %: 0.00229765   MPKI: 0.000155
L2C CLEAN_EVICTION NON_SPEC    ACCESS:    3251812  HIT:    3134515  MISS:     117297  HIT %:    96.3929  MISS %:    3.60713   MPKI: 0.586485
L2C COMMIT LOAD NON_SPEC    ACCESS:      17505  HIT:      10582  MISS:       6923  HIT %:    60.4513  MISS %:    39.5487   MPKI: 0.034615
L2C LOAD TRANSLATION NON_SPEC    ACCESS:     480924  HIT:     461273  MISS:      19651  HIT %:    95.9139  MISS %:    4.08609   MPKI: 0.098255
L2C PREFETCH  REQUESTED:          0  ISSUED:          0  USEFUL:     126132  USELESS:    4097348
L2C USEFUL LOAD PREFETCHES:     126132 PREFETCH ISSUED TO LOWER LEVEL:    4240483  ACCURACY: 2.97447
L2C TIMELY PREFETCHES:     126132 LATE PREFETCHES: 17213 DROPPED PREFETCHES: 0
L2C COMMIT LATE PREFETCHES: 0 NORMAL LATE: 17219 MISSED OPPORTUNITY: 0 UNCOVERED: 139037
L2C PREFETCHES SAME FILL-ORIGIN LEVEL: 1230836 DIFFERENT FILL-ORIGIN LEVEL: 0
L2C AVERAGE MISS LATENCY: 442.556 cycles
L2C AVERAGE MISS LATENCY LOAD: 294.201 cycles
L2C AVERAGE MISS LATENCY PREFETCH: 461.669 cycles
L2C AVERAGE MSHR OCCUPANCY: 6.04473
L2C MSHR FULL: 0
L2C RQ	ACCESS:     845230	FORWARD:          0	MERGED:          0	TO_CACHE:     845078
L2C WQ	ACCESS:    4601068	FORWARD:       2539	MERGED:         52	TO_CACHE:    4601016
L2C PQ	ACCESS:    6905739	FORWARD:          0	MERGED:          0	TO_CACHE:    6903352

L2C Instructions Evicting Data 50
L2C Translations Evicting Data 19609
L2C Data Evicting Data 4262684
L2C Instructions Evicting Instructions 0
L2C Translations Evicting Instructions 0
L2C Data Evicting Instructions 48
L2C Instructions Evicting Translations 0
L2C Translations Evicting Translations 42
L2C Data Evicting Translations 19084
L2C Dense regions hint from L2: 0
PSCL5 SPEC fills:          0  NON-SPEC fills:          0
PSCL5 Test counter :          0
PSCL5 Leapfrog:          0
PSCL5 MSHR merge:          0
PSCL5 TOTAL     ACCESS:          0  HIT:          0  MISS:          0  HIT %:       -nan  MISS %:       -nan   MPKI: 0
PSCL5 PREFETCH  REQUESTED:          0  ISSUED:          0  USEFUL:          0  USELESS:          0
PSCL5 USEFUL LOAD PREFETCHES:          0 PREFETCH ISSUED TO LOWER LEVEL:          0  ACCURACY: -nan
PSCL5 TIMELY PREFETCHES:          0 LATE PREFETCHES: 0 DROPPED PREFETCHES: 0
PSCL5 COMMIT LATE PREFETCHES: 0 NORMAL LATE: 0 MISSED OPPORTUNITY: 0 UNCOVERED: 0
PSCL5 PREFETCHES SAME FILL-ORIGIN LEVEL: 0 DIFFERENT FILL-ORIGIN LEVEL: 0

PSCL4 SPEC fills:          0  NON-SPEC fills:          0
PSCL4 Test counter :          0
PSCL4 Leapfrog:          0
PSCL4 MSHR merge:          0
PSCL4 TOTAL     ACCESS:          0  HIT:          0  MISS:          0  HIT %:       -nan  MISS %:       -nan   MPKI: 0
PSCL4 PREFETCH  REQUESTED:          0  ISSUED:          0  USEFUL:          0  USELESS:          0
PSCL4 USEFUL LOAD PREFETCHES:          0 PREFETCH ISSUED TO LOWER LEVEL:          0  ACCURACY: -nan
PSCL4 TIMELY PREFETCHES:          0 LATE PREFETCHES: 0 DROPPED PREFETCHES: 0
PSCL4 COMMIT LATE PREFETCHES: 0 NORMAL LATE: 0 MISSED OPPORTUNITY: 0 UNCOVERED: 0
PSCL4 PREFETCHES SAME FILL-ORIGIN LEVEL: 0 DIFFERENT FILL-ORIGIN LEVEL: 0

PSCL3 SPEC fills:          0  NON-SPEC fills:          0
PSCL3 Test counter :          0
PSCL3 Leapfrog:          0
PSCL3 MSHR merge:          0
PSCL3 TOTAL     ACCESS:          0  HIT:          0  MISS:          0  HIT %:       -nan  MISS %:       -nan   MPKI: 0
PSCL3 PREFETCH  REQUESTED:          0  ISSUED:          0  USEFUL:          0  USELESS:          0
PSCL3 USEFUL LOAD PREFETCHES:          0 PREFETCH ISSUED TO LOWER LEVEL:          0  ACCURACY: -nan
PSCL3 TIMELY PREFETCHES:          0 LATE PREFETCHES: 0 DROPPED PREFETCHES: 0
PSCL3 COMMIT LATE PREFETCHES: 0 NORMAL LATE: 0 MISSED OPPORTUNITY: 0 UNCOVERED: 0
PSCL3 PREFETCHES SAME FILL-ORIGIN LEVEL: 0 DIFFERENT FILL-ORIGIN LEVEL: 0

PSCL2 SPEC fills:          0  NON-SPEC fills:          0
PSCL2 Test counter :          0
PSCL2 Leapfrog:          0
PSCL2 MSHR merge:          0
PSCL2 TOTAL     ACCESS:          0  HIT:          0  MISS:          0  HIT %:       -nan  MISS %:       -nan   MPKI: 0
PSCL2 PREFETCH  REQUESTED:          0  ISSUED:          0  USEFUL:          0  USELESS:          0
PSCL2 USEFUL LOAD PREFETCHES:          0 PREFETCH ISSUED TO LOWER LEVEL:          0  ACCURACY: -nan
PSCL2 TIMELY PREFETCHES:          0 LATE PREFETCHES: 0 DROPPED PREFETCHES: 0
PSCL2 COMMIT LATE PREFETCHES: 0 NORMAL LATE: 0 MISSED OPPORTUNITY: 0 UNCOVERED: 0
PSCL2 PREFETCHES SAME FILL-ORIGIN LEVEL: 0 DIFFERENT FILL-ORIGIN LEVEL: 0

LLC SPEC fills:          0  NON-SPEC fills:       7518
LLC Test counter :          0
LLC Leapfrog:          0
LLC MSHR merge:          0
LLC TOTAL     ACCESS:    8715415  HIT:    4165308  MISS:    4550107  HIT %:    47.7924  MISS %:    52.2076   MPKI: 22.7505
LLC LOAD      TOTAL       ACCESS:     139043  HIT:         95  MISS:     138948  HIT %:  0.0683242  MISS %:    99.9317   MPKI: 0.69474
LLC LOAD      NON_SPEC    ACCESS:       7568  HIT:          0  MISS:       7568  HIT %:          0  MISS %:        100   MPKI: 0.03784
LLC LOAD      SPEC        ACCESS:     131475  HIT:         95  MISS:     131380  HIT %:  0.0722571  MISS %:    99.9277   MPKI: 0.6569
LLC RFO       NON_SPEC    ACCESS:      36975  HIT:          0  MISS:      36975  HIT %:          0  MISS %:        100   MPKI: 0.184875
LLC PREFETCH  NON_SPEC    ACCESS:    4240482  HIT:       4845  MISS:    4235637  HIT %:   0.114256  MISS %:    99.8857   MPKI: 21.1782
LLC WRITEBACK NON_SPEC    ACCESS:    1345351  HIT:    1345323  MISS:         28  HIT %:    99.9979  MISS %: 0.00208124   MPKI: 0.00014
LLC CLEAN_EVICTION NON_SPEC    ACCESS:    2926990  HIT:    2814957  MISS:     112033  HIT %:    96.1724  MISS %:    3.82758   MPKI: 0.560165
LLC COMMIT LOAD NON_SPEC    ACCESS:       6923  HIT:         87  MISS:       6836  HIT %:    1.25668  MISS %:    98.7433   MPKI: 0.03418
LLC LOAD TRANSLATION NON_SPEC    ACCESS:      19651  HIT:          1  MISS:      19650  HIT %:  0.0050888  MISS %:    99.9949   MPKI: 0.09825
LLC PREFETCH  REQUESTED:          0  ISSUED:          0  USEFUL:        166  USELESS:    4235411
LLC USEFUL LOAD PREFETCHES:        166 PREFETCH ISSUED TO LOWER LEVEL:    4235637  ACCURACY: 0.00391913
LLC TIMELY PREFETCHES:        166 LATE PREFETCHES: 0 DROPPED PREFETCHES: 0
LLC COMMIT LATE PREFETCHES: 0 NORMAL LATE: 0 MISSED OPPORTUNITY: 0 UNCOVERED: 0
LLC PREFETCHES SAME FILL-ORIGIN LEVEL: 0 DIFFERENT FILL-ORIGIN LEVEL: 0
LLC AVERAGE MISS LATENCY: 415.736 cycles
LLC AVERAGE MISS LATENCY LOAD: 262.853 cycles
LLC AVERAGE MISS LATENCY PREFETCH: 433.191 cycles
LLC AVERAGE MSHR OCCUPANCY: 4.17864
LLC MSHR FULL: 0
LLC RQ	ACCESS:     202592	FORWARD:          0	MERGED:          0	TO_CACHE:     202592
LLC WQ	ACCESS:    4272341	FORWARD:          0	MERGED:          0	TO_CACHE:    4272341
LLC PQ	ACCESS:    4240483	FORWARD:          0	MERGED:          0	TO_CACHE:    4240483

LLC Dense regions hint to LLC: 0

RAW hits: 17
Loads Generated: 73913409
Loads sent to L1D: 73913391
Stores Generated: 10719302
Stores sent to L1D: 10719287
Major fault: 0 Minor fault: 51871
Allocated PAGES: 51871
Total Load insts: 92757219
Total Non-spec loads: 8293092
Percentage of speculative loads: 91.0594

LeapFrogging counter: 2371
Commit hits: 26431339 miss: 39714805
Commit hit %: 39.959 miss %: 60.041
Commits not translated: 0
Loads retired: 708395
Stores retired: 10719287
Cache fills: 708397
L1D response latency: 256.117 cycles
Load retirement latency: 358.483 cycles
OOO test counter: 0
Discarded buffer inserts: 26431339 hits: 12128 hit %: 0.0458849
Filter prediction accuracy: -nan
Speculative prefetch buffer size: 4
CPU 0 L1D PC-based stride prefetcher final stats
Degree: 3
CPU 0 L1D PC-based stride prefetcher final stats
Degree: 3

DRAM Statistics
 CHANNEL 0
 RQ ROW_BUFFER_HIT:     630951  ROW_BUFFER_MISS:    3807095
 DBUS_CONGESTED:        914
 WQ ROW_BUFFER_HIT:     706879  ROW_BUFFER_MISS:    3565262  FULL:          0

 AVG_CONGESTED_CYCLE: 5
 All warmup complete: 2
Channel 0 Bank busy for read cycles: 0
Channel 0 Bank busy for write cycles: 0
Channel 0
Rank 0
0banks busy for read cycles: 128106
0banks busy for write cycles: 0
1banks busy for read cycles: 13729247
1banks busy for write cycles: 478388
2banks busy for read cycles: 25364256
2banks busy for write cycles: 478503
3banks busy for read cycles: 35950127
3banks busy for write cycles: 477886
4banks busy for read cycles: 30912999
4banks busy for write cycles: 477093
5banks busy for read cycles: 23028238
5banks busy for write cycles: 477408
6banks busy for read cycles: 20963272
6banks busy for write cycles: 484578
7banks busy for read cycles: 11845384
7banks busy for write cycles: 4932015
8banks busy for read cycles: 6308465
8banks busy for write cycles: 92687267

CPU 0 Branch Prediction Accuracy: 99.8819% MPKI: 0.062825 Average ROB Occupancy at Mispredict: 246.228
Branch types
NOT_BRANCH: 189359655 94.6798%
BRANCH_DIRECT_JUMP: 26624 0.013312%
BRANCH_INDIRECT: 0 0%
BRANCH_CONDITIONAL: 10613695 5.30685%
BRANCH_DIRECT_CALL: 0 0%
BRANCH_INDIRECT_CALL: 0 0%
BRANCH_RETURN: 0 0%
BRANCH_OTHER: 0 0%

DRAM PAGES: 1048576
Allocated PAGES: 51871
