
*** ChampSim Multicore Out-of-Order Simulator ***

Warmup Instructions: 50000000
Simulation Instructions: 200000000
Number of CPUs: 1
LLC sets: 2048
LLC ways: 16
L0D sets: 16
L0D ways: 2
ROB size: 352
LQ size: 128
SQ size: 72
Secure Berti: OFF
Berti: OFF
Berti Fill: OFF
On commit prefetching: OFF
Hit-based filter: ON
Time-guarding: ON
Free-slotting: ON
Leap-frogging: ON
Train prefetcher on L0D bypass: OFF
No translation penalty for prefetchers: OFF
Prefetch to L0D only: OFF
Prefetch to L1D only: OFF
Clean evictions: ON
Commit loads: ON
Commit write: ON
Fill commit loads to L2C, LLC: ON
DRAM IO FREQUENCY: 6400
ROB SIZE: 352
Off-chip DRAM Size: 4096 MB Channels: 1 Width: 64-bit Data Rate: 6400 MT/s
CPU 0 runs /home/sumon/secure_berti/GhostMinion/../../traces/spec/602.gcc_s-734B.champsimtrace.xz
.xz
BTB has LRU replacement policy
ITLB has LRU replacement policy
DTLB has LRU replacement policy
STLB has LRU replacement policy
L1I has LRU replacement policy
L0D has LRU replacement policy
L1D has LRU replacement policy
Bingo PHT WAYS: 16 and PHT_SIZE: 16384
L2C has LRU replacement policy
LLC has LRU replacement policy
Heartbeat CPU 0 instructions: 10000002 cycles: 6659176 heartbeat IPC: 1.50169 cumulative IPC: 1.50169 (Simulation time: 0 hr 0 min 36 sec) 
Heartbeat CPU 0 instructions: 20000000 cycles: 13300973 heartbeat IPC: 1.50562 cumulative IPC: 1.50365 (Simulation time: 0 hr 1 min 9 sec) 
Heartbeat CPU 0 instructions: 30000000 cycles: 19957489 heartbeat IPC: 1.50229 cumulative IPC: 1.5032 (Simulation time: 0 hr 1 min 43 sec) 
Heartbeat CPU 0 instructions: 40000002 cycles: 26641579 heartbeat IPC: 1.49609 cumulative IPC: 1.50141 (Simulation time: 0 hr 2 min 17 sec) 
Heartbeat CPU 0 instructions: 50000000 cycles: 33300586 heartbeat IPC: 1.50173 cumulative IPC: 1.50148 (Simulation time: 0 hr 2 min 50 sec) 

Warmup complete CPU 0 instructions: 50000001 cycles: 33300587 (Simulation time: 0 hr 2 min 50 sec) 

Heartbeat CPU 0 instructions: 60000000 cycles: 54315584 heartbeat IPC: 0.475851 cumulative IPC: 0.475851 (Simulation time: 0 hr 3 min 43 sec) 
Heartbeat CPU 0 instructions: 70000002 cycles: 76328090 heartbeat IPC: 0.454287 cumulative IPC: 0.464819 (Simulation time: 0 hr 4 min 35 sec) 
Heartbeat CPU 0 instructions: 80000000 cycles: 97266780 heartbeat IPC: 0.477585 cumulative IPC: 0.468998 (Simulation time: 0 hr 5 min 28 sec) 
Heartbeat CPU 0 instructions: 90000000 cycles: 118348334 heartbeat IPC: 0.474348 cumulative IPC: 0.470324 (Simulation time: 0 hr 6 min 21 sec) 
Heartbeat CPU 0 instructions: 100000000 cycles: 144966942 heartbeat IPC: 0.375677 cumulative IPC: 0.447762 (Simulation time: 0 hr 7 min 13 sec) 
Heartbeat CPU 0 instructions: 110000000 cycles: 165874343 heartbeat IPC: 0.4783 cumulative IPC: 0.452578 (Simulation time: 0 hr 8 min 5 sec) 
Heartbeat CPU 0 instructions: 120000000 cycles: 186961214 heartbeat IPC: 0.474229 cumulative IPC: 0.455549 (Simulation time: 0 hr 8 min 56 sec) 
Heartbeat CPU 0 instructions: 130000001 cycles: 210303946 heartbeat IPC: 0.428399 cumulative IPC: 0.451969 (Simulation time: 0 hr 9 min 48 sec) 
Heartbeat CPU 0 instructions: 140000001 cycles: 231424897 heartbeat IPC: 0.473464 cumulative IPC: 0.45426 (Simulation time: 0 hr 10 min 40 sec) 
Heartbeat CPU 0 instructions: 150000000 cycles: 252747966 heartbeat IPC: 0.468976 cumulative IPC: 0.45569 (Simulation time: 0 hr 11 min 33 sec) 
Heartbeat CPU 0 instructions: 160000003 cycles: 274313395 heartbeat IPC: 0.463705 cumulative IPC: 0.456407 (Simulation time: 0 hr 12 min 24 sec) 
Heartbeat CPU 0 instructions: 170000000 cycles: 295248267 heartbeat IPC: 0.477672 cumulative IPC: 0.458107 (Simulation time: 0 hr 13 min 13 sec) 
Heartbeat CPU 0 instructions: 180000000 cycles: 316440920 heartbeat IPC: 0.471862 cumulative IPC: 0.459136 (Simulation time: 0 hr 14 min 3 sec) 
Heartbeat CPU 0 instructions: 190000002 cycles: 338354567 heartbeat IPC: 0.456337 cumulative IPC: 0.458935 (Simulation time: 0 hr 14 min 54 sec) 
Heartbeat CPU 0 instructions: 200000001 cycles: 359563741 heartbeat IPC: 0.471494 cumulative IPC: 0.459752 (Simulation time: 0 hr 15 min 42 sec) 
Heartbeat CPU 0 instructions: 210000000 cycles: 380509681 heartbeat IPC: 0.477419 cumulative IPC: 0.460817 (Simulation time: 0 hr 16 min 30 sec) 
Heartbeat CPU 0 instructions: 220000000 cycles: 401728477 heartbeat IPC: 0.47128 cumulative IPC: 0.46142 (Simulation time: 0 hr 17 min 17 sec) 
Heartbeat CPU 0 instructions: 230000002 cycles: 422662580 heartbeat IPC: 0.47769 cumulative IPC: 0.462295 (Simulation time: 0 hr 18 min 4 sec) 
Heartbeat CPU 0 instructions: 240000001 cycles: 443685672 heartbeat IPC: 0.475667 cumulative IPC: 0.46298 (Simulation time: 0 hr 18 min 51 sec) 
Heartbeat CPU 0 instructions: 250000002 cycles: 465477093 heartbeat IPC: 0.458896 cumulative IPC: 0.462774 (Simulation time: 0 hr 19 min 37 sec) 
Finished CPU 0 instructions: 200000001 cycles: 432176506 cumulative IPC: 0.462774 (Simulation time: 0 hr 19 min 37 sec) 
 Instruction ID: 250000360

ChampSim completed all CPUs

Region of Interest Statistics

CPU 0 cumulative IPC: 0.462774 instructions: 200000001 cycles: 432176506
ITLB SPEC fills:          0  NON-SPEC fills:          0
ITLB Test counter :          0
ITLB Leapfrog:          0
ITLB MSHR merge:          0
ITLB TOTAL     ACCESS:   44909471  HIT:   44909461  MISS:         10  HIT %:        100  MISS %: 2.2267e-05   MPKI: 5e-05
ITLB LOAD TRANSLATION NON_SPEC    ACCESS:   44909471  HIT:   44909461  MISS:         10  HIT %:        100  MISS %: 2.2267e-05   MPKI: 5e-05
ITLB PREFETCH  REQUESTED:          0  ISSUED:          0  USEFUL:          0  USELESS:          0
ITLB USEFUL LOAD PREFETCHES:          0 PREFETCH ISSUED TO LOWER LEVEL:          0  ACCURACY: -nan
ITLB TIMELY PREFETCHES:          0 LATE PREFETCHES: 0 DROPPED PREFETCHES: 0
ITLB COMMIT LATE PREFETCHES: 0 MISSED OPPORTUNITY: 0 LATE IN PQ: 0 UNCOVERED: 0
ITLB COMMIT LATE MSHR PREFETCHES: 0
ITLB MPKI TOTAL: 0 MSHR LATE: 0 PQ LATE: 0 COMMIT LATE: 0 MISSED OPPORTUNITY: 0 UNCOVERED: 0
ITLB PREFETCHES SAME FILL-ORIGIN LEVEL: 0 DIFFERENT FILL-ORIGIN LEVEL: 0
ITLB AVERAGE MISS LATENCY: 345.9 cycles
ITLB AVERAGE MISS LATENCY LOAD: -nan cycles
ITLB AVERAGE MISS LATENCY PREFETCH: -nan cycles
ITLB AVERAGE MSHR OCCUPANCY: 8.90681e-08
ITLB MSHR FULL: 0
ITLB RQ	ACCESS:   49707523	FORWARD:          0	MERGED:    4798047	TO_CACHE:   44909476

DTLB SPEC fills:          0  NON-SPEC fills:          0
DTLB Test counter :          0
DTLB Leapfrog:          0
DTLB MSHR merge:          0
DTLB TOTAL     ACCESS:   60387147  HIT:   60178790  MISS:     208357  HIT %:     99.655  MISS %:   0.345035   MPKI: 1.04178
DTLB LOAD TRANSLATION NON_SPEC    ACCESS:   60387147  HIT:   60178790  MISS:     208357  HIT %:     99.655  MISS %:   0.345035   MPKI: 1.04178
DTLB PREFETCH  REQUESTED:          0  ISSUED:          0  USEFUL:          0  USELESS:          0
DTLB USEFUL LOAD PREFETCHES:          0 PREFETCH ISSUED TO LOWER LEVEL:          0  ACCURACY: -nan
DTLB TIMELY PREFETCHES:          0 LATE PREFETCHES: 0 DROPPED PREFETCHES: 0
DTLB COMMIT LATE PREFETCHES: 0 MISSED OPPORTUNITY: 0 LATE IN PQ: 0 UNCOVERED: 0
DTLB COMMIT LATE MSHR PREFETCHES: 0
DTLB MPKI TOTAL: 0 MSHR LATE: 0 PQ LATE: 0 COMMIT LATE: 0 MISSED OPPORTUNITY: 0 UNCOVERED: 0
DTLB PREFETCHES SAME FILL-ORIGIN LEVEL: 0 DIFFERENT FILL-ORIGIN LEVEL: 0
DTLB AVERAGE MISS LATENCY: 45.5703 cycles
DTLB AVERAGE MISS LATENCY LOAD: -nan cycles
DTLB AVERAGE MISS LATENCY PREFETCH: -nan cycles
DTLB AVERAGE MSHR OCCUPANCY: 0.00424911
DTLB MSHR FULL: 0
DTLB RQ	ACCESS:   63436885	FORWARD:          0	MERGED:    3046392	TO_CACHE:   60390493

STLB SPEC fills:          0  NON-SPEC fills:          0
STLB Test counter :          0
STLB Leapfrog:          0
STLB MSHR merge:          0
STLB TOTAL     ACCESS:     208367  HIT:     155755  MISS:      52612  HIT %:    74.7503  MISS %:    25.2497   MPKI: 0.26306
STLB LOAD TRANSLATION NON_SPEC    ACCESS:     208367  HIT:     155755  MISS:      52612  HIT %:    74.7503  MISS %:    25.2497   MPKI: 0.26306
STLB PREFETCH  REQUESTED:          0  ISSUED:          0  USEFUL:          0  USELESS:          0
STLB USEFUL LOAD PREFETCHES:          0 PREFETCH ISSUED TO LOWER LEVEL:          0  ACCURACY: -nan
STLB TIMELY PREFETCHES:          0 LATE PREFETCHES: 0 DROPPED PREFETCHES: 0
STLB COMMIT LATE PREFETCHES: 0 MISSED OPPORTUNITY: 0 LATE IN PQ: 0 UNCOVERED: 0
STLB COMMIT LATE MSHR PREFETCHES: 0
STLB MPKI TOTAL: 0 MSHR LATE: 0 PQ LATE: 0 COMMIT LATE: 0 MISSED OPPORTUNITY: 0 UNCOVERED: 0
STLB PREFETCHES SAME FILL-ORIGIN LEVEL: 0 DIFFERENT FILL-ORIGIN LEVEL: 0
STLB AVERAGE MISS LATENCY: 144.88 cycles
STLB AVERAGE MISS LATENCY LOAD: -nan cycles
STLB AVERAGE MISS LATENCY PREFETCH: -nan cycles
STLB AVERAGE MSHR OCCUPANCY: 0.0147
STLB MSHR FULL: 0
STLB RQ	ACCESS:     208367	FORWARD:          0	MERGED:          0	TO_CACHE:     208367

STLB Hit, L1D data hit: 0
STLB Hit, L2C data hit: 0
STLB Hit, LLC data hit: 0
STLB Hit, LLC data miss: 0
STLB STLB hints to L2: 0
L0D SPEC fills:   18234510  NON-SPEC fills:          0
L0D TimeGuard Request with older TS:     228148 Restricted eviction:      15183 read:     783636
L0D Test counter :          0
L0D Leapfrog:          0
L0D MSHR merge:    2152389
L0D TOTAL     ACCESS:   39344699  HIT:    6047526  MISS:   33297173  HIT %:    15.3706  MISS %:    84.6294   MPKI: 166.486
L0D LOAD      TOTAL       ACCESS:   39344699  HIT:    6047526  MISS:   33297173  HIT %:    15.3706  MISS %:    84.6294   MPKI: 166.486
L0D LOAD      NON_SPEC    ACCESS:   15251716  HIT:     204236  MISS:   15047480  HIT %:     1.3391  MISS %:    98.6609   MPKI: 75.2374
L0D LOAD      SPEC        ACCESS:   24092983  HIT:    5843290  MISS:   18249693  HIT %:    24.2531  MISS %:    75.7469   MPKI: 91.2485
L0D PREFETCH  REQUESTED:          0  ISSUED:          0  USEFUL:          0  USELESS:          0
L0D USEFUL LOAD PREFETCHES:          0 PREFETCH ISSUED TO LOWER LEVEL:          0  ACCURACY: -nan
L0D TIMELY PREFETCHES:          0 LATE PREFETCHES: 0 DROPPED PREFETCHES: 0
L0D COMMIT LATE PREFETCHES: 0 MISSED OPPORTUNITY: 0 LATE IN PQ: 0 UNCOVERED: 0
L0D COMMIT LATE MSHR PREFETCHES: 0
L0D MPKI TOTAL: 177.248 MSHR LATE: 0 PQ LATE: 0 COMMIT LATE: 0 MISSED OPPORTUNITY: 0 UNCOVERED: 0
L0D PREFETCHES SAME FILL-ORIGIN LEVEL: 0 DIFFERENT FILL-ORIGIN LEVEL: 0
L0D AVERAGE MISS LATENCY: 6.77221 cycles
L0D AVERAGE MISS LATENCY LOAD: 6.77221 cycles
L0D AVERAGE MISS LATENCY PREFETCH: -nan cycles
L0D AVERAGE MSHR OCCUPANCY: 0.708512
L0D MSHR FULL: 0
L0D RQ	ACCESS:   52869577	FORWARD:          0	MERGED:   11372489	TO_CACHE:   41497088
L0D WQ	ACCESS:   21939797	FORWARD:          0	MERGED:          0	TO_CACHE:   21939797

L1D SPEC fills:          0  NON-SPEC fills:     336723
L1D Test counter :          0
L1D Leapfrog:          0
L1D MSHR merge:       1899
L1D TOTAL     ACCESS:   62032807  HIT:   55170571  MISS:    6862236  HIT %:    88.9377  MISS %:    11.0623   MPKI: 34.3112
L1D LOAD      TOTAL       ACCESS:   33295274  HIT:   29667423  MISS:    3627851  HIT %:     89.104  MISS %:     10.896   MPKI: 18.1393
L1D LOAD      NON_SPEC    ACCESS:   15047222  HIT:   14710499  MISS:     336723  HIT %:    97.7622  MISS %:    2.23778   MPKI: 1.68361
L1D LOAD      SPEC        ACCESS:   18248052  HIT:   14956924  MISS:    3291128  HIT %:    81.9645  MISS %:    18.0355   MPKI: 16.4556
L1D RFO       NON_SPEC    ACCESS:   21904573  HIT:   21901264  MISS:       3309  HIT %:    99.9849  MISS %:  0.0151064   MPKI: 0.016545
L1D COMMIT LOAD NON_SPEC    ACCESS:    2700601  HIT:    2695259  MISS:       5342  HIT %:    99.8022  MISS %:   0.197808   MPKI: 0.02671
L1D COMMIT WRITE NON_SPEC    ACCESS:    4132359  HIT:     906625  MISS:    3225734  HIT %:    21.9396  MISS %:    78.0604   MPKI: 16.1287
L1D PREFETCH  REQUESTED:          0  ISSUED:          0  USEFUL:          0  USELESS:          0
L1D USEFUL LOAD PREFETCHES:          0 PREFETCH ISSUED TO LOWER LEVEL:          0  ACCURACY: -nan
L1D TIMELY PREFETCHES:          0 LATE PREFETCHES: 0 DROPPED PREFETCHES: 0
L1D COMMIT LATE PREFETCHES: 0 MISSED OPPORTUNITY: 0 LATE IN PQ: 0 UNCOVERED: 0
L1D COMMIT LATE MSHR PREFETCHES: 0
L1D MPKI TOTAL: 18.1487 MSHR LATE: 0 PQ LATE: 0 COMMIT LATE: 0 MISSED OPPORTUNITY: 0 UNCOVERED: 0
L1D PREFETCHES SAME FILL-ORIGIN LEVEL: 0 DIFFERENT FILL-ORIGIN LEVEL: 0
L1D AVERAGE MISS LATENCY: 8.53843 cycles
L1D AVERAGE MISS LATENCY LOAD: 15.9878 cycles
L1D AVERAGE MISS LATENCY PREFETCH: -nan cycles
L1D AVERAGE MSHR OCCUPANCY: 0.0438445
L1D MSHR FULL: 0
L1D RQ	ACCESS:   37717983	FORWARD:          0	MERGED:    1692998	TO_CACHE:   35998333
L1D WQ	ACCESS:   26099905	FORWARD:      26652	MERGED:      54794	TO_CACHE:   26045111

L1D UNIQUE REGIONS ACCESSED: 0
L1D REGIONS CONFLICTS: 0
L1D Cross Page Prefetch Requests: 0
L1D Same Page Prefetch Requests: 0
L1D ROI Sum of L1D PQ occupancy: 0
L1D PREFETCHES PUSHED FROM L2C: 0
L1I SPEC fills:          0  NON-SPEC fills:          0
L1I Test counter :          0
L1I Leapfrog:          0
L1I MSHR merge:         10
L1I TOTAL     ACCESS:   49707511  HIT:   49707422  MISS:         89  HIT %:    99.9998  MISS %: 0.000179047   MPKI: 0.000445
L1I LOAD      TOTAL       ACCESS:   49707511  HIT:   49707422  MISS:         89  HIT %:    99.9998  MISS %: 0.000179047   MPKI: 0.000445
L1I LOAD      NON_SPEC    ACCESS:   49707511  HIT:   49707422  MISS:         89  HIT %:    99.9998  MISS %: 0.000179047   MPKI: 0.000445
L1I PREFETCH  REQUESTED:          0  ISSUED:          0  USEFUL:          0  USELESS:          0
L1I USEFUL LOAD PREFETCHES:          0 PREFETCH ISSUED TO LOWER LEVEL:          0  ACCURACY: -nan
L1I TIMELY PREFETCHES:          0 LATE PREFETCHES: 0 DROPPED PREFETCHES: 0
L1I COMMIT LATE PREFETCHES: 0 MISSED OPPORTUNITY: 0 LATE IN PQ: 0 UNCOVERED: 0
L1I COMMIT LATE MSHR PREFETCHES: 0
L1I MPKI TOTAL: 0.000495 MSHR LATE: 0 PQ LATE: 0 COMMIT LATE: 0 MISSED OPPORTUNITY: 0 UNCOVERED: 0
L1I PREFETCHES SAME FILL-ORIGIN LEVEL: 0 DIFFERENT FILL-ORIGIN LEVEL: 0
L1I AVERAGE MISS LATENCY: 198.022 cycles
L1I AVERAGE MISS LATENCY LOAD: 198.022 cycles
L1I AVERAGE MISS LATENCY PREFETCH: -nan cycles
L1I AVERAGE MSHR OCCUPANCY: 7.44354e-07
L1I MSHR FULL: 0
L1I RQ	ACCESS:   80009691	FORWARD:          0	MERGED:   30302168	TO_CACHE:   49707523

BTB SPEC fills:          0  NON-SPEC fills:          0
BTB Test counter :          0
BTB Leapfrog:          0
BTB MSHR merge:          0
BTB TOTAL     ACCESS:   37936625  HIT:   37889779  MISS:      46846  HIT %:    99.8765  MISS %:   0.123485   MPKI: 0.23423
BTB BRANCH_DIRECT_JUMP	ACCESS:    4848253  HIT:    4848175  MISS:         78
BTB BRANCH_INDIRECT	ACCESS:          0  HIT:          0  MISS:          0
BTB BRANCH_CONDITIONAL	ACCESS:   28192639  HIT:   28192467  MISS:        172
BTB BRANCH_DIRECT_CALL	ACCESS:    2447841  HIT:    2447798  MISS:         43
BTB BRANCH_INDIRECT_CALL	ACCESS:         26  HIT:         25  MISS:          1
BTB BRANCH_RETURN	ACCESS:    2447866  HIT:    2401314  MISS:      46552
BTB BRANCH_OTHER ACCESS:          0  HIT:          0  MISS:          0

L2C SPEC fills:          0  NON-SPEC fills:      43481
L2C Test counter :          0
L2C Leapfrog:          0
L2C MSHR merge:       4439
L2C TOTAL     ACCESS:    7072277  HIT:    4871760  MISS:    2200517  HIT %:    68.8853  MISS %:    31.1147   MPKI: 11.0026
L2C LOAD      TOTAL       ACCESS:    3627938  HIT:    3499860  MISS:     128078  HIT %:    96.4697  MISS %:    3.53032   MPKI: 0.64039
L2C LOAD      NON_SPEC    ACCESS:     336812  HIT:     293242  MISS:      43570  HIT %:     87.064  MISS %:     12.936   MPKI: 0.21785
L2C LOAD      SPEC        ACCESS:    3291126  HIT:    3206618  MISS:      84508  HIT %:    97.4322  MISS %:    2.56775   MPKI: 0.42254
L2C RFO       NON_SPEC    ACCESS:       3309  HIT:        598  MISS:       2711  HIT %:    18.0719  MISS %:    81.9281   MPKI: 0.013555
L2C PREFETCH  NON_SPEC    ACCESS:    2243003  HIT:     278525  MISS:    1964478  HIT %:    12.4175  MISS %:    87.5825   MPKI: 9.82239
L2C WRITEBACK NON_SPEC    ACCESS:      16200  HIT:      16160  MISS:         40  HIT %:    99.7531  MISS %:   0.246914   MPKI: 0.0002
L2C CLEAN_EVICTION NON_SPEC    ACCESS:     913464  HIT:     829192  MISS:      84272  HIT %:    90.7745  MISS %:    9.22554   MPKI: 0.42136
L2C COMMIT LOAD NON_SPEC    ACCESS:       5342  HIT:       5282  MISS:         60  HIT %:    98.8768  MISS %:    1.12317   MPKI: 0.0003
L2C LOAD TRANSLATION NON_SPEC    ACCESS:     263021  HIT:     242143  MISS:      20878  HIT %:    92.0622  MISS %:    7.93777   MPKI: 0.10439
L2C PREFETCH  REQUESTED:    2251162  ISSUED:    2251162  USEFUL:    1782771  USELESS:     181541
L2C USEFUL LOAD PREFETCHES:    1782771 PREFETCH ISSUED TO LOWER LEVEL:    1968925  ACCURACY: 90.5454
L2C TIMELY PREFETCHES:    1782771 LATE PREFETCHES: 4447 DROPPED PREFETCHES: 0
L2C COMMIT LATE PREFETCHES: 0 MISSED OPPORTUNITY: 0 LATE IN PQ: 0 UNCOVERED: 0
L2C COMMIT LATE MSHR PREFETCHES: 0
L2C MPKI TOTAL: 0.64039 MSHR LATE: 0.022235 PQ LATE: 0 COMMIT LATE: 0 MISSED OPPORTUNITY: 0 UNCOVERED: 0
L2C PREFETCHES SAME FILL-ORIGIN LEVEL: 1968925 DIFFERENT FILL-ORIGIN LEVEL: 0
L2C AVERAGE MISS LATENCY: 147.407 cycles
L2C AVERAGE MISS LATENCY LOAD: 131.081 cycles
L2C AVERAGE MISS LATENCY PREFETCH: 154.461 cycles
L2C AVERAGE MSHR OCCUPANCY: 0.44758
L2C MSHR FULL: 0
L2C RQ	ACCESS:    3899612	FORWARD:          0	MERGED:          0	TO_CACHE:    3899610
L2C WQ	ACCESS:     929664	FORWARD:          2	MERGED:          0	TO_CACHE:     929664
L2C PQ	ACCESS:    2251162	FORWARD:          0	MERGED:          0	TO_CACHE:    2251162

L2C Instructions Evicting Data 87
L2C Translations Evicting Data 20582
L2C Data Evicting Data 1991025
L2C Instructions Evicting Instructions 0
L2C Translations Evicting Instructions 1
L2C Data Evicting Instructions 77
L2C Instructions Evicting Translations 2
L2C Translations Evicting Translations 295
L2C Data Evicting Translations 19628
L2C Dense regions hint from L2: 0
PSCL5 SPEC fills:          0  NON-SPEC fills:          0
PSCL5 Test counter :          0
PSCL5 Leapfrog:          0
PSCL5 MSHR merge:          0
PSCL5 TOTAL     ACCESS:          0  HIT:          0  MISS:          0  HIT %:       -nan  MISS %:       -nan   MPKI: 0
PSCL5 PREFETCH  REQUESTED:          0  ISSUED:          0  USEFUL:          0  USELESS:          0
PSCL5 USEFUL LOAD PREFETCHES:          0 PREFETCH ISSUED TO LOWER LEVEL:          0  ACCURACY: -nan
PSCL5 TIMELY PREFETCHES:          0 LATE PREFETCHES: 0 DROPPED PREFETCHES: 0
PSCL5 COMMIT LATE PREFETCHES: 0 MISSED OPPORTUNITY: 0 LATE IN PQ: 0 UNCOVERED: 0
PSCL5 COMMIT LATE MSHR PREFETCHES: 0
PSCL5 MPKI TOTAL: 0 MSHR LATE: 0 PQ LATE: 0 COMMIT LATE: 0 MISSED OPPORTUNITY: 0 UNCOVERED: 0
PSCL5 PREFETCHES SAME FILL-ORIGIN LEVEL: 0 DIFFERENT FILL-ORIGIN LEVEL: 0

PSCL4 SPEC fills:          0  NON-SPEC fills:          0
PSCL4 Test counter :          0
PSCL4 Leapfrog:          0
PSCL4 MSHR merge:          0
PSCL4 TOTAL     ACCESS:          0  HIT:          0  MISS:          0  HIT %:       -nan  MISS %:       -nan   MPKI: 0
PSCL4 PREFETCH  REQUESTED:          0  ISSUED:          0  USEFUL:          0  USELESS:          0
PSCL4 USEFUL LOAD PREFETCHES:          0 PREFETCH ISSUED TO LOWER LEVEL:          0  ACCURACY: -nan
PSCL4 TIMELY PREFETCHES:          0 LATE PREFETCHES: 0 DROPPED PREFETCHES: 0
PSCL4 COMMIT LATE PREFETCHES: 0 MISSED OPPORTUNITY: 0 LATE IN PQ: 0 UNCOVERED: 0
PSCL4 COMMIT LATE MSHR PREFETCHES: 0
PSCL4 MPKI TOTAL: 0 MSHR LATE: 0 PQ LATE: 0 COMMIT LATE: 0 MISSED OPPORTUNITY: 0 UNCOVERED: 0
PSCL4 PREFETCHES SAME FILL-ORIGIN LEVEL: 0 DIFFERENT FILL-ORIGIN LEVEL: 0

PSCL3 SPEC fills:          0  NON-SPEC fills:          0
PSCL3 Test counter :          0
PSCL3 Leapfrog:          0
PSCL3 MSHR merge:          0
PSCL3 TOTAL     ACCESS:          0  HIT:          0  MISS:          0  HIT %:       -nan  MISS %:       -nan   MPKI: 0
PSCL3 PREFETCH  REQUESTED:          0  ISSUED:          0  USEFUL:          0  USELESS:          0
PSCL3 USEFUL LOAD PREFETCHES:          0 PREFETCH ISSUED TO LOWER LEVEL:          0  ACCURACY: -nan
PSCL3 TIMELY PREFETCHES:          0 LATE PREFETCHES: 0 DROPPED PREFETCHES: 0
PSCL3 COMMIT LATE PREFETCHES: 0 MISSED OPPORTUNITY: 0 LATE IN PQ: 0 UNCOVERED: 0
PSCL3 COMMIT LATE MSHR PREFETCHES: 0
PSCL3 MPKI TOTAL: 0 MSHR LATE: 0 PQ LATE: 0 COMMIT LATE: 0 MISSED OPPORTUNITY: 0 UNCOVERED: 0
PSCL3 PREFETCHES SAME FILL-ORIGIN LEVEL: 0 DIFFERENT FILL-ORIGIN LEVEL: 0

PSCL2 SPEC fills:          0  NON-SPEC fills:          0
PSCL2 Test counter :          0
PSCL2 Leapfrog:          0
PSCL2 MSHR merge:          0
PSCL2 TOTAL     ACCESS:          0  HIT:          0  MISS:          0  HIT %:       -nan  MISS %:       -nan   MPKI: 0
PSCL2 PREFETCH  REQUESTED:          0  ISSUED:          0  USEFUL:          0  USELESS:          0
PSCL2 USEFUL LOAD PREFETCHES:          0 PREFETCH ISSUED TO LOWER LEVEL:          0  ACCURACY: -nan
PSCL2 TIMELY PREFETCHES:          0 LATE PREFETCHES: 0 DROPPED PREFETCHES: 0
PSCL2 COMMIT LATE PREFETCHES: 0 MISSED OPPORTUNITY: 0 LATE IN PQ: 0 UNCOVERED: 0
PSCL2 COMMIT LATE MSHR PREFETCHES: 0
PSCL2 MPKI TOTAL: 0 MSHR LATE: 0 PQ LATE: 0 COMMIT LATE: 0 MISSED OPPORTUNITY: 0 UNCOVERED: 0
PSCL2 PREFETCHES SAME FILL-ORIGIN LEVEL: 0 DIFFERENT FILL-ORIGIN LEVEL: 0

LLC SPEC fills:          0  NON-SPEC fills:      35468
LLC Test counter :          0
LLC Leapfrog:          0
LLC MSHR merge:          0
LLC TOTAL     ACCESS:    2434633  HIT:     298159  MISS:    2136474  HIT %:    12.2466  MISS %:    87.7534   MPKI: 10.6824
LLC LOAD      TOTAL       ACCESS:     123638  HIT:      15126  MISS:     108512  HIT %:    12.2341  MISS %:    87.7659   MPKI: 0.54256
LLC LOAD      NON_SPEC    ACCESS:      41322  HIT:       5765  MISS:      35557  HIT %:    13.9514  MISS %:    86.0486   MPKI: 0.177785
LLC LOAD      SPEC        ACCESS:      82316  HIT:       9361  MISS:      72955  HIT %:     11.372  MISS %:     88.628   MPKI: 0.364775
LLC RFO       NON_SPEC    ACCESS:       2703  HIT:         48  MISS:       2655  HIT %:     1.7758  MISS %:    98.2242   MPKI: 0.013275
LLC PREFETCH  NON_SPEC    ACCESS:    1968924  HIT:      39173  MISS:    1929751  HIT %:    1.98956  MISS %:    98.0104   MPKI: 9.64875
LLC WRITEBACK NON_SPEC    ACCESS:       9311  HIT:       8220  MISS:       1091  HIT %:    88.2827  MISS %:    11.7173   MPKI: 0.005455
LLC CLEAN_EVICTION NON_SPEC    ACCESS:     309119  HIT:     233558  MISS:      75561  HIT %:     75.556  MISS %:     24.444   MPKI: 0.377805
LLC COMMIT LOAD NON_SPEC    ACCESS:         60  HIT:         25  MISS:         35  HIT %:    41.6667  MISS %:    58.3333   MPKI: 0.000175
LLC LOAD TRANSLATION NON_SPEC    ACCESS:      20878  HIT:       2009  MISS:      18869  HIT %:    9.62257  MISS %:    90.3774   MPKI: 0.094345
LLC PREFETCH  REQUESTED:          0  ISSUED:          0  USEFUL:       2031  USELESS:    1927786
LLC USEFUL LOAD PREFETCHES:       2031 PREFETCH ISSUED TO LOWER LEVEL:    1929751  ACCURACY: 0.105247
LLC TIMELY PREFETCHES:       2031 LATE PREFETCHES: 0 DROPPED PREFETCHES: 0
LLC COMMIT LATE PREFETCHES: 0 MISSED OPPORTUNITY: 0 LATE IN PQ: 0 UNCOVERED: 0
LLC COMMIT LATE MSHR PREFETCHES: 0
LLC MPKI TOTAL: 0.54256 MSHR LATE: 0 PQ LATE: 0 COMMIT LATE: 0 MISSED OPPORTUNITY: 0 UNCOVERED: 0
LLC PREFETCHES SAME FILL-ORIGIN LEVEL: 0 DIFFERENT FILL-ORIGIN LEVEL: 0
LLC AVERAGE MISS LATENCY: 122.712 cycles
LLC AVERAGE MISS LATENCY LOAD: 125.011 cycles
LLC AVERAGE MISS LATENCY PREFETCH: 127.047 cycles
LLC AVERAGE MSHR OCCUPANCY: 0.247028
LLC MSHR FULL: 0
LLC RQ	ACCESS:     147280	FORWARD:          0	MERGED:          0	TO_CACHE:     147279
LLC WQ	ACCESS:     318430	FORWARD:          2	MERGED:          0	TO_CACHE:     318430
LLC PQ	ACCESS:    1968925	FORWARD:          0	MERGED:          0	TO_CACHE:    1968924

LLC Dense regions hint to LLC: 0

RAW hits: 62245
Loads Generated: 52931823
Loads sent to L1D: 52869577
Stores Generated: 21939796
Stores sent to L1D: 21939797
Major fault: 0 Minor fault: 9448
Allocated PAGES: 9448
Total Load insts: 65986331
Total Non-spec loads: 18648857
Percentage of speculative loads: 71.7383

LeapFrogging counter: 0
Commit hits: 18131710 miss: 19460801
Commit hit %: 48.2322 miss %: 51.7678
Commits not translated: 0
Loads retired: 3627851
Stores retired: 21939797
Cache fills: 3627851
L1D response latency: 15.9878 cycles
Load retirement latency: 62.4055 cycles
OOO test counter: 0
Discarded buffer inserts: 18131710 hits: 11075 hit %: 0.0610808
Filter prediction accuracy: 97.6355
[Bingo] PHT Access: 118938
[Bingo] PHT Hit PC+Addr: 28880
[Bingo] PHT Hit PC+Offs: 84684
[Bingo] PHT Miss: 5374
[Bingo] Prefetch PC+Addr: 0
[Bingo] Prefetch PC+Offs: 0
[Bingo] Useful PC+Addr: 0
[Bingo] Useful PC+Offs: 0
[Bingo] Useless PC+Addr: 0
[Bingo] Useless PC+Offs: 0
[Bingo] L1 Prefetch per Region: 0
[Bingo] L2 Prefetch per Region: 20.998
[Bingo] L3 Prefetch per Region: 0
[Bingo] No Prefetch per Region: 11.002
[Bingo] Number of Voters Mean: 13.7147
[Bingo] Number of Voters SD: 7.78995
PHT read accesses: 1519212
PHT write accesses: 94824
AT read accesses: 3473597
AT write accesses: 3554240
FT read accesses: 395183
FT write accesses: 118938
PS read accesses: 295679
PS write accesses: 113564
PHT tag read accesses: 4229941
PHT tag write accesses: 123704
AT tag read accesses: 96347038
AT tag write accesses: 3568420
FT tag read accesses: 42415828
FT tag write accesses: 369804
PS tag read accesses: 62443359
PS tag write accesses: 407428

DRAM Statistics
 CHANNEL 0
 RQ ROW_BUFFER_HIT:    1647165  ROW_BUFFER_MISS:     412655
 DBUS_CONGESTED:        395
 WQ ROW_BUFFER_HIT:      25001  ROW_BUFFER_MISS:     293221  FULL:          0

 AVG_CONGESTED_CYCLE: 5
 All warmup complete: 2
Channel 0 Bank busy for read cycles: 0
Channel 0 Bank busy for write cycles: 0
Channel 0
Rank 0
0banks busy for read cycles: 379430022
0banks busy for write cycles: 82749
1banks busy for read cycles: 11087434
1banks busy for write cycles: 10190972
2banks busy for read cycles: 2573693
2banks busy for write cycles: 2783082
3banks busy for read cycles: 1540464
3banks busy for write cycles: 1679940
4banks busy for read cycles: 1273111
4banks busy for write cycles: 1364019
5banks busy for read cycles: 1236067
5banks busy for write cycles: 1245220
6banks busy for read cycles: 1220789
6banks busy for write cycles: 1180028
7banks busy for read cycles: 2913717
7banks busy for write cycles: 1055844
8banks busy for read cycles: 10552611
8banks busy for write cycles: 766745

CPU 0 Branch Prediction Accuracy: 99.9023% MPKI: 0.234695 Average ROB Occupancy at Mispredict: 78.655
Branch types
NOT_BRANCH: 151969688 75.9848%
BRANCH_DIRECT_JUMP: 4848253 2.42413%
BRANCH_INDIRECT: 0 0%
BRANCH_CONDITIONAL: 38286306 19.1432%
BRANCH_DIRECT_CALL: 2447841 1.22392%
BRANCH_INDIRECT_CALL: 26 1.3e-05%
BRANCH_RETURN: 2447866 1.22393%
BRANCH_OTHER: 0 0%

DRAM PAGES: 1048576
Allocated PAGES: 9448
