
*** ChampSim Multicore Out-of-Order Simulator ***

Warmup Instructions: 50000000
Simulation Instructions: 200000000
Number of CPUs: 1
LLC sets: 2048
LLC ways: 16
L0D sets: 16
L0D ways: 2
ROB size: 352
LQ size: 128
SQ size: 72
Secure Berti: OFF
Berti: OFF
Berti Fill: OFF
On commit prefetching: OFF
Hit-based filter: ON
Time-guarding: ON
Free-slotting: ON
Leap-frogging: ON
Train prefetcher on L0D bypass: OFF
No translation penalty for prefetchers: OFF
Prefetch to L0D only: OFF
Prefetch to L1D only: OFF
Clean evictions: ON
Commit loads: ON
Commit write: ON
Fill commit loads to L2C, LLC: ON
DRAM IO FREQUENCY: 6400
ROB SIZE: 352
Off-chip DRAM Size: 4096 MB Channels: 1 Width: 64-bit Data Rate: 6400 MT/s
CPU 0 runs /home/sumon/secure_berti/GhostMinion/../../traces/spec/602.gcc_s-2226B.champsimtrace.xz
.xz
BTB has LRU replacement policy
ITLB has LRU replacement policy
DTLB has LRU replacement policy
STLB has LRU replacement policy
L1I has LRU replacement policy
L0D has LRU replacement policy
L1D has LRU replacement policy
Bingo PHT WAYS: 16 and PHT_SIZE: 16384
L2C has LRU replacement policy
LLC has LRU replacement policy
Heartbeat CPU 0 instructions: 10000002 cycles: 6804140 heartbeat IPC: 1.46969 cumulative IPC: 1.46969 (Simulation time: 0 hr 0 min 38 sec) 
Heartbeat CPU 0 instructions: 20000000 cycles: 13609022 heartbeat IPC: 1.46953 cumulative IPC: 1.46961 (Simulation time: 0 hr 1 min 17 sec) 
Heartbeat CPU 0 instructions: 30000001 cycles: 20427216 heartbeat IPC: 1.46666 cumulative IPC: 1.46863 (Simulation time: 0 hr 1 min 56 sec) 
Heartbeat CPU 0 instructions: 40000002 cycles: 27250384 heartbeat IPC: 1.4656 cumulative IPC: 1.46787 (Simulation time: 0 hr 2 min 33 sec) 
Heartbeat CPU 0 instructions: 50000000 cycles: 34039457 heartbeat IPC: 1.47295 cumulative IPC: 1.46888 (Simulation time: 0 hr 3 min 10 sec) 

Warmup complete CPU 0 instructions: 50000004 cycles: 34039458 (Simulation time: 0 hr 3 min 10 sec) 

Heartbeat CPU 0 instructions: 60000002 cycles: 64454490 heartbeat IPC: 0.328785 cumulative IPC: 0.328785 (Simulation time: 0 hr 4 min 2 sec) 
Heartbeat CPU 0 instructions: 70000000 cycles: 94368707 heartbeat IPC: 0.334289 cumulative IPC: 0.331514 (Simulation time: 0 hr 4 min 54 sec) 
Heartbeat CPU 0 instructions: 80000000 cycles: 124440662 heartbeat IPC: 0.332536 cumulative IPC: 0.331854 (Simulation time: 0 hr 5 min 45 sec) 
Heartbeat CPU 0 instructions: 90000001 cycles: 154860989 heartbeat IPC: 0.328728 cumulative IPC: 0.331067 (Simulation time: 0 hr 6 min 37 sec) 
Heartbeat CPU 0 instructions: 100000001 cycles: 185059269 heartbeat IPC: 0.331145 cumulative IPC: 0.331082 (Simulation time: 0 hr 7 min 28 sec) 
Heartbeat CPU 0 instructions: 110000000 cycles: 214942729 heartbeat IPC: 0.334633 cumulative IPC: 0.331669 (Simulation time: 0 hr 8 min 19 sec) 
Heartbeat CPU 0 instructions: 120000000 cycles: 245267705 heartbeat IPC: 0.329761 cumulative IPC: 0.331395 (Simulation time: 0 hr 9 min 10 sec) 
Heartbeat CPU 0 instructions: 130000001 cycles: 275721092 heartbeat IPC: 0.328371 cumulative IPC: 0.331014 (Simulation time: 0 hr 10 min 1 sec) 
Heartbeat CPU 0 instructions: 140000000 cycles: 305764650 heartbeat IPC: 0.33285 cumulative IPC: 0.331217 (Simulation time: 0 hr 10 min 51 sec) 
Heartbeat CPU 0 instructions: 150000001 cycles: 335778335 heartbeat IPC: 0.333181 cumulative IPC: 0.331412 (Simulation time: 0 hr 11 min 42 sec) 
Heartbeat CPU 0 instructions: 160000002 cycles: 366132777 heartbeat IPC: 0.329441 cumulative IPC: 0.331232 (Simulation time: 0 hr 12 min 31 sec) 
Heartbeat CPU 0 instructions: 170000001 cycles: 396514493 heartbeat IPC: 0.329145 cumulative IPC: 0.331057 (Simulation time: 0 hr 13 min 20 sec) 
Heartbeat CPU 0 instructions: 180000000 cycles: 426411332 heartbeat IPC: 0.334483 cumulative IPC: 0.331318 (Simulation time: 0 hr 14 min 9 sec) 
Heartbeat CPU 0 instructions: 190000002 cycles: 456491098 heartbeat IPC: 0.332449 cumulative IPC: 0.331399 (Simulation time: 0 hr 14 min 57 sec) 
Heartbeat CPU 0 instructions: 200000000 cycles: 486879249 heartbeat IPC: 0.329076 cumulative IPC: 0.331243 (Simulation time: 0 hr 15 min 43 sec) 
Heartbeat CPU 0 instructions: 210000003 cycles: 517038809 heartbeat IPC: 0.33157 cumulative IPC: 0.331263 (Simulation time: 0 hr 16 min 29 sec) 
Heartbeat CPU 0 instructions: 220000000 cycles: 546947233 heartbeat IPC: 0.334354 cumulative IPC: 0.331444 (Simulation time: 0 hr 17 min 14 sec) 
Heartbeat CPU 0 instructions: 230000000 cycles: 577255990 heartbeat IPC: 0.329938 cumulative IPC: 0.33136 (Simulation time: 0 hr 17 min 59 sec) 
Heartbeat CPU 0 instructions: 240000001 cycles: 607687092 heartbeat IPC: 0.328611 cumulative IPC: 0.331214 (Simulation time: 0 hr 18 min 45 sec) 
Heartbeat CPU 0 instructions: 250000000 cycles: 637729542 heartbeat IPC: 0.332862 cumulative IPC: 0.331296 (Simulation time: 0 hr 19 min 30 sec) 
Finished CPU 0 instructions: 200000000 cycles: 603690085 cumulative IPC: 0.331296 (Simulation time: 0 hr 19 min 30 sec) 
 Instruction ID: 250000373

ChampSim completed all CPUs

Region of Interest Statistics

CPU 0 cumulative IPC: 0.331296 instructions: 200000000 cycles: 603690085
ITLB SPEC fills:          0  NON-SPEC fills:          0
ITLB Test counter :          0
ITLB Leapfrog:          0
ITLB MSHR merge:          0
ITLB TOTAL     ACCESS:   39811209  HIT:   39811209  MISS:          0  HIT %:        100  MISS %:          0   MPKI: 0
ITLB LOAD TRANSLATION NON_SPEC    ACCESS:   39811209  HIT:   39811209  MISS:          0  HIT %:        100  MISS %:          0   MPKI: 0
ITLB PREFETCH  REQUESTED:          0  ISSUED:          0  USEFUL:          0  USELESS:          0
ITLB USEFUL LOAD PREFETCHES:          0 PREFETCH ISSUED TO LOWER LEVEL:          0  ACCURACY: -nan
ITLB TIMELY PREFETCHES:          0 LATE PREFETCHES: 0 DROPPED PREFETCHES: 0
ITLB COMMIT LATE PREFETCHES: 0 MISSED OPPORTUNITY: 0 LATE IN PQ: 0 UNCOVERED: 0
ITLB COMMIT LATE MSHR PREFETCHES: 0
ITLB MPKI TOTAL: 0 MSHR LATE: 0 PQ LATE: 0 COMMIT LATE: 0 MISSED OPPORTUNITY: 0 UNCOVERED: 0
ITLB PREFETCHES SAME FILL-ORIGIN LEVEL: 0 DIFFERENT FILL-ORIGIN LEVEL: 0
ITLB AVERAGE MISS LATENCY: -nan cycles
ITLB AVERAGE MISS LATENCY LOAD: -nan cycles
ITLB AVERAGE MISS LATENCY PREFETCH: -nan cycles
ITLB AVERAGE MSHR OCCUPANCY: 0
ITLB MSHR FULL: 0
ITLB RQ	ACCESS:   40509205	FORWARD:          0	MERGED:     697996	TO_CACHE:   39811209

DTLB SPEC fills:          0  NON-SPEC fills:          0
DTLB Test counter :          0
DTLB Leapfrog:          0
DTLB MSHR merge:          0
DTLB TOTAL     ACCESS:   31408445  HIT:   31134940  MISS:     273505  HIT %:    99.1292  MISS %:   0.870801   MPKI: 1.36753
DTLB LOAD TRANSLATION NON_SPEC    ACCESS:   31408445  HIT:   31134940  MISS:     273505  HIT %:    99.1292  MISS %:   0.870801   MPKI: 1.36753
DTLB PREFETCH  REQUESTED:          0  ISSUED:          0  USEFUL:          0  USELESS:          0
DTLB USEFUL LOAD PREFETCHES:          0 PREFETCH ISSUED TO LOWER LEVEL:          0  ACCURACY: -nan
DTLB TIMELY PREFETCHES:          0 LATE PREFETCHES: 0 DROPPED PREFETCHES: 0
DTLB COMMIT LATE PREFETCHES: 0 MISSED OPPORTUNITY: 0 LATE IN PQ: 0 UNCOVERED: 0
DTLB COMMIT LATE MSHR PREFETCHES: 0
DTLB MPKI TOTAL: 0 MSHR LATE: 0 PQ LATE: 0 COMMIT LATE: 0 MISSED OPPORTUNITY: 0 UNCOVERED: 0
DTLB PREFETCHES SAME FILL-ORIGIN LEVEL: 0 DIFFERENT FILL-ORIGIN LEVEL: 0
DTLB AVERAGE MISS LATENCY: 112.893 cycles
DTLB AVERAGE MISS LATENCY LOAD: -nan cycles
DTLB AVERAGE MISS LATENCY PREFETCH: -nan cycles
DTLB AVERAGE MSHR OCCUPANCY: 0.00485255
DTLB MSHR FULL: 0
DTLB RQ	ACCESS:   36943697	FORWARD:          0	MERGED:    5534027	TO_CACHE:   31409670

STLB SPEC fills:          0  NON-SPEC fills:          0
STLB Test counter :          0
STLB Leapfrog:          0
STLB MSHR merge:          0
STLB TOTAL     ACCESS:     273505  HIT:       9929  MISS:     263576  HIT %:    3.63028  MISS %:    96.3697   MPKI: 1.31788
STLB LOAD TRANSLATION NON_SPEC    ACCESS:     273505  HIT:       9929  MISS:     263576  HIT %:    3.63028  MISS %:    96.3697   MPKI: 1.31788
STLB PREFETCH  REQUESTED:          0  ISSUED:          0  USEFUL:          0  USELESS:          0
STLB USEFUL LOAD PREFETCHES:          0 PREFETCH ISSUED TO LOWER LEVEL:          0  ACCURACY: -nan
STLB TIMELY PREFETCHES:          0 LATE PREFETCHES: 0 DROPPED PREFETCHES: 0
STLB COMMIT LATE PREFETCHES: 0 MISSED OPPORTUNITY: 0 LATE IN PQ: 0 UNCOVERED: 0
STLB COMMIT LATE MSHR PREFETCHES: 0
STLB MPKI TOTAL: 0 MSHR LATE: 0 PQ LATE: 0 COMMIT LATE: 0 MISSED OPPORTUNITY: 0 UNCOVERED: 0
STLB PREFETCHES SAME FILL-ORIGIN LEVEL: 0 DIFFERENT FILL-ORIGIN LEVEL: 0
STLB AVERAGE MISS LATENCY: 107.806 cycles
STLB AVERAGE MISS LATENCY LOAD: -nan cycles
STLB AVERAGE MISS LATENCY PREFETCH: -nan cycles
STLB AVERAGE MSHR OCCUPANCY: 0.00390852
STLB MSHR FULL: 0
STLB RQ	ACCESS:     273505	FORWARD:          0	MERGED:          0	TO_CACHE:     273505

STLB Hit, L1D data hit: 0
STLB Hit, L2C data hit: 0
STLB Hit, LLC data hit: 0
STLB Hit, LLC data miss: 0
STLB STLB hints to L2: 0
L0D SPEC fills:   13810522  NON-SPEC fills:          0
L0D TimeGuard Request with older TS:      43081 Restricted eviction:       2397 read:      78934
L0D Test counter :          0
L0D Leapfrog:          0
L0D MSHR merge:    5159075
L0D TOTAL     ACCESS:   28831759  HIT:    1310867  MISS:   27520892  HIT %:    4.54661  MISS %:    95.4534   MPKI: 137.604
L0D LOAD      TOTAL       ACCESS:   28831759  HIT:    1310867  MISS:   27520892  HIT %:    4.54661  MISS %:    95.4534   MPKI: 137.604
L0D LOAD      NON_SPEC    ACCESS:   13742719  HIT:      34746  MISS:   13707973  HIT %:   0.252832  MISS %:    99.7472   MPKI: 68.5399
L0D LOAD      SPEC        ACCESS:   15089040  HIT:    1276121  MISS:   13812919  HIT %:    8.45727  MISS %:    91.5427   MPKI: 69.0646
L0D PREFETCH  REQUESTED:          0  ISSUED:          0  USEFUL:          0  USELESS:          0
L0D USEFUL LOAD PREFETCHES:          0 PREFETCH ISSUED TO LOWER LEVEL:          0  ACCURACY: -nan
L0D TIMELY PREFETCHES:          0 LATE PREFETCHES: 0 DROPPED PREFETCHES: 0
L0D COMMIT LATE PREFETCHES: 0 MISSED OPPORTUNITY: 0 LATE IN PQ: 0 UNCOVERED: 0
L0D COMMIT LATE MSHR PREFETCHES: 0
L0D MPKI TOTAL: 163.4 MSHR LATE: 0 PQ LATE: 0 COMMIT LATE: 0 MISSED OPPORTUNITY: 0 UNCOVERED: 0
L0D PREFETCHES SAME FILL-ORIGIN LEVEL: 0 DIFFERENT FILL-ORIGIN LEVEL: 0
L0D AVERAGE MISS LATENCY: 15.3986 cycles
L0D AVERAGE MISS LATENCY LOAD: 15.3986 cycles
L0D AVERAGE MISS LATENCY PREFETCH: -nan cycles
L0D AVERAGE MSHR OCCUPANCY: 0.41966
L0D MSHR FULL: 7.71621e-05
L0D RQ	ACCESS:   71766131	FORWARD:          0	MERGED:   37775298	TO_CACHE:   33990833
L0D WQ	ACCESS:    2952864	FORWARD:          0	MERGED:          0	TO_CACHE:    2952864

L1D SPEC fills:          0  NON-SPEC fills:    8554423
L1D Test counter :          0
L1D Leapfrog:          0
L1D MSHR merge:        145
L1D TOTAL     ACCESS:   61764836  HIT:   41912907  MISS:   19851929  HIT %:    67.8588  MISS %:    32.1412   MPKI: 99.2596
L1D LOAD      TOTAL       ACCESS:   27520747  HIT:   13316321  MISS:   14204426  HIT %:    48.3865  MISS %:    51.6135   MPKI: 71.0221
L1D LOAD      NON_SPEC    ACCESS:   13707967  HIT:    5153544  MISS:    8554423  HIT %:    37.5952  MISS %:    62.4048   MPKI: 42.7721
L1D LOAD      SPEC        ACCESS:   13812780  HIT:    8162777  MISS:    5650003  HIT %:    59.0958  MISS %:    40.9042   MPKI: 28.25
L1D RFO       NON_SPEC    ACCESS:    2945316  HIT:    2939827  MISS:       5489  HIT %:    99.8136  MISS %:   0.186364   MPKI: 0.027445
L1D COMMIT LOAD NON_SPEC    ACCESS:   20722750  HIT:   20720937  MISS:       1813  HIT %:    99.9913  MISS %: 0.00874884   MPKI: 0.009065
L1D COMMIT WRITE NON_SPEC    ACCESS:   10576023  HIT:    4935822  MISS:    5640201  HIT %:    46.6699  MISS %:    53.3301   MPKI: 28.201
L1D PREFETCH  REQUESTED:          0  ISSUED:          0  USEFUL:          0  USELESS:          0
L1D USEFUL LOAD PREFETCHES:          0 PREFETCH ISSUED TO LOWER LEVEL:          0  ACCURACY: -nan
L1D TIMELY PREFETCHES:          0 LATE PREFETCHES: 0 DROPPED PREFETCHES: 0
L1D COMMIT LATE PREFETCHES: 0 MISSED OPPORTUNITY: 0 LATE IN PQ: 0 UNCOVERED: 0
L1D COMMIT LATE MSHR PREFETCHES: 0
L1D MPKI TOTAL: 71.0229 MSHR LATE: 0 PQ LATE: 0 COMMIT LATE: 0 MISSED OPPORTUNITY: 0 UNCOVERED: 0
L1D PREFETCHES SAME FILL-ORIGIN LEVEL: 0 DIFFERENT FILL-ORIGIN LEVEL: 0
L1D AVERAGE MISS LATENCY: 14.4533 cycles
L1D AVERAGE MISS LATENCY LOAD: 20.1404 cycles
L1D AVERAGE MISS LATENCY PREFETCH: -nan cycles
L1D AVERAGE MSHR OCCUPANCY: 0.125071
L1D MSHR FULL: 0
L1D RQ	ACCESS:   53153784	FORWARD:          0	MERGED:    4898746	TO_CACHE:   48243717
L1D WQ	ACCESS:   13528970	FORWARD:      11321	MERGED:       7590	TO_CACHE:   13521380

L1D UNIQUE REGIONS ACCESSED: 0
L1D REGIONS CONFLICTS: 0
L1D Cross Page Prefetch Requests: 0
L1D Same Page Prefetch Requests: 0
L1D ROI Sum of L1D PQ occupancy: 0
L1D PREFETCHES PUSHED FROM L2C: 0
L1I SPEC fills:          0  NON-SPEC fills:          0
L1I Test counter :          0
L1I Leapfrog:          0
L1I MSHR merge:          2
L1I TOTAL     ACCESS:   40509202  HIT:   40509177  MISS:         25  HIT %:    99.9999  MISS %: 6.17144e-05   MPKI: 0.000125
L1I LOAD      TOTAL       ACCESS:   40509202  HIT:   40509177  MISS:         25  HIT %:    99.9999  MISS %: 6.17144e-05   MPKI: 0.000125
L1I LOAD      NON_SPEC    ACCESS:   40509202  HIT:   40509177  MISS:         25  HIT %:    99.9999  MISS %: 6.17144e-05   MPKI: 0.000125
L1I PREFETCH  REQUESTED:          0  ISSUED:          0  USEFUL:          0  USELESS:          0
L1I USEFUL LOAD PREFETCHES:          0 PREFETCH ISSUED TO LOWER LEVEL:          0  ACCURACY: -nan
L1I TIMELY PREFETCHES:          0 LATE PREFETCHES: 0 DROPPED PREFETCHES: 0
L1I COMMIT LATE PREFETCHES: 0 MISSED OPPORTUNITY: 0 LATE IN PQ: 0 UNCOVERED: 0
L1I COMMIT LATE MSHR PREFETCHES: 0
L1I MPKI TOTAL: 0.000135 MSHR LATE: 0 PQ LATE: 0 COMMIT LATE: 0 MISSED OPPORTUNITY: 0 UNCOVERED: 0
L1I PREFETCHES SAME FILL-ORIGIN LEVEL: 0 DIFFERENT FILL-ORIGIN LEVEL: 0
L1I AVERAGE MISS LATENCY: 214 cycles
L1I AVERAGE MISS LATENCY LOAD: 214 cycles
L1I AVERAGE MISS LATENCY PREFETCH: -nan cycles
L1I AVERAGE MSHR OCCUPANCY: 3.20915e-07
L1I MSHR FULL: 0
L1I RQ	ACCESS:   59072684	FORWARD:          0	MERGED:   18563479	TO_CACHE:   40509205

BTB SPEC fills:          0  NON-SPEC fills:          0
BTB Test counter :          0
BTB Leapfrog:          0
BTB MSHR merge:          0
BTB TOTAL     ACCESS:   47939699  HIT:   47938637  MISS:       1062  HIT %:    99.9978  MISS %: 0.00221528   MPKI: 0.00531
BTB BRANCH_DIRECT_JUMP	ACCESS:     685292  HIT:     685256  MISS:         36
BTB BRANCH_INDIRECT	ACCESS:          0  HIT:          0  MISS:          0
BTB BRANCH_CONDITIONAL	ACCESS:   46577606  HIT:   46577528  MISS:         78
BTB BRANCH_DIRECT_CALL	ACCESS:     338400  HIT:     338384  MISS:         16
BTB BRANCH_INDIRECT_CALL	ACCESS:          0  HIT:          0  MISS:          0
BTB BRANCH_RETURN	ACCESS:     338401  HIT:     337469  MISS:        932
BTB BRANCH_OTHER ACCESS:          0  HIT:          0  MISS:          0

L2C SPEC fills:          0  NON-SPEC fills:     436797
L2C Test counter :          0
L2C Leapfrog:          0
L2C MSHR merge:     162383
L2C TOTAL     ACCESS:   32075327  HIT:   17093498  MISS:   14981829  HIT %:    53.2917  MISS %:    46.7083   MPKI: 74.9091
L2C LOAD      TOTAL       ACCESS:   14204445  HIT:   13478910  MISS:     725535  HIT %:    94.8922  MISS %:     5.1078   MPKI: 3.62767
L2C LOAD      NON_SPEC    ACCESS:    8554442  HIT:    8117620  MISS:     436822  HIT %:    94.8936  MISS %:    5.10638   MPKI: 2.18411
L2C LOAD      SPEC        ACCESS:    5650003  HIT:    5361290  MISS:     288713  HIT %:      94.89  MISS %:    5.10996   MPKI: 1.44356
L2C RFO       NON_SPEC    ACCESS:       5489  HIT:       1866  MISS:       3623  HIT %:    33.9953  MISS %:    66.0047   MPKI: 0.018115
L2C PREFETCH  NON_SPEC    ACCESS:   13950903  HIT:      49444  MISS:   13901459  HIT %:   0.354414  MISS %:    99.6456   MPKI: 69.5073
L2C WRITEBACK NON_SPEC    ACCESS:       5949  HIT:       5945  MISS:          4  HIT %:    99.9328  MISS %:  0.0672382   MPKI: 2e-05
L2C CLEAN_EVICTION NON_SPEC    ACCESS:    2588855  HIT:    2300372  MISS:     288483  HIT %:    88.8567  MISS %:    11.1433   MPKI: 1.44242
L2C COMMIT LOAD NON_SPEC    ACCESS:       1813  HIT:       1634  MISS:        179  HIT %:    90.1269  MISS %:    9.87314   MPKI: 0.000895
L2C LOAD TRANSLATION NON_SPEC    ACCESS:    1317873  HIT:    1255327  MISS:      62546  HIT %:     95.254  MISS %:    4.74598   MPKI: 0.31273
L2C PREFETCH  REQUESTED:   14121772  ISSUED:   14121772  USEFUL:   13282397  USELESS:     619122
L2C USEFUL LOAD PREFETCHES:   13282397 PREFETCH ISSUED TO LOWER LEVEL:   14063842  ACCURACY: 94.4436
L2C TIMELY PREFETCHES:   13282397 LATE PREFETCHES: 162383 DROPPED PREFETCHES: 0
L2C COMMIT LATE PREFETCHES: 0 MISSED OPPORTUNITY: 0 LATE IN PQ: 0 UNCOVERED: 0
L2C COMMIT LATE MSHR PREFETCHES: 0
L2C MPKI TOTAL: 3.62767 MSHR LATE: 0.811915 PQ LATE: 0 COMMIT LATE: 0 MISSED OPPORTUNITY: 0 UNCOVERED: 0
L2C PREFETCHES SAME FILL-ORIGIN LEVEL: 14063842 DIFFERENT FILL-ORIGIN LEVEL: 0
L2C AVERAGE MISS LATENCY: 155.861 cycles
L2C AVERAGE MISS LATENCY LOAD: 133.942 cycles
L2C AVERAGE MISS LATENCY PREFETCH: 160.093 cycles
L2C AVERAGE MSHR OCCUPANCY: 2.07622
L2C MSHR FULL: 0
L2C RQ	ACCESS:   15529626	FORWARD:          0	MERGED:          0	TO_CACHE:   15529620
L2C WQ	ACCESS:    2594804	FORWARD:          6	MERGED:          0	TO_CACHE:    2594804
L2C PQ	ACCESS:   14121772	FORWARD:          0	MERGED:          0	TO_CACHE:   14121772

L2C Instructions Evicting Data 25
L2C Translations Evicting Data 62376
L2C Data Evicting Data 14280920
L2C Instructions Evicting Instructions 0
L2C Translations Evicting Instructions 0
L2C Data Evicting Instructions 25
L2C Instructions Evicting Translations 0
L2C Translations Evicting Translations 170
L2C Data Evicting Translations 61113
L2C Dense regions hint from L2: 0
PSCL5 SPEC fills:          0  NON-SPEC fills:          0
PSCL5 Test counter :          0
PSCL5 Leapfrog:          0
PSCL5 MSHR merge:          0
PSCL5 TOTAL     ACCESS:          0  HIT:          0  MISS:          0  HIT %:       -nan  MISS %:       -nan   MPKI: 0
PSCL5 PREFETCH  REQUESTED:          0  ISSUED:          0  USEFUL:          0  USELESS:          0
PSCL5 USEFUL LOAD PREFETCHES:          0 PREFETCH ISSUED TO LOWER LEVEL:          0  ACCURACY: -nan
PSCL5 TIMELY PREFETCHES:          0 LATE PREFETCHES: 0 DROPPED PREFETCHES: 0
PSCL5 COMMIT LATE PREFETCHES: 0 MISSED OPPORTUNITY: 0 LATE IN PQ: 0 UNCOVERED: 0
PSCL5 COMMIT LATE MSHR PREFETCHES: 0
PSCL5 MPKI TOTAL: 0 MSHR LATE: 0 PQ LATE: 0 COMMIT LATE: 0 MISSED OPPORTUNITY: 0 UNCOVERED: 0
PSCL5 PREFETCHES SAME FILL-ORIGIN LEVEL: 0 DIFFERENT FILL-ORIGIN LEVEL: 0

PSCL4 SPEC fills:          0  NON-SPEC fills:          0
PSCL4 Test counter :          0
PSCL4 Leapfrog:          0
PSCL4 MSHR merge:          0
PSCL4 TOTAL     ACCESS:          0  HIT:          0  MISS:          0  HIT %:       -nan  MISS %:       -nan   MPKI: 0
PSCL4 PREFETCH  REQUESTED:          0  ISSUED:          0  USEFUL:          0  USELESS:          0
PSCL4 USEFUL LOAD PREFETCHES:          0 PREFETCH ISSUED TO LOWER LEVEL:          0  ACCURACY: -nan
PSCL4 TIMELY PREFETCHES:          0 LATE PREFETCHES: 0 DROPPED PREFETCHES: 0
PSCL4 COMMIT LATE PREFETCHES: 0 MISSED OPPORTUNITY: 0 LATE IN PQ: 0 UNCOVERED: 0
PSCL4 COMMIT LATE MSHR PREFETCHES: 0
PSCL4 MPKI TOTAL: 0 MSHR LATE: 0 PQ LATE: 0 COMMIT LATE: 0 MISSED OPPORTUNITY: 0 UNCOVERED: 0
PSCL4 PREFETCHES SAME FILL-ORIGIN LEVEL: 0 DIFFERENT FILL-ORIGIN LEVEL: 0

PSCL3 SPEC fills:          0  NON-SPEC fills:          0
PSCL3 Test counter :          0
PSCL3 Leapfrog:          0
PSCL3 MSHR merge:          0
PSCL3 TOTAL     ACCESS:          0  HIT:          0  MISS:          0  HIT %:       -nan  MISS %:       -nan   MPKI: 0
PSCL3 PREFETCH  REQUESTED:          0  ISSUED:          0  USEFUL:          0  USELESS:          0
PSCL3 USEFUL LOAD PREFETCHES:          0 PREFETCH ISSUED TO LOWER LEVEL:          0  ACCURACY: -nan
PSCL3 TIMELY PREFETCHES:          0 LATE PREFETCHES: 0 DROPPED PREFETCHES: 0
PSCL3 COMMIT LATE PREFETCHES: 0 MISSED OPPORTUNITY: 0 LATE IN PQ: 0 UNCOVERED: 0
PSCL3 COMMIT LATE MSHR PREFETCHES: 0
PSCL3 MPKI TOTAL: 0 MSHR LATE: 0 PQ LATE: 0 COMMIT LATE: 0 MISSED OPPORTUNITY: 0 UNCOVERED: 0
PSCL3 PREFETCHES SAME FILL-ORIGIN LEVEL: 0 DIFFERENT FILL-ORIGIN LEVEL: 0

PSCL2 SPEC fills:          0  NON-SPEC fills:          0
PSCL2 Test counter :          0
PSCL2 Leapfrog:          0
PSCL2 MSHR merge:          0
PSCL2 TOTAL     ACCESS:          0  HIT:          0  MISS:          0  HIT %:       -nan  MISS %:       -nan   MPKI: 0
PSCL2 PREFETCH  REQUESTED:          0  ISSUED:          0  USEFUL:          0  USELESS:          0
PSCL2 USEFUL LOAD PREFETCHES:          0 PREFETCH ISSUED TO LOWER LEVEL:          0  ACCURACY: -nan
PSCL2 TIMELY PREFETCHES:          0 LATE PREFETCHES: 0 DROPPED PREFETCHES: 0
PSCL2 COMMIT LATE PREFETCHES: 0 MISSED OPPORTUNITY: 0 LATE IN PQ: 0 UNCOVERED: 0
PSCL2 COMMIT LATE MSHR PREFETCHES: 0
PSCL2 MPKI TOTAL: 0 MSHR LATE: 0 PQ LATE: 0 COMMIT LATE: 0 MISSED OPPORTUNITY: 0 UNCOVERED: 0
PSCL2 PREFETCHES SAME FILL-ORIGIN LEVEL: 0 DIFFERENT FILL-ORIGIN LEVEL: 0

LLC SPEC fills:          0  NON-SPEC fills:     323177
LLC Test counter :          0
LLC Leapfrog:          0
LLC MSHR merge:          0
LLC TOTAL     ACCESS:   17287875  HIT:    2418739  MISS:   14869136  HIT %:     13.991  MISS %:     86.009   MPKI: 74.3457
LLC LOAD      TOTAL       ACCESS:     563152  HIT:      18187  MISS:     544965  HIT %:     3.2295  MISS %:    96.7705   MPKI: 2.72483
LLC LOAD      NON_SPEC    ACCESS:     324206  HIT:       1004  MISS:     323202  HIT %:    0.30968  MISS %:    99.6903   MPKI: 1.61601
LLC LOAD      SPEC        ACCESS:     238946  HIT:      17183  MISS:     221763  HIT %:    7.19116  MISS %:    92.8088   MPKI: 1.10882
LLC RFO       NON_SPEC    ACCESS:       3623  HIT:         40  MISS:       3583  HIT %:    1.10406  MISS %:    98.8959   MPKI: 0.017915
LLC PREFETCH  NON_SPEC    ACCESS:   14063841  HIT:      24381  MISS:   14039460  HIT %:   0.173359  MISS %:    99.8266   MPKI: 70.1973
LLC WRITEBACK NON_SPEC    ACCESS:       5935  HIT:       5931  MISS:          4  HIT %:    99.9326  MISS %:  0.0673968   MPKI: 2e-05
LLC CLEAN_EVICTION NON_SPEC    ACCESS:    2588599  HIT:    2366674  MISS:     221925  HIT %:    91.4268  MISS %:    8.57317   MPKI: 1.10963
LLC COMMIT LOAD NON_SPEC    ACCESS:        179  HIT:         57  MISS:        122  HIT %:    31.8436  MISS %:    68.1564   MPKI: 0.00061
LLC LOAD TRANSLATION NON_SPEC    ACCESS:      62546  HIT:       3469  MISS:      59077  HIT %:    5.54632  MISS %:    94.4537   MPKI: 0.295385
LLC PREFETCH  REQUESTED:          0  ISSUED:          0  USEFUL:       1102  USELESS:   14037813
LLC USEFUL LOAD PREFETCHES:       1102 PREFETCH ISSUED TO LOWER LEVEL:   14039460  ACCURACY: 0.0078493
LLC TIMELY PREFETCHES:       1102 LATE PREFETCHES: 0 DROPPED PREFETCHES: 0
LLC COMMIT LATE PREFETCHES: 0 MISSED OPPORTUNITY: 0 LATE IN PQ: 0 UNCOVERED: 0
LLC COMMIT LATE MSHR PREFETCHES: 0
LLC MPKI TOTAL: 2.72483 MSHR LATE: 0 PQ LATE: 0 COMMIT LATE: 0 MISSED OPPORTUNITY: 0 UNCOVERED: 0
LLC PREFETCHES SAME FILL-ORIGIN LEVEL: 0 DIFFERENT FILL-ORIGIN LEVEL: 0
LLC AVERAGE MISS LATENCY: 128.993 cycles
LLC AVERAGE MISS LATENCY LOAD: 132.911 cycles
LLC AVERAGE MISS LATENCY PREFETCH: 130.717 cycles
LLC AVERAGE MSHR OCCUPANCY: 0.194797
LLC MSHR FULL: 0
LLC RQ	ACCESS:     629500	FORWARD:          0	MERGED:          0	TO_CACHE:     629500
LLC WQ	ACCESS:    2594534	FORWARD:          1	MERGED:          0	TO_CACHE:    2594534
LLC PQ	ACCESS:   14063842	FORWARD:          0	MERGED:          0	TO_CACHE:   14063841

LLC Dense regions hint to LLC: 0

RAW hits: 21446
Loads Generated: 71787578
Loads sent to L1D: 71766131
Stores Generated: 2952864
Stores sent to L1D: 2952864
Major fault: 0 Minor fault: 49083
Allocated PAGES: 49083
Total Load insts: 89690824
Total Non-spec loads: 14185993
Percentage of speculative loads: 84.1834

LeapFrogging counter: 1239
Commit hits: 13802532 miss: 44208280
Commit hit %: 23.793 miss %: 76.207
Commits not translated: 0
Loads retired: 14204426
Stores retired: 2952864
Cache fills: 14204426
L1D response latency: 20.1404 cycles
Load retirement latency: 32.1779 cycles
OOO test counter: 0
Discarded buffer inserts: 13802532 hits: 3440 hit %: 0.024923
Filter prediction accuracy: 99.7664
[Bingo] PHT Access: 523494
[Bingo] PHT Hit PC+Addr: 23284
[Bingo] PHT Hit PC+Offs: 492221
[Bingo] PHT Miss: 7989
[Bingo] Prefetch PC+Addr: 0
[Bingo] Prefetch PC+Offs: 0
[Bingo] Useful PC+Addr: 0
[Bingo] Useful PC+Offs: 0
[Bingo] Useless PC+Addr: 0
[Bingo] Useless PC+Offs: 0
[Bingo] L1 Prefetch per Region: 0
[Bingo] L2 Prefetch per Region: 28.4454
[Bingo] L3 Prefetch per Region: 0
[Bingo] No Prefetch per Region: 3.55461
[Bingo] Number of Voters Mean: 15.9254
[Bingo] Number of Voters SD: 7.93728
PHT read accesses: 8052152
PHT write accesses: 492502
AT read accesses: 13625499
AT write accesses: 14098917
FT read accesses: 1657191
FT write accesses: 523494
PS read accesses: 1488091
PS write accesses: 515505
PHT tag read accesses: 23616475
PHT tag write accesses: 515786
AT tag read accesses: 485857860
AT tag write accesses: 14118001
FT tag read accesses: 270614764
FT tag write accesses: 1613672
PS tag read accesses: 247799408
PS tag write accesses: 2003148

DRAM Statistics
 CHANNEL 0
 RQ ROW_BUFFER_HIT:   12216400  ROW_BUFFER_MISS:    2430806
 DBUS_CONGESTED:       1445
 WQ ROW_BUFFER_HIT:      53031  ROW_BUFFER_MISS:    2526888  FULL:          0

 AVG_CONGESTED_CYCLE: 4
 All warmup complete: 2
Channel 0 Bank busy for read cycles: 0
Channel 0 Bank busy for write cycles: 0
Channel 0
Rank 0
0banks busy for read cycles: 303878429
0banks busy for write cycles: 492532
1banks busy for read cycles: 27568423
1banks busy for write cycles: 36338154
2banks busy for read cycles: 7601318
2banks busy for write cycles: 21986919
3banks busy for read cycles: 9534225
3banks busy for write cycles: 18128552
4banks busy for read cycles: 10941799
4banks busy for write cycles: 16958234
5banks busy for read cycles: 11135455
5banks busy for write cycles: 14928678
6banks busy for read cycles: 9784354
6banks busy for write cycles: 10834719
7banks busy for read cycles: 23206655
7banks busy for write cycles: 5664954
8banks busy for read cycles: 72942868
8banks busy for write cycles: 1763818

CPU 0 Branch Prediction Accuracy: 99.7034% MPKI: 1.05731 Average ROB Occupancy at Mispredict: 259.074
Branch types
NOT_BRANCH: 128713668 64.3568%
BRANCH_DIRECT_JUMP: 685292 0.342646%
BRANCH_INDIRECT: 0 0%
BRANCH_CONDITIONAL: 69924230 34.9621%
BRANCH_DIRECT_CALL: 338400 0.1692%
BRANCH_INDIRECT_CALL: 0 0%
BRANCH_RETURN: 338401 0.169201%
BRANCH_OTHER: 0 0%

DRAM PAGES: 1048576
Allocated PAGES: 49083
