
*** ChampSim Multicore Out-of-Order Simulator ***

Warmup Instructions: 50000000
Simulation Instructions: 200000000
Number of CPUs: 1
LLC sets: 2048
LLC ways: 16
L0D sets: 16
L0D ways: 2
ROB size: 352
LQ size: 128
SQ size: 72
Secure Berti: OFF
Berti: OFF
Berti Fill: OFF
On commit prefetching: OFF
Hit-based filter: ON
Time-guarding: ON
Free-slotting: ON
Leap-frogging: ON
Train prefetcher on L0D bypass: OFF
No translation penalty for prefetchers: OFF
Prefetch to L0D only: OFF
Prefetch to L1D only: OFF
Clean evictions: ON
Commit loads: ON
Commit write: ON
Fill commit loads to L2C, LLC: ON
DRAM IO FREQUENCY: 6400
ROB SIZE: 352
Off-chip DRAM Size: 4096 MB Channels: 1 Width: 64-bit Data Rate: 6400 MT/s
CPU 0 runs /home/sumon/secure_berti/GhostMinion/../../traces/spec/603.bwaves_s-891B.champsimtrace.xz
.xz
BTB has LRU replacement policy
ITLB has LRU replacement policy
DTLB has LRU replacement policy
STLB has LRU replacement policy
L1I has LRU replacement policy
L0D has LRU replacement policy
L1D has LRU replacement policy
Bingo PHT WAYS: 16 and PHT_SIZE: 16384
L2C has LRU replacement policy
LLC has LRU replacement policy
Heartbeat CPU 0 instructions: 10000003 cycles: 2783363 heartbeat IPC: 3.59278 cumulative IPC: 3.59278 (Simulation time: 0 hr 0 min 26 sec) 
Heartbeat CPU 0 instructions: 20000003 cycles: 5566350 heartbeat IPC: 3.59326 cumulative IPC: 3.59302 (Simulation time: 0 hr 0 min 51 sec) 
Heartbeat CPU 0 instructions: 30000003 cycles: 8349486 heartbeat IPC: 3.59307 cumulative IPC: 3.59304 (Simulation time: 0 hr 1 min 15 sec) 
Heartbeat CPU 0 instructions: 40000000 cycles: 11132254 heartbeat IPC: 3.59354 cumulative IPC: 3.59316 (Simulation time: 0 hr 1 min 41 sec) 
Heartbeat CPU 0 instructions: 50000002 cycles: 14068806 heartbeat IPC: 3.40535 cumulative IPC: 3.55396 (Simulation time: 0 hr 1 min 59 sec) 

Warmup complete CPU 0 instructions: 50000002 cycles: 14068806 (Simulation time: 0 hr 1 min 59 sec) 

Heartbeat CPU 0 instructions: 60000003 cycles: 27833074 heartbeat IPC: 0.726519 cumulative IPC: 0.726519 (Simulation time: 0 hr 2 min 26 sec) 
Heartbeat CPU 0 instructions: 70000001 cycles: 41597828 heartbeat IPC: 0.726493 cumulative IPC: 0.726506 (Simulation time: 0 hr 2 min 53 sec) 
Heartbeat CPU 0 instructions: 80000002 cycles: 55362630 heartbeat IPC: 0.726491 cumulative IPC: 0.726501 (Simulation time: 0 hr 3 min 19 sec) 
Heartbeat CPU 0 instructions: 90000001 cycles: 69127062 heartbeat IPC: 0.72651 cumulative IPC: 0.726503 (Simulation time: 0 hr 3 min 45 sec) 
Heartbeat CPU 0 instructions: 100000000 cycles: 82891177 heartbeat IPC: 0.726527 cumulative IPC: 0.726508 (Simulation time: 0 hr 4 min 11 sec) 
Heartbeat CPU 0 instructions: 110000000 cycles: 96656725 heartbeat IPC: 0.726451 cumulative IPC: 0.726498 (Simulation time: 0 hr 4 min 37 sec) 
Heartbeat CPU 0 instructions: 120000001 cycles: 110420881 heartbeat IPC: 0.726525 cumulative IPC: 0.726502 (Simulation time: 0 hr 5 min 2 sec) 
Heartbeat CPU 0 instructions: 130000000 cycles: 124185003 heartbeat IPC: 0.726526 cumulative IPC: 0.726505 (Simulation time: 0 hr 5 min 27 sec) 
Heartbeat CPU 0 instructions: 140000001 cycles: 137950378 heartbeat IPC: 0.72646 cumulative IPC: 0.7265 (Simulation time: 0 hr 5 min 52 sec) 
Heartbeat CPU 0 instructions: 150000001 cycles: 151714758 heartbeat IPC: 0.726513 cumulative IPC: 0.726502 (Simulation time: 0 hr 6 min 17 sec) 
Heartbeat CPU 0 instructions: 160000000 cycles: 165479446 heartbeat IPC: 0.726497 cumulative IPC: 0.726501 (Simulation time: 0 hr 6 min 43 sec) 
Heartbeat CPU 0 instructions: 170000000 cycles: 179167253 heartbeat IPC: 0.730577 cumulative IPC: 0.726839 (Simulation time: 0 hr 7 min 8 sec) 
Heartbeat CPU 0 instructions: 180000001 cycles: 192700824 heartbeat IPC: 0.738903 cumulative IPC: 0.727753 (Simulation time: 0 hr 7 min 33 sec) 
Heartbeat CPU 0 instructions: 190000002 cycles: 206278269 heartbeat IPC: 0.736516 cumulative IPC: 0.728372 (Simulation time: 0 hr 8 min 1 sec) 
Heartbeat CPU 0 instructions: 200000002 cycles: 219202099 heartbeat IPC: 0.773764 cumulative IPC: 0.731232 (Simulation time: 0 hr 8 min 32 sec) 
Heartbeat CPU 0 instructions: 210000001 cycles: 232125173 heartbeat IPC: 0.77381 cumulative IPC: 0.733755 (Simulation time: 0 hr 9 min 4 sec) 
Heartbeat CPU 0 instructions: 220000000 cycles: 245048798 heartbeat IPC: 0.773777 cumulative IPC: 0.735994 (Simulation time: 0 hr 9 min 34 sec) 
Heartbeat CPU 0 instructions: 230000000 cycles: 257971416 heartbeat IPC: 0.773837 cumulative IPC: 0.737999 (Simulation time: 0 hr 10 min 6 sec) 
Heartbeat CPU 0 instructions: 240000002 cycles: 270892690 heartbeat IPC: 0.773918 cumulative IPC: 0.739807 (Simulation time: 0 hr 10 min 37 sec) 
Heartbeat CPU 0 instructions: 250000002 cycles: 283815716 heartbeat IPC: 0.773813 cumulative IPC: 0.741436 (Simulation time: 0 hr 11 min 8 sec) 
Finished CPU 0 instructions: 200000000 cycles: 269746910 cumulative IPC: 0.741436 (Simulation time: 0 hr 11 min 8 sec) 
 Instruction ID: 250000266

ChampSim completed all CPUs

Region of Interest Statistics

CPU 0 cumulative IPC: 0.741436 instructions: 200000000 cycles: 269746910
ITLB SPEC fills:          0  NON-SPEC fills:          0
ITLB Test counter :          0
ITLB Leapfrog:          0
ITLB MSHR merge:          0
ITLB TOTAL     ACCESS:   33515731  HIT:   33515730  MISS:          1  HIT %:        100  MISS %: 2.98367e-06   MPKI: 5e-06
ITLB LOAD TRANSLATION NON_SPEC    ACCESS:   33515731  HIT:   33515730  MISS:          1  HIT %:        100  MISS %: 2.98367e-06   MPKI: 5e-06
ITLB PREFETCH  REQUESTED:          0  ISSUED:          0  USEFUL:          0  USELESS:          0
ITLB USEFUL LOAD PREFETCHES:          0 PREFETCH ISSUED TO LOWER LEVEL:          0  ACCURACY: -nan
ITLB TIMELY PREFETCHES:          0 LATE PREFETCHES: 0 DROPPED PREFETCHES: 0
ITLB COMMIT LATE PREFETCHES: 0 MISSED OPPORTUNITY: 0 LATE IN PQ: 0 UNCOVERED: 0
ITLB COMMIT LATE MSHR PREFETCHES: 0
ITLB MPKI TOTAL: 0 MSHR LATE: 0 PQ LATE: 0 COMMIT LATE: 0 MISSED OPPORTUNITY: 0 UNCOVERED: 0
ITLB PREFETCHES SAME FILL-ORIGIN LEVEL: 0 DIFFERENT FILL-ORIGIN LEVEL: 0
ITLB AVERAGE MISS LATENCY: 964 cycles
ITLB AVERAGE MISS LATENCY LOAD: -nan cycles
ITLB AVERAGE MISS LATENCY PREFETCH: -nan cycles
ITLB AVERAGE MSHR OCCUPANCY: 2.98367e-08
ITLB MSHR FULL: 0
ITLB RQ	ACCESS:   34898863	FORWARD:          0	MERGED:    1383131	TO_CACHE:   33515732

DTLB SPEC fills:          0  NON-SPEC fills:          0
DTLB Test counter :          0
DTLB Leapfrog:          0
DTLB MSHR merge:          0
DTLB TOTAL     ACCESS:   31143914  HIT:   31083260  MISS:      60654  HIT %:    99.8052  MISS %:   0.194754   MPKI: 0.30327
DTLB LOAD TRANSLATION NON_SPEC    ACCESS:   31143914  HIT:   31083260  MISS:      60654  HIT %:    99.8052  MISS %:   0.194754   MPKI: 0.30327
DTLB PREFETCH  REQUESTED:          0  ISSUED:          0  USEFUL:          0  USELESS:          0
DTLB USEFUL LOAD PREFETCHES:          0 PREFETCH ISSUED TO LOWER LEVEL:          0  ACCURACY: -nan
DTLB TIMELY PREFETCHES:          0 LATE PREFETCHES: 0 DROPPED PREFETCHES: 0
DTLB COMMIT LATE PREFETCHES: 0 MISSED OPPORTUNITY: 0 LATE IN PQ: 0 UNCOVERED: 0
DTLB COMMIT LATE MSHR PREFETCHES: 0
DTLB MPKI TOTAL: 0 MSHR LATE: 0 PQ LATE: 0 COMMIT LATE: 0 MISSED OPPORTUNITY: 0 UNCOVERED: 0
DTLB PREFETCHES SAME FILL-ORIGIN LEVEL: 0 DIFFERENT FILL-ORIGIN LEVEL: 0
DTLB AVERAGE MISS LATENCY: 161.172 cycles
DTLB AVERAGE MISS LATENCY LOAD: -nan cycles
DTLB AVERAGE MISS LATENCY PREFETCH: -nan cycles
DTLB AVERAGE MSHR OCCUPANCY: 0.00292492
DTLB MSHR FULL: 0
DTLB RQ	ACCESS:   31838751	FORWARD:          0	MERGED:     675880	TO_CACHE:   31162871

STLB SPEC fills:          0  NON-SPEC fills:          0
STLB Test counter :          0
STLB Leapfrog:          0
STLB MSHR merge:          0
STLB TOTAL     ACCESS:      60655  HIT:        337  MISS:      60318  HIT %:   0.555601  MISS %:    99.4444   MPKI: 0.30159
STLB LOAD TRANSLATION NON_SPEC    ACCESS:      60655  HIT:        337  MISS:      60318  HIT %:   0.555601  MISS %:    99.4444   MPKI: 0.30159
STLB PREFETCH  REQUESTED:          0  ISSUED:          0  USEFUL:          0  USELESS:          0
STLB USEFUL LOAD PREFETCHES:          0 PREFETCH ISSUED TO LOWER LEVEL:          0  ACCURACY: -nan
STLB TIMELY PREFETCHES:          0 LATE PREFETCHES: 0 DROPPED PREFETCHES: 0
STLB COMMIT LATE PREFETCHES: 0 MISSED OPPORTUNITY: 0 LATE IN PQ: 0 UNCOVERED: 0
STLB COMMIT LATE MSHR PREFETCHES: 0
STLB MPKI TOTAL: 0 MSHR LATE: 0 PQ LATE: 0 COMMIT LATE: 0 MISSED OPPORTUNITY: 0 UNCOVERED: 0
STLB PREFETCHES SAME FILL-ORIGIN LEVEL: 0 DIFFERENT FILL-ORIGIN LEVEL: 0
STLB AVERAGE MISS LATENCY: 153.035 cycles
STLB AVERAGE MISS LATENCY LOAD: -nan cycles
STLB AVERAGE MISS LATENCY PREFETCH: -nan cycles
STLB AVERAGE MSHR OCCUPANCY: 3.29734e-05
STLB MSHR FULL: 0
STLB RQ	ACCESS:      60655	FORWARD:          0	MERGED:          0	TO_CACHE:      60655

STLB Hit, L1D data hit: 0
STLB Hit, L2C data hit: 0
STLB Hit, LLC data hit: 0
STLB Hit, LLC data miss: 0
STLB STLB hints to L2: 0
L0D SPEC fills:    9819940  NON-SPEC fills:          0
L0D TimeGuard Request with older TS:      54455 Restricted eviction:        559 read:          2
L0D Test counter :          0
L0D Leapfrog:          0
L0D MSHR merge:    6039376
L0D TOTAL     ACCESS:   22423553  HIT:    1723377  MISS:   20700176  HIT %:    7.68557  MISS %:    92.3144   MPKI: 103.501
L0D LOAD      TOTAL       ACCESS:   22423553  HIT:    1723377  MISS:   20700176  HIT %:    7.68557  MISS %:    92.3144   MPKI: 103.501
L0D LOAD      NON_SPEC    ACCESS:   10912419  HIT:      32742  MISS:   10879677  HIT %:   0.300043  MISS %:       99.7   MPKI: 54.3984
L0D LOAD      SPEC        ACCESS:   11511134  HIT:    1690635  MISS:    9820499  HIT %:     14.687  MISS %:     85.313   MPKI: 49.1025
L0D PREFETCH  REQUESTED:          0  ISSUED:          0  USEFUL:          0  USELESS:          0
L0D USEFUL LOAD PREFETCHES:          0 PREFETCH ISSUED TO LOWER LEVEL:          0  ACCURACY: -nan
L0D TIMELY PREFETCHES:          0 LATE PREFETCHES: 0 DROPPED PREFETCHES: 0
L0D COMMIT LATE PREFETCHES: 0 MISSED OPPORTUNITY: 0 LATE IN PQ: 0 UNCOVERED: 0
L0D COMMIT LATE MSHR PREFETCHES: 0
L0D MPKI TOTAL: 133.698 MSHR LATE: 0 PQ LATE: 0 COMMIT LATE: 0 MISSED OPPORTUNITY: 0 UNCOVERED: 0
L0D PREFETCHES SAME FILL-ORIGIN LEVEL: 0 DIFFERENT FILL-ORIGIN LEVEL: 0
L0D AVERAGE MISS LATENCY: 9.75953 cycles
L0D AVERAGE MISS LATENCY LOAD: 9.75953 cycles
L0D AVERAGE MISS LATENCY PREFETCH: -nan cycles
L0D AVERAGE MSHR OCCUPANCY: 0.506308
L0D MSHR FULL: 0
L0D RQ	ACCESS:   35804821	FORWARD:          0	MERGED:    7341892	TO_CACHE:   28462929
L0D WQ	ACCESS:    3375822	FORWARD:          0	MERGED:          0	TO_CACHE:    3375822

L1D SPEC fills:          0  NON-SPEC fills:    2313692
L1D Test counter :          0
L1D Leapfrog:          0
L1D MSHR merge:         11
L1D TOTAL     ACCESS:   30862832  HIT:   24964423  MISS:    5898409  HIT %:    80.8883  MISS %:    19.1117   MPKI: 29.492
L1D LOAD      TOTAL       ACCESS:   20700165  HIT:   16359806  MISS:    4340359  HIT %:    79.0322  MISS %:    20.9678   MPKI: 21.7018
L1D LOAD      NON_SPEC    ACCESS:   10879672  HIT:    8565980  MISS:    2313692  HIT %:    78.7338  MISS %:    21.2662   MPKI: 11.5685
L1D LOAD      SPEC        ACCESS:    9820493  HIT:    7793826  MISS:    2026667  HIT %:    79.3629  MISS %:    20.6371   MPKI: 10.1333
L1D RFO       NON_SPEC    ACCESS:    3375823  HIT:    3375821  MISS:          2  HIT %:    99.9999  MISS %: 5.92448e-05   MPKI: 1e-05
L1D COMMIT LOAD NON_SPEC    ACCESS:    4132296  HIT:    4132245  MISS:         51  HIT %:    99.9988  MISS %: 0.00123418   MPKI: 0.000255
L1D COMMIT WRITE NON_SPEC    ACCESS:    2654548  HIT:    1096551  MISS:    1557997  HIT %:    41.3084  MISS %:    58.6916   MPKI: 7.78998
L1D PREFETCH  REQUESTED:          0  ISSUED:          0  USEFUL:          0  USELESS:          0
L1D USEFUL LOAD PREFETCHES:          0 PREFETCH ISSUED TO LOWER LEVEL:          0  ACCURACY: -nan
L1D TIMELY PREFETCHES:          0 LATE PREFETCHES: 0 DROPPED PREFETCHES: 0
L1D COMMIT LATE PREFETCHES: 0 MISSED OPPORTUNITY: 0 LATE IN PQ: 0 UNCOVERED: 0
L1D COMMIT LATE MSHR PREFETCHES: 0
L1D MPKI TOTAL: 21.7019 MSHR LATE: 0 PQ LATE: 0 COMMIT LATE: 0 MISSED OPPORTUNITY: 0 UNCOVERED: 0
L1D PREFETCHES SAME FILL-ORIGIN LEVEL: 0 DIFFERENT FILL-ORIGIN LEVEL: 0
L1D AVERAGE MISS LATENCY: 16.6737 cycles
L1D AVERAGE MISS LATENCY LOAD: 22.6584 cycles
L1D AVERAGE MISS LATENCY PREFETCH: -nan cycles
L1D AVERAGE MSHR OCCUPANCY: 0.112991
L1D MSHR FULL: 0
L1D RQ	ACCESS:   28948438	FORWARD:          0	MERGED:    4115859	TO_CACHE:   24832579
L1D WQ	ACCESS:    6030371	FORWARD:          0	MERGED:          0	TO_CACHE:    6030371

L1D UNIQUE REGIONS ACCESSED: 0
L1D REGIONS CONFLICTS: 0
L1D Cross Page Prefetch Requests: 0
L1D Same Page Prefetch Requests: 0
L1D ROI Sum of L1D PQ occupancy: 0
L1D PREFETCHES PUSHED FROM L2C: 0
L1I SPEC fills:          0  NON-SPEC fills:          0
L1I Test counter :          0
L1I Leapfrog:          0
L1I MSHR merge:          1
L1I TOTAL     ACCESS:   34898861  HIT:   34898854  MISS:          7  HIT %:        100  MISS %: 2.0058e-05   MPKI: 3.5e-05
L1I LOAD      TOTAL       ACCESS:   34898861  HIT:   34898854  MISS:          7  HIT %:        100  MISS %: 2.0058e-05   MPKI: 3.5e-05
L1I LOAD      NON_SPEC    ACCESS:   34898861  HIT:   34898854  MISS:          7  HIT %:        100  MISS %: 2.0058e-05   MPKI: 3.5e-05
L1I PREFETCH  REQUESTED:          0  ISSUED:          0  USEFUL:          0  USELESS:          0
L1I USEFUL LOAD PREFETCHES:          0 PREFETCH ISSUED TO LOWER LEVEL:          0  ACCURACY: -nan
L1I TIMELY PREFETCHES:          0 LATE PREFETCHES: 0 DROPPED PREFETCHES: 0
L1I COMMIT LATE PREFETCHES: 0 MISSED OPPORTUNITY: 0 LATE IN PQ: 0 UNCOVERED: 0
L1I COMMIT LATE MSHR PREFETCHES: 0
L1I MPKI TOTAL: 4e-05 MSHR LATE: 0 PQ LATE: 0 COMMIT LATE: 0 MISSED OPPORTUNITY: 0 UNCOVERED: 0
L1I PREFETCHES SAME FILL-ORIGIN LEVEL: 0 DIFFERENT FILL-ORIGIN LEVEL: 0
L1I AVERAGE MISS LATENCY: 214.143 cycles
L1I AVERAGE MISS LATENCY LOAD: 214.143 cycles
L1I AVERAGE MISS LATENCY PREFETCH: -nan cycles
L1I AVERAGE MSHR OCCUPANCY: 1.43271e-07
L1I MSHR FULL: 0
L1I RQ	ACCESS:   43910512	FORWARD:          0	MERGED:    9011649	TO_CACHE:   34898863

BTB SPEC fills:          0  NON-SPEC fills:          0
BTB Test counter :          0
BTB Leapfrog:          0
BTB MSHR merge:          0
BTB TOTAL     ACCESS:   30088220  HIT:   30088209  MISS:         11  HIT %:        100  MISS %: 3.65592e-05   MPKI: 5.5e-05
BTB BRANCH_DIRECT_JUMP	ACCESS:    1387297  HIT:    1387295  MISS:          2
BTB BRANCH_INDIRECT	ACCESS:          0  HIT:          0  MISS:          0
BTB BRANCH_CONDITIONAL	ACCESS:   28700923  HIT:   28700914  MISS:          9
BTB BRANCH_DIRECT_CALL	ACCESS:          0  HIT:          0  MISS:          0
BTB BRANCH_INDIRECT_CALL	ACCESS:          0  HIT:          0  MISS:          0
BTB BRANCH_RETURN	ACCESS:          0  HIT:          0  MISS:          0
BTB BRANCH_OTHER ACCESS:          0  HIT:          0  MISS:          0

L2C SPEC fills:          0  NON-SPEC fills:      84029
L2C Test counter :          0
L2C Leapfrog:          0
L2C MSHR merge:     104089
L2C TOTAL     ACCESS:    9244394  HIT:    5183409  MISS:    4060985  HIT %:    56.0708  MISS %:    43.9292   MPKI: 20.3049
L2C LOAD      TOTAL       ACCESS:    4340366  HIT:    4064405  MISS:     275961  HIT %:     93.642  MISS %:    6.35801   MPKI: 1.3798
L2C LOAD      NON_SPEC    ACCESS:    2313699  HIT:    2229663  MISS:      84036  HIT %:    96.3679  MISS %:    3.63211   MPKI: 0.42018
L2C LOAD      SPEC        ACCESS:    2026667  HIT:    1834742  MISS:     191925  HIT %:      90.53  MISS %:    9.46998   MPKI: 0.959625
L2C RFO       NON_SPEC    ACCESS:          2  HIT:          0  MISS:          2  HIT %:          0  MISS %:        100   MPKI: 1e-05
L2C PREFETCH  NON_SPEC    ACCESS:    3597336  HIT:        582  MISS:    3596754  HIT %:  0.0161786  MISS %:    99.9838   MPKI: 17.9838
L2C WRITEBACK NON_SPEC    ACCESS:          2  HIT:          1  MISS:          1  HIT %:         50  MISS %:         50   MPKI: 5e-06
L2C CLEAN_EVICTION NON_SPEC    ACCESS:    1005128  HIT:     824429  MISS:     180699  HIT %:    82.0223  MISS %:    17.9777   MPKI: 0.903495
L2C COMMIT LOAD NON_SPEC    ACCESS:         51  HIT:         46  MISS:          5  HIT %:    90.1961  MISS %:    9.80392   MPKI: 2.5e-05
L2C LOAD TRANSLATION NON_SPEC    ACCESS:     301509  HIT:     293946  MISS:       7563  HIT %:    97.4916  MISS %:    2.50838   MPKI: 0.037815
L2C PREFETCH  REQUESTED:    3727649  ISSUED:    3727649  USEFUL:    3596634  USELESS:         96
L2C USEFUL LOAD PREFETCHES:    3596634 PREFETCH ISSUED TO LOWER LEVEL:    3700858  ACCURACY: 97.1838
L2C TIMELY PREFETCHES:    3596634 LATE PREFETCHES: 104089 DROPPED PREFETCHES: 0
L2C COMMIT LATE PREFETCHES: 0 MISSED OPPORTUNITY: 0 LATE IN PQ: 0 UNCOVERED: 0
L2C COMMIT LATE MSHR PREFETCHES: 0
L2C MPKI TOTAL: 1.3798 MSHR LATE: 0.520445 PQ LATE: 0 COMMIT LATE: 0 MISSED OPPORTUNITY: 0 UNCOVERED: 0
L2C PREFETCHES SAME FILL-ORIGIN LEVEL: 3700858 DIFFERENT FILL-ORIGIN LEVEL: 0
L2C AVERAGE MISS LATENCY: 205.488 cycles
L2C AVERAGE MISS LATENCY LOAD: 153.38 cycles
L2C AVERAGE MISS LATENCY PREFETCH: 219.808 cycles
L2C AVERAGE MSHR OCCUPANCY: 3.08479
L2C MSHR FULL: 1.52951e-05
L2C RQ	ACCESS:    4641928	FORWARD:          0	MERGED:          0	TO_CACHE:    4641928
L2C WQ	ACCESS:    1005130	FORWARD:          0	MERGED:          0	TO_CACHE:    1005130
L2C PQ	ACCESS:    3727649	FORWARD:          0	MERGED:          0	TO_CACHE:    3727649

L2C Instructions Evicting Data 7
L2C Translations Evicting Data 7563
L2C Data Evicting Data 3673587
L2C Instructions Evicting Instructions 0
L2C Translations Evicting Instructions 0
L2C Data Evicting Instructions 6
L2C Instructions Evicting Translations 0
L2C Translations Evicting Translations 0
L2C Data Evicting Translations 7197
L2C Dense regions hint from L2: 0
PSCL5 SPEC fills:          0  NON-SPEC fills:          0
PSCL5 Test counter :          0
PSCL5 Leapfrog:          0
PSCL5 MSHR merge:          0
PSCL5 TOTAL     ACCESS:          0  HIT:          0  MISS:          0  HIT %:       -nan  MISS %:       -nan   MPKI: 0
PSCL5 PREFETCH  REQUESTED:          0  ISSUED:          0  USEFUL:          0  USELESS:          0
PSCL5 USEFUL LOAD PREFETCHES:          0 PREFETCH ISSUED TO LOWER LEVEL:          0  ACCURACY: -nan
PSCL5 TIMELY PREFETCHES:          0 LATE PREFETCHES: 0 DROPPED PREFETCHES: 0
PSCL5 COMMIT LATE PREFETCHES: 0 MISSED OPPORTUNITY: 0 LATE IN PQ: 0 UNCOVERED: 0
PSCL5 COMMIT LATE MSHR PREFETCHES: 0
PSCL5 MPKI TOTAL: 0 MSHR LATE: 0 PQ LATE: 0 COMMIT LATE: 0 MISSED OPPORTUNITY: 0 UNCOVERED: 0
PSCL5 PREFETCHES SAME FILL-ORIGIN LEVEL: 0 DIFFERENT FILL-ORIGIN LEVEL: 0

PSCL4 SPEC fills:          0  NON-SPEC fills:          0
PSCL4 Test counter :          0
PSCL4 Leapfrog:          0
PSCL4 MSHR merge:          0
PSCL4 TOTAL     ACCESS:          0  HIT:          0  MISS:          0  HIT %:       -nan  MISS %:       -nan   MPKI: 0
PSCL4 PREFETCH  REQUESTED:          0  ISSUED:          0  USEFUL:          0  USELESS:          0
PSCL4 USEFUL LOAD PREFETCHES:          0 PREFETCH ISSUED TO LOWER LEVEL:          0  ACCURACY: -nan
PSCL4 TIMELY PREFETCHES:          0 LATE PREFETCHES: 0 DROPPED PREFETCHES: 0
PSCL4 COMMIT LATE PREFETCHES: 0 MISSED OPPORTUNITY: 0 LATE IN PQ: 0 UNCOVERED: 0
PSCL4 COMMIT LATE MSHR PREFETCHES: 0
PSCL4 MPKI TOTAL: 0 MSHR LATE: 0 PQ LATE: 0 COMMIT LATE: 0 MISSED OPPORTUNITY: 0 UNCOVERED: 0
PSCL4 PREFETCHES SAME FILL-ORIGIN LEVEL: 0 DIFFERENT FILL-ORIGIN LEVEL: 0

PSCL3 SPEC fills:          0  NON-SPEC fills:          0
PSCL3 Test counter :          0
PSCL3 Leapfrog:          0
PSCL3 MSHR merge:          0
PSCL3 TOTAL     ACCESS:          0  HIT:          0  MISS:          0  HIT %:       -nan  MISS %:       -nan   MPKI: 0
PSCL3 PREFETCH  REQUESTED:          0  ISSUED:          0  USEFUL:          0  USELESS:          0
PSCL3 USEFUL LOAD PREFETCHES:          0 PREFETCH ISSUED TO LOWER LEVEL:          0  ACCURACY: -nan
PSCL3 TIMELY PREFETCHES:          0 LATE PREFETCHES: 0 DROPPED PREFETCHES: 0
PSCL3 COMMIT LATE PREFETCHES: 0 MISSED OPPORTUNITY: 0 LATE IN PQ: 0 UNCOVERED: 0
PSCL3 COMMIT LATE MSHR PREFETCHES: 0
PSCL3 MPKI TOTAL: 0 MSHR LATE: 0 PQ LATE: 0 COMMIT LATE: 0 MISSED OPPORTUNITY: 0 UNCOVERED: 0
PSCL3 PREFETCHES SAME FILL-ORIGIN LEVEL: 0 DIFFERENT FILL-ORIGIN LEVEL: 0

PSCL2 SPEC fills:          0  NON-SPEC fills:          0
PSCL2 Test counter :          0
PSCL2 Leapfrog:          0
PSCL2 MSHR merge:          0
PSCL2 TOTAL     ACCESS:          0  HIT:          0  MISS:          0  HIT %:       -nan  MISS %:       -nan   MPKI: 0
PSCL2 PREFETCH  REQUESTED:          0  ISSUED:          0  USEFUL:          0  USELESS:          0
PSCL2 USEFUL LOAD PREFETCHES:          0 PREFETCH ISSUED TO LOWER LEVEL:          0  ACCURACY: -nan
PSCL2 TIMELY PREFETCHES:          0 LATE PREFETCHES: 0 DROPPED PREFETCHES: 0
PSCL2 COMMIT LATE PREFETCHES: 0 MISSED OPPORTUNITY: 0 LATE IN PQ: 0 UNCOVERED: 0
PSCL2 COMMIT LATE MSHR PREFETCHES: 0
PSCL2 MPKI TOTAL: 0 MSHR LATE: 0 PQ LATE: 0 COMMIT LATE: 0 MISSED OPPORTUNITY: 0 UNCOVERED: 0
PSCL2 PREFETCHES SAME FILL-ORIGIN LEVEL: 0 DIFFERENT FILL-ORIGIN LEVEL: 0

LLC SPEC fills:          0  NON-SPEC fills:      82811
LLC Test counter :          0
LLC Leapfrog:          0
LLC MSHR merge:          0
LLC TOTAL     ACCESS:    4883879  HIT:     937556  MISS:    3946323  HIT %:     19.197  MISS %:     80.803   MPKI: 19.7316
LLC LOAD      TOTAL       ACCESS:     171872  HIT:      10617  MISS:     161255  HIT %:    6.17727  MISS %:    93.8227   MPKI: 0.806275
LLC LOAD      NON_SPEC    ACCESS:      82971  HIT:        153  MISS:      82818  HIT %:   0.184402  MISS %:    99.8156   MPKI: 0.41409
LLC LOAD      SPEC        ACCESS:      88901  HIT:      10464  MISS:      78437  HIT %:    11.7704  MISS %:    88.2296   MPKI: 0.392185
LLC RFO       NON_SPEC    ACCESS:          2  HIT:          0  MISS:          2  HIT %:          0  MISS %:        100   MPKI: 1e-05
LLC PREFETCH  NON_SPEC    ACCESS:    3700843  HIT:        268  MISS:    3700575  HIT %: 0.00724159  MISS %:    99.9928   MPKI: 18.5029
LLC WRITEBACK NON_SPEC    ACCESS:          2  HIT:          1  MISS:          1  HIT %:         50  MISS %:         50   MPKI: 5e-06
LLC CLEAN_EVICTION NON_SPEC    ACCESS:    1003592  HIT:     926670  MISS:      76922  HIT %:    92.3353  MISS %:    7.66467   MPKI: 0.38461
LLC COMMIT LOAD NON_SPEC    ACCESS:          5  HIT:          0  MISS:          5  HIT %:          0  MISS %:        100   MPKI: 2.5e-05
LLC LOAD TRANSLATION NON_SPEC    ACCESS:       7563  HIT:          0  MISS:       7563  HIT %:          0  MISS %:        100   MPKI: 0.037815
LLC PREFETCH  REQUESTED:          0  ISSUED:          0  USEFUL:       9659  USELESS:    3691523
LLC USEFUL LOAD PREFETCHES:       9659 PREFETCH ISSUED TO LOWER LEVEL:    3700576  ACCURACY: 0.261013
LLC TIMELY PREFETCHES:       9659 LATE PREFETCHES: 0 DROPPED PREFETCHES: 0
LLC COMMIT LATE PREFETCHES: 0 MISSED OPPORTUNITY: 0 LATE IN PQ: 0 UNCOVERED: 0
LLC COMMIT LATE MSHR PREFETCHES: 0
LLC MPKI TOTAL: 0.806275 MSHR LATE: 0 PQ LATE: 0 COMMIT LATE: 0 MISSED OPPORTUNITY: 0 UNCOVERED: 0
LLC PREFETCHES SAME FILL-ORIGIN LEVEL: 0 DIFFERENT FILL-ORIGIN LEVEL: 0
LLC AVERAGE MISS LATENCY: 184.246 cycles
LLC AVERAGE MISS LATENCY LOAD: 161.967 cycles
LLC AVERAGE MISS LATENCY PREFETCH: 189.063 cycles
LLC AVERAGE MSHR OCCUPANCY: 4.10996
LLC MSHR FULL: 0
LLC RQ	ACCESS:     179442	FORWARD:          0	MERGED:          0	TO_CACHE:     179442
LLC WQ	ACCESS:    1003594	FORWARD:          0	MERGED:          0	TO_CACHE:    1003594
LLC PQ	ACCESS:    3700858	FORWARD:          0	MERGED:          0	TO_CACHE:    3700858

LLC Dense regions hint to LLC: 0

RAW hits: 1
Loads Generated: 35804824
Loads sent to L1D: 35804821
Stores Generated: 3375822
Stores sent to L1D: 3375822
Major fault: 0 Minor fault: 62153
Allocated PAGES: 62153
Total Load insts: 43892572
Total Non-spec loads: 11231898
Percentage of speculative loads: 74.4105

LeapFrogging counter: 0
Commit hits: 9819268 miss: 15073121
Commit hit %: 39.4469 miss %: 60.5531
Commits not translated: 0
Loads retired: 4340357
Stores retired: 3375822
Cache fills: 4340359
L1D response latency: 22.6584 cycles
Load retirement latency: 37.8269 cycles
OOO test counter: 0
Discarded buffer inserts: 9819268 hits: 472653 hit %: 4.81353
Filter prediction accuracy: 99.4995
[Bingo] PHT Access: 121542
[Bingo] PHT Hit PC+Addr: 695
[Bingo] PHT Hit PC+Offs: 120419
[Bingo] PHT Miss: 428
[Bingo] Prefetch PC+Addr: 0
[Bingo] Prefetch PC+Offs: 0
[Bingo] Useful PC+Addr: 0
[Bingo] Useful PC+Offs: 0
[Bingo] Useless PC+Addr: 0
[Bingo] Useless PC+Offs: 0
[Bingo] L1 Prefetch per Region: 0
[Bingo] L2 Prefetch per Region: 31.8508
[Bingo] L3 Prefetch per Region: 0
[Bingo] No Prefetch per Region: 0.149157
[Bingo] Number of Voters Mean: 15.9955
[Bingo] Number of Voters SD: 9.14481
PHT read accesses: 1928074
PHT write accesses: 121188
AT read accesses: 4221472
AT write accesses: 4338883
FT read accesses: 366164
FT write accesses: 121542
PS read accesses: 498735
PS write accesses: 121114
PHT tag read accesses: 5802009
PHT tag write accesses: 121883
AT tag read accesses: 137139027
AT tag write accesses: 4342660
FT tag read accesses: 69857035
FT tag write accesses: 365396
PS tag read accesses: 73446658
PS tag write accesses: 619846

DRAM Statistics
 CHANNEL 0
 RQ ROW_BUFFER_HIT:    2721234  ROW_BUFFER_MISS:    1148166
 DBUS_CONGESTED:       1265
 WQ ROW_BUFFER_HIT:     146377  ROW_BUFFER_MISS:     850325  FULL:          0

 AVG_CONGESTED_CYCLE: 5
 All warmup complete: 2
Channel 0 Bank busy for read cycles: 0
Channel 0 Bank busy for write cycles: 0
Channel 0
Rank 0
0banks busy for read cycles: 186300556
0banks busy for write cycles: 108108
1banks busy for read cycles: 6197714
1banks busy for write cycles: 8182809
2banks busy for read cycles: 1328460
2banks busy for write cycles: 4275311
3banks busy for read cycles: 1110190
3banks busy for write cycles: 2909391
4banks busy for read cycles: 1209650
4banks busy for write cycles: 2878285
5banks busy for read cycles: 1821145
5banks busy for write cycles: 3658265
6banks busy for read cycles: 2950665
6banks busy for write cycles: 4384785
7banks busy for read cycles: 6512964
7banks busy for write cycles: 4087607
8banks busy for read cycles: 27372801
8banks busy for write cycles: 4458205

CPU 0 Branch Prediction Accuracy: 99.8669% MPKI: 0.223155 Average ROB Occupancy at Mispredict: 45.9473
Branch types
NOT_BRANCH: 166478530 83.2393%
BRANCH_DIRECT_JUMP: 1387297 0.693649%
BRANCH_INDIRECT: 0 0%
BRANCH_CONDITIONAL: 32134373 16.0672%
BRANCH_DIRECT_CALL: 0 0%
BRANCH_INDIRECT_CALL: 0 0%
BRANCH_RETURN: 0 0%
BRANCH_OTHER: 0 0%

DRAM PAGES: 1048576
Allocated PAGES: 62153
