
*** ChampSim Multicore Out-of-Order Simulator ***

Warmup Instructions: 50000000
Simulation Instructions: 200000000
Number of CPUs: 1
LLC sets: 2048
LLC ways: 16
L0D sets: 16
L0D ways: 2
ROB size: 352
LQ size: 128
SQ size: 72
Secure Berti: OFF
Berti: OFF
Berti Fill: OFF
On commit prefetching: OFF
Hit-based filter: ON
Time-guarding: ON
Free-slotting: ON
Leap-frogging: ON
Train prefetcher on L0D bypass: OFF
No translation penalty for prefetchers: OFF
Prefetch to L0D only: OFF
Prefetch to L1D only: OFF
Clean evictions: ON
Commit loads: ON
Commit write: ON
Fill commit loads to L2C, LLC: ON
DRAM IO FREQUENCY: 6400
ROB SIZE: 352
Off-chip DRAM Size: 4096 MB Channels: 1 Width: 64-bit Data Rate: 6400 MT/s
CPU 0 runs /home/sumon/secure_berti/GhostMinion/../../traces/spec/607.cactuBSSN_s-4004B.champsimtrace.xz
.xz
BTB has LRU replacement policy
ITLB has LRU replacement policy
DTLB has LRU replacement policy
STLB has LRU replacement policy
L1I has LRU replacement policy
L0D has LRU replacement policy
L1D has LRU replacement policy
Bingo PHT WAYS: 16 and PHT_SIZE: 16384
L2C has LRU replacement policy
LLC has LRU replacement policy
Heartbeat CPU 0 instructions: 10000001 cycles: 4390706 heartbeat IPC: 2.27754 cumulative IPC: 2.27754 (Simulation time: 0 hr 0 min 39 sec) 
Heartbeat CPU 0 instructions: 20000002 cycles: 8775446 heartbeat IPC: 2.28064 cumulative IPC: 2.27909 (Simulation time: 0 hr 1 min 19 sec) 
Heartbeat CPU 0 instructions: 30000001 cycles: 13163050 heartbeat IPC: 2.27915 cumulative IPC: 2.27911 (Simulation time: 0 hr 1 min 59 sec) 
Heartbeat CPU 0 instructions: 40000002 cycles: 17540319 heartbeat IPC: 2.28453 cumulative IPC: 2.28046 (Simulation time: 0 hr 2 min 39 sec) 
Heartbeat CPU 0 instructions: 50000001 cycles: 21940276 heartbeat IPC: 2.27275 cumulative IPC: 2.27891 (Simulation time: 0 hr 3 min 21 sec) 

Warmup complete CPU 0 instructions: 50000001 cycles: 21940276 (Simulation time: 0 hr 3 min 21 sec) 

Heartbeat CPU 0 instructions: 60000001 cycles: 39840128 heartbeat IPC: 0.558664 cumulative IPC: 0.558664 (Simulation time: 0 hr 4 min 15 sec) 
Heartbeat CPU 0 instructions: 70000003 cycles: 57516587 heartbeat IPC: 0.565724 cumulative IPC: 0.562172 (Simulation time: 0 hr 5 min 10 sec) 
Heartbeat CPU 0 instructions: 80000003 cycles: 75905610 heartbeat IPC: 0.543803 cumulative IPC: 0.555912 (Simulation time: 0 hr 6 min 7 sec) 
Heartbeat CPU 0 instructions: 90000003 cycles: 93487991 heartbeat IPC: 0.568751 cumulative IPC: 0.559067 (Simulation time: 0 hr 7 min 4 sec) 
Heartbeat CPU 0 instructions: 100000000 cycles: 111026618 heartbeat IPC: 0.57017 cumulative IPC: 0.561253 (Simulation time: 0 hr 8 min 1 sec) 
Heartbeat CPU 0 instructions: 110000000 cycles: 128683756 heartbeat IPC: 0.566343 cumulative IPC: 0.562095 (Simulation time: 0 hr 8 min 59 sec) 
Heartbeat CPU 0 instructions: 120000001 cycles: 146322440 heartbeat IPC: 0.566936 cumulative IPC: 0.562782 (Simulation time: 0 hr 9 min 57 sec) 
Heartbeat CPU 0 instructions: 130000000 cycles: 164068531 heartbeat IPC: 0.563504 cumulative IPC: 0.562872 (Simulation time: 0 hr 10 min 54 sec) 
Heartbeat CPU 0 instructions: 140000001 cycles: 181997760 heartbeat IPC: 0.557748 cumulative IPC: 0.562298 (Simulation time: 0 hr 11 min 51 sec) 
Heartbeat CPU 0 instructions: 150000002 cycles: 199816189 heartbeat IPC: 0.561217 cumulative IPC: 0.56219 (Simulation time: 0 hr 12 min 48 sec) 
Heartbeat CPU 0 instructions: 160000002 cycles: 217649464 heartbeat IPC: 0.560749 cumulative IPC: 0.562058 (Simulation time: 0 hr 13 min 42 sec) 
Heartbeat CPU 0 instructions: 170000001 cycles: 235354817 heartbeat IPC: 0.564801 cumulative IPC: 0.562286 (Simulation time: 0 hr 14 min 33 sec) 
Heartbeat CPU 0 instructions: 180000001 cycles: 253143649 heartbeat IPC: 0.56215 cumulative IPC: 0.562276 (Simulation time: 0 hr 15 min 21 sec) 
Heartbeat CPU 0 instructions: 190000001 cycles: 270827176 heartbeat IPC: 0.565498 cumulative IPC: 0.562504 (Simulation time: 0 hr 16 min 6 sec) 
Heartbeat CPU 0 instructions: 200000003 cycles: 288541591 heartbeat IPC: 0.564512 cumulative IPC: 0.562638 (Simulation time: 0 hr 16 min 51 sec) 
Heartbeat CPU 0 instructions: 210000003 cycles: 306399884 heartbeat IPC: 0.559964 cumulative IPC: 0.56247 (Simulation time: 0 hr 17 min 36 sec) 
Heartbeat CPU 0 instructions: 220000000 cycles: 324108813 heartbeat IPC: 0.564687 cumulative IPC: 0.5626 (Simulation time: 0 hr 18 min 20 sec) 
Heartbeat CPU 0 instructions: 230000000 cycles: 341842963 heartbeat IPC: 0.563884 cumulative IPC: 0.562671 (Simulation time: 0 hr 19 min 4 sec) 
Heartbeat CPU 0 instructions: 240000001 cycles: 359726746 heartbeat IPC: 0.559166 cumulative IPC: 0.562486 (Simulation time: 0 hr 19 min 47 sec) 
Heartbeat CPU 0 instructions: 250000000 cycles: 377539140 heartbeat IPC: 0.561407 cumulative IPC: 0.562432 (Simulation time: 0 hr 20 min 30 sec) 
Finished CPU 0 instructions: 200000003 cycles: 355598865 cumulative IPC: 0.562431 (Simulation time: 0 hr 20 min 30 sec) 
 Instruction ID: 250000373

ChampSim completed all CPUs

Region of Interest Statistics

CPU 0 cumulative IPC: 0.562431 instructions: 200000003 cycles: 355598865
ITLB SPEC fills:          0  NON-SPEC fills:          0
ITLB Test counter :          0
ITLB Leapfrog:          0
ITLB MSHR merge:          0
ITLB TOTAL     ACCESS:   28748672  HIT:   28748672  MISS:          0  HIT %:        100  MISS %:          0   MPKI: 0
ITLB LOAD TRANSLATION NON_SPEC    ACCESS:   28748672  HIT:   28748672  MISS:          0  HIT %:        100  MISS %:          0   MPKI: 0
ITLB PREFETCH  REQUESTED:          0  ISSUED:          0  USEFUL:          0  USELESS:          0
ITLB USEFUL LOAD PREFETCHES:          0 PREFETCH ISSUED TO LOWER LEVEL:          0  ACCURACY: -nan
ITLB TIMELY PREFETCHES:          0 LATE PREFETCHES: 0 DROPPED PREFETCHES: 0
ITLB COMMIT LATE PREFETCHES: 0 MISSED OPPORTUNITY: 0 LATE IN PQ: 0 UNCOVERED: 0
ITLB COMMIT LATE MSHR PREFETCHES: 0
ITLB MPKI TOTAL: 0 MSHR LATE: 0 PQ LATE: 0 COMMIT LATE: 0 MISSED OPPORTUNITY: 0 UNCOVERED: 0
ITLB PREFETCHES SAME FILL-ORIGIN LEVEL: 0 DIFFERENT FILL-ORIGIN LEVEL: 0
ITLB AVERAGE MISS LATENCY: -nan cycles
ITLB AVERAGE MISS LATENCY LOAD: -nan cycles
ITLB AVERAGE MISS LATENCY PREFETCH: -nan cycles
ITLB AVERAGE MSHR OCCUPANCY: 0
ITLB MSHR FULL: 0
ITLB RQ	ACCESS:   34682398	FORWARD:          0	MERGED:    5933727	TO_CACHE:   28748671

DTLB SPEC fills:          0  NON-SPEC fills:          0
DTLB Test counter :          0
DTLB Leapfrog:          0
DTLB MSHR merge:          0
DTLB TOTAL     ACCESS:   57705296  HIT:   49981965  MISS:    7723331  HIT %:    86.6159  MISS %:    13.3841   MPKI: 38.6167
DTLB LOAD TRANSLATION NON_SPEC    ACCESS:   57705296  HIT:   49981965  MISS:    7723331  HIT %:    86.6159  MISS %:    13.3841   MPKI: 38.6167
DTLB PREFETCH  REQUESTED:          0  ISSUED:          0  USEFUL:          0  USELESS:          0
DTLB USEFUL LOAD PREFETCHES:          0 PREFETCH ISSUED TO LOWER LEVEL:          0  ACCURACY: -nan
DTLB TIMELY PREFETCHES:          0 LATE PREFETCHES: 0 DROPPED PREFETCHES: 0
DTLB COMMIT LATE PREFETCHES: 0 MISSED OPPORTUNITY: 0 LATE IN PQ: 0 UNCOVERED: 0
DTLB COMMIT LATE MSHR PREFETCHES: 0
DTLB MPKI TOTAL: 0 MSHR LATE: 0 PQ LATE: 0 COMMIT LATE: 0 MISSED OPPORTUNITY: 0 UNCOVERED: 0
DTLB PREFETCHES SAME FILL-ORIGIN LEVEL: 0 DIFFERENT FILL-ORIGIN LEVEL: 0
DTLB AVERAGE MISS LATENCY: 10.0572 cycles
DTLB AVERAGE MISS LATENCY LOAD: -nan cycles
DTLB AVERAGE MISS LATENCY PREFETCH: -nan cycles
DTLB AVERAGE MSHR OCCUPANCY: 0.915876
DTLB MSHR FULL: 0.0298766
DTLB RQ	ACCESS:   83545744	FORWARD:          0	MERGED:   24774316	TO_CACHE:   58771428

STLB SPEC fills:          0  NON-SPEC fills:          0
STLB Test counter :          0
STLB Leapfrog:          0
STLB MSHR merge:          0
STLB TOTAL     ACCESS:    7723331  HIT:    7714815  MISS:       8516  HIT %:    99.8897  MISS %:   0.110263   MPKI: 0.04258
STLB LOAD TRANSLATION NON_SPEC    ACCESS:    7723331  HIT:    7714815  MISS:       8516  HIT %:    99.8897  MISS %:   0.110263   MPKI: 0.04258
STLB PREFETCH  REQUESTED:          0  ISSUED:          0  USEFUL:          0  USELESS:          0
STLB USEFUL LOAD PREFETCHES:          0 PREFETCH ISSUED TO LOWER LEVEL:          0  ACCURACY: -nan
STLB TIMELY PREFETCHES:          0 LATE PREFETCHES: 0 DROPPED PREFETCHES: 0
STLB COMMIT LATE PREFETCHES: 0 MISSED OPPORTUNITY: 0 LATE IN PQ: 0 UNCOVERED: 0
STLB COMMIT LATE MSHR PREFETCHES: 0
STLB MPKI TOTAL: 0 MSHR LATE: 0 PQ LATE: 0 COMMIT LATE: 0 MISSED OPPORTUNITY: 0 UNCOVERED: 0
STLB PREFETCHES SAME FILL-ORIGIN LEVEL: 0 DIFFERENT FILL-ORIGIN LEVEL: 0
STLB AVERAGE MISS LATENCY: 647.905 cycles
STLB AVERAGE MISS LATENCY LOAD: -nan cycles
STLB AVERAGE MISS LATENCY PREFETCH: -nan cycles
STLB AVERAGE MSHR OCCUPANCY: 0.0100292
STLB MSHR FULL: 0
STLB RQ	ACCESS:    7723331	FORWARD:          0	MERGED:          0	TO_CACHE:    7723331

STLB Hit, L1D data hit: 0
STLB Hit, L2C data hit: 0
STLB Hit, LLC data hit: 0
STLB Hit, LLC data miss: 0
STLB STLB hints to L2: 0
L0D SPEC fills:   46054431  NON-SPEC fills:          0
L0D TimeGuard Request with older TS:    2876573 Restricted eviction:    2766873 read:    2697686
L0D Test counter :          0
L0D Leapfrog:          0
L0D MSHR merge:    3073246
L0D TOTAL     ACCESS:   64259924  HIT:    9253961  MISS:   55005963  HIT %:    14.4008  MISS %:    85.5992   MPKI: 275.03
L0D LOAD      TOTAL       ACCESS:   64259924  HIT:    9253961  MISS:   55005963  HIT %:    14.4008  MISS %:    85.5992   MPKI: 275.03
L0D LOAD      NON_SPEC    ACCESS:    6526091  HIT:     341156  MISS:    6184935  HIT %:    5.22757  MISS %:    94.7724   MPKI: 30.9247
L0D LOAD      SPEC        ACCESS:   57733833  HIT:    8912805  MISS:   48821028  HIT %:    15.4378  MISS %:    84.5622   MPKI: 244.105
L0D PREFETCH  REQUESTED:          0  ISSUED:          0  USEFUL:          0  USELESS:          0
L0D USEFUL LOAD PREFETCHES:          0 PREFETCH ISSUED TO LOWER LEVEL:          0  ACCURACY: -nan
L0D TIMELY PREFETCHES:          0 LATE PREFETCHES: 0 DROPPED PREFETCHES: 0
L0D COMMIT LATE PREFETCHES: 0 MISSED OPPORTUNITY: 0 LATE IN PQ: 0 UNCOVERED: 0
L0D COMMIT LATE MSHR PREFETCHES: 0
L0D MPKI TOTAL: 290.396 MSHR LATE: 0 PQ LATE: 0 COMMIT LATE: 0 MISSED OPPORTUNITY: 0 UNCOVERED: 0
L0D PREFETCHES SAME FILL-ORIGIN LEVEL: 0 DIFFERENT FILL-ORIGIN LEVEL: 0
L0D AVERAGE MISS LATENCY: 15.2836 cycles
L0D AVERAGE MISS LATENCY LOAD: 15.2836 cycles
L0D AVERAGE MISS LATENCY PREFETCH: -nan cycles
L0D AVERAGE MSHR OCCUPANCY: 5.23987
L0D MSHR FULL: 0.435171
L0D RQ	ACCESS:   77807339	FORWARD:          0	MERGED:   10474177	TO_CACHE:   67333162
L0D WQ	ACCESS:   16212582	FORWARD:          0	MERGED:          0	TO_CACHE:   16212582

L1D SPEC fills:          0  NON-SPEC fills:     620421
L1D Test counter :          0
L1D Leapfrog:          0
L1D MSHR merge:      78494
L1D TOTAL     ACCESS:   87758173  HIT:   59094816  MISS:   28663357  HIT %:    67.3382  MISS %:    32.6618   MPKI: 143.317
L1D LOAD      TOTAL       ACCESS:   54927468  HIT:   40485803  MISS:   14441665  HIT %:    73.7078  MISS %:    26.2922   MPKI: 72.2083
L1D LOAD      NON_SPEC    ACCESS:    6172110  HIT:    5551689  MISS:     620421  HIT %:     89.948  MISS %:     10.052   MPKI: 3.1021
L1D LOAD      SPEC        ACCESS:   48755358  HIT:   34934114  MISS:   13821244  HIT %:    71.6518  MISS %:    28.3482   MPKI: 69.1062
L1D RFO       NON_SPEC    ACCESS:   15958350  HIT:   14714397  MISS:    1243953  HIT %:     92.205  MISS %:      7.795   MPKI: 6.21976
L1D COMMIT LOAD NON_SPEC    ACCESS:    5851303  HIT:    3350088  MISS:    2501215  HIT %:    57.2537  MISS %:    42.7463   MPKI: 12.5061
L1D COMMIT WRITE NON_SPEC    ACCESS:   11021052  HIT:     544528  MISS:   10476524  HIT %:     4.9408  MISS %:    95.0592   MPKI: 52.3826
L1D PREFETCH  REQUESTED:          0  ISSUED:          0  USEFUL:          0  USELESS:          0
L1D USEFUL LOAD PREFETCHES:          0 PREFETCH ISSUED TO LOWER LEVEL:          0  ACCURACY: -nan
L1D TIMELY PREFETCHES:          0 LATE PREFETCHES: 0 DROPPED PREFETCHES: 0
L1D COMMIT LATE PREFETCHES: 0 MISSED OPPORTUNITY: 0 LATE IN PQ: 0 UNCOVERED: 0
L1D COMMIT LATE MSHR PREFETCHES: 0
L1D MPKI TOTAL: 72.6008 MSHR LATE: 0 PQ LATE: 0 COMMIT LATE: 0 MISSED OPPORTUNITY: 0 UNCOVERED: 0
L1D PREFETCHES SAME FILL-ORIGIN LEVEL: 0 DIFFERENT FILL-ORIGIN LEVEL: 0
L1D AVERAGE MISS LATENCY: 13.6902 cycles
L1D AVERAGE MISS LATENCY LOAD: 16.5332 cycles
L1D AVERAGE MISS LATENCY PREFETCH: -nan cycles
L1D AVERAGE MSHR OCCUPANCY: 3.26422
L1D MSHR FULL: 0.120294
L1D RQ	ACCESS:   62264743	FORWARD:          0	MERGED:    1277819	TO_CACHE:   60986924
L1D WQ	ACCESS:   27233635	FORWARD:          0	MERGED:     129028	TO_CACHE:   27104607

L1D UNIQUE REGIONS ACCESSED: 0
L1D REGIONS CONFLICTS: 0
L1D Cross Page Prefetch Requests: 0
L1D Same Page Prefetch Requests: 0
L1D ROI Sum of L1D PQ occupancy: 0
L1D PREFETCHES PUSHED FROM L2C: 0
L1I SPEC fills:          0  NON-SPEC fills:          0
L1I Test counter :          0
L1I Leapfrog:          0
L1I MSHR merge:    2614822
L1I TOTAL     ACCESS:   32067576  HIT:   26867566  MISS:    5200010  HIT %:    83.7842  MISS %:    16.2158   MPKI: 26
L1I LOAD      TOTAL       ACCESS:   32067576  HIT:   26867566  MISS:    5200010  HIT %:    83.7842  MISS %:    16.2158   MPKI: 26
L1I LOAD      NON_SPEC    ACCESS:   32067576  HIT:   26867566  MISS:    5200010  HIT %:    83.7842  MISS %:    16.2158   MPKI: 26
L1I PREFETCH  REQUESTED:          0  ISSUED:          0  USEFUL:          0  USELESS:          0
L1I USEFUL LOAD PREFETCHES:          0 PREFETCH ISSUED TO LOWER LEVEL:          0  ACCURACY: -nan
L1I TIMELY PREFETCHES:          0 LATE PREFETCHES: 0 DROPPED PREFETCHES: 0
L1I COMMIT LATE PREFETCHES: 0 MISSED OPPORTUNITY: 0 LATE IN PQ: 0 UNCOVERED: 0
L1I COMMIT LATE MSHR PREFETCHES: 0
L1I MPKI TOTAL: 39.0742 MSHR LATE: 0 PQ LATE: 0 COMMIT LATE: 0 MISSED OPPORTUNITY: 0 UNCOVERED: 0
L1I PREFETCHES SAME FILL-ORIGIN LEVEL: 0 DIFFERENT FILL-ORIGIN LEVEL: 0
L1I AVERAGE MISS LATENCY: 14.0376 cycles
L1I AVERAGE MISS LATENCY LOAD: 14.0376 cycles
L1I AVERAGE MISS LATENCY PREFETCH: -nan cycles
L1I AVERAGE MSHR OCCUPANCY: 0.205246
L1I MSHR FULL: 0
L1I RQ	ACCESS:   49732309	FORWARD:          0	MERGED:   15049911	TO_CACHE:   34682398

BTB SPEC fills:          0  NON-SPEC fills:          0
BTB Test counter :          0
BTB Leapfrog:          0
BTB MSHR merge:          0
BTB TOTAL     ACCESS:    1127062  HIT:    1054337  MISS:      72725  HIT %:    93.5474  MISS %:    6.45262   MPKI: 0.363625
BTB BRANCH_DIRECT_JUMP	ACCESS:     218098  HIT:     218093  MISS:          5
BTB BRANCH_INDIRECT	ACCESS:      36350  HIT:      36349  MISS:          1
BTB BRANCH_CONDITIONAL	ACCESS:     436418  HIT:     436406  MISS:         12
BTB BRANCH_DIRECT_CALL	ACCESS:     218098  HIT:     218093  MISS:          5
BTB BRANCH_INDIRECT_CALL	ACCESS:          0  HIT:          0  MISS:          0
BTB BRANCH_RETURN	ACCESS:     218098  HIT:     145396  MISS:      72702
BTB BRANCH_OTHER ACCESS:          0  HIT:          0  MISS:          0

L2C SPEC fills:          0  NON-SPEC fills:      18179
L2C Test counter :          0
L2C Leapfrog:          0
L2C MSHR merge:       1920
L2C TOTAL     ACCESS:   28420698  HIT:   26928476  MISS:    1492222  HIT %:    94.7495  MISS %:    5.25048   MPKI: 7.46111
L2C LOAD      TOTAL       ACCESS:   19636681  HIT:   19125679  MISS:     511002  HIT %:    97.3977  MISS %:    2.60228   MPKI: 2.55501
L2C LOAD      NON_SPEC    ACCESS:    5820062  HIT:    5800675  MISS:      19387  HIT %:    99.6669  MISS %:   0.333106   MPKI: 0.096935
L2C LOAD      SPEC        ACCESS:   13816619  HIT:   13325004  MISS:     491615  HIT %:    96.4419  MISS %:    3.55814   MPKI: 2.45807
L2C RFO       NON_SPEC    ACCESS:    1241831  HIT:    1124050  MISS:     117781  HIT %:    90.5155  MISS %:    9.48446   MPKI: 0.588905
L2C PREFETCH  NON_SPEC    ACCESS:    2789661  HIT:    2426009  MISS:     363652  HIT %:    86.9643  MISS %:    13.0357   MPKI: 1.81826
L2C WRITEBACK NON_SPEC    ACCESS:    1259209  HIT:    1259124  MISS:         85  HIT %:    99.9932  MISS %: 0.00675027   MPKI: 0.000425
L2C CLEAN_EVICTION NON_SPEC    ACCESS:     949809  HIT:     553293  MISS:     396516  HIT %:    58.2531  MISS %:    41.7469   MPKI: 1.98258
L2C COMMIT LOAD NON_SPEC    ACCESS:    2500936  HIT:    2409457  MISS:      91479  HIT %:    96.3422  MISS %:    3.65779   MPKI: 0.457395
L2C LOAD TRANSLATION NON_SPEC    ACCESS:      42571  HIT:      30864  MISS:      11707  HIT %:    72.5001  MISS %:    27.4999   MPKI: 0.058535
L2C PREFETCH  REQUESTED:    2794354  ISSUED:    2794354  USEFUL:     360153  USELESS:       3498
L2C USEFUL LOAD PREFETCHES:     360153 PREFETCH ISSUED TO LOWER LEVEL:     365572  ACCURACY: 98.5177
L2C TIMELY PREFETCHES:     360153 LATE PREFETCHES: 1920 DROPPED PREFETCHES: 0
L2C COMMIT LATE PREFETCHES: 0 MISSED OPPORTUNITY: 0 LATE IN PQ: 0 UNCOVERED: 0
L2C COMMIT LATE MSHR PREFETCHES: 0
L2C MPKI TOTAL: 2.55501 MSHR LATE: 0.0096 PQ LATE: 0 COMMIT LATE: 0 MISSED OPPORTUNITY: 0 UNCOVERED: 0
L2C PREFETCHES SAME FILL-ORIGIN LEVEL: 365572 DIFFERENT FILL-ORIGIN LEVEL: 0
L2C AVERAGE MISS LATENCY: 129.427 cycles
L2C AVERAGE MISS LATENCY LOAD: 126.582 cycles
L2C AVERAGE MISS LATENCY PREFETCH: 89.0625 cycles
L2C AVERAGE MSHR OCCUPANCY: 0.604752
L2C MSHR FULL: 3.15942e-06
L2C RQ	ACCESS:   23429414	FORWARD:          0	MERGED:          0	TO_CACHE:   23422019
L2C WQ	ACCESS:    2209347	FORWARD:       7467	MERGED:        329	TO_CACHE:    2209018
L2C PQ	ACCESS:    2794354	FORWARD:          0	MERGED:         15	TO_CACHE:    2794267

L2C Instructions Evicting Data 1126
L2C Translations Evicting Data 11634
L2C Data Evicting Data 583580
L2C Instructions Evicting Instructions 69
L2C Translations Evicting Instructions 4
L2C Data Evicting Instructions 713
L2C Instructions Evicting Translations 13
L2C Translations Evicting Translations 69
L2C Data Evicting Translations 6798
L2C Dense regions hint from L2: 0
PSCL5 SPEC fills:          0  NON-SPEC fills:          0
PSCL5 Test counter :          0
PSCL5 Leapfrog:          0
PSCL5 MSHR merge:          0
PSCL5 TOTAL     ACCESS:          0  HIT:          0  MISS:          0  HIT %:       -nan  MISS %:       -nan   MPKI: 0
PSCL5 PREFETCH  REQUESTED:          0  ISSUED:          0  USEFUL:          0  USELESS:          0
PSCL5 USEFUL LOAD PREFETCHES:          0 PREFETCH ISSUED TO LOWER LEVEL:          0  ACCURACY: -nan
PSCL5 TIMELY PREFETCHES:          0 LATE PREFETCHES: 0 DROPPED PREFETCHES: 0
PSCL5 COMMIT LATE PREFETCHES: 0 MISSED OPPORTUNITY: 0 LATE IN PQ: 0 UNCOVERED: 0
PSCL5 COMMIT LATE MSHR PREFETCHES: 0
PSCL5 MPKI TOTAL: 0 MSHR LATE: 0 PQ LATE: 0 COMMIT LATE: 0 MISSED OPPORTUNITY: 0 UNCOVERED: 0
PSCL5 PREFETCHES SAME FILL-ORIGIN LEVEL: 0 DIFFERENT FILL-ORIGIN LEVEL: 0

PSCL4 SPEC fills:          0  NON-SPEC fills:          0
PSCL4 Test counter :          0
PSCL4 Leapfrog:          0
PSCL4 MSHR merge:          0
PSCL4 TOTAL     ACCESS:          0  HIT:          0  MISS:          0  HIT %:       -nan  MISS %:       -nan   MPKI: 0
PSCL4 PREFETCH  REQUESTED:          0  ISSUED:          0  USEFUL:          0  USELESS:          0
PSCL4 USEFUL LOAD PREFETCHES:          0 PREFETCH ISSUED TO LOWER LEVEL:          0  ACCURACY: -nan
PSCL4 TIMELY PREFETCHES:          0 LATE PREFETCHES: 0 DROPPED PREFETCHES: 0
PSCL4 COMMIT LATE PREFETCHES: 0 MISSED OPPORTUNITY: 0 LATE IN PQ: 0 UNCOVERED: 0
PSCL4 COMMIT LATE MSHR PREFETCHES: 0
PSCL4 MPKI TOTAL: 0 MSHR LATE: 0 PQ LATE: 0 COMMIT LATE: 0 MISSED OPPORTUNITY: 0 UNCOVERED: 0
PSCL4 PREFETCHES SAME FILL-ORIGIN LEVEL: 0 DIFFERENT FILL-ORIGIN LEVEL: 0

PSCL3 SPEC fills:          0  NON-SPEC fills:          0
PSCL3 Test counter :          0
PSCL3 Leapfrog:          0
PSCL3 MSHR merge:          0
PSCL3 TOTAL     ACCESS:          0  HIT:          0  MISS:          0  HIT %:       -nan  MISS %:       -nan   MPKI: 0
PSCL3 PREFETCH  REQUESTED:          0  ISSUED:          0  USEFUL:          0  USELESS:          0
PSCL3 USEFUL LOAD PREFETCHES:          0 PREFETCH ISSUED TO LOWER LEVEL:          0  ACCURACY: -nan
PSCL3 TIMELY PREFETCHES:          0 LATE PREFETCHES: 0 DROPPED PREFETCHES: 0
PSCL3 COMMIT LATE PREFETCHES: 0 MISSED OPPORTUNITY: 0 LATE IN PQ: 0 UNCOVERED: 0
PSCL3 COMMIT LATE MSHR PREFETCHES: 0
PSCL3 MPKI TOTAL: 0 MSHR LATE: 0 PQ LATE: 0 COMMIT LATE: 0 MISSED OPPORTUNITY: 0 UNCOVERED: 0
PSCL3 PREFETCHES SAME FILL-ORIGIN LEVEL: 0 DIFFERENT FILL-ORIGIN LEVEL: 0

PSCL2 SPEC fills:          0  NON-SPEC fills:          0
PSCL2 Test counter :          0
PSCL2 Leapfrog:          0
PSCL2 MSHR merge:          0
PSCL2 TOTAL     ACCESS:          0  HIT:          0  MISS:          0  HIT %:       -nan  MISS %:       -nan   MPKI: 0
PSCL2 PREFETCH  REQUESTED:          0  ISSUED:          0  USEFUL:          0  USELESS:          0
PSCL2 USEFUL LOAD PREFETCHES:          0 PREFETCH ISSUED TO LOWER LEVEL:          0  ACCURACY: -nan
PSCL2 TIMELY PREFETCHES:          0 LATE PREFETCHES: 0 DROPPED PREFETCHES: 0
PSCL2 COMMIT LATE PREFETCHES: 0 MISSED OPPORTUNITY: 0 LATE IN PQ: 0 UNCOVERED: 0
PSCL2 COMMIT LATE MSHR PREFETCHES: 0
PSCL2 MPKI TOTAL: 0 MSHR LATE: 0 PQ LATE: 0 COMMIT LATE: 0 MISSED OPPORTUNITY: 0 UNCOVERED: 0
PSCL2 PREFETCHES SAME FILL-ORIGIN LEVEL: 0 DIFFERENT FILL-ORIGIN LEVEL: 0

LLC SPEC fills:          0  NON-SPEC fills:       9092
LLC Test counter :          0
LLC Leapfrog:          0
LLC MSHR merge:          0
LLC TOTAL     ACCESS:    1751183  HIT:     914444  MISS:     836739  HIT %:    52.2186  MISS %:    47.7814   MPKI: 4.18369
LLC LOAD      TOTAL       ACCESS:     508955  HIT:     197338  MISS:     311617  HIT %:    38.7732  MISS %:    61.2268   MPKI: 1.55808
LLC LOAD      NON_SPEC    ACCESS:      19302  HIT:      10157  MISS:       9145  HIT %:    52.6215  MISS %:    47.3785   MPKI: 0.045725
LLC LOAD      SPEC        ACCESS:     489653  HIT:     187181  MISS:     302472  HIT %:    38.2273  MISS %:    61.7727   MPKI: 1.51236
LLC RFO       NON_SPEC    ACCESS:     117764  HIT:         64  MISS:     117700  HIT %:   0.054346  MISS %:    99.9457   MPKI: 0.5885
LLC PREFETCH  NON_SPEC    ACCESS:     365496  HIT:     259503  MISS:     105993  HIT %:    71.0002  MISS %:    28.9998   MPKI: 0.529965
LLC WRITEBACK NON_SPEC    ACCESS:     117931  HIT:     117887  MISS:         44  HIT %:    99.9627  MISS %:    0.03731   MPKI: 0.00022
LLC CLEAN_EVICTION NON_SPEC    ACCESS:     537896  HIT:     279427  MISS:     258469  HIT %:    51.9481  MISS %:    48.0519   MPKI: 1.29234
LLC COMMIT LOAD NON_SPEC    ACCESS:      91434  HIT:      49679  MISS:      41755  HIT %:    54.3332  MISS %:    45.6668   MPKI: 0.208775
LLC LOAD TRANSLATION NON_SPEC    ACCESS:      11707  HIT:      10546  MISS:       1161  HIT %:    90.0829  MISS %:    9.91714   MPKI: 0.005805
LLC PREFETCH  REQUESTED:          0  ISSUED:          0  USEFUL:      49538  USELESS:      56319
LLC USEFUL LOAD PREFETCHES:      49538 PREFETCH ISSUED TO LOWER LEVEL:     105993  ACCURACY: 46.737
LLC TIMELY PREFETCHES:      49538 LATE PREFETCHES: 0 DROPPED PREFETCHES: 0
LLC COMMIT LATE PREFETCHES: 0 MISSED OPPORTUNITY: 0 LATE IN PQ: 0 UNCOVERED: 0
LLC COMMIT LATE MSHR PREFETCHES: 0
LLC MPKI TOTAL: 1.55808 MSHR LATE: 0 PQ LATE: 0 COMMIT LATE: 0 MISSED OPPORTUNITY: 0 UNCOVERED: 0
LLC PREFETCHES SAME FILL-ORIGIN LEVEL: 0 DIFFERENT FILL-ORIGIN LEVEL: 0
LLC AVERAGE MISS LATENCY: 196.552 cycles
LLC AVERAGE MISS LATENCY LOAD: 171.771 cycles
LLC AVERAGE MISS LATENCY PREFETCH: 203.036 cycles
LLC AVERAGE MSHR OCCUPANCY: 3.00463
LLC MSHR FULL: 0
LLC RQ	ACCESS:     730049	FORWARD:          0	MERGED:          0	TO_CACHE:     729860
LLC WQ	ACCESS:     655827	FORWARD:        265	MERGED:          0	TO_CACHE:     655827
LLC PQ	ACCESS:     365572	FORWARD:          0	MERGED:          0	TO_CACHE:     365496

LLC Dense regions hint to LLC: 0

RAW hits: 564660
Loads Generated: 78372000
Loads sent to L1D: 77807339
Stores Generated: 16212582
Stores sent to L1D: 16212582
Major fault: 0 Minor fault: 8463
Allocated PAGES: 8463
Total Load insts: 132814627
Total Non-spec loads: 8868201
Percentage of speculative loads: 93.3229

LeapFrogging counter: 33758467
Commit hits: 43494188 miss: 27637508
Commit hit %: 61.146 miss %: 38.854
Commits not translated: 0
Loads retired: 14441647
Stores retired: 16212582
Cache fills: 14441665
L1D response latency: 16.5332 cycles
Load retirement latency: 207.349 cycles
OOO test counter: 0
Discarded buffer inserts: 43494188 hits: 474853 hit %: 1.09176
Filter prediction accuracy: 98.3999
[Bingo] PHT Access: 4912401
[Bingo] PHT Hit PC+Addr: 248800
[Bingo] PHT Hit PC+Offs: 590446
[Bingo] PHT Miss: 4073155
[Bingo] Prefetch PC+Addr: 0
[Bingo] Prefetch PC+Offs: 0
[Bingo] Useful PC+Addr: 0
[Bingo] Useful PC+Offs: 0
[Bingo] Useless PC+Addr: 0
[Bingo] Useless PC+Offs: 0
[Bingo] L1 Prefetch per Region: 0
[Bingo] L2 Prefetch per Region: 4.43233
[Bingo] L3 Prefetch per Region: 0
[Bingo] No Prefetch per Region: 27.5677
[Bingo] Number of Voters Mean: 3.53379
[Bingo] Number of Voters SD: 3.13722
PHT read accesses: 76047348
PHT write accesses: 484202
AT read accesses: 9579087
AT write accesses: 9852526
FT read accesses: 1892856
FT write accesses: 4912401
PS read accesses: 1704450
PS write accesses: 839246
PHT tag read accesses: 89673499
PHT tag write accesses: 733002
AT tag read accesses: 268601402
AT tag write accesses: 10063282
FT tag read accesses: 265199637
FT tag write accesses: 6165123
PS tag read accesses: 258545193
PS tag write accesses: 2532334

DRAM Statistics
 CHANNEL 0
 RQ ROW_BUFFER_HIT:     295664  ROW_BUFFER_MISS:     282562
 DBUS_CONGESTED:        577
 WQ ROW_BUFFER_HIT:     111210  ROW_BUFFER_MISS:     360594  FULL:       3531

 AVG_CONGESTED_CYCLE: 5
 All warmup complete: 2
Channel 0 Bank busy for read cycles: 0
Channel 0 Bank busy for write cycles: 0
Channel 0
Rank 0
0banks busy for read cycles: 279862162
0banks busy for write cycles: 231353
1banks busy for read cycles: 25451295
1banks busy for write cycles: 26668668
2banks busy for read cycles: 5217376
2banks busy for write cycles: 6509072
3banks busy for read cycles: 2548406
3banks busy for write cycles: 2884559
4banks busy for read cycles: 1218331
4banks busy for write cycles: 1428527
5banks busy for read cycles: 576150
5banks busy for write cycles: 772319
6banks busy for read cycles: 252328
6banks busy for write cycles: 466785
7banks busy for read cycles: 210523
7banks busy for write cycles: 356284
8banks busy for read cycles: 376645
8banks busy for write cycles: 568083

CPU 0 Branch Prediction Accuracy: 99.9875% MPKI: 0.001115 Average ROB Occupancy at Mispredict: 24.8744
Branch types
NOT_BRANCH: 198218417 99.1092%
BRANCH_DIRECT_JUMP: 218098 0.109049%
BRANCH_INDIRECT: 36350 0.018175%
BRANCH_CONDITIONAL: 1090933 0.545466%
BRANCH_DIRECT_CALL: 218098 0.109049%
BRANCH_INDIRECT_CALL: 0 0%
BRANCH_RETURN: 218098 0.109049%
BRANCH_OTHER: 0 0%

DRAM PAGES: 1048576
Allocated PAGES: 8463
