
*** ChampSim Multicore Out-of-Order Simulator ***

Warmup Instructions: 50000000
Simulation Instructions: 200000000
Number of CPUs: 1
LLC sets: 2048
LLC ways: 16
L0D sets: 16
L0D ways: 2
ROB size: 352
LQ size: 128
SQ size: 72
Secure Berti: OFF
Berti: OFF
Berti Fill: OFF
On commit prefetching: OFF
Hit-based filter: ON
Time-guarding: ON
Free-slotting: ON
Leap-frogging: ON
Train prefetcher on L0D bypass: OFF
No translation penalty for prefetchers: OFF
Prefetch to L0D only: OFF
Prefetch to L1D only: OFF
Clean evictions: ON
Commit loads: ON
Commit write: ON
Fill commit loads to L2C, LLC: ON
DRAM IO FREQUENCY: 6400
ROB SIZE: 352
Off-chip DRAM Size: 4096 MB Channels: 1 Width: 64-bit Data Rate: 6400 MT/s
CPU 0 runs /home/sumon/secure_berti/GhostMinion/../../traces/spec/607.cactuBSSN_s-2421B.champsimtrace.xz
.xz
BTB has LRU replacement policy
ITLB has LRU replacement policy
DTLB has LRU replacement policy
STLB has LRU replacement policy
L1I has LRU replacement policy
L0D has LRU replacement policy
L1D has LRU replacement policy
Bingo PHT WAYS: 16 and PHT_SIZE: 16384
L2C has LRU replacement policy
LLC has LRU replacement policy
Heartbeat CPU 0 instructions: 10000002 cycles: 4433245 heartbeat IPC: 2.25568 cumulative IPC: 2.25568 (Simulation time: 0 hr 0 min 41 sec) 
Heartbeat CPU 0 instructions: 20000001 cycles: 8858041 heartbeat IPC: 2.25999 cumulative IPC: 2.25784 (Simulation time: 0 hr 1 min 23 sec) 
Heartbeat CPU 0 instructions: 30000002 cycles: 13293189 heartbeat IPC: 2.25472 cumulative IPC: 2.25679 (Simulation time: 0 hr 2 min 5 sec) 
Heartbeat CPU 0 instructions: 40000001 cycles: 17723275 heartbeat IPC: 2.25729 cumulative IPC: 2.25692 (Simulation time: 0 hr 2 min 47 sec) 
Heartbeat CPU 0 instructions: 50000003 cycles: 22152331 heartbeat IPC: 2.25782 cumulative IPC: 2.2571 (Simulation time: 0 hr 3 min 31 sec) 

Warmup complete CPU 0 instructions: 50000003 cycles: 22152331 (Simulation time: 0 hr 3 min 31 sec) 

Heartbeat CPU 0 instructions: 60000002 cycles: 41007478 heartbeat IPC: 0.530359 cumulative IPC: 0.530359 (Simulation time: 0 hr 4 min 20 sec) 
Heartbeat CPU 0 instructions: 70000001 cycles: 59931760 heartbeat IPC: 0.528422 cumulative IPC: 0.529389 (Simulation time: 0 hr 5 min 8 sec) 
Heartbeat CPU 0 instructions: 80000001 cycles: 78398994 heartbeat IPC: 0.5415 cumulative IPC: 0.533365 (Simulation time: 0 hr 5 min 57 sec) 
Heartbeat CPU 0 instructions: 90000000 cycles: 97083485 heartbeat IPC: 0.535203 cumulative IPC: 0.533823 (Simulation time: 0 hr 6 min 46 sec) 
Heartbeat CPU 0 instructions: 100000000 cycles: 115838693 heartbeat IPC: 0.533185 cumulative IPC: 0.533696 (Simulation time: 0 hr 7 min 35 sec) 
Heartbeat CPU 0 instructions: 110000000 cycles: 134328962 heartbeat IPC: 0.540825 cumulative IPC: 0.534871 (Simulation time: 0 hr 8 min 25 sec) 
Heartbeat CPU 0 instructions: 120000000 cycles: 152749346 heartbeat IPC: 0.542877 cumulative IPC: 0.536 (Simulation time: 0 hr 9 min 14 sec) 
Heartbeat CPU 0 instructions: 130000002 cycles: 171360681 heartbeat IPC: 0.537307 cumulative IPC: 0.536163 (Simulation time: 0 hr 10 min 4 sec) 
Heartbeat CPU 0 instructions: 140000002 cycles: 189939417 heartbeat IPC: 0.53825 cumulative IPC: 0.536394 (Simulation time: 0 hr 10 min 54 sec) 
Heartbeat CPU 0 instructions: 150000001 cycles: 208876884 heartbeat IPC: 0.528054 cumulative IPC: 0.535548 (Simulation time: 0 hr 11 min 44 sec) 
Heartbeat CPU 0 instructions: 160000002 cycles: 227661170 heartbeat IPC: 0.53236 cumulative IPC: 0.535257 (Simulation time: 0 hr 12 min 34 sec) 
Heartbeat CPU 0 instructions: 170000002 cycles: 246520368 heartbeat IPC: 0.530245 cumulative IPC: 0.534836 (Simulation time: 0 hr 13 min 21 sec) 
Heartbeat CPU 0 instructions: 180000001 cycles: 264848390 heartbeat IPC: 0.545613 cumulative IPC: 0.535649 (Simulation time: 0 hr 14 min 6 sec) 
Heartbeat CPU 0 instructions: 190000000 cycles: 283517757 heartbeat IPC: 0.535637 cumulative IPC: 0.535648 (Simulation time: 0 hr 14 min 50 sec) 
Heartbeat CPU 0 instructions: 200000001 cycles: 302461256 heartbeat IPC: 0.527886 cumulative IPC: 0.535124 (Simulation time: 0 hr 15 min 34 sec) 
Heartbeat CPU 0 instructions: 210000003 cycles: 321066555 heartbeat IPC: 0.537481 cumulative IPC: 0.535271 (Simulation time: 0 hr 16 min 13 sec) 
Heartbeat CPU 0 instructions: 220000000 cycles: 340158841 heartbeat IPC: 0.523772 cumulative IPC: 0.53458 (Simulation time: 0 hr 16 min 51 sec) 
Heartbeat CPU 0 instructions: 230000003 cycles: 358811684 heartbeat IPC: 0.536111 cumulative IPC: 0.534665 (Simulation time: 0 hr 17 min 29 sec) 
Heartbeat CPU 0 instructions: 240000000 cycles: 377193872 heartbeat IPC: 0.544005 cumulative IPC: 0.535149 (Simulation time: 0 hr 18 min 8 sec) 
Heartbeat CPU 0 instructions: 250000002 cycles: 395994937 heartbeat IPC: 0.531885 cumulative IPC: 0.534984 (Simulation time: 0 hr 18 min 47 sec) 
Finished CPU 0 instructions: 200000003 cycles: 373842607 cumulative IPC: 0.534985 (Simulation time: 0 hr 18 min 47 sec) 
 Instruction ID: 250000183

ChampSim completed all CPUs

Region of Interest Statistics

CPU 0 cumulative IPC: 0.534985 instructions: 200000003 cycles: 373842607
ITLB SPEC fills:          0  NON-SPEC fills:          0
ITLB Test counter :          0
ITLB Leapfrog:          0
ITLB MSHR merge:          0
ITLB TOTAL     ACCESS:   26841782  HIT:   26841732  MISS:         50  HIT %:    99.9998  MISS %: 0.000186277   MPKI: 0.00025
ITLB LOAD TRANSLATION NON_SPEC    ACCESS:   26841782  HIT:   26841732  MISS:         50  HIT %:    99.9998  MISS %: 0.000186277   MPKI: 0.00025
ITLB PREFETCH  REQUESTED:          0  ISSUED:          0  USEFUL:          0  USELESS:          0
ITLB USEFUL LOAD PREFETCHES:          0 PREFETCH ISSUED TO LOWER LEVEL:          0  ACCURACY: -nan
ITLB TIMELY PREFETCHES:          0 LATE PREFETCHES: 0 DROPPED PREFETCHES: 0
ITLB COMMIT LATE PREFETCHES: 0 MISSED OPPORTUNITY: 0 LATE IN PQ: 0 UNCOVERED: 0
ITLB COMMIT LATE MSHR PREFETCHES: 0
ITLB MPKI TOTAL: 0 MSHR LATE: 0 PQ LATE: 0 COMMIT LATE: 0 MISSED OPPORTUNITY: 0 UNCOVERED: 0
ITLB PREFETCHES SAME FILL-ORIGIN LEVEL: 0 DIFFERENT FILL-ORIGIN LEVEL: 0
ITLB AVERAGE MISS LATENCY: 451 cycles
ITLB AVERAGE MISS LATENCY LOAD: -nan cycles
ITLB AVERAGE MISS LATENCY PREFETCH: -nan cycles
ITLB AVERAGE MSHR OCCUPANCY: 3.35298e-07
ITLB MSHR FULL: 0
ITLB RQ	ACCESS:   35149683	FORWARD:          0	MERGED:    8307893	TO_CACHE:   26841790

DTLB SPEC fills:          0  NON-SPEC fills:          0
DTLB Test counter :          0
DTLB Leapfrog:          0
DTLB MSHR merge:          0
DTLB TOTAL     ACCESS:   44256497  HIT:   29249741  MISS:   15006756  HIT %:    66.0914  MISS %:    33.9086   MPKI: 75.0338
DTLB LOAD TRANSLATION NON_SPEC    ACCESS:   44256497  HIT:   29249741  MISS:   15006756  HIT %:    66.0914  MISS %:    33.9086   MPKI: 75.0338
DTLB PREFETCH  REQUESTED:          0  ISSUED:          0  USEFUL:          0  USELESS:          0
DTLB USEFUL LOAD PREFETCHES:          0 PREFETCH ISSUED TO LOWER LEVEL:          0  ACCURACY: -nan
DTLB TIMELY PREFETCHES:          0 LATE PREFETCHES: 0 DROPPED PREFETCHES: 0
DTLB COMMIT LATE PREFETCHES: 0 MISSED OPPORTUNITY: 0 LATE IN PQ: 0 UNCOVERED: 0
DTLB COMMIT LATE MSHR PREFETCHES: 0
DTLB MPKI TOTAL: 0 MSHR LATE: 0 PQ LATE: 0 COMMIT LATE: 0 MISSED OPPORTUNITY: 0 UNCOVERED: 0
DTLB PREFETCHES SAME FILL-ORIGIN LEVEL: 0 DIFFERENT FILL-ORIGIN LEVEL: 0
DTLB AVERAGE MISS LATENCY: 10.0475 cycles
DTLB AVERAGE MISS LATENCY LOAD: -nan cycles
DTLB AVERAGE MISS LATENCY PREFETCH: -nan cycles
DTLB AVERAGE MSHR OCCUPANCY: 1.20977
DTLB MSHR FULL: 0.0434677
DTLB RQ	ACCESS:   63061343	FORWARD:          0	MERGED:   17683759	TO_CACHE:   45377584

STLB SPEC fills:          0  NON-SPEC fills:          0
STLB Test counter :          0
STLB Leapfrog:          0
STLB MSHR merge:          0
STLB TOTAL     ACCESS:   15006807  HIT:   14982255  MISS:      24552  HIT %:    99.8364  MISS %:   0.163606   MPKI: 0.12276
STLB LOAD TRANSLATION NON_SPEC    ACCESS:   15006807  HIT:   14982255  MISS:      24552  HIT %:    99.8364  MISS %:   0.163606   MPKI: 0.12276
STLB PREFETCH  REQUESTED:          0  ISSUED:          0  USEFUL:          0  USELESS:          0
STLB USEFUL LOAD PREFETCHES:          0 PREFETCH ISSUED TO LOWER LEVEL:          0  ACCURACY: -nan
STLB TIMELY PREFETCHES:          0 LATE PREFETCHES: 0 DROPPED PREFETCHES: 0
STLB COMMIT LATE PREFETCHES: 0 MISSED OPPORTUNITY: 0 LATE IN PQ: 0 UNCOVERED: 0
STLB COMMIT LATE MSHR PREFETCHES: 0
STLB MPKI TOTAL: 0 MSHR LATE: 0 PQ LATE: 0 COMMIT LATE: 0 MISSED OPPORTUNITY: 0 UNCOVERED: 0
STLB PREFETCHES SAME FILL-ORIGIN LEVEL: 0 DIFFERENT FILL-ORIGIN LEVEL: 0
STLB AVERAGE MISS LATENCY: 427.433 cycles
STLB AVERAGE MISS LATENCY LOAD: -nan cycles
STLB AVERAGE MISS LATENCY PREFETCH: -nan cycles
STLB AVERAGE MSHR OCCUPANCY: 0.0101676
STLB MSHR FULL: 0
STLB RQ	ACCESS:   15006809	FORWARD:          0	MERGED:          0	TO_CACHE:   15006809

STLB Hit, L1D data hit: 0
STLB Hit, L2C data hit: 0
STLB Hit, LLC data hit: 0
STLB Hit, LLC data miss: 0
STLB STLB hints to L2: 0
L0D SPEC fills:   31592802  NON-SPEC fills:          0
L0D TimeGuard Request with older TS:     502522 Restricted eviction:    1121052 read:     150147
L0D Test counter :          0
L0D Leapfrog:          0
L0D MSHR merge:    2693432
L0D TOTAL     ACCESS:   37582800  HIT:    3802234  MISS:   33780566  HIT %:     10.117  MISS %:     89.883   MPKI: 168.903
L0D LOAD      TOTAL       ACCESS:   37582800  HIT:    3802234  MISS:   33780566  HIT %:     10.117  MISS %:     89.883   MPKI: 168.903
L0D LOAD      NON_SPEC    ACCESS:    1126492  HIT:      59772  MISS:    1066720  HIT %:    5.30603  MISS %:     94.694   MPKI: 5.3336
L0D LOAD      SPEC        ACCESS:   36456308  HIT:    3742462  MISS:   32713846  HIT %:    10.2656  MISS %:    89.7344   MPKI: 163.569
L0D PREFETCH  REQUESTED:          0  ISSUED:          0  USEFUL:          0  USELESS:          0
L0D USEFUL LOAD PREFETCHES:          0 PREFETCH ISSUED TO LOWER LEVEL:          0  ACCURACY: -nan
L0D TIMELY PREFETCHES:          0 LATE PREFETCHES: 0 DROPPED PREFETCHES: 0
L0D COMMIT LATE PREFETCHES: 0 MISSED OPPORTUNITY: 0 LATE IN PQ: 0 UNCOVERED: 0
L0D COMMIT LATE MSHR PREFETCHES: 0
L0D MPKI TOTAL: 182.37 MSHR LATE: 0 PQ LATE: 0 COMMIT LATE: 0 MISSED OPPORTUNITY: 0 UNCOVERED: 0
L0D PREFETCHES SAME FILL-ORIGIN LEVEL: 0 DIFFERENT FILL-ORIGIN LEVEL: 0
L0D AVERAGE MISS LATENCY: 29.0692 cycles
L0D AVERAGE MISS LATENCY LOAD: 29.0692 cycles
L0D AVERAGE MISS LATENCY PREFETCH: -nan cycles
L0D AVERAGE MSHR OCCUPANCY: 5.90447
L0D MSHR FULL: 0.628575
L0D RQ	ACCESS:   57209218	FORWARD:          0	MERGED:   16932989	TO_CACHE:   40276229
L0D WQ	ACCESS:   22785114	FORWARD:          0	MERGED:          0	TO_CACHE:   22785114

L1D SPEC fills:          0  NON-SPEC fills:     420587
L1D Test counter :          0
L1D Leapfrog:          0
L1D MSHR merge:      55814
L1D TOTAL     ACCESS:   79869483  HIT:   35736600  MISS:   44132883  HIT %:    44.7437  MISS %:    55.2563   MPKI: 220.664
L1D LOAD      TOTAL       ACCESS:   33724749  HIT:   12228747  MISS:   21496002  HIT %:    36.2605  MISS %:    63.7395   MPKI: 107.48
L1D LOAD      NON_SPEC    ACCESS:    1063095  HIT:     642508  MISS:     420587  HIT %:    60.4375  MISS %:    39.5625   MPKI: 2.10293
L1D LOAD      SPEC        ACCESS:   32661654  HIT:   11586239  MISS:   21075415  HIT %:    35.4735  MISS %:    64.5265   MPKI: 105.377
L1D RFO       NON_SPEC    ACCESS:   22601653  HIT:   20987967  MISS:    1613686  HIT %:    92.8603  MISS %:    7.13968   MPKI: 8.06843
L1D COMMIT LOAD NON_SPEC    ACCESS:    3192143  HIT:    2470311  MISS:     721832  HIT %:    77.3872  MISS %:    22.6128   MPKI: 3.60916
L1D COMMIT WRITE NON_SPEC    ACCESS:   20350938  HIT:      49575  MISS:   20301363  HIT %:   0.243601  MISS %:    99.7564   MPKI: 101.507
L1D PREFETCH  REQUESTED:          0  ISSUED:          0  USEFUL:          0  USELESS:          0
L1D USEFUL LOAD PREFETCHES:          0 PREFETCH ISSUED TO LOWER LEVEL:          0  ACCURACY: -nan
L1D TIMELY PREFETCHES:          0 LATE PREFETCHES: 0 DROPPED PREFETCHES: 0
L1D COMMIT LATE PREFETCHES: 0 MISSED OPPORTUNITY: 0 LATE IN PQ: 0 UNCOVERED: 0
L1D COMMIT LATE MSHR PREFETCHES: 0
L1D MPKI TOTAL: 107.759 MSHR LATE: 0 PQ LATE: 0 COMMIT LATE: 0 MISSED OPPORTUNITY: 0 UNCOVERED: 0
L1D PREFETCHES SAME FILL-ORIGIN LEVEL: 0 DIFFERENT FILL-ORIGIN LEVEL: 0
L1D AVERAGE MISS LATENCY: 15.8313 cycles
L1D AVERAGE MISS LATENCY LOAD: 28.4077 cycles
L1D AVERAGE MISS LATENCY PREFETCH: -nan cycles
L1D AVERAGE MSHR OCCUPANCY: 2.41573
L1D MSHR FULL: 0.0359477
L1D RQ	ACCESS:   42461626	FORWARD:          0	MERGED:    5461580	TO_CACHE:   37000044
L1D WQ	ACCESS:   43136051	FORWARD:          2	MERGED:      29839	TO_CACHE:   43106212

L1D UNIQUE REGIONS ACCESSED: 0
L1D REGIONS CONFLICTS: 0
L1D Cross Page Prefetch Requests: 0
L1D Same Page Prefetch Requests: 0
L1D ROI Sum of L1D PQ occupancy: 0
L1D PREFETCHES PUSHED FROM L2C: 0
L1I SPEC fills:          0  NON-SPEC fills:          0
L1I Test counter :          0
L1I Leapfrog:          0
L1I MSHR merge:      24802
L1I TOTAL     ACCESS:   35124881  HIT:   35075224  MISS:      49657  HIT %:    99.8586  MISS %:   0.141373   MPKI: 0.248285
L1I LOAD      TOTAL       ACCESS:   35124881  HIT:   35075224  MISS:      49657  HIT %:    99.8586  MISS %:   0.141373   MPKI: 0.248285
L1I LOAD      NON_SPEC    ACCESS:   35124881  HIT:   35075224  MISS:      49657  HIT %:    99.8586  MISS %:   0.141373   MPKI: 0.248285
L1I PREFETCH  REQUESTED:          0  ISSUED:          0  USEFUL:          0  USELESS:          0
L1I USEFUL LOAD PREFETCHES:          0 PREFETCH ISSUED TO LOWER LEVEL:          0  ACCURACY: -nan
L1I TIMELY PREFETCHES:          0 LATE PREFETCHES: 0 DROPPED PREFETCHES: 0
L1I COMMIT LATE PREFETCHES: 0 MISSED OPPORTUNITY: 0 LATE IN PQ: 0 UNCOVERED: 0
L1I COMMIT LATE MSHR PREFETCHES: 0
L1I MPKI TOTAL: 0.372295 MSHR LATE: 0 PQ LATE: 0 COMMIT LATE: 0 MISSED OPPORTUNITY: 0 UNCOVERED: 0
L1I PREFETCHES SAME FILL-ORIGIN LEVEL: 0 DIFFERENT FILL-ORIGIN LEVEL: 0
L1I AVERAGE MISS LATENCY: 17.4246 cycles
L1I AVERAGE MISS LATENCY LOAD: 17.4246 cycles
L1I AVERAGE MISS LATENCY PREFETCH: -nan cycles
L1I AVERAGE MSHR OCCUPANCY: 0.00191877
L1I MSHR FULL: 0
L1I RQ	ACCESS:   52086301	FORWARD:          0	MERGED:   16936618	TO_CACHE:   35149683

BTB SPEC fills:          0  NON-SPEC fills:          0
BTB Test counter :          0
BTB Leapfrog:          0
BTB MSHR merge:          0
BTB TOTAL     ACCESS:     207305  HIT:     204093  MISS:       3212  HIT %:    98.4506  MISS %:    1.54941   MPKI: 0.01606
BTB BRANCH_DIRECT_JUMP	ACCESS:      61458  HIT:      61423  MISS:         35
BTB BRANCH_INDIRECT	ACCESS:      58898  HIT:      58820  MISS:         78
BTB BRANCH_CONDITIONAL	ACCESS:      74915  HIT:      74516  MISS:        399
BTB BRANCH_DIRECT_CALL	ACCESS:       6013  HIT:       5388  MISS:        625
BTB BRANCH_INDIRECT_CALL	ACCESS:          3  HIT:          0  MISS:          3
BTB BRANCH_RETURN	ACCESS:       6018  HIT:       3946  MISS:       2072
BTB BRANCH_OTHER ACCESS:          0  HIT:          0  MISS:          0

L2C SPEC fills:          0  NON-SPEC fills:      29520
L2C Test counter :          0
L2C Leapfrog:          0
L2C MSHR merge:       2256
L2C TOTAL     ACCESS:   28979101  HIT:   25482862  MISS:    3496239  HIT %:    87.9353  MISS %:    12.0647   MPKI: 17.4812
L2C LOAD      TOTAL       ACCESS:   21182893  HIT:   19548767  MISS:    1634126  HIT %:    92.2856  MISS %:    7.71437   MPKI: 8.17063
L2C LOAD      NON_SPEC    ACCESS:     444045  HIT:     413683  MISS:      30362  HIT %:    93.1624  MISS %:     6.8376   MPKI: 0.15181
L2C LOAD      SPEC        ACCESS:   20738848  HIT:   19135084  MISS:    1603764  HIT %:    92.2669  MISS %:    7.73314   MPKI: 8.01882
L2C RFO       NON_SPEC    ACCESS:    1609303  HIT:    1608142  MISS:       1161  HIT %:    99.9279  MISS %:   0.072143   MPKI: 0.005805
L2C PREFETCH  NON_SPEC    ACCESS:    1926275  HIT:    1696589  MISS:     229686  HIT %:    88.0762  MISS %:    11.9238   MPKI: 1.14843
L2C WRITEBACK NON_SPEC    ACCESS:    1616814  HIT:    1616812  MISS:          2  HIT %:    99.9999  MISS %:  0.0001237   MPKI: 1e-05
L2C CLEAN_EVICTION NON_SPEC    ACCESS:    1800645  HIT:     321609  MISS:    1479036  HIT %:    17.8608  MISS %:    82.1392   MPKI: 7.39518
L2C COMMIT LOAD NON_SPEC    ACCESS:     720484  HIT:     596290  MISS:     124194  HIT %:    82.7624  MISS %:    17.2376   MPKI: 0.62097
L2C LOAD TRANSLATION NON_SPEC    ACCESS:     122687  HIT:      94653  MISS:      28034  HIT %:      77.15  MISS %:      22.85   MPKI: 0.14017
L2C PREFETCH  REQUESTED:    1934256  ISSUED:    1934256  USEFUL:     227982  USELESS:       1868
L2C USEFUL LOAD PREFETCHES:     227982 PREFETCH ISSUED TO LOWER LEVEL:     231943  ACCURACY: 98.2923
L2C TIMELY PREFETCHES:     227982 LATE PREFETCHES: 2257 DROPPED PREFETCHES: 0
L2C COMMIT LATE PREFETCHES: 0 MISSED OPPORTUNITY: 0 LATE IN PQ: 0 UNCOVERED: 0
L2C COMMIT LATE MSHR PREFETCHES: 0
L2C MPKI TOTAL: 8.17063 MSHR LATE: 0.011285 PQ LATE: 0 COMMIT LATE: 0 MISSED OPPORTUNITY: 0 UNCOVERED: 0
L2C PREFETCHES SAME FILL-ORIGIN LEVEL: 231943 DIFFERENT FILL-ORIGIN LEVEL: 0
L2C AVERAGE MISS LATENCY: 129.169 cycles
L2C AVERAGE MISS LATENCY LOAD: 223.845 cycles
L2C AVERAGE MISS LATENCY PREFETCH: 138.896 cycles
L2C AVERAGE MSHR OCCUPANCY: 0.760989
L2C MSHR FULL: 1.49773e-05
L2C RQ	ACCESS:   24003866	FORWARD:          0	MERGED:          0	TO_CACHE:   23635369
L2C WQ	ACCESS:    3417521	FORWARD:     368497	MERGED:         61	TO_CACHE:    3417460
L2C PQ	ACCESS:    1934256	FORWARD:          0	MERGED:         15	TO_CACHE:    1934241

L2C Instructions Evicting Data 833
L2C Translations Evicting Data 27156
L2C Data Evicting Data 379064
L2C Instructions Evicting Instructions 7
L2C Translations Evicting Instructions 4
L2C Data Evicting Instructions 109
L2C Instructions Evicting Translations 2
L2C Translations Evicting Translations 874
L2C Data Evicting Translations 5388
L2C Dense regions hint from L2: 0
PSCL5 SPEC fills:          0  NON-SPEC fills:          0
PSCL5 Test counter :          0
PSCL5 Leapfrog:          0
PSCL5 MSHR merge:          0
PSCL5 TOTAL     ACCESS:          0  HIT:          0  MISS:          0  HIT %:       -nan  MISS %:       -nan   MPKI: 0
PSCL5 PREFETCH  REQUESTED:          0  ISSUED:          0  USEFUL:          0  USELESS:          0
PSCL5 USEFUL LOAD PREFETCHES:          0 PREFETCH ISSUED TO LOWER LEVEL:          0  ACCURACY: -nan
PSCL5 TIMELY PREFETCHES:          0 LATE PREFETCHES: 0 DROPPED PREFETCHES: 0
PSCL5 COMMIT LATE PREFETCHES: 0 MISSED OPPORTUNITY: 0 LATE IN PQ: 0 UNCOVERED: 0
PSCL5 COMMIT LATE MSHR PREFETCHES: 0
PSCL5 MPKI TOTAL: 0 MSHR LATE: 0 PQ LATE: 0 COMMIT LATE: 0 MISSED OPPORTUNITY: 0 UNCOVERED: 0
PSCL5 PREFETCHES SAME FILL-ORIGIN LEVEL: 0 DIFFERENT FILL-ORIGIN LEVEL: 0

PSCL4 SPEC fills:          0  NON-SPEC fills:          0
PSCL4 Test counter :          0
PSCL4 Leapfrog:          0
PSCL4 MSHR merge:          0
PSCL4 TOTAL     ACCESS:          0  HIT:          0  MISS:          0  HIT %:       -nan  MISS %:       -nan   MPKI: 0
PSCL4 PREFETCH  REQUESTED:          0  ISSUED:          0  USEFUL:          0  USELESS:          0
PSCL4 USEFUL LOAD PREFETCHES:          0 PREFETCH ISSUED TO LOWER LEVEL:          0  ACCURACY: -nan
PSCL4 TIMELY PREFETCHES:          0 LATE PREFETCHES: 0 DROPPED PREFETCHES: 0
PSCL4 COMMIT LATE PREFETCHES: 0 MISSED OPPORTUNITY: 0 LATE IN PQ: 0 UNCOVERED: 0
PSCL4 COMMIT LATE MSHR PREFETCHES: 0
PSCL4 MPKI TOTAL: 0 MSHR LATE: 0 PQ LATE: 0 COMMIT LATE: 0 MISSED OPPORTUNITY: 0 UNCOVERED: 0
PSCL4 PREFETCHES SAME FILL-ORIGIN LEVEL: 0 DIFFERENT FILL-ORIGIN LEVEL: 0

PSCL3 SPEC fills:          0  NON-SPEC fills:          0
PSCL3 Test counter :          0
PSCL3 Leapfrog:          0
PSCL3 MSHR merge:          0
PSCL3 TOTAL     ACCESS:          0  HIT:          0  MISS:          0  HIT %:       -nan  MISS %:       -nan   MPKI: 0
PSCL3 PREFETCH  REQUESTED:          0  ISSUED:          0  USEFUL:          0  USELESS:          0
PSCL3 USEFUL LOAD PREFETCHES:          0 PREFETCH ISSUED TO LOWER LEVEL:          0  ACCURACY: -nan
PSCL3 TIMELY PREFETCHES:          0 LATE PREFETCHES: 0 DROPPED PREFETCHES: 0
PSCL3 COMMIT LATE PREFETCHES: 0 MISSED OPPORTUNITY: 0 LATE IN PQ: 0 UNCOVERED: 0
PSCL3 COMMIT LATE MSHR PREFETCHES: 0
PSCL3 MPKI TOTAL: 0 MSHR LATE: 0 PQ LATE: 0 COMMIT LATE: 0 MISSED OPPORTUNITY: 0 UNCOVERED: 0
PSCL3 PREFETCHES SAME FILL-ORIGIN LEVEL: 0 DIFFERENT FILL-ORIGIN LEVEL: 0

PSCL2 SPEC fills:          0  NON-SPEC fills:          0
PSCL2 Test counter :          0
PSCL2 Leapfrog:          0
PSCL2 MSHR merge:          0
PSCL2 TOTAL     ACCESS:          0  HIT:          0  MISS:          0  HIT %:       -nan  MISS %:       -nan   MPKI: 0
PSCL2 PREFETCH  REQUESTED:          0  ISSUED:          0  USEFUL:          0  USELESS:          0
PSCL2 USEFUL LOAD PREFETCHES:          0 PREFETCH ISSUED TO LOWER LEVEL:          0  ACCURACY: -nan
PSCL2 TIMELY PREFETCHES:          0 LATE PREFETCHES: 0 DROPPED PREFETCHES: 0
PSCL2 COMMIT LATE PREFETCHES: 0 MISSED OPPORTUNITY: 0 LATE IN PQ: 0 UNCOVERED: 0
PSCL2 COMMIT LATE MSHR PREFETCHES: 0
PSCL2 MPKI TOTAL: 0 MSHR LATE: 0 PQ LATE: 0 COMMIT LATE: 0 MISSED OPPORTUNITY: 0 UNCOVERED: 0
PSCL2 PREFETCHES SAME FILL-ORIGIN LEVEL: 0 DIFFERENT FILL-ORIGIN LEVEL: 0

LLC SPEC fills:          0  NON-SPEC fills:      25886
LLC Test counter :          0
LLC Leapfrog:          0
LLC MSHR merge:          0
LLC TOTAL     ACCESS:    3599439  HIT:     613523  MISS:    2985916  HIT %:     17.045  MISS %:     82.955   MPKI: 14.9296
LLC LOAD      TOTAL       ACCESS:    1631778  HIT:     159429  MISS:    1472349  HIT %:    9.77026  MISS %:    90.2297   MPKI: 7.36174
LLC LOAD      NON_SPEC    ACCESS:      30293  HIT:       3577  MISS:      26716  HIT %:     11.808  MISS %:     88.192   MPKI: 0.13358
LLC LOAD      SPEC        ACCESS:    1601485  HIT:     155852  MISS:    1445633  HIT %:    9.73172  MISS %:    90.2683   MPKI: 7.22816
LLC RFO       NON_SPEC    ACCESS:       1153  HIT:         45  MISS:       1108  HIT %:    3.90286  MISS %:    96.0971   MPKI: 0.00554
LLC PREFETCH  NON_SPEC    ACCESS:     231848  HIT:     171595  MISS:      60253  HIT %:    74.0119  MISS %:    25.9881   MPKI: 0.301265
LLC WRITEBACK NON_SPEC    ACCESS:     103184  HIT:     103160  MISS:         24  HIT %:    99.9767  MISS %:  0.0232594   MPKI: 0.00012
LLC CLEAN_EVICTION NON_SPEC    ACCESS:    1479259  HIT:     148637  MISS:    1330622  HIT %:    10.0481  MISS %:    89.9519   MPKI: 6.65311
LLC COMMIT LOAD NON_SPEC    ACCESS:     124183  HIT:       6265  MISS:     117918  HIT %:    5.04497  MISS %:     94.955   MPKI: 0.58959
LLC LOAD TRANSLATION NON_SPEC    ACCESS:      28034  HIT:      24392  MISS:       3642  HIT %:    87.0086  MISS %:    12.9914   MPKI: 0.01821
LLC PREFETCH  REQUESTED:          0  ISSUED:          0  USEFUL:      38491  USELESS:      25014
LLC USEFUL LOAD PREFETCHES:      38491 PREFETCH ISSUED TO LOWER LEVEL:      60253  ACCURACY: 63.8823
LLC TIMELY PREFETCHES:      38491 LATE PREFETCHES: 0 DROPPED PREFETCHES: 0
LLC COMMIT LATE PREFETCHES: 0 MISSED OPPORTUNITY: 0 LATE IN PQ: 0 UNCOVERED: 0
LLC COMMIT LATE MSHR PREFETCHES: 0
LLC MPKI TOTAL: 7.36175 MSHR LATE: 0 PQ LATE: 0 COMMIT LATE: 0 MISSED OPPORTUNITY: 0 UNCOVERED: 0
LLC PREFETCHES SAME FILL-ORIGIN LEVEL: 0 DIFFERENT FILL-ORIGIN LEVEL: 0
LLC AVERAGE MISS LATENCY: 135.533 cycles
LLC AVERAGE MISS LATENCY LOAD: 224.435 cycles
LLC AVERAGE MISS LATENCY PREFETCH: 414.662 cycles
LLC AVERAGE MSHR OCCUPANCY: 3.69509
LLC MSHR FULL: 0
LLC RQ	ACCESS:    1785259	FORWARD:          0	MERGED:          0	TO_CACHE:    1785149
LLC WQ	ACCESS:    1582443	FORWARD:        205	MERGED:          0	TO_CACHE:    1582443
LLC PQ	ACCESS:     231943	FORWARD:          0	MERGED:          0	TO_CACHE:     231848

LLC Dense regions hint to LLC: 0

RAW hits: 82551
Loads Generated: 57291776
Loads sent to L1D: 57209218
Stores Generated: 22785115
Stores sent to L1D: 22785114
Major fault: 0 Minor fault: 17275
Allocated PAGES: 17275
Total Load insts: 86302814
Total Non-spec loads: 2202585
Percentage of speculative loads: 97.4478

LeapFrogging counter: 25466629
Commit hits: 31138569 miss: 24874499
Commit hit %: 55.5916 miss %: 44.4084
Commits not translated: 0
Loads retired: 21495997
Stores retired: 22785114
Cache fills: 21496002
L1D response latency: 28.4077 cycles
Load retirement latency: 134.727 cycles
OOO test counter: 0
Discarded buffer inserts: 31138569 hits: 3243236 hit %: 10.4155
Filter prediction accuracy: 98.6202
[Bingo] PHT Access: 12006017
[Bingo] PHT Hit PC+Addr: 20560
[Bingo] PHT Hit PC+Offs: 217420
[Bingo] PHT Miss: 11768037
[Bingo] Prefetch PC+Addr: 0
[Bingo] Prefetch PC+Offs: 0
[Bingo] Useful PC+Addr: 0
[Bingo] Useful PC+Offs: 0
[Bingo] Useless PC+Addr: 0
[Bingo] Useless PC+Offs: 0
[Bingo] L1 Prefetch per Region: 0
[Bingo] L2 Prefetch per Region: 9.9797
[Bingo] L3 Prefetch per Region: 0
[Bingo] No Prefetch per Region: 22.0203
[Bingo] Number of Voters Mean: 7.60991
[Bingo] Number of Voters SD: 5.63904
PHT read accesses: 191433290
PHT write accesses: 164612
AT read accesses: 9285583
AT write accesses: 9289433
FT read accesses: 638046
FT write accesses: 12006017
PS read accesses: 533952
PS write accesses: 237980
PHT tag read accesses: 196900711
PHT tag write accesses: 185172
AT tag read accesses: 374791378
AT tag write accesses: 9450161
FT tag read accesses: 609590084
FT tag write accesses: 12477120
PS tag read accesses: 345674929
PS tag write accesses: 750527

DRAM Statistics
 CHANNEL 0
 RQ ROW_BUFFER_HIT:     627347  ROW_BUFFER_MISS:    1027923
 DBUS_CONGESTED:        467
 WQ ROW_BUFFER_HIT:     398277  ROW_BUFFER_MISS:    1064388  FULL:      29196

 AVG_CONGESTED_CYCLE: 5
 All warmup complete: 2
Channel 0 Bank busy for read cycles: 0
Channel 0 Bank busy for write cycles: 0
Channel 0
Rank 0
0banks busy for read cycles: 189586464
0banks busy for write cycles: 449299
1banks busy for read cycles: 33922296
1banks busy for write cycles: 52086823
2banks busy for read cycles: 7754230
2banks busy for write cycles: 16686164
3banks busy for read cycles: 39533691
3banks busy for write cycles: 19352267
4banks busy for read cycles: 2689312
4banks busy for write cycles: 6172533
5banks busy for read cycles: 194507
5banks busy for write cycles: 1633241
6banks busy for read cycles: 118112
6banks busy for write cycles: 894785
7banks busy for read cycles: 161634
7banks busy for write cycles: 733053
8banks busy for read cycles: 571337
8banks busy for write cycles: 1302860

CPU 0 Branch Prediction Accuracy: 99.5304% MPKI: 0.00654 Average ROB Occupancy at Mispredict: 31.0313
Branch types
NOT_BRANCH: 199721272 99.8606%
BRANCH_DIRECT_JUMP: 61458 0.030729%
BRANCH_INDIRECT: 58898 0.029449%
BRANCH_CONDITIONAL: 146150 0.073075%
BRANCH_DIRECT_CALL: 6013 0.0030065%
BRANCH_INDIRECT_CALL: 3 1.5e-06%
BRANCH_RETURN: 6018 0.003009%
BRANCH_OTHER: 0 0%

DRAM PAGES: 1048576
Allocated PAGES: 17275
