
*** ChampSim Multicore Out-of-Order Simulator ***

Warmup Instructions: 50000000
Simulation Instructions: 200000000
Number of CPUs: 1
LLC sets: 2048
LLC ways: 16
L0D sets: 16
L0D ways: 2
ROB size: 352
LQ size: 128
SQ size: 72
Secure Berti: OFF
Berti: OFF
Berti Fill: OFF
On commit prefetching: OFF
Hit-based filter: ON
Time-guarding: ON
Free-slotting: ON
Leap-frogging: ON
Train prefetcher on L0D bypass: OFF
No translation penalty for prefetchers: OFF
Prefetch to L0D only: OFF
Prefetch to L1D only: OFF
Clean evictions: ON
Commit loads: ON
Commit write: ON
Fill commit loads to L2C, LLC: ON
DRAM IO FREQUENCY: 6400
ROB SIZE: 352
Off-chip DRAM Size: 4096 MB Channels: 1 Width: 64-bit Data Rate: 6400 MT/s
CPU 0 runs /home/sumon/secure_berti/GhostMinion/../../traces/spec/619.lbm_s-2676B.champsimtrace.xz
.xz
BTB has LRU replacement policy
ITLB has LRU replacement policy
DTLB has LRU replacement policy
STLB has LRU replacement policy
L1I has LRU replacement policy
L0D has LRU replacement policy
L1D has LRU replacement policy
Bingo PHT WAYS: 16 and PHT_SIZE: 16384
L2C has LRU replacement policy
LLC has LRU replacement policy
Heartbeat CPU 0 instructions: 10000003 cycles: 3037805 heartbeat IPC: 3.29185 cumulative IPC: 3.29185 (Simulation time: 0 hr 0 min 32 sec) 
Heartbeat CPU 0 instructions: 20000003 cycles: 6069807 heartbeat IPC: 3.29815 cumulative IPC: 3.295 (Simulation time: 0 hr 1 min 5 sec) 
Heartbeat CPU 0 instructions: 30000003 cycles: 9093689 heartbeat IPC: 3.30701 cumulative IPC: 3.29899 (Simulation time: 0 hr 1 min 36 sec) 
Heartbeat CPU 0 instructions: 40000002 cycles: 12101500 heartbeat IPC: 3.32468 cumulative IPC: 3.30538 (Simulation time: 0 hr 2 min 8 sec) 
Heartbeat CPU 0 instructions: 50000001 cycles: 15094501 heartbeat IPC: 3.34113 cumulative IPC: 3.31246 (Simulation time: 0 hr 2 min 39 sec) 

Warmup complete CPU 0 instructions: 50000001 cycles: 15094501 (Simulation time: 0 hr 2 min 39 sec) 

Heartbeat CPU 0 instructions: 60000001 cycles: 33724109 heartbeat IPC: 0.53678 cumulative IPC: 0.53678 (Simulation time: 0 hr 3 min 30 sec) 
Heartbeat CPU 0 instructions: 70000002 cycles: 50981082 heartbeat IPC: 0.579476 cumulative IPC: 0.557311 (Simulation time: 0 hr 4 min 18 sec) 
Heartbeat CPU 0 instructions: 80000002 cycles: 66992009 heartbeat IPC: 0.624573 cumulative IPC: 0.578062 (Simulation time: 0 hr 5 min 2 sec) 
Heartbeat CPU 0 instructions: 90000001 cycles: 83081363 heartbeat IPC: 0.621529 cumulative IPC: 0.588349 (Simulation time: 0 hr 5 min 46 sec) 
Heartbeat CPU 0 instructions: 100000003 cycles: 98039211 heartbeat IPC: 0.668545 cumulative IPC: 0.602811 (Simulation time: 0 hr 6 min 28 sec) 
Heartbeat CPU 0 instructions: 110000000 cycles: 112533858 heartbeat IPC: 0.68991 cumulative IPC: 0.615768 (Simulation time: 0 hr 7 min 9 sec) 
Heartbeat CPU 0 instructions: 120000003 cycles: 126418780 heartbeat IPC: 0.720206 cumulative IPC: 0.628794 (Simulation time: 0 hr 7 min 49 sec) 
Heartbeat CPU 0 instructions: 130000002 cycles: 139655373 heartbeat IPC: 0.755481 cumulative IPC: 0.642256 (Simulation time: 0 hr 8 min 29 sec) 
Heartbeat CPU 0 instructions: 140000003 cycles: 152859098 heartbeat IPC: 0.757362 cumulative IPC: 0.653288 (Simulation time: 0 hr 9 min 8 sec) 
Heartbeat CPU 0 instructions: 150000000 cycles: 165445157 heartbeat IPC: 0.79453 cumulative IPC: 0.665112 (Simulation time: 0 hr 9 min 45 sec) 
Heartbeat CPU 0 instructions: 160000001 cycles: 177607285 heartbeat IPC: 0.822225 cumulative IPC: 0.67687 (Simulation time: 0 hr 10 min 21 sec) 
Heartbeat CPU 0 instructions: 170000003 cycles: 189568867 heartbeat IPC: 0.83601 cumulative IPC: 0.68778 (Simulation time: 0 hr 10 min 58 sec) 
Heartbeat CPU 0 instructions: 180000000 cycles: 201529116 heartbeat IPC: 0.836103 cumulative IPC: 0.697295 (Simulation time: 0 hr 11 min 33 sec) 
Heartbeat CPU 0 instructions: 190000000 cycles: 213133844 heartbeat IPC: 0.861718 cumulative IPC: 0.70693 (Simulation time: 0 hr 12 min 8 sec) 
Heartbeat CPU 0 instructions: 200000003 cycles: 224558933 heartbeat IPC: 0.875267 cumulative IPC: 0.716112 (Simulation time: 0 hr 12 min 42 sec) 
Heartbeat CPU 0 instructions: 210000000 cycles: 235670115 heartbeat IPC: 0.899994 cumulative IPC: 0.725375 (Simulation time: 0 hr 13 min 16 sec) 
Heartbeat CPU 0 instructions: 220000000 cycles: 246845538 heartbeat IPC: 0.894821 cumulative IPC: 0.733546 (Simulation time: 0 hr 13 min 51 sec) 
Heartbeat CPU 0 instructions: 230000002 cycles: 257778309 heartbeat IPC: 0.914681 cumulative IPC: 0.741706 (Simulation time: 0 hr 14 min 24 sec) 
Heartbeat CPU 0 instructions: 240000001 cycles: 268814524 heartbeat IPC: 0.906108 cumulative IPC: 0.748857 (Simulation time: 0 hr 14 min 56 sec) 
Heartbeat CPU 0 instructions: 250000002 cycles: 279744444 heartbeat IPC: 0.91492 cumulative IPC: 0.755715 (Simulation time: 0 hr 15 min 28 sec) 
Finished CPU 0 instructions: 200000001 cycles: 264649943 cumulative IPC: 0.755715 (Simulation time: 0 hr 15 min 28 sec) 
 Instruction ID: 250000039

ChampSim completed all CPUs

Region of Interest Statistics

CPU 0 cumulative IPC: 0.755715 instructions: 200000001 cycles: 264649943
ITLB SPEC fills:          0  NON-SPEC fills:          0
ITLB Test counter :          0
ITLB Leapfrog:          0
ITLB MSHR merge:          0
ITLB TOTAL     ACCESS:   26066302  HIT:   26066302  MISS:          0  HIT %:        100  MISS %:          0   MPKI: 0
ITLB LOAD TRANSLATION NON_SPEC    ACCESS:   26066302  HIT:   26066302  MISS:          0  HIT %:        100  MISS %:          0   MPKI: 0
ITLB PREFETCH  REQUESTED:          0  ISSUED:          0  USEFUL:          0  USELESS:          0
ITLB USEFUL LOAD PREFETCHES:          0 PREFETCH ISSUED TO LOWER LEVEL:          0  ACCURACY: -nan
ITLB TIMELY PREFETCHES:          0 LATE PREFETCHES: 0 DROPPED PREFETCHES: 0
ITLB COMMIT LATE PREFETCHES: 0 MISSED OPPORTUNITY: 0 LATE IN PQ: 0 UNCOVERED: 0
ITLB COMMIT LATE MSHR PREFETCHES: 0
ITLB MPKI TOTAL: 0 MSHR LATE: 0 PQ LATE: 0 COMMIT LATE: 0 MISSED OPPORTUNITY: 0 UNCOVERED: 0
ITLB PREFETCHES SAME FILL-ORIGIN LEVEL: 0 DIFFERENT FILL-ORIGIN LEVEL: 0
ITLB AVERAGE MISS LATENCY: -nan cycles
ITLB AVERAGE MISS LATENCY LOAD: -nan cycles
ITLB AVERAGE MISS LATENCY PREFETCH: -nan cycles
ITLB AVERAGE MSHR OCCUPANCY: 0
ITLB MSHR FULL: 0
ITLB RQ	ACCESS:   34070629	FORWARD:          0	MERGED:    8004328	TO_CACHE:   26066301

DTLB SPEC fills:          0  NON-SPEC fills:          0
DTLB Test counter :          0
DTLB Leapfrog:          0
DTLB MSHR merge:          0
DTLB TOTAL     ACCESS:   44237291  HIT:   44083762  MISS:     153529  HIT %:    99.6529  MISS %:   0.347058   MPKI: 0.767645
DTLB LOAD TRANSLATION NON_SPEC    ACCESS:   44237291  HIT:   44083762  MISS:     153529  HIT %:    99.6529  MISS %:   0.347058   MPKI: 0.767645
DTLB PREFETCH  REQUESTED:          0  ISSUED:          0  USEFUL:          0  USELESS:          0
DTLB USEFUL LOAD PREFETCHES:          0 PREFETCH ISSUED TO LOWER LEVEL:          0  ACCURACY: -nan
DTLB TIMELY PREFETCHES:          0 LATE PREFETCHES: 0 DROPPED PREFETCHES: 0
DTLB COMMIT LATE PREFETCHES: 0 MISSED OPPORTUNITY: 0 LATE IN PQ: 0 UNCOVERED: 0
DTLB COMMIT LATE MSHR PREFETCHES: 0
DTLB MPKI TOTAL: 0 MSHR LATE: 0 PQ LATE: 0 COMMIT LATE: 0 MISSED OPPORTUNITY: 0 UNCOVERED: 0
DTLB PREFETCHES SAME FILL-ORIGIN LEVEL: 0 DIFFERENT FILL-ORIGIN LEVEL: 0
DTLB AVERAGE MISS LATENCY: 123.718 cycles
DTLB AVERAGE MISS LATENCY LOAD: -nan cycles
DTLB AVERAGE MISS LATENCY PREFETCH: -nan cycles
DTLB AVERAGE MSHR OCCUPANCY: 0.0568059
DTLB MSHR FULL: 0
DTLB RQ	ACCESS:   64257526	FORWARD:          0	MERGED:   19977743	TO_CACHE:   44279783

STLB SPEC fills:          0  NON-SPEC fills:          0
STLB Test counter :          0
STLB Leapfrog:          0
STLB MSHR merge:          0
STLB TOTAL     ACCESS:     153529  HIT:      70223  MISS:      83306  HIT %:    45.7392  MISS %:    54.2608   MPKI: 0.41653
STLB LOAD TRANSLATION NON_SPEC    ACCESS:     153529  HIT:      70223  MISS:      83306  HIT %:    45.7392  MISS %:    54.2608   MPKI: 0.41653
STLB PREFETCH  REQUESTED:          0  ISSUED:          0  USEFUL:          0  USELESS:          0
STLB USEFUL LOAD PREFETCHES:          0 PREFETCH ISSUED TO LOWER LEVEL:          0  ACCURACY: -nan
STLB TIMELY PREFETCHES:          0 LATE PREFETCHES: 0 DROPPED PREFETCHES: 0
STLB COMMIT LATE PREFETCHES: 0 MISSED OPPORTUNITY: 0 LATE IN PQ: 0 UNCOVERED: 0
STLB COMMIT LATE MSHR PREFETCHES: 0
STLB MPKI TOTAL: 0 MSHR LATE: 0 PQ LATE: 0 COMMIT LATE: 0 MISSED OPPORTUNITY: 0 UNCOVERED: 0
STLB PREFETCHES SAME FILL-ORIGIN LEVEL: 0 DIFFERENT FILL-ORIGIN LEVEL: 0
STLB AVERAGE MISS LATENCY: 211.382 cycles
STLB AVERAGE MISS LATENCY LOAD: -nan cycles
STLB AVERAGE MISS LATENCY PREFETCH: -nan cycles
STLB AVERAGE MSHR OCCUPANCY: 0.143484
STLB MSHR FULL: 0
STLB RQ	ACCESS:     153529	FORWARD:          0	MERGED:          0	TO_CACHE:     153529

STLB Hit, L1D data hit: 0
STLB Hit, L2C data hit: 0
STLB Hit, LLC data hit: 0
STLB Hit, LLC data miss: 0
STLB STLB hints to L2: 0
L0D SPEC fills:   20969239  NON-SPEC fills:          0
L0D TimeGuard Request with older TS:     203590 Restricted eviction:       3550 read:    1025384
L0D Test counter :          0
L0D Leapfrog:          0
L0D MSHR merge:    2406835
L0D TOTAL     ACCESS:   30700926  HIT:    8015395  MISS:   22685531  HIT %:     26.108  MISS %:     73.892   MPKI: 113.428
L0D LOAD      TOTAL       ACCESS:   30700926  HIT:    8015395  MISS:   22685531  HIT %:     26.108  MISS %:     73.892   MPKI: 113.428
L0D LOAD      NON_SPEC    ACCESS:    3080174  HIT:    1367431  MISS:    1712743  HIT %:    44.3946  MISS %:    55.6054   MPKI: 8.56371
L0D LOAD      SPEC        ACCESS:   27620752  HIT:    6647964  MISS:   20972788  HIT %:    24.0687  MISS %:    75.9313   MPKI: 104.864
L0D PREFETCH  REQUESTED:          0  ISSUED:          0  USEFUL:          0  USELESS:          0
L0D USEFUL LOAD PREFETCHES:          0 PREFETCH ISSUED TO LOWER LEVEL:          0  ACCURACY: -nan
L0D TIMELY PREFETCHES:          0 LATE PREFETCHES: 0 DROPPED PREFETCHES: 0
L0D COMMIT LATE PREFETCHES: 0 MISSED OPPORTUNITY: 0 LATE IN PQ: 0 UNCOVERED: 0
L0D COMMIT LATE MSHR PREFETCHES: 0
L0D MPKI TOTAL: 125.462 MSHR LATE: 0 PQ LATE: 0 COMMIT LATE: 0 MISSED OPPORTUNITY: 0 UNCOVERED: 0
L0D PREFETCHES SAME FILL-ORIGIN LEVEL: 0 DIFFERENT FILL-ORIGIN LEVEL: 0
L0D AVERAGE MISS LATENCY: 16.9798 cycles
L0D AVERAGE MISS LATENCY LOAD: 16.9798 cycles
L0D AVERAGE MISS LATENCY PREFETCH: -nan cycles
L0D AVERAGE MSHR OCCUPANCY: 1.0105
L0D MSHR FULL: 0.0419218
L0D RQ	ACCESS:   46476385	FORWARD:          0	MERGED:   13368625	TO_CACHE:   33107760
L0D WQ	ACCESS:   31149766	FORWARD:          0	MERGED:          0	TO_CACHE:   31149766

L1D SPEC fills:          0  NON-SPEC fills:     305623
L1D Test counter :          0
L1D Leapfrog:          0
L1D MSHR merge:       4665
L1D TOTAL     ACCESS:   56195193  HIT:   46287414  MISS:    9907779  HIT %:     82.369  MISS %:     17.631   MPKI: 49.5389
L1D LOAD      TOTAL       ACCESS:   22680866  HIT:   21314983  MISS:    1365883  HIT %:    93.9778  MISS %:    6.02218   MPKI: 6.82941
L1D LOAD      NON_SPEC    ACCESS:    1710805  HIT:    1405182  MISS:     305623  HIT %:    82.1357  MISS %:    17.8643   MPKI: 1.52811
L1D LOAD      SPEC        ACCESS:   20970061  HIT:   19909801  MISS:    1060260  HIT %:    94.9439  MISS %:    5.05607   MPKI: 5.3013
L1D RFO       NON_SPEC    ACCESS:   31025466  HIT:   23566378  MISS:    7459088  HIT %:    75.9582  MISS %:    24.0418   MPKI: 37.2954
L1D COMMIT LOAD NON_SPEC    ACCESS:    1406824  HIT:    1344236  MISS:      62588  HIT %:    95.5511  MISS %:    4.44889   MPKI: 0.31294
L1D COMMIT WRITE NON_SPEC    ACCESS:    1082037  HIT:      61817  MISS:    1020220  HIT %:    5.71302  MISS %:     94.287   MPKI: 5.1011
L1D PREFETCH  REQUESTED:          0  ISSUED:          0  USEFUL:          0  USELESS:          0
L1D USEFUL LOAD PREFETCHES:          0 PREFETCH ISSUED TO LOWER LEVEL:          0  ACCURACY: -nan
L1D TIMELY PREFETCHES:          0 LATE PREFETCHES: 0 DROPPED PREFETCHES: 0
L1D COMMIT LATE PREFETCHES: 0 MISSED OPPORTUNITY: 0 LATE IN PQ: 0 UNCOVERED: 0
L1D COMMIT LATE MSHR PREFETCHES: 0
L1D MPKI TOTAL: 6.85274 MSHR LATE: 0 PQ LATE: 0 COMMIT LATE: 0 MISSED OPPORTUNITY: 0 UNCOVERED: 0
L1D PREFETCHES SAME FILL-ORIGIN LEVEL: 0 DIFFERENT FILL-ORIGIN LEVEL: 0
L1D AVERAGE MISS LATENCY: 217.785 cycles
L1D AVERAGE MISS LATENCY LOAD: 75.0577 cycles
L1D AVERAGE MISS LATENCY PREFETCH: -nan cycles
L1D AVERAGE MSHR OCCUPANCY: 13.7924
L1D MSHR FULL: 0.753239
L1D RQ	ACCESS:   28985334	FORWARD:          0	MERGED:    4891826	TO_CACHE:   24093508
L1D WQ	ACCESS:   32225016	FORWARD:          0	MERGED:      52445	TO_CACHE:   32172571

L1D UNIQUE REGIONS ACCESSED: 0
L1D REGIONS CONFLICTS: 0
L1D Cross Page Prefetch Requests: 0
L1D Same Page Prefetch Requests: 0
L1D ROI Sum of L1D PQ occupancy: 0
L1D PREFETCHES PUSHED FROM L2C: 0
L1I SPEC fills:          0  NON-SPEC fills:          0
L1I Test counter :          0
L1I Leapfrog:          0
L1I MSHR merge:          0
L1I TOTAL     ACCESS:   34070628  HIT:   34070628  MISS:          0  HIT %:        100  MISS %:          0   MPKI: 0
L1I LOAD      TOTAL       ACCESS:   34070628  HIT:   34070628  MISS:          0  HIT %:        100  MISS %:          0   MPKI: 0
L1I LOAD      NON_SPEC    ACCESS:   34070628  HIT:   34070628  MISS:          0  HIT %:        100  MISS %:          0   MPKI: 0
L1I PREFETCH  REQUESTED:          0  ISSUED:          0  USEFUL:          0  USELESS:          0
L1I USEFUL LOAD PREFETCHES:          0 PREFETCH ISSUED TO LOWER LEVEL:          0  ACCURACY: -nan
L1I TIMELY PREFETCHES:          0 LATE PREFETCHES: 0 DROPPED PREFETCHES: 0
L1I COMMIT LATE PREFETCHES: 0 MISSED OPPORTUNITY: 0 LATE IN PQ: 0 UNCOVERED: 0
L1I COMMIT LATE MSHR PREFETCHES: 0
L1I MPKI TOTAL: 0 MSHR LATE: 0 PQ LATE: 0 COMMIT LATE: 0 MISSED OPPORTUNITY: 0 UNCOVERED: 0
L1I PREFETCHES SAME FILL-ORIGIN LEVEL: 0 DIFFERENT FILL-ORIGIN LEVEL: 0
L1I AVERAGE MISS LATENCY: -nan cycles
L1I AVERAGE MISS LATENCY LOAD: -nan cycles
L1I AVERAGE MISS LATENCY PREFETCH: -nan cycles
L1I AVERAGE MSHR OCCUPANCY: 0
L1I MSHR FULL: 0
L1I RQ	ACCESS:   48046636	FORWARD:          0	MERGED:   13976007	TO_CACHE:   34070629

BTB SPEC fills:          0  NON-SPEC fills:          0
BTB Test counter :          0
BTB Leapfrog:          0
BTB MSHR merge:          0
BTB TOTAL     ACCESS:    2423394  HIT:    2423388  MISS:          6  HIT %:    99.9998  MISS %: 0.000247587   MPKI: 3e-05
BTB BRANCH_DIRECT_JUMP	ACCESS:     120779  HIT:     120778  MISS:          1
BTB BRANCH_INDIRECT	ACCESS:          0  HIT:          0  MISS:          0
BTB BRANCH_CONDITIONAL	ACCESS:    2302615  HIT:    2302610  MISS:          5
BTB BRANCH_DIRECT_CALL	ACCESS:          0  HIT:          0  MISS:          0
BTB BRANCH_INDIRECT_CALL	ACCESS:          0  HIT:          0  MISS:          0
BTB BRANCH_RETURN	ACCESS:          0  HIT:          0  MISS:          0
BTB BRANCH_OTHER ACCESS:          0  HIT:          0  MISS:          0

L2C SPEC fills:          0  NON-SPEC fills:      28210
L2C Test counter :          0
L2C Leapfrog:          0
L2C MSHR merge:      36319
L2C TOTAL     ACCESS:   18099578  HIT:   12616472  MISS:    5483106  HIT %:    69.7059  MISS %:    30.2941   MPKI: 27.4155
L2C LOAD      TOTAL       ACCESS:    1365851  HIT:    1260043  MISS:     105808  HIT %:    92.2533  MISS %:    7.74667   MPKI: 0.52904
L2C LOAD      NON_SPEC    ACCESS:     305623  HIT:     277413  MISS:      28210  HIT %:    90.7697  MISS %:    9.23033   MPKI: 0.14105
L2C LOAD      SPEC        ACCESS:    1060228  HIT:     982630  MISS:      77598  HIT %:     92.681  MISS %:    7.31899   MPKI: 0.38799
L2C RFO       NON_SPEC    ACCESS:    7459088  HIT:    3397918  MISS:    4061170  HIT %:    45.5541  MISS %:    54.4459   MPKI: 20.3058
L2C PREFETCH  NON_SPEC    ACCESS:    1229356  HIT:       1307  MISS:    1228049  HIT %:   0.106316  MISS %:    99.8937   MPKI: 6.14024
L2C WRITEBACK NON_SPEC    ACCESS:    7459083  HIT:    7459011  MISS:         72  HIT %:     99.999  MISS %: 0.000965266   MPKI: 0.00036
L2C CLEAN_EVICTION NON_SPEC    ACCESS:     107163  HIT:      37093  MISS:      70070  HIT %:    34.6136  MISS %:    65.3864   MPKI: 0.35035
L2C COMMIT LOAD NON_SPEC    ACCESS:      62588  HIT:      55163  MISS:       7425  HIT %:    88.1367  MISS %:    11.8633   MPKI: 0.037125
L2C LOAD TRANSLATION NON_SPEC    ACCESS:     416449  HIT:     405937  MISS:      10512  HIT %:    97.4758  MISS %:     2.5242   MPKI: 0.05256
L2C PREFETCH  REQUESTED:    1292857  ISSUED:    1292857  USEFUL:    1228047  USELESS:        106
L2C USEFUL LOAD PREFETCHES:    1228047 PREFETCH ISSUED TO LOWER LEVEL:    1264368  ACCURACY: 97.1273
L2C TIMELY PREFETCHES:    1228047 LATE PREFETCHES: 36319 DROPPED PREFETCHES: 0
L2C COMMIT LATE PREFETCHES: 0 MISSED OPPORTUNITY: 0 LATE IN PQ: 0 UNCOVERED: 0
L2C COMMIT LATE MSHR PREFETCHES: 0
L2C MPKI TOTAL: 0.52904 MSHR LATE: 0.181595 PQ LATE: 0 COMMIT LATE: 0 MISSED OPPORTUNITY: 0 UNCOVERED: 0
L2C PREFETCHES SAME FILL-ORIGIN LEVEL: 1264368 DIFFERENT FILL-ORIGIN LEVEL: 0
L2C AVERAGE MISS LATENCY: 491.792 cycles
L2C AVERAGE MISS LATENCY LOAD: 604.603 cycles
L2C AVERAGE MISS LATENCY PREFETCH: 561.651 cycles
L2C AVERAGE MSHR OCCUPANCY: 11.7704
L2C MSHR FULL: 0.0940483
L2C RQ	ACCESS:    9304016	FORWARD:          0	MERGED:          0	TO_CACHE:    9303984
L2C WQ	ACCESS:    7566247	FORWARD:         33	MERGED:          0	TO_CACHE:    7566247
L2C PQ	ACCESS:    1292857	FORWARD:          0	MERGED:          0	TO_CACHE:    1292856

L2C Instructions Evicting Data 0
L2C Translations Evicting Data 10414
L2C Data Evicting Data 5314626
L2C Instructions Evicting Instructions 0
L2C Translations Evicting Instructions 0
L2C Data Evicting Instructions 0
L2C Instructions Evicting Translations 0
L2C Translations Evicting Translations 98
L2C Data Evicting Translations 10228
L2C Dense regions hint from L2: 0
PSCL5 SPEC fills:          0  NON-SPEC fills:          0
PSCL5 Test counter :          0
PSCL5 Leapfrog:          0
PSCL5 MSHR merge:          0
PSCL5 TOTAL     ACCESS:          0  HIT:          0  MISS:          0  HIT %:       -nan  MISS %:       -nan   MPKI: 0
PSCL5 PREFETCH  REQUESTED:          0  ISSUED:          0  USEFUL:          0  USELESS:          0
PSCL5 USEFUL LOAD PREFETCHES:          0 PREFETCH ISSUED TO LOWER LEVEL:          0  ACCURACY: -nan
PSCL5 TIMELY PREFETCHES:          0 LATE PREFETCHES: 0 DROPPED PREFETCHES: 0
PSCL5 COMMIT LATE PREFETCHES: 0 MISSED OPPORTUNITY: 0 LATE IN PQ: 0 UNCOVERED: 0
PSCL5 COMMIT LATE MSHR PREFETCHES: 0
PSCL5 MPKI TOTAL: 0 MSHR LATE: 0 PQ LATE: 0 COMMIT LATE: 0 MISSED OPPORTUNITY: 0 UNCOVERED: 0
PSCL5 PREFETCHES SAME FILL-ORIGIN LEVEL: 0 DIFFERENT FILL-ORIGIN LEVEL: 0

PSCL4 SPEC fills:          0  NON-SPEC fills:          0
PSCL4 Test counter :          0
PSCL4 Leapfrog:          0
PSCL4 MSHR merge:          0
PSCL4 TOTAL     ACCESS:          0  HIT:          0  MISS:          0  HIT %:       -nan  MISS %:       -nan   MPKI: 0
PSCL4 PREFETCH  REQUESTED:          0  ISSUED:          0  USEFUL:          0  USELESS:          0
PSCL4 USEFUL LOAD PREFETCHES:          0 PREFETCH ISSUED TO LOWER LEVEL:          0  ACCURACY: -nan
PSCL4 TIMELY PREFETCHES:          0 LATE PREFETCHES: 0 DROPPED PREFETCHES: 0
PSCL4 COMMIT LATE PREFETCHES: 0 MISSED OPPORTUNITY: 0 LATE IN PQ: 0 UNCOVERED: 0
PSCL4 COMMIT LATE MSHR PREFETCHES: 0
PSCL4 MPKI TOTAL: 0 MSHR LATE: 0 PQ LATE: 0 COMMIT LATE: 0 MISSED OPPORTUNITY: 0 UNCOVERED: 0
PSCL4 PREFETCHES SAME FILL-ORIGIN LEVEL: 0 DIFFERENT FILL-ORIGIN LEVEL: 0

PSCL3 SPEC fills:          0  NON-SPEC fills:          0
PSCL3 Test counter :          0
PSCL3 Leapfrog:          0
PSCL3 MSHR merge:          0
PSCL3 TOTAL     ACCESS:          0  HIT:          0  MISS:          0  HIT %:       -nan  MISS %:       -nan   MPKI: 0
PSCL3 PREFETCH  REQUESTED:          0  ISSUED:          0  USEFUL:          0  USELESS:          0
PSCL3 USEFUL LOAD PREFETCHES:          0 PREFETCH ISSUED TO LOWER LEVEL:          0  ACCURACY: -nan
PSCL3 TIMELY PREFETCHES:          0 LATE PREFETCHES: 0 DROPPED PREFETCHES: 0
PSCL3 COMMIT LATE PREFETCHES: 0 MISSED OPPORTUNITY: 0 LATE IN PQ: 0 UNCOVERED: 0
PSCL3 COMMIT LATE MSHR PREFETCHES: 0
PSCL3 MPKI TOTAL: 0 MSHR LATE: 0 PQ LATE: 0 COMMIT LATE: 0 MISSED OPPORTUNITY: 0 UNCOVERED: 0
PSCL3 PREFETCHES SAME FILL-ORIGIN LEVEL: 0 DIFFERENT FILL-ORIGIN LEVEL: 0

PSCL2 SPEC fills:          0  NON-SPEC fills:          0
PSCL2 Test counter :          0
PSCL2 Leapfrog:          0
PSCL2 MSHR merge:          0
PSCL2 TOTAL     ACCESS:          0  HIT:          0  MISS:          0  HIT %:       -nan  MISS %:       -nan   MPKI: 0
PSCL2 PREFETCH  REQUESTED:          0  ISSUED:          0  USEFUL:          0  USELESS:          0
PSCL2 USEFUL LOAD PREFETCHES:          0 PREFETCH ISSUED TO LOWER LEVEL:          0  ACCURACY: -nan
PSCL2 TIMELY PREFETCHES:          0 LATE PREFETCHES: 0 DROPPED PREFETCHES: 0
PSCL2 COMMIT LATE PREFETCHES: 0 MISSED OPPORTUNITY: 0 LATE IN PQ: 0 UNCOVERED: 0
PSCL2 COMMIT LATE MSHR PREFETCHES: 0
PSCL2 MPKI TOTAL: 0 MSHR LATE: 0 PQ LATE: 0 COMMIT LATE: 0 MISSED OPPORTUNITY: 0 UNCOVERED: 0
PSCL2 PREFETCHES SAME FILL-ORIGIN LEVEL: 0 DIFFERENT FILL-ORIGIN LEVEL: 0

LLC SPEC fills:          0  NON-SPEC fills:      26651
LLC Test counter :          0
LLC Leapfrog:          0
LLC MSHR merge:          0
LLC TOTAL     ACCESS:    9581864  HIT:    4199817  MISS:    5382047  HIT %:    43.8309  MISS %:    56.1691   MPKI: 26.9102
LLC LOAD      TOTAL       ACCESS:      69489  HIT:        623  MISS:      68866  HIT %:   0.896545  MISS %:    99.1035   MPKI: 0.34433
LLC LOAD      NON_SPEC    ACCESS:      26669  HIT:         18  MISS:      26651  HIT %:  0.0674941  MISS %:    99.9325   MPKI: 0.133255
LLC LOAD      SPEC        ACCESS:      42820  HIT:        605  MISS:      42215  HIT %:    1.41289  MISS %:    98.5871   MPKI: 0.211075
LLC RFO       NON_SPEC    ACCESS:    4061160  HIT:      64449  MISS:    3996711  HIT %:    1.58696  MISS %:     98.413   MPKI: 19.9836
LLC PREFETCH  NON_SPEC    ACCESS:    1264367  HIT:        724  MISS:    1263643  HIT %:  0.0572619  MISS %:    99.9427   MPKI: 6.31821
LLC WRITEBACK NON_SPEC    ACCESS:    4062344  HIT:    4062280  MISS:         64  HIT %:    99.9984  MISS %: 0.00157545   MPKI: 0.00032
LLC CLEAN_EVICTION NON_SPEC    ACCESS:     106567  HIT:      65992  MISS:      40575  HIT %:    61.9254  MISS %:    38.0746   MPKI: 0.202875
LLC COMMIT LOAD NON_SPEC    ACCESS:       7425  HIT:       5749  MISS:       1676  HIT %:    77.4276  MISS %:    22.5724   MPKI: 0.00838
LLC LOAD TRANSLATION NON_SPEC    ACCESS:      10512  HIT:          0  MISS:      10512  HIT %:          0  MISS %:        100   MPKI: 0.05256
LLC PREFETCH  REQUESTED:          0  ISSUED:          0  USEFUL:       5845  USELESS:    1257392
LLC USEFUL LOAD PREFETCHES:       5845 PREFETCH ISSUED TO LOWER LEVEL:    1263643  ACCURACY: 0.462552
LLC TIMELY PREFETCHES:       5845 LATE PREFETCHES: 0 DROPPED PREFETCHES: 0
LLC COMMIT LATE PREFETCHES: 0 MISSED OPPORTUNITY: 0 LATE IN PQ: 0 UNCOVERED: 0
LLC COMMIT LATE MSHR PREFETCHES: 0
LLC MPKI TOTAL: 0.34433 MSHR LATE: 0 PQ LATE: 0 COMMIT LATE: 0 MISSED OPPORTUNITY: 0 UNCOVERED: 0
LLC PREFETCHES SAME FILL-ORIGIN LEVEL: 0 DIFFERENT FILL-ORIGIN LEVEL: 0
LLC AVERAGE MISS LATENCY: 471.393 cycles
LLC AVERAGE MISS LATENCY LOAD: 547.204 cycles
LLC AVERAGE MISS LATENCY PREFETCH: 540.626 cycles
LLC AVERAGE MSHR OCCUPANCY: 8.76942
LLC MSHR FULL: 0
LLC RQ	ACCESS:    4148604	FORWARD:          0	MERGED:          0	TO_CACHE:    4148594
LLC WQ	ACCESS:    4168911	FORWARD:         11	MERGED:          0	TO_CACHE:    4168911
LLC PQ	ACCESS:    1264368	FORWARD:          0	MERGED:          0	TO_CACHE:    1264367

LLC Dense regions hint to LLC: 0

RAW hits: 1282709
Loads Generated: 47759094
Loads sent to L1D: 46476385
Stores Generated: 31149747
Stores sent to L1D: 31149766
Major fault: 0 Minor fault: 61402
Allocated PAGES: 61402
Total Load insts: 57705768
Total Non-spec loads: 4449162
Percentage of speculative loads: 92.2899

LeapFrogging counter: 4238027
Commit hits: 20765654 miss: 21677732
Commit hit %: 48.9255 miss %: 51.0745
Commits not translated: 0
Loads retired: 1365883
Stores retired: 31149766
Cache fills: 1365883
L1D response latency: 75.0577 cycles
Load retirement latency: 289.11 cycles
OOO test counter: 0
Discarded buffer inserts: 20765654 hits: 77176 hit %: 0.371652
Filter prediction accuracy: 99.8781
[Bingo] PHT Access: 42708
[Bingo] PHT Hit PC+Addr: 1139
[Bingo] PHT Hit PC+Offs: 41554
[Bingo] PHT Miss: 15
[Bingo] Prefetch PC+Addr: 0
[Bingo] Prefetch PC+Offs: 0
[Bingo] Useful PC+Addr: 0
[Bingo] Useful PC+Offs: 0
[Bingo] Useless PC+Addr: 0
[Bingo] Useless PC+Offs: 0
[Bingo] L1 Prefetch per Region: 0
[Bingo] L2 Prefetch per Region: 31.2827
[Bingo] L3 Prefetch per Region: 0
[Bingo] No Prefetch per Region: 0.71726
[Bingo] Number of Voters Mean: 15.9989
[Bingo] Number of Voters SD: 9.96766
PHT read accesses: 667644
PHT write accesses: 42628
AT read accesses: 1364993
AT write accesses: 1365658
FT read accesses: 128354
FT write accesses: 42708
PS read accesses: 192621
PS write accesses: 42693
PHT tag read accesses: 2013228
PHT tag write accesses: 43767
AT tag read accesses: 109923109
AT tag write accesses: 1407662
FT tag read accesses: 89265895
FT tag write accesses: 128239
PS tag read accesses: 23262500
PS tag write accesses: 235314

DRAM Statistics
 CHANNEL 0
 RQ ROW_BUFFER_HIT:     677944  ROW_BUFFER_MISS:    4663464
 DBUS_CONGESTED:         13
 WQ ROW_BUFFER_HIT:     935308  ROW_BUFFER_MISS:    3168017  FULL:        357

 AVG_CONGESTED_CYCLE: 5
 All warmup complete: 2
Channel 0 Bank busy for read cycles: 0
Channel 0 Bank busy for write cycles: 0
Channel 0
Rank 0
0banks busy for read cycles: 12696757
0banks busy for write cycles: 5684
1banks busy for read cycles: 6908663
1banks busy for write cycles: 945031
2banks busy for read cycles: 13008830
2banks busy for write cycles: 817735
3banks busy for read cycles: 24288080
3banks busy for write cycles: 773883
4banks busy for read cycles: 18009083
4banks busy for write cycles: 758922
5banks busy for read cycles: 33730724
5banks busy for write cycles: 774224
6banks busy for read cycles: 22197394
6banks busy for write cycles: 857993
7banks busy for read cycles: 17272893
7banks busy for write cycles: 5023746
8banks busy for read cycles: 26672352
8banks busy for write cycles: 79907950

CPU 0 Branch Prediction Accuracy: 99.0972% MPKI: 0.10939 Average ROB Occupancy at Mispredict: 125.282
Branch types
NOT_BRANCH: 197576254 98.7881%
BRANCH_DIRECT_JUMP: 120779 0.0603895%
BRANCH_INDIRECT: 0 0%
BRANCH_CONDITIONAL: 2302625 1.15131%
BRANCH_DIRECT_CALL: 0 0%
BRANCH_INDIRECT_CALL: 0 0%
BRANCH_RETURN: 0 0%
BRANCH_OTHER: 0 0%

DRAM PAGES: 1048576
Allocated PAGES: 61402
