
*** ChampSim Multicore Out-of-Order Simulator ***

Warmup Instructions: 50000000
Simulation Instructions: 200000000
Number of CPUs: 1
LLC sets: 2048
LLC ways: 16
L0D sets: 16
L0D ways: 2
ROB size: 352
LQ size: 128
SQ size: 72
Secure Berti: OFF
Berti: OFF
Berti Fill: OFF
On commit prefetching: OFF
Hit-based filter: ON
Time-guarding: ON
Free-slotting: ON
Leap-frogging: ON
Train prefetcher on L0D bypass: OFF
No translation penalty for prefetchers: OFF
Prefetch to L0D only: OFF
Prefetch to L1D only: OFF
Clean evictions: ON
Commit loads: ON
Commit write: ON
Fill commit loads to L2C, LLC: ON
DRAM IO FREQUENCY: 6400
ROB SIZE: 352
Off-chip DRAM Size: 4096 MB Channels: 1 Width: 64-bit Data Rate: 6400 MT/s
CPU 0 runs /home/sumon/secure_berti/GhostMinion/../../traces/spec/620.omnetpp_s-874B.champsimtrace.xz
.xz
BTB has LRU replacement policy
ITLB has LRU replacement policy
DTLB has LRU replacement policy
STLB has LRU replacement policy
L1I has LRU replacement policy
L0D has LRU replacement policy
L1D has LRU replacement policy
Bingo PHT WAYS: 16 and PHT_SIZE: 16384
L2C has LRU replacement policy
LLC has LRU replacement policy
Heartbeat CPU 0 instructions: 10000001 cycles: 8116590 heartbeat IPC: 1.23204 cumulative IPC: 1.23204 (Simulation time: 0 hr 0 min 51 sec) 
Heartbeat CPU 0 instructions: 20000000 cycles: 16235897 heartbeat IPC: 1.23163 cumulative IPC: 1.23184 (Simulation time: 0 hr 1 min 41 sec) 
Heartbeat CPU 0 instructions: 30000003 cycles: 24333579 heartbeat IPC: 1.23492 cumulative IPC: 1.23286 (Simulation time: 0 hr 2 min 29 sec) 
Heartbeat CPU 0 instructions: 40000000 cycles: 32455641 heartbeat IPC: 1.23121 cumulative IPC: 1.23245 (Simulation time: 0 hr 3 min 16 sec) 
Heartbeat CPU 0 instructions: 50000000 cycles: 40585275 heartbeat IPC: 1.23007 cumulative IPC: 1.23197 (Simulation time: 0 hr 4 min 1 sec) 

Warmup complete CPU 0 instructions: 50000004 cycles: 40585276 (Simulation time: 0 hr 4 min 1 sec) 

Heartbeat CPU 0 instructions: 60000001 cycles: 80304584 heartbeat IPC: 0.251767 cumulative IPC: 0.251767 (Simulation time: 0 hr 4 min 54 sec) 
Heartbeat CPU 0 instructions: 70000001 cycles: 119491627 heartbeat IPC: 0.255186 cumulative IPC: 0.253465 (Simulation time: 0 hr 5 min 46 sec) 
Heartbeat CPU 0 instructions: 80000002 cycles: 158979639 heartbeat IPC: 0.253241 cumulative IPC: 0.25339 (Simulation time: 0 hr 6 min 40 sec) 
Heartbeat CPU 0 instructions: 90000002 cycles: 198062760 heartbeat IPC: 0.255865 cumulative IPC: 0.254005 (Simulation time: 0 hr 7 min 33 sec) 
Heartbeat CPU 0 instructions: 100000000 cycles: 237974234 heartbeat IPC: 0.250554 cumulative IPC: 0.253307 (Simulation time: 0 hr 8 min 27 sec) 
Heartbeat CPU 0 instructions: 110000000 cycles: 277286688 heartbeat IPC: 0.254372 cumulative IPC: 0.253484 (Simulation time: 0 hr 9 min 20 sec) 
Heartbeat CPU 0 instructions: 120000000 cycles: 316690305 heartbeat IPC: 0.253784 cumulative IPC: 0.253527 (Simulation time: 0 hr 10 min 12 sec) 
Heartbeat CPU 0 instructions: 130000000 cycles: 356265904 heartbeat IPC: 0.252681 cumulative IPC: 0.253421 (Simulation time: 0 hr 11 min 5 sec) 
Heartbeat CPU 0 instructions: 140000001 cycles: 395663332 heartbeat IPC: 0.253824 cumulative IPC: 0.253465 (Simulation time: 0 hr 11 min 57 sec) 
Heartbeat CPU 0 instructions: 150000002 cycles: 435308133 heartbeat IPC: 0.25224 cumulative IPC: 0.253342 (Simulation time: 0 hr 12 min 47 sec) 
Heartbeat CPU 0 instructions: 160000000 cycles: 475073816 heartbeat IPC: 0.251473 cumulative IPC: 0.253171 (Simulation time: 0 hr 13 min 39 sec) 
Heartbeat CPU 0 instructions: 170000000 cycles: 514271294 heartbeat IPC: 0.255118 cumulative IPC: 0.253332 (Simulation time: 0 hr 14 min 28 sec) 
Heartbeat CPU 0 instructions: 180000000 cycles: 553782448 heartbeat IPC: 0.253093 cumulative IPC: 0.253314 (Simulation time: 0 hr 15 min 17 sec) 
Heartbeat CPU 0 instructions: 190000003 cycles: 593328400 heartbeat IPC: 0.25287 cumulative IPC: 0.253282 (Simulation time: 0 hr 16 min 4 sec) 
Heartbeat CPU 0 instructions: 200000000 cycles: 632666426 heartbeat IPC: 0.254207 cumulative IPC: 0.253344 (Simulation time: 0 hr 16 min 50 sec) 
Heartbeat CPU 0 instructions: 210000000 cycles: 672209300 heartbeat IPC: 0.25289 cumulative IPC: 0.253315 (Simulation time: 0 hr 17 min 36 sec) 
Heartbeat CPU 0 instructions: 220000000 cycles: 711598725 heartbeat IPC: 0.253875 cumulative IPC: 0.253348 (Simulation time: 0 hr 18 min 22 sec) 
Heartbeat CPU 0 instructions: 230000002 cycles: 750775307 heartbeat IPC: 0.255255 cumulative IPC: 0.253453 (Simulation time: 0 hr 19 min 7 sec) 
Heartbeat CPU 0 instructions: 240000001 cycles: 790322250 heartbeat IPC: 0.252864 cumulative IPC: 0.253422 (Simulation time: 0 hr 19 min 53 sec) 
Heartbeat CPU 0 instructions: 250000000 cycles: 829767593 heartbeat IPC: 0.253515 cumulative IPC: 0.253427 (Simulation time: 0 hr 20 min 37 sec) 
Finished CPU 0 instructions: 200000000 cycles: 789182318 cumulative IPC: 0.253427 (Simulation time: 0 hr 20 min 37 sec) 
 Instruction ID: 250000019

ChampSim completed all CPUs

Region of Interest Statistics

CPU 0 cumulative IPC: 0.253427 instructions: 200000000 cycles: 789182318
ITLB SPEC fills:          0  NON-SPEC fills:          0
ITLB Test counter :          0
ITLB Leapfrog:          0
ITLB MSHR merge:          0
ITLB TOTAL     ACCESS:   32902986  HIT:   32585625  MISS:     317361  HIT %:    99.0355  MISS %:   0.964536   MPKI: 1.58681
ITLB LOAD TRANSLATION NON_SPEC    ACCESS:   32902986  HIT:   32585625  MISS:     317361  HIT %:    99.0355  MISS %:   0.964536   MPKI: 1.58681
ITLB PREFETCH  REQUESTED:          0  ISSUED:          0  USEFUL:          0  USELESS:          0
ITLB USEFUL LOAD PREFETCHES:          0 PREFETCH ISSUED TO LOWER LEVEL:          0  ACCURACY: -nan
ITLB TIMELY PREFETCHES:          0 LATE PREFETCHES: 0 DROPPED PREFETCHES: 0
ITLB COMMIT LATE PREFETCHES: 0 MISSED OPPORTUNITY: 0 LATE IN PQ: 0 UNCOVERED: 0
ITLB COMMIT LATE MSHR PREFETCHES: 0
ITLB MPKI TOTAL: 0 MSHR LATE: 0 PQ LATE: 0 COMMIT LATE: 0 MISSED OPPORTUNITY: 0 UNCOVERED: 0
ITLB PREFETCHES SAME FILL-ORIGIN LEVEL: 0 DIFFERENT FILL-ORIGIN LEVEL: 0
ITLB AVERAGE MISS LATENCY: 10.7197 cycles
ITLB AVERAGE MISS LATENCY LOAD: -nan cycles
ITLB AVERAGE MISS LATENCY PREFETCH: -nan cycles
ITLB AVERAGE MSHR OCCUPANCY: 0.00937867
ITLB MSHR FULL: 0
ITLB RQ	ACCESS:   37062060	FORWARD:          0	MERGED:    4062505	TO_CACHE:   32999555

DTLB SPEC fills:          0  NON-SPEC fills:          0
DTLB Test counter :          0
DTLB Leapfrog:          0
DTLB MSHR merge:          0
DTLB TOTAL     ACCESS:   81993574  HIT:   78183340  MISS:    3810234  HIT %:     95.353  MISS %:    4.64699   MPKI: 19.0512
DTLB LOAD TRANSLATION NON_SPEC    ACCESS:   81993574  HIT:   78183340  MISS:    3810234  HIT %:     95.353  MISS %:    4.64699   MPKI: 19.0512
DTLB PREFETCH  REQUESTED:          0  ISSUED:          0  USEFUL:          0  USELESS:          0
DTLB USEFUL LOAD PREFETCHES:          0 PREFETCH ISSUED TO LOWER LEVEL:          0  ACCURACY: -nan
DTLB TIMELY PREFETCHES:          0 LATE PREFETCHES: 0 DROPPED PREFETCHES: 0
DTLB COMMIT LATE PREFETCHES: 0 MISSED OPPORTUNITY: 0 LATE IN PQ: 0 UNCOVERED: 0
DTLB COMMIT LATE MSHR PREFETCHES: 0
DTLB MPKI TOTAL: 0 MSHR LATE: 0 PQ LATE: 0 COMMIT LATE: 0 MISSED OPPORTUNITY: 0 UNCOVERED: 0
DTLB PREFETCHES SAME FILL-ORIGIN LEVEL: 0 DIFFERENT FILL-ORIGIN LEVEL: 0
DTLB AVERAGE MISS LATENCY: 43.6109 cycles
DTLB AVERAGE MISS LATENCY LOAD: -nan cycles
DTLB AVERAGE MISS LATENCY PREFETCH: -nan cycles
DTLB AVERAGE MSHR OCCUPANCY: 0.12119
DTLB MSHR FULL: 7.7083e-05
DTLB RQ	ACCESS:   92445101	FORWARD:          0	MERGED:   10370858	TO_CACHE:   82074243

STLB SPEC fills:          0  NON-SPEC fills:          0
STLB Test counter :          0
STLB Leapfrog:          0
STLB MSHR merge:          0
STLB TOTAL     ACCESS:    4127595  HIT:    3273331  MISS:     854264  HIT %:    79.3036  MISS %:    20.6964   MPKI: 4.27132
STLB LOAD TRANSLATION NON_SPEC    ACCESS:    4127595  HIT:    3273331  MISS:     854264  HIT %:    79.3036  MISS %:    20.6964   MPKI: 4.27132
STLB PREFETCH  REQUESTED:          0  ISSUED:          0  USEFUL:          0  USELESS:          0
STLB USEFUL LOAD PREFETCHES:          0 PREFETCH ISSUED TO LOWER LEVEL:          0  ACCURACY: -nan
STLB TIMELY PREFETCHES:          0 LATE PREFETCHES: 0 DROPPED PREFETCHES: 0
STLB COMMIT LATE PREFETCHES: 0 MISSED OPPORTUNITY: 0 LATE IN PQ: 0 UNCOVERED: 0
STLB COMMIT LATE MSHR PREFETCHES: 0
STLB MPKI TOTAL: 0 MSHR LATE: 0 PQ LATE: 0 COMMIT LATE: 0 MISSED OPPORTUNITY: 0 UNCOVERED: 0
STLB PREFETCHES SAME FILL-ORIGIN LEVEL: 0 DIFFERENT FILL-ORIGIN LEVEL: 0
STLB AVERAGE MISS LATENCY: 154.897 cycles
STLB AVERAGE MISS LATENCY LOAD: -nan cycles
STLB AVERAGE MISS LATENCY PREFETCH: -nan cycles
STLB AVERAGE MSHR OCCUPANCY: 0.11966
STLB MSHR FULL: 0
STLB RQ	ACCESS:    4127595	FORWARD:          0	MERGED:          0	TO_CACHE:    4127595

STLB Hit, L1D data hit: 0
STLB Hit, L2C data hit: 0
STLB Hit, LLC data hit: 0
STLB Hit, LLC data miss: 0
STLB STLB hints to L2: 0
L0D SPEC fills:   23033741  NON-SPEC fills:          0
L0D TimeGuard Request with older TS:     292458 Restricted eviction:     138134 read:     313471
L0D Test counter :          0
L0D Leapfrog:          0
L0D MSHR merge:     889017
L0D TOTAL     ACCESS:   54437755  HIT:    6441748  MISS:   47996007  HIT %:    11.8332  MISS %:    88.1668   MPKI: 239.98
L0D LOAD      TOTAL       ACCESS:   54437755  HIT:    6441748  MISS:   47996007  HIT %:    11.8332  MISS %:    88.1668   MPKI: 239.98
L0D LOAD      NON_SPEC    ACCESS:   25035488  HIT:     211353  MISS:   24824135  HIT %:   0.844214  MISS %:    99.1558   MPKI: 124.121
L0D LOAD      SPEC        ACCESS:   29402267  HIT:    6230395  MISS:   23171872  HIT %:    21.1902  MISS %:    78.8098   MPKI: 115.859
L0D PREFETCH  REQUESTED:          0  ISSUED:          0  USEFUL:          0  USELESS:          0
L0D USEFUL LOAD PREFETCHES:          0 PREFETCH ISSUED TO LOWER LEVEL:          0  ACCURACY: -nan
L0D TIMELY PREFETCHES:          0 LATE PREFETCHES: 0 DROPPED PREFETCHES: 0
L0D COMMIT LATE PREFETCHES: 0 MISSED OPPORTUNITY: 0 LATE IN PQ: 0 UNCOVERED: 0
L0D COMMIT LATE MSHR PREFETCHES: 0
L0D MPKI TOTAL: 244.425 MSHR LATE: 0 PQ LATE: 0 COMMIT LATE: 0 MISSED OPPORTUNITY: 0 UNCOVERED: 0
L0D PREFETCHES SAME FILL-ORIGIN LEVEL: 0 DIFFERENT FILL-ORIGIN LEVEL: 0
L0D AVERAGE MISS LATENCY: 9.71338 cycles
L0D AVERAGE MISS LATENCY LOAD: 9.71338 cycles
L0D AVERAGE MISS LATENCY PREFETCH: -nan cycles
L0D AVERAGE MSHR OCCUPANCY: 0.502033
L0D MSHR FULL: 5.76543e-05
L0D RQ	ACCESS:   64446920	FORWARD:          0	MERGED:    9120149	TO_CACHE:   55326771
L0D WQ	ACCESS:   37118330	FORWARD:          0	MERGED:          0	TO_CACHE:   37118330

L1D SPEC fills:          0  NON-SPEC fills:     621051
L1D Test counter :          0
L1D Leapfrog:          0
L1D MSHR merge:      15784
L1D TOTAL     ACCESS:   88075021  HIT:   81573475  MISS:    6501546  HIT %:    92.6182  MISS %:    7.38183   MPKI: 32.5077
L1D LOAD      TOTAL       ACCESS:   47980223  HIT:   44629906  MISS:    3350317  HIT %:    93.0173  MISS %:     6.9827   MPKI: 16.7516
L1D LOAD      NON_SPEC    ACCESS:   24816484  HIT:   24195433  MISS:     621051  HIT %:    97.4974  MISS %:    2.50257   MPKI: 3.10526
L1D LOAD      SPEC        ACCESS:   23163739  HIT:   20434473  MISS:    2729266  HIT %:    88.2175  MISS %:    11.7825   MPKI: 13.6463
L1D RFO       NON_SPEC    ACCESS:   35982602  HIT:   35501189  MISS:     481413  HIT %:    98.6621  MISS %:     1.3379   MPKI: 2.40706
L1D COMMIT LOAD NON_SPEC    ACCESS:    1377643  HIT:    1363316  MISS:      14327  HIT %:      98.96  MISS %:    1.03996   MPKI: 0.071635
L1D COMMIT WRITE NON_SPEC    ACCESS:    2734553  HIT:      79064  MISS:    2655489  HIT %:     2.8913  MISS %:    97.1087   MPKI: 13.2774
L1D PREFETCH  REQUESTED:          0  ISSUED:          0  USEFUL:          0  USELESS:          0
L1D USEFUL LOAD PREFETCHES:          0 PREFETCH ISSUED TO LOWER LEVEL:          0  ACCURACY: -nan
L1D TIMELY PREFETCHES:          0 LATE PREFETCHES: 0 DROPPED PREFETCHES: 0
L1D COMMIT LATE PREFETCHES: 0 MISSED OPPORTUNITY: 0 LATE IN PQ: 0 UNCOVERED: 0
L1D COMMIT LATE MSHR PREFETCHES: 0
L1D MPKI TOTAL: 16.8305 MSHR LATE: 0 PQ LATE: 0 COMMIT LATE: 0 MISSED OPPORTUNITY: 0 UNCOVERED: 0
L1D PREFETCHES SAME FILL-ORIGIN LEVEL: 0 DIFFERENT FILL-ORIGIN LEVEL: 0
L1D AVERAGE MISS LATENCY: 40.5255 cycles
L1D AVERAGE MISS LATENCY LOAD: 66.395 cycles
L1D AVERAGE MISS LATENCY PREFETCH: -nan cycles
L1D AVERAGE MSHR OCCUPANCY: 0.17765
L1D MSHR FULL: 0
L1D RQ	ACCESS:   49697028	FORWARD:          0	MERGED:     275744	TO_CACHE:   49374627
L1D WQ	ACCESS:   39854358	FORWARD:      46657	MERGED:     399955	TO_CACHE:   39454403

L1D UNIQUE REGIONS ACCESSED: 0
L1D REGIONS CONFLICTS: 0
L1D Cross Page Prefetch Requests: 0
L1D Same Page Prefetch Requests: 0
L1D ROI Sum of L1D PQ occupancy: 0
L1D PREFETCHES PUSHED FROM L2C: 0
L1I SPEC fills:          0  NON-SPEC fills:          0
L1I Test counter :          0
L1I Leapfrog:          0
L1I MSHR merge:      30070
L1I TOTAL     ACCESS:   37031991  HIT:   36952983  MISS:      79008  HIT %:    99.7866  MISS %:   0.213351   MPKI: 0.39504
L1I LOAD      TOTAL       ACCESS:   37031991  HIT:   36952983  MISS:      79008  HIT %:    99.7866  MISS %:   0.213351   MPKI: 0.39504
L1I LOAD      NON_SPEC    ACCESS:   37031991  HIT:   36952983  MISS:      79008  HIT %:    99.7866  MISS %:   0.213351   MPKI: 0.39504
L1I PREFETCH  REQUESTED:          0  ISSUED:          0  USEFUL:          0  USELESS:          0
L1I USEFUL LOAD PREFETCHES:          0 PREFETCH ISSUED TO LOWER LEVEL:          0  ACCURACY: -nan
L1I TIMELY PREFETCHES:          0 LATE PREFETCHES: 0 DROPPED PREFETCHES: 0
L1I COMMIT LATE PREFETCHES: 0 MISSED OPPORTUNITY: 0 LATE IN PQ: 0 UNCOVERED: 0
L1I COMMIT LATE MSHR PREFETCHES: 0
L1I MPKI TOTAL: 0.54539 MSHR LATE: 0 PQ LATE: 0 COMMIT LATE: 0 MISSED OPPORTUNITY: 0 UNCOVERED: 0
L1I PREFETCHES SAME FILL-ORIGIN LEVEL: 0 DIFFERENT FILL-ORIGIN LEVEL: 0
L1I AVERAGE MISS LATENCY: 31.8805 cycles
L1I AVERAGE MISS LATENCY LOAD: 31.8805 cycles
L1I AVERAGE MISS LATENCY PREFETCH: -nan cycles
L1I AVERAGE MSHR OCCUPANCY: 0.00329938
L1I MSHR FULL: 0
L1I RQ	ACCESS:   56949186	FORWARD:          0	MERGED:   19887126	TO_CACHE:   37062060

BTB SPEC fills:          0  NON-SPEC fills:          0
BTB Test counter :          0
BTB Leapfrog:          0
BTB MSHR merge:          0
BTB TOTAL     ACCESS:   32188164  HIT:   30296058  MISS:    1892106  HIT %:    94.1217  MISS %:    5.87827   MPKI: 9.46053
BTB BRANCH_DIRECT_JUMP	ACCESS:    2276304  HIT:    2276179  MISS:        125
BTB BRANCH_INDIRECT	ACCESS:     671328  HIT:     585871  MISS:      85457
BTB BRANCH_CONDITIONAL	ACCESS:   17350102  HIT:   17349618  MISS:        484
BTB BRANCH_DIRECT_CALL	ACCESS:    3559126  HIT:    3558870  MISS:        256
BTB BRANCH_INDIRECT_CALL	ACCESS:    2386088  HIT:    2378106  MISS:       7982
BTB BRANCH_RETURN	ACCESS:    5945216  HIT:    4147414  MISS:    1797802
BTB BRANCH_OTHER ACCESS:          0  HIT:          0  MISS:          0

L2C SPEC fills:          0  NON-SPEC fills:     345293
L2C Test counter :          0
L2C Leapfrog:          0
L2C MSHR merge:      38017
L2C TOTAL     ACCESS:   14514322  HIT:    8136144  MISS:    6378178  HIT %:     56.056  MISS %:     43.944   MPKI: 31.8909
L2C LOAD      TOTAL       ACCESS:    3429242  HIT:    1913089  MISS:    1516153  HIT %:    55.7875  MISS %:    44.2125   MPKI: 7.58077
L2C LOAD      NON_SPEC    ACCESS:     700043  HIT:     330939  MISS:     369104  HIT %:    47.2741  MISS %:    52.7259   MPKI: 1.84552
L2C LOAD      SPEC        ACCESS:    2729199  HIT:    1582150  MISS:    1147049  HIT %:    57.9712  MISS %:    42.0288   MPKI: 5.73524
L2C RFO       NON_SPEC    ACCESS:     481349  HIT:     189130  MISS:     292219  HIT %:    39.2917  MISS %:    60.7083   MPKI: 1.4611
L2C PREFETCH  NON_SPEC    ACCESS:    3840738  HIT:     974505  MISS:    2866233  HIT %:    25.3729  MISS %:    74.6271   MPKI: 14.3312
L2C WRITEBACK NON_SPEC    ACCESS:     682765  HIT:     680752  MISS:       2013  HIT %:    99.7052  MISS %:   0.294831   MPKI: 0.010065
L2C CLEAN_EVICTION NON_SPEC    ACCESS:    1794581  HIT:     643142  MISS:    1151439  HIT %:     35.838  MISS %:     64.162   MPKI: 5.7572
L2C COMMIT LOAD NON_SPEC    ACCESS:      14327  HIT:      10720  MISS:       3607  HIT %:    74.8238  MISS %:    25.1762   MPKI: 0.018035
L2C LOAD TRANSLATION NON_SPEC    ACCESS:    4271320  HIT:    3724806  MISS:     546514  HIT %:     87.205  MISS %:     12.795   MPKI: 2.73257
L2C PREFETCH  REQUESTED:    3980910  ISSUED:    3980910  USEFUL:     991790  USELESS:    1874413
L2C USEFUL LOAD PREFETCHES:     991790 PREFETCH ISSUED TO LOWER LEVEL:    2907474  ACCURACY: 34.1117
L2C TIMELY PREFETCHES:     991790 LATE PREFETCHES: 41239 DROPPED PREFETCHES: 0
L2C COMMIT LATE PREFETCHES: 0 MISSED OPPORTUNITY: 0 LATE IN PQ: 0 UNCOVERED: 0
L2C COMMIT LATE MSHR PREFETCHES: 0
L2C MPKI TOTAL: 7.58077 MSHR LATE: 0.206195 PQ LATE: 0 COMMIT LATE: 0 MISSED OPPORTUNITY: 0 UNCOVERED: 0
L2C PREFETCHES SAME FILL-ORIGIN LEVEL: 2907474 DIFFERENT FILL-ORIGIN LEVEL: 0
L2C AVERAGE MISS LATENCY: 113.356 cycles
L2C AVERAGE MISS LATENCY LOAD: 121.723 cycles
L2C AVERAGE MISS LATENCY PREFETCH: 156.418 cycles
L2C AVERAGE MSHR OCCUPANCY: 0.680345
L2C MSHR FULL: 0
L2C RQ	ACCESS:    8196385	FORWARD:          0	MERGED:          0	TO_CACHE:    8196238
L2C WQ	ACCESS:    2477347	FORWARD:        152	MERGED:          0	TO_CACHE:    2477347
L2C PQ	ACCESS:    3980910	FORWARD:          0	MERGED:          0	TO_CACHE:    3980905

L2C Instructions Evicting Data 20380
L2C Translations Evicting Data 486270
L2C Data Evicting Data 3126339
L2C Instructions Evicting Instructions 1392
L2C Translations Evicting Instructions 2084
L2C Data Evicting Instructions 15357
L2C Instructions Evicting Translations 2039
L2C Translations Evicting Translations 58160
L2C Data Evicting Translations 365656
L2C Dense regions hint from L2: 0
PSCL5 SPEC fills:          0  NON-SPEC fills:          0
PSCL5 Test counter :          0
PSCL5 Leapfrog:          0
PSCL5 MSHR merge:          0
PSCL5 TOTAL     ACCESS:          0  HIT:          0  MISS:          0  HIT %:       -nan  MISS %:       -nan   MPKI: 0
PSCL5 PREFETCH  REQUESTED:          0  ISSUED:          0  USEFUL:          0  USELESS:          0
PSCL5 USEFUL LOAD PREFETCHES:          0 PREFETCH ISSUED TO LOWER LEVEL:          0  ACCURACY: -nan
PSCL5 TIMELY PREFETCHES:          0 LATE PREFETCHES: 0 DROPPED PREFETCHES: 0
PSCL5 COMMIT LATE PREFETCHES: 0 MISSED OPPORTUNITY: 0 LATE IN PQ: 0 UNCOVERED: 0
PSCL5 COMMIT LATE MSHR PREFETCHES: 0
PSCL5 MPKI TOTAL: 0 MSHR LATE: 0 PQ LATE: 0 COMMIT LATE: 0 MISSED OPPORTUNITY: 0 UNCOVERED: 0
PSCL5 PREFETCHES SAME FILL-ORIGIN LEVEL: 0 DIFFERENT FILL-ORIGIN LEVEL: 0

PSCL4 SPEC fills:          0  NON-SPEC fills:          0
PSCL4 Test counter :          0
PSCL4 Leapfrog:          0
PSCL4 MSHR merge:          0
PSCL4 TOTAL     ACCESS:          0  HIT:          0  MISS:          0  HIT %:       -nan  MISS %:       -nan   MPKI: 0
PSCL4 PREFETCH  REQUESTED:          0  ISSUED:          0  USEFUL:          0  USELESS:          0
PSCL4 USEFUL LOAD PREFETCHES:          0 PREFETCH ISSUED TO LOWER LEVEL:          0  ACCURACY: -nan
PSCL4 TIMELY PREFETCHES:          0 LATE PREFETCHES: 0 DROPPED PREFETCHES: 0
PSCL4 COMMIT LATE PREFETCHES: 0 MISSED OPPORTUNITY: 0 LATE IN PQ: 0 UNCOVERED: 0
PSCL4 COMMIT LATE MSHR PREFETCHES: 0
PSCL4 MPKI TOTAL: 0 MSHR LATE: 0 PQ LATE: 0 COMMIT LATE: 0 MISSED OPPORTUNITY: 0 UNCOVERED: 0
PSCL4 PREFETCHES SAME FILL-ORIGIN LEVEL: 0 DIFFERENT FILL-ORIGIN LEVEL: 0

PSCL3 SPEC fills:          0  NON-SPEC fills:          0
PSCL3 Test counter :          0
PSCL3 Leapfrog:          0
PSCL3 MSHR merge:          0
PSCL3 TOTAL     ACCESS:          0  HIT:          0  MISS:          0  HIT %:       -nan  MISS %:       -nan   MPKI: 0
PSCL3 PREFETCH  REQUESTED:          0  ISSUED:          0  USEFUL:          0  USELESS:          0
PSCL3 USEFUL LOAD PREFETCHES:          0 PREFETCH ISSUED TO LOWER LEVEL:          0  ACCURACY: -nan
PSCL3 TIMELY PREFETCHES:          0 LATE PREFETCHES: 0 DROPPED PREFETCHES: 0
PSCL3 COMMIT LATE PREFETCHES: 0 MISSED OPPORTUNITY: 0 LATE IN PQ: 0 UNCOVERED: 0
PSCL3 COMMIT LATE MSHR PREFETCHES: 0
PSCL3 MPKI TOTAL: 0 MSHR LATE: 0 PQ LATE: 0 COMMIT LATE: 0 MISSED OPPORTUNITY: 0 UNCOVERED: 0
PSCL3 PREFETCHES SAME FILL-ORIGIN LEVEL: 0 DIFFERENT FILL-ORIGIN LEVEL: 0

PSCL2 SPEC fills:          0  NON-SPEC fills:          0
PSCL2 Test counter :          0
PSCL2 Leapfrog:          0
PSCL2 MSHR merge:          0
PSCL2 TOTAL     ACCESS:          0  HIT:          0  MISS:          0  HIT %:       -nan  MISS %:       -nan   MPKI: 0
PSCL2 PREFETCH  REQUESTED:          0  ISSUED:          0  USEFUL:          0  USELESS:          0
PSCL2 USEFUL LOAD PREFETCHES:          0 PREFETCH ISSUED TO LOWER LEVEL:          0  ACCURACY: -nan
PSCL2 TIMELY PREFETCHES:          0 LATE PREFETCHES: 0 DROPPED PREFETCHES: 0
PSCL2 COMMIT LATE PREFETCHES: 0 MISSED OPPORTUNITY: 0 LATE IN PQ: 0 UNCOVERED: 0
PSCL2 COMMIT LATE MSHR PREFETCHES: 0
PSCL2 MPKI TOTAL: 0 MSHR LATE: 0 PQ LATE: 0 COMMIT LATE: 0 MISSED OPPORTUNITY: 0 UNCOVERED: 0
PSCL2 PREFETCHES SAME FILL-ORIGIN LEVEL: 0 DIFFERENT FILL-ORIGIN LEVEL: 0

LLC SPEC fills:          0  NON-SPEC fills:     225532
LLC Test counter :          0
LLC Leapfrog:          0
LLC MSHR merge:          0
LLC TOTAL     ACCESS:    7265780  HIT:    3031899  MISS:    4233881  HIT %:    41.7285  MISS %:    58.2715   MPKI: 21.1694
LLC LOAD      TOTAL       ACCESS:    1478132  HIT:     496246  MISS:     981886  HIT %:    33.5725  MISS %:    66.4275   MPKI: 4.90943
LLC LOAD      NON_SPEC    ACCESS:     366284  HIT:     136624  MISS:     229660  HIT %:       37.3  MISS %:       62.7   MPKI: 1.1483
LLC LOAD      SPEC        ACCESS:    1111848  HIT:     359622  MISS:     752226  HIT %:    32.3445  MISS %:    67.6555   MPKI: 3.76113
LLC RFO       NON_SPEC    ACCESS:     288996  HIT:     144438  MISS:     144558  HIT %:    49.9792  MISS %:    50.0208   MPKI: 0.72279
LLC PREFETCH  NON_SPEC    ACCESS:    2907467  HIT:     816274  MISS:    2091193  HIT %:    28.0751  MISS %:    71.9249   MPKI: 10.456
LLC WRITEBACK NON_SPEC    ACCESS:     525185  HIT:     523257  MISS:       1928  HIT %:    99.6329  MISS %:   0.367109   MPKI: 0.00964
LLC CLEAN_EVICTION NON_SPEC    ACCESS:    1515879  HIT:     727809  MISS:     788070  HIT %:    48.0123  MISS %:    51.9877   MPKI: 3.94035
LLC COMMIT LOAD NON_SPEC    ACCESS:       3607  HIT:       2222  MISS:       1385  HIT %:    61.6024  MISS %:    38.3976   MPKI: 0.006925
LLC LOAD TRANSLATION NON_SPEC    ACCESS:     546514  HIT:     321653  MISS:     224861  HIT %:    58.8554  MISS %:    41.1446   MPKI: 1.12431
LLC PREFETCH  REQUESTED:          0  ISSUED:          0  USEFUL:     163487  USELESS:    1926497
LLC USEFUL LOAD PREFETCHES:     163487 PREFETCH ISSUED TO LOWER LEVEL:    2091194  ACCURACY: 7.81788
LLC TIMELY PREFETCHES:     163487 LATE PREFETCHES: 0 DROPPED PREFETCHES: 0
LLC COMMIT LATE PREFETCHES: 0 MISSED OPPORTUNITY: 0 LATE IN PQ: 0 UNCOVERED: 0
LLC COMMIT LATE MSHR PREFETCHES: 0
LLC MPKI TOTAL: 4.90943 MSHR LATE: 0 PQ LATE: 0 COMMIT LATE: 0 MISSED OPPORTUNITY: 0 UNCOVERED: 0
LLC PREFETCHES SAME FILL-ORIGIN LEVEL: 0 DIFFERENT FILL-ORIGIN LEVEL: 0
LLC AVERAGE MISS LATENCY: 137.577 cycles
LLC AVERAGE MISS LATENCY LOAD: 151.307 cycles
LLC AVERAGE MISS LATENCY PREFETCH: 176.548 cycles
LLC AVERAGE MSHR OCCUPANCY: 0.501534
LLC MSHR FULL: 0
LLC RQ	ACCESS:    2317254	FORWARD:          0	MERGED:          0	TO_CACHE:    2317249
LLC WQ	ACCESS:    2041064	FORWARD:         10	MERGED:          0	TO_CACHE:    2041064
LLC PQ	ACCESS:    2907474	FORWARD:          0	MERGED:          0	TO_CACHE:    2907469

LLC Dense regions hint to LLC: 0

RAW hits: 3001828
Loads Generated: 67448748
Loads sent to L1D: 64446920
Stores Generated: 37118330
Stores sent to L1D: 37118330
Major fault: 0 Minor fault: 47401
Allocated PAGES: 47401
Total Load insts: 79770783
Total Non-spec loads: 28564441
Percentage of speculative loads: 64.1918

LeapFrogging counter: 1237
Commit hits: 22853935 miss: 16502890
Commit hit %: 58.0685 miss %: 41.9315
Commits not translated: 0
Loads retired: 3350317
Stores retired: 37118330
Cache fills: 3350317
L1D response latency: 66.395 cycles
Load retirement latency: 161.877 cycles
OOO test counter: 0
Discarded buffer inserts: 22853935 hits: 18136 hit %: 0.0793561
Filter prediction accuracy: 99.9486
[Bingo] PHT Access: 1519140
[Bingo] PHT Hit PC+Addr: 203338
[Bingo] PHT Hit PC+Offs: 1204785
[Bingo] PHT Miss: 111017
[Bingo] Prefetch PC+Addr: 0
[Bingo] Prefetch PC+Offs: 0
[Bingo] Useful PC+Addr: 0
[Bingo] Useful PC+Offs: 0
[Bingo] Useless PC+Addr: 0
[Bingo] Useless PC+Offs: 0
[Bingo] L1 Prefetch per Region: 0
[Bingo] L2 Prefetch per Region: 3.83102
[Bingo] L3 Prefetch per Region: 0
[Bingo] No Prefetch per Region: 28.169
[Bingo] Number of Voters Mean: 11.7045
[Bingo] Number of Voters SD: 7.50748
PHT read accesses: 22319882
PHT write accesses: 513549
AT read accesses: 1902912
AT write accesses: 2341190
FT read accesses: 1586479
FT write accesses: 1519140
PS read accesses: 2831131
PS write accesses: 1408123
PHT tag read accesses: 37428362
PHT tag write accesses: 716887
AT tag read accesses: 161388262
AT tag write accesses: 2416459
FT tag read accesses: 168926254
FT tag write accesses: 2588621
PS tag read accesses: 106953318
PS tag write accesses: 4237994

DRAM Statistics
 CHANNEL 0
 RQ ROW_BUFFER_HIT:     594722  ROW_BUFFER_MISS:    2849121
 DBUS_CONGESTED:        438
 WQ ROW_BUFFER_HIT:     203785  ROW_BUFFER_MISS:    1274462  FULL:          0

 AVG_CONGESTED_CYCLE: 5
 All warmup complete: 2
Channel 0 Bank busy for read cycles: 0
Channel 0 Bank busy for write cycles: 0
Channel 0
Rank 0
0banks busy for read cycles: 456070531
0banks busy for write cycles: 455931
1banks busy for read cycles: 97323325
1banks busy for write cycles: 62419132
2banks busy for read cycles: 44908795
2banks busy for write cycles: 28183137
3banks busy for read cycles: 29279577
3banks busy for write cycles: 15293207
4banks busy for read cycles: 9619175
4banks busy for write cycles: 9364169
5banks busy for read cycles: 6123384
5banks busy for write cycles: 6442821
6banks busy for read cycles: 6220276
6banks busy for write cycles: 4351884
7banks busy for read cycles: 3813842
7banks busy for write cycles: 2380000
8banks busy for read cycles: 6127632
8banks busy for write cycles: 805501

CPU 0 Branch Prediction Accuracy: 98.2082% MPKI: 3.72743 Average ROB Occupancy at Mispredict: 33.338
Branch types
NOT_BRANCH: 158393545 79.1968%
BRANCH_DIRECT_JUMP: 2276304 1.13815%
BRANCH_INDIRECT: 671328 0.335664%
BRANCH_CONDITIONAL: 26768026 13.384%
BRANCH_DIRECT_CALL: 3559126 1.77956%
BRANCH_INDIRECT_CALL: 2386088 1.19304%
BRANCH_RETURN: 5945216 2.97261%
BRANCH_OTHER: 0 0%

DRAM PAGES: 1048576
Allocated PAGES: 47401
