
*** ChampSim Multicore Out-of-Order Simulator ***

Warmup Instructions: 50000000
Simulation Instructions: 200000000
Number of CPUs: 1
LLC sets: 2048
LLC ways: 16
L0D sets: 16
L0D ways: 2
ROB size: 352
LQ size: 128
SQ size: 72
Secure Berti: OFF
Berti: OFF
Berti Fill: OFF
On commit prefetching: OFF
Hit-based filter: ON
Time-guarding: ON
Free-slotting: ON
Leap-frogging: ON
Train prefetcher on L0D bypass: OFF
No translation penalty for prefetchers: OFF
Prefetch to L0D only: OFF
Prefetch to L1D only: OFF
Clean evictions: ON
Commit loads: ON
Commit write: ON
Fill commit loads to L2C, LLC: ON
DRAM IO FREQUENCY: 6400
ROB SIZE: 352
Off-chip DRAM Size: 4096 MB Channels: 1 Width: 64-bit Data Rate: 6400 MT/s
CPU 0 runs /home/sumon/secure_berti/GhostMinion/../../traces/spec/641.leela_s-1083B.champsimtrace.xz
.xz
BTB has LRU replacement policy
ITLB has LRU replacement policy
DTLB has LRU replacement policy
STLB has LRU replacement policy
L1I has LRU replacement policy
L0D has LRU replacement policy
L1D has LRU replacement policy
Bingo PHT WAYS: 16 and PHT_SIZE: 16384
L2C has LRU replacement policy
LLC has LRU replacement policy
Heartbeat CPU 0 instructions: 10000000 cycles: 5025625 heartbeat IPC: 1.9898 cumulative IPC: 1.9898 (Simulation time: 0 hr 0 min 31 sec) 
Heartbeat CPU 0 instructions: 20000000 cycles: 10102398 heartbeat IPC: 1.96976 cumulative IPC: 1.97973 (Simulation time: 0 hr 1 min 3 sec) 
Heartbeat CPU 0 instructions: 30000003 cycles: 15232316 heartbeat IPC: 1.94935 cumulative IPC: 1.9695 (Simulation time: 0 hr 1 min 35 sec) 
Heartbeat CPU 0 instructions: 40000003 cycles: 20299006 heartbeat IPC: 1.97368 cumulative IPC: 1.97054 (Simulation time: 0 hr 2 min 8 sec) 
Heartbeat CPU 0 instructions: 50000003 cycles: 25362890 heartbeat IPC: 1.97477 cumulative IPC: 1.97138 (Simulation time: 0 hr 2 min 40 sec) 

Warmup complete CPU 0 instructions: 50000003 cycles: 25362890 (Simulation time: 0 hr 2 min 40 sec) 

Heartbeat CPU 0 instructions: 60000002 cycles: 50496962 heartbeat IPC: 0.397866 cumulative IPC: 0.397866 (Simulation time: 0 hr 3 min 18 sec) 
Heartbeat CPU 0 instructions: 70000000 cycles: 75867440 heartbeat IPC: 0.394159 cumulative IPC: 0.396004 (Simulation time: 0 hr 3 min 57 sec) 
Heartbeat CPU 0 instructions: 80000000 cycles: 100915657 heartbeat IPC: 0.39923 cumulative IPC: 0.397073 (Simulation time: 0 hr 4 min 35 sec) 
Heartbeat CPU 0 instructions: 90000003 cycles: 126613045 heartbeat IPC: 0.389145 cumulative IPC: 0.395061 (Simulation time: 0 hr 5 min 16 sec) 
Heartbeat CPU 0 instructions: 100000002 cycles: 151998676 heartbeat IPC: 0.393924 cumulative IPC: 0.394833 (Simulation time: 0 hr 5 min 56 sec) 
Heartbeat CPU 0 instructions: 110000000 cycles: 176937064 heartbeat IPC: 0.400988 cumulative IPC: 0.395846 (Simulation time: 0 hr 6 min 35 sec) 
Heartbeat CPU 0 instructions: 120000000 cycles: 201784436 heartbeat IPC: 0.402457 cumulative IPC: 0.396777 (Simulation time: 0 hr 7 min 14 sec) 
Heartbeat CPU 0 instructions: 130000001 cycles: 226996869 heartbeat IPC: 0.39663 cumulative IPC: 0.396759 (Simulation time: 0 hr 7 min 54 sec) 
Heartbeat CPU 0 instructions: 140000000 cycles: 252265882 heartbeat IPC: 0.395742 cumulative IPC: 0.396645 (Simulation time: 0 hr 8 min 34 sec) 
Heartbeat CPU 0 instructions: 150000000 cycles: 277318872 heartbeat IPC: 0.399154 cumulative IPC: 0.396895 (Simulation time: 0 hr 9 min 15 sec) 
Heartbeat CPU 0 instructions: 160000000 cycles: 302127696 heartbeat IPC: 0.403082 cumulative IPC: 0.397449 (Simulation time: 0 hr 9 min 55 sec) 
Heartbeat CPU 0 instructions: 170000001 cycles: 327064967 heartbeat IPC: 0.401006 cumulative IPC: 0.397743 (Simulation time: 0 hr 10 min 35 sec) 
Heartbeat CPU 0 instructions: 180000000 cycles: 352175157 heartbeat IPC: 0.398245 cumulative IPC: 0.397782 (Simulation time: 0 hr 11 min 16 sec) 
Heartbeat CPU 0 instructions: 190000001 cycles: 377178513 heartbeat IPC: 0.399946 cumulative IPC: 0.397936 (Simulation time: 0 hr 11 min 56 sec) 
Heartbeat CPU 0 instructions: 200000002 cycles: 402304921 heartbeat IPC: 0.397988 cumulative IPC: 0.397939 (Simulation time: 0 hr 12 min 35 sec) 
Heartbeat CPU 0 instructions: 210000003 cycles: 427853699 heartbeat IPC: 0.391408 cumulative IPC: 0.397525 (Simulation time: 0 hr 13 min 14 sec) 
Heartbeat CPU 0 instructions: 220000000 cycles: 453290709 heartbeat IPC: 0.393128 cumulative IPC: 0.397263 (Simulation time: 0 hr 13 min 52 sec) 
Heartbeat CPU 0 instructions: 230000000 cycles: 478792316 heartbeat IPC: 0.392132 cumulative IPC: 0.396975 (Simulation time: 0 hr 14 min 27 sec) 
Heartbeat CPU 0 instructions: 240000000 cycles: 503925803 heartbeat IPC: 0.397876 cumulative IPC: 0.397022 (Simulation time: 0 hr 15 min 1 sec) 
Heartbeat CPU 0 instructions: 250000000 cycles: 562188517 heartbeat IPC: 0.171636 cumulative IPC: 0.37256 (Simulation time: 0 hr 16 min 21 sec) 
Finished CPU 0 instructions: 200000000 cycles: 536825684 cumulative IPC: 0.37256 (Simulation time: 0 hr 16 min 21 sec) 
 Instruction ID: 250000385

ChampSim completed all CPUs

Region of Interest Statistics

CPU 0 cumulative IPC: 0.37256 instructions: 200000000 cycles: 536825684
ITLB SPEC fills:          0  NON-SPEC fills:          0
ITLB Test counter :          0
ITLB Leapfrog:          0
ITLB MSHR merge:          0
ITLB TOTAL     ACCESS:   35710278  HIT:   35710116  MISS:        162  HIT %:    99.9995  MISS %: 0.000453651   MPKI: 0.00081
ITLB LOAD TRANSLATION NON_SPEC    ACCESS:   35710278  HIT:   35710116  MISS:        162  HIT %:    99.9995  MISS %: 0.000453651   MPKI: 0.00081
ITLB PREFETCH  REQUESTED:          0  ISSUED:          0  USEFUL:          0  USELESS:          0
ITLB USEFUL LOAD PREFETCHES:          0 PREFETCH ISSUED TO LOWER LEVEL:          0  ACCURACY: -nan
ITLB TIMELY PREFETCHES:          0 LATE PREFETCHES: 0 DROPPED PREFETCHES: 0
ITLB COMMIT LATE PREFETCHES: 0 MISSED OPPORTUNITY: 0 LATE IN PQ: 0 UNCOVERED: 0
ITLB COMMIT LATE MSHR PREFETCHES: 0
ITLB MPKI TOTAL: 0 MSHR LATE: 0 PQ LATE: 0 COMMIT LATE: 0 MISSED OPPORTUNITY: 0 UNCOVERED: 0
ITLB PREFETCHES SAME FILL-ORIGIN LEVEL: 0 DIFFERENT FILL-ORIGIN LEVEL: 0
ITLB AVERAGE MISS LATENCY: 181.673 cycles
ITLB AVERAGE MISS LATENCY LOAD: -nan cycles
ITLB AVERAGE MISS LATENCY PREFETCH: -nan cycles
ITLB AVERAGE MSHR OCCUPANCY: 1.73619e-06
ITLB MSHR FULL: 0
ITLB RQ	ACCESS:   40334009	FORWARD:          0	MERGED:    4623696	TO_CACHE:   35710313

DTLB SPEC fills:          0  NON-SPEC fills:          0
DTLB Test counter :          0
DTLB Leapfrog:          0
DTLB MSHR merge:          0
DTLB TOTAL     ACCESS:   64746685  HIT:   64642828  MISS:     103857  HIT %:    99.8396  MISS %:   0.160405   MPKI: 0.519285
DTLB LOAD TRANSLATION NON_SPEC    ACCESS:   64746685  HIT:   64642828  MISS:     103857  HIT %:    99.8396  MISS %:   0.160405   MPKI: 0.519285
DTLB PREFETCH  REQUESTED:          0  ISSUED:          0  USEFUL:          0  USELESS:          0
DTLB USEFUL LOAD PREFETCHES:          0 PREFETCH ISSUED TO LOWER LEVEL:          0  ACCURACY: -nan
DTLB TIMELY PREFETCHES:          0 LATE PREFETCHES: 0 DROPPED PREFETCHES: 0
DTLB COMMIT LATE PREFETCHES: 0 MISSED OPPORTUNITY: 0 LATE IN PQ: 0 UNCOVERED: 0
DTLB COMMIT LATE MSHR PREFETCHES: 0
DTLB MPKI TOTAL: 0 MSHR LATE: 0 PQ LATE: 0 COMMIT LATE: 0 MISSED OPPORTUNITY: 0 UNCOVERED: 0
DTLB PREFETCHES SAME FILL-ORIGIN LEVEL: 0 DIFFERENT FILL-ORIGIN LEVEL: 0
DTLB AVERAGE MISS LATENCY: 17.807 cycles
DTLB AVERAGE MISS LATENCY LOAD: -nan cycles
DTLB AVERAGE MISS LATENCY PREFETCH: -nan cycles
DTLB AVERAGE MSHR OCCUPANCY: 0.00203663
DTLB MSHR FULL: 0
DTLB RQ	ACCESS:   72963719	FORWARD:          0	MERGED:    8193403	TO_CACHE:   64770316

STLB SPEC fills:          0  NON-SPEC fills:          0
STLB Test counter :          0
STLB Leapfrog:          0
STLB MSHR merge:          0
STLB TOTAL     ACCESS:     104019  HIT:      98131  MISS:       5888  HIT %:    94.3395  MISS %:     5.6605   MPKI: 0.02944
STLB LOAD TRANSLATION NON_SPEC    ACCESS:     104019  HIT:      98131  MISS:       5888  HIT %:    94.3395  MISS %:     5.6605   MPKI: 0.02944
STLB PREFETCH  REQUESTED:          0  ISSUED:          0  USEFUL:          0  USELESS:          0
STLB USEFUL LOAD PREFETCHES:          0 PREFETCH ISSUED TO LOWER LEVEL:          0  ACCURACY: -nan
STLB TIMELY PREFETCHES:          0 LATE PREFETCHES: 0 DROPPED PREFETCHES: 0
STLB COMMIT LATE PREFETCHES: 0 MISSED OPPORTUNITY: 0 LATE IN PQ: 0 UNCOVERED: 0
STLB COMMIT LATE MSHR PREFETCHES: 0
STLB MPKI TOTAL: 0 MSHR LATE: 0 PQ LATE: 0 COMMIT LATE: 0 MISSED OPPORTUNITY: 0 UNCOVERED: 0
STLB PREFETCHES SAME FILL-ORIGIN LEVEL: 0 DIFFERENT FILL-ORIGIN LEVEL: 0
STLB AVERAGE MISS LATENCY: 159.995 cycles
STLB AVERAGE MISS LATENCY LOAD: -nan cycles
STLB AVERAGE MISS LATENCY PREFETCH: -nan cycles
STLB AVERAGE MSHR OCCUPANCY: 0.00179775
STLB MSHR FULL: 0
STLB RQ	ACCESS:     104019	FORWARD:          0	MERGED:          0	TO_CACHE:     104019

STLB Hit, L1D data hit: 0
STLB Hit, L2C data hit: 0
STLB Hit, LLC data hit: 0
STLB Hit, LLC data miss: 0
STLB STLB hints to L2: 0
L0D SPEC fills:   23310505  NON-SPEC fills:          0
L0D TimeGuard Request with older TS:     205283 Restricted eviction:     141725 read:     230633
L0D Test counter :          0
L0D Leapfrog:          0
L0D MSHR merge:     650430
L0D TOTAL     ACCESS:   46633629  HIT:    3312472  MISS:   43321157  HIT %:    7.10318  MISS %:    92.8968   MPKI: 216.606
L0D LOAD      TOTAL       ACCESS:   46633629  HIT:    3312472  MISS:   43321157  HIT %:    7.10318  MISS %:    92.8968   MPKI: 216.606
L0D LOAD      NON_SPEC    ACCESS:   20067623  HIT:     198696  MISS:   19868927  HIT %:   0.990132  MISS %:    99.0099   MPKI: 99.3446
L0D LOAD      SPEC        ACCESS:   26566006  HIT:    3113776  MISS:   23452230  HIT %:    11.7209  MISS %:    88.2791   MPKI: 117.261
L0D PREFETCH  REQUESTED:          0  ISSUED:          0  USEFUL:          0  USELESS:          0
L0D USEFUL LOAD PREFETCHES:          0 PREFETCH ISSUED TO LOWER LEVEL:          0  ACCURACY: -nan
L0D TIMELY PREFETCHES:          0 LATE PREFETCHES: 0 DROPPED PREFETCHES: 0
L0D COMMIT LATE PREFETCHES: 0 MISSED OPPORTUNITY: 0 LATE IN PQ: 0 UNCOVERED: 0
L0D COMMIT LATE MSHR PREFETCHES: 0
L0D MPKI TOTAL: 219.858 MSHR LATE: 0 PQ LATE: 0 COMMIT LATE: 0 MISSED OPPORTUNITY: 0 UNCOVERED: 0
L0D PREFETCHES SAME FILL-ORIGIN LEVEL: 0 DIFFERENT FILL-ORIGIN LEVEL: 0
L0D AVERAGE MISS LATENCY: 5.62554 cycles
L0D AVERAGE MISS LATENCY LOAD: 5.62554 cycles
L0D AVERAGE MISS LATENCY PREFETCH: -nan cycles
L0D AVERAGE MSHR OCCUPANCY: 0.649744
L0D MSHR FULL: 0.0128586
L0D RQ	ACCESS:   53938743	FORWARD:          0	MERGED:    6654687	TO_CACHE:   47284056
L0D WQ	ACCESS:   25679663	FORWARD:          0	MERGED:          0	TO_CACHE:   25679663

L1D SPEC fills:          0  NON-SPEC fills:     561637
L1D Test counter :          0
L1D Leapfrog:          0
L1D MSHR merge:       1598
L1D TOTAL     ACCESS:   66863959  HIT:   65303417  MISS:    1560542  HIT %:    97.6661  MISS %:    2.33391   MPKI: 7.80271
L1D LOAD      TOTAL       ACCESS:   43319558  HIT:   42479843  MISS:     839715  HIT %:    98.0616  MISS %:    1.93842   MPKI: 4.19857
L1D LOAD      NON_SPEC    ACCESS:   19868014  HIT:   19306377  MISS:     561637  HIT %:    97.1732  MISS %:    2.82684   MPKI: 2.80818
L1D LOAD      SPEC        ACCESS:   23451544  HIT:   23173466  MISS:     278078  HIT %:    98.8142  MISS %:    1.18576   MPKI: 1.39039
L1D RFO       NON_SPEC    ACCESS:   22989554  HIT:   22568444  MISS:     421110  HIT %:    98.1683  MISS %:    1.83174   MPKI: 2.10555
L1D COMMIT LOAD NON_SPEC    ACCESS:     275100  HIT:     250194  MISS:      24906  HIT %:    90.9466  MISS %:    9.05344   MPKI: 0.12453
L1D COMMIT WRITE NON_SPEC    ACCESS:     279747  HIT:       4936  MISS:     274811  HIT %:    1.76445  MISS %:    98.2355   MPKI: 1.37406
L1D PREFETCH  REQUESTED:          0  ISSUED:          0  USEFUL:          0  USELESS:          0
L1D USEFUL LOAD PREFETCHES:          0 PREFETCH ISSUED TO LOWER LEVEL:          0  ACCURACY: -nan
L1D TIMELY PREFETCHES:          0 LATE PREFETCHES: 0 DROPPED PREFETCHES: 0
L1D COMMIT LATE PREFETCHES: 0 MISSED OPPORTUNITY: 0 LATE IN PQ: 0 UNCOVERED: 0
L1D COMMIT LATE MSHR PREFETCHES: 0
L1D MPKI TOTAL: 4.20657 MSHR LATE: 0 PQ LATE: 0 COMMIT LATE: 0 MISSED OPPORTUNITY: 0 UNCOVERED: 0
L1D PREFETCHES SAME FILL-ORIGIN LEVEL: 0 DIFFERENT FILL-ORIGIN LEVEL: 0
L1D AVERAGE MISS LATENCY: 75.2281 cycles
L1D AVERAGE MISS LATENCY LOAD: 26.0018 cycles
L1D AVERAGE MISS LATENCY PREFETCH: -nan cycles
L1D AVERAGE MSHR OCCUPANCY: 0.306313
L1D MSHR FULL: 0.00988737
L1D RQ	ACCESS:   43919358	FORWARD:          0	MERGED:     318322	TO_CACHE:   43596562
L1D WQ	ACCESS:   25958634	FORWARD:       4474	MERGED:     337656	TO_CACHE:   25620978

L1D UNIQUE REGIONS ACCESSED: 0
L1D REGIONS CONFLICTS: 0
L1D Cross Page Prefetch Requests: 0
L1D Same Page Prefetch Requests: 0
L1D ROI Sum of L1D PQ occupancy: 0
L1D PREFETCHES PUSHED FROM L2C: 0
L1I SPEC fills:          0  NON-SPEC fills:          0
L1I Test counter :          0
L1I Leapfrog:          0
L1I MSHR merge:       5474
L1I TOTAL     ACCESS:   40328535  HIT:   40313108  MISS:      15427  HIT %:    99.9617  MISS %:  0.0382533   MPKI: 0.077135
L1I LOAD      TOTAL       ACCESS:   40328535  HIT:   40313108  MISS:      15427  HIT %:    99.9617  MISS %:  0.0382533   MPKI: 0.077135
L1I LOAD      NON_SPEC    ACCESS:   40328535  HIT:   40313108  MISS:      15427  HIT %:    99.9617  MISS %:  0.0382533   MPKI: 0.077135
L1I PREFETCH  REQUESTED:          0  ISSUED:          0  USEFUL:          0  USELESS:          0
L1I USEFUL LOAD PREFETCHES:          0 PREFETCH ISSUED TO LOWER LEVEL:          0  ACCURACY: -nan
L1I TIMELY PREFETCHES:          0 LATE PREFETCHES: 0 DROPPED PREFETCHES: 0
L1I COMMIT LATE PREFETCHES: 0 MISSED OPPORTUNITY: 0 LATE IN PQ: 0 UNCOVERED: 0
L1I COMMIT LATE MSHR PREFETCHES: 0
L1I MPKI TOTAL: 0.104505 MSHR LATE: 0 PQ LATE: 0 COMMIT LATE: 0 MISSED OPPORTUNITY: 0 UNCOVERED: 0
L1I PREFETCHES SAME FILL-ORIGIN LEVEL: 0 DIFFERENT FILL-ORIGIN LEVEL: 0
L1I AVERAGE MISS LATENCY: 46.4162 cycles
L1I AVERAGE MISS LATENCY LOAD: 46.4162 cycles
L1I AVERAGE MISS LATENCY PREFETCH: -nan cycles
L1I AVERAGE MSHR OCCUPANCY: 0.000578271
L1I MSHR FULL: 0
L1I RQ	ACCESS:   57038883	FORWARD:          0	MERGED:   16704874	TO_CACHE:   40334009

BTB SPEC fills:          0  NON-SPEC fills:          0
BTB Test counter :          0
BTB Leapfrog:          0
BTB MSHR merge:          0
BTB TOTAL     ACCESS:   31329121  HIT:   29031204  MISS:    2297917  HIT %:    92.6652  MISS %:    7.33476   MPKI: 11.4896
BTB BRANCH_DIRECT_JUMP	ACCESS:    1094608  HIT:    1094408  MISS:        200
BTB BRANCH_INDIRECT	ACCESS:       6209  HIT:       4182  MISS:       2027
BTB BRANCH_CONDITIONAL	ACCESS:   18688882  HIT:   18687006  MISS:       1876
BTB BRANCH_DIRECT_CALL	ACCESS:    5769438  HIT:    5768610  MISS:        828
BTB BRANCH_INDIRECT_CALL	ACCESS:        272  HIT:        218  MISS:         54
BTB BRANCH_RETURN	ACCESS:    5769712  HIT:    3476780  MISS:    2292932
BTB BRANCH_OTHER ACCESS:          0  HIT:          0  MISS:          0

L2C SPEC fills:          0  NON-SPEC fills:      16292
L2C Test counter :          0
L2C Leapfrog:          0
L2C MSHR merge:      18415
L2C TOTAL     ACCESS:    2403098  HIT:    1589138  MISS:     813960  HIT %:    66.1287  MISS %:    33.8713   MPKI: 4.0698
L2C LOAD      TOTAL       ACCESS:     855139  HIT:     796083  MISS:      59056  HIT %:     93.094  MISS %:    6.90601   MPKI: 0.29528
L2C LOAD      NON_SPEC    ACCESS:     577064  HIT:     558181  MISS:      18883  HIT %:    96.7277  MISS %:    3.27225   MPKI: 0.094415
L2C LOAD      SPEC        ACCESS:     278075  HIT:     237902  MISS:      40173  HIT %:    85.5532  MISS %:    14.4468   MPKI: 0.200865
L2C RFO       NON_SPEC    ACCESS:     421092  HIT:      55270  MISS:     365822  HIT %:    13.1254  MISS %:    86.8746   MPKI: 1.82911
L2C PREFETCH  NON_SPEC    ACCESS:     553862  HIT:     206587  MISS:     347275  HIT %:    37.2994  MISS %:    62.7006   MPKI: 1.73638
L2C WRITEBACK NON_SPEC    ACCESS:     435924  HIT:     435805  MISS:        119  HIT %:    99.9727  MISS %:  0.0272983   MPKI: 0.000595
L2C CLEAN_EVICTION NON_SPEC    ACCESS:      82737  HIT:      51113  MISS:      31624  HIT %:    61.7777  MISS %:    38.2223   MPKI: 0.15812
L2C COMMIT LOAD NON_SPEC    ACCESS:      24906  HIT:      16525  MISS:       8381  HIT %:    66.3495  MISS %:    33.6505   MPKI: 0.041905
L2C LOAD TRANSLATION NON_SPEC    ACCESS:      29438  HIT:      27755  MISS:       1683  HIT %:    94.2829  MISS %:     5.7171   MPKI: 0.008415
L2C PREFETCH  REQUESTED:     578325  ISSUED:     578325  USEFUL:     327266  USELESS:      22412
L2C USEFUL LOAD PREFETCHES:     327266 PREFETCH ISSUED TO LOWER LEVEL:     365722  ACCURACY: 89.4849
L2C TIMELY PREFETCHES:     327266 LATE PREFETCHES: 18447 DROPPED PREFETCHES: 0
L2C COMMIT LATE PREFETCHES: 0 MISSED OPPORTUNITY: 0 LATE IN PQ: 0 UNCOVERED: 0
L2C COMMIT LATE MSHR PREFETCHES: 0
L2C MPKI TOTAL: 0.29528 MSHR LATE: 0.092235 PQ LATE: 0 COMMIT LATE: 0 MISSED OPPORTUNITY: 0 UNCOVERED: 0
L2C PREFETCHES SAME FILL-ORIGIN LEVEL: 365722 DIFFERENT FILL-ORIGIN LEVEL: 0
L2C AVERAGE MISS LATENCY: 252.773 cycles
L2C AVERAGE MISS LATENCY LOAD: 165.387 cycles
L2C AVERAGE MISS LATENCY PREFETCH: 307.373 cycles
L2C AVERAGE MSHR OCCUPANCY: 2.96005
L2C MSHR FULL: 0.00592157
L2C RQ	ACCESS:    1330597	FORWARD:          0	MERGED:          0	TO_CACHE:    1330576
L2C WQ	ACCESS:     518663	FORWARD:         23	MERGED:          0	TO_CACHE:     518663
L2C PQ	ACCESS:     578325	FORWARD:          0	MERGED:          0	TO_CACHE:     578323

L2C Instructions Evicting Data 2569
L2C Translations Evicting Data 1663
L2C Data Evicting Data 732546
L2C Instructions Evicting Instructions 17
L2C Translations Evicting Instructions 6
L2C Data Evicting Instructions 2737
L2C Instructions Evicting Translations 5
L2C Translations Evicting Translations 1
L2C Data Evicting Translations 1704
L2C Dense regions hint from L2: 0
PSCL5 SPEC fills:          0  NON-SPEC fills:          0
PSCL5 Test counter :          0
PSCL5 Leapfrog:          0
PSCL5 MSHR merge:          0
PSCL5 TOTAL     ACCESS:          0  HIT:          0  MISS:          0  HIT %:       -nan  MISS %:       -nan   MPKI: 0
PSCL5 PREFETCH  REQUESTED:          0  ISSUED:          0  USEFUL:          0  USELESS:          0
PSCL5 USEFUL LOAD PREFETCHES:          0 PREFETCH ISSUED TO LOWER LEVEL:          0  ACCURACY: -nan
PSCL5 TIMELY PREFETCHES:          0 LATE PREFETCHES: 0 DROPPED PREFETCHES: 0
PSCL5 COMMIT LATE PREFETCHES: 0 MISSED OPPORTUNITY: 0 LATE IN PQ: 0 UNCOVERED: 0
PSCL5 COMMIT LATE MSHR PREFETCHES: 0
PSCL5 MPKI TOTAL: 0 MSHR LATE: 0 PQ LATE: 0 COMMIT LATE: 0 MISSED OPPORTUNITY: 0 UNCOVERED: 0
PSCL5 PREFETCHES SAME FILL-ORIGIN LEVEL: 0 DIFFERENT FILL-ORIGIN LEVEL: 0

PSCL4 SPEC fills:          0  NON-SPEC fills:          0
PSCL4 Test counter :          0
PSCL4 Leapfrog:          0
PSCL4 MSHR merge:          0
PSCL4 TOTAL     ACCESS:          0  HIT:          0  MISS:          0  HIT %:       -nan  MISS %:       -nan   MPKI: 0
PSCL4 PREFETCH  REQUESTED:          0  ISSUED:          0  USEFUL:          0  USELESS:          0
PSCL4 USEFUL LOAD PREFETCHES:          0 PREFETCH ISSUED TO LOWER LEVEL:          0  ACCURACY: -nan
PSCL4 TIMELY PREFETCHES:          0 LATE PREFETCHES: 0 DROPPED PREFETCHES: 0
PSCL4 COMMIT LATE PREFETCHES: 0 MISSED OPPORTUNITY: 0 LATE IN PQ: 0 UNCOVERED: 0
PSCL4 COMMIT LATE MSHR PREFETCHES: 0
PSCL4 MPKI TOTAL: 0 MSHR LATE: 0 PQ LATE: 0 COMMIT LATE: 0 MISSED OPPORTUNITY: 0 UNCOVERED: 0
PSCL4 PREFETCHES SAME FILL-ORIGIN LEVEL: 0 DIFFERENT FILL-ORIGIN LEVEL: 0

PSCL3 SPEC fills:          0  NON-SPEC fills:          0
PSCL3 Test counter :          0
PSCL3 Leapfrog:          0
PSCL3 MSHR merge:          0
PSCL3 TOTAL     ACCESS:          0  HIT:          0  MISS:          0  HIT %:       -nan  MISS %:       -nan   MPKI: 0
PSCL3 PREFETCH  REQUESTED:          0  ISSUED:          0  USEFUL:          0  USELESS:          0
PSCL3 USEFUL LOAD PREFETCHES:          0 PREFETCH ISSUED TO LOWER LEVEL:          0  ACCURACY: -nan
PSCL3 TIMELY PREFETCHES:          0 LATE PREFETCHES: 0 DROPPED PREFETCHES: 0
PSCL3 COMMIT LATE PREFETCHES: 0 MISSED OPPORTUNITY: 0 LATE IN PQ: 0 UNCOVERED: 0
PSCL3 COMMIT LATE MSHR PREFETCHES: 0
PSCL3 MPKI TOTAL: 0 MSHR LATE: 0 PQ LATE: 0 COMMIT LATE: 0 MISSED OPPORTUNITY: 0 UNCOVERED: 0
PSCL3 PREFETCHES SAME FILL-ORIGIN LEVEL: 0 DIFFERENT FILL-ORIGIN LEVEL: 0

PSCL2 SPEC fills:          0  NON-SPEC fills:          0
PSCL2 Test counter :          0
PSCL2 Leapfrog:          0
PSCL2 MSHR merge:          0
PSCL2 TOTAL     ACCESS:          0  HIT:          0  MISS:          0  HIT %:       -nan  MISS %:       -nan   MPKI: 0
PSCL2 PREFETCH  REQUESTED:          0  ISSUED:          0  USEFUL:          0  USELESS:          0
PSCL2 USEFUL LOAD PREFETCHES:          0 PREFETCH ISSUED TO LOWER LEVEL:          0  ACCURACY: -nan
PSCL2 TIMELY PREFETCHES:          0 LATE PREFETCHES: 0 DROPPED PREFETCHES: 0
PSCL2 COMMIT LATE PREFETCHES: 0 MISSED OPPORTUNITY: 0 LATE IN PQ: 0 UNCOVERED: 0
PSCL2 COMMIT LATE MSHR PREFETCHES: 0
PSCL2 MPKI TOTAL: 0 MSHR LATE: 0 PQ LATE: 0 COMMIT LATE: 0 MISSED OPPORTUNITY: 0 UNCOVERED: 0
PSCL2 PREFETCHES SAME FILL-ORIGIN LEVEL: 0 DIFFERENT FILL-ORIGIN LEVEL: 0

LLC SPEC fills:          0  NON-SPEC fills:      13352
LLC Test counter :          0
LLC Leapfrog:          0
LLC MSHR merge:          0
LLC TOTAL     ACCESS:    1191584  HIT:     423767  MISS:     767817  HIT %:    35.5633  MISS %:    64.4367   MPKI: 3.83908
LLC LOAD      TOTAL       ACCESS:      40641  HIT:       5987  MISS:      34654  HIT %:    14.7314  MISS %:    85.2686   MPKI: 0.17327
LLC LOAD      NON_SPEC    ACCESS:      18556  HIT:       2668  MISS:      15888  HIT %:    14.3781  MISS %:    85.6219   MPKI: 0.07944
LLC LOAD      SPEC        ACCESS:      22085  HIT:       3319  MISS:      18766  HIT %:    15.0283  MISS %:    84.9717   MPKI: 0.09383
LLC RFO       NON_SPEC    ACCESS:     365790  HIT:       4033  MISS:     361757  HIT %:    1.10255  MISS %:    98.8975   MPKI: 1.80879
LLC PREFETCH  NON_SPEC    ACCESS:     365719  HIT:      16666  MISS:     349053  HIT %:    4.55705  MISS %:    95.4429   MPKI: 1.74527
LLC WRITEBACK NON_SPEC    ACCESS:     364677  HIT:     364596  MISS:         81  HIT %:    99.9778  MISS %:  0.0222114   MPKI: 0.000405
LLC CLEAN_EVICTION NON_SPEC    ACCESS:      44693  HIT:      26662  MISS:      18031  HIT %:    59.6559  MISS %:    40.3441   MPKI: 0.090155
LLC COMMIT LOAD NON_SPEC    ACCESS:       8381  HIT:       5561  MISS:       2820  HIT %:    66.3525  MISS %:    33.6475   MPKI: 0.0141
LLC LOAD TRANSLATION NON_SPEC    ACCESS:       1683  HIT:        262  MISS:       1421  HIT %:    15.5674  MISS %:    84.4326   MPKI: 0.007105
LLC PREFETCH  REQUESTED:          0  ISSUED:          0  USEFUL:       8121  USELESS:     330272
LLC USEFUL LOAD PREFETCHES:       8121 PREFETCH ISSUED TO LOWER LEVEL:     349053  ACCURACY: 2.32658
LLC TIMELY PREFETCHES:       8121 LATE PREFETCHES: 0 DROPPED PREFETCHES: 0
LLC COMMIT LATE PREFETCHES: 0 MISSED OPPORTUNITY: 0 LATE IN PQ: 0 UNCOVERED: 0
LLC COMMIT LATE MSHR PREFETCHES: 0
LLC MPKI TOTAL: 0.17327 MSHR LATE: 0 PQ LATE: 0 COMMIT LATE: 0 MISSED OPPORTUNITY: 0 UNCOVERED: 0
LLC PREFETCHES SAME FILL-ORIGIN LEVEL: 0 DIFFERENT FILL-ORIGIN LEVEL: 0
LLC AVERAGE MISS LATENCY: 240.879 cycles
LLC AVERAGE MISS LATENCY LOAD: 171.549 cycles
LLC AVERAGE MISS LATENCY PREFETCH: 289.647 cycles
LLC AVERAGE MSHR OCCUPANCY: 3.8548
LLC MSHR FULL: 0
LLC RQ	ACCESS:     416496	FORWARD:          0	MERGED:          0	TO_CACHE:     416496
LLC WQ	ACCESS:     409370	FORWARD:          3	MERGED:          0	TO_CACHE:     409370
LLC PQ	ACCESS:     365722	FORWARD:          0	MERGED:          0	TO_CACHE:     365719

LLC Dense regions hint to LLC: 0

RAW hits: 1491572
Loads Generated: 55430316
Loads sent to L1D: 53938743
Stores Generated: 25679661
Stores sent to L1D: 25679663
Major fault: 0 Minor fault: 2275
Allocated PAGES: 2275
Total Load insts: 65741574
Total Non-spec loads: 22213877
Percentage of speculative loads: 66.2103

LeapFrogging counter: 164580
Commit hits: 23177505 miss: 10664149
Commit hit %: 68.4881 miss %: 31.5119
Commits not translated: 0
Loads retired: 839715
Stores retired: 25679663
Cache fills: 839715
L1D response latency: 26.0018 cycles
Load retirement latency: 52.2287 cycles
OOO test counter: 0
Discarded buffer inserts: 23177505 hits: 41659 hit %: 0.179739
Filter prediction accuracy: 99.9401
[Bingo] PHT Access: 59355
[Bingo] PHT Hit PC+Addr: 31634
[Bingo] PHT Hit PC+Offs: 22561
[Bingo] PHT Miss: 5160
[Bingo] Prefetch PC+Addr: 0
[Bingo] Prefetch PC+Offs: 0
[Bingo] Useful PC+Addr: 0
[Bingo] Useful PC+Offs: 0
[Bingo] Useless PC+Addr: 0
[Bingo] Useless PC+Offs: 0
[Bingo] L1 Prefetch per Region: 0
[Bingo] L2 Prefetch per Region: 11.7267
[Bingo] L3 Prefetch per Region: 0
[Bingo] No Prefetch per Region: 20.2733
[Bingo] Number of Voters Mean: 13.778
[Bingo] Number of Voters SD: 6.95216
PHT read accesses: 526626
PHT write accesses: 40918
AT read accesses: 783479
AT write accesses: 815420
FT read accesses: 136824
FT write accesses: 59355
PS read accesses: 131074
PS write accesses: 54195
PHT tag read accesses: 1486871
PHT tag write accesses: 72552
AT tag read accesses: 27696131
AT tag write accesses: 824382
FT tag read accesses: 16207279
FT tag write accesses: 149436
PS tag read accesses: 15269839
PS tag write accesses: 185005

DRAM Statistics
 CHANNEL 0
 RQ ROW_BUFFER_HIT:     273781  ROW_BUFFER_MISS:     475919
 DBUS_CONGESTED:         80
 WQ ROW_BUFFER_HIT:      94962  ROW_BUFFER_MISS:     295441  FULL:       1195

 AVG_CONGESTED_CYCLE: 6
 All warmup complete: 2
Channel 0 Bank busy for read cycles: 0
Channel 0 Bank busy for write cycles: 0
Channel 0
Rank 0
0banks busy for read cycles: 490942774
0banks busy for write cycles: 2836
1banks busy for read cycles: 20459767
1banks busy for write cycles: 465514
2banks busy for read cycles: 7197061
2banks busy for write cycles: 296971
3banks busy for read cycles: 1055851
3banks busy for write cycles: 218857
4banks busy for read cycles: 692042
4banks busy for write cycles: 174648
5banks busy for read cycles: 577129
5banks busy for write cycles: 165331
6banks busy for read cycles: 493864
6banks busy for write cycles: 176330
7banks busy for read cycles: 916079
7banks busy for write cycles: 597615
8banks busy for read cycles: 4312861
8banks busy for write cycles: 8080155

CPU 0 Branch Prediction Accuracy: 93.3169% MPKI: 11.1129 Average ROB Occupancy at Mispredict: 21.8755
Branch types
NOT_BRANCH: 166743420 83.3717%
BRANCH_DIRECT_JUMP: 1094608 0.547304%
BRANCH_INDIRECT: 6209 0.0031045%
BRANCH_CONDITIONAL: 20616346 10.3082%
BRANCH_DIRECT_CALL: 5769438 2.88472%
BRANCH_INDIRECT_CALL: 272 0.000136%
BRANCH_RETURN: 5769712 2.88486%
BRANCH_OTHER: 0 0%

DRAM PAGES: 1048576
Allocated PAGES: 2275
