
*** ChampSim Multicore Out-of-Order Simulator ***

Warmup Instructions: 50000000
Simulation Instructions: 200000000
Number of CPUs: 1
LLC sets: 2048
LLC ways: 16
L0D sets: 16
L0D ways: 2
ROB size: 352
LQ size: 128
SQ size: 72
Secure Berti: OFF
Berti: OFF
Berti Fill: OFF
On commit prefetching: OFF
Hit-based filter: ON
Time-guarding: ON
Free-slotting: ON
Leap-frogging: ON
Train prefetcher on L0D bypass: OFF
No translation penalty for prefetchers: OFF
Prefetch to L0D only: OFF
Prefetch to L1D only: OFF
Clean evictions: ON
Commit loads: ON
Commit write: ON
Fill commit loads to L2C, LLC: ON
DRAM IO FREQUENCY: 6400
ROB SIZE: 352
Off-chip DRAM Size: 4096 MB Channels: 1 Width: 64-bit Data Rate: 6400 MT/s
CPU 0 runs /home/sumon/secure_berti/GhostMinion/../../traces/spec/649.fotonik3d_s-7084B.champsimtrace.xz
.xz
BTB has LRU replacement policy
ITLB has LRU replacement policy
DTLB has LRU replacement policy
STLB has LRU replacement policy
L1I has LRU replacement policy
L0D has LRU replacement policy
L1D has LRU replacement policy
Bingo PHT WAYS: 16 and PHT_SIZE: 16384
L2C has LRU replacement policy
LLC has LRU replacement policy
Heartbeat CPU 0 instructions: 10000001 cycles: 3126631 heartbeat IPC: 3.19833 cumulative IPC: 3.19833 (Simulation time: 0 hr 0 min 30 sec) 
Heartbeat CPU 0 instructions: 20000001 cycles: 6253869 heartbeat IPC: 3.19771 cumulative IPC: 3.19802 (Simulation time: 0 hr 1 min 0 sec) 
Heartbeat CPU 0 instructions: 30000001 cycles: 9383387 heartbeat IPC: 3.19538 cumulative IPC: 3.19714 (Simulation time: 0 hr 1 min 30 sec) 
Heartbeat CPU 0 instructions: 40000003 cycles: 12512122 heartbeat IPC: 3.19618 cumulative IPC: 3.1969 (Simulation time: 0 hr 2 min 0 sec) 
Heartbeat CPU 0 instructions: 50000002 cycles: 15643474 heartbeat IPC: 3.19351 cumulative IPC: 3.19622 (Simulation time: 0 hr 2 min 30 sec) 

Warmup complete CPU 0 instructions: 50000002 cycles: 15643474 (Simulation time: 0 hr 2 min 30 sec) 

Heartbeat CPU 0 instructions: 60000001 cycles: 25815470 heartbeat IPC: 0.983091 cumulative IPC: 0.983091 (Simulation time: 0 hr 3 min 9 sec) 
Heartbeat CPU 0 instructions: 70000002 cycles: 35975508 heartbeat IPC: 0.984248 cumulative IPC: 0.983669 (Simulation time: 0 hr 3 min 48 sec) 
Heartbeat CPU 0 instructions: 80000001 cycles: 46117205 heartbeat IPC: 0.986028 cumulative IPC: 0.984454 (Simulation time: 0 hr 4 min 27 sec) 
Heartbeat CPU 0 instructions: 90000001 cycles: 56276240 heartbeat IPC: 0.984345 cumulative IPC: 0.984427 (Simulation time: 0 hr 5 min 7 sec) 
Heartbeat CPU 0 instructions: 100000000 cycles: 66425042 heartbeat IPC: 0.985338 cumulative IPC: 0.984609 (Simulation time: 0 hr 5 min 48 sec) 
Heartbeat CPU 0 instructions: 110000000 cycles: 76582666 heartbeat IPC: 0.984482 cumulative IPC: 0.984588 (Simulation time: 0 hr 6 min 28 sec) 
Heartbeat CPU 0 instructions: 120000000 cycles: 86734352 heartbeat IPC: 0.985058 cumulative IPC: 0.984655 (Simulation time: 0 hr 7 min 8 sec) 
Heartbeat CPU 0 instructions: 130000002 cycles: 96876220 heartbeat IPC: 0.986012 cumulative IPC: 0.984825 (Simulation time: 0 hr 7 min 49 sec) 
Heartbeat CPU 0 instructions: 140000002 cycles: 107033721 heartbeat IPC: 0.984494 cumulative IPC: 0.984788 (Simulation time: 0 hr 8 min 30 sec) 
Heartbeat CPU 0 instructions: 150000001 cycles: 117178861 heartbeat IPC: 0.985694 cumulative IPC: 0.984878 (Simulation time: 0 hr 9 min 11 sec) 
Heartbeat CPU 0 instructions: 160000001 cycles: 127353190 heartbeat IPC: 0.982866 cumulative IPC: 0.984695 (Simulation time: 0 hr 9 min 52 sec) 
Heartbeat CPU 0 instructions: 170000000 cycles: 137525729 heartbeat IPC: 0.983039 cumulative IPC: 0.984557 (Simulation time: 0 hr 10 min 33 sec) 
Heartbeat CPU 0 instructions: 180000001 cycles: 147688735 heartbeat IPC: 0.983961 cumulative IPC: 0.984511 (Simulation time: 0 hr 11 min 13 sec) 
Heartbeat CPU 0 instructions: 190000001 cycles: 157850503 heartbeat IPC: 0.984081 cumulative IPC: 0.98448 (Simulation time: 0 hr 11 min 54 sec) 
Heartbeat CPU 0 instructions: 200000002 cycles: 168001078 heartbeat IPC: 0.985166 cumulative IPC: 0.984526 (Simulation time: 0 hr 12 min 34 sec) 
Heartbeat CPU 0 instructions: 210000003 cycles: 178150420 heartbeat IPC: 0.985286 cumulative IPC: 0.984573 (Simulation time: 0 hr 13 min 14 sec) 
Heartbeat CPU 0 instructions: 220000000 cycles: 188300858 heartbeat IPC: 0.985179 cumulative IPC: 0.984609 (Simulation time: 0 hr 13 min 52 sec) 
Heartbeat CPU 0 instructions: 230000001 cycles: 198444137 heartbeat IPC: 0.985875 cumulative IPC: 0.984679 (Simulation time: 0 hr 14 min 28 sec) 
Heartbeat CPU 0 instructions: 240000002 cycles: 208591755 heartbeat IPC: 0.985453 cumulative IPC: 0.98472 (Simulation time: 0 hr 15 min 4 sec) 
Heartbeat CPU 0 instructions: 250000001 cycles: 218733547 heartbeat IPC: 0.986019 cumulative IPC: 0.984785 (Simulation time: 0 hr 15 min 39 sec) 
Finished CPU 0 instructions: 200000003 cycles: 203090074 cumulative IPC: 0.984785 (Simulation time: 0 hr 15 min 39 sec) 
 Instruction ID: 250000131

ChampSim completed all CPUs

Region of Interest Statistics

CPU 0 cumulative IPC: 0.984785 instructions: 200000003 cycles: 203090074
ITLB SPEC fills:          0  NON-SPEC fills:          0
ITLB Test counter :          0
ITLB Leapfrog:          0
ITLB MSHR merge:          0
ITLB TOTAL     ACCESS:   24344773  HIT:   24344773  MISS:          0  HIT %:        100  MISS %:          0   MPKI: 0
ITLB LOAD TRANSLATION NON_SPEC    ACCESS:   24344773  HIT:   24344773  MISS:          0  HIT %:        100  MISS %:          0   MPKI: 0
ITLB PREFETCH  REQUESTED:          0  ISSUED:          0  USEFUL:          0  USELESS:          0
ITLB USEFUL LOAD PREFETCHES:          0 PREFETCH ISSUED TO LOWER LEVEL:          0  ACCURACY: -nan
ITLB TIMELY PREFETCHES:          0 LATE PREFETCHES: 0 DROPPED PREFETCHES: 0
ITLB COMMIT LATE PREFETCHES: 0 MISSED OPPORTUNITY: 0 LATE IN PQ: 0 UNCOVERED: 0
ITLB COMMIT LATE MSHR PREFETCHES: 0
ITLB MPKI TOTAL: 0 MSHR LATE: 0 PQ LATE: 0 COMMIT LATE: 0 MISSED OPPORTUNITY: 0 UNCOVERED: 0
ITLB PREFETCHES SAME FILL-ORIGIN LEVEL: 0 DIFFERENT FILL-ORIGIN LEVEL: 0
ITLB AVERAGE MISS LATENCY: -nan cycles
ITLB AVERAGE MISS LATENCY LOAD: -nan cycles
ITLB AVERAGE MISS LATENCY PREFETCH: -nan cycles
ITLB AVERAGE MSHR OCCUPANCY: 0
ITLB MSHR FULL: 0
ITLB RQ	ACCESS:   29755755	FORWARD:          0	MERGED:    5410982	TO_CACHE:   24344773

DTLB SPEC fills:          0  NON-SPEC fills:          0
DTLB Test counter :          0
DTLB Leapfrog:          0
DTLB MSHR merge:          0
DTLB TOTAL     ACCESS:   62295936  HIT:   62171998  MISS:     123938  HIT %:     99.801  MISS %:    0.19895   MPKI: 0.61969
DTLB LOAD TRANSLATION NON_SPEC    ACCESS:   62295936  HIT:   62171998  MISS:     123938  HIT %:     99.801  MISS %:    0.19895   MPKI: 0.61969
DTLB PREFETCH  REQUESTED:          0  ISSUED:          0  USEFUL:          0  USELESS:          0
DTLB USEFUL LOAD PREFETCHES:          0 PREFETCH ISSUED TO LOWER LEVEL:          0  ACCURACY: -nan
DTLB TIMELY PREFETCHES:          0 LATE PREFETCHES: 0 DROPPED PREFETCHES: 0
DTLB COMMIT LATE PREFETCHES: 0 MISSED OPPORTUNITY: 0 LATE IN PQ: 0 UNCOVERED: 0
DTLB COMMIT LATE MSHR PREFETCHES: 0
DTLB MPKI TOTAL: 0 MSHR LATE: 0 PQ LATE: 0 COMMIT LATE: 0 MISSED OPPORTUNITY: 0 UNCOVERED: 0
DTLB PREFETCHES SAME FILL-ORIGIN LEVEL: 0 DIFFERENT FILL-ORIGIN LEVEL: 0
DTLB AVERAGE MISS LATENCY: 91.5494 cycles
DTLB AVERAGE MISS LATENCY LOAD: -nan cycles
DTLB AVERAGE MISS LATENCY PREFETCH: -nan cycles
DTLB AVERAGE MSHR OCCUPANCY: 0.0211097
DTLB MSHR FULL: 0.000129651
DTLB RQ	ACCESS:   70459291	FORWARD:          0	MERGED:    8161378	TO_CACHE:   62297913

STLB SPEC fills:          0  NON-SPEC fills:          0
STLB Test counter :          0
STLB Leapfrog:          0
STLB MSHR merge:          0
STLB TOTAL     ACCESS:     123938  HIT:      69331  MISS:      54607  HIT %:    55.9401  MISS %:    44.0599   MPKI: 0.273035
STLB LOAD TRANSLATION NON_SPEC    ACCESS:     123938  HIT:      69331  MISS:      54607  HIT %:    55.9401  MISS %:    44.0599   MPKI: 0.273035
STLB PREFETCH  REQUESTED:          0  ISSUED:          0  USEFUL:          0  USELESS:          0
STLB USEFUL LOAD PREFETCHES:          0 PREFETCH ISSUED TO LOWER LEVEL:          0  ACCURACY: -nan
STLB TIMELY PREFETCHES:          0 LATE PREFETCHES: 0 DROPPED PREFETCHES: 0
STLB COMMIT LATE PREFETCHES: 0 MISSED OPPORTUNITY: 0 LATE IN PQ: 0 UNCOVERED: 0
STLB COMMIT LATE MSHR PREFETCHES: 0
STLB MPKI TOTAL: 0 MSHR LATE: 0 PQ LATE: 0 COMMIT LATE: 0 MISSED OPPORTUNITY: 0 UNCOVERED: 0
STLB PREFETCHES SAME FILL-ORIGIN LEVEL: 0 DIFFERENT FILL-ORIGIN LEVEL: 0
STLB AVERAGE MISS LATENCY: 187.059 cycles
STLB AVERAGE MISS LATENCY LOAD: -nan cycles
STLB AVERAGE MISS LATENCY PREFETCH: -nan cycles
STLB AVERAGE MSHR OCCUPANCY: 0.06379
STLB MSHR FULL: 0
STLB RQ	ACCESS:     123938	FORWARD:          0	MERGED:          0	TO_CACHE:     123938

STLB Hit, L1D data hit: 0
STLB Hit, L2C data hit: 0
STLB Hit, LLC data hit: 0
STLB Hit, LLC data miss: 0
STLB STLB hints to L2: 0
L0D SPEC fills:   39703089  NON-SPEC fills:          0
L0D TimeGuard Request with older TS:     485331 Restricted eviction:     559544 read:     276504
L0D Test counter :          0
L0D Leapfrog:          0
L0D MSHR merge:    1011674
L0D TOTAL     ACCESS:   59613176  HIT:   14108111  MISS:   45505065  HIT %:    23.6661  MISS %:    76.3339   MPKI: 227.525
L0D LOAD      TOTAL       ACCESS:   59613176  HIT:   14108111  MISS:   45505065  HIT %:    23.6661  MISS %:    76.3339   MPKI: 227.525
L0D LOAD      NON_SPEC    ACCESS:    5506479  HIT:     263956  MISS:    5242523  HIT %:    4.79355  MISS %:    95.2064   MPKI: 26.2126
L0D LOAD      SPEC        ACCESS:   54106697  HIT:   13844155  MISS:   40262542  HIT %:    25.5868  MISS %:    74.4132   MPKI: 201.313
L0D PREFETCH  REQUESTED:          0  ISSUED:          0  USEFUL:          0  USELESS:          0
L0D USEFUL LOAD PREFETCHES:          0 PREFETCH ISSUED TO LOWER LEVEL:          0  ACCURACY: -nan
L0D TIMELY PREFETCHES:          0 LATE PREFETCHES: 0 DROPPED PREFETCHES: 0
L0D COMMIT LATE PREFETCHES: 0 MISSED OPPORTUNITY: 0 LATE IN PQ: 0 UNCOVERED: 0
L0D COMMIT LATE MSHR PREFETCHES: 0
L0D MPKI TOTAL: 232.584 MSHR LATE: 0 PQ LATE: 0 COMMIT LATE: 0 MISSED OPPORTUNITY: 0 UNCOVERED: 0
L0D PREFETCHES SAME FILL-ORIGIN LEVEL: 0 DIFFERENT FILL-ORIGIN LEVEL: 0
L0D AVERAGE MISS LATENCY: 6.45561 cycles
L0D AVERAGE MISS LATENCY LOAD: 6.45561 cycles
L0D AVERAGE MISS LATENCY PREFETCH: -nan cycles
L0D AVERAGE MSHR OCCUPANCY: 1.36565
L0D MSHR FULL: 0.000769458
L0D RQ	ACCESS:   70261951	FORWARD:          0	MERGED:    9637102	TO_CACHE:   60624849
L0D WQ	ACCESS:    9834442	FORWARD:          0	MERGED:          0	TO_CACHE:    9834442

L1D SPEC fills:          0  NON-SPEC fills:     712778
L1D Test counter :          0
L1D Leapfrog:          0
L1D MSHR merge:       1390
L1D TOTAL     ACCESS:   58025473  HIT:   52150699  MISS:    5874774  HIT %:    89.8755  MISS %:    10.1245   MPKI: 29.3739
L1D LOAD      TOTAL       ACCESS:   45503675  HIT:   42204396  MISS:    3299279  HIT %:    92.7494  MISS %:    7.25058   MPKI: 16.4964
L1D LOAD      NON_SPEC    ACCESS:    5242517  HIT:    4529739  MISS:     712778  HIT %:    86.4039  MISS %:    13.5961   MPKI: 3.56389
L1D LOAD      SPEC        ACCESS:   40261158  HIT:   37674657  MISS:    2586501  HIT %:    93.5757  MISS %:    6.42431   MPKI: 12.9325
L1D RFO       NON_SPEC    ACCESS:    9827451  HIT:    9827451  MISS:          0  HIT %:        100  MISS %:          0   MPKI: 0
L1D COMMIT LOAD NON_SPEC    ACCESS:     149788  HIT:     109093  MISS:      40695  HIT %:    72.8316  MISS %:    27.1684   MPKI: 0.203475
L1D COMMIT WRITE NON_SPEC    ACCESS:    2544559  HIT:       9759  MISS:    2534800  HIT %:   0.383524  MISS %:    99.6165   MPKI: 12.674
L1D PREFETCH  REQUESTED:          0  ISSUED:          0  USEFUL:          0  USELESS:          0
L1D USEFUL LOAD PREFETCHES:          0 PREFETCH ISSUED TO LOWER LEVEL:          0  ACCURACY: -nan
L1D TIMELY PREFETCHES:          0 LATE PREFETCHES: 0 DROPPED PREFETCHES: 0
L1D COMMIT LATE PREFETCHES: 0 MISSED OPPORTUNITY: 0 LATE IN PQ: 0 UNCOVERED: 0
L1D COMMIT LATE MSHR PREFETCHES: 0
L1D MPKI TOTAL: 16.5033 MSHR LATE: 0 PQ LATE: 0 COMMIT LATE: 0 MISSED OPPORTUNITY: 0 UNCOVERED: 0
L1D PREFETCHES SAME FILL-ORIGIN LEVEL: 0 DIFFERENT FILL-ORIGIN LEVEL: 0
L1D AVERAGE MISS LATENCY: 10.3968 cycles
L1D AVERAGE MISS LATENCY LOAD: 18.304 cycles
L1D AVERAGE MISS LATENCY PREFETCH: -nan cycles
L1D AVERAGE MSHR OCCUPANCY: 0.245555
L1D MSHR FULL: 0
L1D RQ	ACCESS:   45697320	FORWARD:          0	MERGED:      38726	TO_CACHE:   45658134
L1D WQ	ACCESS:   12379001	FORWARD:        460	MERGED:       2100	TO_CACHE:   12376901

L1D UNIQUE REGIONS ACCESSED: 0
L1D REGIONS CONFLICTS: 0
L1D Cross Page Prefetch Requests: 0
L1D Same Page Prefetch Requests: 0
L1D ROI Sum of L1D PQ occupancy: 0
L1D PREFETCHES PUSHED FROM L2C: 0
L1I SPEC fills:          0  NON-SPEC fills:          0
L1I Test counter :          0
L1I Leapfrog:          0
L1I MSHR merge:          0
L1I TOTAL     ACCESS:   29755754  HIT:   29755754  MISS:          0  HIT %:        100  MISS %:          0   MPKI: 0
L1I LOAD      TOTAL       ACCESS:   29755754  HIT:   29755754  MISS:          0  HIT %:        100  MISS %:          0   MPKI: 0
L1I LOAD      NON_SPEC    ACCESS:   29755754  HIT:   29755754  MISS:          0  HIT %:        100  MISS %:          0   MPKI: 0
L1I PREFETCH  REQUESTED:          0  ISSUED:          0  USEFUL:          0  USELESS:          0
L1I USEFUL LOAD PREFETCHES:          0 PREFETCH ISSUED TO LOWER LEVEL:          0  ACCURACY: -nan
L1I TIMELY PREFETCHES:          0 LATE PREFETCHES: 0 DROPPED PREFETCHES: 0
L1I COMMIT LATE PREFETCHES: 0 MISSED OPPORTUNITY: 0 LATE IN PQ: 0 UNCOVERED: 0
L1I COMMIT LATE MSHR PREFETCHES: 0
L1I MPKI TOTAL: 0 MSHR LATE: 0 PQ LATE: 0 COMMIT LATE: 0 MISSED OPPORTUNITY: 0 UNCOVERED: 0
L1I PREFETCHES SAME FILL-ORIGIN LEVEL: 0 DIFFERENT FILL-ORIGIN LEVEL: 0
L1I AVERAGE MISS LATENCY: -nan cycles
L1I AVERAGE MISS LATENCY LOAD: -nan cycles
L1I AVERAGE MISS LATENCY PREFETCH: -nan cycles
L1I AVERAGE MSHR OCCUPANCY: 0
L1I MSHR FULL: 0
L1I RQ	ACCESS:   43322937	FORWARD:          0	MERGED:   13567182	TO_CACHE:   29755755

BTB SPEC fills:          0  NON-SPEC fills:          0
BTB Test counter :          0
BTB Leapfrog:          0
BTB MSHR merge:          0
BTB TOTAL     ACCESS:    1347104  HIT:    1347101  MISS:          3  HIT %:    99.9998  MISS %:  0.0002227   MPKI: 1.5e-05
BTB BRANCH_DIRECT_JUMP	ACCESS:          0  HIT:          0  MISS:          0
BTB BRANCH_INDIRECT	ACCESS:          0  HIT:          0  MISS:          0
BTB BRANCH_CONDITIONAL	ACCESS:    1347104  HIT:    1347101  MISS:          3
BTB BRANCH_DIRECT_CALL	ACCESS:          0  HIT:          0  MISS:          0
BTB BRANCH_INDIRECT_CALL	ACCESS:          0  HIT:          0  MISS:          0
BTB BRANCH_RETURN	ACCESS:          0  HIT:          0  MISS:          0
BTB BRANCH_OTHER ACCESS:          0  HIT:          0  MISS:          0

L2C SPEC fills:          0  NON-SPEC fills:      23406
L2C Test counter :          0
L2C Leapfrog:          0
L2C MSHR merge:        515
L2C TOTAL     ACCESS:    8083726  HIT:    4504476  MISS:    3579250  HIT %:    55.7228  MISS %:    44.2772   MPKI: 17.8962
L2C LOAD      TOTAL       ACCESS:    3299264  HIT:    3180709  MISS:     118555  HIT %:    96.4066  MISS %:    3.59338   MPKI: 0.592775
L2C LOAD      NON_SPEC    ACCESS:     712778  HIT:     689372  MISS:      23406  HIT %:    96.7162  MISS %:    3.28377   MPKI: 0.11703
L2C LOAD      SPEC        ACCESS:    2586486  HIT:    2491337  MISS:      95149  HIT %:    96.3213  MISS %:     3.6787   MPKI: 0.475745
L2C PREFETCH  NON_SPEC    ACCESS:    3359210  HIT:        637  MISS:    3358573  HIT %:  0.0189628  MISS %:     99.981   MPKI: 16.7929
L2C WRITEBACK NON_SPEC    ACCESS:     286526  HIT:     286526  MISS:          0  HIT %:        100  MISS %:          0   MPKI: 0
L2C CLEAN_EVICTION NON_SPEC    ACCESS:     825081  HIT:     730363  MISS:      94718  HIT %:    88.5202  MISS %:    11.4798   MPKI: 0.47359
L2C COMMIT LOAD NON_SPEC    ACCESS:      40695  HIT:      40322  MISS:        373  HIT %:    99.0834  MISS %:   0.916575   MPKI: 0.001865
L2C LOAD TRANSLATION NON_SPEC    ACCESS:     272950  HIT:     265919  MISS:       7031  HIT %:    97.4241  MISS %:    2.57593   MPKI: 0.035155
L2C PREFETCH  REQUESTED:    3359872  ISSUED:    3359872  USEFUL:    3157433  USELESS:     201180
L2C USEFUL LOAD PREFETCHES:    3157433 PREFETCH ISSUED TO LOWER LEVEL:    3359088  ACCURACY: 93.9967
L2C TIMELY PREFETCHES:    3157433 LATE PREFETCHES: 515 DROPPED PREFETCHES: 0
L2C COMMIT LATE PREFETCHES: 0 MISSED OPPORTUNITY: 0 LATE IN PQ: 0 UNCOVERED: 0
L2C COMMIT LATE MSHR PREFETCHES: 0
L2C MPKI TOTAL: 0.592775 MSHR LATE: 0.002575 PQ LATE: 0 COMMIT LATE: 0 MISSED OPPORTUNITY: 0 UNCOVERED: 0
L2C PREFETCHES SAME FILL-ORIGIN LEVEL: 3359088 DIFFERENT FILL-ORIGIN LEVEL: 0
L2C AVERAGE MISS LATENCY: 197.571 cycles
L2C AVERAGE MISS LATENCY LOAD: 175.506 cycles
L2C AVERAGE MISS LATENCY PREFETCH: 203.852 cycles
L2C AVERAGE MSHR OCCUPANCY: 2.76074
L2C MSHR FULL: 0.00470614
L2C RQ	ACCESS:    3612924	FORWARD:          0	MERGED:          0	TO_CACHE:    3612909
L2C WQ	ACCESS:    1111607	FORWARD:         15	MERGED:          0	TO_CACHE:    1111607
L2C PQ	ACCESS:    3359872	FORWARD:          0	MERGED:          0	TO_CACHE:    3359872

L2C Instructions Evicting Data 0
L2C Translations Evicting Data 7029
L2C Data Evicting Data 3375565
L2C Instructions Evicting Instructions 0
L2C Translations Evicting Instructions 0
L2C Data Evicting Instructions 0
L2C Instructions Evicting Translations 0
L2C Translations Evicting Translations 2
L2C Data Evicting Translations 6787
L2C Dense regions hint from L2: 0
PSCL5 SPEC fills:          0  NON-SPEC fills:          0
PSCL5 Test counter :          0
PSCL5 Leapfrog:          0
PSCL5 MSHR merge:          0
PSCL5 TOTAL     ACCESS:          0  HIT:          0  MISS:          0  HIT %:       -nan  MISS %:       -nan   MPKI: 0
PSCL5 PREFETCH  REQUESTED:          0  ISSUED:          0  USEFUL:          0  USELESS:          0
PSCL5 USEFUL LOAD PREFETCHES:          0 PREFETCH ISSUED TO LOWER LEVEL:          0  ACCURACY: -nan
PSCL5 TIMELY PREFETCHES:          0 LATE PREFETCHES: 0 DROPPED PREFETCHES: 0
PSCL5 COMMIT LATE PREFETCHES: 0 MISSED OPPORTUNITY: 0 LATE IN PQ: 0 UNCOVERED: 0
PSCL5 COMMIT LATE MSHR PREFETCHES: 0
PSCL5 MPKI TOTAL: 0 MSHR LATE: 0 PQ LATE: 0 COMMIT LATE: 0 MISSED OPPORTUNITY: 0 UNCOVERED: 0
PSCL5 PREFETCHES SAME FILL-ORIGIN LEVEL: 0 DIFFERENT FILL-ORIGIN LEVEL: 0

PSCL4 SPEC fills:          0  NON-SPEC fills:          0
PSCL4 Test counter :          0
PSCL4 Leapfrog:          0
PSCL4 MSHR merge:          0
PSCL4 TOTAL     ACCESS:          0  HIT:          0  MISS:          0  HIT %:       -nan  MISS %:       -nan   MPKI: 0
PSCL4 PREFETCH  REQUESTED:          0  ISSUED:          0  USEFUL:          0  USELESS:          0
PSCL4 USEFUL LOAD PREFETCHES:          0 PREFETCH ISSUED TO LOWER LEVEL:          0  ACCURACY: -nan
PSCL4 TIMELY PREFETCHES:          0 LATE PREFETCHES: 0 DROPPED PREFETCHES: 0
PSCL4 COMMIT LATE PREFETCHES: 0 MISSED OPPORTUNITY: 0 LATE IN PQ: 0 UNCOVERED: 0
PSCL4 COMMIT LATE MSHR PREFETCHES: 0
PSCL4 MPKI TOTAL: 0 MSHR LATE: 0 PQ LATE: 0 COMMIT LATE: 0 MISSED OPPORTUNITY: 0 UNCOVERED: 0
PSCL4 PREFETCHES SAME FILL-ORIGIN LEVEL: 0 DIFFERENT FILL-ORIGIN LEVEL: 0

PSCL3 SPEC fills:          0  NON-SPEC fills:          0
PSCL3 Test counter :          0
PSCL3 Leapfrog:          0
PSCL3 MSHR merge:          0
PSCL3 TOTAL     ACCESS:          0  HIT:          0  MISS:          0  HIT %:       -nan  MISS %:       -nan   MPKI: 0
PSCL3 PREFETCH  REQUESTED:          0  ISSUED:          0  USEFUL:          0  USELESS:          0
PSCL3 USEFUL LOAD PREFETCHES:          0 PREFETCH ISSUED TO LOWER LEVEL:          0  ACCURACY: -nan
PSCL3 TIMELY PREFETCHES:          0 LATE PREFETCHES: 0 DROPPED PREFETCHES: 0
PSCL3 COMMIT LATE PREFETCHES: 0 MISSED OPPORTUNITY: 0 LATE IN PQ: 0 UNCOVERED: 0
PSCL3 COMMIT LATE MSHR PREFETCHES: 0
PSCL3 MPKI TOTAL: 0 MSHR LATE: 0 PQ LATE: 0 COMMIT LATE: 0 MISSED OPPORTUNITY: 0 UNCOVERED: 0
PSCL3 PREFETCHES SAME FILL-ORIGIN LEVEL: 0 DIFFERENT FILL-ORIGIN LEVEL: 0

PSCL2 SPEC fills:          0  NON-SPEC fills:          0
PSCL2 Test counter :          0
PSCL2 Leapfrog:          0
PSCL2 MSHR merge:          0
PSCL2 TOTAL     ACCESS:          0  HIT:          0  MISS:          0  HIT %:       -nan  MISS %:       -nan   MPKI: 0
PSCL2 PREFETCH  REQUESTED:          0  ISSUED:          0  USEFUL:          0  USELESS:          0
PSCL2 USEFUL LOAD PREFETCHES:          0 PREFETCH ISSUED TO LOWER LEVEL:          0  ACCURACY: -nan
PSCL2 TIMELY PREFETCHES:          0 LATE PREFETCHES: 0 DROPPED PREFETCHES: 0
PSCL2 COMMIT LATE PREFETCHES: 0 MISSED OPPORTUNITY: 0 LATE IN PQ: 0 UNCOVERED: 0
PSCL2 COMMIT LATE MSHR PREFETCHES: 0
PSCL2 MPKI TOTAL: 0 MSHR LATE: 0 PQ LATE: 0 COMMIT LATE: 0 MISSED OPPORTUNITY: 0 UNCOVERED: 0
PSCL2 PREFETCHES SAME FILL-ORIGIN LEVEL: 0 DIFFERENT FILL-ORIGIN LEVEL: 0

LLC SPEC fills:          0  NON-SPEC fills:      23380
LLC Test counter :          0
LLC Leapfrog:          0
LLC MSHR merge:          0
LLC TOTAL     ACCESS:    4595925  HIT:    1019151  MISS:    3576774  HIT %:    22.1751  MISS %:    77.8249   MPKI: 17.8839
LLC LOAD      TOTAL       ACCESS:     118040  HIT:        653  MISS:     117387  HIT %:   0.553202  MISS %:    99.4468   MPKI: 0.586935
LLC LOAD      NON_SPEC    ACCESS:      23384  HIT:          4  MISS:      23380  HIT %:  0.0171057  MISS %:    99.9829   MPKI: 0.1169
LLC LOAD      SPEC        ACCESS:      94656  HIT:        649  MISS:      94007  HIT %:   0.685641  MISS %:    99.3144   MPKI: 0.470035
LLC PREFETCH  NON_SPEC    ACCESS:    3359088  HIT:        793  MISS:    3358295  HIT %:  0.0236076  MISS %:    99.9764   MPKI: 16.7915
LLC WRITEBACK NON_SPEC    ACCESS:     285947  HIT:     285946  MISS:          1  HIT %:    99.9997  MISS %: 0.000349715   MPKI: 5e-06
LLC CLEAN_EVICTION NON_SPEC    ACCESS:     825446  HIT:     731726  MISS:      93720  HIT %:    88.6461  MISS %:    11.3539   MPKI: 0.4686
LLC COMMIT LOAD NON_SPEC    ACCESS:        373  HIT:          9  MISS:        364  HIT %:    2.41287  MISS %:    97.5871   MPKI: 0.00182
LLC LOAD TRANSLATION NON_SPEC    ACCESS:       7031  HIT:         24  MISS:       7007  HIT %:   0.341345  MISS %:    99.6587   MPKI: 0.035035
LLC PREFETCH  REQUESTED:          0  ISSUED:          0  USEFUL:         28  USELESS:    3358306
LLC USEFUL LOAD PREFETCHES:         28 PREFETCH ISSUED TO LOWER LEVEL:    3358295  ACCURACY: 0.000833756
LLC TIMELY PREFETCHES:         28 LATE PREFETCHES: 0 DROPPED PREFETCHES: 0
LLC COMMIT LATE PREFETCHES: 0 MISSED OPPORTUNITY: 0 LATE IN PQ: 0 UNCOVERED: 0
LLC COMMIT LATE MSHR PREFETCHES: 0
LLC MPKI TOTAL: 0.586935 MSHR LATE: 0 PQ LATE: 0 COMMIT LATE: 0 MISSED OPPORTUNITY: 0 UNCOVERED: 0
LLC PREFETCHES SAME FILL-ORIGIN LEVEL: 0 DIFFERENT FILL-ORIGIN LEVEL: 0
LLC AVERAGE MISS LATENCY: 167.738 cycles
LLC AVERAGE MISS LATENCY LOAD: 152.832 cycles
LLC AVERAGE MISS LATENCY PREFETCH: 172.869 cycles
LLC AVERAGE MSHR OCCUPANCY: 3.50276
LLC MSHR FULL: 0
LLC RQ	ACCESS:     125444	FORWARD:          0	MERGED:          0	TO_CACHE:     125444
LLC WQ	ACCESS:    1111393	FORWARD:          0	MERGED:          0	TO_CACHE:    1111393
LLC PQ	ACCESS:    3359088	FORWARD:          0	MERGED:          0	TO_CACHE:    3359088

LLC Dense regions hint to LLC: 0

RAW hits: 483851
Loads Generated: 70745803
Loads sent to L1D: 70261951
Stores Generated: 9834442
Stores sent to L1D: 9834442
Major fault: 0 Minor fault: 54759
Allocated PAGES: 54759
Total Load insts: 87345906
Total Non-spec loads: 5896283
Percentage of speculative loads: 93.2495

LeapFrogging counter: 28109
Commit hits: 39266243 miss: 25466993
Commit hit %: 60.6586 miss %: 39.3414
Commits not translated: 0
Loads retired: 3299277
Stores retired: 9834442
Cache fills: 3299279
L1D response latency: 18.304 cycles
Load retirement latency: 45.6561 cycles
OOO test counter: 0
Discarded buffer inserts: 39266243 hits: 5289 hit %: 0.0134696
Filter prediction accuracy: 99.9969
[Bingo] PHT Access: 110074
[Bingo] PHT Hit PC+Addr: 1078
[Bingo] PHT Hit PC+Offs: 108723
[Bingo] PHT Miss: 273
[Bingo] Prefetch PC+Addr: 0
[Bingo] Prefetch PC+Offs: 0
[Bingo] Useful PC+Addr: 0
[Bingo] Useful PC+Offs: 0
[Bingo] Useless PC+Addr: 0
[Bingo] Useless PC+Offs: 0
[Bingo] L1 Prefetch per Region: 0
[Bingo] L2 Prefetch per Region: 31.652
[Bingo] L3 Prefetch per Region: 0
[Bingo] No Prefetch per Region: 0.348039
[Bingo] Number of Voters Mean: 15.9624
[Bingo] Number of Voters SD: 7.91162
PHT read accesses: 1745243
PHT write accesses: 109875
AT read accesses: 3189839
AT write accesses: 3298826
FT read accesses: 330303
FT write accesses: 110074
PS read accesses: 357286
PS write accesses: 109801
PHT tag read accesses: 5244368
PHT tag write accesses: 110953
AT tag read accesses: 113801145
AT tag write accesses: 3299714
FT tag read accesses: 62918182
FT tag write accesses: 330263
PS tag read accesses: 56434554
PS tag write accesses: 467082

DRAM Statistics
 CHANNEL 0
 RQ ROW_BUFFER_HIT:    2320018  ROW_BUFFER_MISS:    1163035
 DBUS_CONGESTED:        795
 WQ ROW_BUFFER_HIT:     310185  ROW_BUFFER_MISS:     801745  FULL:          0

 AVG_CONGESTED_CYCLE: 5
 All warmup complete: 2
Channel 0 Bank busy for read cycles: 0
Channel 0 Bank busy for write cycles: 0
Channel 0
Rank 0
0banks busy for read cycles: 119577914
0banks busy for write cycles: 108006
1banks busy for read cycles: 7231797
1banks busy for write cycles: 9748931
2banks busy for read cycles: 1979383
2banks busy for write cycles: 4235527
3banks busy for read cycles: 1409333
3banks busy for write cycles: 3169413
4banks busy for read cycles: 1233241
4banks busy for write cycles: 2605665
5banks busy for read cycles: 1253648
5banks busy for write cycles: 2214686
6banks busy for read cycles: 1710102
6banks busy for write cycles: 2253119
7banks busy for read cycles: 5001588
7banks busy for write cycles: 3237049
8banks busy for read cycles: 27348860
8banks busy for write cycles: 8771813

CPU 0 Branch Prediction Accuracy: 99.9985% MPKI: 0.000105 Average ROB Occupancy at Mispredict: 143.095
Branch types
NOT_BRANCH: 198618941 99.3095%
BRANCH_DIRECT_JUMP: 0 0%
BRANCH_INDIRECT: 0 0%
BRANCH_CONDITIONAL: 1380806 0.690403%
BRANCH_DIRECT_CALL: 0 0%
BRANCH_INDIRECT_CALL: 0 0%
BRANCH_RETURN: 0 0%
BRANCH_OTHER: 0 0%

DRAM PAGES: 1048576
Allocated PAGES: 54759
