
*** ChampSim Multicore Out-of-Order Simulator ***

Warmup Instructions: 50000000
Simulation Instructions: 200000000
Number of CPUs: 1
LLC sets: 2048
LLC ways: 16
L0D sets: 16
L0D ways: 2
ROB size: 352
LQ size: 128
SQ size: 72
Secure Berti: OFF
Berti: OFF
Berti Fill: OFF
On commit prefetching: OFF
Hit-based filter: ON
Time-guarding: ON
Free-slotting: ON
Leap-frogging: ON
Train prefetcher on L0D bypass: OFF
No translation penalty for prefetchers: OFF
Prefetch to L0D only: OFF
Prefetch to L1D only: OFF
Clean evictions: ON
Commit loads: ON
Commit write: ON
Fill commit loads to L2C, LLC: ON
DRAM IO FREQUENCY: 6400
ROB SIZE: 352
Off-chip DRAM Size: 4096 MB Channels: 1 Width: 64-bit Data Rate: 6400 MT/s
CPU 0 runs /home/sumon/secure_berti/GhostMinion/../../traces/spec/654.roms_s-1070B.champsimtrace.xz
.xz
BTB has LRU replacement policy
ITLB has LRU replacement policy
DTLB has LRU replacement policy
STLB has LRU replacement policy
L1I has LRU replacement policy
L0D has LRU replacement policy
L1D has LRU replacement policy
Bingo PHT WAYS: 16 and PHT_SIZE: 16384
L2C has LRU replacement policy
LLC has LRU replacement policy
Heartbeat CPU 0 instructions: 10000002 cycles: 4634005 heartbeat IPC: 2.15796 cumulative IPC: 2.15796 (Simulation time: 0 hr 0 min 34 sec) 
Heartbeat CPU 0 instructions: 20000002 cycles: 8570451 heartbeat IPC: 2.54036 cumulative IPC: 2.3336 (Simulation time: 0 hr 1 min 5 sec) 
Heartbeat CPU 0 instructions: 30000003 cycles: 11796120 heartbeat IPC: 3.10013 cumulative IPC: 2.54321 (Simulation time: 0 hr 1 min 35 sec) 
Heartbeat CPU 0 instructions: 40000001 cycles: 17138091 heartbeat IPC: 1.87197 cumulative IPC: 2.33398 (Simulation time: 0 hr 2 min 8 sec) 
Heartbeat CPU 0 instructions: 50000001 cycles: 20486270 heartbeat IPC: 2.9867 cumulative IPC: 2.44066 (Simulation time: 0 hr 2 min 38 sec) 

Warmup complete CPU 0 instructions: 50000001 cycles: 20486270 (Simulation time: 0 hr 2 min 38 sec) 

Heartbeat CPU 0 instructions: 60000000 cycles: 34649112 heartbeat IPC: 0.706073 cumulative IPC: 0.706073 (Simulation time: 0 hr 3 min 23 sec) 
Heartbeat CPU 0 instructions: 70000002 cycles: 43945846 heartbeat IPC: 1.07565 cumulative IPC: 0.85253 (Simulation time: 0 hr 3 min 57 sec) 
Heartbeat CPU 0 instructions: 80000003 cycles: 55303668 heartbeat IPC: 0.880451 cumulative IPC: 0.861638 (Simulation time: 0 hr 4 min 35 sec) 
Heartbeat CPU 0 instructions: 90000000 cycles: 67456133 heartbeat IPC: 0.822878 cumulative IPC: 0.85161 (Simulation time: 0 hr 5 min 15 sec) 
Heartbeat CPU 0 instructions: 100000003 cycles: 76409737 heartbeat IPC: 1.11687 cumulative IPC: 0.894079 (Simulation time: 0 hr 5 min 48 sec) 
Heartbeat CPU 0 instructions: 110000000 cycles: 90913639 heartbeat IPC: 0.689469 cumulative IPC: 0.851942 (Simulation time: 0 hr 6 min 33 sec) 
Heartbeat CPU 0 instructions: 120000002 cycles: 99792359 heartbeat IPC: 1.12629 cumulative IPC: 0.882656 (Simulation time: 0 hr 7 min 7 sec) 
Heartbeat CPU 0 instructions: 130000002 cycles: 111842097 heartbeat IPC: 0.829894 cumulative IPC: 0.875697 (Simulation time: 0 hr 7 min 47 sec) 
Heartbeat CPU 0 instructions: 140000001 cycles: 123285092 heartbeat IPC: 0.873897 cumulative IPC: 0.875496 (Simulation time: 0 hr 8 min 26 sec) 
Heartbeat CPU 0 instructions: 150000003 cycles: 132278953 heartbeat IPC: 1.11187 cumulative IPC: 0.894513 (Simulation time: 0 hr 9 min 1 sec) 
Heartbeat CPU 0 instructions: 160000000 cycles: 146709986 heartbeat IPC: 0.692951 cumulative IPC: 0.871469 (Simulation time: 0 hr 9 min 46 sec) 
Heartbeat CPU 0 instructions: 170000000 cycles: 155640460 heartbeat IPC: 1.11976 cumulative IPC: 0.887875 (Simulation time: 0 hr 10 min 20 sec) 
Heartbeat CPU 0 instructions: 180000002 cycles: 168444114 heartbeat IPC: 0.781027 cumulative IPC: 0.878629 (Simulation time: 0 hr 11 min 1 sec) 
Heartbeat CPU 0 instructions: 190000000 cycles: 179354983 heartbeat IPC: 0.916517 cumulative IPC: 0.881231 (Simulation time: 0 hr 11 min 39 sec) 
Heartbeat CPU 0 instructions: 200000000 cycles: 190207294 heartbeat IPC: 0.921463 cumulative IPC: 0.883803 (Simulation time: 0 hr 12 min 14 sec) 
Heartbeat CPU 0 instructions: 210000001 cycles: 204853342 heartbeat IPC: 0.682778 cumulative IPC: 0.867834 (Simulation time: 0 hr 12 min 57 sec) 
Heartbeat CPU 0 instructions: 220000000 cycles: 217114598 heartbeat IPC: 0.815577 cumulative IPC: 0.864575 (Simulation time: 0 hr 13 min 30 sec) 
Heartbeat CPU 0 instructions: 230000002 cycles: 231800014 heartbeat IPC: 0.680948 cumulative IPC: 0.851814 (Simulation time: 0 hr 14 min 10 sec) 
Heartbeat CPU 0 instructions: 240000000 cycles: 244737639 heartbeat IPC: 0.772939 cumulative IPC: 0.847264 (Simulation time: 0 hr 14 min 46 sec) 
Heartbeat CPU 0 instructions: 250000001 cycles: 257343756 heartbeat IPC: 0.793266 cumulative IPC: 0.84439 (Simulation time: 0 hr 15 min 19 sec) 
Finished CPU 0 instructions: 200000000 cycles: 236857486 cumulative IPC: 0.84439 (Simulation time: 0 hr 15 min 19 sec) 
 Instruction ID: 250000171

ChampSim completed all CPUs

Region of Interest Statistics

CPU 0 cumulative IPC: 0.84439 instructions: 200000000 cycles: 236857486
ITLB SPEC fills:          0  NON-SPEC fills:          0
ITLB Test counter :          0
ITLB Leapfrog:          0
ITLB MSHR merge:          0
ITLB TOTAL     ACCESS:   29072424  HIT:   29072423  MISS:          1  HIT %:        100  MISS %: 3.43969e-06   MPKI: 5e-06
ITLB LOAD TRANSLATION NON_SPEC    ACCESS:   29072424  HIT:   29072423  MISS:          1  HIT %:        100  MISS %: 3.43969e-06   MPKI: 5e-06
ITLB PREFETCH  REQUESTED:          0  ISSUED:          0  USEFUL:          0  USELESS:          0
ITLB USEFUL LOAD PREFETCHES:          0 PREFETCH ISSUED TO LOWER LEVEL:          0  ACCURACY: -nan
ITLB TIMELY PREFETCHES:          0 LATE PREFETCHES: 0 DROPPED PREFETCHES: 0
ITLB COMMIT LATE PREFETCHES: 0 MISSED OPPORTUNITY: 0 LATE IN PQ: 0 UNCOVERED: 0
ITLB COMMIT LATE MSHR PREFETCHES: 0
ITLB MPKI TOTAL: 0 MSHR LATE: 0 PQ LATE: 0 COMMIT LATE: 0 MISSED OPPORTUNITY: 0 UNCOVERED: 0
ITLB PREFETCHES SAME FILL-ORIGIN LEVEL: 0 DIFFERENT FILL-ORIGIN LEVEL: 0
ITLB AVERAGE MISS LATENCY: 464 cycles
ITLB AVERAGE MISS LATENCY LOAD: -nan cycles
ITLB AVERAGE MISS LATENCY PREFETCH: -nan cycles
ITLB AVERAGE MSHR OCCUPANCY: 0
ITLB MSHR FULL: 0
ITLB RQ	ACCESS:   33301780	FORWARD:          0	MERGED:    4229357	TO_CACHE:   29072423

DTLB SPEC fills:          0  NON-SPEC fills:          0
DTLB Test counter :          0
DTLB Leapfrog:          0
DTLB MSHR merge:          0
DTLB TOTAL     ACCESS:   56766454  HIT:   56660651  MISS:     105803  HIT %:    99.8136  MISS %:   0.186383   MPKI: 0.529015
DTLB LOAD TRANSLATION NON_SPEC    ACCESS:   56766454  HIT:   56660651  MISS:     105803  HIT %:    99.8136  MISS %:   0.186383   MPKI: 0.529015
DTLB PREFETCH  REQUESTED:          0  ISSUED:          0  USEFUL:          0  USELESS:          0
DTLB USEFUL LOAD PREFETCHES:          0 PREFETCH ISSUED TO LOWER LEVEL:          0  ACCURACY: -nan
DTLB TIMELY PREFETCHES:          0 LATE PREFETCHES: 0 DROPPED PREFETCHES: 0
DTLB COMMIT LATE PREFETCHES: 0 MISSED OPPORTUNITY: 0 LATE IN PQ: 0 UNCOVERED: 0
DTLB COMMIT LATE MSHR PREFETCHES: 0
DTLB MPKI TOTAL: 0 MSHR LATE: 0 PQ LATE: 0 COMMIT LATE: 0 MISSED OPPORTUNITY: 0 UNCOVERED: 0
DTLB PREFETCHES SAME FILL-ORIGIN LEVEL: 0 DIFFERENT FILL-ORIGIN LEVEL: 0
DTLB AVERAGE MISS LATENCY: 254.433 cycles
DTLB AVERAGE MISS LATENCY LOAD: -nan cycles
DTLB AVERAGE MISS LATENCY PREFETCH: -nan cycles
DTLB AVERAGE MSHR OCCUPANCY: 0.0358325
DTLB MSHR FULL: 0.000105406
DTLB RQ	ACCESS:   64412950	FORWARD:          0	MERGED:    7496253	TO_CACHE:   56916697

STLB SPEC fills:          0  NON-SPEC fills:          0
STLB Test counter :          0
STLB Leapfrog:          0
STLB MSHR merge:          0
STLB TOTAL     ACCESS:     105804  HIT:       9590  MISS:      96214  HIT %:    9.06393  MISS %:    90.9361   MPKI: 0.48107
STLB LOAD TRANSLATION NON_SPEC    ACCESS:     105804  HIT:       9590  MISS:      96214  HIT %:    9.06393  MISS %:    90.9361   MPKI: 0.48107
STLB PREFETCH  REQUESTED:          0  ISSUED:          0  USEFUL:          0  USELESS:          0
STLB USEFUL LOAD PREFETCHES:          0 PREFETCH ISSUED TO LOWER LEVEL:          0  ACCURACY: -nan
STLB TIMELY PREFETCHES:          0 LATE PREFETCHES: 0 DROPPED PREFETCHES: 0
STLB COMMIT LATE PREFETCHES: 0 MISSED OPPORTUNITY: 0 LATE IN PQ: 0 UNCOVERED: 0
STLB COMMIT LATE MSHR PREFETCHES: 0
STLB MPKI TOTAL: 0 MSHR LATE: 0 PQ LATE: 0 COMMIT LATE: 0 MISSED OPPORTUNITY: 0 UNCOVERED: 0
STLB PREFETCHES SAME FILL-ORIGIN LEVEL: 0 DIFFERENT FILL-ORIGIN LEVEL: 0
STLB AVERAGE MISS LATENCY: 269.777 cycles
STLB AVERAGE MISS LATENCY LOAD: -nan cycles
STLB AVERAGE MISS LATENCY PREFETCH: -nan cycles
STLB AVERAGE MSHR OCCUPANCY: 0.471164
STLB MSHR FULL: 0
STLB RQ	ACCESS:     105804	FORWARD:          0	MERGED:          0	TO_CACHE:     105804

STLB Hit, L1D data hit: 0
STLB Hit, L2C data hit: 0
STLB Hit, LLC data hit: 0
STLB Hit, LLC data miss: 0
STLB STLB hints to L2: 0
L0D SPEC fills:   30811410  NON-SPEC fills:          0
L0D TimeGuard Request with older TS:    3388436 Restricted eviction:     877737 read:     308152
L0D Test counter :          0
L0D Leapfrog:          0
L0D MSHR merge:    2535740
L0D TOTAL     ACCESS:   51157927  HIT:   11499479  MISS:   39658448  HIT %:    22.4784  MISS %:    77.5216   MPKI: 198.292
L0D LOAD      TOTAL       ACCESS:   51157927  HIT:   11499479  MISS:   39658448  HIT %:    22.4784  MISS %:    77.5216   MPKI: 198.292
L0D LOAD      NON_SPEC    ACCESS:    8074001  HIT:     104700  MISS:    7969301  HIT %:    1.29675  MISS %:    98.7032   MPKI: 39.8465
L0D LOAD      SPEC        ACCESS:   43083926  HIT:   11394779  MISS:   31689147  HIT %:    26.4479  MISS %:    73.5521   MPKI: 158.446
L0D PREFETCH  REQUESTED:          0  ISSUED:          0  USEFUL:          0  USELESS:          0
L0D USEFUL LOAD PREFETCHES:          0 PREFETCH ISSUED TO LOWER LEVEL:          0  ACCURACY: -nan
L0D TIMELY PREFETCHES:          0 LATE PREFETCHES: 0 DROPPED PREFETCHES: 0
L0D COMMIT LATE PREFETCHES: 0 MISSED OPPORTUNITY: 0 LATE IN PQ: 0 UNCOVERED: 0
L0D COMMIT LATE MSHR PREFETCHES: 0
L0D MPKI TOTAL: 210.971 MSHR LATE: 0 PQ LATE: 0 COMMIT LATE: 0 MISSED OPPORTUNITY: 0 UNCOVERED: 0
L0D PREFETCHES SAME FILL-ORIGIN LEVEL: 0 DIFFERENT FILL-ORIGIN LEVEL: 0
L0D AVERAGE MISS LATENCY: 8.09713 cycles
L0D AVERAGE MISS LATENCY LOAD: 8.09713 cycles
L0D AVERAGE MISS LATENCY PREFETCH: -nan cycles
L0D AVERAGE MSHR OCCUPANCY: 1.4986
L0D MSHR FULL: 0.000503932
L0D RQ	ACCESS:   73913389	FORWARD:          0	MERGED:   20219726	TO_CACHE:   53693663
L0D WQ	ACCESS:   10719287	FORWARD:          0	MERGED:          0	TO_CACHE:   10719287

L1D SPEC fills:          0  NON-SPEC fills:     248495
L1D Test counter :          0
L1D Leapfrog:          0
L1D MSHR merge:     148222
L1D TOTAL     ACCESS:   48085256  HIT:   39949978  MISS:    8135278  HIT %:    83.0816  MISS %:    16.9184   MPKI: 40.6764
L1D LOAD      TOTAL       ACCESS:   39510225  HIT:   35878770  MISS:    3631455  HIT %:    90.8088  MISS %:    9.19118   MPKI: 18.1573
L1D LOAD      NON_SPEC    ACCESS:    7966209  HIT:    7717714  MISS:     248495  HIT %:    96.8806  MISS %:    3.11936   MPKI: 1.24247
L1D LOAD      SPEC        ACCESS:   31544016  HIT:   28161056  MISS:    3382960  HIT %:    89.2754  MISS %:    10.7246   MPKI: 16.9148
L1D RFO       NON_SPEC    ACCESS:    2769912  HIT:    1421380  MISS:    1348532  HIT %:     51.315  MISS %:     48.685   MPKI: 6.74266
L1D COMMIT LOAD NON_SPEC    ACCESS:    2093296  HIT:    1767122  MISS:     326174  HIT %:    84.4182  MISS %:    15.5818   MPKI: 1.63087
L1D COMMIT WRITE NON_SPEC    ACCESS:    3711823  HIT:     882706  MISS:    2829117  HIT %:    23.7809  MISS %:    76.2191   MPKI: 14.1456
L1D PREFETCH  REQUESTED:          0  ISSUED:          0  USEFUL:          0  USELESS:          0
L1D USEFUL LOAD PREFETCHES:          0 PREFETCH ISSUED TO LOWER LEVEL:          0  ACCURACY: -nan
L1D TIMELY PREFETCHES:          0 LATE PREFETCHES: 0 DROPPED PREFETCHES: 0
L1D COMMIT LATE PREFETCHES: 0 MISSED OPPORTUNITY: 0 LATE IN PQ: 0 UNCOVERED: 0
L1D COMMIT LATE MSHR PREFETCHES: 0
L1D MPKI TOTAL: 18.8984 MSHR LATE: 0 PQ LATE: 0 COMMIT LATE: 0 MISSED OPPORTUNITY: 0 UNCOVERED: 0
L1D PREFETCHES SAME FILL-ORIGIN LEVEL: 0 DIFFERENT FILL-ORIGIN LEVEL: 0
L1D AVERAGE MISS LATENCY: 70.0373 cycles
L1D AVERAGE MISS LATENCY LOAD: 28.4754 cycles
L1D AVERAGE MISS LATENCY PREFETCH: -nan cycles
L1D AVERAGE MSHR OCCUPANCY: 3.69796
L1D MSHR FULL: 0.13666
L1D RQ	ACCESS:   42787467	FORWARD:          0	MERGED:     926668	TO_CACHE:   41813246
L1D WQ	ACCESS:   14450921	FORWARD:      47553	MERGED:      19814	TO_CACHE:   14431107

L1D UNIQUE REGIONS ACCESSED: 0
L1D REGIONS CONFLICTS: 0
L1D Cross Page Prefetch Requests: 0
L1D Same Page Prefetch Requests: 0
L1D ROI Sum of L1D PQ occupancy: 0
L1D PREFETCHES PUSHED FROM L2C: 0
L1I SPEC fills:          0  NON-SPEC fills:          0
L1I Test counter :          0
L1I Leapfrog:          0
L1I MSHR merge:         28
L1I TOTAL     ACCESS:   33301752  HIT:   33301702  MISS:         50  HIT %:    99.9998  MISS %: 0.000150142   MPKI: 0.00025
L1I LOAD      TOTAL       ACCESS:   33301752  HIT:   33301702  MISS:         50  HIT %:    99.9998  MISS %: 0.000150142   MPKI: 0.00025
L1I LOAD      NON_SPEC    ACCESS:   33301752  HIT:   33301702  MISS:         50  HIT %:    99.9998  MISS %: 0.000150142   MPKI: 0.00025
L1I PREFETCH  REQUESTED:          0  ISSUED:          0  USEFUL:          0  USELESS:          0
L1I USEFUL LOAD PREFETCHES:          0 PREFETCH ISSUED TO LOWER LEVEL:          0  ACCURACY: -nan
L1I TIMELY PREFETCHES:          0 LATE PREFETCHES: 0 DROPPED PREFETCHES: 0
L1I COMMIT LATE PREFETCHES: 0 MISSED OPPORTUNITY: 0 LATE IN PQ: 0 UNCOVERED: 0
L1I COMMIT LATE MSHR PREFETCHES: 0
L1I MPKI TOTAL: 0.00039 MSHR LATE: 0 PQ LATE: 0 COMMIT LATE: 0 MISSED OPPORTUNITY: 0 UNCOVERED: 0
L1I PREFETCHES SAME FILL-ORIGIN LEVEL: 0 DIFFERENT FILL-ORIGIN LEVEL: 0
L1I AVERAGE MISS LATENCY: 209.04 cycles
L1I AVERAGE MISS LATENCY LOAD: 209.04 cycles
L1I AVERAGE MISS LATENCY PREFETCH: -nan cycles
L1I AVERAGE MSHR OCCUPANCY: 2.19208e-06
L1I MSHR FULL: 0
L1I RQ	ACCESS:   52258667	FORWARD:          0	MERGED:   18956887	TO_CACHE:   33301780

BTB SPEC fills:          0  NON-SPEC fills:          0
BTB Test counter :          0
BTB Leapfrog:          0
BTB MSHR merge:          0
BTB TOTAL     ACCESS:   10637201  HIT:   10637180  MISS:         21  HIT %:    99.9998  MISS %: 0.00019742   MPKI: 0.000105
BTB BRANCH_DIRECT_JUMP	ACCESS:      26624  HIT:      26622  MISS:          2
BTB BRANCH_INDIRECT	ACCESS:          0  HIT:          0  MISS:          0
BTB BRANCH_CONDITIONAL	ACCESS:   10610577  HIT:   10610558  MISS:         19
BTB BRANCH_DIRECT_CALL	ACCESS:          0  HIT:          0  MISS:          0
BTB BRANCH_INDIRECT_CALL	ACCESS:          0  HIT:          0  MISS:          0
BTB BRANCH_RETURN	ACCESS:          0  HIT:          0  MISS:          0
BTB BRANCH_OTHER ACCESS:          0  HIT:          0  MISS:          0

L2C SPEC fills:          0  NON-SPEC fills:      10789
L2C Test counter :          0
L2C Leapfrog:          0
L2C MSHR merge:      21904
L2C TOTAL     ACCESS:   10912312  HIT:    6023864  MISS:    4888448  HIT %:    55.2025  MISS %:    44.7975   MPKI: 24.4422
L2C LOAD      TOTAL       ACCESS:    3631464  HIT:    3427396  MISS:     204068  HIT %:    94.3806  MISS %:    5.61944   MPKI: 1.02034
L2C LOAD      NON_SPEC    ACCESS:     248545  HIT:     237706  MISS:      10839  HIT %:     95.639  MISS %:    4.36098   MPKI: 0.054195
L2C LOAD      SPEC        ACCESS:    3382919  HIT:    3189690  MISS:     193229  HIT %:    94.2881  MISS %:     5.7119   MPKI: 0.966145
L2C RFO       NON_SPEC    ACCESS:    1348532  HIT:          0  MISS:    1348532  HIT %:          0  MISS %:        100   MPKI: 6.74266
L2C PREFETCH  NON_SPEC    ACCESS:    3132547  HIT:       1676  MISS:    3130871  HIT %:  0.0535028  MISS %:    99.9465   MPKI: 15.6544
L2C WRITEBACK NON_SPEC    ACCESS:    1348875  HIT:    1348856  MISS:         19  HIT %:    99.9986  MISS %: 0.00140858   MPKI: 9.5e-05
L2C CLEAN_EVICTION NON_SPEC    ACCESS:     643801  HIT:     463990  MISS:     179811  HIT %:    72.0704  MISS %:    27.9296   MPKI: 0.899055
L2C COMMIT LOAD NON_SPEC    ACCESS:     326174  HIT:     320676  MISS:       5498  HIT %:    98.3144  MISS %:     1.6856   MPKI: 0.02749
L2C LOAD TRANSLATION NON_SPEC    ACCESS:     480919  HIT:     461270  MISS:      19649  HIT %:    95.9143  MISS %:    4.08572   MPKI: 0.098245
L2C PREFETCH  REQUESTED:    3168632  ISSUED:    3168632  USEFUL:    2770500  USELESS:     360810
L2C USEFUL LOAD PREFETCHES:    2770500 PREFETCH ISSUED TO LOWER LEVEL:    3152776  ACCURACY: 87.8749
L2C TIMELY PREFETCHES:    2770500 LATE PREFETCHES: 21904 DROPPED PREFETCHES: 0
L2C COMMIT LATE PREFETCHES: 0 MISSED OPPORTUNITY: 0 LATE IN PQ: 0 UNCOVERED: 0
L2C COMMIT LATE MSHR PREFETCHES: 0
L2C MPKI TOTAL: 1.02034 MSHR LATE: 0.10952 PQ LATE: 0 COMMIT LATE: 0 MISSED OPPORTUNITY: 0 UNCOVERED: 0
L2C PREFETCHES SAME FILL-ORIGIN LEVEL: 3152776 DIFFERENT FILL-ORIGIN LEVEL: 0
L2C AVERAGE MISS LATENCY: 301.135 cycles
L2C AVERAGE MISS LATENCY LOAD: 279.321 cycles
L2C AVERAGE MISS LATENCY PREFETCH: 310.257 cycles
L2C AVERAGE MSHR OCCUPANCY: 12.2923
L2C MSHR FULL: 0.259701
L2C RQ	ACCESS:    5787142	FORWARD:          0	MERGED:          0	TO_CACHE:    5787101
L2C WQ	ACCESS:    1992677	FORWARD:         41	MERGED:          0	TO_CACHE:    1992677
L2C PQ	ACCESS:    3168632	FORWARD:          0	MERGED:          0	TO_CACHE:    3168632

L2C Instructions Evicting Data 50
L2C Translations Evicting Data 19604
L2C Data Evicting Data 4476820
L2C Instructions Evicting Instructions 0
L2C Translations Evicting Instructions 0
L2C Data Evicting Instructions 46
L2C Instructions Evicting Translations 0
L2C Translations Evicting Translations 45
L2C Data Evicting Translations 18824
L2C Dense regions hint from L2: 0
PSCL5 SPEC fills:          0  NON-SPEC fills:          0
PSCL5 Test counter :          0
PSCL5 Leapfrog:          0
PSCL5 MSHR merge:          0
PSCL5 TOTAL     ACCESS:          0  HIT:          0  MISS:          0  HIT %:       -nan  MISS %:       -nan   MPKI: 0
PSCL5 PREFETCH  REQUESTED:          0  ISSUED:          0  USEFUL:          0  USELESS:          0
PSCL5 USEFUL LOAD PREFETCHES:          0 PREFETCH ISSUED TO LOWER LEVEL:          0  ACCURACY: -nan
PSCL5 TIMELY PREFETCHES:          0 LATE PREFETCHES: 0 DROPPED PREFETCHES: 0
PSCL5 COMMIT LATE PREFETCHES: 0 MISSED OPPORTUNITY: 0 LATE IN PQ: 0 UNCOVERED: 0
PSCL5 COMMIT LATE MSHR PREFETCHES: 0
PSCL5 MPKI TOTAL: 0 MSHR LATE: 0 PQ LATE: 0 COMMIT LATE: 0 MISSED OPPORTUNITY: 0 UNCOVERED: 0
PSCL5 PREFETCHES SAME FILL-ORIGIN LEVEL: 0 DIFFERENT FILL-ORIGIN LEVEL: 0

PSCL4 SPEC fills:          0  NON-SPEC fills:          0
PSCL4 Test counter :          0
PSCL4 Leapfrog:          0
PSCL4 MSHR merge:          0
PSCL4 TOTAL     ACCESS:          0  HIT:          0  MISS:          0  HIT %:       -nan  MISS %:       -nan   MPKI: 0
PSCL4 PREFETCH  REQUESTED:          0  ISSUED:          0  USEFUL:          0  USELESS:          0
PSCL4 USEFUL LOAD PREFETCHES:          0 PREFETCH ISSUED TO LOWER LEVEL:          0  ACCURACY: -nan
PSCL4 TIMELY PREFETCHES:          0 LATE PREFETCHES: 0 DROPPED PREFETCHES: 0
PSCL4 COMMIT LATE PREFETCHES: 0 MISSED OPPORTUNITY: 0 LATE IN PQ: 0 UNCOVERED: 0
PSCL4 COMMIT LATE MSHR PREFETCHES: 0
PSCL4 MPKI TOTAL: 0 MSHR LATE: 0 PQ LATE: 0 COMMIT LATE: 0 MISSED OPPORTUNITY: 0 UNCOVERED: 0
PSCL4 PREFETCHES SAME FILL-ORIGIN LEVEL: 0 DIFFERENT FILL-ORIGIN LEVEL: 0

PSCL3 SPEC fills:          0  NON-SPEC fills:          0
PSCL3 Test counter :          0
PSCL3 Leapfrog:          0
PSCL3 MSHR merge:          0
PSCL3 TOTAL     ACCESS:          0  HIT:          0  MISS:          0  HIT %:       -nan  MISS %:       -nan   MPKI: 0
PSCL3 PREFETCH  REQUESTED:          0  ISSUED:          0  USEFUL:          0  USELESS:          0
PSCL3 USEFUL LOAD PREFETCHES:          0 PREFETCH ISSUED TO LOWER LEVEL:          0  ACCURACY: -nan
PSCL3 TIMELY PREFETCHES:          0 LATE PREFETCHES: 0 DROPPED PREFETCHES: 0
PSCL3 COMMIT LATE PREFETCHES: 0 MISSED OPPORTUNITY: 0 LATE IN PQ: 0 UNCOVERED: 0
PSCL3 COMMIT LATE MSHR PREFETCHES: 0
PSCL3 MPKI TOTAL: 0 MSHR LATE: 0 PQ LATE: 0 COMMIT LATE: 0 MISSED OPPORTUNITY: 0 UNCOVERED: 0
PSCL3 PREFETCHES SAME FILL-ORIGIN LEVEL: 0 DIFFERENT FILL-ORIGIN LEVEL: 0

PSCL2 SPEC fills:          0  NON-SPEC fills:          0
PSCL2 Test counter :          0
PSCL2 Leapfrog:          0
PSCL2 MSHR merge:          0
PSCL2 TOTAL     ACCESS:          0  HIT:          0  MISS:          0  HIT %:       -nan  MISS %:       -nan   MPKI: 0
PSCL2 PREFETCH  REQUESTED:          0  ISSUED:          0  USEFUL:          0  USELESS:          0
PSCL2 USEFUL LOAD PREFETCHES:          0 PREFETCH ISSUED TO LOWER LEVEL:          0  ACCURACY: -nan
PSCL2 TIMELY PREFETCHES:          0 LATE PREFETCHES: 0 DROPPED PREFETCHES: 0
PSCL2 COMMIT LATE PREFETCHES: 0 MISSED OPPORTUNITY: 0 LATE IN PQ: 0 UNCOVERED: 0
PSCL2 COMMIT LATE MSHR PREFETCHES: 0
PSCL2 MPKI TOTAL: 0 MSHR LATE: 0 PQ LATE: 0 COMMIT LATE: 0 MISSED OPPORTUNITY: 0 UNCOVERED: 0
PSCL2 PREFETCHES SAME FILL-ORIGIN LEVEL: 0 DIFFERENT FILL-ORIGIN LEVEL: 0

LLC SPEC fills:          0  NON-SPEC fills:       9964
LLC Test counter :          0
LLC Leapfrog:          0
LLC MSHR merge:          0
LLC TOTAL     ACCESS:    6694222  HIT:    1830980  MISS:    4863242  HIT %:    27.3516  MISS %:    72.6484   MPKI: 24.3162
LLC LOAD      TOTAL       ACCESS:     182164  HIT:       2882  MISS:     179282  HIT %:    1.58209  MISS %:    98.4179   MPKI: 0.89641
LLC LOAD      NON_SPEC    ACCESS:      10025  HIT:         11  MISS:      10014  HIT %:   0.109726  MISS %:    99.8903   MPKI: 0.05007
LLC LOAD      SPEC        ACCESS:     172139  HIT:       2871  MISS:     169268  HIT %:    1.66784  MISS %:    98.3322   MPKI: 0.84634
LLC RFO       NON_SPEC    ACCESS:    1348532  HIT:          0  MISS:    1348532  HIT %:          0  MISS %:        100   MPKI: 6.74266
LLC PREFETCH  NON_SPEC    ACCESS:    3152775  HIT:        746  MISS:    3152029  HIT %:  0.0236617  MISS %:    99.9763   MPKI: 15.7601
LLC WRITEBACK NON_SPEC    ACCESS:    1345507  HIT:    1345488  MISS:         19  HIT %:    99.9986  MISS %: 0.00141211   MPKI: 9.5e-05
LLC CLEAN_EVICTION NON_SPEC    ACCESS:     640097  HIT:     481757  MISS:     158340  HIT %:    75.2631  MISS %:    24.7369   MPKI: 0.7917
LLC COMMIT LOAD NON_SPEC    ACCESS:       5498  HIT:        107  MISS:       5391  HIT %:    1.94616  MISS %:    98.0538   MPKI: 0.026955
LLC LOAD TRANSLATION NON_SPEC    ACCESS:      19649  HIT:          0  MISS:      19649  HIT %:          0  MISS %:        100   MPKI: 0.098245
LLC PREFETCH  REQUESTED:          0  ISSUED:          0  USEFUL:       2370  USELESS:    3160596
LLC USEFUL LOAD PREFETCHES:       2370 PREFETCH ISSUED TO LOWER LEVEL:    3152030  ACCURACY: 0.0751896
LLC TIMELY PREFETCHES:       2370 LATE PREFETCHES: 0 DROPPED PREFETCHES: 0
LLC COMMIT LATE PREFETCHES: 0 MISSED OPPORTUNITY: 0 LATE IN PQ: 0 UNCOVERED: 0
LLC COMMIT LATE MSHR PREFETCHES: 0
LLC MPKI TOTAL: 0.89641 MSHR LATE: 0 PQ LATE: 0 COMMIT LATE: 0 MISSED OPPORTUNITY: 0 UNCOVERED: 0
LLC PREFETCHES SAME FILL-ORIGIN LEVEL: 0 DIFFERENT FILL-ORIGIN LEVEL: 0
LLC AVERAGE MISS LATENCY: 275.102 cycles
LLC AVERAGE MISS LATENCY LOAD: 249.323 cycles
LLC AVERAGE MISS LATENCY PREFETCH: 282.92 cycles
LLC AVERAGE MSHR OCCUPANCY: 6.15064
LLC MSHR FULL: 0
LLC RQ	ACCESS:    1555855	FORWARD:          0	MERGED:          0	TO_CACHE:    1555855
LLC WQ	ACCESS:    1985607	FORWARD:          0	MERGED:          0	TO_CACHE:    1985607
LLC PQ	ACCESS:    3152776	FORWARD:          0	MERGED:          0	TO_CACHE:    3152776

LLC Dense regions hint to LLC: 0

RAW hits: 17
Loads Generated: 73913408
Loads sent to L1D: 73913389
Stores Generated: 10719302
Stores sent to L1D: 10719287
Major fault: 0 Minor fault: 51871
Allocated PAGES: 51871
Total Load insts: 92757218
Total Non-spec loads: 8601725
Percentage of speculative loads: 90.7266

LeapFrogging counter: 309684
Commit hits: 28832975 miss: 36968169
Commit hit %: 43.8183 miss %: 56.1817
Commits not translated: 0
Loads retired: 3631453
Stores retired: 10719287
Cache fills: 3631455
L1D response latency: 28.4754 cycles
Load retirement latency: 93.1441 cycles
OOO test counter: 0
Discarded buffer inserts: 28832975 hits: 90427 hit %: 0.313624
Filter prediction accuracy: 99.6932
[Bingo] PHT Access: 117870
[Bingo] PHT Hit PC+Addr: 4443
[Bingo] PHT Hit PC+Offs: 112344
[Bingo] PHT Miss: 1083
[Bingo] Prefetch PC+Addr: 0
[Bingo] Prefetch PC+Offs: 0
[Bingo] Useful PC+Addr: 0
[Bingo] Useful PC+Offs: 0
[Bingo] Useless PC+Addr: 0
[Bingo] Useless PC+Offs: 0
[Bingo] L1 Prefetch per Region: 0
[Bingo] L2 Prefetch per Region: 28.6141
[Bingo] L3 Prefetch per Region: 0
[Bingo] No Prefetch per Region: 3.38586
[Bingo] Number of Voters Mean: 15.5995
[Bingo] Number of Voters SD: 7.96398
PHT read accesses: 1812124
PHT write accesses: 116160
AT read accesses: 3536197
AT write accesses: 3622905
FT read accesses: 363789
FT write accesses: 117870
PS read accesses: 457690
PS write accesses: 116787
PHT tag read accesses: 5477019
PHT tag write accesses: 120603
AT tag read accesses: 138577750
AT tag write accesses: 3652357
FT tag read accesses: 82936372
FT tag write accesses: 358700
PS tag read accesses: 62689330
PS tag write accesses: 574198

DRAM Statistics
 CHANNEL 0
 RQ ROW_BUFFER_HIT:    2089747  ROW_BUFFER_MISS:    2615136
 DBUS_CONGESTED:       1787
 WQ ROW_BUFFER_HIT:     566010  ROW_BUFFER_MISS:    1412188  FULL:       3968

 AVG_CONGESTED_CYCLE: 5
 All warmup complete: 2
Channel 0 Bank busy for read cycles: 0
Channel 0 Bank busy for write cycles: 0
Channel 0
Rank 0
0banks busy for read cycles: 31219625
0banks busy for write cycles: 58557
1banks busy for read cycles: 49315483
1banks busy for write cycles: 8959139
2banks busy for read cycles: 30412777
2banks busy for write cycles: 3811372
3banks busy for read cycles: 5714095
3banks busy for write cycles: 2709989
4banks busy for read cycles: 4133633
4banks busy for write cycles: 2384295
5banks busy for read cycles: 3369873
5banks busy for write cycles: 2274228
6banks busy for read cycles: 4052392
6banks busy for write cycles: 2407830
7banks busy for read cycles: 7112700
7banks busy for write cycles: 4836992
8banks busy for read cycles: 34938053
8banks busy for write cycles: 39146454

CPU 0 Branch Prediction Accuracy: 99.8819% MPKI: 0.062825 Average ROB Occupancy at Mispredict: 190.338
Branch types
NOT_BRANCH: 189359484 94.6797%
BRANCH_DIRECT_JUMP: 26624 0.013312%
BRANCH_INDIRECT: 0 0%
BRANCH_CONDITIONAL: 10613680 5.30684%
BRANCH_DIRECT_CALL: 0 0%
BRANCH_INDIRECT_CALL: 0 0%
BRANCH_RETURN: 0 0%
BRANCH_OTHER: 0 0%

DRAM PAGES: 1048576
Allocated PAGES: 51871
