
*** ChampSim Multicore Out-of-Order Simulator ***

Warmup Instructions: 50000000
Simulation Instructions: 200000000
Number of CPUs: 1
LLC sets: 2048
LLC ways: 16
L0D sets: 16
L0D ways: 2
ROB size: 352
LQ size: 128
SQ size: 72
Secure Berti: OFF
Berti: OFF
Berti Fill: OFF
On commit prefetching: OFF
Hit-based filter: ON
Time-guarding: ON
Free-slotting: ON
Leap-frogging: ON
Train prefetcher on L0D bypass: OFF
No translation penalty for prefetchers: OFF
Prefetch to L0D only: OFF
Prefetch to L1D only: OFF
Clean evictions: ON
Commit loads: ON
Commit write: ON
Fill commit loads to L2C, LLC: ON
DRAM IO FREQUENCY: 6400
ROB SIZE: 352
Off-chip DRAM Size: 4096 MB Channels: 1 Width: 64-bit Data Rate: 6400 MT/s
CPU 0 runs /home/sumon/secure_berti/GhostMinion/../../traces/spec/654.roms_s-523B.champsimtrace.xz
.xz
BTB has LRU replacement policy
ITLB has LRU replacement policy
DTLB has LRU replacement policy
STLB has LRU replacement policy
L1I has LRU replacement policy
L0D has LRU replacement policy
L1D has LRU replacement policy
Bingo PHT WAYS: 16 and PHT_SIZE: 16384
L2C has LRU replacement policy
LLC has LRU replacement policy
Heartbeat CPU 0 instructions: 10000002 cycles: 3277426 heartbeat IPC: 3.05118 cumulative IPC: 3.05118 (Simulation time: 0 hr 0 min 25 sec) 
Heartbeat CPU 0 instructions: 20000003 cycles: 6461492 heartbeat IPC: 3.14064 cumulative IPC: 3.09526 (Simulation time: 0 hr 0 min 48 sec) 
Heartbeat CPU 0 instructions: 30000003 cycles: 10301201 heartbeat IPC: 2.60436 cumulative IPC: 2.91228 (Simulation time: 0 hr 1 min 22 sec) 
Heartbeat CPU 0 instructions: 40000001 cycles: 13730165 heartbeat IPC: 2.91633 cumulative IPC: 2.91329 (Simulation time: 0 hr 1 min 49 sec) 
Heartbeat CPU 0 instructions: 50000001 cycles: 17149221 heartbeat IPC: 2.92478 cumulative IPC: 2.91558 (Simulation time: 0 hr 2 min 21 sec) 

Warmup complete CPU 0 instructions: 50000001 cycles: 17149221 (Simulation time: 0 hr 2 min 21 sec) 

Heartbeat CPU 0 instructions: 60000003 cycles: 29210646 heartbeat IPC: 0.82909 cumulative IPC: 0.82909 (Simulation time: 0 hr 3 min 4 sec) 
Heartbeat CPU 0 instructions: 70000000 cycles: 40942635 heartbeat IPC: 0.85237 cumulative IPC: 0.840569 (Simulation time: 0 hr 3 min 48 sec) 
Heartbeat CPU 0 instructions: 80000000 cycles: 50491305 heartbeat IPC: 1.04727 cumulative IPC: 0.899764 (Simulation time: 0 hr 4 min 30 sec) 
Heartbeat CPU 0 instructions: 90000003 cycles: 62054181 heartbeat IPC: 0.864837 cumulative IPC: 0.89077 (Simulation time: 0 hr 5 min 5 sec) 
Heartbeat CPU 0 instructions: 100000001 cycles: 73475207 heartbeat IPC: 0.875578 cumulative IPC: 0.88769 (Simulation time: 0 hr 5 min 36 sec) 
Heartbeat CPU 0 instructions: 110000000 cycles: 87513800 heartbeat IPC: 0.712322 cumulative IPC: 0.852702 (Simulation time: 0 hr 6 min 25 sec) 
Heartbeat CPU 0 instructions: 120000001 cycles: 102538050 heartbeat IPC: 0.665591 cumulative IPC: 0.819779 (Simulation time: 0 hr 7 min 10 sec) 
Heartbeat CPU 0 instructions: 130000002 cycles: 114110040 heartbeat IPC: 0.864156 cumulative IPC: 0.825076 (Simulation time: 0 hr 7 min 55 sec) 
Heartbeat CPU 0 instructions: 140000001 cycles: 125530530 heartbeat IPC: 0.875619 cumulative IPC: 0.830401 (Simulation time: 0 hr 8 min 41 sec) 
Heartbeat CPU 0 instructions: 150000003 cycles: 136566223 heartbeat IPC: 0.906151 cumulative IPC: 0.837402 (Simulation time: 0 hr 9 min 27 sec) 
Heartbeat CPU 0 instructions: 160000002 cycles: 145829699 heartbeat IPC: 1.07951 cumulative IPC: 0.854831 (Simulation time: 0 hr 10 min 10 sec) 
Heartbeat CPU 0 instructions: 170000001 cycles: 157567576 heartbeat IPC: 0.851943 cumulative IPC: 0.854589 (Simulation time: 0 hr 10 min 47 sec) 
Heartbeat CPU 0 instructions: 180000001 cycles: 168844014 heartbeat IPC: 0.886805 cumulative IPC: 0.856984 (Simulation time: 0 hr 11 min 17 sec) 
Heartbeat CPU 0 instructions: 190000003 cycles: 182771215 heartbeat IPC: 0.718019 cumulative IPC: 0.845298 (Simulation time: 0 hr 12 min 6 sec) 
Heartbeat CPU 0 instructions: 200000003 cycles: 197825362 heartbeat IPC: 0.664269 cumulative IPC: 0.830215 (Simulation time: 0 hr 12 min 51 sec) 
Heartbeat CPU 0 instructions: 210000003 cycles: 209489172 heartbeat IPC: 0.857353 cumulative IPC: 0.83186 (Simulation time: 0 hr 13 min 34 sec) 
Heartbeat CPU 0 instructions: 220000000 cycles: 221287725 heartbeat IPC: 0.847561 cumulative IPC: 0.832768 (Simulation time: 0 hr 14 min 16 sec) 
Heartbeat CPU 0 instructions: 230000000 cycles: 232184017 heartbeat IPC: 0.917743 cumulative IPC: 0.837074 (Simulation time: 0 hr 14 min 57 sec) 
Heartbeat CPU 0 instructions: 240000000 cycles: 241423086 heartbeat IPC: 1.08236 cumulative IPC: 0.847179 (Simulation time: 0 hr 15 min 34 sec) 
Heartbeat CPU 0 instructions: 250000001 cycles: 253126922 heartbeat IPC: 0.854421 cumulative IPC: 0.847538 (Simulation time: 0 hr 16 min 4 sec) 
Finished CPU 0 instructions: 200000000 cycles: 235977701 cumulative IPC: 0.847538 (Simulation time: 0 hr 16 min 4 sec) 
 Instruction ID: 250000054

ChampSim completed all CPUs

Region of Interest Statistics

CPU 0 cumulative IPC: 0.847538 instructions: 200000000 cycles: 235977701
ITLB SPEC fills:          0  NON-SPEC fills:          0
ITLB Test counter :          0
ITLB Leapfrog:          0
ITLB MSHR merge:          0
ITLB TOTAL     ACCESS:   30439416  HIT:   30439416  MISS:          0  HIT %:        100  MISS %:          0   MPKI: 0
ITLB LOAD TRANSLATION NON_SPEC    ACCESS:   30439416  HIT:   30439416  MISS:          0  HIT %:        100  MISS %:          0   MPKI: 0
ITLB PREFETCH  REQUESTED:          0  ISSUED:          0  USEFUL:          0  USELESS:          0
ITLB USEFUL LOAD PREFETCHES:          0 PREFETCH ISSUED TO LOWER LEVEL:          0  ACCURACY: -nan
ITLB TIMELY PREFETCHES:          0 LATE PREFETCHES: 0 DROPPED PREFETCHES: 0
ITLB COMMIT LATE PREFETCHES: 0 MISSED OPPORTUNITY: 0 LATE IN PQ: 0 UNCOVERED: 0
ITLB COMMIT LATE MSHR PREFETCHES: 0
ITLB MPKI TOTAL: 0 MSHR LATE: 0 PQ LATE: 0 COMMIT LATE: 0 MISSED OPPORTUNITY: 0 UNCOVERED: 0
ITLB PREFETCHES SAME FILL-ORIGIN LEVEL: 0 DIFFERENT FILL-ORIGIN LEVEL: 0
ITLB AVERAGE MISS LATENCY: -nan cycles
ITLB AVERAGE MISS LATENCY LOAD: -nan cycles
ITLB AVERAGE MISS LATENCY PREFETCH: -nan cycles
ITLB AVERAGE MSHR OCCUPANCY: 0
ITLB MSHR FULL: 0
ITLB RQ	ACCESS:   36147569	FORWARD:          0	MERGED:    5708153	TO_CACHE:   30439416

DTLB SPEC fills:          0  NON-SPEC fills:          0
DTLB Test counter :          0
DTLB Leapfrog:          0
DTLB MSHR merge:          0
DTLB TOTAL     ACCESS:   59400442  HIT:   59299823  MISS:     100619  HIT %:    99.8306  MISS %:   0.169391   MPKI: 0.503095
DTLB LOAD TRANSLATION NON_SPEC    ACCESS:   59400442  HIT:   59299823  MISS:     100619  HIT %:    99.8306  MISS %:   0.169391   MPKI: 0.503095
DTLB PREFETCH  REQUESTED:          0  ISSUED:          0  USEFUL:          0  USELESS:          0
DTLB USEFUL LOAD PREFETCHES:          0 PREFETCH ISSUED TO LOWER LEVEL:          0  ACCURACY: -nan
DTLB TIMELY PREFETCHES:          0 LATE PREFETCHES: 0 DROPPED PREFETCHES: 0
DTLB COMMIT LATE PREFETCHES: 0 MISSED OPPORTUNITY: 0 LATE IN PQ: 0 UNCOVERED: 0
DTLB COMMIT LATE MSHR PREFETCHES: 0
DTLB MPKI TOTAL: 0 MSHR LATE: 0 PQ LATE: 0 COMMIT LATE: 0 MISSED OPPORTUNITY: 0 UNCOVERED: 0
DTLB PREFETCHES SAME FILL-ORIGIN LEVEL: 0 DIFFERENT FILL-ORIGIN LEVEL: 0
DTLB AVERAGE MISS LATENCY: 198.714 cycles
DTLB AVERAGE MISS LATENCY LOAD: -nan cycles
DTLB AVERAGE MISS LATENCY PREFETCH: -nan cycles
DTLB AVERAGE MSHR OCCUPANCY: 0.0318403
DTLB MSHR FULL: 0
DTLB RQ	ACCESS:   67693626	FORWARD:          0	MERGED:    8159536	TO_CACHE:   59534090

STLB SPEC fills:          0  NON-SPEC fills:          0
STLB Test counter :          0
STLB Leapfrog:          0
STLB MSHR merge:          0
STLB TOTAL     ACCESS:     100619  HIT:        786  MISS:      99833  HIT %:   0.781165  MISS %:    99.2188   MPKI: 0.499165
STLB LOAD TRANSLATION NON_SPEC    ACCESS:     100619  HIT:        786  MISS:      99833  HIT %:   0.781165  MISS %:    99.2188   MPKI: 0.499165
STLB PREFETCH  REQUESTED:          0  ISSUED:          0  USEFUL:          0  USELESS:          0
STLB USEFUL LOAD PREFETCHES:          0 PREFETCH ISSUED TO LOWER LEVEL:          0  ACCURACY: -nan
STLB TIMELY PREFETCHES:          0 LATE PREFETCHES: 0 DROPPED PREFETCHES: 0
STLB COMMIT LATE PREFETCHES: 0 MISSED OPPORTUNITY: 0 LATE IN PQ: 0 UNCOVERED: 0
STLB COMMIT LATE MSHR PREFETCHES: 0
STLB MPKI TOTAL: 0 MSHR LATE: 0 PQ LATE: 0 COMMIT LATE: 0 MISSED OPPORTUNITY: 0 UNCOVERED: 0
STLB PREFETCHES SAME FILL-ORIGIN LEVEL: 0 DIFFERENT FILL-ORIGIN LEVEL: 0
STLB AVERAGE MISS LATENCY: 191.123 cycles
STLB AVERAGE MISS LATENCY LOAD: -nan cycles
STLB AVERAGE MISS LATENCY PREFETCH: -nan cycles
STLB AVERAGE MSHR OCCUPANCY: 0.188126
STLB MSHR FULL: 0
STLB RQ	ACCESS:     100619	FORWARD:          0	MERGED:          0	TO_CACHE:     100619

STLB Hit, L1D data hit: 0
STLB Hit, L2C data hit: 0
STLB Hit, LLC data hit: 0
STLB Hit, LLC data miss: 0
STLB STLB hints to L2: 0
L0D SPEC fills:   29865157  NON-SPEC fills:          0
L0D TimeGuard Request with older TS:     659981 Restricted eviction:     174675 read:     965415
L0D Test counter :          0
L0D Leapfrog:          0
L0D MSHR merge:    4596296
L0D TOTAL     ACCESS:   51693573  HIT:   16431624  MISS:   35261949  HIT %:    31.7866  MISS %:    68.2134   MPKI: 176.31
L0D LOAD      TOTAL       ACCESS:   51693573  HIT:   16431624  MISS:   35261949  HIT %:    31.7866  MISS %:    68.2134   MPKI: 176.31
L0D LOAD      NON_SPEC    ACCESS:    5628530  HIT:     406407  MISS:    5222123  HIT %:    7.22048  MISS %:    92.7795   MPKI: 26.1106
L0D LOAD      SPEC        ACCESS:   46065043  HIT:   16025217  MISS:   30039826  HIT %:    34.7882  MISS %:    65.2118   MPKI: 150.199
L0D PREFETCH  REQUESTED:          0  ISSUED:          0  USEFUL:          0  USELESS:          0
L0D USEFUL LOAD PREFETCHES:          0 PREFETCH ISSUED TO LOWER LEVEL:          0  ACCURACY: -nan
L0D TIMELY PREFETCHES:          0 LATE PREFETCHES: 0 DROPPED PREFETCHES: 0
L0D COMMIT LATE PREFETCHES: 0 MISSED OPPORTUNITY: 0 LATE IN PQ: 0 UNCOVERED: 0
L0D COMMIT LATE MSHR PREFETCHES: 0
L0D MPKI TOTAL: 199.291 MSHR LATE: 0 PQ LATE: 0 COMMIT LATE: 0 MISSED OPPORTUNITY: 0 UNCOVERED: 0
L0D PREFETCHES SAME FILL-ORIGIN LEVEL: 0 DIFFERENT FILL-ORIGIN LEVEL: 0
L0D AVERAGE MISS LATENCY: 8.41525 cycles
L0D AVERAGE MISS LATENCY LOAD: 8.41525 cycles
L0D AVERAGE MISS LATENCY PREFETCH: -nan cycles
L0D AVERAGE MSHR OCCUPANCY: 1.42598
L0D MSHR FULL: 0.000195105
L0D RQ	ACCESS:   74181957	FORWARD:          0	MERGED:   17892097	TO_CACHE:   56289860
L0D WQ	ACCESS:   11403766	FORWARD:          0	MERGED:          0	TO_CACHE:   11403766

L1D SPEC fills:          0  NON-SPEC fills:     336740
L1D Test counter :          0
L1D Leapfrog:          0
L1D MSHR merge:       8192
L1D TOTAL     ACCESS:   45103829  HIT:   37377546  MISS:    7726283  HIT %:      82.87  MISS %:      17.13   MPKI: 38.6314
L1D LOAD      TOTAL       ACCESS:   35253757  HIT:   31657469  MISS:    3596288  HIT %:    89.7989  MISS %:    10.2011   MPKI: 17.9814
L1D LOAD      NON_SPEC    ACCESS:    5221762  HIT:    4885022  MISS:     336740  HIT %:    93.5512  MISS %:    6.44878   MPKI: 1.6837
L1D LOAD      SPEC        ACCESS:   30031995  HIT:   26772447  MISS:    3259548  HIT %:    89.1464  MISS %:    10.8536   MPKI: 16.2977
L1D RFO       NON_SPEC    ACCESS:    3801058  HIT:    2592320  MISS:    1208738  HIT %:       68.2  MISS %:       31.8   MPKI: 6.04369
L1D COMMIT LOAD NON_SPEC    ACCESS:    2103226  HIT:    2080929  MISS:      22297  HIT %:    98.9399  MISS %:    1.06013   MPKI: 0.111485
L1D COMMIT WRITE NON_SPEC    ACCESS:    3945788  HIT:    1046828  MISS:    2898960  HIT %:    26.5303  MISS %:    73.4697   MPKI: 14.4948
L1D PREFETCH  REQUESTED:          0  ISSUED:          0  USEFUL:          0  USELESS:          0
L1D USEFUL LOAD PREFETCHES:          0 PREFETCH ISSUED TO LOWER LEVEL:          0  ACCURACY: -nan
L1D TIMELY PREFETCHES:          0 LATE PREFETCHES: 0 DROPPED PREFETCHES: 0
L1D COMMIT LATE PREFETCHES: 0 MISSED OPPORTUNITY: 0 LATE IN PQ: 0 UNCOVERED: 0
L1D COMMIT LATE MSHR PREFETCHES: 0
L1D MPKI TOTAL: 18.0224 MSHR LATE: 0 PQ LATE: 0 COMMIT LATE: 0 MISSED OPPORTUNITY: 0 UNCOVERED: 0
L1D PREFETCHES SAME FILL-ORIGIN LEVEL: 0 DIFFERENT FILL-ORIGIN LEVEL: 0
L1D AVERAGE MISS LATENCY: 67.7903 cycles
L1D AVERAGE MISS LATENCY LOAD: 31.9343 cycles
L1D AVERAGE MISS LATENCY PREFETCH: -nan cycles
L1D AVERAGE MSHR OCCUPANCY: 2.29089
L1D MSHR FULL: 0.00535578
L1D RQ	ACCESS:   39017773	FORWARD:          0	MERGED:    1527393	TO_CACHE:   37389784
L1D WQ	ACCESS:   15392078	FORWARD:     100596	MERGED:     167446	TO_CACHE:   15224632

L1D UNIQUE REGIONS ACCESSED: 0
L1D REGIONS CONFLICTS: 0
L1D Cross Page Prefetch Requests: 0
L1D Same Page Prefetch Requests: 0
L1D ROI Sum of L1D PQ occupancy: 0
L1D PREFETCHES PUSHED FROM L2C: 0
L1I SPEC fills:          0  NON-SPEC fills:          0
L1I Test counter :          0
L1I Leapfrog:          0
L1I MSHR merge:         15
L1I TOTAL     ACCESS:   36147555  HIT:   36147523  MISS:         32  HIT %:    99.9999  MISS %: 8.8526e-05   MPKI: 0.00016
L1I LOAD      TOTAL       ACCESS:   36147555  HIT:   36147523  MISS:         32  HIT %:    99.9999  MISS %: 8.8526e-05   MPKI: 0.00016
L1I LOAD      NON_SPEC    ACCESS:   36147555  HIT:   36147523  MISS:         32  HIT %:    99.9999  MISS %: 8.8526e-05   MPKI: 0.00016
L1I PREFETCH  REQUESTED:          0  ISSUED:          0  USEFUL:          0  USELESS:          0
L1I USEFUL LOAD PREFETCHES:          0 PREFETCH ISSUED TO LOWER LEVEL:          0  ACCURACY: -nan
L1I TIMELY PREFETCHES:          0 LATE PREFETCHES: 0 DROPPED PREFETCHES: 0
L1I COMMIT LATE PREFETCHES: 0 MISSED OPPORTUNITY: 0 LATE IN PQ: 0 UNCOVERED: 0
L1I COMMIT LATE MSHR PREFETCHES: 0
L1I MPKI TOTAL: 0.000235 MSHR LATE: 0 PQ LATE: 0 COMMIT LATE: 0 MISSED OPPORTUNITY: 0 UNCOVERED: 0
L1I PREFETCHES SAME FILL-ORIGIN LEVEL: 0 DIFFERENT FILL-ORIGIN LEVEL: 0
L1I AVERAGE MISS LATENCY: 281.844 cycles
L1I AVERAGE MISS LATENCY LOAD: 281.844 cycles
L1I AVERAGE MISS LATENCY PREFETCH: -nan cycles
L1I AVERAGE MSHR OCCUPANCY: 1.13424e-06
L1I MSHR FULL: 0
L1I RQ	ACCESS:   53418856	FORWARD:          0	MERGED:   17271287	TO_CACHE:   36147569

BTB SPEC fills:          0  NON-SPEC fills:          0
BTB Test counter :          0
BTB Leapfrog:          0
BTB MSHR merge:          0
BTB TOTAL     ACCESS:   12959621  HIT:   12959575  MISS:         46  HIT %:    99.9996  MISS %: 0.000354949   MPKI: 0.00023
BTB BRANCH_DIRECT_JUMP	ACCESS:    1451293  HIT:    1451288  MISS:          5
BTB BRANCH_INDIRECT	ACCESS:          0  HIT:          0  MISS:          0
BTB BRANCH_CONDITIONAL	ACCESS:   11508328  HIT:   11508287  MISS:         41
BTB BRANCH_DIRECT_CALL	ACCESS:          0  HIT:          0  MISS:          0
BTB BRANCH_INDIRECT_CALL	ACCESS:          0  HIT:          0  MISS:          0
BTB BRANCH_RETURN	ACCESS:          0  HIT:          0  MISS:          0
BTB BRANCH_OTHER ACCESS:          0  HIT:          0  MISS:          0

L2C SPEC fills:          0  NON-SPEC fills:      29766
L2C Test counter :          0
L2C Leapfrog:          0
L2C MSHR merge:      40042
L2C TOTAL     ACCESS:   11131800  HIT:    5969549  MISS:    5162251  HIT %:    53.6261  MISS %:    46.3739   MPKI: 25.8113
L2C LOAD      TOTAL       ACCESS:    3596271  HIT:    3293364  MISS:     302907  HIT %:    91.5772  MISS %:    8.42281   MPKI: 1.51453
L2C LOAD      NON_SPEC    ACCESS:     336771  HIT:     306973  MISS:      29798  HIT %:    91.1519  MISS %:    8.84815   MPKI: 0.14899
L2C LOAD      SPEC        ACCESS:    3259500  HIT:    2986391  MISS:     273109  HIT %:    91.6211  MISS %:    8.37886   MPKI: 1.36555
L2C RFO       NON_SPEC    ACCESS:    1208738  HIT:        536  MISS:    1208202  HIT %:  0.0443438  MISS %:    99.9557   MPKI: 6.04101
L2C PREFETCH  NON_SPEC    ACCESS:    3379042  HIT:       2884  MISS:    3376158  HIT %:  0.0853496  MISS %:    99.9147   MPKI: 16.8808
L2C WRITEBACK NON_SPEC    ACCESS:    1258881  HIT:    1258861  MISS:         20  HIT %:    99.9984  MISS %: 0.00158871   MPKI: 0.0001
L2C CLEAN_EVICTION NON_SPEC    ACCESS:    1167471  HIT:     914506  MISS:     252965  HIT %:    78.3322  MISS %:    21.6678   MPKI: 1.26483
L2C COMMIT LOAD NON_SPEC    ACCESS:      22297  HIT:      21165  MISS:       1132  HIT %:    94.9231  MISS %:    5.07692   MPKI: 0.00566
L2C LOAD TRANSLATION NON_SPEC    ACCESS:     499100  HIT:     478233  MISS:      20867  HIT %:    95.8191  MISS %:    4.18093   MPKI: 0.104335
L2C PREFETCH  REQUESTED:    3439821  ISSUED:    3439821  USEFUL:    2902233  USELESS:     473989
L2C USEFUL LOAD PREFETCHES:    2902233 PREFETCH ISSUED TO LOWER LEVEL:    3416200  ACCURACY: 84.955
L2C TIMELY PREFETCHES:    2902233 LATE PREFETCHES: 40042 DROPPED PREFETCHES: 0
L2C COMMIT LATE PREFETCHES: 0 MISSED OPPORTUNITY: 0 LATE IN PQ: 0 UNCOVERED: 0
L2C COMMIT LATE MSHR PREFETCHES: 0
L2C MPKI TOTAL: 1.51453 MSHR LATE: 0.20021 PQ LATE: 0 COMMIT LATE: 0 MISSED OPPORTUNITY: 0 UNCOVERED: 0
L2C PREFETCHES SAME FILL-ORIGIN LEVEL: 3416200 DIFFERENT FILL-ORIGIN LEVEL: 0
L2C AVERAGE MISS LATENCY: 310.452 cycles
L2C AVERAGE MISS LATENCY LOAD: 237.342 cycles
L2C AVERAGE MISS LATENCY PREFETCH: 335.991 cycles
L2C AVERAGE MSHR OCCUPANCY: 9.6081
L2C MSHR FULL: 0.137269
L2C RQ	ACCESS:    5326455	FORWARD:          0	MERGED:          0	TO_CACHE:    5326406
L2C WQ	ACCESS:    2426353	FORWARD:         49	MERGED:          1	TO_CACHE:    2426352
L2C PQ	ACCESS:    3439821	FORWARD:          0	MERGED:          0	TO_CACHE:    3439821

L2C Instructions Evicting Data 31
L2C Translations Evicting Data 20777
L2C Data Evicting Data 4595666
L2C Instructions Evicting Instructions 0
L2C Translations Evicting Instructions 0
L2C Data Evicting Instructions 29
L2C Instructions Evicting Translations 1
L2C Translations Evicting Translations 90
L2C Data Evicting Translations 19563
L2C Dense regions hint from L2: 0
PSCL5 SPEC fills:          0  NON-SPEC fills:          0
PSCL5 Test counter :          0
PSCL5 Leapfrog:          0
PSCL5 MSHR merge:          0
PSCL5 TOTAL     ACCESS:          0  HIT:          0  MISS:          0  HIT %:       -nan  MISS %:       -nan   MPKI: 0
PSCL5 PREFETCH  REQUESTED:          0  ISSUED:          0  USEFUL:          0  USELESS:          0
PSCL5 USEFUL LOAD PREFETCHES:          0 PREFETCH ISSUED TO LOWER LEVEL:          0  ACCURACY: -nan
PSCL5 TIMELY PREFETCHES:          0 LATE PREFETCHES: 0 DROPPED PREFETCHES: 0
PSCL5 COMMIT LATE PREFETCHES: 0 MISSED OPPORTUNITY: 0 LATE IN PQ: 0 UNCOVERED: 0
PSCL5 COMMIT LATE MSHR PREFETCHES: 0
PSCL5 MPKI TOTAL: 0 MSHR LATE: 0 PQ LATE: 0 COMMIT LATE: 0 MISSED OPPORTUNITY: 0 UNCOVERED: 0
PSCL5 PREFETCHES SAME FILL-ORIGIN LEVEL: 0 DIFFERENT FILL-ORIGIN LEVEL: 0

PSCL4 SPEC fills:          0  NON-SPEC fills:          0
PSCL4 Test counter :          0
PSCL4 Leapfrog:          0
PSCL4 MSHR merge:          0
PSCL4 TOTAL     ACCESS:          0  HIT:          0  MISS:          0  HIT %:       -nan  MISS %:       -nan   MPKI: 0
PSCL4 PREFETCH  REQUESTED:          0  ISSUED:          0  USEFUL:          0  USELESS:          0
PSCL4 USEFUL LOAD PREFETCHES:          0 PREFETCH ISSUED TO LOWER LEVEL:          0  ACCURACY: -nan
PSCL4 TIMELY PREFETCHES:          0 LATE PREFETCHES: 0 DROPPED PREFETCHES: 0
PSCL4 COMMIT LATE PREFETCHES: 0 MISSED OPPORTUNITY: 0 LATE IN PQ: 0 UNCOVERED: 0
PSCL4 COMMIT LATE MSHR PREFETCHES: 0
PSCL4 MPKI TOTAL: 0 MSHR LATE: 0 PQ LATE: 0 COMMIT LATE: 0 MISSED OPPORTUNITY: 0 UNCOVERED: 0
PSCL4 PREFETCHES SAME FILL-ORIGIN LEVEL: 0 DIFFERENT FILL-ORIGIN LEVEL: 0

PSCL3 SPEC fills:          0  NON-SPEC fills:          0
PSCL3 Test counter :          0
PSCL3 Leapfrog:          0
PSCL3 MSHR merge:          0
PSCL3 TOTAL     ACCESS:          0  HIT:          0  MISS:          0  HIT %:       -nan  MISS %:       -nan   MPKI: 0
PSCL3 PREFETCH  REQUESTED:          0  ISSUED:          0  USEFUL:          0  USELESS:          0
PSCL3 USEFUL LOAD PREFETCHES:          0 PREFETCH ISSUED TO LOWER LEVEL:          0  ACCURACY: -nan
PSCL3 TIMELY PREFETCHES:          0 LATE PREFETCHES: 0 DROPPED PREFETCHES: 0
PSCL3 COMMIT LATE PREFETCHES: 0 MISSED OPPORTUNITY: 0 LATE IN PQ: 0 UNCOVERED: 0
PSCL3 COMMIT LATE MSHR PREFETCHES: 0
PSCL3 MPKI TOTAL: 0 MSHR LATE: 0 PQ LATE: 0 COMMIT LATE: 0 MISSED OPPORTUNITY: 0 UNCOVERED: 0
PSCL3 PREFETCHES SAME FILL-ORIGIN LEVEL: 0 DIFFERENT FILL-ORIGIN LEVEL: 0

PSCL2 SPEC fills:          0  NON-SPEC fills:          0
PSCL2 Test counter :          0
PSCL2 Leapfrog:          0
PSCL2 MSHR merge:          0
PSCL2 TOTAL     ACCESS:          0  HIT:          0  MISS:          0  HIT %:       -nan  MISS %:       -nan   MPKI: 0
PSCL2 PREFETCH  REQUESTED:          0  ISSUED:          0  USEFUL:          0  USELESS:          0
PSCL2 USEFUL LOAD PREFETCHES:          0 PREFETCH ISSUED TO LOWER LEVEL:          0  ACCURACY: -nan
PSCL2 TIMELY PREFETCHES:          0 LATE PREFETCHES: 0 DROPPED PREFETCHES: 0
PSCL2 COMMIT LATE PREFETCHES: 0 MISSED OPPORTUNITY: 0 LATE IN PQ: 0 UNCOVERED: 0
PSCL2 COMMIT LATE MSHR PREFETCHES: 0
PSCL2 MPKI TOTAL: 0 MSHR LATE: 0 PQ LATE: 0 COMMIT LATE: 0 MISSED OPPORTUNITY: 0 UNCOVERED: 0
PSCL2 PREFETCHES SAME FILL-ORIGIN LEVEL: 0 DIFFERENT FILL-ORIGIN LEVEL: 0

LLC SPEC fills:          0  NON-SPEC fills:      28120
LLC Test counter :          0
LLC Leapfrog:          0
LLC MSHR merge:          0
LLC TOTAL     ACCESS:    7334302  HIT:    2219449  MISS:    5114853  HIT %:    30.2612  MISS %:    69.7388   MPKI: 25.5743
LLC LOAD      TOTAL       ACCESS:     262864  HIT:       6457  MISS:     256407  HIT %:     2.4564  MISS %:    97.5436   MPKI: 1.28204
LLC LOAD      NON_SPEC    ACCESS:      28322  HIT:        170  MISS:      28152  HIT %:    0.60024  MISS %:    99.3998   MPKI: 0.14076
LLC LOAD      SPEC        ACCESS:     234542  HIT:       6287  MISS:     228255  HIT %:    2.68054  MISS %:    97.3195   MPKI: 1.14128
LLC RFO       NON_SPEC    ACCESS:    1208202  HIT:          1  MISS:    1208201  HIT %: 8.27676e-05  MISS %:    99.9999   MPKI: 6.04101
LLC PREFETCH  NON_SPEC    ACCESS:    3416200  HIT:       1316  MISS:    3414884  HIT %:  0.0385223  MISS %:    99.9615   MPKI: 17.0744
LLC WRITEBACK NON_SPEC    ACCESS:    1256982  HIT:    1256961  MISS:         21  HIT %:    99.9983  MISS %: 0.00167067   MPKI: 0.000105
LLC CLEAN_EVICTION NON_SPEC    ACCESS:    1168055  HIT:     954331  MISS:     213724  HIT %:    81.7026  MISS %:    18.2974   MPKI: 1.06862
LLC COMMIT LOAD NON_SPEC    ACCESS:       1132  HIT:        383  MISS:        749  HIT %:    33.8339  MISS %:    66.1661   MPKI: 0.003745
LLC LOAD TRANSLATION NON_SPEC    ACCESS:      20867  HIT:          0  MISS:      20867  HIT %:          0  MISS %:        100   MPKI: 0.104335
LLC PREFETCH  REQUESTED:          0  ISSUED:          0  USEFUL:       5062  USELESS:    3411020
LLC USEFUL LOAD PREFETCHES:       5062 PREFETCH ISSUED TO LOWER LEVEL:    3414884  ACCURACY: 0.148233
LLC TIMELY PREFETCHES:       5062 LATE PREFETCHES: 0 DROPPED PREFETCHES: 0
LLC COMMIT LATE PREFETCHES: 0 MISSED OPPORTUNITY: 0 LATE IN PQ: 0 UNCOVERED: 0
LLC COMMIT LATE MSHR PREFETCHES: 0
LLC MPKI TOTAL: 1.28204 MSHR LATE: 0 PQ LATE: 0 COMMIT LATE: 0 MISSED OPPORTUNITY: 0 UNCOVERED: 0
LLC PREFETCHES SAME FILL-ORIGIN LEVEL: 0 DIFFERENT FILL-ORIGIN LEVEL: 0
LLC AVERAGE MISS LATENCY: 286.612 cycles
LLC AVERAGE MISS LATENCY LOAD: 220.05 cycles
LLC AVERAGE MISS LATENCY PREFETCH: 307.65 cycles
LLC AVERAGE MSHR OCCUPANCY: 5.46313
LLC MSHR FULL: 0
LLC RQ	ACCESS:    1493066	FORWARD:          0	MERGED:          0	TO_CACHE:    1493065
LLC WQ	ACCESS:    2425037	FORWARD:          1	MERGED:          0	TO_CACHE:    2425037
LLC PQ	ACCESS:    3416200	FORWARD:          0	MERGED:          0	TO_CACHE:    3416200

LLC Dense regions hint to LLC: 0

RAW hits: 23317
Loads Generated: 74205278
Loads sent to L1D: 74181957
Stores Generated: 11403765
Stores sent to L1D: 11403766
Major fault: 0 Minor fault: 35137
Allocated PAGES: 35137
Total Load insts: 91266673
Total Non-spec loads: 6982753
Percentage of speculative loads: 92.3491

LeapFrogging counter: 76869
Commit hits: 29440524 miss: 38837504
Commit hit %: 43.1186 miss %: 56.8814
Commits not translated: 0
Loads retired: 3596288
Stores retired: 11403766
Cache fills: 3596288
L1D response latency: 31.9343 cycles
Load retirement latency: 76.9335 cycles
OOO test counter: 0
Discarded buffer inserts: 29440524 hits: 170779 hit %: 0.580081
Filter prediction accuracy: 99.6491
[Bingo] PHT Access: 132834
[Bingo] PHT Hit PC+Addr: 2881
[Bingo] PHT Hit PC+Offs: 125207
[Bingo] PHT Miss: 4746
[Bingo] Prefetch PC+Addr: 0
[Bingo] Prefetch PC+Offs: 0
[Bingo] Useful PC+Addr: 0
[Bingo] Useful PC+Offs: 0
[Bingo] Useless PC+Addr: 0
[Bingo] Useless PC+Offs: 0
[Bingo] L1 Prefetch per Region: 0
[Bingo] L2 Prefetch per Region: 28.0194
[Bingo] L3 Prefetch per Region: 0
[Bingo] No Prefetch per Region: 3.98061
[Bingo] Number of Voters Mean: 14.5584
[Bingo] Number of Voters SD: 8.50796
PHT read accesses: 2066116
PHT write accesses: 130307
AT read accesses: 3488245
AT write accesses: 3587952
FT read accesses: 404968
FT write accesses: 132834
PS read accesses: 427632
PS write accesses: 128088
PHT tag read accesses: 6209653
PHT tag write accesses: 133188
AT tag read accesses: 141789703
AT tag write accesses: 3618552
FT tag read accesses: 86999781
FT tag write accesses: 401735
PS tag read accesses: 62572027
PS tag write accesses: 555030

DRAM Statistics
 CHANNEL 0
 RQ ROW_BUFFER_HIT:    2100422  ROW_BUFFER_MISS:    2800686
 DBUS_CONGESTED:        785
 WQ ROW_BUFFER_HIT:     576942  ROW_BUFFER_MISS:    1852774  FULL:      30744

 AVG_CONGESTED_CYCLE: 5
 All warmup complete: 2
Channel 0 Bank busy for read cycles: 0
Channel 0 Bank busy for write cycles: 0
Channel 0
Rank 0
0banks busy for read cycles: 27385179
0banks busy for write cycles: 38316
1banks busy for read cycles: 46523616
1banks busy for write cycles: 5286710
2banks busy for read cycles: 23780168
2banks busy for write cycles: 2073332
3banks busy for read cycles: 9534795
3banks busy for write cycles: 1706978
4banks busy for read cycles: 5419693
4banks busy for write cycles: 1589594
5banks busy for read cycles: 3679508
5banks busy for write cycles: 1682957
6banks busy for read cycles: 3351787
6banks busy for write cycles: 2125127
7banks busy for read cycles: 6973756
7banks busy for write cycles: 6140044
8banks busy for read cycles: 39286170
8banks busy for write cycles: 49399972

CPU 0 Branch Prediction Accuracy: 99.8522% MPKI: 0.096965 Average ROB Occupancy at Mispredict: 101.613
Branch types
NOT_BRANCH: 186881140 93.4406%
BRANCH_DIRECT_JUMP: 1451293 0.725646%
BRANCH_INDIRECT: 0 0%
BRANCH_CONDITIONAL: 11667242 5.83362%
BRANCH_DIRECT_CALL: 0 0%
BRANCH_INDIRECT_CALL: 0 0%
BRANCH_RETURN: 0 0%
BRANCH_OTHER: 0 0%

DRAM PAGES: 1048576
Allocated PAGES: 35137
