
*** ChampSim Multicore Out-of-Order Simulator ***

Warmup Instructions: 50000000
Simulation Instructions: 200000000
Number of CPUs: 1
LLC sets: 2048
LLC ways: 16
Secure Berti: OFF
Berti: OFF
Berti Fill: OFF
On commit prefetching: OFF
L2 LLC Bypass speculative loads: OFF
Off-chip DRAM Size: 4096 MB Channels: 1 Width: 64-bit Data Rate: 6400 MT/s
CPU 0 runs /home/sumon/secure_berti/Berti_Baseline/../../traces/gap/bc-12.trace.gz
.gz
BTB has LRU replacement policy
ITLB has LRU replacement policy
DTLB has LRU replacement policy
STLB has LRU replacement policy
L1I has LRU replacement policy
IP Table Entries: 1024
CSPT Entries: 128
RR_ENTRIES: 32
RST_ENTRIES: 8
L1D has LRU replacement policy
L2C has LRU replacement policy
LLC has LRU replacement policy
Heartbeat CPU 0 instructions: 10000001 cycles: 3493304 heartbeat IPC: 2.86262 cumulative IPC: 2.86262 (Simulation time: 0 hr 0 min 39 sec) 
Heartbeat CPU 0 instructions: 20000000 cycles: 6468436 heartbeat IPC: 3.3612 cumulative IPC: 3.09194 (Simulation time: 0 hr 1 min 24 sec) 
Heartbeat CPU 0 instructions: 30000002 cycles: 9435247 heartbeat IPC: 3.37062 cumulative IPC: 3.17957 (Simulation time: 0 hr 2 min 6 sec) 
Heartbeat CPU 0 instructions: 40000000 cycles: 12398174 heartbeat IPC: 3.37504 cumulative IPC: 3.22628 (Simulation time: 0 hr 2 min 54 sec) 
Heartbeat CPU 0 instructions: 50000001 cycles: 15356235 heartbeat IPC: 3.38059 cumulative IPC: 3.25601 (Simulation time: 0 hr 3 min 29 sec) 

Warmup complete CPU 0 instructions: 50000001 cycles: 15356235 (Simulation time: 0 hr 3 min 29 sec) 

Heartbeat CPU 0 instructions: 60000001 cycles: 88834371 heartbeat IPC: 0.136095 cumulative IPC: 0.136095 (Simulation time: 0 hr 4 min 21 sec) 
Heartbeat CPU 0 instructions: 70000000 cycles: 163793555 heartbeat IPC: 0.133406 cumulative IPC: 0.134737 (Simulation time: 0 hr 5 min 14 sec) 
Heartbeat CPU 0 instructions: 80000002 cycles: 238827807 heartbeat IPC: 0.133272 cumulative IPC: 0.134245 (Simulation time: 0 hr 6 min 7 sec) 
Heartbeat CPU 0 instructions: 90000002 cycles: 314717309 heartbeat IPC: 0.131771 cumulative IPC: 0.133618 (Simulation time: 0 hr 7 min 0 sec) 
Heartbeat CPU 0 instructions: 100000001 cycles: 390350146 heartbeat IPC: 0.132218 cumulative IPC: 0.133336 (Simulation time: 0 hr 7 min 53 sec) 
Heartbeat CPU 0 instructions: 110000000 cycles: 466209538 heartbeat IPC: 0.131823 cumulative IPC: 0.133081 (Simulation time: 0 hr 8 min 46 sec) 
Heartbeat CPU 0 instructions: 120000001 cycles: 540762832 heartbeat IPC: 0.134132 cumulative IPC: 0.13323 (Simulation time: 0 hr 9 min 39 sec) 
Heartbeat CPU 0 instructions: 130000003 cycles: 616853722 heartbeat IPC: 0.131422 cumulative IPC: 0.133001 (Simulation time: 0 hr 10 min 32 sec) 
Heartbeat CPU 0 instructions: 140000000 cycles: 691218598 heartbeat IPC: 0.134472 cumulative IPC: 0.133163 (Simulation time: 0 hr 11 min 24 sec) 
Heartbeat CPU 0 instructions: 150000000 cycles: 767364350 heartbeat IPC: 0.131327 cumulative IPC: 0.132977 (Simulation time: 0 hr 12 min 16 sec) 
Heartbeat CPU 0 instructions: 160000001 cycles: 841097185 heartbeat IPC: 0.135625 cumulative IPC: 0.133214 (Simulation time: 0 hr 13 min 7 sec) 
Heartbeat CPU 0 instructions: 170000003 cycles: 913903654 heartbeat IPC: 0.13735 cumulative IPC: 0.133549 (Simulation time: 0 hr 13 min 58 sec) 
Heartbeat CPU 0 instructions: 180000000 cycles: 989084356 heartbeat IPC: 0.133013 cumulative IPC: 0.133507 (Simulation time: 0 hr 14 min 48 sec) 
Heartbeat CPU 0 instructions: 190000000 cycles: 1060163657 heartbeat IPC: 0.140688 cumulative IPC: 0.133996 (Simulation time: 0 hr 15 min 34 sec) 
Heartbeat CPU 0 instructions: 200000000 cycles: 1136952502 heartbeat IPC: 0.130227 cumulative IPC: 0.133738 (Simulation time: 0 hr 16 min 17 sec) 
Heartbeat CPU 0 instructions: 210000002 cycles: 1213519075 heartbeat IPC: 0.130605 cumulative IPC: 0.133538 (Simulation time: 0 hr 16 min 59 sec) 
Heartbeat CPU 0 instructions: 220000000 cycles: 1290248689 heartbeat IPC: 0.130328 cumulative IPC: 0.133345 (Simulation time: 0 hr 17 min 40 sec) 
Heartbeat CPU 0 instructions: 230000001 cycles: 1367033180 heartbeat IPC: 0.130235 cumulative IPC: 0.133168 (Simulation time: 0 hr 18 min 19 sec) 
Heartbeat CPU 0 instructions: 240000001 cycles: 1444039984 heartbeat IPC: 0.129859 cumulative IPC: 0.13299 (Simulation time: 0 hr 18 min 58 sec) 
Heartbeat CPU 0 instructions: 250000003 cycles: 1520739858 heartbeat IPC: 0.130378 cumulative IPC: 0.132857 (Simulation time: 0 hr 19 min 38 sec) 
Finished CPU 0 instructions: 200000002 cycles: 1505383623 cumulative IPC: 0.132856 (Simulation time: 0 hr 19 min 38 sec) 

ChampSim completed all CPUs

Region of Interest Statistics

CPU 0 cumulative IPC: 0.132856 instructions: 200000002 cycles: 1505383623
ITLB TOTAL     ACCESS:   36667412  HIT:   36667412  MISS:          0  HIT %:        100  MISS %:          0   MPKI: 0
ITLB Test counter:          0
ITLB LOAD TRANSLATION ACCESS:   36667412  HIT:   36667412  MISS:          0  HIT %:        100  MISS %:          0   MPKI: 0
ITLB PREFETCH  REQUESTED:          0  ISSUED:          0  USEFUL:          0  USELESS:          0
ITLB USEFUL LOAD PREFETCHES:          0 PREFETCH ISSUED TO LOWER LEVEL:          0  ACCURACY: -nan
ITLB TIMELY PREFETCHES:          0 LATE PREFETCHES: 0 DROPPED PREFETCHES: 0
ITLB COMMIT LATE PREFETCHES: 0 MISSED OPPORTUNITY: 0 LATE IN PQ: 0 UNCOVERED: 0
ITLB COMMIT LATE MSHR PREFETCHES: 0
ITLB MPKI TOTAL: 0 MSHR LATE: 0 PQ LATE: 0 COMMIT LATE: 0 MISSED OPPORTUNITY: 0 UNCOVERED: 0
ITLB PREFETCHES SAME FILL-ORIGIN LEVEL: 0 DIFFERENT FILL-ORIGIN LEVEL: 0
ITLB AVERAGE MISS LATENCY: -nan cycles
ITLB AVERAGE MISS LATENCY LOAD: -nan cycles
ITLB AVERAGE MISS LATENCY PREFETCH: -nan cycles
ITLB AVERAGE MSHR OCCUPANCY: 0
ITLB MSHR FULL: 0
ITLB RQ	ACCESS:   36967523	FORWARD:          0	MERGED:     300112	TO_CACHE:   36667411

DTLB TOTAL     ACCESS:   59685081  HIT:   51179031  MISS:    8506050  HIT %:    85.7484  MISS %:    14.2516   MPKI: 42.5302
DTLB Test counter:          0
DTLB LOAD TRANSLATION ACCESS:   59685081  HIT:   51179031  MISS:    8506050  HIT %:    85.7484  MISS %:    14.2516   MPKI: 42.5302
DTLB PREFETCH  REQUESTED:          0  ISSUED:          0  USEFUL:          0  USELESS:          0
DTLB USEFUL LOAD PREFETCHES:          0 PREFETCH ISSUED TO LOWER LEVEL:          0  ACCURACY: -nan
DTLB TIMELY PREFETCHES:          0 LATE PREFETCHES: 0 DROPPED PREFETCHES: 0
DTLB COMMIT LATE PREFETCHES: 0 MISSED OPPORTUNITY: 0 LATE IN PQ: 0 UNCOVERED: 0
DTLB COMMIT LATE MSHR PREFETCHES: 0
DTLB MPKI TOTAL: 0 MSHR LATE: 0 PQ LATE: 0 COMMIT LATE: 0 MISSED OPPORTUNITY: 0 UNCOVERED: 0
DTLB PREFETCHES SAME FILL-ORIGIN LEVEL: 0 DIFFERENT FILL-ORIGIN LEVEL: 0
DTLB AVERAGE MISS LATENCY: 20.5835 cycles
DTLB AVERAGE MISS LATENCY LOAD: -nan cycles
DTLB AVERAGE MISS LATENCY PREFETCH: -nan cycles
DTLB AVERAGE MSHR OCCUPANCY: 0.142627
DTLB MSHR FULL: 0.000182789
DTLB RQ	ACCESS:   65506438	FORWARD:          0	MERGED:    5272962	TO_CACHE:   60233476

STLB TOTAL     ACCESS:   23966341  HIT:   20613164  MISS:    3353177  HIT %:    86.0088  MISS %:    13.9912   MPKI: 16.7659
STLB Test counter:          0
STLB LOAD TRANSLATION ACCESS:    8506050  HIT:    5153374  MISS:    3352676  HIT %:    60.5848  MISS %:    39.4152   MPKI: 16.7634
STLB TRANSLATION FROM L1D PREFETCHER ACCESS:   15460291  HIT:   15459790  MISS:        501  HIT %:    99.9968  MISS %: 0.00324056   MPKI: 0.002505
STLB PREFETCH  REQUESTED:          0  ISSUED:          0  USEFUL:        458  USELESS:         43
STLB USEFUL LOAD PREFETCHES:        458 PREFETCH ISSUED TO LOWER LEVEL:          0  ACCURACY: inf
STLB TIMELY PREFETCHES:        458 LATE PREFETCHES: 0 DROPPED PREFETCHES: 0
STLB COMMIT LATE PREFETCHES: 0 MISSED OPPORTUNITY: 0 LATE IN PQ: 0 UNCOVERED: 0
STLB COMMIT LATE MSHR PREFETCHES: 0
STLB MPKI TOTAL: 0 MSHR LATE: 0 PQ LATE: 0 COMMIT LATE: 0 MISSED OPPORTUNITY: 0 UNCOVERED: 0
STLB PREFETCHES SAME FILL-ORIGIN LEVEL: 0 DIFFERENT FILL-ORIGIN LEVEL: 0
STLB AVERAGE MISS LATENCY: 29.314 cycles
STLB AVERAGE MISS LATENCY LOAD: -nan cycles
STLB AVERAGE MISS LATENCY PREFETCH: -nan cycles
STLB AVERAGE MSHR OCCUPANCY: 0.170242
STLB MSHR FULL: 0
STLB RQ	ACCESS:   26401097	FORWARD:          0	MERGED:    2434743	TO_CACHE:   23966354

STLB Hit, L1D data hit: 0
STLB Hit, L2C data hit: 0
STLB Hit, LLC data hit: 0
STLB Hit, LLC data miss: 0
STLB STLB hints to L2: 0
L1D TOTAL     ACCESS:   82663727  HIT:   49950529  MISS:   32713198  HIT %:    60.4262  MISS %:    39.5738   MPKI: 163.566
L1D Test counter:          0
L1D LOAD      ACCESS:   54246460  HIT:   37957024  MISS:   16474658  HIT %:    69.9714  MISS %:    30.0286   MPKI: 81.4472
L1D RFO       ACCESS:   11031924  HIT:   10998294  MISS:      33630  HIT %:    99.6952  MISS %:   0.304843   MPKI: 0.16815
L1D PREFETCH  ACCESS:   17385343  HIT:     995211  MISS:   16390132  HIT %:    5.72443  MISS %:    94.2756   MPKI: 81.9507
L1D PREFETCH  REQUESTED:   35790142  ISSUED:   35790141  USEFUL:     992642  USELESS:   15397481
L1D USEFUL LOAD PREFETCHES:     992642 PREFETCH ISSUED TO LOWER LEVEL:   16685224  ACCURACY: 5.94923
L1D TIMELY PREFETCHES:     992642 LATE PREFETCHES: 295093 DROPPED PREFETCHES: 0
L1D COMMIT LATE PREFETCHES: 0 MISSED OPPORTUNITY: 0 LATE IN PQ: 133391 UNCOVERED: 0
L1D COMMIT LATE MSHR PREFETCHES: 0
L1D MPKI TOTAL: 82.3733 MSHR LATE: 1.47546 PQ LATE: 0.666955 COMMIT LATE: 0 MISSED OPPORTUNITY: 0 UNCOVERED: 0
L1D PREFETCHES SAME FILL-ORIGIN LEVEL: 16685224 DIFFERENT FILL-ORIGIN LEVEL: 0
L1D AVERAGE MISS LATENCY: 154.751 cycles
L1D AVERAGE MISS LATENCY LOAD: 146.437 cycles
L1D AVERAGE MISS LATENCY PREFETCH: 162.836 cycles
L1D AVERAGE MSHR OCCUPANCY: 2.29424
L1D MSHR FULL: 0.029671
L1D RQ	ACCESS:   55691488	FORWARD:          0	MERGED:    1216503	TO_CACHE:   54431681
L1D WQ	ACCESS:   11244938	FORWARD:      43351	MERGED:     170181	TO_CACHE:   11074757
L1D PQ	ACCESS:   17895094	FORWARD:          0	MERGED:          0	TO_CACHE:   17895047

L1D UNIQUE REGIONS ACCESSED: 0
L1D REGIONS CONFLICTS: 0
L1D Cross Page Prefetch Requests: 0
L1D Same Page Prefetch Requests: 21914041
L1D ROI Sum of L1D PQ occupancy: 238518455
L1D PREFETCHES PUSHED FROM L2C: 0
152d17a5d641: 2
152d17a5d646: 7
55fd7d4edff8: 10
152d17a5d6c3: 14
55fd7d4edf15: 14
152d17a5d672: 14
152d17a5d63e: 14
55fd7d4ec770: 14
55fd7d4edea5: 14
55fd7d4ee03f: 14
55fd7d4edf0a: 14
55fd7d4edec3: 14
55fd7d4ede7b: 2038
55fd7d4edf25: 8181
55fd7d4ede73: 8226
55fd7d4ede70: 8741
152d17a5d686: 12611
55fd7d4edec6: 15674
55fd7d4ede77: 16791
55fd7d4eded6: 30305
55fd7d4edebf: 31471
55fd7d4edeca: 5199060
55fd7d4edee2: 10956193
L1I TOTAL     ACCESS:   36967522  HIT:   36967522  MISS:          0  HIT %:        100  MISS %:          0   MPKI: 0
L1I Test counter:          0
L1I LOAD      ACCESS:   36967522  HIT:   36967522  MISS:          0  HIT %:        100  MISS %:          0   MPKI: 0
L1I PREFETCH  REQUESTED:          0  ISSUED:          0  USEFUL:          0  USELESS:          0
L1I USEFUL LOAD PREFETCHES:          0 PREFETCH ISSUED TO LOWER LEVEL:          0  ACCURACY: -nan
L1I TIMELY PREFETCHES:          0 LATE PREFETCHES: 0 DROPPED PREFETCHES: 0
L1I COMMIT LATE PREFETCHES: 0 MISSED OPPORTUNITY: 0 LATE IN PQ: 0 UNCOVERED: 0
L1I COMMIT LATE MSHR PREFETCHES: 0
L1I MPKI TOTAL: 0 MSHR LATE: 0 PQ LATE: 0 COMMIT LATE: 0 MISSED OPPORTUNITY: 0 UNCOVERED: 0
L1I PREFETCHES SAME FILL-ORIGIN LEVEL: 0 DIFFERENT FILL-ORIGIN LEVEL: 0
L1I AVERAGE MISS LATENCY: -nan cycles
L1I AVERAGE MISS LATENCY LOAD: -nan cycles
L1I AVERAGE MISS LATENCY PREFETCH: -nan cycles
L1I AVERAGE MSHR OCCUPANCY: 0
L1I MSHR FULL: 0
L1I RQ	ACCESS:   48282985	FORWARD:          0	MERGED:   11315462	TO_CACHE:   36967523

BTB TOTAL     ACCESS:   35189014  HIT:   35189000  MISS:         14  HIT %:        100  MISS %: 3.97851e-05   MPKI: 7e-05
BTB Test counter:          0
BTB BRANCH_DIRECT_JUMP	ACCESS:     253973  HIT:     253969  MISS:          4
BTB BRANCH_INDIRECT	ACCESS:          0  HIT:          0  MISS:          0
BTB BRANCH_CONDITIONAL	ACCESS:   34935013  HIT:   34935005  MISS:          8
BTB BRANCH_DIRECT_CALL	ACCESS:         14  HIT:         13  MISS:          1
BTB BRANCH_INDIRECT_CALL	ACCESS:          0  HIT:          0  MISS:          0
BTB BRANCH_RETURN	ACCESS:         14  HIT:         13  MISS:          1
BTB BRANCH_OTHER ACCESS:          0  HIT:          0  MISS:          0

L2C TOTAL     ACCESS:   41617515  HIT:   11286018  MISS:   30331497  HIT %:    27.1184  MISS %:    72.8816   MPKI: 151.657
L2C Test counter:          0
L2C LOAD      ACCESS:   15994342  HIT:    1459925  MISS:   14534417  HIT %:    9.12776  MISS %:    90.8722   MPKI: 72.6721
L2C DATA LOAD MPKI: 72.6721
L2C INSTRUCTION LOAD MPKI: 0
L2C RFO       ACCESS:      33628  HIT:       4513  MISS:      29115  HIT %:    13.4204  MISS %:    86.5796   MPKI: 0.145575
L2C PREFETCH  ACCESS:   16685225  HIT:    1287233  MISS:   15397992  HIT %:    7.71481  MISS %:    92.2852   MPKI: 76.99
L2C DATA PREFETCH MPKI: 76.99
L2C INSTRUCTION PREFETCH MPKI: 0
L2C WRITEBACK ACCESS:    5550577  HIT:    5550407  MISS:        170  HIT %:    99.9969  MISS %: 0.00306274   MPKI: 0.00085
L2C LOAD TRANSLATION ACCESS:    3353242  HIT:    2983524  MISS:     369718  HIT %:    88.9743  MISS %:    11.0257   MPKI: 1.84859
L2C TRANSLATION FROM L1D PREFETCHER ACCESS:        501  HIT:        416  MISS:         85  HIT %:    83.0339  MISS %:    16.9661   MPKI: 0.000425
L2C PREFETCH  REQUESTED:          0  ISSUED:          0  USEFUL:     262961  USELESS:   15135151
L2C USEFUL LOAD PREFETCHES:     262961 PREFETCH ISSUED TO LOWER LEVEL:   15397991  ACCURACY: 1.70776
L2C TIMELY PREFETCHES:     262961 LATE PREFETCHES: 0 DROPPED PREFETCHES: 0
L2C COMMIT LATE PREFETCHES: 0 MISSED OPPORTUNITY: 0 LATE IN PQ: 0 UNCOVERED: 0
L2C COMMIT LATE MSHR PREFETCHES: 0
L2C MPKI TOTAL: 72.6721 MSHR LATE: 0 PQ LATE: 0 COMMIT LATE: 0 MISSED OPPORTUNITY: 0 UNCOVERED: 0
L2C PREFETCHES SAME FILL-ORIGIN LEVEL: 0 DIFFERENT FILL-ORIGIN LEVEL: 0
L2C AVERAGE MISS LATENCY: 153.474 cycles
L2C AVERAGE MISS LATENCY LOAD: 147.524 cycles
L2C AVERAGE MISS LATENCY PREFETCH: 161.094 cycles
L2C AVERAGE MSHR OCCUPANCY: 2.5123
L2C MSHR FULL: 0
L2C RQ	ACCESS:   19381715	FORWARD:          0	MERGED:          0	TO_CACHE:   19381713
L2C WQ	ACCESS:    5550577	FORWARD:          2	MERGED:          0	TO_CACHE:    5550577
L2C PQ	ACCESS:   16685224	FORWARD:          0	MERGED:          0	TO_CACHE:   16685224

L2C Instructions Evicting Data 0
L2C Translations Evicting Data 369390
L2C Data Evicting Data 29592151
L2C Instructions Evicting Instructions 0
L2C Translations Evicting Instructions 0
L2C Data Evicting Instructions 0
L2C Instructions Evicting Translations 0
L2C Translations Evicting Translations 413
L2C Data Evicting Translations 369373
L2C Dense regions hint from L2: 0
152d17a5d646: 1
55fd7d4edff8: 4
55fd7d4edea5: 14
55fd7d4edec3: 14
152d17a5d672: 14
55fd7d4ec770: 14
152d17a5d63e: 14
55fd7d4ede73: 1284
55fd7d4edf25: 1623
55fd7d4ede7b: 2009
55fd7d4ede70: 2022
152d17a5d686: 7413
55fd7d4edec6: 14704
55fd7d4edebf: 15264
55fd7d4ede77: 16341
55fd7d4eded6: 30290
55fd7d4edeca: 4938613
55fd7d4edee2: 9504779
PSCL5 TOTAL     ACCESS:    3353177  HIT:    3353177  MISS:          0  HIT %:        100  MISS %:          0   MPKI: 0
PSCL5 Test counter:          0
PSCL5 LOAD TRANSLATION ACCESS:    3352676  HIT:    3352676  MISS:          0  HIT %:        100  MISS %:          0   MPKI: 0
PSCL5 TRANSLATION FROM L1D PREFETCHER ACCESS:        501  HIT:        501  MISS:          0  HIT %:        100  MISS %:          0   MPKI: 0
PSCL5 PREFETCH  REQUESTED:          0  ISSUED:          0  USEFUL:          0  USELESS:          0
PSCL5 USEFUL LOAD PREFETCHES:          0 PREFETCH ISSUED TO LOWER LEVEL:          0  ACCURACY: -nan
PSCL5 TIMELY PREFETCHES:          0 LATE PREFETCHES: 0 DROPPED PREFETCHES: 0
PSCL5 COMMIT LATE PREFETCHES: 0 MISSED OPPORTUNITY: 0 LATE IN PQ: 0 UNCOVERED: 0
PSCL5 COMMIT LATE MSHR PREFETCHES: 0
PSCL5 MPKI TOTAL: 0 MSHR LATE: 0 PQ LATE: 0 COMMIT LATE: 0 MISSED OPPORTUNITY: 0 UNCOVERED: 0
PSCL5 PREFETCHES SAME FILL-ORIGIN LEVEL: 0 DIFFERENT FILL-ORIGIN LEVEL: 0

PSCL4 TOTAL     ACCESS:    3353177  HIT:    3353177  MISS:          0  HIT %:        100  MISS %:          0   MPKI: 0
PSCL4 Test counter:          0
PSCL4 LOAD TRANSLATION ACCESS:    3352676  HIT:    3352676  MISS:          0  HIT %:        100  MISS %:          0   MPKI: 0
PSCL4 TRANSLATION FROM L1D PREFETCHER ACCESS:        501  HIT:        501  MISS:          0  HIT %:        100  MISS %:          0   MPKI: 0
PSCL4 PREFETCH  REQUESTED:          0  ISSUED:          0  USEFUL:          0  USELESS:          0
PSCL4 USEFUL LOAD PREFETCHES:          0 PREFETCH ISSUED TO LOWER LEVEL:          0  ACCURACY: -nan
PSCL4 TIMELY PREFETCHES:          0 LATE PREFETCHES: 0 DROPPED PREFETCHES: 0
PSCL4 COMMIT LATE PREFETCHES: 0 MISSED OPPORTUNITY: 0 LATE IN PQ: 0 UNCOVERED: 0
PSCL4 COMMIT LATE MSHR PREFETCHES: 0
PSCL4 MPKI TOTAL: 0 MSHR LATE: 0 PQ LATE: 0 COMMIT LATE: 0 MISSED OPPORTUNITY: 0 UNCOVERED: 0
PSCL4 PREFETCHES SAME FILL-ORIGIN LEVEL: 0 DIFFERENT FILL-ORIGIN LEVEL: 0

PSCL3 TOTAL     ACCESS:    3353177  HIT:    3353177  MISS:          0  HIT %:        100  MISS %:          0   MPKI: 0
PSCL3 Test counter:          0
PSCL3 LOAD TRANSLATION ACCESS:    3352676  HIT:    3352676  MISS:          0  HIT %:        100  MISS %:          0   MPKI: 0
PSCL3 TRANSLATION FROM L1D PREFETCHER ACCESS:        501  HIT:        501  MISS:          0  HIT %:        100  MISS %:          0   MPKI: 0
PSCL3 PREFETCH  REQUESTED:          0  ISSUED:          0  USEFUL:          0  USELESS:          0
PSCL3 USEFUL LOAD PREFETCHES:          0 PREFETCH ISSUED TO LOWER LEVEL:          0  ACCURACY: -nan
PSCL3 TIMELY PREFETCHES:          0 LATE PREFETCHES: 0 DROPPED PREFETCHES: 0
PSCL3 COMMIT LATE PREFETCHES: 0 MISSED OPPORTUNITY: 0 LATE IN PQ: 0 UNCOVERED: 0
PSCL3 COMMIT LATE MSHR PREFETCHES: 0
PSCL3 MPKI TOTAL: 0 MSHR LATE: 0 PQ LATE: 0 COMMIT LATE: 0 MISSED OPPORTUNITY: 0 UNCOVERED: 0
PSCL3 PREFETCHES SAME FILL-ORIGIN LEVEL: 0 DIFFERENT FILL-ORIGIN LEVEL: 0

PSCL2 TOTAL     ACCESS:    3353177  HIT:    3352574  MISS:        603  HIT %:     99.982  MISS %:  0.0179829   MPKI: 0.003015
PSCL2 Test counter:          0
PSCL2 LOAD TRANSLATION ACCESS:    3352676  HIT:    3352073  MISS:        603  HIT %:     99.982  MISS %:  0.0179856   MPKI: 0.003015
PSCL2 TRANSLATION FROM L1D PREFETCHER ACCESS:        501  HIT:        501  MISS:          0  HIT %:        100  MISS %:          0   MPKI: 0
PSCL2 PREFETCH  REQUESTED:          0  ISSUED:          0  USEFUL:          0  USELESS:          0
PSCL2 USEFUL LOAD PREFETCHES:          0 PREFETCH ISSUED TO LOWER LEVEL:          0  ACCURACY: -nan
PSCL2 TIMELY PREFETCHES:          0 LATE PREFETCHES: 0 DROPPED PREFETCHES: 0
PSCL2 COMMIT LATE PREFETCHES: 0 MISSED OPPORTUNITY: 0 LATE IN PQ: 0 UNCOVERED: 0
PSCL2 COMMIT LATE MSHR PREFETCHES: 0
PSCL2 MPKI TOTAL: 0 MSHR LATE: 0 PQ LATE: 0 COMMIT LATE: 0 MISSED OPPORTUNITY: 0 UNCOVERED: 0
PSCL2 PREFETCHES SAME FILL-ORIGIN LEVEL: 0 DIFFERENT FILL-ORIGIN LEVEL: 0

LLC TOTAL     ACCESS:   35776432  HIT:   14678972  MISS:   21097460  HIT %:    41.0297  MISS %:    58.9703   MPKI: 105.487
LLC Test counter:          0
LLC LOAD      ACCESS:   14534417  HIT:    4654737  MISS:    9879680  HIT %:    32.0256  MISS %:    67.9744   MPKI: 49.3984
LLC RFO       ACCESS:      29115  HIT:        243  MISS:      28872  HIT %:   0.834621  MISS %:    99.1654   MPKI: 0.14436
LLC PREFETCH  ACCESS:   15397991  HIT:    4271964  MISS:   11126027  HIT %:    27.7436  MISS %:    72.2564   MPKI: 55.6301
LLC WRITEBACK ACCESS:    5445106  HIT:    5445008  MISS:         98  HIT %:    99.9982  MISS %: 0.00179978   MPKI: 0.00049
LLC LOAD TRANSLATION ACCESS:     369718  HIT:     306952  MISS:      62766  HIT %:    83.0233  MISS %:    16.9767   MPKI: 0.31383
LLC TRANSLATION FROM L1D PREFETCHER ACCESS:         85  HIT:         68  MISS:         17  HIT %:         80  MISS %:         20   MPKI: 8.5e-05
LLC PREFETCH  REQUESTED:          0  ISSUED:          0  USEFUL:     939813  USELESS:   10186790
LLC USEFUL LOAD PREFETCHES:     939813 PREFETCH ISSUED TO LOWER LEVEL:   11126026  ACCURACY: 8.44698
LLC TIMELY PREFETCHES:     939813 LATE PREFETCHES: 0 DROPPED PREFETCHES: 0
LLC COMMIT LATE PREFETCHES: 0 MISSED OPPORTUNITY: 0 LATE IN PQ: 0 UNCOVERED: 0
LLC COMMIT LATE MSHR PREFETCHES: 0
LLC MPKI TOTAL: 49.3984 MSHR LATE: 0 PQ LATE: 0 COMMIT LATE: 0 MISSED OPPORTUNITY: 0 UNCOVERED: 0
LLC PREFETCHES SAME FILL-ORIGIN LEVEL: 0 DIFFERENT FILL-ORIGIN LEVEL: 0
LLC AVERAGE MISS LATENCY: 177.485 cycles
LLC AVERAGE MISS LATENCY LOAD: 172.865 cycles
LLC AVERAGE MISS LATENCY PREFETCH: 181.396 cycles
LLC AVERAGE MSHR OCCUPANCY: 1.95566
LLC MSHR FULL: 0
LLC RQ	ACCESS:   14933335	FORWARD:          0	MERGED:          0	TO_CACHE:   14933335
LLC WQ	ACCESS:    5445106	FORWARD:          2	MERGED:          0	TO_CACHE:    5445106
LLC PQ	ACCESS:   15397991	FORWARD:          0	MERGED:          0	TO_CACHE:   15397989

LLC Dense regions hint to LLC: 0
55fd7d4edff8: 2
152d17a5d63e: 13
55fd7d4ec770: 14
55fd7d4edea5: 14
55fd7d4edec3: 14
152d17a5d672: 14
55fd7d4ede73: 251
55fd7d4edf25: 373
55fd7d4ede70: 373
55fd7d4ede7b: 2006
152d17a5d686: 7256
55fd7d4edec6: 12613
55fd7d4edebf: 15262
55fd7d4ede77: 16258
55fd7d4eded6: 30290
55fd7d4edeca: 4046454
55fd7d4edee2: 5748473

RAW hits: 645283
Loads Generated: 56336771
Loads sent to L1D: 55691488
Stores Generated: 11244933
Stores sent to L1D: 11244938
Major fault: 0 Minor fault: 31004
Allocated PAGES: 31004
Total Load insts: 68237180
Total Non-spec loads: 9431434
Percentage of speculative loads: 86.1784
L1D response latency: 149.139 cycles
Load retirement latency: 230.987 cycles


stream: 
stream:times selected: 21596363
stream:pref_filled: 18488047
stream:pref_useful: 331970
stream:pref_late: 292096
stream:misses: 4329779
stream:misses_by_poll: 0

CS: 
CS:times selected: 1168527
CS:pref_filled: 1129039
CS:pref_useful: 899761
CS:pref_late: 27678
CS:misses: 166709
CS:misses_by_poll: 587

CPLX: 
CPLX:times selected: 20281392
CPLX:pref_filled: 430230
CPLX:pref_useful: 20644
CPLX:pref_late: 12893
CPLX:misses: 15542581
CPLX:misses_by_poll: 120

NL_L1: 
NL:times selected: 24418
NL:pref_filled: 22698
NL:pref_useful: 277
NL:pref_late: 148
NL:misses: 23640
NL:misses_by_poll: 0

total selections: 43070700
total_filled: 16390132
total_useful: 992642
total_late: 334563
total_polluted: 707
total_misses_after_warmup: 16474658
conflicts: 1
Degree Incremented Times: 251303
Degree Decremented Times: 548625

L1 IP Table Write Accesses: 54431668
L1 IP Table Read Accesses: 54431667
L1 RST Write Accesses: 17595025
L1 RST Read Accesses: 35190050
L1 CSPT Write Accesses: 17595025
L1 CSPT Read Accesses: 34162579
L1 RR Filter Tag Write Accesses: 17895095
L1 RR Filter Tag Read Accesses: 624508225
L1 IP Table Tag Write Accesses: 54431682
L1 IP Table Tag Read Accesses: 54431682
L1 RST Tag Write Accesses: 0
L1 RST Tag Read Accesses: 157948792
L1 RR Filter Write Accesses: 0
L1 RR Filter Read Accesses: 20328103
test: 9294380

DRAM Statistics
 CHANNEL 0
 RQ ROW_BUFFER_HIT:    3521131  ROW_BUFFER_MISS:   17575306
 DBUS_CONGESTED:      18742
 WQ ROW_BUFFER_HIT:    3370892  ROW_BUFFER_MISS:    1420973  FULL:          0

 AVG_CONGESTED_CYCLE: 5
 All warmup complete: 2
Channel 0 Bank busy for read cycles: 0
Channel 0 Bank busy for write cycles: 0
Channel 0
Rank 0
0banks busy for read cycles: 12600938
0banks busy for write cycles: 110905
1banks busy for read cycles: 285320283
1banks busy for write cycles: 30098522
2banks busy for read cycles: 322378664
2banks busy for write cycles: 53292426
3banks busy for read cycles: 224852572
3banks busy for write cycles: 72140190
4banks busy for read cycles: 156389706
4banks busy for write cycles: 77422827
5banks busy for read cycles: 63583509
5banks busy for write cycles: 67365255
6banks busy for read cycles: 26829828
6banks busy for write cycles: 48076066
7banks busy for read cycles: 10305858
7banks busy for write cycles: 29727692
8banks busy for read cycles: 3965491
8banks busy for write cycles: 20922892

CPU 0 Branch Prediction Accuracy: 85.1853% MPKI: 26.0899 Average ROB Occupancy at Mispredict: 24.5941
Branch types
NOT_BRANCH: 164778071 82.389%
BRANCH_DIRECT_JUMP: 253973 0.126986%
BRANCH_INDIRECT: 0 0%
BRANCH_CONDITIONAL: 34967581 17.4838%
BRANCH_DIRECT_CALL: 14 7e-06%
BRANCH_INDIRECT_CALL: 0 0%
BRANCH_RETURN: 14 7e-06%
BRANCH_OTHER: 0 0%

DRAM PAGES: 1048576
Allocated PAGES: 31004
