
*** ChampSim Multicore Out-of-Order Simulator ***

Warmup Instructions: 50000000
Simulation Instructions: 200000000
Number of CPUs: 1
LLC sets: 2048
LLC ways: 16
Secure Berti: OFF
Berti: OFF
Berti Fill: OFF
On commit prefetching: OFF
L2 LLC Bypass speculative loads: OFF
Off-chip DRAM Size: 4096 MB Channels: 1 Width: 64-bit Data Rate: 6400 MT/s
CPU 0 runs /home/sumon/secure_berti/Berti_Baseline/../../traces/gap/bc-3.trace.gz
.gz
BTB has LRU replacement policy
ITLB has LRU replacement policy
DTLB has LRU replacement policy
STLB has LRU replacement policy
L1I has LRU replacement policy
IP Table Entries: 1024
CSPT Entries: 128
RR_ENTRIES: 32
RST_ENTRIES: 8
L1D has LRU replacement policy
L2C has LRU replacement policy
LLC has LRU replacement policy
Heartbeat CPU 0 instructions: 10000002 cycles: 3485365 heartbeat IPC: 2.86914 cumulative IPC: 2.86914 (Simulation time: 0 hr 0 min 29 sec) 
Heartbeat CPU 0 instructions: 20000002 cycles: 6371550 heartbeat IPC: 3.46478 cumulative IPC: 3.13895 (Simulation time: 0 hr 0 min 59 sec) 
Heartbeat CPU 0 instructions: 30000002 cycles: 9241534 heartbeat IPC: 3.48434 cumulative IPC: 3.24621 (Simulation time: 0 hr 1 min 29 sec) 
Heartbeat CPU 0 instructions: 40000003 cycles: 12104309 heartbeat IPC: 3.49311 cumulative IPC: 3.30461 (Simulation time: 0 hr 2 min 2 sec) 
Heartbeat CPU 0 instructions: 50000003 cycles: 14964335 heartbeat IPC: 3.49647 cumulative IPC: 3.34128 (Simulation time: 0 hr 2 min 47 sec) 

Warmup complete CPU 0 instructions: 50000003 cycles: 14964335 (Simulation time: 0 hr 2 min 47 sec) 

Heartbeat CPU 0 instructions: 60000001 cycles: 72779438 heartbeat IPC: 0.172965 cumulative IPC: 0.172965 (Simulation time: 0 hr 3 min 55 sec) 
Heartbeat CPU 0 instructions: 70000000 cycles: 130866928 heartbeat IPC: 0.172154 cumulative IPC: 0.172559 (Simulation time: 0 hr 5 min 4 sec) 
Heartbeat CPU 0 instructions: 80000000 cycles: 189037166 heartbeat IPC: 0.171909 cumulative IPC: 0.172342 (Simulation time: 0 hr 6 min 12 sec) 
Heartbeat CPU 0 instructions: 90000002 cycles: 247348826 heartbeat IPC: 0.171492 cumulative IPC: 0.172129 (Simulation time: 0 hr 7 min 21 sec) 
Heartbeat CPU 0 instructions: 100000003 cycles: 305301034 heartbeat IPC: 0.172556 cumulative IPC: 0.172214 (Simulation time: 0 hr 8 min 29 sec) 
Heartbeat CPU 0 instructions: 110000000 cycles: 363680480 heartbeat IPC: 0.171293 cumulative IPC: 0.17206 (Simulation time: 0 hr 9 min 30 sec) 
Heartbeat CPU 0 instructions: 120000000 cycles: 421439281 heartbeat IPC: 0.173134 cumulative IPC: 0.172212 (Simulation time: 0 hr 10 min 11 sec) 
Heartbeat CPU 0 instructions: 130000001 cycles: 479901937 heartbeat IPC: 0.171049 cumulative IPC: 0.172066 (Simulation time: 0 hr 10 min 51 sec) 
Heartbeat CPU 0 instructions: 140000001 cycles: 538197463 heartbeat IPC: 0.17154 cumulative IPC: 0.172007 (Simulation time: 0 hr 11 min 33 sec) 
Heartbeat CPU 0 instructions: 150000000 cycles: 596709644 heartbeat IPC: 0.170905 cumulative IPC: 0.171897 (Simulation time: 0 hr 12 min 14 sec) 
Heartbeat CPU 0 instructions: 160000001 cycles: 654579719 heartbeat IPC: 0.172801 cumulative IPC: 0.171978 (Simulation time: 0 hr 12 min 55 sec) 
Heartbeat CPU 0 instructions: 170000003 cycles: 712331460 heartbeat IPC: 0.173155 cumulative IPC: 0.172076 (Simulation time: 0 hr 13 min 35 sec) 
Heartbeat CPU 0 instructions: 180000000 cycles: 769954436 heartbeat IPC: 0.173542 cumulative IPC: 0.172188 (Simulation time: 0 hr 14 min 14 sec) 
Heartbeat CPU 0 instructions: 190000001 cycles: 827392410 heartbeat IPC: 0.174101 cumulative IPC: 0.172323 (Simulation time: 0 hr 14 min 54 sec) 
Heartbeat CPU 0 instructions: 200000000 cycles: 884859648 heartbeat IPC: 0.174012 cumulative IPC: 0.172435 (Simulation time: 0 hr 15 min 33 sec) 
Heartbeat CPU 0 instructions: 210000000 cycles: 942522995 heartbeat IPC: 0.17342 cumulative IPC: 0.172496 (Simulation time: 0 hr 16 min 12 sec) 
Heartbeat CPU 0 instructions: 220000000 cycles: 1000122247 heartbeat IPC: 0.173613 cumulative IPC: 0.172561 (Simulation time: 0 hr 16 min 50 sec) 
Heartbeat CPU 0 instructions: 230000000 cycles: 1057816555 heartbeat IPC: 0.173327 cumulative IPC: 0.172604 (Simulation time: 0 hr 17 min 29 sec) 
Heartbeat CPU 0 instructions: 240000000 cycles: 1115475818 heartbeat IPC: 0.173433 cumulative IPC: 0.172647 (Simulation time: 0 hr 18 min 8 sec) 
Heartbeat CPU 0 instructions: 250000002 cycles: 1173078426 heartbeat IPC: 0.173603 cumulative IPC: 0.172695 (Simulation time: 0 hr 18 min 47 sec) 
Finished CPU 0 instructions: 200000003 cycles: 1158114092 cumulative IPC: 0.172695 (Simulation time: 0 hr 18 min 47 sec) 

ChampSim completed all CPUs

Region of Interest Statistics

CPU 0 cumulative IPC: 0.172695 instructions: 200000003 cycles: 1158114092
ITLB TOTAL     ACCESS:   42180351  HIT:   42180351  MISS:          0  HIT %:        100  MISS %:          0   MPKI: 0
ITLB Test counter:          0
ITLB LOAD TRANSLATION ACCESS:   42180351  HIT:   42180351  MISS:          0  HIT %:        100  MISS %:          0   MPKI: 0
ITLB PREFETCH  REQUESTED:          0  ISSUED:          0  USEFUL:          0  USELESS:          0
ITLB USEFUL LOAD PREFETCHES:          0 PREFETCH ISSUED TO LOWER LEVEL:          0  ACCURACY: -nan
ITLB TIMELY PREFETCHES:          0 LATE PREFETCHES: 0 DROPPED PREFETCHES: 0
ITLB COMMIT LATE PREFETCHES: 0 MISSED OPPORTUNITY: 0 LATE IN PQ: 0 UNCOVERED: 0
ITLB COMMIT LATE MSHR PREFETCHES: 0
ITLB MPKI TOTAL: 0 MSHR LATE: 0 PQ LATE: 0 COMMIT LATE: 0 MISSED OPPORTUNITY: 0 UNCOVERED: 0
ITLB PREFETCHES SAME FILL-ORIGIN LEVEL: 0 DIFFERENT FILL-ORIGIN LEVEL: 0
ITLB AVERAGE MISS LATENCY: -nan cycles
ITLB AVERAGE MISS LATENCY LOAD: -nan cycles
ITLB AVERAGE MISS LATENCY PREFETCH: -nan cycles
ITLB AVERAGE MSHR OCCUPANCY: 0
ITLB MSHR FULL: 0
ITLB RQ	ACCESS:   42460490	FORWARD:          0	MERGED:     280140	TO_CACHE:   42180350

DTLB TOTAL     ACCESS:   47136522  HIT:   36779067  MISS:   10357455  HIT %:    78.0267  MISS %:    21.9733   MPKI: 51.7873
DTLB Test counter:          0
DTLB LOAD TRANSLATION ACCESS:   47136522  HIT:   36779067  MISS:   10357455  HIT %:    78.0267  MISS %:    21.9733   MPKI: 51.7873
DTLB PREFETCH  REQUESTED:          0  ISSUED:          0  USEFUL:          0  USELESS:          0
DTLB USEFUL LOAD PREFETCHES:          0 PREFETCH ISSUED TO LOWER LEVEL:          0  ACCURACY: -nan
DTLB TIMELY PREFETCHES:          0 LATE PREFETCHES: 0 DROPPED PREFETCHES: 0
DTLB COMMIT LATE PREFETCHES: 0 MISSED OPPORTUNITY: 0 LATE IN PQ: 0 UNCOVERED: 0
DTLB COMMIT LATE MSHR PREFETCHES: 0
DTLB MPKI TOTAL: 0 MSHR LATE: 0 PQ LATE: 0 COMMIT LATE: 0 MISSED OPPORTUNITY: 0 UNCOVERED: 0
DTLB PREFETCHES SAME FILL-ORIGIN LEVEL: 0 DIFFERENT FILL-ORIGIN LEVEL: 0
DTLB AVERAGE MISS LATENCY: 15.8207 cycles
DTLB AVERAGE MISS LATENCY LOAD: -nan cycles
DTLB AVERAGE MISS LATENCY PREFETCH: -nan cycles
DTLB AVERAGE MSHR OCCUPANCY: 0.323894
DTLB MSHR FULL: 0.00312678
DTLB RQ	ACCESS:   48623007	FORWARD:          0	MERGED:    1086475	TO_CACHE:   47536532

STLB TOTAL     ACCESS:   25926316  HIT:   23746908  MISS:    2179408  HIT %:    91.5938  MISS %:    8.40616   MPKI: 10.897
STLB Test counter:          0
STLB LOAD TRANSLATION ACCESS:   10357455  HIT:    8178332  MISS:    2179123  HIT %:    78.9608  MISS %:    21.0392   MPKI: 10.8956
STLB TRANSLATION FROM L1D PREFETCHER ACCESS:   15568861  HIT:   15568576  MISS:        285  HIT %:    99.9982  MISS %: 0.00183058   MPKI: 0.001425
STLB PREFETCH  REQUESTED:          0  ISSUED:          0  USEFUL:        263  USELESS:         22
STLB USEFUL LOAD PREFETCHES:        263 PREFETCH ISSUED TO LOWER LEVEL:          0  ACCURACY: inf
STLB TIMELY PREFETCHES:        263 LATE PREFETCHES: 0 DROPPED PREFETCHES: 0
STLB COMMIT LATE PREFETCHES: 0 MISSED OPPORTUNITY: 0 LATE IN PQ: 0 UNCOVERED: 0
STLB COMMIT LATE MSHR PREFETCHES: 0
STLB MPKI TOTAL: 0 MSHR LATE: 0 PQ LATE: 0 COMMIT LATE: 0 MISSED OPPORTUNITY: 0 UNCOVERED: 0
STLB PREFETCHES SAME FILL-ORIGIN LEVEL: 0 DIFFERENT FILL-ORIGIN LEVEL: 0
STLB AVERAGE MISS LATENCY: 31.6937 cycles
STLB AVERAGE MISS LATENCY LOAD: -nan cycles
STLB AVERAGE MISS LATENCY PREFETCH: -nan cycles
STLB AVERAGE MSHR OCCUPANCY: 0.146935
STLB MSHR FULL: 0
STLB RQ	ACCESS:   29232464	FORWARD:          0	MERGED:    3306148	TO_CACHE:   25926316

STLB Hit, L1D data hit: 0
STLB Hit, L2C data hit: 0
STLB Hit, LLC data hit: 0
STLB Hit, LLC data miss: 0
STLB STLB hints to L2: 0
L1D TOTAL     ACCESS:   66856089  HIT:   32719413  MISS:   34136676  HIT %:    48.9401  MISS %:    51.0599   MPKI: 170.683
L1D Test counter:          0
L1D LOAD      ACCESS:   41844837  HIT:   24896975  MISS:   17109040  HIT %:    59.4983  MISS %:    40.5017   MPKI: 84.7393
L1D RFO       ACCESS:    6574740  HIT:    6540371  MISS:      34369  HIT %:    99.4773  MISS %:   0.522743   MPKI: 0.171845
L1D PREFETCH  ACCESS:   18436512  HIT:    1282067  MISS:   17154445  HIT %:    6.95396  MISS %:     93.046   MPKI: 85.7722
L1D PREFETCH  REQUESTED:   37750035  ISSUED:   37750030  USEFUL:    1038767  USELESS:   16115688
L1D USEFUL LOAD PREFETCHES:    1038767 PREFETCH ISSUED TO LOWER LEVEL:   17334725  ACCURACY: 5.99241
L1D TIMELY PREFETCHES:    1038767 LATE PREFETCHES: 180280 DROPPED PREFETCHES: 0
L1D COMMIT LATE PREFETCHES: 0 MISSED OPPORTUNITY: 0 LATE IN PQ: 151276 UNCOVERED: 0
L1D COMMIT LATE MSHR PREFETCHES: 0
L1D MPKI TOTAL: 85.5452 MSHR LATE: 0.9014 PQ LATE: 0.75638 COMMIT LATE: 0 MISSED OPPORTUNITY: 0 UNCOVERED: 0
L1D PREFETCHES SAME FILL-ORIGIN LEVEL: 17334725 DIFFERENT FILL-ORIGIN LEVEL: 0
L1D AVERAGE MISS LATENCY: 141.773 cycles
L1D AVERAGE MISS LATENCY LOAD: 134.059 cycles
L1D AVERAGE MISS LATENCY PREFETCH: 149.23 cycles
L1D AVERAGE MSHR OCCUPANCY: 3.50745
L1D MSHR FULL: 0.0330727
L1D RQ	ACCESS:   47910734	FORWARD:          0	MERGED:    5900222	TO_CACHE:   42006012
L1D WQ	ACCESS:    6628508	FORWARD:       4512	MERGED:      11513	TO_CACHE:    6616995
L1D PQ	ACCESS:   18875021	FORWARD:          0	MERGED:          0	TO_CACHE:   18875009

L1D UNIQUE REGIONS ACCESSED: 0
L1D REGIONS CONFLICTS: 0
L1D Cross Page Prefetch Requests: 0
L1D Same Page Prefetch Requests: 22982727
L1D ROI Sum of L1D PQ occupancy: 254048189
L1D PREFETCHES PUSHED FROM L2C: 0
14e344ea8641: 1
14e344ea8650: 9
55fe0cfa9ff8: 11
55fe0cfa9f0a: 14
55fe0cfaa03f: 14
55fe0cfa9f15: 14
14e344ea863e: 14
55fe0cfa9ea5: 14
14e344ea86c3: 14
14e344ea8672: 14
55fe0cfa8770: 14
55fe0cfa9f20: 892
55fe0cfa9efb: 3742
55fe0cfa9e7b: 4344
55fe0cfa9f25: 11267
55fe0cfa9e73: 11385
14e344ea8682: 12799
55fe0cfa9e70: 12980
55fe0cfa9ec6: 21173
55fe0cfa9e77: 30187
55fe0cfa9ebf: 30767
55fe0cfa9ed6: 51075
55fe0cfa9eca: 3005496
55fe0cfa9ee2: 13751622
L1I TOTAL     ACCESS:   42460491  HIT:   42460491  MISS:          0  HIT %:        100  MISS %:          0   MPKI: 0
L1I Test counter:          0
L1I LOAD      ACCESS:   42460491  HIT:   42460491  MISS:          0  HIT %:        100  MISS %:          0   MPKI: 0
L1I PREFETCH  REQUESTED:          0  ISSUED:          0  USEFUL:          0  USELESS:          0
L1I USEFUL LOAD PREFETCHES:          0 PREFETCH ISSUED TO LOWER LEVEL:          0  ACCURACY: -nan
L1I TIMELY PREFETCHES:          0 LATE PREFETCHES: 0 DROPPED PREFETCHES: 0
L1I COMMIT LATE PREFETCHES: 0 MISSED OPPORTUNITY: 0 LATE IN PQ: 0 UNCOVERED: 0
L1I COMMIT LATE MSHR PREFETCHES: 0
L1I MPKI TOTAL: 0 MSHR LATE: 0 PQ LATE: 0 COMMIT LATE: 0 MISSED OPPORTUNITY: 0 UNCOVERED: 0
L1I PREFETCHES SAME FILL-ORIGIN LEVEL: 0 DIFFERENT FILL-ORIGIN LEVEL: 0
L1I AVERAGE MISS LATENCY: -nan cycles
L1I AVERAGE MISS LATENCY LOAD: -nan cycles
L1I AVERAGE MISS LATENCY PREFETCH: -nan cycles
L1I AVERAGE MSHR OCCUPANCY: 0
L1I MSHR FULL: 0
L1I RQ	ACCESS:   56789711	FORWARD:          0	MERGED:   14329221	TO_CACHE:   42460490

BTB TOTAL     ACCESS:   43358648  HIT:   43358634  MISS:         14  HIT %:        100  MISS %: 3.22888e-05   MPKI: 7e-05
BTB Test counter:          0
BTB BRANCH_DIRECT_JUMP	ACCESS:     271551  HIT:     271547  MISS:          4
BTB BRANCH_INDIRECT	ACCESS:          0  HIT:          0  MISS:          0
BTB BRANCH_CONDITIONAL	ACCESS:   43087069  HIT:   43087061  MISS:          8
BTB BRANCH_DIRECT_CALL	ACCESS:         14  HIT:         13  MISS:          1
BTB BRANCH_INDIRECT_CALL	ACCESS:          0  HIT:          0  MISS:          0
BTB BRANCH_RETURN	ACCESS:         14  HIT:         13  MISS:          1
BTB BRANCH_OTHER ACCESS:          0  HIT:          0  MISS:          0

L2C TOTAL     ACCESS:   39647232  HIT:    9582123  MISS:   30065109  HIT %:    24.1685  MISS %:    75.8315   MPKI: 150.326
L2C Test counter:          0
L2C LOAD      ACCESS:   16767582  HIT:    2388904  MISS:   14378678  HIT %:    14.2472  MISS %:    85.7528   MPKI: 71.8934
L2C DATA LOAD MPKI: 71.8934
L2C INSTRUCTION LOAD MPKI: 0
L2C RFO       ACCESS:      34368  HIT:       5591  MISS:      28777  HIT %:     16.268  MISS %:     83.732   MPKI: 0.143885
L2C PREFETCH  ACCESS:   17334723  HIT:    2107973  MISS:   15226750  HIT %:    12.1604  MISS %:    87.8396   MPKI: 76.1337
L2C DATA PREFETCH MPKI: 76.1337
L2C INSTRUCTION PREFETCH MPKI: 0
L2C WRITEBACK ACCESS:    3330502  HIT:    3328972  MISS:       1530  HIT %:    99.9541  MISS %:   0.045939   MPKI: 0.00765
L2C LOAD TRANSLATION ACCESS:    2179772  HIT:    1750468  MISS:     429304  HIT %:    80.3051  MISS %:    19.6949   MPKI: 2.14652
L2C TRANSLATION FROM L1D PREFETCHER ACCESS:        285  HIT:        215  MISS:         70  HIT %:    75.4386  MISS %:    24.5614   MPKI: 0.00035
L2C PREFETCH  REQUESTED:          0  ISSUED:          0  USEFUL:     393117  USELESS:   14833683
L2C USEFUL LOAD PREFETCHES:     393117 PREFETCH ISSUED TO LOWER LEVEL:   15226751  ACCURACY: 2.58175
L2C TIMELY PREFETCHES:     393117 LATE PREFETCHES: 0 DROPPED PREFETCHES: 0
L2C COMMIT LATE PREFETCHES: 0 MISSED OPPORTUNITY: 0 LATE IN PQ: 0 UNCOVERED: 0
L2C COMMIT LATE MSHR PREFETCHES: 0
L2C MPKI TOTAL: 71.8934 MSHR LATE: 0 PQ LATE: 0 COMMIT LATE: 0 MISSED OPPORTUNITY: 0 UNCOVERED: 0
L2C PREFETCHES SAME FILL-ORIGIN LEVEL: 0 DIFFERENT FILL-ORIGIN LEVEL: 0
L2C AVERAGE MISS LATENCY: 145.462 cycles
L2C AVERAGE MISS LATENCY LOAD: 140.368 cycles
L2C AVERAGE MISS LATENCY PREFETCH: 152.858 cycles
L2C AVERAGE MSHR OCCUPANCY: 3.7332
L2C MSHR FULL: 0
L2C RQ	ACCESS:   18982008	FORWARD:          0	MERGED:          0	TO_CACHE:   18982007
L2C WQ	ACCESS:    3330502	FORWARD:          2	MERGED:          0	TO_CACHE:    3330502
L2C PQ	ACCESS:   17334725	FORWARD:          0	MERGED:          0	TO_CACHE:   17334724

L2C Instructions Evicting Data 0
L2C Translations Evicting Data 415347
L2C Data Evicting Data 29218858
L2C Instructions Evicting Instructions 0
L2C Translations Evicting Instructions 0
L2C Data Evicting Instructions 0
L2C Instructions Evicting Translations 0
L2C Translations Evicting Translations 14027
L2C Data Evicting Translations 415347
L2C Dense regions hint from L2: 0
55fe0cfaa03f: 3
55fe0cfa9ff8: 6
14e344ea863e: 13
55fe0cfa8770: 14
55fe0cfa9ea5: 14
14e344ea8672: 14
55fe0cfa9f20: 15
55fe0cfa9efb: 51
55fe0cfa9f25: 702
55fe0cfa9e73: 860
55fe0cfa9e70: 2118
55fe0cfa9e7b: 4098
14e344ea8682: 7477
55fe0cfa9ebf: 10310
55fe0cfa9ec6: 17056
55fe0cfa9e77: 27159
55fe0cfa9ed6: 50638
55fe0cfa9eca: 2927221
55fe0cfa9ee2: 11330909
PSCL5 TOTAL     ACCESS:    2179408  HIT:    2179408  MISS:          0  HIT %:        100  MISS %:          0   MPKI: 0
PSCL5 Test counter:          0
PSCL5 LOAD TRANSLATION ACCESS:    2179123  HIT:    2179123  MISS:          0  HIT %:        100  MISS %:          0   MPKI: 0
PSCL5 TRANSLATION FROM L1D PREFETCHER ACCESS:        285  HIT:        285  MISS:          0  HIT %:        100  MISS %:          0   MPKI: 0
PSCL5 PREFETCH  REQUESTED:          0  ISSUED:          0  USEFUL:          0  USELESS:          0
PSCL5 USEFUL LOAD PREFETCHES:          0 PREFETCH ISSUED TO LOWER LEVEL:          0  ACCURACY: -nan
PSCL5 TIMELY PREFETCHES:          0 LATE PREFETCHES: 0 DROPPED PREFETCHES: 0
PSCL5 COMMIT LATE PREFETCHES: 0 MISSED OPPORTUNITY: 0 LATE IN PQ: 0 UNCOVERED: 0
PSCL5 COMMIT LATE MSHR PREFETCHES: 0
PSCL5 MPKI TOTAL: 0 MSHR LATE: 0 PQ LATE: 0 COMMIT LATE: 0 MISSED OPPORTUNITY: 0 UNCOVERED: 0
PSCL5 PREFETCHES SAME FILL-ORIGIN LEVEL: 0 DIFFERENT FILL-ORIGIN LEVEL: 0

PSCL4 TOTAL     ACCESS:    2179408  HIT:    2179408  MISS:          0  HIT %:        100  MISS %:          0   MPKI: 0
PSCL4 Test counter:          0
PSCL4 LOAD TRANSLATION ACCESS:    2179123  HIT:    2179123  MISS:          0  HIT %:        100  MISS %:          0   MPKI: 0
PSCL4 TRANSLATION FROM L1D PREFETCHER ACCESS:        285  HIT:        285  MISS:          0  HIT %:        100  MISS %:          0   MPKI: 0
PSCL4 PREFETCH  REQUESTED:          0  ISSUED:          0  USEFUL:          0  USELESS:          0
PSCL4 USEFUL LOAD PREFETCHES:          0 PREFETCH ISSUED TO LOWER LEVEL:          0  ACCURACY: -nan
PSCL4 TIMELY PREFETCHES:          0 LATE PREFETCHES: 0 DROPPED PREFETCHES: 0
PSCL4 COMMIT LATE PREFETCHES: 0 MISSED OPPORTUNITY: 0 LATE IN PQ: 0 UNCOVERED: 0
PSCL4 COMMIT LATE MSHR PREFETCHES: 0
PSCL4 MPKI TOTAL: 0 MSHR LATE: 0 PQ LATE: 0 COMMIT LATE: 0 MISSED OPPORTUNITY: 0 UNCOVERED: 0
PSCL4 PREFETCHES SAME FILL-ORIGIN LEVEL: 0 DIFFERENT FILL-ORIGIN LEVEL: 0

PSCL3 TOTAL     ACCESS:    2179408  HIT:    2179408  MISS:          0  HIT %:        100  MISS %:          0   MPKI: 0
PSCL3 Test counter:          0
PSCL3 LOAD TRANSLATION ACCESS:    2179123  HIT:    2179123  MISS:          0  HIT %:        100  MISS %:          0   MPKI: 0
PSCL3 TRANSLATION FROM L1D PREFETCHER ACCESS:        285  HIT:        285  MISS:          0  HIT %:        100  MISS %:          0   MPKI: 0
PSCL3 PREFETCH  REQUESTED:          0  ISSUED:          0  USEFUL:          0  USELESS:          0
PSCL3 USEFUL LOAD PREFETCHES:          0 PREFETCH ISSUED TO LOWER LEVEL:          0  ACCURACY: -nan
PSCL3 TIMELY PREFETCHES:          0 LATE PREFETCHES: 0 DROPPED PREFETCHES: 0
PSCL3 COMMIT LATE PREFETCHES: 0 MISSED OPPORTUNITY: 0 LATE IN PQ: 0 UNCOVERED: 0
PSCL3 COMMIT LATE MSHR PREFETCHES: 0
PSCL3 MPKI TOTAL: 0 MSHR LATE: 0 PQ LATE: 0 COMMIT LATE: 0 MISSED OPPORTUNITY: 0 UNCOVERED: 0
PSCL3 PREFETCHES SAME FILL-ORIGIN LEVEL: 0 DIFFERENT FILL-ORIGIN LEVEL: 0

PSCL2 TOTAL     ACCESS:    2179408  HIT:    2178759  MISS:        649  HIT %:    99.9702  MISS %:  0.0297787   MPKI: 0.003245
PSCL2 Test counter:          0
PSCL2 LOAD TRANSLATION ACCESS:    2179123  HIT:    2178474  MISS:        649  HIT %:    99.9702  MISS %:  0.0297826   MPKI: 0.003245
PSCL2 TRANSLATION FROM L1D PREFETCHER ACCESS:        285  HIT:        285  MISS:          0  HIT %:        100  MISS %:          0   MPKI: 0
PSCL2 PREFETCH  REQUESTED:          0  ISSUED:          0  USEFUL:          0  USELESS:          0
PSCL2 USEFUL LOAD PREFETCHES:          0 PREFETCH ISSUED TO LOWER LEVEL:          0  ACCURACY: -nan
PSCL2 TIMELY PREFETCHES:          0 LATE PREFETCHES: 0 DROPPED PREFETCHES: 0
PSCL2 COMMIT LATE PREFETCHES: 0 MISSED OPPORTUNITY: 0 LATE IN PQ: 0 UNCOVERED: 0
PSCL2 COMMIT LATE MSHR PREFETCHES: 0
PSCL2 MPKI TOTAL: 0 MSHR LATE: 0 PQ LATE: 0 COMMIT LATE: 0 MISSED OPPORTUNITY: 0 UNCOVERED: 0
PSCL2 PREFETCHES SAME FILL-ORIGIN LEVEL: 0 DIFFERENT FILL-ORIGIN LEVEL: 0

LLC TOTAL     ACCESS:   33352549  HIT:   14545588  MISS:   18806961  HIT %:    43.6116  MISS %:    56.3884   MPKI: 94.0348
LLC Test counter:          0
LLC LOAD      ACCESS:   14378677  HIT:    5631195  MISS:    8747483  HIT %:    39.1635  MISS %:    60.8365   MPKI: 43.7374
LLC RFO       ACCESS:      28777  HIT:        295  MISS:      28482  HIT %:    1.02512  MISS %:    98.9749   MPKI: 0.14241
LLC PREFETCH  ACCESS:   15226749  HIT:    5237121  MISS:    9989628  HIT %:    34.3942  MISS %:    65.6058   MPKI: 49.9481
LLC WRITEBACK ACCESS:    3288972  HIT:    3288266  MISS:        706  HIT %:    99.9785  MISS %:  0.0214657   MPKI: 0.00353
LLC LOAD TRANSLATION ACCESS:     429304  HIT:     388649  MISS:      40655  HIT %:      90.53  MISS %:    9.46998   MPKI: 0.203275
LLC TRANSLATION FROM L1D PREFETCHER ACCESS:         70  HIT:         62  MISS:          8  HIT %:    88.5714  MISS %:    11.4286   MPKI: 4e-05
LLC PREFETCH  REQUESTED:          0  ISSUED:          0  USEFUL:    1014296  USELESS:    8975341
LLC USEFUL LOAD PREFETCHES:    1014296 PREFETCH ISSUED TO LOWER LEVEL:    9989629  ACCURACY: 10.1535
LLC TIMELY PREFETCHES:    1014296 LATE PREFETCHES: 0 DROPPED PREFETCHES: 0
LLC COMMIT LATE PREFETCHES: 0 MISSED OPPORTUNITY: 0 LATE IN PQ: 0 UNCOVERED: 0
LLC COMMIT LATE MSHR PREFETCHES: 0
LLC MPKI TOTAL: 43.7374 MSHR LATE: 0 PQ LATE: 0 COMMIT LATE: 0 MISSED OPPORTUNITY: 0 UNCOVERED: 0
LLC PREFETCHES SAME FILL-ORIGIN LEVEL: 0 DIFFERENT FILL-ORIGIN LEVEL: 0
LLC AVERAGE MISS LATENCY: 184.519 cycles
LLC AVERAGE MISS LATENCY LOAD: 181.355 cycles
LLC AVERAGE MISS LATENCY PREFETCH: 187.205 cycles
LLC AVERAGE MSHR OCCUPANCY: 2.85124
LLC MSHR FULL: 0
LLC RQ	ACCESS:   14836829	FORWARD:          0	MERGED:          0	TO_CACHE:   14836828
LLC WQ	ACCESS:    3288972	FORWARD:          2	MERGED:          0	TO_CACHE:    3288972
LLC PQ	ACCESS:   15226751	FORWARD:          0	MERGED:          0	TO_CACHE:   15226750

LLC Dense regions hint to LLC: 0
55fe0cfa9efb: 1
14e344ea863e: 10
55fe0cfa9ea5: 14
14e344ea8672: 14
55fe0cfa8770: 14
55fe0cfa9f25: 182
55fe0cfa9e73: 240
55fe0cfa9e70: 240
55fe0cfa9e7b: 4092
14e344ea8682: 7321
55fe0cfa9ebf: 10309
55fe0cfa9ec6: 15385
55fe0cfa9e77: 27065
55fe0cfa9ed6: 50638
55fe0cfa9eca: 2602145
55fe0cfa9ee2: 6029812

RAW hits: 92203
Loads Generated: 48002937
Loads sent to L1D: 47910734
Stores Generated: 6628504
Stores sent to L1D: 6628508
Major fault: 0 Minor fault: 32429
Allocated PAGES: 32429
Total Load insts: 59471020
Total Non-spec loads: 4236521
Percentage of speculative loads: 92.8763
L1D response latency: 135.5 cycles
Load retirement latency: 245.106 cycles


stream: 
stream:times selected: 22399918
stream:pref_filled: 18986427
stream:pref_useful: 252985
stream:pref_late: 230069
stream:misses: 4624008
stream:misses_by_poll: 0

CS: 
CS:times selected: 1470066
CS:pref_filled: 1426735
CS:pref_useful: 1128434
CS:pref_late: 15558
CS:misses: 201335
CS:misses_by_poll: 686

CPLX: 
CPLX:times selected: 20762570
CPLX:pref_filled: 396425
CPLX:pref_useful: 14347
CPLX:pref_late: 8447
CPLX:misses: 15738200
CPLX:misses_by_poll: 107

NL_L1: 
NL:times selected: 21625
NL:pref_filled: 19988
NL:pref_useful: 179
NL:pref_late: 153
NL:misses: 20917
NL:misses_by_poll: 0

total selections: 44654179
total_filled: 17154445
total_useful: 1038767
total_late: 255407
total_polluted: 793
total_misses_after_warmup: 17109040
conflicts: 0
Degree Incremented Times: 139394
Degree Decremented Times: 426335

L1 IP Table Write Accesses: 42006001
L1 IP Table Read Accesses: 42006001
L1 RST Write Accesses: 18369911
L1 RST Read Accesses: 36739822
L1 CSPT Write Accesses: 18369911
L1 CSPT Read Accesses: 35512622
L1 RR Filter Tag Write Accesses: 18875026
L1 RR Filter Tag Read Accesses: 659627407
L1 IP Table Tag Write Accesses: 42006015
L1 IP Table Tag Read Accesses: 42006015
L1 RST Tag Write Accesses: 0
L1 RST Tag Read Accesses: 165678897
L1 RR Filter Write Accesses: 0
L1 RR Filter Read Accesses: 21457748
test: 10521002

DRAM Statistics
 CHANNEL 0
 RQ ROW_BUFFER_HIT:    3586852  ROW_BUFFER_MISS:   15218768
 DBUS_CONGESTED:      12253
 WQ ROW_BUFFER_HIT:    1994815  ROW_BUFFER_MISS:    1080422  FULL:          0

 AVG_CONGESTED_CYCLE: 4
 All warmup complete: 2
Channel 0 Bank busy for read cycles: 0
Channel 0 Bank busy for write cycles: 0
Channel 0
Rank 0
0banks busy for read cycles: 9663225
0banks busy for write cycles: 83977
1banks busy for read cycles: 205184058
1banks busy for write cycles: 22375122
2banks busy for read cycles: 217965102
2banks busy for write cycles: 37517785
3banks busy for read cycles: 165804067
3banks busy for write cycles: 49271718
4banks busy for read cycles: 137812424
4banks busy for write cycles: 53155002
5banks busy for read cycles: 79443488
5banks busy for write cycles: 48330848
6banks busy for read cycles: 40673769
6banks busy for write cycles: 37130019
7banks busy for read cycles: 14914777
7banks busy for write cycles: 23849910
8banks busy for read cycles: 3369973
8banks busy for write cycles: 11568829

CPU 0 Branch Prediction Accuracy: 92.9184% MPKI: 15.3683 Average ROB Occupancy at Mispredict: 46.2018
Branch types
NOT_BRANCH: 156596208 78.2981%
BRANCH_DIRECT_JUMP: 271551 0.135775%
BRANCH_INDIRECT: 0 0%
BRANCH_CONDITIONAL: 43131869 21.5659%
BRANCH_DIRECT_CALL: 14 7e-06%
BRANCH_INDIRECT_CALL: 0 0%
BRANCH_RETURN: 14 7e-06%
BRANCH_OTHER: 0 0%

DRAM PAGES: 1048576
Allocated PAGES: 32429
