
*** ChampSim Multicore Out-of-Order Simulator ***

Warmup Instructions: 50000000
Simulation Instructions: 200000000
Number of CPUs: 1
LLC sets: 2048
LLC ways: 16
Secure Berti: OFF
Berti: OFF
Berti Fill: OFF
On commit prefetching: OFF
L2 LLC Bypass speculative loads: OFF
Off-chip DRAM Size: 4096 MB Channels: 1 Width: 64-bit Data Rate: 6400 MT/s
CPU 0 runs /home/sumon/secure_berti/Berti_Baseline/../../traces/gap/cc-14.trace.gz
.gz
BTB has LRU replacement policy
ITLB has LRU replacement policy
DTLB has LRU replacement policy
STLB has LRU replacement policy
L1I has LRU replacement policy
IP Table Entries: 1024
CSPT Entries: 128
RR_ENTRIES: 32
RST_ENTRIES: 8
L1D has LRU replacement policy
L2C has LRU replacement policy
LLC has LRU replacement policy
Heartbeat CPU 0 instructions: 10000002 cycles: 2951961 heartbeat IPC: 3.38758 cumulative IPC: 3.38758 (Simulation time: 0 hr 0 min 31 sec) 
Heartbeat CPU 0 instructions: 20000000 cycles: 5859294 heartbeat IPC: 3.43958 cumulative IPC: 3.41338 (Simulation time: 0 hr 1 min 18 sec) 
Heartbeat CPU 0 instructions: 30000000 cycles: 8773598 heartbeat IPC: 3.43135 cumulative IPC: 3.41935 (Simulation time: 0 hr 2 min 0 sec) 
Heartbeat CPU 0 instructions: 40000000 cycles: 11691466 heartbeat IPC: 3.42716 cumulative IPC: 3.4213 (Simulation time: 0 hr 2 min 30 sec) 
Heartbeat CPU 0 instructions: 50000003 cycles: 14613216 heartbeat IPC: 3.42261 cumulative IPC: 3.42156 (Simulation time: 0 hr 2 min 59 sec) 

Warmup complete CPU 0 instructions: 50000003 cycles: 14613216 (Simulation time: 0 hr 2 min 59 sec) 

Heartbeat CPU 0 instructions: 60000000 cycles: 58488405 heartbeat IPC: 0.227919 cumulative IPC: 0.227919 (Simulation time: 0 hr 3 min 33 sec) 
Heartbeat CPU 0 instructions: 70000001 cycles: 101681500 heartbeat IPC: 0.231519 cumulative IPC: 0.229705 (Simulation time: 0 hr 4 min 7 sec) 
Heartbeat CPU 0 instructions: 80000001 cycles: 145809469 heartbeat IPC: 0.226614 cumulative IPC: 0.228665 (Simulation time: 0 hr 4 min 41 sec) 
Heartbeat CPU 0 instructions: 90000000 cycles: 188109710 heartbeat IPC: 0.236405 cumulative IPC: 0.230552 (Simulation time: 0 hr 5 min 15 sec) 
Heartbeat CPU 0 instructions: 100000001 cycles: 230669049 heartbeat IPC: 0.234966 cumulative IPC: 0.231422 (Simulation time: 0 hr 5 min 50 sec) 
Heartbeat CPU 0 instructions: 110000000 cycles: 273890556 heartbeat IPC: 0.231366 cumulative IPC: 0.231412 (Simulation time: 0 hr 6 min 24 sec) 
Heartbeat CPU 0 instructions: 120000000 cycles: 317388145 heartbeat IPC: 0.229898 cumulative IPC: 0.231195 (Simulation time: 0 hr 6 min 59 sec) 
Heartbeat CPU 0 instructions: 130000003 cycles: 361706640 heartbeat IPC: 0.225639 cumulative IPC: 0.230485 (Simulation time: 0 hr 7 min 33 sec) 
Heartbeat CPU 0 instructions: 140000001 cycles: 404583907 heartbeat IPC: 0.233224 cumulative IPC: 0.230787 (Simulation time: 0 hr 8 min 7 sec) 
Heartbeat CPU 0 instructions: 150000001 cycles: 446447837 heartbeat IPC: 0.238869 cumulative IPC: 0.23157 (Simulation time: 0 hr 8 min 41 sec) 
Heartbeat CPU 0 instructions: 160000003 cycles: 489056285 heartbeat IPC: 0.234695 cumulative IPC: 0.231851 (Simulation time: 0 hr 9 min 16 sec) 
Heartbeat CPU 0 instructions: 170000000 cycles: 533181633 heartbeat IPC: 0.226627 cumulative IPC: 0.231406 (Simulation time: 0 hr 9 min 50 sec) 
Heartbeat CPU 0 instructions: 180000003 cycles: 575847496 heartbeat IPC: 0.234379 cumulative IPC: 0.231632 (Simulation time: 0 hr 10 min 24 sec) 
Heartbeat CPU 0 instructions: 190000000 cycles: 617796060 heartbeat IPC: 0.238387 cumulative IPC: 0.232102 (Simulation time: 0 hr 10 min 58 sec) 
Heartbeat CPU 0 instructions: 200000001 cycles: 660845424 heartbeat IPC: 0.232291 cumulative IPC: 0.232115 (Simulation time: 0 hr 11 min 32 sec) 
Heartbeat CPU 0 instructions: 210000000 cycles: 703921548 heartbeat IPC: 0.232147 cumulative IPC: 0.232117 (Simulation time: 0 hr 12 min 6 sec) 
Heartbeat CPU 0 instructions: 220000000 cycles: 746246296 heartbeat IPC: 0.236268 cumulative IPC: 0.232357 (Simulation time: 0 hr 12 min 39 sec) 
Heartbeat CPU 0 instructions: 230000000 cycles: 790312052 heartbeat IPC: 0.226934 cumulative IPC: 0.232049 (Simulation time: 0 hr 13 min 13 sec) 
Heartbeat CPU 0 instructions: 240000000 cycles: 832795772 heartbeat IPC: 0.235384 cumulative IPC: 0.232222 (Simulation time: 0 hr 13 min 46 sec) 
Heartbeat CPU 0 instructions: 250000002 cycles: 875397483 heartbeat IPC: 0.234732 cumulative IPC: 0.232346 (Simulation time: 0 hr 14 min 20 sec) 
Finished CPU 0 instructions: 200000000 cycles: 860784268 cumulative IPC: 0.232346 (Simulation time: 0 hr 14 min 20 sec) 

ChampSim completed all CPUs

Region of Interest Statistics

CPU 0 cumulative IPC: 0.232346 instructions: 200000000 cycles: 860784268
ITLB TOTAL     ACCESS:   30762265  HIT:   30762265  MISS:          0  HIT %:        100  MISS %:          0   MPKI: 0
ITLB Test counter:          0
ITLB LOAD TRANSLATION ACCESS:   30762265  HIT:   30762265  MISS:          0  HIT %:        100  MISS %:          0   MPKI: 0
ITLB PREFETCH  REQUESTED:          0  ISSUED:          0  USEFUL:          0  USELESS:          0
ITLB USEFUL LOAD PREFETCHES:          0 PREFETCH ISSUED TO LOWER LEVEL:          0  ACCURACY: -nan
ITLB TIMELY PREFETCHES:          0 LATE PREFETCHES: 0 DROPPED PREFETCHES: 0
ITLB COMMIT LATE PREFETCHES: 0 MISSED OPPORTUNITY: 0 LATE IN PQ: 0 UNCOVERED: 0
ITLB COMMIT LATE MSHR PREFETCHES: 0
ITLB MPKI TOTAL: 0 MSHR LATE: 0 PQ LATE: 0 COMMIT LATE: 0 MISSED OPPORTUNITY: 0 UNCOVERED: 0
ITLB PREFETCHES SAME FILL-ORIGIN LEVEL: 0 DIFFERENT FILL-ORIGIN LEVEL: 0
ITLB AVERAGE MISS LATENCY: -nan cycles
ITLB AVERAGE MISS LATENCY LOAD: -nan cycles
ITLB AVERAGE MISS LATENCY PREFETCH: -nan cycles
ITLB AVERAGE MSHR OCCUPANCY: 0
ITLB MSHR FULL: 0
ITLB RQ	ACCESS:   31227344	FORWARD:          0	MERGED:     465080	TO_CACHE:   30762264

DTLB TOTAL     ACCESS:   39927230  HIT:   30226637  MISS:    9700593  HIT %:    75.7043  MISS %:    24.2957   MPKI: 48.503
DTLB Test counter:          0
DTLB LOAD TRANSLATION ACCESS:   39927230  HIT:   30226637  MISS:    9700593  HIT %:    75.7043  MISS %:    24.2957   MPKI: 48.503
DTLB PREFETCH  REQUESTED:          0  ISSUED:          0  USEFUL:          0  USELESS:          0
DTLB USEFUL LOAD PREFETCHES:          0 PREFETCH ISSUED TO LOWER LEVEL:          0  ACCURACY: -nan
DTLB TIMELY PREFETCHES:          0 LATE PREFETCHES: 0 DROPPED PREFETCHES: 0
DTLB COMMIT LATE PREFETCHES: 0 MISSED OPPORTUNITY: 0 LATE IN PQ: 0 UNCOVERED: 0
DTLB COMMIT LATE MSHR PREFETCHES: 0
DTLB MPKI TOTAL: 0 MSHR LATE: 0 PQ LATE: 0 COMMIT LATE: 0 MISSED OPPORTUNITY: 0 UNCOVERED: 0
DTLB PREFETCHES SAME FILL-ORIGIN LEVEL: 0 DIFFERENT FILL-ORIGIN LEVEL: 0
DTLB AVERAGE MISS LATENCY: 9.60218 cycles
DTLB AVERAGE MISS LATENCY LOAD: -nan cycles
DTLB AVERAGE MISS LATENCY PREFETCH: -nan cycles
DTLB AVERAGE MSHR OCCUPANCY: 0.367335
DTLB MSHR FULL: 0.00433581
DTLB RQ	ACCESS:   42047091	FORWARD:          0	MERGED:    2031979	TO_CACHE:   40015112

STLB TOTAL     ACCESS:   25034580  HIT:   25019936  MISS:      14644  HIT %:    99.9415  MISS %:  0.0584951   MPKI: 0.07322
STLB Test counter:          0
STLB LOAD TRANSLATION ACCESS:    9700593  HIT:    9685949  MISS:      14644  HIT %:     99.849  MISS %:    0.15096   MPKI: 0.07322
STLB TRANSLATION FROM L1D PREFETCHER ACCESS:   15333987  HIT:   15333987  MISS:          0  HIT %:        100  MISS %:          0   MPKI: 0
STLB PREFETCH  REQUESTED:          0  ISSUED:          0  USEFUL:          0  USELESS:          0
STLB USEFUL LOAD PREFETCHES:          0 PREFETCH ISSUED TO LOWER LEVEL:          0  ACCURACY: -nan
STLB TIMELY PREFETCHES:          0 LATE PREFETCHES: 0 DROPPED PREFETCHES: 0
STLB COMMIT LATE PREFETCHES: 0 MISSED OPPORTUNITY: 0 LATE IN PQ: 0 UNCOVERED: 0
STLB COMMIT LATE MSHR PREFETCHES: 0
STLB MPKI TOTAL: 0 MSHR LATE: 0 PQ LATE: 0 COMMIT LATE: 0 MISSED OPPORTUNITY: 0 UNCOVERED: 0
STLB PREFETCHES SAME FILL-ORIGIN LEVEL: 0 DIFFERENT FILL-ORIGIN LEVEL: 0
STLB AVERAGE MISS LATENCY: 139.961 cycles
STLB AVERAGE MISS LATENCY LOAD: -nan cycles
STLB AVERAGE MISS LATENCY PREFETCH: -nan cycles
STLB AVERAGE MSHR OCCUPANCY: 0.000653336
STLB MSHR FULL: 0
STLB RQ	ACCESS:   28762645	FORWARD:          0	MERGED:    3728063	TO_CACHE:   25034582

STLB Hit, L1D data hit: 0
STLB Hit, L2C data hit: 0
STLB Hit, LLC data hit: 0
STLB Hit, LLC data miss: 0
STLB STLB hints to L2: 0
L1D TOTAL     ACCESS:   60740263  HIT:   31942672  MISS:   28797591  HIT %:     52.589  MISS %:     47.411   MPKI: 143.988
L1D Test counter:          0
L1D LOAD      ACCESS:   41721442  HIT:   27535990  MISS:   14263596  HIT %:    65.9996  MISS %:    34.0004   MPKI: 70.9273
L1D RFO       ACCESS:     247506  HIT:     247506  MISS:          0  HIT %:        100  MISS %:          0   MPKI: 0
L1D PREFETCH  ACCESS:   18771315  HIT:    4159176  MISS:   14612139  HIT %:    22.1571  MISS %:    77.8429   MPKI: 73.0607
L1D PREFETCH  REQUESTED:   38124105  ISSUED:   38124104  USEFUL:    1108552  USELESS:   13503596
L1D USEFUL LOAD PREFETCHES:    1108552 PREFETCH ISSUED TO LOWER LEVEL:   14679540  ACCURACY: 7.55168
L1D TIMELY PREFETCHES:    1108552 LATE PREFETCHES: 67400 DROPPED PREFETCHES: 0
L1D COMMIT LATE PREFETCHES: 0 MISSED OPPORTUNITY: 0 LATE IN PQ: 113867 UNCOVERED: 0
L1D COMMIT LATE MSHR PREFETCHES: 0
L1D MPKI TOTAL: 71.318 MSHR LATE: 0.337 PQ LATE: 0.569335 COMMIT LATE: 0 MISSED OPPORTUNITY: 0 UNCOVERED: 0
L1D PREFETCHES SAME FILL-ORIGIN LEVEL: 14679540 DIFFERENT FILL-ORIGIN LEVEL: 0
L1D AVERAGE MISS LATENCY: 93.0324 cycles
L1D AVERAGE MISS LATENCY LOAD: 85.7797 cycles
L1D AVERAGE MISS LATENCY PREFETCH: 100.073 cycles
L1D AVERAGE MSHR OCCUPANCY: 3.43126
L1D MSHR FULL: 0.00458819
L1D RQ	ACCESS:   55031959	FORWARD:          0	MERGED:   13231812	TO_CACHE:   41799585
L1D WQ	ACCESS:     247506	FORWARD:        562	MERGED:          0	TO_CACHE:     247506
L1D PQ	ACCESS:   19062052	FORWARD:          0	MERGED:          0	TO_CACHE:   19062052

L1D UNIQUE REGIONS ACCESSED: 0
L1D REGIONS CONFLICTS: 0
L1D Cross Page Prefetch Requests: 0
L1D Same Page Prefetch Requests: 23471572
L1D ROI Sum of L1D PQ occupancy: 249848017
L1D PREFETCHES PUSHED FROM L2C: 0
5606b0706263: 7422
5606b0706244: 8247
5606b0706248: 9063
5606b0706240: 9214
5606b0706260: 14177
5606b070627b: 621860
5606b0706266: 13515469
L1I TOTAL     ACCESS:   31227345  HIT:   31227345  MISS:          0  HIT %:        100  MISS %:          0   MPKI: 0
L1I Test counter:          0
L1I LOAD      ACCESS:   31227345  HIT:   31227345  MISS:          0  HIT %:        100  MISS %:          0   MPKI: 0
L1I PREFETCH  REQUESTED:          0  ISSUED:          0  USEFUL:          0  USELESS:          0
L1I USEFUL LOAD PREFETCHES:          0 PREFETCH ISSUED TO LOWER LEVEL:          0  ACCURACY: -nan
L1I TIMELY PREFETCHES:          0 LATE PREFETCHES: 0 DROPPED PREFETCHES: 0
L1I COMMIT LATE PREFETCHES: 0 MISSED OPPORTUNITY: 0 LATE IN PQ: 0 UNCOVERED: 0
L1I COMMIT LATE MSHR PREFETCHES: 0
L1I MPKI TOTAL: 0 MSHR LATE: 0 PQ LATE: 0 COMMIT LATE: 0 MISSED OPPORTUNITY: 0 UNCOVERED: 0
L1I PREFETCHES SAME FILL-ORIGIN LEVEL: 0 DIFFERENT FILL-ORIGIN LEVEL: 0
L1I AVERAGE MISS LATENCY: -nan cycles
L1I AVERAGE MISS LATENCY LOAD: -nan cycles
L1I AVERAGE MISS LATENCY PREFETCH: -nan cycles
L1I AVERAGE MSHR OCCUPANCY: 0
L1I MSHR FULL: 0
L1I RQ	ACCESS:   55063541	FORWARD:          0	MERGED:   23836197	TO_CACHE:   31227344

BTB TOTAL     ACCESS:   40353859  HIT:   40353854  MISS:          5  HIT %:        100  MISS %: 1.23904e-05   MPKI: 2.5e-05
BTB Test counter:          0
BTB BRANCH_DIRECT_JUMP	ACCESS:          0  HIT:          0  MISS:          0
BTB BRANCH_INDIRECT	ACCESS:          0  HIT:          0  MISS:          0
BTB BRANCH_CONDITIONAL	ACCESS:   40353859  HIT:   40353854  MISS:          5
BTB BRANCH_DIRECT_CALL	ACCESS:          0  HIT:          0  MISS:          0
BTB BRANCH_INDIRECT_CALL	ACCESS:          0  HIT:          0  MISS:          0
BTB BRANCH_RETURN	ACCESS:          0  HIT:          0  MISS:          0
BTB BRANCH_OTHER ACCESS:          0  HIT:          0  MISS:          0

L2C TOTAL     ACCESS:   29009669  HIT:    7182524  MISS:   21827145  HIT %:    24.7591  MISS %:    75.2409   MPKI: 109.136
L2C Test counter:          0
L2C LOAD      ACCESS:   14118051  HIT:    3617017  MISS:   10501036  HIT %:    25.6198  MISS %:    74.3802   MPKI: 52.5052
L2C DATA LOAD MPKI: 52.5052
L2C INSTRUCTION LOAD MPKI: 0
L2C PREFETCH  ACCESS:   14679539  HIT:    3356596  MISS:   11322943  HIT %:    22.8658  MISS %:    77.1342   MPKI: 56.6147
L2C DATA PREFETCH MPKI: 56.6147
L2C INSTRUCTION PREFETCH MPKI: 0
L2C WRITEBACK ACCESS:     197435  HIT:     196924  MISS:        511  HIT %:    99.7412  MISS %:   0.258819   MPKI: 0.002555
L2C LOAD TRANSLATION ACCESS:      14644  HIT:      11987  MISS:       2657  HIT %:    81.8561  MISS %:    18.1439   MPKI: 0.013285
L2C PREFETCH  REQUESTED:          0  ISSUED:          0  USEFUL:     515653  USELESS:   10807324
L2C USEFUL LOAD PREFETCHES:     515653 PREFETCH ISSUED TO LOWER LEVEL:   11322944  ACCURACY: 4.55405
L2C TIMELY PREFETCHES:     515653 LATE PREFETCHES: 0 DROPPED PREFETCHES: 0
L2C COMMIT LATE PREFETCHES: 0 MISSED OPPORTUNITY: 0 LATE IN PQ: 0 UNCOVERED: 0
L2C COMMIT LATE MSHR PREFETCHES: 0
L2C MPKI TOTAL: 52.5052 MSHR LATE: 0 PQ LATE: 0 COMMIT LATE: 0 MISSED OPPORTUNITY: 0 UNCOVERED: 0
L2C PREFETCHES SAME FILL-ORIGIN LEVEL: 0 DIFFERENT FILL-ORIGIN LEVEL: 0
L2C AVERAGE MISS LATENCY: 103.009 cycles
L2C AVERAGE MISS LATENCY LOAD: 95.4584 cycles
L2C AVERAGE MISS LATENCY PREFETCH: 110.002 cycles
L2C AVERAGE MSHR OCCUPANCY: 3.16626
L2C MSHR FULL: 0
L2C RQ	ACCESS:   14132699	FORWARD:          0	MERGED:          0	TO_CACHE:   14132699
L2C WQ	ACCESS:     197435	FORWARD:          0	MERGED:          0	TO_CACHE:     197435
L2C PQ	ACCESS:   14679540	FORWARD:          0	MERGED:          0	TO_CACHE:   14679540

L2C Instructions Evicting Data 0
L2C Translations Evicting Data 2657
L2C Data Evicting Data 21821319
L2C Instructions Evicting Instructions 0
L2C Translations Evicting Instructions 0
L2C Data Evicting Instructions 0
L2C Instructions Evicting Translations 0
L2C Translations Evicting Translations 0
L2C Data Evicting Translations 2658
L2C Dense regions hint from L2: 0
5606b0706244: 360
5606b0706263: 643
5606b0706240: 737
5606b0706248: 1245
5606b0706260: 14167
5606b070627b: 164116
5606b0706266: 10319766
PSCL5 TOTAL     ACCESS:      14644  HIT:      14644  MISS:          0  HIT %:        100  MISS %:          0   MPKI: 0
PSCL5 Test counter:          0
PSCL5 LOAD TRANSLATION ACCESS:      14644  HIT:      14644  MISS:          0  HIT %:        100  MISS %:          0   MPKI: 0
PSCL5 PREFETCH  REQUESTED:          0  ISSUED:          0  USEFUL:          0  USELESS:          0
PSCL5 USEFUL LOAD PREFETCHES:          0 PREFETCH ISSUED TO LOWER LEVEL:          0  ACCURACY: -nan
PSCL5 TIMELY PREFETCHES:          0 LATE PREFETCHES: 0 DROPPED PREFETCHES: 0
PSCL5 COMMIT LATE PREFETCHES: 0 MISSED OPPORTUNITY: 0 LATE IN PQ: 0 UNCOVERED: 0
PSCL5 COMMIT LATE MSHR PREFETCHES: 0
PSCL5 MPKI TOTAL: 0 MSHR LATE: 0 PQ LATE: 0 COMMIT LATE: 0 MISSED OPPORTUNITY: 0 UNCOVERED: 0
PSCL5 PREFETCHES SAME FILL-ORIGIN LEVEL: 0 DIFFERENT FILL-ORIGIN LEVEL: 0

PSCL4 TOTAL     ACCESS:      14644  HIT:      14644  MISS:          0  HIT %:        100  MISS %:          0   MPKI: 0
PSCL4 Test counter:          0
PSCL4 LOAD TRANSLATION ACCESS:      14644  HIT:      14644  MISS:          0  HIT %:        100  MISS %:          0   MPKI: 0
PSCL4 PREFETCH  REQUESTED:          0  ISSUED:          0  USEFUL:          0  USELESS:          0
PSCL4 USEFUL LOAD PREFETCHES:          0 PREFETCH ISSUED TO LOWER LEVEL:          0  ACCURACY: -nan
PSCL4 TIMELY PREFETCHES:          0 LATE PREFETCHES: 0 DROPPED PREFETCHES: 0
PSCL4 COMMIT LATE PREFETCHES: 0 MISSED OPPORTUNITY: 0 LATE IN PQ: 0 UNCOVERED: 0
PSCL4 COMMIT LATE MSHR PREFETCHES: 0
PSCL4 MPKI TOTAL: 0 MSHR LATE: 0 PQ LATE: 0 COMMIT LATE: 0 MISSED OPPORTUNITY: 0 UNCOVERED: 0
PSCL4 PREFETCHES SAME FILL-ORIGIN LEVEL: 0 DIFFERENT FILL-ORIGIN LEVEL: 0

PSCL3 TOTAL     ACCESS:      14644  HIT:      14644  MISS:          0  HIT %:        100  MISS %:          0   MPKI: 0
PSCL3 Test counter:          0
PSCL3 LOAD TRANSLATION ACCESS:      14644  HIT:      14644  MISS:          0  HIT %:        100  MISS %:          0   MPKI: 0
PSCL3 PREFETCH  REQUESTED:          0  ISSUED:          0  USEFUL:          0  USELESS:          0
PSCL3 USEFUL LOAD PREFETCHES:          0 PREFETCH ISSUED TO LOWER LEVEL:          0  ACCURACY: -nan
PSCL3 TIMELY PREFETCHES:          0 LATE PREFETCHES: 0 DROPPED PREFETCHES: 0
PSCL3 COMMIT LATE PREFETCHES: 0 MISSED OPPORTUNITY: 0 LATE IN PQ: 0 UNCOVERED: 0
PSCL3 COMMIT LATE MSHR PREFETCHES: 0
PSCL3 MPKI TOTAL: 0 MSHR LATE: 0 PQ LATE: 0 COMMIT LATE: 0 MISSED OPPORTUNITY: 0 UNCOVERED: 0
PSCL3 PREFETCHES SAME FILL-ORIGIN LEVEL: 0 DIFFERENT FILL-ORIGIN LEVEL: 0

PSCL2 TOTAL     ACCESS:      14644  HIT:      14615  MISS:         29  HIT %:     99.802  MISS %:   0.198033   MPKI: 0.000145
PSCL2 Test counter:          0
PSCL2 LOAD TRANSLATION ACCESS:      14644  HIT:      14615  MISS:         29  HIT %:     99.802  MISS %:   0.198033   MPKI: 0.000145
PSCL2 PREFETCH  REQUESTED:          0  ISSUED:          0  USEFUL:          0  USELESS:          0
PSCL2 USEFUL LOAD PREFETCHES:          0 PREFETCH ISSUED TO LOWER LEVEL:          0  ACCURACY: -nan
PSCL2 TIMELY PREFETCHES:          0 LATE PREFETCHES: 0 DROPPED PREFETCHES: 0
PSCL2 COMMIT LATE PREFETCHES: 0 MISSED OPPORTUNITY: 0 LATE IN PQ: 0 UNCOVERED: 0
PSCL2 COMMIT LATE MSHR PREFETCHES: 0
PSCL2 MPKI TOTAL: 0 MSHR LATE: 0 PQ LATE: 0 COMMIT LATE: 0 MISSED OPPORTUNITY: 0 UNCOVERED: 0
PSCL2 PREFETCHES SAME FILL-ORIGIN LEVEL: 0 DIFFERENT FILL-ORIGIN LEVEL: 0

LLC TOTAL     ACCESS:   22023972  HIT:   12218988  MISS:    9804984  HIT %:    55.4804  MISS %:    44.5196   MPKI: 49.0249
LLC Test counter:          0
LLC LOAD      ACCESS:   10501033  HIT:    6148733  MISS:    4352301  HIT %:    58.5536  MISS %:    41.4464   MPKI: 21.7615
LLC PREFETCH  ACCESS:   11322941  HIT:    5872465  MISS:    5450476  HIT %:    51.8634  MISS %:    48.1366   MPKI: 27.2524
LLC WRITEBACK ACCESS:     197341  HIT:     197064  MISS:        277  HIT %:    99.8596  MISS %:   0.140366   MPKI: 0.001385
LLC LOAD TRANSLATION ACCESS:       2657  HIT:        726  MISS:       1931  HIT %:     27.324  MISS %:     72.676   MPKI: 0.009655
LLC PREFETCH  REQUESTED:          0  ISSUED:          0  USEFUL:     919644  USELESS:    4531281
LLC USEFUL LOAD PREFETCHES:     919644 PREFETCH ISSUED TO LOWER LEVEL:    5450477  ACCURACY: 16.8727
LLC TIMELY PREFETCHES:     919644 LATE PREFETCHES: 0 DROPPED PREFETCHES: 0
LLC COMMIT LATE PREFETCHES: 0 MISSED OPPORTUNITY: 0 LATE IN PQ: 0 UNCOVERED: 0
LLC COMMIT LATE MSHR PREFETCHES: 0
LLC MPKI TOTAL: 21.7615 MSHR LATE: 0 PQ LATE: 0 COMMIT LATE: 0 MISSED OPPORTUNITY: 0 UNCOVERED: 0
LLC PREFETCHES SAME FILL-ORIGIN LEVEL: 0 DIFFERENT FILL-ORIGIN LEVEL: 0
LLC AVERAGE MISS LATENCY: 162.425 cycles
LLC AVERAGE MISS LATENCY LOAD: 157.816 cycles
LLC AVERAGE MISS LATENCY PREFETCH: 166.107 cycles
LLC AVERAGE MSHR OCCUPANCY: 1.90075
LLC MSHR FULL: 0
LLC RQ	ACCESS:   10503693	FORWARD:          0	MERGED:          0	TO_CACHE:   10503692
LLC WQ	ACCESS:     197341	FORWARD:          3	MERGED:          0	TO_CACHE:     197341
LLC PQ	ACCESS:   11322944	FORWARD:          0	MERGED:          0	TO_CACHE:   11322942

LLC Dense regions hint to LLC: 0
5606b0706244: 8
5606b0706240: 218
5606b0706263: 244
5606b0706248: 938
5606b0706260: 14167
5606b070627b: 40046
5606b0706266: 4296679

RAW hits: 30069
Loads Generated: 55062031
Loads sent to L1D: 55031959
Stores Generated: 247506
Stores sent to L1D: 247506
Major fault: 0 Minor fault: 19168
Allocated PAGES: 19168
Total Load insts: 67809510
Total Non-spec loads: 11988535
Percentage of speculative loads: 82.3203
L1D response latency: 86.1892 cycles
Load retirement latency: 173.643 cycles


stream: 
stream:times selected: 26633361
stream:pref_filled: 16432335
stream:pref_useful: 225817
stream:pref_late: 75134
stream:misses: 3852853
stream:misses_by_poll: 0

CS: 
CS:times selected: 1362159
CS:pref_filled: 1229842
CS:pref_useful: 1138927
CS:pref_late: 1348
CS:misses: 74316
CS:misses_by_poll: 680

CPLX: 
CPLX:times selected: 25084387
CPLX:pref_filled: 367993
CPLX:pref_useful: 10931
CPLX:pref_late: 2161
CPLX:misses: 13568886
CPLX:misses_by_poll: 95

NL_L1: 
NL:times selected: 43506
NL:pref_filled: 31061
NL:pref_useful: 478
NL:pref_late: 82
NL:misses: 28277
NL:misses_by_poll: 0

total selections: 53123413
total_filled: 14612139
total_useful: 1108552
total_late: 80989
total_polluted: 775
total_misses_after_warmup: 14263596
conflicts: 0
Degree Incremented Times: 201573
Degree Decremented Times: 447481

L1 IP Table Write Accesses: 41799586
L1 IP Table Read Accesses: 41799586
L1 RST Write Accesses: 21505166
L1 RST Read Accesses: 43010332
L1 CSPT Write Accesses: 21505166
L1 CSPT Read Accesses: 41744431
L1 RR Filter Tag Write Accesses: 19062053
L1 RR Filter Tag Read Accesses: 712889901
L1 IP Table Tag Write Accesses: 41799586
L1 IP Table Tag Read Accesses: 41799586
L1 RST Tag Write Accesses: 0
L1 RST Tag Read Accesses: 221809183
L1 RR Filter Write Accesses: 0
L1 RR Filter Read Accesses: 24760820
test: 11926735

DRAM Statistics
 CHANNEL 0
 RQ ROW_BUFFER_HIT:    3027321  ROW_BUFFER_MISS:    6777334
 DBUS_CONGESTED:       2723
 WQ ROW_BUFFER_HIT:      80465  ROW_BUFFER_MISS:     115678  FULL:          0

 AVG_CONGESTED_CYCLE: 4
 All warmup complete: 2
Channel 0 Bank busy for read cycles: 0
Channel 0 Bank busy for write cycles: 0
Channel 0
Rank 0
0banks busy for read cycles: 307285387
0banks busy for write cycles: 149171
1banks busy for read cycles: 194934648
1banks busy for write cycles: 32582327
2banks busy for read cycles: 142999788
2banks busy for write cycles: 5825737
3banks busy for read cycles: 79132062
3banks busy for write cycles: 1430787
4banks busy for read cycles: 51402056
4banks busy for write cycles: 437695
5banks busy for read cycles: 27574743
5banks busy for write cycles: 134510
6banks busy for read cycles: 12372367
6banks busy for write cycles: 37878
7banks busy for read cycles: 3844013
7banks busy for write cycles: 8806
8banks busy for read cycles: 629337
8banks busy for write cycles: 2957

CPU 0 Branch Prediction Accuracy: 92.3859% MPKI: 15.4313 Average ROB Occupancy at Mispredict: 34.7418
Branch types
NOT_BRANCH: 159466168 79.7331%
BRANCH_DIRECT_JUMP: 0 0%
BRANCH_INDIRECT: 0 0%
BRANCH_CONDITIONAL: 40533593 20.2668%
BRANCH_DIRECT_CALL: 0 0%
BRANCH_INDIRECT_CALL: 0 0%
BRANCH_RETURN: 0 0%
BRANCH_OTHER: 0 0%

DRAM PAGES: 1048576
Allocated PAGES: 19168
