
*** ChampSim Multicore Out-of-Order Simulator ***

Warmup Instructions: 50000000
Simulation Instructions: 200000000
Number of CPUs: 1
LLC sets: 2048
LLC ways: 16
Secure Berti: OFF
Berti: OFF
Berti Fill: OFF
On commit prefetching: OFF
L2 LLC Bypass speculative loads: OFF
Off-chip DRAM Size: 4096 MB Channels: 1 Width: 64-bit Data Rate: 6400 MT/s
CPU 0 runs /home/sumon/secure_berti/Berti_Baseline/../../traces/gap/pr-14.trace.gz
.gz
BTB has LRU replacement policy
ITLB has LRU replacement policy
DTLB has LRU replacement policy
STLB has LRU replacement policy
L1I has LRU replacement policy
IP Table Entries: 1024
CSPT Entries: 128
RR_ENTRIES: 32
RST_ENTRIES: 8
L1D has LRU replacement policy
L2C has LRU replacement policy
LLC has LRU replacement policy
Heartbeat CPU 0 instructions: 10000001 cycles: 3333439 heartbeat IPC: 2.99991 cumulative IPC: 2.99991 (Simulation time: 0 hr 0 min 22 sec) 
Heartbeat CPU 0 instructions: 20000001 cycles: 9899580 heartbeat IPC: 1.52296 cumulative IPC: 2.02029 (Simulation time: 0 hr 1 min 6 sec) 
Heartbeat CPU 0 instructions: 30000003 cycles: 16989525 heartbeat IPC: 1.41045 cumulative IPC: 1.76579 (Simulation time: 0 hr 1 min 50 sec) 
Heartbeat CPU 0 instructions: 40000003 cycles: 24049600 heartbeat IPC: 1.41642 cumulative IPC: 1.66323 (Simulation time: 0 hr 2 min 36 sec) 
Heartbeat CPU 0 instructions: 50000000 cycles: 31107044 heartbeat IPC: 1.41694 cumulative IPC: 1.60735 (Simulation time: 0 hr 3 min 25 sec) 

Warmup complete CPU 0 instructions: 50000004 cycles: 31107047 (Simulation time: 0 hr 3 min 25 sec) 

Heartbeat CPU 0 instructions: 60000000 cycles: 223336580 heartbeat IPC: 0.0520211 cumulative IPC: 0.0520211 (Simulation time: 0 hr 5 min 39 sec) 
Heartbeat CPU 0 instructions: 70000000 cycles: 415461476 heartbeat IPC: 0.0520495 cumulative IPC: 0.0520353 (Simulation time: 0 hr 8 min 0 sec) 
Heartbeat CPU 0 instructions: 80000001 cycles: 608262664 heartbeat IPC: 0.0518669 cumulative IPC: 0.051979 (Simulation time: 0 hr 10 min 22 sec) 
Heartbeat CPU 0 instructions: 90000000 cycles: 800981344 heartbeat IPC: 0.0518891 cumulative IPC: 0.0519565 (Simulation time: 0 hr 12 min 37 sec) 
Heartbeat CPU 0 instructions: 100000001 cycles: 992603792 heartbeat IPC: 0.052186 cumulative IPC: 0.0520023 (Simulation time: 0 hr 14 min 52 sec) 
Heartbeat CPU 0 instructions: 110000000 cycles: 1185687950 heartbeat IPC: 0.0517909 cumulative IPC: 0.0519669 (Simulation time: 0 hr 16 min 51 sec) 
Heartbeat CPU 0 instructions: 120000001 cycles: 1377845579 heartbeat IPC: 0.0520406 cumulative IPC: 0.0519774 (Simulation time: 0 hr 18 min 39 sec) 
Heartbeat CPU 0 instructions: 130000000 cycles: 1568969457 heartbeat IPC: 0.0523221 cumulative IPC: 0.0520203 (Simulation time: 0 hr 20 min 24 sec) 
Heartbeat CPU 0 instructions: 140000002 cycles: 1760767998 heartbeat IPC: 0.052138 cumulative IPC: 0.0520333 (Simulation time: 0 hr 22 min 9 sec) 
Heartbeat CPU 0 instructions: 150000001 cycles: 1953090284 heartbeat IPC: 0.051996 cumulative IPC: 0.0520296 (Simulation time: 0 hr 23 min 55 sec) 
Heartbeat CPU 0 instructions: 160000001 cycles: 2145206443 heartbeat IPC: 0.0520518 cumulative IPC: 0.0520316 (Simulation time: 0 hr 25 min 41 sec) 
Heartbeat CPU 0 instructions: 170000003 cycles: 2337247675 heartbeat IPC: 0.0520722 cumulative IPC: 0.052035 (Simulation time: 0 hr 27 min 26 sec) 
Heartbeat CPU 0 instructions: 180000001 cycles: 2528787348 heartbeat IPC: 0.0522085 cumulative IPC: 0.0520483 (Simulation time: 0 hr 29 min 11 sec) 
Heartbeat CPU 0 instructions: 190000000 cycles: 2667417478 heartbeat IPC: 0.0721344 cumulative IPC: 0.0531045 (Simulation time: 0 hr 30 min 31 sec) 
Heartbeat CPU 0 instructions: 200000002 cycles: 2709296246 heartbeat IPC: 0.238785 cumulative IPC: 0.056008 (Simulation time: 0 hr 31 min 4 sec) 
Heartbeat CPU 0 instructions: 210000001 cycles: 2901821276 heartbeat IPC: 0.0519413 cumulative IPC: 0.0557353 (Simulation time: 0 hr 32 min 50 sec) 
Heartbeat CPU 0 instructions: 220000000 cycles: 3094419772 heartbeat IPC: 0.0519215 cumulative IPC: 0.0554955 (Simulation time: 0 hr 34 min 36 sec) 
Heartbeat CPU 0 instructions: 230000000 cycles: 3286960403 heartbeat IPC: 0.0519371 cumulative IPC: 0.055285 (Simulation time: 0 hr 36 min 23 sec) 
Heartbeat CPU 0 instructions: 240000002 cycles: 3478472803 heartbeat IPC: 0.0522159 cumulative IPC: 0.0551145 (Simulation time: 0 hr 38 min 8 sec) 
Heartbeat CPU 0 instructions: 250000003 cycles: 3670979543 heartbeat IPC: 0.0519462 cumulative IPC: 0.054947 (Simulation time: 0 hr 39 min 54 sec) 
Finished CPU 0 instructions: 200000000 cycles: 3639872497 cumulative IPC: 0.054947 (Simulation time: 0 hr 39 min 54 sec) 

ChampSim completed all CPUs

Region of Interest Statistics

CPU 0 cumulative IPC: 0.054947 instructions: 200000000 cycles: 3639872497
ITLB TOTAL     ACCESS:   58518176  HIT:   58518176  MISS:          0  HIT %:        100  MISS %:          0   MPKI: 0
ITLB Test counter:          0
ITLB LOAD TRANSLATION ACCESS:   58518176  HIT:   58518176  MISS:          0  HIT %:        100  MISS %:          0   MPKI: 0
ITLB PREFETCH  REQUESTED:          0  ISSUED:          0  USEFUL:          0  USELESS:          0
ITLB USEFUL LOAD PREFETCHES:          0 PREFETCH ISSUED TO LOWER LEVEL:          0  ACCURACY: -nan
ITLB TIMELY PREFETCHES:          0 LATE PREFETCHES: 0 DROPPED PREFETCHES: 0
ITLB COMMIT LATE PREFETCHES: 0 MISSED OPPORTUNITY: 0 LATE IN PQ: 0 UNCOVERED: 0
ITLB COMMIT LATE MSHR PREFETCHES: 0
ITLB MPKI TOTAL: 0 MSHR LATE: 0 PQ LATE: 0 COMMIT LATE: 0 MISSED OPPORTUNITY: 0 UNCOVERED: 0
ITLB PREFETCHES SAME FILL-ORIGIN LEVEL: 0 DIFFERENT FILL-ORIGIN LEVEL: 0
ITLB AVERAGE MISS LATENCY: -nan cycles
ITLB AVERAGE MISS LATENCY LOAD: -nan cycles
ITLB AVERAGE MISS LATENCY PREFETCH: -nan cycles
ITLB AVERAGE MSHR OCCUPANCY: 0
ITLB MSHR FULL: 0
ITLB RQ	ACCESS:   59646184	FORWARD:          0	MERGED:    1128007	TO_CACHE:   58518177

DTLB TOTAL     ACCESS:   67151261  HIT:   44153764  MISS:   22997497  HIT %:    65.7527  MISS %:    34.2473   MPKI: 114.987
DTLB Test counter:          0
DTLB LOAD TRANSLATION ACCESS:   67151261  HIT:   44153764  MISS:   22997497  HIT %:    65.7527  MISS %:    34.2473   MPKI: 114.987
DTLB PREFETCH  REQUESTED:          0  ISSUED:          0  USEFUL:          0  USELESS:          0
DTLB USEFUL LOAD PREFETCHES:          0 PREFETCH ISSUED TO LOWER LEVEL:          0  ACCURACY: -nan
DTLB TIMELY PREFETCHES:          0 LATE PREFETCHES: 0 DROPPED PREFETCHES: 0
DTLB COMMIT LATE PREFETCHES: 0 MISSED OPPORTUNITY: 0 LATE IN PQ: 0 UNCOVERED: 0
DTLB COMMIT LATE MSHR PREFETCHES: 0
DTLB MPKI TOTAL: 0 MSHR LATE: 0 PQ LATE: 0 COMMIT LATE: 0 MISSED OPPORTUNITY: 0 UNCOVERED: 0
DTLB PREFETCHES SAME FILL-ORIGIN LEVEL: 0 DIFFERENT FILL-ORIGIN LEVEL: 0
DTLB AVERAGE MISS LATENCY: 9.19551 cycles
DTLB AVERAGE MISS LATENCY LOAD: -nan cycles
DTLB AVERAGE MISS LATENCY PREFETCH: -nan cycles
DTLB AVERAGE MSHR OCCUPANCY: 0.20134
DTLB MSHR FULL: 0
DTLB RQ	ACCESS:   67832430	FORWARD:          0	MERGED:     671878	TO_CACHE:   67160552

STLB TOTAL     ACCESS:   57229710  HIT:   57188892  MISS:      40818  HIT %:    99.9287  MISS %:  0.0713231   MPKI: 0.20409
STLB Test counter:          0
STLB LOAD TRANSLATION ACCESS:   22997496  HIT:   22956678  MISS:      40818  HIT %:    99.8225  MISS %:   0.177489   MPKI: 0.20409
STLB TRANSLATION FROM L1D PREFETCHER ACCESS:   34232214  HIT:   34232214  MISS:          0  HIT %:        100  MISS %:          0   MPKI: 0
STLB PREFETCH  REQUESTED:          0  ISSUED:          0  USEFUL:          0  USELESS:          0
STLB USEFUL LOAD PREFETCHES:          0 PREFETCH ISSUED TO LOWER LEVEL:          0  ACCURACY: -nan
STLB TIMELY PREFETCHES:          0 LATE PREFETCHES: 0 DROPPED PREFETCHES: 0
STLB COMMIT LATE PREFETCHES: 0 MISSED OPPORTUNITY: 0 LATE IN PQ: 0 UNCOVERED: 0
STLB COMMIT LATE MSHR PREFETCHES: 0
STLB MPKI TOTAL: 0 MSHR LATE: 0 PQ LATE: 0 COMMIT LATE: 0 MISSED OPPORTUNITY: 0 UNCOVERED: 0
STLB PREFETCHES SAME FILL-ORIGIN LEVEL: 0 DIFFERENT FILL-ORIGIN LEVEL: 0
STLB AVERAGE MISS LATENCY: 106.254 cycles
STLB AVERAGE MISS LATENCY LOAD: -nan cycles
STLB AVERAGE MISS LATENCY PREFETCH: -nan cycles
STLB AVERAGE MSHR OCCUPANCY: 0.000799532
STLB MSHR FULL: 0
STLB RQ	ACCESS:   60206118	FORWARD:          0	MERGED:    2976408	TO_CACHE:   57229710

STLB Hit, L1D data hit: 0
STLB Hit, L2C data hit: 0
STLB Hit, LLC data hit: 0
STLB Hit, LLC data miss: 0
STLB STLB hints to L2: 0
L1D TOTAL     ACCESS:  103897546  HIT:   37622781  MISS:   66274765  HIT %:    36.2114  MISS %:    63.7886   MPKI: 331.374
L1D Test counter:          0
L1D LOAD      ACCESS:   64418423  HIT:   32356276  MISS:   32170343  HIT %:    50.2283  MISS %:    49.7717   MPKI: 160.311
L1D RFO       ACCESS:    2525652  HIT:    2460093  MISS:      65559  HIT %:    97.4043  MISS %:    2.59573   MPKI: 0.327795
L1D PREFETCH  ACCESS:   36953471  HIT:    2806412  MISS:   34147059  HIT %:    7.59445  MISS %:    92.4056   MPKI: 170.735
L1D PREFETCH  REQUESTED:   74417244  ISSUED:   74417244  USEFUL:    3120132  USELESS:   31026926
L1D USEFUL LOAD PREFETCHES:    3120132 PREFETCH ISSUED TO LOWER LEVEL:   34394440  ACCURACY: 9.07162
L1D TIMELY PREFETCHES:    3120132 LATE PREFETCHES: 247380 DROPPED PREFETCHES: 0
L1D COMMIT LATE PREFETCHES: 0 MISSED OPPORTUNITY: 0 LATE IN PQ: 3930 UNCOVERED: 0
L1D COMMIT LATE MSHR PREFETCHES: 0
L1D MPKI TOTAL: 160.852 MSHR LATE: 1.2369 PQ LATE: 0.01965 COMMIT LATE: 0 MISSED OPPORTUNITY: 0 UNCOVERED: 0
L1D PREFETCHES SAME FILL-ORIGIN LEVEL: 34394440 DIFFERENT FILL-ORIGIN LEVEL: 0
L1D AVERAGE MISS LATENCY: 96.7556 cycles
L1D AVERAGE MISS LATENCY LOAD: 89.2519 cycles
L1D AVERAGE MISS LATENCY PREFETCH: 103.598 cycles
L1D AVERAGE MSHR OCCUPANCY: 0.928176
L1D MSHR FULL: 0
L1D RQ	ACCESS:   77350916	FORWARD:          0	MERGED:   12824289	TO_CACHE:   64526618
L1D WQ	ACCESS:    3305817	FORWARD:          9	MERGED:          5	TO_CACHE:    3305812
L1D PQ	ACCESS:   37208622	FORWARD:          0	MERGED:          0	TO_CACHE:   37208622

L1D UNIQUE REGIONS ACCESSED: 0
L1D REGIONS CONFLICTS: 0
L1D Cross Page Prefetch Requests: 0
L1D Same Page Prefetch Requests: 45236664
L1D ROI Sum of L1D PQ occupancy: 484692854
L1D PREFETCHES PUSHED FROM L2C: 0
14f59f3ad3c3: 1
14f59f373040: 1
14f59f3b11c6: 1
14f59f40d578: 1
14f59f3b0cd6: 1
14f59f3ae461: 1
14f59f3b3760: 1
14f59f3ad67a: 1
14f59f3afef2: 1
14f59f3ad67e: 1
55fb304d6fee: 1
14f59f403143: 1
14f59f3ad530: 1
14f59f3dd951: 1
14f59f373230: 1
14f59f3b11d1: 1
14f59f3ad3bc: 1
14f59f3ad5e5: 1
14f59f3aa86b: 1
14f59f3b16e4: 1
55fb304d702d: 1
55fb304d703f: 1
14f59f403646: 1
55fb304d6fe0: 1
14f59f373100: 1
14f59f4820b0: 1
14f59f3b16d6: 1
14f59f484254: 1
14f59f48424b: 1
14f59f484247: 1
14f59f484240: 1
55fb304d5510: 1
14f59f3ad3cc: 1
14f59f484230: 1
14f59f484264: 1
14f59f3b0cdd: 1
14f59f48426f: 1
14f59f3b24f2: 5
55fb304d700d: 1510
55fb304d7000: 6085
55fb304d7093: 8322
55fb304d7050: 18063
55fb304d7075: 19206
55fb304d7054: 20465
55fb304d707b: 41058
55fb304d7060: 42009
55fb304d706a: 31905387
L1I TOTAL     ACCESS:   59646182  HIT:   59646161  MISS:         21  HIT %:        100  MISS %: 3.52076e-05   MPKI: 0.000105
L1I Test counter:          0
L1I LOAD      ACCESS:   59646182  HIT:   59646161  MISS:         22  HIT %:        100  MISS %: 3.52076e-05   MPKI: 0.000105
L1I PREFETCH  REQUESTED:          0  ISSUED:          0  USEFUL:          0  USELESS:          0
L1I USEFUL LOAD PREFETCHES:          0 PREFETCH ISSUED TO LOWER LEVEL:          0  ACCURACY: -nan
L1I TIMELY PREFETCHES:          0 LATE PREFETCHES: 0 DROPPED PREFETCHES: 0
L1I COMMIT LATE PREFETCHES: 0 MISSED OPPORTUNITY: 0 LATE IN PQ: 0 UNCOVERED: 0
L1I COMMIT LATE MSHR PREFETCHES: 0
L1I MPKI TOTAL: 0.00011 MSHR LATE: 0 PQ LATE: 0 COMMIT LATE: 0 MISSED OPPORTUNITY: 0 UNCOVERED: 0
L1I PREFETCHES SAME FILL-ORIGIN LEVEL: 0 DIFFERENT FILL-ORIGIN LEVEL: 0
L1I AVERAGE MISS LATENCY: 161.619 cycles
L1I AVERAGE MISS LATENCY LOAD: 161.619 cycles
L1I AVERAGE MISS LATENCY PREFETCH: -nan cycles
L1I AVERAGE MSHR OCCUPANCY: 1.34124e-07
L1I MSHR FULL: 0
L1I RQ	ACCESS:   70750724	FORWARD:          0	MERGED:   11104540	TO_CACHE:   59646184

14f59f3a5944: 1
14f59f3b33c4: 1
14f59f3a5396: 1
14f59f3b2400: 1
14f59f3b33b8: 1
14f59f3b266c: 1
14f59f3b2682: 1
14f59f3b31c8: 1
14f59f3a5340: 1
14f59f3a593a: 1
14f59f3af103: 1
14f59f3b1d70: 1
14f59f3b23df: 1
14f59f3af0db: 1
14f59f3a53c0: 1
14f59f3a59b9: 1
14f59f3b2443: 1
14f59f3b24ee: 1
14f59f3b26f2: 1
14f59f3b2f1c: 1
14f59f3b2f41: 1
BTB TOTAL     ACCESS:   37022761  HIT:   37022589  MISS:        172  HIT %:    99.9995  MISS %: 0.000464579   MPKI: 0.00086
BTB Test counter:          0
BTB BRANCH_DIRECT_JUMP	ACCESS:         66  HIT:         33  MISS:         33
BTB BRANCH_INDIRECT	ACCESS:          4  HIT:          0  MISS:          4
BTB BRANCH_CONDITIONAL	ACCESS:   37022625  HIT:   37022536  MISS:         89
BTB BRANCH_DIRECT_CALL	ACCESS:         28  HIT:         10  MISS:         18
BTB BRANCH_INDIRECT_CALL	ACCESS:          5  HIT:          1  MISS:          4
BTB BRANCH_RETURN	ACCESS:         33  HIT:          9  MISS:         24
BTB BRANCH_OTHER ACCESS:          0  HIT:          0  MISS:          0

L2C TOTAL     ACCESS:   66487161  HIT:   14278570  MISS:   52208591  HIT %:    21.4757  MISS %:    78.5243   MPKI: 261.043
L2C Test counter:          0
L2C LOAD      ACCESS:   31814759  HIT:    7390233  MISS:   24424526  HIT %:    23.2289  MISS %:    76.7711   MPKI: 122.123
L2C DATA LOAD MPKI: 122.123
L2C INSTRUCTION LOAD MPKI: 0.000105
L2C RFO       ACCESS:      65559  HIT:         75  MISS:      65484  HIT %:   0.114401  MISS %:    99.8856   MPKI: 0.32742
L2C PREFETCH  ACCESS:   34394439  HIT:    6684935  MISS:   27709504  HIT %:    19.4361  MISS %:    80.5639   MPKI: 138.548
L2C DATA PREFETCH MPKI: 138.548
L2C INSTRUCTION PREFETCH MPKI: 0
L2C WRITEBACK ACCESS:     171548  HIT:     170625  MISS:        923  HIT %:     99.462  MISS %:   0.538042   MPKI: 0.004615
L2C LOAD TRANSLATION ACCESS:      40856  HIT:      32702  MISS:       8154  HIT %:    80.0421  MISS %:    19.9579   MPKI: 0.04077
L2C PREFETCH  REQUESTED:          0  ISSUED:          0  USEFUL:    1152621  USELESS:   26556994
L2C USEFUL LOAD PREFETCHES:    1152621 PREFETCH ISSUED TO LOWER LEVEL:   27709505  ACCURACY: 4.15966
L2C TIMELY PREFETCHES:    1152621 LATE PREFETCHES: 0 DROPPED PREFETCHES: 0
L2C COMMIT LATE PREFETCHES: 0 MISSED OPPORTUNITY: 0 LATE IN PQ: 0 UNCOVERED: 0
L2C COMMIT LATE MSHR PREFETCHES: 0
L2C MPKI TOTAL: 122.123 MSHR LATE: 0 PQ LATE: 0 COMMIT LATE: 0 MISSED OPPORTUNITY: 0 UNCOVERED: 0
L2C PREFETCHES SAME FILL-ORIGIN LEVEL: 0 DIFFERENT FILL-ORIGIN LEVEL: 0
L2C AVERAGE MISS LATENCY: 104.363 cycles
L2C AVERAGE MISS LATENCY LOAD: 97.6025 cycles
L2C AVERAGE MISS LATENCY PREFETCH: 110.111 cycles
L2C AVERAGE MSHR OCCUPANCY: 0.463477
L2C MSHR FULL: 0
L2C RQ	ACCESS:   31921203	FORWARD:          0	MERGED:          0	TO_CACHE:   31921174
L2C WQ	ACCESS:     171548	FORWARD:         29	MERGED:          0	TO_CACHE:     171548
L2C PQ	ACCESS:   34394440	FORWARD:          0	MERGED:          0	TO_CACHE:   34394440

L2C Instructions Evicting Data 21
L2C Translations Evicting Data 8154
L2C Data Evicting Data 52191316
L2C Instructions Evicting Instructions 0
L2C Translations Evicting Instructions 0
L2C Data Evicting Instructions 21
L2C Instructions Evicting Translations 0
L2C Translations Evicting Translations 0
L2C Data Evicting Translations 8156
L2C Dense regions hint from L2: 0
14f59f3ad530: 1
55fb304d5510: 1
14f59f3ad3cc: 1
14f59f484230: 1
14f59f484264: 1
14f59f3b0cdd: 1
14f59f48426f: 1
14f59f3b2682: 1
14f59f3b31c8: 1
14f59f3b3760: 1
14f59f3ad67a: 1
14f59f3afef2: 1
55fb304d6fee: 1
14f59f373040: 1
14f59f3ad3c3: 1
14f59f403143: 1
55fb304d702d: 1
14f59f3dd951: 1
14f59f373230: 1
14f59f3b11d1: 1
14f59f3ad3bc: 1
14f59f3ad5e5: 1
14f59f3af0db: 1
14f59f3aa86b: 1
14f59f3af103: 1
14f59f3ad67e: 1
14f59f3ae461: 1
14f59f3b33b8: 1
14f59f3b0cd6: 1
14f59f40d578: 1
14f59f3b11c6: 1
14f59f3a53c0: 1
14f59f373100: 1
14f59f484240: 1
14f59f403646: 1
14f59f3a5944: 1
14f59f3a593a: 1
14f59f3a5340: 1
14f59f3b26f2: 1
14f59f3a5396: 1
14f59f3b24ee: 1
14f59f3b33c4: 1
14f59f3b16d6: 1
14f59f4820b0: 1
14f59f3b2f41: 1
14f59f3b1d70: 1
55fb304d6fe0: 1
55fb304d703f: 1
14f59f3b266c: 1
14f59f484247: 1
14f59f3a59b9: 1
14f59f3b16e4: 1
14f59f48424b: 1
14f59f484254: 1
14f59f3b23df: 1
14f59f3b2400: 1
14f59f3b2f1c: 1
14f59f3b2443: 1
14f59f3b24f2: 4
55fb304d7050: 808
55fb304d700d: 1484
55fb304d7075: 2112
55fb304d7000: 2656
55fb304d7054: 2944
55fb304d7093: 3012
55fb304d707b: 3060
55fb304d7060: 39432
55fb304d706a: 24368956
PSCL5 TOTAL     ACCESS:      40818  HIT:      40818  MISS:          0  HIT %:        100  MISS %:          0   MPKI: 0
PSCL5 Test counter:          0
PSCL5 LOAD TRANSLATION ACCESS:      40818  HIT:      40818  MISS:          0  HIT %:        100  MISS %:          0   MPKI: 0
PSCL5 PREFETCH  REQUESTED:          0  ISSUED:          0  USEFUL:          0  USELESS:          0
PSCL5 USEFUL LOAD PREFETCHES:          0 PREFETCH ISSUED TO LOWER LEVEL:          0  ACCURACY: -nan
PSCL5 TIMELY PREFETCHES:          0 LATE PREFETCHES: 0 DROPPED PREFETCHES: 0
PSCL5 COMMIT LATE PREFETCHES: 0 MISSED OPPORTUNITY: 0 LATE IN PQ: 0 UNCOVERED: 0
PSCL5 COMMIT LATE MSHR PREFETCHES: 0
PSCL5 MPKI TOTAL: 0 MSHR LATE: 0 PQ LATE: 0 COMMIT LATE: 0 MISSED OPPORTUNITY: 0 UNCOVERED: 0
PSCL5 PREFETCHES SAME FILL-ORIGIN LEVEL: 0 DIFFERENT FILL-ORIGIN LEVEL: 0

PSCL4 TOTAL     ACCESS:      40818  HIT:      40818  MISS:          0  HIT %:        100  MISS %:          0   MPKI: 0
PSCL4 Test counter:          0
PSCL4 LOAD TRANSLATION ACCESS:      40818  HIT:      40818  MISS:          0  HIT %:        100  MISS %:          0   MPKI: 0
PSCL4 PREFETCH  REQUESTED:          0  ISSUED:          0  USEFUL:          0  USELESS:          0
PSCL4 USEFUL LOAD PREFETCHES:          0 PREFETCH ISSUED TO LOWER LEVEL:          0  ACCURACY: -nan
PSCL4 TIMELY PREFETCHES:          0 LATE PREFETCHES: 0 DROPPED PREFETCHES: 0
PSCL4 COMMIT LATE PREFETCHES: 0 MISSED OPPORTUNITY: 0 LATE IN PQ: 0 UNCOVERED: 0
PSCL4 COMMIT LATE MSHR PREFETCHES: 0
PSCL4 MPKI TOTAL: 0 MSHR LATE: 0 PQ LATE: 0 COMMIT LATE: 0 MISSED OPPORTUNITY: 0 UNCOVERED: 0
PSCL4 PREFETCHES SAME FILL-ORIGIN LEVEL: 0 DIFFERENT FILL-ORIGIN LEVEL: 0

PSCL3 TOTAL     ACCESS:      40818  HIT:      40818  MISS:          0  HIT %:        100  MISS %:          0   MPKI: 0
PSCL3 Test counter:          0
PSCL3 LOAD TRANSLATION ACCESS:      40818  HIT:      40818  MISS:          0  HIT %:        100  MISS %:          0   MPKI: 0
PSCL3 PREFETCH  REQUESTED:          0  ISSUED:          0  USEFUL:          0  USELESS:          0
PSCL3 USEFUL LOAD PREFETCHES:          0 PREFETCH ISSUED TO LOWER LEVEL:          0  ACCURACY: -nan
PSCL3 TIMELY PREFETCHES:          0 LATE PREFETCHES: 0 DROPPED PREFETCHES: 0
PSCL3 COMMIT LATE PREFETCHES: 0 MISSED OPPORTUNITY: 0 LATE IN PQ: 0 UNCOVERED: 0
PSCL3 COMMIT LATE MSHR PREFETCHES: 0
PSCL3 MPKI TOTAL: 0 MSHR LATE: 0 PQ LATE: 0 COMMIT LATE: 0 MISSED OPPORTUNITY: 0 UNCOVERED: 0
PSCL3 PREFETCHES SAME FILL-ORIGIN LEVEL: 0 DIFFERENT FILL-ORIGIN LEVEL: 0

PSCL2 TOTAL     ACCESS:      40818  HIT:      40733  MISS:         85  HIT %:    99.7918  MISS %:   0.208241   MPKI: 0.000425
PSCL2 Test counter:          0
PSCL2 LOAD TRANSLATION ACCESS:      40818  HIT:      40733  MISS:         85  HIT %:    99.7918  MISS %:   0.208241   MPKI: 0.000425
PSCL2 PREFETCH  REQUESTED:          0  ISSUED:          0  USEFUL:          0  USELESS:          0
PSCL2 USEFUL LOAD PREFETCHES:          0 PREFETCH ISSUED TO LOWER LEVEL:          0  ACCURACY: -nan
PSCL2 TIMELY PREFETCHES:          0 LATE PREFETCHES: 0 DROPPED PREFETCHES: 0
PSCL2 COMMIT LATE PREFETCHES: 0 MISSED OPPORTUNITY: 0 LATE IN PQ: 0 UNCOVERED: 0
PSCL2 COMMIT LATE MSHR PREFETCHES: 0
PSCL2 MPKI TOTAL: 0 MSHR LATE: 0 PQ LATE: 0 COMMIT LATE: 0 MISSED OPPORTUNITY: 0 UNCOVERED: 0
PSCL2 PREFETCHES SAME FILL-ORIGIN LEVEL: 0 DIFFERENT FILL-ORIGIN LEVEL: 0

LLC TOTAL     ACCESS:   52347468  HIT:   27161805  MISS:   25185663  HIT %:    51.8875  MISS %:    48.1125   MPKI: 125.928
LLC Test counter:          0
LLC LOAD      ACCESS:   24424526  HIT:   13645470  MISS:   10779056  HIT %:    55.8679  MISS %:    44.1321   MPKI: 53.8953
LLC RFO       ACCESS:      65484  HIT:       1542  MISS:      63942  HIT %:    2.35477  MISS %:    97.6452   MPKI: 0.31971
LLC PREFETCH  ACCESS:   27709505  HIT:   13373383  MISS:   14336122  HIT %:    48.2628  MISS %:    51.7372   MPKI: 71.6806
LLC WRITEBACK ACCESS:     139799  HIT:     139390  MISS:        409  HIT %:    99.7074  MISS %:   0.292563   MPKI: 0.002045
LLC LOAD TRANSLATION ACCESS:       8154  HIT:       2020  MISS:       6134  HIT %:    24.7731  MISS %:    75.2269   MPKI: 0.03067
LLC PREFETCH  REQUESTED:          0  ISSUED:          0  USEFUL:    2076322  USELESS:   12260186
LLC USEFUL LOAD PREFETCHES:    2076322 PREFETCH ISSUED TO LOWER LEVEL:   14336122  ACCURACY: 14.4831
LLC TIMELY PREFETCHES:    2076322 LATE PREFETCHES: 0 DROPPED PREFETCHES: 0
LLC COMMIT LATE PREFETCHES: 0 MISSED OPPORTUNITY: 0 LATE IN PQ: 0 UNCOVERED: 0
LLC COMMIT LATE MSHR PREFETCHES: 0
LLC MPKI TOTAL: 53.8953 MSHR LATE: 0 PQ LATE: 0 COMMIT LATE: 0 MISSED OPPORTUNITY: 0 UNCOVERED: 0
LLC PREFETCHES SAME FILL-ORIGIN LEVEL: 0 DIFFERENT FILL-ORIGIN LEVEL: 0
LLC AVERAGE MISS LATENCY: 154.11 cycles
LLC AVERAGE MISS LATENCY LOAD: 153.127 cycles
LLC AVERAGE MISS LATENCY PREFETCH: 154.812 cycles
LLC AVERAGE MSHR OCCUPANCY: 0.353824
LLC MSHR FULL: 0
LLC RQ	ACCESS:   24498164	FORWARD:          0	MERGED:          0	TO_CACHE:   24498164
LLC WQ	ACCESS:     139799	FORWARD:          0	MERGED:          0	TO_CACHE:     139799
LLC PQ	ACCESS:   27709505	FORWARD:          0	MERGED:          0	TO_CACHE:   27709505

LLC Dense regions hint to LLC: 0
14f59f3ad530: 1
55fb304d5510: 1
14f59f3ad3cc: 1
14f59f484230: 1
55fb304d703f: 1
14f59f3b2682: 1
14f59f3afef2: 1
14f59f3b0cdd: 1
14f59f48426f: 1
14f59f3ad67a: 1
14f59f3b3760: 1
14f59f484264: 1
55fb304d6fee: 1
14f59f373040: 1
14f59f3ad3c3: 1
14f59f403143: 1
14f59f3b31c8: 1
14f59f3dd951: 1
14f59f373230: 1
14f59f3b11d1: 1
14f59f3ad3bc: 1
14f59f3ad5e5: 1
14f59f3af0db: 1
14f59f3aa86b: 1
14f59f3af103: 1
14f59f3ad67e: 1
14f59f3ae461: 1
14f59f3b33b8: 1
14f59f3b0cd6: 1
14f59f40d578: 1
14f59f3b11c6: 1
14f59f3a53c0: 1
14f59f373100: 1
14f59f484240: 1
14f59f403646: 1
14f59f3a5944: 1
14f59f3a593a: 1
14f59f3a5340: 1
14f59f3b26f2: 1
14f59f3a5396: 1
14f59f3b24ee: 1
14f59f3b33c4: 1
14f59f3b16d6: 1
14f59f4820b0: 1
14f59f3b2f41: 1
14f59f3b1d70: 1
55fb304d6fe0: 1
55fb304d702d: 1
14f59f3b23df: 1
14f59f484247: 1
14f59f3a59b9: 1
14f59f3b16e4: 1
14f59f48424b: 1
14f59f484254: 1
14f59f3b2400: 1
14f59f3b2f1c: 1
14f59f3b2443: 1
14f59f3b266c: 1
14f59f3b24f2: 4
55fb304d7050: 36
55fb304d7075: 111
55fb304d7093: 165
55fb304d707b: 1185
55fb304d700d: 1484
55fb304d7054: 2248
55fb304d7000: 2656
55fb304d7060: 39432
55fb304d706a: 10731677

RAW hits: 25
Loads Generated: 77350942
Loads sent to L1D: 77350916
Stores Generated: 3305817
Stores sent to L1D: 3305817
Major fault: 0 Minor fault: 34901
Allocated PAGES: 34901
Total Load insts: 95645264
Total Non-spec loads: 44620432
Percentage of speculative loads: 53.348
L1D response latency: 89.9459 cycles
Load retirement latency: 111.306 cycles


stream: 
stream:times selected: 43360447
stream:pref_filled: 37584528
stream:pref_useful: 992225
stream:pref_late: 240532
stream:misses: 9207536
stream:misses_by_poll: 0

CS: 
CS:times selected: 3861613
CS:pref_filled: 3172751
CS:pref_useful: 2877134
CS:pref_late: 29725
CS:misses: 358415
CS:misses_by_poll: 3445

CPLX: 
CPLX:times selected: 39130995
CPLX:pref_filled: 749050
CPLX:pref_useful: 30414
CPLX:pref_late: 13094
CPLX:misses: 29101706
CPLX:misses_by_poll: 293

NL_L1: 
NL:times selected: 59129
NL:pref_filled: 57442
NL:pref_useful: 591
NL:pref_late: 122
NL:misses: 58080
NL:misses_by_poll: 0

total selections: 86412184
total_filled: 34147059
total_useful: 3120132
total_late: 286476
total_polluted: 3738
total_misses_after_warmup: 32170343
conflicts: 55
Degree Incremented Times: 313757
Degree Decremented Times: 655555

L1 IP Table Write Accesses: 64526576
L1 IP Table Read Accesses: 64526521
L1 RST Write Accesses: 35777500
L1 RST Read Accesses: 71555000
L1 CSPT Write Accesses: 35777500
L1 CSPT Read Accesses: 68254128
L1 RR Filter Tag Write Accesses: 37208622
L1 RR Filter Tag Read Accesses: 1352070995
L1 IP Table Tag Write Accesses: 64526619
L1 IP Table Tag Read Accesses: 64526619
L1 RST Tag Write Accesses: 0
L1 RST Tag Read Accesses: 321477428
L1 RR Filter Write Accesses: 0
L1 RR Filter Read Accesses: 44472184
test: 23219096

DRAM Statistics
 CHANNEL 0
 RQ ROW_BUFFER_HIT:    4878343  ROW_BUFFER_MISS:   20306907
 DBUS_CONGESTED:        574
 WQ ROW_BUFFER_HIT:      48544  ROW_BUFFER_MISS:      87991  FULL:          0

 AVG_CONGESTED_CYCLE: 4
 All warmup complete: 2
Channel 0 Bank busy for read cycles: 0
Channel 0 Bank busy for write cycles: 0
Channel 0
Rank 0
0banks busy for read cycles: 1569139091
0banks busy for write cycles: 66706
1banks busy for read cycles: 994177533
1banks busy for write cycles: 16604614
2banks busy for read cycles: 897028806
2banks busy for write cycles: 1748557
3banks busy for read cycles: 135198122
3banks busy for write cycles: 349513
4banks busy for read cycles: 19436681
4banks busy for write cycles: 174424
5banks busy for read cycles: 2876228
5banks busy for write cycles: 118810
6banks busy for read cycles: 610847
6banks busy for write cycles: 112940
7banks busy for read cycles: 55386
7banks busy for write cycles: 280135
8banks busy for read cycles: 1079
8banks busy for write cycles: 1893026

CPU 0 Branch Prediction Accuracy: 96.9509% MPKI: 5.6443 Average ROB Occupancy at Mispredict: 138.332
Branch types
NOT_BRANCH: 162977012 81.4885%
BRANCH_DIRECT_JUMP: 66 3.3e-05%
BRANCH_INDIRECT: 4 2e-06%
BRANCH_CONDITIONAL: 37022851 18.5114%
BRANCH_DIRECT_CALL: 28 1.4e-05%
BRANCH_INDIRECT_CALL: 5 2.5e-06%
BRANCH_RETURN: 33 1.65e-05%
BRANCH_OTHER: 0 0%

DRAM PAGES: 1048576
Allocated PAGES: 34901
