
*** ChampSim Multicore Out-of-Order Simulator ***

Warmup Instructions: 50000000
Simulation Instructions: 200000000
Number of CPUs: 1
LLC sets: 2048
LLC ways: 16
Secure Berti: OFF
Berti: OFF
Berti Fill: OFF
On commit prefetching: OFF
L2 LLC Bypass speculative loads: OFF
Off-chip DRAM Size: 4096 MB Channels: 1 Width: 64-bit Data Rate: 6400 MT/s
CPU 0 runs /home/sumon/secure_berti/Berti_Baseline/../../traces/gap/pr-10.trace.gz
.gz
BTB has LRU replacement policy
ITLB has LRU replacement policy
DTLB has LRU replacement policy
STLB has LRU replacement policy
L1I has LRU replacement policy
IP Table Entries: 1024
CSPT Entries: 128
RR_ENTRIES: 32
RST_ENTRIES: 8
L1D has LRU replacement policy
L2C has LRU replacement policy
LLC has LRU replacement policy
Heartbeat CPU 0 instructions: 10000002 cycles: 3333445 heartbeat IPC: 2.9999 cumulative IPC: 2.9999 (Simulation time: 0 hr 0 min 20 sec) 
Heartbeat CPU 0 instructions: 20000000 cycles: 9950051 heartbeat IPC: 1.51135 cumulative IPC: 2.01004 (Simulation time: 0 hr 1 min 2 sec) 
Heartbeat CPU 0 instructions: 30000003 cycles: 17084821 heartbeat IPC: 1.40159 cumulative IPC: 1.75594 (Simulation time: 0 hr 1 min 49 sec) 
Heartbeat CPU 0 instructions: 40000001 cycles: 24205851 heartbeat IPC: 1.40429 cumulative IPC: 1.65249 (Simulation time: 0 hr 2 min 34 sec) 
Heartbeat CPU 0 instructions: 50000001 cycles: 31251283 heartbeat IPC: 1.41936 cumulative IPC: 1.59993 (Simulation time: 0 hr 3 min 22 sec) 

Warmup complete CPU 0 instructions: 50000001 cycles: 31251283 (Simulation time: 0 hr 3 min 22 sec) 

Heartbeat CPU 0 instructions: 60000000 cycles: 232820421 heartbeat IPC: 0.0496108 cumulative IPC: 0.0496108 (Simulation time: 0 hr 5 min 39 sec) 
Heartbeat CPU 0 instructions: 70000000 cycles: 433353333 heartbeat IPC: 0.0498671 cumulative IPC: 0.0497386 (Simulation time: 0 hr 7 min 57 sec) 
Heartbeat CPU 0 instructions: 80000000 cycles: 633200126 heartbeat IPC: 0.0500383 cumulative IPC: 0.0498381 (Simulation time: 0 hr 10 min 15 sec) 
Heartbeat CPU 0 instructions: 90000000 cycles: 834575128 heartbeat IPC: 0.0496586 cumulative IPC: 0.0497931 (Simulation time: 0 hr 12 min 32 sec) 
Heartbeat CPU 0 instructions: 100000002 cycles: 1036487960 heartbeat IPC: 0.0495263 cumulative IPC: 0.0497395 (Simulation time: 0 hr 14 min 46 sec) 
Heartbeat CPU 0 instructions: 110000000 cycles: 1237392027 heartbeat IPC: 0.049775 cumulative IPC: 0.0497454 (Simulation time: 0 hr 16 min 46 sec) 
Heartbeat CPU 0 instructions: 120000000 cycles: 1437968569 heartbeat IPC: 0.0498563 cumulative IPC: 0.0497612 (Simulation time: 0 hr 18 min 37 sec) 
Heartbeat CPU 0 instructions: 130000001 cycles: 1636726309 heartbeat IPC: 0.0503125 cumulative IPC: 0.0498295 (Simulation time: 0 hr 20 min 24 sec) 
Heartbeat CPU 0 instructions: 140000000 cycles: 1834338022 heartbeat IPC: 0.0506043 cumulative IPC: 0.0499144 (Simulation time: 0 hr 22 min 11 sec) 
Heartbeat CPU 0 instructions: 150000000 cycles: 2036484768 heartbeat IPC: 0.049469 cumulative IPC: 0.0498695 (Simulation time: 0 hr 24 min 1 sec) 
Heartbeat CPU 0 instructions: 160000000 cycles: 2237340193 heartbeat IPC: 0.0497871 cumulative IPC: 0.049862 (Simulation time: 0 hr 25 min 49 sec) 
Heartbeat CPU 0 instructions: 170000001 cycles: 2438331010 heartbeat IPC: 0.0497535 cumulative IPC: 0.0498529 (Simulation time: 0 hr 27 min 37 sec) 
Heartbeat CPU 0 instructions: 180000001 cycles: 2639810270 heartbeat IPC: 0.0496329 cumulative IPC: 0.0498359 (Simulation time: 0 hr 29 min 26 sec) 
Heartbeat CPU 0 instructions: 190000001 cycles: 2785803583 heartbeat IPC: 0.0684963 cumulative IPC: 0.050825 (Simulation time: 0 hr 30 min 48 sec) 
Heartbeat CPU 0 instructions: 200000003 cycles: 2828599475 heartbeat IPC: 0.233667 cumulative IPC: 0.0536222 (Simulation time: 0 hr 31 min 22 sec) 
Heartbeat CPU 0 instructions: 210000000 cycles: 3029998955 heartbeat IPC: 0.0496525 cumulative IPC: 0.0533556 (Simulation time: 0 hr 33 min 11 sec) 
Heartbeat CPU 0 instructions: 220000000 cycles: 3229719622 heartbeat IPC: 0.0500699 cumulative IPC: 0.0531504 (Simulation time: 0 hr 34 min 59 sec) 
Heartbeat CPU 0 instructions: 230000001 cycles: 3430271790 heartbeat IPC: 0.0498623 cumulative IPC: 0.0529564 (Simulation time: 0 hr 36 min 46 sec) 
Heartbeat CPU 0 instructions: 240000001 cycles: 3629379473 heartbeat IPC: 0.0502241 cumulative IPC: 0.0528052 (Simulation time: 0 hr 38 min 34 sec) 
Heartbeat CPU 0 instructions: 250000001 cycles: 3830441447 heartbeat IPC: 0.0497359 cumulative IPC: 0.0526428 (Simulation time: 0 hr 40 min 24 sec) 
Finished CPU 0 instructions: 200000000 cycles: 3799190164 cumulative IPC: 0.0526428 (Simulation time: 0 hr 40 min 24 sec) 

ChampSim completed all CPUs

Region of Interest Statistics

CPU 0 cumulative IPC: 0.0526428 instructions: 200000000 cycles: 3799190164
ITLB TOTAL     ACCESS:   58582721  HIT:   58582721  MISS:          0  HIT %:        100  MISS %:          0   MPKI: 0
ITLB Test counter:          0
ITLB LOAD TRANSLATION ACCESS:   58582721  HIT:   58582721  MISS:          0  HIT %:        100  MISS %:          0   MPKI: 0
ITLB PREFETCH  REQUESTED:          0  ISSUED:          0  USEFUL:          0  USELESS:          0
ITLB USEFUL LOAD PREFETCHES:          0 PREFETCH ISSUED TO LOWER LEVEL:          0  ACCURACY: -nan
ITLB TIMELY PREFETCHES:          0 LATE PREFETCHES: 0 DROPPED PREFETCHES: 0
ITLB COMMIT LATE PREFETCHES: 0 MISSED OPPORTUNITY: 0 LATE IN PQ: 0 UNCOVERED: 0
ITLB COMMIT LATE MSHR PREFETCHES: 0
ITLB MPKI TOTAL: 0 MSHR LATE: 0 PQ LATE: 0 COMMIT LATE: 0 MISSED OPPORTUNITY: 0 UNCOVERED: 0
ITLB PREFETCHES SAME FILL-ORIGIN LEVEL: 0 DIFFERENT FILL-ORIGIN LEVEL: 0
ITLB AVERAGE MISS LATENCY: -nan cycles
ITLB AVERAGE MISS LATENCY LOAD: -nan cycles
ITLB AVERAGE MISS LATENCY PREFETCH: -nan cycles
ITLB AVERAGE MSHR OCCUPANCY: 0
ITLB MSHR FULL: 0
ITLB RQ	ACCESS:   59707653	FORWARD:          0	MERGED:    1124932	TO_CACHE:   58582721

DTLB TOTAL     ACCESS:   67164433  HIT:   44209748  MISS:   22954685  HIT %:    65.8232  MISS %:    34.1768   MPKI: 114.773
DTLB Test counter:          0
DTLB LOAD TRANSLATION ACCESS:   67164433  HIT:   44209748  MISS:   22954685  HIT %:    65.8232  MISS %:    34.1768   MPKI: 114.773
DTLB PREFETCH  REQUESTED:          0  ISSUED:          0  USEFUL:          0  USELESS:          0
DTLB USEFUL LOAD PREFETCHES:          0 PREFETCH ISSUED TO LOWER LEVEL:          0  ACCURACY: -nan
DTLB TIMELY PREFETCHES:          0 LATE PREFETCHES: 0 DROPPED PREFETCHES: 0
DTLB COMMIT LATE PREFETCHES: 0 MISSED OPPORTUNITY: 0 LATE IN PQ: 0 UNCOVERED: 0
DTLB COMMIT LATE MSHR PREFETCHES: 0
DTLB MPKI TOTAL: 0 MSHR LATE: 0 PQ LATE: 0 COMMIT LATE: 0 MISSED OPPORTUNITY: 0 UNCOVERED: 0
DTLB PREFETCHES SAME FILL-ORIGIN LEVEL: 0 DIFFERENT FILL-ORIGIN LEVEL: 0
DTLB AVERAGE MISS LATENCY: 9.19144 cycles
DTLB AVERAGE MISS LATENCY LOAD: -nan cycles
DTLB AVERAGE MISS LATENCY PREFETCH: -nan cycles
DTLB AVERAGE MSHR OCCUPANCY: 0.201139
DTLB MSHR FULL: 0
DTLB RQ	ACCESS:   67818650	FORWARD:          0	MERGED:     646476	TO_CACHE:   67172174

STLB TOTAL     ACCESS:   57180819  HIT:   57140021  MISS:      40798  HIT %:    99.9287  MISS %:  0.0713491   MPKI: 0.20399
STLB Test counter:          0
STLB LOAD TRANSLATION ACCESS:   22954685  HIT:   22913887  MISS:      40798  HIT %:    99.8223  MISS %:   0.177733   MPKI: 0.20399
STLB TRANSLATION FROM L1D PREFETCHER ACCESS:   34226134  HIT:   34226134  MISS:          0  HIT %:        100  MISS %:          0   MPKI: 0
STLB PREFETCH  REQUESTED:          0  ISSUED:          0  USEFUL:          0  USELESS:          0
STLB USEFUL LOAD PREFETCHES:          0 PREFETCH ISSUED TO LOWER LEVEL:          0  ACCURACY: -nan
STLB TIMELY PREFETCHES:          0 LATE PREFETCHES: 0 DROPPED PREFETCHES: 0
STLB COMMIT LATE PREFETCHES: 0 MISSED OPPORTUNITY: 0 LATE IN PQ: 0 UNCOVERED: 0
STLB COMMIT LATE MSHR PREFETCHES: 0
STLB MPKI TOTAL: 0 MSHR LATE: 0 PQ LATE: 0 COMMIT LATE: 0 MISSED OPPORTUNITY: 0 UNCOVERED: 0
STLB PREFETCHES SAME FILL-ORIGIN LEVEL: 0 DIFFERENT FILL-ORIGIN LEVEL: 0
STLB AVERAGE MISS LATENCY: 103.887 cycles
STLB AVERAGE MISS LATENCY LOAD: -nan cycles
STLB AVERAGE MISS LATENCY PREFETCH: -nan cycles
STLB AVERAGE MSHR OCCUPANCY: 0.000736086
STLB MSHR FULL: 0
STLB RQ	ACCESS:   60160948	FORWARD:          0	MERGED:    2980130	TO_CACHE:   57180818

STLB Hit, L1D data hit: 0
STLB Hit, L2C data hit: 0
STLB Hit, LLC data hit: 0
STLB Hit, LLC data miss: 0
STLB STLB hints to L2: 0
L1D TOTAL     ACCESS:  103924834  HIT:   37629153  MISS:   66295681  HIT %:     36.208  MISS %:     63.792   MPKI: 331.478
L1D Test counter:          0
L1D LOAD      ACCESS:   64410169  HIT:   32340074  MISS:   32178901  HIT %:    50.2096  MISS %:    49.7904   MPKI: 160.35
L1D RFO       ACCESS:    2553337  HIT:    2487781  MISS:      65556  HIT %:    97.4325  MISS %:    2.56746   MPKI: 0.32778
L1D PREFETCH  ACCESS:   36961328  HIT:    2801298  MISS:   34160030  HIT %:      7.579  MISS %:     92.421   MPKI: 170.8
L1D PREFETCH  REQUESTED:   74412526  ISSUED:   74412526  USEFUL:    3117761  USELESS:   31042257
L1D USEFUL LOAD PREFETCHES:    3117761 PREFETCH ISSUED TO LOWER LEVEL:   34397149  ACCURACY: 9.06401
L1D TIMELY PREFETCHES:    3117761 LATE PREFETCHES: 237119 DROPPED PREFETCHES: 0
L1D COMMIT LATE PREFETCHES: 0 MISSED OPPORTUNITY: 0 LATE IN PQ: 3955 UNCOVERED: 0
L1D COMMIT LATE MSHR PREFETCHES: 0
L1D MPKI TOTAL: 160.895 MSHR LATE: 1.18559 PQ LATE: 0.019775 COMMIT LATE: 0 MISSED OPPORTUNITY: 0 UNCOVERED: 0
L1D PREFETCHES SAME FILL-ORIGIN LEVEL: 34397149 DIFFERENT FILL-ORIGIN LEVEL: 0
L1D AVERAGE MISS LATENCY: 101.34 cycles
L1D AVERAGE MISS LATENCY LOAD: 94.233 cycles
L1D AVERAGE MISS LATENCY PREFETCH: 107.809 cycles
L1D AVERAGE MSHR OCCUPANCY: 0.899216
L1D MSHR FULL: 0
L1D RQ	ACCESS:   77353834	FORWARD:          0	MERGED:   12834850	TO_CACHE:   64518975
L1D WQ	ACCESS:    3299680	FORWARD:          9	MERGED:          5	TO_CACHE:    3299675
L1D PQ	ACCESS:   37206263	FORWARD:          0	MERGED:          0	TO_CACHE:   37206263

L1D UNIQUE REGIONS ACCESSED: 0
L1D REGIONS CONFLICTS: 0
L1D Cross Page Prefetch Requests: 0
L1D Same Page Prefetch Requests: 45237642
L1D ROI Sum of L1D PQ occupancy: 484658672
L1D PREFETCHES PUSHED FROM L2C: 0
14b38703b67e: 1
14b38703886b: 1
14b38703b3cc: 1
14b387001040: 1
14b387091143: 1
55fa52a1ffe0: 1
14b38703b530: 1
14b38706b951: 1
14b387001230: 1
14b38703f1d1: 1
14b38703def2: 1
55fa52a2002d: 1
14b38703c461: 1
55fa52a1ffee: 1
14b38703b67a: 1
14b387041760: 1
14b38703ecd6: 1
14b38709b578: 1
14b38703f1c6: 1
14b38711226f: 1
14b38703ecdd: 1
14b387091646: 1
55fa52a2003f: 1
14b387112230: 1
14b387001100: 1
14b38711224b: 1
14b38703b3c3: 1
14b3871100b0: 1
14b38703f6d6: 1
14b38703b5e5: 1
14b387112264: 1
14b38703b3bc: 1
55fa52a1e510: 1
14b387112240: 1
14b387112247: 1
14b38703f6e4: 1
14b387112254: 1
14b3870404f2: 5
55fa52a2000d: 1546
55fa52a20000: 6528
55fa52a20093: 8875
55fa52a20075: 17808
55fa52a20050: 18141
55fa52a20054: 20554
55fa52a2007b: 41097
55fa52a20060: 42120
55fa52a2006a: 31913384
L1I TOTAL     ACCESS:   59707652  HIT:   59707629  MISS:         23  HIT %:        100  MISS %: 3.8521e-05   MPKI: 0.000115
L1I Test counter:          0
L1I LOAD      ACCESS:   59707652  HIT:   59707629  MISS:         24  HIT %:        100  MISS %: 3.8521e-05   MPKI: 0.000115
L1I PREFETCH  REQUESTED:          0  ISSUED:          0  USEFUL:          0  USELESS:          0
L1I USEFUL LOAD PREFETCHES:          0 PREFETCH ISSUED TO LOWER LEVEL:          0  ACCURACY: -nan
L1I TIMELY PREFETCHES:          0 LATE PREFETCHES: 0 DROPPED PREFETCHES: 0
L1I COMMIT LATE PREFETCHES: 0 MISSED OPPORTUNITY: 0 LATE IN PQ: 0 UNCOVERED: 0
L1I COMMIT LATE MSHR PREFETCHES: 0
L1I MPKI TOTAL: 0.00012 MSHR LATE: 0 PQ LATE: 0 COMMIT LATE: 0 MISSED OPPORTUNITY: 0 UNCOVERED: 0
L1I PREFETCHES SAME FILL-ORIGIN LEVEL: 0 DIFFERENT FILL-ORIGIN LEVEL: 0
L1I AVERAGE MISS LATENCY: 170.522 cycles
L1I AVERAGE MISS LATENCY LOAD: 170.522 cycles
L1I AVERAGE MISS LATENCY PREFETCH: -nan cycles
L1I AVERAGE MSHR OCCUPANCY: 1.33986e-07
L1I MSHR FULL: 0
L1I RQ	ACCESS:   70783068	FORWARD:          0	MERGED:   11075415	TO_CACHE:   59707653

14b3870403df: 1
14b3870413c4: 1
14b387033396: 1
14b387040400: 1
14b3870413b8: 1
14b38704066c: 1
14b387040682: 1
14b3870411c8: 1
14b387033340: 1
14b38703393a: 1
14b38703d103: 1
14b387033944: 1
14b387040c43: 1
14b38703d0db: 1
14b3870333c0: 1
14b3870339b9: 1
14b387040443: 1
14b3870404ee: 1
14b3870406f2: 1
14b387040f41: 1
14b387040f1c: 1
14b38703fd70: 1
14b387040c24: 1
BTB TOTAL     ACCESS:   37027234  HIT:   37027062  MISS:        172  HIT %:    99.9995  MISS %: 0.000464523   MPKI: 0.00086
BTB Test counter:          0
BTB BRANCH_DIRECT_JUMP	ACCESS:         67  HIT:         33  MISS:         34
BTB BRANCH_INDIRECT	ACCESS:          4  HIT:          0  MISS:          4
BTB BRANCH_CONDITIONAL	ACCESS:   37027097  HIT:   37027009  MISS:         88
BTB BRANCH_DIRECT_CALL	ACCESS:         28  HIT:         10  MISS:         18
BTB BRANCH_INDIRECT_CALL	ACCESS:          5  HIT:          1  MISS:          4
BTB BRANCH_RETURN	ACCESS:         33  HIT:          9  MISS:         24
BTB BRANCH_OTHER ACCESS:          0  HIT:          0  MISS:          0

L2C TOTAL     ACCESS:   66506449  HIT:   13752308  MISS:   52754141  HIT %:    20.6782  MISS %:    79.3218   MPKI: 263.771
L2C Test counter:          0
L2C LOAD      ACCESS:   31832981  HIT:    7110198  MISS:   24722783  HIT %:    22.3359  MISS %:    77.6641   MPKI: 123.614
L2C DATA LOAD MPKI: 123.614
L2C INSTRUCTION LOAD MPKI: 0.000115
L2C RFO       ACCESS:      65556  HIT:         63  MISS:      65493  HIT %:   0.096101  MISS %:    99.9039   MPKI: 0.327465
L2C PREFETCH  ACCESS:   34397148  HIT:    6439645  MISS:   27957503  HIT %:    18.7215  MISS %:    81.2785   MPKI: 139.788
L2C DATA PREFETCH MPKI: 139.788
L2C INSTRUCTION PREFETCH MPKI: 0
L2C WRITEBACK ACCESS:     169927  HIT:     169683  MISS:        244  HIT %:    99.8564  MISS %:   0.143591   MPKI: 0.00122
L2C LOAD TRANSLATION ACCESS:      40837  HIT:      32719  MISS:       8118  HIT %:     80.121  MISS %:     19.879   MPKI: 0.04059
L2C PREFETCH  REQUESTED:          0  ISSUED:          0  USEFUL:    1088779  USELESS:   26868727
L2C USEFUL LOAD PREFETCHES:    1088779 PREFETCH ISSUED TO LOWER LEVEL:   27957504  ACCURACY: 3.89441
L2C TIMELY PREFETCHES:    1088779 LATE PREFETCHES: 0 DROPPED PREFETCHES: 0
L2C COMMIT LATE PREFETCHES: 0 MISSED OPPORTUNITY: 0 LATE IN PQ: 0 UNCOVERED: 0
L2C COMMIT LATE MSHR PREFETCHES: 0
L2C MPKI TOTAL: 123.614 MSHR LATE: 0 PQ LATE: 0 COMMIT LATE: 0 MISSED OPPORTUNITY: 0 UNCOVERED: 0
L2C PREFETCHES SAME FILL-ORIGIN LEVEL: 0 DIFFERENT FILL-ORIGIN LEVEL: 0
L2C AVERAGE MISS LATENCY: 109.057 cycles
L2C AVERAGE MISS LATENCY LOAD: 102.904 cycles
L2C AVERAGE MISS LATENCY PREFETCH: 114.291 cycles
L2C AVERAGE MSHR OCCUPANCY: 0.433657
L2C MSHR FULL: 0
L2C RQ	ACCESS:   31939391	FORWARD:          0	MERGED:          0	TO_CACHE:   31939374
L2C WQ	ACCESS:     169927	FORWARD:         17	MERGED:          0	TO_CACHE:     169927
L2C PQ	ACCESS:   34397149	FORWARD:          0	MERGED:          0	TO_CACHE:   34397149

L2C Instructions Evicting Data 23
L2C Translations Evicting Data 8117
L2C Data Evicting Data 52737616
L2C Instructions Evicting Instructions 0
L2C Translations Evicting Instructions 0
L2C Data Evicting Instructions 23
L2C Instructions Evicting Translations 0
L2C Translations Evicting Translations 1
L2C Data Evicting Translations 8117
L2C Dense regions hint from L2: 0
14b38706b951: 1
14b387112240: 1
55fa52a1e510: 1
14b38703b3bc: 1
55fa52a2003f: 1
14b38703d0db: 1
14b387112230: 1
14b38703886b: 1
14b38703f1d1: 1
14b38703b3c3: 1
14b38711224b: 1
14b38703b3cc: 1
14b387001040: 1
14b387091143: 1
55fa52a1ffe0: 1
14b38703b530: 1
14b38703b5e5: 1
14b387001230: 1
14b38703def2: 1
14b387040c43: 1
14b38703d103: 1
14b38703b67e: 1
14b38703c461: 1
55fa52a1ffee: 1
14b38703b67a: 1
14b387041760: 1
14b3870413b8: 1
14b38703ecd6: 1
14b38709b578: 1
14b38703f1c6: 1
14b38711226f: 1
14b38703ecdd: 1
14b38704066c: 1
14b3870411c8: 1
14b38703f6d6: 1
14b3870413c4: 1
14b3870333c0: 1
14b387033396: 1
14b3870406f2: 1
14b387033340: 1
14b38703393a: 1
14b387033944: 1
14b387040682: 1
14b387091646: 1
14b3871100b0: 1
14b3870404ee: 1
14b387001100: 1
55fa52a2002d: 1
14b3870339b9: 1
14b38703f6e4: 1
14b387112254: 1
14b387112264: 1
14b3870403df: 1
14b387112247: 1
14b387040f41: 1
14b387040400: 1
14b387040c24: 1
14b38703fd70: 1
14b387040f1c: 1
14b387040443: 1
14b3870404f2: 4
55fa52a20075: 226
55fa52a20050: 728
55fa52a2000d: 1486
55fa52a20000: 2658
55fa52a20054: 2887
55fa52a2007b: 3211
55fa52a20093: 4505
55fa52a20060: 39526
55fa52a2006a: 24667492
PSCL5 TOTAL     ACCESS:      40798  HIT:      40798  MISS:          0  HIT %:        100  MISS %:          0   MPKI: 0
PSCL5 Test counter:          0
PSCL5 LOAD TRANSLATION ACCESS:      40798  HIT:      40798  MISS:          0  HIT %:        100  MISS %:          0   MPKI: 0
PSCL5 PREFETCH  REQUESTED:          0  ISSUED:          0  USEFUL:          0  USELESS:          0
PSCL5 USEFUL LOAD PREFETCHES:          0 PREFETCH ISSUED TO LOWER LEVEL:          0  ACCURACY: -nan
PSCL5 TIMELY PREFETCHES:          0 LATE PREFETCHES: 0 DROPPED PREFETCHES: 0
PSCL5 COMMIT LATE PREFETCHES: 0 MISSED OPPORTUNITY: 0 LATE IN PQ: 0 UNCOVERED: 0
PSCL5 COMMIT LATE MSHR PREFETCHES: 0
PSCL5 MPKI TOTAL: 0 MSHR LATE: 0 PQ LATE: 0 COMMIT LATE: 0 MISSED OPPORTUNITY: 0 UNCOVERED: 0
PSCL5 PREFETCHES SAME FILL-ORIGIN LEVEL: 0 DIFFERENT FILL-ORIGIN LEVEL: 0

PSCL4 TOTAL     ACCESS:      40798  HIT:      40798  MISS:          0  HIT %:        100  MISS %:          0   MPKI: 0
PSCL4 Test counter:          0
PSCL4 LOAD TRANSLATION ACCESS:      40798  HIT:      40798  MISS:          0  HIT %:        100  MISS %:          0   MPKI: 0
PSCL4 PREFETCH  REQUESTED:          0  ISSUED:          0  USEFUL:          0  USELESS:          0
PSCL4 USEFUL LOAD PREFETCHES:          0 PREFETCH ISSUED TO LOWER LEVEL:          0  ACCURACY: -nan
PSCL4 TIMELY PREFETCHES:          0 LATE PREFETCHES: 0 DROPPED PREFETCHES: 0
PSCL4 COMMIT LATE PREFETCHES: 0 MISSED OPPORTUNITY: 0 LATE IN PQ: 0 UNCOVERED: 0
PSCL4 COMMIT LATE MSHR PREFETCHES: 0
PSCL4 MPKI TOTAL: 0 MSHR LATE: 0 PQ LATE: 0 COMMIT LATE: 0 MISSED OPPORTUNITY: 0 UNCOVERED: 0
PSCL4 PREFETCHES SAME FILL-ORIGIN LEVEL: 0 DIFFERENT FILL-ORIGIN LEVEL: 0

PSCL3 TOTAL     ACCESS:      40798  HIT:      40798  MISS:          0  HIT %:        100  MISS %:          0   MPKI: 0
PSCL3 Test counter:          0
PSCL3 LOAD TRANSLATION ACCESS:      40798  HIT:      40798  MISS:          0  HIT %:        100  MISS %:          0   MPKI: 0
PSCL3 PREFETCH  REQUESTED:          0  ISSUED:          0  USEFUL:          0  USELESS:          0
PSCL3 USEFUL LOAD PREFETCHES:          0 PREFETCH ISSUED TO LOWER LEVEL:          0  ACCURACY: -nan
PSCL3 TIMELY PREFETCHES:          0 LATE PREFETCHES: 0 DROPPED PREFETCHES: 0
PSCL3 COMMIT LATE PREFETCHES: 0 MISSED OPPORTUNITY: 0 LATE IN PQ: 0 UNCOVERED: 0
PSCL3 COMMIT LATE MSHR PREFETCHES: 0
PSCL3 MPKI TOTAL: 0 MSHR LATE: 0 PQ LATE: 0 COMMIT LATE: 0 MISSED OPPORTUNITY: 0 UNCOVERED: 0
PSCL3 PREFETCHES SAME FILL-ORIGIN LEVEL: 0 DIFFERENT FILL-ORIGIN LEVEL: 0

PSCL2 TOTAL     ACCESS:      40798  HIT:      40712  MISS:         86  HIT %:    99.7892  MISS %:   0.210795   MPKI: 0.00043
PSCL2 Test counter:          0
PSCL2 LOAD TRANSLATION ACCESS:      40798  HIT:      40712  MISS:         86  HIT %:    99.7892  MISS %:   0.210795   MPKI: 0.00043
PSCL2 PREFETCH  REQUESTED:          0  ISSUED:          0  USEFUL:          0  USELESS:          0
PSCL2 USEFUL LOAD PREFETCHES:          0 PREFETCH ISSUED TO LOWER LEVEL:          0  ACCURACY: -nan
PSCL2 TIMELY PREFETCHES:          0 LATE PREFETCHES: 0 DROPPED PREFETCHES: 0
PSCL2 COMMIT LATE PREFETCHES: 0 MISSED OPPORTUNITY: 0 LATE IN PQ: 0 UNCOVERED: 0
PSCL2 COMMIT LATE MSHR PREFETCHES: 0
PSCL2 MPKI TOTAL: 0 MSHR LATE: 0 PQ LATE: 0 COMMIT LATE: 0 MISSED OPPORTUNITY: 0 UNCOVERED: 0
PSCL2 PREFETCHES SAME FILL-ORIGIN LEVEL: 0 DIFFERENT FILL-ORIGIN LEVEL: 0

LLC TOTAL     ACCESS:   52890972  HIT:   25448619  MISS:   27442353  HIT %:    48.1152  MISS %:    51.8848   MPKI: 137.212
LLC Test counter:          0
LLC LOAD      ACCESS:   24722783  HIT:   12772458  MISS:   11950325  HIT %:    51.6627  MISS %:    48.3373   MPKI: 59.7516
LLC RFO       ACCESS:      65493  HIT:       1692  MISS:      63801  HIT %:    2.58348  MISS %:    97.4165   MPKI: 0.319005
LLC PREFETCH  ACCESS:   27957504  HIT:   12535022  MISS:   15422482  HIT %:     44.836  MISS %:     55.164   MPKI: 77.1124
LLC WRITEBACK ACCESS:     137074  HIT:     136938  MISS:        136  HIT %:    99.9008  MISS %:  0.0992165   MPKI: 0.00068
LLC LOAD TRANSLATION ACCESS:       8118  HIT:       2509  MISS:       5609  HIT %:    30.9066  MISS %:    69.0934   MPKI: 0.028045
LLC PREFETCH  REQUESTED:          0  ISSUED:          0  USEFUL:    1852082  USELESS:   13570603
LLC USEFUL LOAD PREFETCHES:    1852082 PREFETCH ISSUED TO LOWER LEVEL:   15422482  ACCURACY: 12.009
LLC TIMELY PREFETCHES:    1852082 LATE PREFETCHES: 0 DROPPED PREFETCHES: 0
LLC COMMIT LATE PREFETCHES: 0 MISSED OPPORTUNITY: 0 LATE IN PQ: 0 UNCOVERED: 0
LLC COMMIT LATE MSHR PREFETCHES: 0
LLC MPKI TOTAL: 59.7516 MSHR LATE: 0 PQ LATE: 0 COMMIT LATE: 0 MISSED OPPORTUNITY: 0 UNCOVERED: 0
LLC PREFETCHES SAME FILL-ORIGIN LEVEL: 0 DIFFERENT FILL-ORIGIN LEVEL: 0
LLC AVERAGE MISS LATENCY: 151.94 cycles
LLC AVERAGE MISS LATENCY LOAD: 150.776 cycles
LLC AVERAGE MISS LATENCY PREFETCH: 152.772 cycles
LLC AVERAGE MSHR OCCUPANCY: 0.328976
LLC MSHR FULL: 0
LLC RQ	ACCESS:   24796394	FORWARD:          0	MERGED:          0	TO_CACHE:   24796394
LLC WQ	ACCESS:     137074	FORWARD:          0	MERGED:          0	TO_CACHE:     137074
LLC PQ	ACCESS:   27957504	FORWARD:          0	MERGED:          0	TO_CACHE:   27957504

LLC Dense regions hint to LLC: 0
14b38706b951: 1
14b387112240: 1
55fa52a1e510: 1
14b38703b3bc: 1
55fa52a2003f: 1
14b38703d0db: 1
14b38703b3c3: 1
14b38711224b: 1
14b38703f1d1: 1
14b387112230: 1
14b38703886b: 1
14b38703b3cc: 1
14b387001040: 1
14b387091143: 1
55fa52a1ffe0: 1
14b38703b530: 1
14b38703b5e5: 1
14b387001230: 1
14b38703def2: 1
14b387040c43: 1
14b38703d103: 1
14b38703b67e: 1
14b38703c461: 1
55fa52a1ffee: 1
14b38703b67a: 1
14b387041760: 1
14b3870413b8: 1
14b38703ecd6: 1
14b38709b578: 1
14b38703f1c6: 1
14b38711226f: 1
14b38703ecdd: 1
14b387001100: 1
14b387040f41: 1
14b3871100b0: 1
14b3870411c8: 1
14b38703f6d6: 1
14b3870413c4: 1
14b3870333c0: 1
14b387033396: 1
14b3870406f2: 1
14b387033340: 1
14b38703393a: 1
14b387033944: 1
14b387040682: 1
14b387091646: 1
14b38703fd70: 1
14b3870404ee: 1
14b387040400: 1
14b38703f6e4: 1
14b387112254: 1
14b387112264: 1
14b387112247: 1
14b3870403df: 1
55fa52a2002d: 1
14b38704066c: 1
14b387040f1c: 1
14b387040c24: 1
14b387040443: 1
14b3870339b9: 1
14b3870404f2: 4
55fa52a20075: 10
55fa52a20050: 35
55fa52a20093: 377
55fa52a2007b: 1213
55fa52a2000d: 1486
55fa52a20054: 2257
55fa52a20000: 2658
55fa52a20060: 39526
55fa52a2006a: 11902699

RAW hits: 21
Loads Generated: 77353857
Loads sent to L1D: 77353834
Stores Generated: 3299680
Stores sent to L1D: 3299680
Major fault: 0 Minor fault: 34900
Allocated PAGES: 34900
Total Load insts: 95651109
Total Non-spec loads: 44707509
Percentage of speculative loads: 53.2598
L1D response latency: 94.9349 cycles
Load retirement latency: 116.975 cycles


stream: 
stream:times selected: 43345791
stream:pref_filled: 37565043
stream:pref_useful: 1010176
stream:pref_late: 240500
stream:misses: 9220395
stream:misses_by_poll: 0

CS: 
CS:times selected: 3872168
CS:pref_filled: 3190818
CS:pref_useful: 2880832
CS:pref_late: 32070
CS:misses: 367061
CS:misses_by_poll: 3063

CPLX: 
CPLX:times selected: 39111773
CPLX:pref_filled: 754774
CPLX:pref_useful: 32892
CPLX:pref_late: 14005
CPLX:misses: 29053905
CPLX:misses_by_poll: 285

NL_L1: 
NL:times selected: 53895
NL:pref_filled: 52628
NL:pref_useful: 611
NL:pref_late: 132
NL:misses: 53006
NL:misses_by_poll: 0

total selections: 86383627
total_filled: 34160030
total_useful: 3117761
total_late: 289641
total_polluted: 3348
total_misses_after_warmup: 32178901
conflicts: 64
Degree Incremented Times: 328896
Degree Decremented Times: 680993

L1 IP Table Write Accesses: 64518934
L1 IP Table Read Accesses: 64518870
L1 RST Write Accesses: 35778068
L1 RST Read Accesses: 71556136
L1 CSPT Write Accesses: 35778068
L1 CSPT Read Accesses: 68259646
L1 RR Filter Tag Write Accesses: 37206263
L1 RR Filter Tag Read Accesses: 1351554630
L1 IP Table Tag Write Accesses: 64518975
L1 IP Table Tag Read Accesses: 64518975
L1 RST Tag Write Accesses: 0
L1 RST Tag Read Accesses: 321126151
L1 RR Filter Write Accesses: 0
L1 RR Filter Read Accesses: 44459988
test: 23137594

DRAM Statistics
 CHANNEL 0
 RQ ROW_BUFFER_HIT:    5850749  ROW_BUFFER_MISS:   21591462
 DBUS_CONGESTED:        561
 WQ ROW_BUFFER_HIT:      48829  ROW_BUFFER_MISS:      87304  FULL:          0

 AVG_CONGESTED_CYCLE: 5
 All warmup complete: 2
Channel 0 Bank busy for read cycles: 0
Channel 0 Bank busy for write cycles: 0
Channel 0
Rank 0
0banks busy for read cycles: 1613766385
0banks busy for write cycles: 64987
1banks busy for read cycles: 991385060
1banks busy for write cycles: 17276956
2banks busy for read cycles: 1004525196
2banks busy for write cycles: 1819284
3banks busy for read cycles: 143598181
3banks busy for write cycles: 302449
4banks busy for read cycles: 20232569
4banks busy for write cycles: 146225
5banks busy for read cycles: 2956652
5banks busy for write cycles: 106181
6banks busy for read cycles: 661082
6banks busy for write cycles: 111457
7banks busy for read cycles: 65186
7banks busy for write cycles: 314311
8banks busy for read cycles: 988
8banks busy for write cycles: 1857016

CPU 0 Branch Prediction Accuracy: 96.9594% MPKI: 5.62926 Average ROB Occupancy at Mispredict: 138.753
Branch types
NOT_BRANCH: 162972290 81.4861%
BRANCH_DIRECT_JUMP: 67 3.35e-05%
BRANCH_INDIRECT: 4 2e-06%
BRANCH_CONDITIONAL: 37027324 18.5137%
BRANCH_DIRECT_CALL: 28 1.4e-05%
BRANCH_INDIRECT_CALL: 5 2.5e-06%
BRANCH_RETURN: 33 1.65e-05%
BRANCH_OTHER: 0 0%

DRAM PAGES: 1048576
Allocated PAGES: 34900
