
*** ChampSim Multicore Out-of-Order Simulator ***

Warmup Instructions: 50000000
Simulation Instructions: 200000000
Number of CPUs: 1
LLC sets: 2048
LLC ways: 16
Secure Berti: OFF
Berti: OFF
Berti Fill: OFF
On commit prefetching: OFF
L2 LLC Bypass speculative loads: OFF
Off-chip DRAM Size: 4096 MB Channels: 1 Width: 64-bit Data Rate: 6400 MT/s
CPU 0 runs /home/sumon/secure_berti/Berti_Baseline/../../traces/gap/sssp-3.trace.gz
.gz
BTB has LRU replacement policy
ITLB has LRU replacement policy
DTLB has LRU replacement policy
STLB has LRU replacement policy
L1I has LRU replacement policy
IP Table Entries: 1024
CSPT Entries: 128
RR_ENTRIES: 32
RST_ENTRIES: 8
L1D has LRU replacement policy
L2C has LRU replacement policy
LLC has LRU replacement policy
Heartbeat CPU 0 instructions: 10000002 cycles: 3093320 heartbeat IPC: 3.23277 cumulative IPC: 3.23277 (Simulation time: 0 hr 0 min 30 sec) 
Heartbeat CPU 0 instructions: 20000001 cycles: 6156956 heartbeat IPC: 3.2641 cumulative IPC: 3.24836 (Simulation time: 0 hr 1 min 2 sec) 
Heartbeat CPU 0 instructions: 30000002 cycles: 9246135 heartbeat IPC: 3.23711 cumulative IPC: 3.2446 (Simulation time: 0 hr 1 min 44 sec) 
Heartbeat CPU 0 instructions: 40000001 cycles: 12332050 heartbeat IPC: 3.24053 cumulative IPC: 3.24358 (Simulation time: 0 hr 2 min 20 sec) 
Heartbeat CPU 0 instructions: 50000000 cycles: 15426498 heartbeat IPC: 3.23159 cumulative IPC: 3.24118 (Simulation time: 0 hr 2 min 54 sec) 

Warmup complete CPU 0 instructions: 50000004 cycles: 15426499 (Simulation time: 0 hr 2 min 54 sec) 

Heartbeat CPU 0 instructions: 60000001 cycles: 45522417 heartbeat IPC: 0.332271 cumulative IPC: 0.332271 (Simulation time: 0 hr 3 min 31 sec) 
Heartbeat CPU 0 instructions: 70000000 cycles: 74634386 heartbeat IPC: 0.343501 cumulative IPC: 0.337793 (Simulation time: 0 hr 4 min 10 sec) 
Heartbeat CPU 0 instructions: 80000000 cycles: 102926798 heartbeat IPC: 0.353452 cumulative IPC: 0.342856 (Simulation time: 0 hr 4 min 50 sec) 
Heartbeat CPU 0 instructions: 90000002 cycles: 130958080 heartbeat IPC: 0.356744 cumulative IPC: 0.346226 (Simulation time: 0 hr 5 min 31 sec) 
Heartbeat CPU 0 instructions: 100000000 cycles: 158097470 heartbeat IPC: 0.368468 cumulative IPC: 0.350457 (Simulation time: 0 hr 6 min 13 sec) 
Heartbeat CPU 0 instructions: 110000000 cycles: 185271672 heartbeat IPC: 0.367996 cumulative IPC: 0.353263 (Simulation time: 0 hr 6 min 54 sec) 
Heartbeat CPU 0 instructions: 120000000 cycles: 211977411 heartbeat IPC: 0.374451 cumulative IPC: 0.356142 (Simulation time: 0 hr 7 min 36 sec) 
Heartbeat CPU 0 instructions: 130000002 cycles: 238367587 heartbeat IPC: 0.378929 cumulative IPC: 0.358839 (Simulation time: 0 hr 8 min 17 sec) 
Heartbeat CPU 0 instructions: 140000001 cycles: 264531749 heartbeat IPC: 0.382202 cumulative IPC: 0.361293 (Simulation time: 0 hr 9 min 0 sec) 
Heartbeat CPU 0 instructions: 150000000 cycles: 290177493 heartbeat IPC: 0.389928 cumulative IPC: 0.363966 (Simulation time: 0 hr 9 min 43 sec) 
Heartbeat CPU 0 instructions: 160000001 cycles: 315801148 heartbeat IPC: 0.390264 cumulative IPC: 0.366209 (Simulation time: 0 hr 10 min 25 sec) 
Heartbeat CPU 0 instructions: 170000003 cycles: 341432015 heartbeat IPC: 0.390155 cumulative IPC: 0.368092 (Simulation time: 0 hr 11 min 8 sec) 
Heartbeat CPU 0 instructions: 180000003 cycles: 366678693 heartbeat IPC: 0.396092 cumulative IPC: 0.370104 (Simulation time: 0 hr 11 min 51 sec) 
Heartbeat CPU 0 instructions: 190000001 cycles: 392153515 heartbeat IPC: 0.392544 cumulative IPC: 0.371622 (Simulation time: 0 hr 12 min 34 sec) 
Heartbeat CPU 0 instructions: 200000002 cycles: 417358287 heartbeat IPC: 0.39675 cumulative IPC: 0.373198 (Simulation time: 0 hr 13 min 17 sec) 
Heartbeat CPU 0 instructions: 210000003 cycles: 442314967 heartbeat IPC: 0.400694 cumulative IPC: 0.374805 (Simulation time: 0 hr 14 min 0 sec) 
Heartbeat CPU 0 instructions: 220000000 cycles: 467268831 heartbeat IPC: 0.400739 cumulative IPC: 0.376237 (Simulation time: 0 hr 14 min 43 sec) 
Heartbeat CPU 0 instructions: 230000002 cycles: 491966839 heartbeat IPC: 0.404891 cumulative IPC: 0.377722 (Simulation time: 0 hr 15 min 24 sec) 
Heartbeat CPU 0 instructions: 240000000 cycles: 517219698 heartbeat IPC: 0.395995 cumulative IPC: 0.378642 (Simulation time: 0 hr 16 min 2 sec) 
Heartbeat CPU 0 instructions: 250000002 cycles: 542404124 heartbeat IPC: 0.397071 cumulative IPC: 0.379523 (Simulation time: 0 hr 16 min 38 sec) 
Finished CPU 0 instructions: 200000001 cycles: 526977626 cumulative IPC: 0.379523 (Simulation time: 0 hr 16 min 38 sec) 

ChampSim completed all CPUs

Region of Interest Statistics

CPU 0 cumulative IPC: 0.379523 instructions: 200000001 cycles: 526977626
ITLB TOTAL     ACCESS:   24493524  HIT:   24493524  MISS:          0  HIT %:        100  MISS %:          0   MPKI: 0
ITLB Test counter:          0
ITLB LOAD TRANSLATION ACCESS:   24493524  HIT:   24493524  MISS:          0  HIT %:        100  MISS %:          0   MPKI: 0
ITLB PREFETCH  REQUESTED:          0  ISSUED:          0  USEFUL:          0  USELESS:          0
ITLB USEFUL LOAD PREFETCHES:          0 PREFETCH ISSUED TO LOWER LEVEL:          0  ACCURACY: -nan
ITLB TIMELY PREFETCHES:          0 LATE PREFETCHES: 0 DROPPED PREFETCHES: 0
ITLB COMMIT LATE PREFETCHES: 0 MISSED OPPORTUNITY: 0 LATE IN PQ: 0 UNCOVERED: 0
ITLB COMMIT LATE MSHR PREFETCHES: 0
ITLB MPKI TOTAL: 0 MSHR LATE: 0 PQ LATE: 0 COMMIT LATE: 0 MISSED OPPORTUNITY: 0 UNCOVERED: 0
ITLB PREFETCHES SAME FILL-ORIGIN LEVEL: 0 DIFFERENT FILL-ORIGIN LEVEL: 0
ITLB AVERAGE MISS LATENCY: -nan cycles
ITLB AVERAGE MISS LATENCY LOAD: -nan cycles
ITLB AVERAGE MISS LATENCY PREFETCH: -nan cycles
ITLB AVERAGE MSHR OCCUPANCY: 0
ITLB MSHR FULL: 0
ITLB RQ	ACCESS:   25156263	FORWARD:          0	MERGED:     662740	TO_CACHE:   24493523

DTLB TOTAL     ACCESS:   43703172  HIT:   39158964  MISS:    4544208  HIT %:    89.6021  MISS %:    10.3979   MPKI: 22.721
DTLB Test counter:          0
DTLB LOAD TRANSLATION ACCESS:   43703172  HIT:   39158964  MISS:    4544208  HIT %:    89.6021  MISS %:    10.3979   MPKI: 22.721
DTLB PREFETCH  REQUESTED:          0  ISSUED:          0  USEFUL:          0  USELESS:          0
DTLB USEFUL LOAD PREFETCHES:          0 PREFETCH ISSUED TO LOWER LEVEL:          0  ACCURACY: -nan
DTLB TIMELY PREFETCHES:          0 LATE PREFETCHES: 0 DROPPED PREFETCHES: 0
DTLB COMMIT LATE PREFETCHES: 0 MISSED OPPORTUNITY: 0 LATE IN PQ: 0 UNCOVERED: 0
DTLB COMMIT LATE MSHR PREFETCHES: 0
DTLB MPKI TOTAL: 0 MSHR LATE: 0 PQ LATE: 0 COMMIT LATE: 0 MISSED OPPORTUNITY: 0 UNCOVERED: 0
DTLB PREFETCHES SAME FILL-ORIGIN LEVEL: 0 DIFFERENT FILL-ORIGIN LEVEL: 0
DTLB AVERAGE MISS LATENCY: 11.8902 cycles
DTLB AVERAGE MISS LATENCY LOAD: -nan cycles
DTLB AVERAGE MISS LATENCY PREFETCH: -nan cycles
DTLB AVERAGE MSHR OCCUPANCY: 0.18127
DTLB MSHR FULL: 1.59558e-07
DTLB RQ	ACCESS:   49823164	FORWARD:          0	MERGED:    5952045	TO_CACHE:   43871119

STLB TOTAL     ACCESS:   13100807  HIT:   13043035  MISS:      57772  HIT %:     99.559  MISS %:    0.44098   MPKI: 0.28886
STLB Test counter:          0
STLB LOAD TRANSLATION ACCESS:    4544208  HIT:    4486436  MISS:      57772  HIT %:    98.7287  MISS %:    1.27133   MPKI: 0.28886
STLB TRANSLATION FROM L1D PREFETCHER ACCESS:    8556599  HIT:    8556599  MISS:          0  HIT %:        100  MISS %:          0   MPKI: 0
STLB PREFETCH  REQUESTED:          0  ISSUED:          0  USEFUL:          0  USELESS:          0
STLB USEFUL LOAD PREFETCHES:          0 PREFETCH ISSUED TO LOWER LEVEL:          0  ACCURACY: -nan
STLB TIMELY PREFETCHES:          0 LATE PREFETCHES: 0 DROPPED PREFETCHES: 0
STLB COMMIT LATE PREFETCHES: 0 MISSED OPPORTUNITY: 0 LATE IN PQ: 0 UNCOVERED: 0
STLB COMMIT LATE MSHR PREFETCHES: 0
STLB MPKI TOTAL: 0 MSHR LATE: 0 PQ LATE: 0 COMMIT LATE: 0 MISSED OPPORTUNITY: 0 UNCOVERED: 0
STLB PREFETCHES SAME FILL-ORIGIN LEVEL: 0 DIFFERENT FILL-ORIGIN LEVEL: 0
STLB AVERAGE MISS LATENCY: 207.564 cycles
STLB AVERAGE MISS LATENCY LOAD: -nan cycles
STLB AVERAGE MISS LATENCY PREFETCH: -nan cycles
STLB AVERAGE MSHR OCCUPANCY: 0.00714322
STLB MSHR FULL: 0
STLB RQ	ACCESS:   15761851	FORWARD:          0	MERGED:    2661044	TO_CACHE:   13100807

STLB Hit, L1D data hit: 0
STLB Hit, L2C data hit: 0
STLB Hit, LLC data hit: 0
STLB Hit, LLC data miss: 0
STLB STLB hints to L2: 0
L1D TOTAL     ACCESS:   60190738  HIT:   40471853  MISS:   19718885  HIT %:    67.2393  MISS %:    32.7607   MPKI: 98.5944
L1D Test counter:          0
L1D LOAD      ACCESS:   47424450  HIT:   38250429  MISS:    9368511  HIT %:    80.6555  MISS %:    19.3445   MPKI: 45.8701
L1D RFO       ACCESS:    2030230  HIT:    1490337  MISS:     539893  HIT %:    73.4073  MISS %:    26.5927   MPKI: 2.69946
L1D PREFETCH  ACCESS:   10736058  HIT:     731087  MISS:   10004971  HIT %:    6.80964  MISS %:    93.1904   MPKI: 50.0249
L1D PREFETCH  REQUESTED:   22435286  ISSUED:   22435286  USEFUL:    1321931  USELESS:    8683019
L1D USEFUL LOAD PREFETCHES:    1321931 PREFETCH ISSUED TO LOWER LEVEL:   10182959  ACCURACY: 12.9818
L1D TIMELY PREFETCHES:    1321931 LATE PREFETCHES: 177987 DROPPED PREFETCHES: 0
L1D COMMIT LATE PREFETCHES: 0 MISSED OPPORTUNITY: 0 LATE IN PQ: 158817 UNCOVERED: 0
L1D COMMIT LATE MSHR PREFETCHES: 0
L1D MPKI TOTAL: 46.8426 MSHR LATE: 0.889935 PQ LATE: 0.794085 COMMIT LATE: 0 MISSED OPPORTUNITY: 0 UNCOVERED: 0
L1D PREFETCHES SAME FILL-ORIGIN LEVEL: 10182959 DIFFERENT FILL-ORIGIN LEVEL: 0
L1D AVERAGE MISS LATENCY: 105.578 cycles
L1D AVERAGE MISS LATENCY LOAD: 94.9038 cycles
L1D AVERAGE MISS LATENCY PREFETCH: 117.452 cycles
L1D AVERAGE MSHR OCCUPANCY: 3.41195
L1D MSHR FULL: 0.0187982
L1D RQ	ACCESS:   76736851	FORWARD:          0	MERGED:   29114871	TO_CACHE:   47618940
L1D WQ	ACCESS:    2204915	FORWARD:       3040	MERGED:        691	TO_CACHE:    2204224
L1D PQ	ACCESS:   11217643	FORWARD:          0	MERGED:          0	TO_CACHE:   11217643

L1D UNIQUE REGIONS ACCESSED: 0
L1D REGIONS CONFLICTS: 0
L1D Cross Page Prefetch Requests: 0
L1D Same Page Prefetch Requests: 13885761
L1D ROI Sum of L1D PQ occupancy: 145940437
L1D PREFETCHES PUSHED FROM L2C: 0
14e493a865d4: 1
559889cb14af: 1
14e493a5b9fc: 1
14e493a62a82: 1
559889cb11c5: 1
14e493a8657e: 1
559889caf710: 1
14e493a5ba06: 1
14e493a62a4b: 1
14e493a5b9a5: 1
14e493a62a58: 1
559889cb15c5: 1
14e493a600ec: 1
14e493a62a7c: 1
559889cb1485: 1
14e493a5b9de: 1
14e493a5b99b: 1
14e493a5b97e: 1
14e493a5b9f4: 1
14e493a5b93c: 1
14e493a8658f: 1
559889cb132a: 1
559889cb11de: 1
559889cb148c: 1
7ffeb778ad75: 1
14e493a5ba25: 1
14e493a86477: 2
14e493a866c3: 2
14e493a60252: 2
14e493a62d67: 2
14e493a865c8: 3
14e493a5f913: 3
14e493a865c5: 3
14e493a62d3b: 3
14e493a6345d: 3
14e493a63457: 3
14e493a5ff2b: 4
14e493a6339a: 4
559889cb1568: 5
559889cb12f6: 5
14e493a6024c: 6
14e493a62ccc: 7
14e493a633a4: 7
14e493a6344d: 7
14e493a86650: 7
14e493a6021e: 8
14e493a6338c: 8
14e493a86646: 9
14e493a6015a: 10
14e493a60135: 11
14e493a5f62d: 11
14e493a8664b: 12
14e493a60106: 12
14e493a6012d: 13
14e493a62cf9: 14
14e493a62e41: 14
14e493a5f795: 15
14e493a5ff46: 15
14e493a5fe6c: 15
14e493a6013f: 17
559889cb14d3: 18
559889cb1585: 18
14e493a5ff19: 19
14e493a6220e: 20
14e493a62207: 20
14e493a621f4: 20
14e493a6331c: 21
14e493a5febb: 21
14e493a5feb2: 22
14e493a62a12: 23
14e493a5fe97: 27
559889cb1317: 27
14e493a8663e: 30
14e493a86641: 31
14e493a5fc11: 31
14e493a86672: 32
14e493a6298d: 32
14e493a5f867: 32
14e493a5f896: 32
14e493a62d4d: 33
14e493a62cde: 36
14e493a62d43: 36
14e493a6010a: 38
14e493a62cd4: 41
14e493a62cb6: 41
14e493a62d7f: 45
14e493a8674a: 45
14e493a629a6: 46
559889cb1327: 46
14e493a62a09: 46
14e493a62971: 46
559889cb1539: 46
14e493a6299f: 46
559889cb132f: 47
14e493a60174: 50
14e493a62c45: 52
14e493a62c95: 52
14e493a62c61: 52
14e493a62c4f: 52
14e493a62a27: 53
14e493a866c7: 54
14e493a62c88: 54
14e493a866cb: 54
14e493a866cf: 56
14e493a62c6b: 59
14e493a5f5a7: 62
14e493a600e6: 62
14e493a5fc15: 67
14e493a5fef2: 72
14e493a60123: 75
14e493a5ff10: 86
14e493a600f0: 109
14e493a5fbf5: 121
14e493a5f8f4: 138
14e493a8668a: 144
14e493a5f60d: 166
14e493a5f8e8: 169
14e493a866d3: 193
14e493a5f65b: 203
14e493a5ff73: 207
14e493a866f6: 221
14e493a866c4: 222
14e493a62d1a: 229
14e493a5f58f: 235
14e493a5f574: 238
14e493a5f323: 239
14e493a5f5f4: 240
14e493a62e55: 240
14e493a620e3: 240
14e493a5f4f8: 240
559889caf720: 258
14e493a62961: 259
14e493a620cf: 259
14e493a620c1: 259
14e493a620af: 259
14e4943fc3f0: 259
559889caf580: 260
14e493a62076: 260
14e493a62978: 260
14e493a6207d: 262
14e4943fbb30: 262
559889caf5b0: 262
14e493a5f581: 277
14e493a8667f: 420
14e493a86686: 1113
559889cb11eb: 1531
14e493a86682: 2698
559889cb11e3: 5430
559889cb11b8: 5803
14e493a86706: 11134
14e493a8670e: 11360
559889cb11d5: 11834
559889cb11e7: 11851
14e493a8670a: 11935
14e493a86703: 13346
559889cb12dc: 15651
559889cb1200: 39596
559889cb12d8: 210475
559889cb1226: 8810240
L1I TOTAL     ACCESS:   25156262  HIT:   25156262  MISS:          0  HIT %:        100  MISS %:          0   MPKI: 0
L1I Test counter:          0
L1I LOAD      ACCESS:   25156262  HIT:   25156262  MISS:          0  HIT %:        100  MISS %:          0   MPKI: 0
L1I PREFETCH  REQUESTED:          0  ISSUED:          0  USEFUL:          0  USELESS:          0
L1I USEFUL LOAD PREFETCHES:          0 PREFETCH ISSUED TO LOWER LEVEL:          0  ACCURACY: -nan
L1I TIMELY PREFETCHES:          0 LATE PREFETCHES: 0 DROPPED PREFETCHES: 0
L1I COMMIT LATE PREFETCHES: 0 MISSED OPPORTUNITY: 0 LATE IN PQ: 0 UNCOVERED: 0
L1I COMMIT LATE MSHR PREFETCHES: 0
L1I MPKI TOTAL: 0 MSHR LATE: 0 PQ LATE: 0 COMMIT LATE: 0 MISSED OPPORTUNITY: 0 UNCOVERED: 0
L1I PREFETCHES SAME FILL-ORIGIN LEVEL: 0 DIFFERENT FILL-ORIGIN LEVEL: 0
L1I AVERAGE MISS LATENCY: -nan cycles
L1I AVERAGE MISS LATENCY LOAD: -nan cycles
L1I AVERAGE MISS LATENCY PREFETCH: -nan cycles
L1I AVERAGE MSHR OCCUPANCY: 0
L1I MSHR FULL: 0
L1I RQ	ACCESS:   38898395	FORWARD:          0	MERGED:   13742132	TO_CACHE:   25156263

BTB TOTAL     ACCESS:   29073117  HIT:   29072954  MISS:        163  HIT %:    99.9994  MISS %: 0.000560655   MPKI: 0.000815
BTB Test counter:          0
BTB BRANCH_DIRECT_JUMP	ACCESS:    9228476  HIT:    9228432  MISS:         44
BTB BRANCH_INDIRECT	ACCESS:          0  HIT:          0  MISS:          0
BTB BRANCH_CONDITIONAL	ACCESS:   19842043  HIT:   19841952  MISS:         91
BTB BRANCH_DIRECT_CALL	ACCESS:       1299  HIT:       1288  MISS:         11
BTB BRANCH_INDIRECT_CALL	ACCESS:          0  HIT:          0  MISS:          0
BTB BRANCH_RETURN	ACCESS:       1299  HIT:       1282  MISS:         17
BTB BRANCH_OTHER ACCESS:          0  HIT:          0  MISS:          0

L2C TOTAL     ACCESS:   21252484  HIT:    4824072  MISS:   16428412  HIT %:    22.6989  MISS %:    77.3011   MPKI: 82.1421
L2C Test counter:          0
L2C LOAD      ACCESS:    8996029  HIT:    1599372  MISS:    7396659  HIT %:    17.7786  MISS %:    82.2214   MPKI: 36.9833
L2C DATA LOAD MPKI: 36.9833
L2C INSTRUCTION LOAD MPKI: 0
L2C RFO       ACCESS:     539860  HIT:     318132  MISS:     221728  HIT %:    58.9286  MISS %:    41.0714   MPKI: 1.10864
L2C PREFETCH  ACCESS:   10182954  HIT:    1421879  MISS:    8761075  HIT %:    13.9633  MISS %:    86.0367   MPKI: 43.8054
L2C DATA PREFETCH MPKI: 43.8054
L2C INSTRUCTION PREFETCH MPKI: 0
L2C WRITEBACK ACCESS:    1464025  HIT:    1460910  MISS:       3115  HIT %:    99.7872  MISS %:    0.21277   MPKI: 0.015575
L2C LOAD TRANSLATION ACCESS:      69616  HIT:      23779  MISS:      45837  HIT %:    34.1574  MISS %:    65.8426   MPKI: 0.229185
L2C PREFETCH  REQUESTED:          0  ISSUED:          0  USEFUL:     245607  USELESS:    8515553
L2C USEFUL LOAD PREFETCHES:     245607 PREFETCH ISSUED TO LOWER LEVEL:    8761076  ACCURACY: 2.80339
L2C TIMELY PREFETCHES:     245607 LATE PREFETCHES: 0 DROPPED PREFETCHES: 0
L2C COMMIT LATE PREFETCHES: 0 MISSED OPPORTUNITY: 0 LATE IN PQ: 0 UNCOVERED: 0
L2C COMMIT LATE MSHR PREFETCHES: 0
L2C MPKI TOTAL: 36.9833 MSHR LATE: 0 PQ LATE: 0 COMMIT LATE: 0 MISSED OPPORTUNITY: 0 UNCOVERED: 0
L2C PREFETCHES SAME FILL-ORIGIN LEVEL: 0 DIFFERENT FILL-ORIGIN LEVEL: 0
L2C AVERAGE MISS LATENCY: 110.271 cycles
L2C AVERAGE MISS LATENCY LOAD: 99.1342 cycles
L2C AVERAGE MISS LATENCY PREFETCH: 118.971 cycles
L2C AVERAGE MSHR OCCUPANCY: 3.53898
L2C MSHR FULL: 0
L2C RQ	ACCESS:    9605545	FORWARD:          0	MERGED:          0	TO_CACHE:    9605507
L2C WQ	ACCESS:    1464025	FORWARD:         42	MERGED:          0	TO_CACHE:    1464025
L2C PQ	ACCESS:   10182959	FORWARD:          0	MERGED:          0	TO_CACHE:   10182955

L2C Instructions Evicting Data 0
L2C Translations Evicting Data 45685
L2C Data Evicting Data 16333825
L2C Instructions Evicting Instructions 0
L2C Translations Evicting Instructions 0
L2C Data Evicting Instructions 0
L2C Instructions Evicting Translations 0
L2C Translations Evicting Translations 152
L2C Data Evicting Translations 45635
L2C Dense regions hint from L2: 0
14e493a62a7c: 1
14e493a5b9fc: 1
14e493a8657e: 1
14e493a62a82: 1
559889cb11c5: 1
559889caf710: 1
14e493a5b99b: 1
14e493a5ba06: 1
14e493a5b9de: 1
14e493a62a4b: 1
14e493a86477: 1
559889cb15c5: 1
559889cb12f6: 1
14e493a62a58: 1
14e493a5b93c: 1
14e493a865d4: 1
7ffeb778ad75: 1
14e493a8658f: 1
14e493a5b9f4: 1
14e493a5b97e: 1
14e493a5b9a5: 1
14e493a60252: 2
14e493a62d67: 2
14e493a62d3b: 3
14e493a5f913: 3
14e493a865c8: 3
14e493a63457: 3
14e493a865c5: 3
14e493a6345d: 3
14e493a5ff2b: 3
14e493a6339a: 4
559889cb14d3: 4
14e493a62c4f: 5
14e493a62c61: 5
14e493a6298d: 5
14e493a6024c: 6
14e493a62c45: 6
14e493a62c95: 6
14e493a62a27: 7
14e493a6344d: 7
14e493a62d7f: 7
14e493a633a4: 7
14e493a6021e: 7
14e493a62ccc: 7
14e493a86650: 7
14e493a6338c: 8
14e493a86646: 9
14e493a5f62d: 9
14e493a6015a: 9
14e493a62c88: 9
14e493a60135: 10
559889cb132f: 11
14e493a8664b: 12
14e493a60106: 12
14e493a6012d: 12
14e493a62e41: 14
14e493a62cf9: 14
14e493a5fe6c: 14
14e493a62c6b: 14
14e493a86641: 15
14e493a5f795: 15
14e493a5ff46: 15
14e493a6013f: 16
14e493a5febb: 17
14e493a5ff19: 19
14e493a6220e: 20
14e493a621f4: 20
14e493a62207: 20
14e493a6331c: 21
14e493a5feb2: 22
14e493a62a12: 23
14e493a5fe97: 24
14e493a5f896: 28
14e493a5f867: 28
14e493a5fc11: 29
14e493a8663e: 30
14e493a86672: 30
14e493a62d4d: 32
14e493a62cde: 34
14e493a62d43: 35
14e493a6010a: 36
14e493a62cd4: 39
14e493a62cb6: 40
559889cb1327: 45
14e493a60174: 49
14e493a5f5a7: 50
14e493a866c7: 54
14e493a866cb: 54
14e493a866cf: 56
14e493a600e6: 61
14e493a5fc15: 66
14e493a5fef2: 69
14e493a8668a: 72
14e493a60123: 75
14e493a866d3: 83
14e493a5ff10: 85
14e493a600f0: 105
14e493a5fbf5: 118
14e493a5f8f4: 131
14e493a5f8e8: 157
14e493a5f60d: 160
14e493a5f65b: 181
14e493a5ff73: 184
14e493a866f6: 184
14e493a5f574: 197
14e493a5f4f8: 203
14e493a5f58f: 205
14e493a62e55: 208
14e493a620e3: 212
14e493a5f323: 213
559889caf580: 218
14e493a6207d: 219
14e493a620af: 222
14e493a620cf: 222
559889caf720: 222
14e493a8667f: 222
14e493a866c4: 222
14e493a5f5f4: 223
14e4943fbb30: 223
14e4943fc3f0: 224
14e493a620c1: 224
14e493a62961: 225
14e493a62978: 225
559889caf5b0: 227
14e493a62d1a: 227
14e493a62076: 228
14e493a5f581: 238
559889cb11e3: 554
14e493a86686: 632
559889cb12dc: 897
559889cb11b8: 1230
559889cb11eb: 1531
14e493a86682: 1542
14e493a8670e: 6020
14e493a86706: 6506
14e493a8670a: 6717
14e493a86703: 7972
559889cb11d5: 9780
559889cb11e7: 11851
559889cb12d8: 19670
559889cb1200: 38788
559889cb1226: 7274978
PSCL5 TOTAL     ACCESS:      57772  HIT:      57772  MISS:          0  HIT %:        100  MISS %:          0   MPKI: 0
PSCL5 Test counter:          0
PSCL5 LOAD TRANSLATION ACCESS:      57772  HIT:      57772  MISS:          0  HIT %:        100  MISS %:          0   MPKI: 0
PSCL5 PREFETCH  REQUESTED:          0  ISSUED:          0  USEFUL:          0  USELESS:          0
PSCL5 USEFUL LOAD PREFETCHES:          0 PREFETCH ISSUED TO LOWER LEVEL:          0  ACCURACY: -nan
PSCL5 TIMELY PREFETCHES:          0 LATE PREFETCHES: 0 DROPPED PREFETCHES: 0
PSCL5 COMMIT LATE PREFETCHES: 0 MISSED OPPORTUNITY: 0 LATE IN PQ: 0 UNCOVERED: 0
PSCL5 COMMIT LATE MSHR PREFETCHES: 0
PSCL5 MPKI TOTAL: 0 MSHR LATE: 0 PQ LATE: 0 COMMIT LATE: 0 MISSED OPPORTUNITY: 0 UNCOVERED: 0
PSCL5 PREFETCHES SAME FILL-ORIGIN LEVEL: 0 DIFFERENT FILL-ORIGIN LEVEL: 0

PSCL4 TOTAL     ACCESS:      57772  HIT:      57772  MISS:          0  HIT %:        100  MISS %:          0   MPKI: 0
PSCL4 Test counter:          0
PSCL4 LOAD TRANSLATION ACCESS:      57772  HIT:      57772  MISS:          0  HIT %:        100  MISS %:          0   MPKI: 0
PSCL4 PREFETCH  REQUESTED:          0  ISSUED:          0  USEFUL:          0  USELESS:          0
PSCL4 USEFUL LOAD PREFETCHES:          0 PREFETCH ISSUED TO LOWER LEVEL:          0  ACCURACY: -nan
PSCL4 TIMELY PREFETCHES:          0 LATE PREFETCHES: 0 DROPPED PREFETCHES: 0
PSCL4 COMMIT LATE PREFETCHES: 0 MISSED OPPORTUNITY: 0 LATE IN PQ: 0 UNCOVERED: 0
PSCL4 COMMIT LATE MSHR PREFETCHES: 0
PSCL4 MPKI TOTAL: 0 MSHR LATE: 0 PQ LATE: 0 COMMIT LATE: 0 MISSED OPPORTUNITY: 0 UNCOVERED: 0
PSCL4 PREFETCHES SAME FILL-ORIGIN LEVEL: 0 DIFFERENT FILL-ORIGIN LEVEL: 0

PSCL3 TOTAL     ACCESS:      57772  HIT:      57772  MISS:          0  HIT %:        100  MISS %:          0   MPKI: 0
PSCL3 Test counter:          0
PSCL3 LOAD TRANSLATION ACCESS:      57772  HIT:      57772  MISS:          0  HIT %:        100  MISS %:          0   MPKI: 0
PSCL3 PREFETCH  REQUESTED:          0  ISSUED:          0  USEFUL:          0  USELESS:          0
PSCL3 USEFUL LOAD PREFETCHES:          0 PREFETCH ISSUED TO LOWER LEVEL:          0  ACCURACY: -nan
PSCL3 TIMELY PREFETCHES:          0 LATE PREFETCHES: 0 DROPPED PREFETCHES: 0
PSCL3 COMMIT LATE PREFETCHES: 0 MISSED OPPORTUNITY: 0 LATE IN PQ: 0 UNCOVERED: 0
PSCL3 COMMIT LATE MSHR PREFETCHES: 0
PSCL3 MPKI TOTAL: 0 MSHR LATE: 0 PQ LATE: 0 COMMIT LATE: 0 MISSED OPPORTUNITY: 0 UNCOVERED: 0
PSCL3 PREFETCHES SAME FILL-ORIGIN LEVEL: 0 DIFFERENT FILL-ORIGIN LEVEL: 0

PSCL2 TOTAL     ACCESS:      57772  HIT:      45926  MISS:      11846  HIT %:    79.4953  MISS %:    20.5047   MPKI: 0.05923
PSCL2 Test counter:          0
PSCL2 LOAD TRANSLATION ACCESS:      57772  HIT:      45926  MISS:      11846  HIT %:    79.4953  MISS %:    20.5047   MPKI: 0.05923
PSCL2 PREFETCH  REQUESTED:          0  ISSUED:          0  USEFUL:          0  USELESS:          0
PSCL2 USEFUL LOAD PREFETCHES:          0 PREFETCH ISSUED TO LOWER LEVEL:          0  ACCURACY: -nan
PSCL2 TIMELY PREFETCHES:          0 LATE PREFETCHES: 0 DROPPED PREFETCHES: 0
PSCL2 COMMIT LATE PREFETCHES: 0 MISSED OPPORTUNITY: 0 LATE IN PQ: 0 UNCOVERED: 0
PSCL2 COMMIT LATE MSHR PREFETCHES: 0
PSCL2 MPKI TOTAL: 0 MSHR LATE: 0 PQ LATE: 0 COMMIT LATE: 0 MISSED OPPORTUNITY: 0 UNCOVERED: 0
PSCL2 PREFETCHES SAME FILL-ORIGIN LEVEL: 0 DIFFERENT FILL-ORIGIN LEVEL: 0

LLC TOTAL     ACCESS:   17325233  HIT:    8732596  MISS:    8592637  HIT %:    50.4039  MISS %:    49.5961   MPKI: 42.9632
LLC Test counter:          0
LLC LOAD      ACCESS:    7396657  HIT:    3937125  MISS:    3459534  HIT %:    53.2284  MISS %:    46.7716   MPKI: 17.2977
LLC RFO       ACCESS:     221725  HIT:     107569  MISS:     114156  HIT %:    48.5146  MISS %:    51.4854   MPKI: 0.57078
LLC PREFETCH  ACCESS:    8761075  HIT:    3789235  MISS:    4971840  HIT %:    43.2508  MISS %:    56.7492   MPKI: 24.8592
LLC WRITEBACK ACCESS:     899939  HIT:     890772  MISS:       9167  HIT %:    98.9814  MISS %:    1.01862   MPKI: 0.045835
LLC LOAD TRANSLATION ACCESS:      45837  HIT:       7895  MISS:      37942  HIT %:    17.2241  MISS %:    82.7759   MPKI: 0.18971
LLC PREFETCH  REQUESTED:          0  ISSUED:          0  USEFUL:     668444  USELESS:    4303815
LLC USEFUL LOAD PREFETCHES:     668444 PREFETCH ISSUED TO LOWER LEVEL:    4971840  ACCURACY: 13.4446
LLC TIMELY PREFETCHES:     668444 LATE PREFETCHES: 0 DROPPED PREFETCHES: 0
LLC COMMIT LATE PREFETCHES: 0 MISSED OPPORTUNITY: 0 LATE IN PQ: 0 UNCOVERED: 0
LLC COMMIT LATE MSHR PREFETCHES: 0
LLC MPKI TOTAL: 17.2977 MSHR LATE: 0 PQ LATE: 0 COMMIT LATE: 0 MISSED OPPORTUNITY: 0 UNCOVERED: 0
LLC PREFETCHES SAME FILL-ORIGIN LEVEL: 0 DIFFERENT FILL-ORIGIN LEVEL: 0
LLC AVERAGE MISS LATENCY: 153.321 cycles
LLC AVERAGE MISS LATENCY LOAD: 147.652 cycles
LLC AVERAGE MISS LATENCY PREFETCH: 156.628 cycles
LLC AVERAGE MSHR OCCUPANCY: 2.56329
LLC MSHR FULL: 0
LLC RQ	ACCESS:    7664224	FORWARD:          0	MERGED:          0	TO_CACHE:    7664221
LLC WQ	ACCESS:     899939	FORWARD:          4	MERGED:          0	TO_CACHE:     899939
LLC PQ	ACCESS:    8761076	FORWARD:          0	MERGED:          0	TO_CACHE:    8761075

LLC Dense regions hint to LLC: 0
14e493a62c4f: 1
559889cb11c5: 1
14e493a5b9fc: 1
14e493a62d67: 1
14e493a8657e: 1
14e493a5ba06: 1
559889cb12f6: 1
14e493a86477: 1
559889cb15c5: 1
14e493a5b9de: 1
14e493a62c95: 1
14e493a5b99b: 1
14e493a5b93c: 1
559889cb14d3: 1
14e493a865d4: 1
14e493a5f913: 1
7ffeb778ad75: 1
14e493a8658f: 1
14e493a5b9f4: 1
14e493a5b97e: 1
559889cb132f: 2
14e493a62a27: 2
14e493a60252: 2
14e493a62c61: 2
14e493a62c88: 2
14e493a62d3b: 3
14e493a62d7f: 3
14e493a865c8: 3
14e493a62c45: 3
14e493a6345d: 3
14e493a865c5: 3
14e493a5ff2b: 3
14e493a63457: 3
14e493a6339a: 4
14e493a86641: 5
14e493a6298d: 5
14e493a633a4: 6
14e493a6024c: 6
14e493a6021e: 6
14e493a86646: 6
14e493a6344d: 6
14e493a86650: 6
14e493a62ccc: 7
14e493a5f62d: 8
14e493a60135: 8
14e493a6338c: 8
14e493a6015a: 9
14e493a5fe6c: 10
14e493a60106: 11
14e493a6012d: 11
14e493a8664b: 11
14e493a62e41: 11
14e493a62cf9: 12
14e493a5ff46: 12
14e493a5ff19: 13
14e493a5febb: 13
14e493a5f795: 14
14e493a62c6b: 14
14e493a86672: 15
14e493a6013f: 15
14e493a62a12: 17
14e493a6220e: 17
14e493a621f4: 19
14e493a5f896: 19
14e493a62207: 20
14e493a6331c: 20
14e493a5f5a7: 20
14e493a5feb2: 21
14e493a5f867: 21
14e493a5fe97: 22
14e493a5fc11: 23
14e493a8663e: 30
14e493a62d4d: 30
14e493a6010a: 31
14e493a62cde: 31
14e493a866d3: 32
14e493a62d43: 33
14e493a62cd4: 37
14e493a62cb6: 37
559889cb1327: 43
14e493a60174: 47
14e493a600e6: 49
14e493a866cb: 52
14e493a866c7: 54
14e493a5fef2: 55
14e493a866cf: 56
14e493a5fc15: 56
559889cb12dc: 65
14e493a60123: 71
14e493a8668a: 72
14e493a5ff10: 73
14e493a600f0: 86
14e493a5ff73: 88
14e493a5f574: 91
14e493a5f58f: 97
14e493a5f8f4: 98
14e493a5f65b: 99
14e493a620e3: 102
14e493a5fbf5: 103
14e493a620af: 103
14e493a866f6: 104
14e493a62978: 104
14e493a5f4f8: 105
14e493a6207d: 107
14e493a62e55: 108
14e493a62076: 111
14e4943fc3f0: 112
559889cb11e3: 113
14e493a5f8e8: 113
14e493a5f323: 113
14e493a620cf: 115
559889caf720: 116
14e493a62961: 118
14e493a620c1: 120
14e493a5f581: 123
14e4943fbb30: 125
559889caf580: 126
14e493a5f60d: 135
559889caf5b0: 136
14e493a5f5f4: 148
559889cb11b8: 152
14e493a866c4: 220
14e493a62d1a: 222
14e493a8667f: 222
14e493a86686: 632
559889cb12d8: 1115
559889cb11eb: 1531
14e493a86682: 1539
559889cb11d5: 4890
14e493a8670e: 6005
14e493a86706: 6482
14e493a8670a: 6696
14e493a86703: 7955
559889cb11e7: 11846
559889cb1200: 38787
559889cb1226: 3366540

RAW hits: 69388
Loads Generated: 76806240
Loads sent to L1D: 76736851
Stores Generated: 2204913
Stores sent to L1D: 2204915
Major fault: 0 Minor fault: 36550
Allocated PAGES: 36550
Total Load insts: 93558935
Total Non-spec loads: 6376833
Percentage of speculative loads: 93.1842
L1D response latency: 96.7815 cycles
Load retirement latency: 174.676 cycles


stream: 
stream:times selected: 16711262
stream:pref_filled: 10059412
stream:pref_useful: 306514
stream:pref_late: 159863
stream:misses: 2308204
stream:misses_by_poll: 0

CS: 
CS:times selected: 3793175
CS:pref_filled: 1502883
CS:pref_useful: 1403303
CS:pref_late: 28564
CS:misses: 211725
CS:misses_by_poll: 1581

CPLX: 
CPLX:times selected: 12832737
CPLX:pref_filled: 434429
CPLX:pref_useful: 19760
CPLX:pref_late: 5951
CPLX:misses: 8440496
CPLX:misses_by_poll: 235

NL_L1: 
NL:times selected: 79547
NL:pref_filled: 67185
NL:pref_useful: 2374
NL:pref_late: 884
NL:misses: 70093
NL:misses_by_poll: 0

total selections: 33416721
total_filled: 10004971
total_useful: 1321931
total_late: 200563
total_polluted: 1816
total_misses_after_warmup: 9368511
conflicts: 104
Degree Incremented Times: 232994
Degree Decremented Times: 705991

L1 IP Table Write Accesses: 47618029
L1 IP Table Read Accesses: 47617925
L1 RST Write Accesses: 13492901
L1 RST Read Accesses: 26985802
L1 CSPT Write Accesses: 13492901
L1 CSPT Read Accesses: 23684179
L1 RR Filter Tag Write Accesses: 11217643
L1 RR Filter Tag Read Accesses: 582093215
L1 IP Table Tag Write Accesses: 47618940
L1 IP Table Tag Read Accesses: 47618940
L1 RST Tag Write Accesses: 0
L1 RST Tag Read Accesses: 120144037
L1 RR Filter Write Accesses: 0
L1 RR Filter Read Accesses: 23232792
test: 5238014

DRAM Statistics
 CHANNEL 0
 RQ ROW_BUFFER_HIT:    3556754  ROW_BUFFER_MISS:    5026552
 DBUS_CONGESTED:       8260
 WQ ROW_BUFFER_HIT:     206451  ROW_BUFFER_MISS:     540575  FULL:          0

 AVG_CONGESTED_CYCLE: 4
 All warmup complete: 2
Channel 0 Bank busy for read cycles: 0
Channel 0 Bank busy for write cycles: 0
Channel 0
Rank 0
0banks busy for read cycles: 53177466
0banks busy for write cycles: 237688
1banks busy for read cycles: 128259658
1banks busy for write cycles: 41281070
2banks busy for read cycles: 93672776
2banks busy for write cycles: 26610664
3banks busy for read cycles: 67422158
3banks busy for write cycles: 15081983
4banks busy for read cycles: 46742796
4banks busy for write cycles: 7687572
5banks busy for read cycles: 25659938
5banks busy for write cycles: 3501247
6banks busy for read cycles: 10829454
6banks busy for write cycles: 1383211
7banks busy for read cycles: 3236551
7banks busy for write cycles: 496959
8banks busy for read cycles: 1407985
8banks busy for write cycles: 288451

CPU 0 Branch Prediction Accuracy: 97.7925% MPKI: 3.28398 Average ROB Occupancy at Mispredict: 167.185
Branch types
NOT_BRANCH: 170247448 85.1237%
BRANCH_DIRECT_JUMP: 9228476 4.61424%
BRANCH_INDIRECT: 0 0%
BRANCH_CONDITIONAL: 20521465 10.2607%
BRANCH_DIRECT_CALL: 1299 0.0006495%
BRANCH_INDIRECT_CALL: 0 0%
BRANCH_RETURN: 1299 0.0006495%
BRANCH_OTHER: 0 0%

DRAM PAGES: 1048576
Allocated PAGES: 36550
