
*** ChampSim Multicore Out-of-Order Simulator ***

Warmup Instructions: 50000000
Simulation Instructions: 200000000
Number of CPUs: 1
LLC sets: 2048
LLC ways: 16
Secure Berti: OFF
Berti: OFF
Berti Fill: OFF
On commit prefetching: OFF
L2 LLC Bypass speculative loads: OFF
Off-chip DRAM Size: 4096 MB Channels: 1 Width: 64-bit Data Rate: 6400 MT/s
CPU 0 runs /home/sumon/secure_berti/Berti_Baseline/../../traces/gap/sssp-5.trace.gz
.gz
BTB has LRU replacement policy
ITLB has LRU replacement policy
DTLB has LRU replacement policy
STLB has LRU replacement policy
L1I has LRU replacement policy
IP Table Entries: 1024
CSPT Entries: 128
RR_ENTRIES: 32
RST_ENTRIES: 8
L1D has LRU replacement policy
L2C has LRU replacement policy
LLC has LRU replacement policy
Heartbeat CPU 0 instructions: 10000001 cycles: 3078176 heartbeat IPC: 3.24868 cumulative IPC: 3.24868 (Simulation time: 0 hr 0 min 35 sec) 
Heartbeat CPU 0 instructions: 20000000 cycles: 6134531 heartbeat IPC: 3.27187 cumulative IPC: 3.26023 (Simulation time: 0 hr 1 min 12 sec) 
Heartbeat CPU 0 instructions: 30000003 cycles: 9208627 heartbeat IPC: 3.25299 cumulative IPC: 3.25781 (Simulation time: 0 hr 1 min 43 sec) 
Heartbeat CPU 0 instructions: 40000002 cycles: 12296102 heartbeat IPC: 3.23889 cumulative IPC: 3.25306 (Simulation time: 0 hr 2 min 27 sec) 
Heartbeat CPU 0 instructions: 50000003 cycles: 15388410 heartbeat IPC: 3.23383 cumulative IPC: 3.2492 (Simulation time: 0 hr 3 min 15 sec) 

Warmup complete CPU 0 instructions: 50000003 cycles: 15388410 (Simulation time: 0 hr 3 min 15 sec) 

Heartbeat CPU 0 instructions: 60000002 cycles: 45473669 heartbeat IPC: 0.332389 cumulative IPC: 0.332389 (Simulation time: 0 hr 4 min 8 sec) 
Heartbeat CPU 0 instructions: 70000001 cycles: 74749516 heartbeat IPC: 0.341578 cumulative IPC: 0.336921 (Simulation time: 0 hr 5 min 1 sec) 
Heartbeat CPU 0 instructions: 80000000 cycles: 103508427 heartbeat IPC: 0.347718 cumulative IPC: 0.340445 (Simulation time: 0 hr 5 min 55 sec) 
Heartbeat CPU 0 instructions: 90000001 cycles: 131731483 heartbeat IPC: 0.35432 cumulative IPC: 0.343811 (Simulation time: 0 hr 6 min 49 sec) 
Heartbeat CPU 0 instructions: 100000000 cycles: 159412606 heartbeat IPC: 0.361257 cumulative IPC: 0.347164 (Simulation time: 0 hr 7 min 44 sec) 
Heartbeat CPU 0 instructions: 110000000 cycles: 186478993 heartbeat IPC: 0.369462 cumulative IPC: 0.350691 (Simulation time: 0 hr 8 min 34 sec) 
Heartbeat CPU 0 instructions: 120000000 cycles: 212985922 heartbeat IPC: 0.37726 cumulative IPC: 0.354255 (Simulation time: 0 hr 9 min 7 sec) 
Heartbeat CPU 0 instructions: 130000000 cycles: 239557693 heartbeat IPC: 0.376339 cumulative IPC: 0.356873 (Simulation time: 0 hr 9 min 39 sec) 
Heartbeat CPU 0 instructions: 140000000 cycles: 265809257 heartbeat IPC: 0.38093 cumulative IPC: 0.359395 (Simulation time: 0 hr 10 min 12 sec) 
Heartbeat CPU 0 instructions: 150000000 cycles: 291788997 heartbeat IPC: 0.384915 cumulative IPC: 0.361794 (Simulation time: 0 hr 10 min 45 sec) 
Heartbeat CPU 0 instructions: 160000000 cycles: 317407163 heartbeat IPC: 0.390348 cumulative IPC: 0.364216 (Simulation time: 0 hr 11 min 18 sec) 
Heartbeat CPU 0 instructions: 170000001 cycles: 342984373 heartbeat IPC: 0.390973 cumulative IPC: 0.366305 (Simulation time: 0 hr 11 min 51 sec) 
Heartbeat CPU 0 instructions: 180000000 cycles: 368589055 heartbeat IPC: 0.390554 cumulative IPC: 0.368063 (Simulation time: 0 hr 12 min 24 sec) 
Heartbeat CPU 0 instructions: 190000000 cycles: 394121571 heartbeat IPC: 0.391657 cumulative IPC: 0.369653 (Simulation time: 0 hr 12 min 58 sec) 
Heartbeat CPU 0 instructions: 200000001 cycles: 419389968 heartbeat IPC: 0.395751 cumulative IPC: 0.371286 (Simulation time: 0 hr 13 min 31 sec) 
Heartbeat CPU 0 instructions: 210000000 cycles: 444410390 heartbeat IPC: 0.399673 cumulative IPC: 0.372941 (Simulation time: 0 hr 14 min 3 sec) 
Heartbeat CPU 0 instructions: 220000000 cycles: 469666911 heartbeat IPC: 0.395937 cumulative IPC: 0.37422 (Simulation time: 0 hr 14 min 36 sec) 
Heartbeat CPU 0 instructions: 230000001 cycles: 494692863 heartbeat IPC: 0.399585 cumulative IPC: 0.375544 (Simulation time: 0 hr 15 min 9 sec) 
Heartbeat CPU 0 instructions: 240000002 cycles: 519449998 heartbeat IPC: 0.403924 cumulative IPC: 0.376938 (Simulation time: 0 hr 15 min 42 sec) 
Heartbeat CPU 0 instructions: 250000000 cycles: 544452734 heartbeat IPC: 0.399956 cumulative IPC: 0.378026 (Simulation time: 0 hr 16 min 15 sec) 
Finished CPU 0 instructions: 200000001 cycles: 529064325 cumulative IPC: 0.378026 (Simulation time: 0 hr 16 min 15 sec) 

ChampSim completed all CPUs

Region of Interest Statistics

CPU 0 cumulative IPC: 0.378026 instructions: 200000001 cycles: 529064325
ITLB TOTAL     ACCESS:   24471709  HIT:   24471709  MISS:          0  HIT %:        100  MISS %:          0   MPKI: 0
ITLB Test counter:          0
ITLB LOAD TRANSLATION ACCESS:   24471709  HIT:   24471709  MISS:          0  HIT %:        100  MISS %:          0   MPKI: 0
ITLB PREFETCH  REQUESTED:          0  ISSUED:          0  USEFUL:          0  USELESS:          0
ITLB USEFUL LOAD PREFETCHES:          0 PREFETCH ISSUED TO LOWER LEVEL:          0  ACCURACY: -nan
ITLB TIMELY PREFETCHES:          0 LATE PREFETCHES: 0 DROPPED PREFETCHES: 0
ITLB COMMIT LATE PREFETCHES: 0 MISSED OPPORTUNITY: 0 LATE IN PQ: 0 UNCOVERED: 0
ITLB COMMIT LATE MSHR PREFETCHES: 0
ITLB MPKI TOTAL: 0 MSHR LATE: 0 PQ LATE: 0 COMMIT LATE: 0 MISSED OPPORTUNITY: 0 UNCOVERED: 0
ITLB PREFETCHES SAME FILL-ORIGIN LEVEL: 0 DIFFERENT FILL-ORIGIN LEVEL: 0
ITLB AVERAGE MISS LATENCY: -nan cycles
ITLB AVERAGE MISS LATENCY LOAD: -nan cycles
ITLB AVERAGE MISS LATENCY PREFETCH: -nan cycles
ITLB AVERAGE MSHR OCCUPANCY: 0
ITLB MSHR FULL: 0
ITLB RQ	ACCESS:   25144561	FORWARD:          0	MERGED:     672852	TO_CACHE:   24471709

DTLB TOTAL     ACCESS:   43526677  HIT:   39004765  MISS:    4521912  HIT %:    89.6112  MISS %:    10.3888   MPKI: 22.6096
DTLB Test counter:          0
DTLB LOAD TRANSLATION ACCESS:   43526677  HIT:   39004765  MISS:    4521912  HIT %:    89.6112  MISS %:    10.3888   MPKI: 22.6096
DTLB PREFETCH  REQUESTED:          0  ISSUED:          0  USEFUL:          0  USELESS:          0
DTLB USEFUL LOAD PREFETCHES:          0 PREFETCH ISSUED TO LOWER LEVEL:          0  ACCURACY: -nan
DTLB TIMELY PREFETCHES:          0 LATE PREFETCHES: 0 DROPPED PREFETCHES: 0
DTLB COMMIT LATE PREFETCHES: 0 MISSED OPPORTUNITY: 0 LATE IN PQ: 0 UNCOVERED: 0
DTLB COMMIT LATE MSHR PREFETCHES: 0
DTLB MPKI TOTAL: 0 MSHR LATE: 0 PQ LATE: 0 COMMIT LATE: 0 MISSED OPPORTUNITY: 0 UNCOVERED: 0
DTLB PREFETCHES SAME FILL-ORIGIN LEVEL: 0 DIFFERENT FILL-ORIGIN LEVEL: 0
DTLB AVERAGE MISS LATENCY: 11.89 cycles
DTLB AVERAGE MISS LATENCY LOAD: -nan cycles
DTLB AVERAGE MISS LATENCY PREFETCH: -nan cycles
DTLB AVERAGE MSHR OCCUPANCY: 0.167896
DTLB MSHR FULL: 1.60259e-07
DTLB RQ	ACCESS:   45829509	FORWARD:          0	MERGED:    2150228	TO_CACHE:   43679281

STLB TOTAL     ACCESS:   13364077  HIT:   13305336  MISS:      58741  HIT %:    99.5605  MISS %:   0.439544   MPKI: 0.293705
STLB Test counter:          0
STLB LOAD TRANSLATION ACCESS:    4521912  HIT:    4463171  MISS:      58741  HIT %:     98.701  MISS %:    1.29903   MPKI: 0.293705
STLB TRANSLATION FROM L1D PREFETCHER ACCESS:    8842165  HIT:    8842165  MISS:          0  HIT %:        100  MISS %:          0   MPKI: 0
STLB PREFETCH  REQUESTED:          0  ISSUED:          0  USEFUL:          0  USELESS:          0
STLB USEFUL LOAD PREFETCHES:          0 PREFETCH ISSUED TO LOWER LEVEL:          0  ACCURACY: -nan
STLB TIMELY PREFETCHES:          0 LATE PREFETCHES: 0 DROPPED PREFETCHES: 0
STLB COMMIT LATE PREFETCHES: 0 MISSED OPPORTUNITY: 0 LATE IN PQ: 0 UNCOVERED: 0
STLB COMMIT LATE MSHR PREFETCHES: 0
STLB MPKI TOTAL: 0 MSHR LATE: 0 PQ LATE: 0 COMMIT LATE: 0 MISSED OPPORTUNITY: 0 UNCOVERED: 0
STLB PREFETCHES SAME FILL-ORIGIN LEVEL: 0 DIFFERENT FILL-ORIGIN LEVEL: 0
STLB AVERAGE MISS LATENCY: 205.341 cycles
STLB AVERAGE MISS LATENCY LOAD: -nan cycles
STLB AVERAGE MISS LATENCY PREFETCH: -nan cycles
STLB AVERAGE MSHR OCCUPANCY: 0.00713113
STLB MSHR FULL: 0
STLB RQ	ACCESS:   15690717	FORWARD:          0	MERGED:    2326640	TO_CACHE:   13364077

STLB Hit, L1D data hit: 0
STLB Hit, L2C data hit: 0
STLB Hit, LLC data hit: 0
STLB Hit, LLC data miss: 0
STLB STLB hints to L2: 0
L1D TOTAL     ACCESS:   56098890  HIT:   36430108  MISS:   19668782  HIT %:    64.9391  MISS %:    35.0609   MPKI: 98.3439
L1D Test counter:          0
L1D LOAD      ACCESS:   43368227  HIT:   34231728  MISS:    9357133  HIT %:    78.9327  MISS %:    21.0673   MPKI: 45.6825
L1D RFO       ACCESS:    2057490  HIT:    1511804  MISS:     545686  HIT %:    73.4781  MISS %:    26.5219   MPKI: 2.72843
L1D PREFETCH  ACCESS:   10673173  HIT:     686576  MISS:    9986597  HIT %:    6.43273  MISS %:    93.5673   MPKI: 49.933
L1D PREFETCH  REQUESTED:   22337613  ISSUED:   22337613  USEFUL:    1333902  USELESS:    8652604
L1D USEFUL LOAD PREFETCHES:    1333902 PREFETCH ISSUED TO LOWER LEVEL:   10186504  ACCURACY: 13.0948
L1D TIMELY PREFETCHES:    1333902 LATE PREFETCHES: 199905 DROPPED PREFETCHES: 0
L1D COMMIT LATE PREFETCHES: 0 MISSED OPPORTUNITY: 0 LATE IN PQ: 191505 UNCOVERED: 0
L1D COMMIT LATE MSHR PREFETCHES: 0
L1D MPKI TOTAL: 46.7857 MSHR LATE: 0.999525 PQ LATE: 0.957525 COMMIT LATE: 0 MISSED OPPORTUNITY: 0 UNCOVERED: 0
L1D PREFETCHES SAME FILL-ORIGIN LEVEL: 10186504 DIFFERENT FILL-ORIGIN LEVEL: 0
L1D AVERAGE MISS LATENCY: 105.903 cycles
L1D AVERAGE MISS LATENCY LOAD: 95.0721 cycles
L1D AVERAGE MISS LATENCY PREFETCH: 117.907 cycles
L1D AVERAGE MSHR OCCUPANCY: 3.50904
L1D MSHR FULL: 0.0220685
L1D RQ	ACCESS:   76694826	FORWARD:          0	MERGED:   33102984	TO_CACHE:   43588859
L1D WQ	ACCESS:    2241352	FORWARD:       2986	MERGED:        702	TO_CACHE:    2240650
L1D PQ	ACCESS:   11168808	FORWARD:          0	MERGED:          0	TO_CACHE:   11168805

L1D UNIQUE REGIONS ACCESSED: 0
L1D REGIONS CONFLICTS: 0
L1D Cross Page Prefetch Requests: 0
L1D Same Page Prefetch Requests: 13829998
L1D ROI Sum of L1D PQ occupancy: 146313713
L1D PREFETCHES PUSHED FROM L2C: 0
14f7c93e65c8: 1
14f7c93e65d0: 1
14f7c93e6477: 1
14f7c93e657e: 1
14f7c93e658f: 1
56112c14a4aa: 1
56112c14a4af: 1
56112c14a442: 1
56112c14a485: 1
56112c14a5c5: 1
14f7c93c021e: 1
56112c14a1c5: 1
56112c14a48c: 1
56112c14a322: 1
56112c148710: 1
7ffc04bd1d75: 1
14f7c93e65cc: 1
14f7c93e66c3: 2
14f7c93c2d67: 2
14f7c93e65d4: 2
14f7c93c345d: 2
14f7c93c0252: 3
14f7c93c2cf9: 3
14f7c93bf913: 3
14f7c93e65c5: 3
56112c14a2f6: 3
14f7c93c020e: 3
14f7c93c3457: 4
14f7c93c344d: 4
14f7c93c33a4: 4
14f7c93c012d: 5
14f7c93e6650: 5
14f7c93c339a: 5
14f7c93bff2b: 6
56112c14a568: 6
14f7c93bfe6c: 7
14f7c93bf795: 9
14f7c93c338c: 9
14f7c93c024c: 9
14f7c93c2ccc: 10
14f7c93c015a: 11
14f7c93e6646: 11
14f7c93e664b: 11
14f7c93bf62d: 14
56112c14a4d3: 15
14f7c93c21f4: 16
14f7c93c2e41: 16
14f7c93c220e: 16
14f7c93bff19: 16
14f7c93c2207: 16
14f7c93c331c: 16
14f7c93c00ec: 18
14f7c93c2d4d: 19
14f7c93bff46: 20
56112c14a585: 20
14f7c93c2a12: 21
14f7c93bfebb: 22
14f7c93c013f: 22
14f7c93c0135: 23
14f7c93c0106: 23
56112c14a317: 25
14f7c93c2d43: 26
14f7c93bfe97: 26
14f7c93bf867: 29
14f7c93bf896: 29
14f7c93e6641: 34
14f7c93e663e: 35
14f7c93e6672: 36
14f7c93c2cb6: 37
14f7c93c2cde: 37
14f7c93c2cd4: 41
14f7c93c298d: 41
14f7c93bfeb2: 43
14f7c93e674a: 45
14f7c93c29a6: 46
14f7c93c299f: 46
14f7c93c2971: 46
14f7c93c2d7f: 46
56112c14a539: 46
56112c14a327: 46
14f7c93c2a09: 47
56112c14a32f: 47
14f7c93c2c61: 51
14f7c93c2a27: 51
14f7c93c2c95: 51
14f7c93c2c4f: 51
14f7c93c2c45: 51
14f7c93e66cf: 54
14f7c93c2c88: 56
14f7c93e66cb: 56
14f7c93c2c6b: 58
14f7c93e66c7: 62
14f7c93c0174: 63
14f7c93c010a: 66
14f7c93bfef2: 68
14f7c93bfc11: 70
14f7c93bf5a7: 74
14f7c93bff10: 78
14f7c93c0123: 81
14f7c93c00e6: 87
14f7c93bfbf5: 137
14f7c93bf8f4: 151
14f7c93bfc15: 164
14f7c93c00f0: 166
14f7c93bf8e8: 179
14f7c93e66d3: 185
14f7c93bf60d: 188
14f7c93bff73: 216
14f7c93bf65b: 219
14f7c93e66f6: 223
14f7c93e66c4: 225
14f7c93bf5f4: 237
14f7c93bf58f: 238
14f7c93c2d1a: 241
14f7c93c2e55: 243
14f7c93bf574: 245
14f7c93c20e3: 245
14f7c93bf4f8: 245
14f7c93bf323: 246
14f7c93c20cf: 261
14f7c93c2961: 262
14f7c93c2076: 262
14f7c93c20af: 262
14f7c93c20c1: 262
14f7c9d5c3f0: 263
14f7c93c207d: 263
14f7c9d5bb30: 264
56112c1485b0: 264
56112c148580: 264
56112c148720: 264
14f7c93c2978: 265
14f7c93bf581: 278
14f7c93e667f: 340
14f7c93e6682: 993
14f7c93e6686: 1464
56112c14a1eb: 1549
14f7c93e668a: 2850
56112c14a1e3: 5514
56112c14a1b8: 5859
14f7c93e6703: 8707
14f7c93e670a: 11485
56112c14a1e7: 12030
56112c14a1d5: 12397
14f7c93e6706: 14251
14f7c93e670e: 14847
56112c14a2dc: 15938
56112c14a200: 39986
56112c14a2d8: 211855
56112c14a226: 8766553
L1I TOTAL     ACCESS:   25144559  HIT:   25144559  MISS:          0  HIT %:        100  MISS %:          0   MPKI: 0
L1I Test counter:          0
L1I LOAD      ACCESS:   25144559  HIT:   25144559  MISS:          0  HIT %:        100  MISS %:          0   MPKI: 0
L1I PREFETCH  REQUESTED:          0  ISSUED:          0  USEFUL:          0  USELESS:          0
L1I USEFUL LOAD PREFETCHES:          0 PREFETCH ISSUED TO LOWER LEVEL:          0  ACCURACY: -nan
L1I TIMELY PREFETCHES:          0 LATE PREFETCHES: 0 DROPPED PREFETCHES: 0
L1I COMMIT LATE PREFETCHES: 0 MISSED OPPORTUNITY: 0 LATE IN PQ: 0 UNCOVERED: 0
L1I COMMIT LATE MSHR PREFETCHES: 0
L1I MPKI TOTAL: 0 MSHR LATE: 0 PQ LATE: 0 COMMIT LATE: 0 MISSED OPPORTUNITY: 0 UNCOVERED: 0
L1I PREFETCHES SAME FILL-ORIGIN LEVEL: 0 DIFFERENT FILL-ORIGIN LEVEL: 0
L1I AVERAGE MISS LATENCY: -nan cycles
L1I AVERAGE MISS LATENCY LOAD: -nan cycles
L1I AVERAGE MISS LATENCY PREFETCH: -nan cycles
L1I AVERAGE MSHR OCCUPANCY: 0
L1I MSHR FULL: 0
L1I RQ	ACCESS:   38877358	FORWARD:          0	MERGED:   13732797	TO_CACHE:   25144561

BTB TOTAL     ACCESS:   29044147  HIT:   29044001  MISS:        146  HIT %:    99.9995  MISS %: 0.000502683   MPKI: 0.00073
BTB Test counter:          0
BTB BRANCH_DIRECT_JUMP	ACCESS:    9217196  HIT:    9217156  MISS:         40
BTB BRANCH_INDIRECT	ACCESS:          0  HIT:          0  MISS:          0
BTB BRANCH_CONDITIONAL	ACCESS:   19824303  HIT:   19824221  MISS:         82
BTB BRANCH_DIRECT_CALL	ACCESS:       1324  HIT:       1315  MISS:          9
BTB BRANCH_INDIRECT_CALL	ACCESS:          0  HIT:          0  MISS:          0
BTB BRANCH_RETURN	ACCESS:       1324  HIT:       1309  MISS:         15
BTB BRANCH_OTHER ACCESS:          0  HIT:          0  MISS:          0

L2C TOTAL     ACCESS:   21218298  HIT:    4799657  MISS:   16418641  HIT %:    22.6204  MISS %:    77.3796   MPKI: 82.0932
L2C Test counter:          0
L2C LOAD      ACCESS:    8936585  HIT:    1587029  MISS:    7349556  HIT %:    17.7588  MISS %:    82.2412   MPKI: 36.7478
L2C DATA LOAD MPKI: 36.7478
L2C INSTRUCTION LOAD MPKI: 0
L2C RFO       ACCESS:     545651  HIT:     321571  MISS:     224080  HIT %:    58.9335  MISS %:    41.0665   MPKI: 1.1204
L2C PREFETCH  ACCESS:   10186495  HIT:    1391708  MISS:    8794787  HIT %:    13.6623  MISS %:    86.3377   MPKI: 43.9739
L2C DATA PREFETCH MPKI: 43.9739
L2C INSTRUCTION PREFETCH MPKI: 0
L2C WRITEBACK ACCESS:    1478753  HIT:    1475101  MISS:       3652  HIT %:     99.753  MISS %:   0.246965   MPKI: 0.01826
L2C LOAD TRANSLATION ACCESS:      70814  HIT:      24248  MISS:      46566  HIT %:    34.2418  MISS %:    65.7582   MPKI: 0.23283
L2C PREFETCH  REQUESTED:          0  ISSUED:          0  USEFUL:     239390  USELESS:    8556097
L2C USEFUL LOAD PREFETCHES:     239390 PREFETCH ISSUED TO LOWER LEVEL:    8794789  ACCURACY: 2.72195
L2C TIMELY PREFETCHES:     239390 LATE PREFETCHES: 0 DROPPED PREFETCHES: 0
L2C COMMIT LATE PREFETCHES: 0 MISSED OPPORTUNITY: 0 LATE IN PQ: 0 UNCOVERED: 0
L2C COMMIT LATE MSHR PREFETCHES: 0
L2C MPKI TOTAL: 36.7478 MSHR LATE: 0 PQ LATE: 0 COMMIT LATE: 0 MISSED OPPORTUNITY: 0 UNCOVERED: 0
L2C PREFETCHES SAME FILL-ORIGIN LEVEL: 0 DIFFERENT FILL-ORIGIN LEVEL: 0
L2C AVERAGE MISS LATENCY: 110.684 cycles
L2C AVERAGE MISS LATENCY LOAD: 99.643 cycles
L2C AVERAGE MISS LATENCY PREFETCH: 119.191 cycles
L2C AVERAGE MSHR OCCUPANCY: 3.58769
L2C MSHR FULL: 0
L2C RQ	ACCESS:    9553094	FORWARD:          0	MERGED:          0	TO_CACHE:    9553050
L2C WQ	ACCESS:    1478753	FORWARD:         51	MERGED:          0	TO_CACHE:    1478753
L2C PQ	ACCESS:   10186504	FORWARD:          0	MERGED:          0	TO_CACHE:   10186497

L2C Instructions Evicting Data 0
L2C Translations Evicting Data 46442
L2C Data Evicting Data 16322011
L2C Instructions Evicting Instructions 0
L2C Translations Evicting Instructions 0
L2C Data Evicting Instructions 0
L2C Instructions Evicting Translations 0
L2C Translations Evicting Translations 124
L2C Data Evicting Translations 46412
L2C Dense regions hint from L2: 0
56112c148710: 1
14f7c93e6477: 1
14f7c93e65d0: 1
14f7c93e657e: 1
14f7c93e658f: 1
7ffc04bd1d75: 1
14f7c93c2d67: 1
14f7c93c021e: 1
14f7c93e65c8: 1
56112c14a5c5: 1
14f7c93e65cc: 1
56112c14a442: 1
56112c14a1c5: 1
56112c14a539: 1
14f7c93c345d: 2
14f7c93e65d4: 2
14f7c93c2cf9: 3
14f7c93c33a4: 3
14f7c93c2a27: 3
14f7c93bf913: 3
14f7c93e65c5: 3
14f7c93c0252: 3
14f7c93c020e: 3
14f7c93c2c61: 4
14f7c93c3457: 4
14f7c93c2d7f: 4
14f7c93c2c4f: 4
14f7c93c344d: 4
14f7c93c2c45: 4
14f7c93c012d: 4
14f7c93c2c95: 4
56112c14a4d3: 5
14f7c93e6650: 5
14f7c93c339a: 5
14f7c93bff2b: 5
14f7c93bfe6c: 7
14f7c93bf795: 8
14f7c93c338c: 9
14f7c93c015a: 9
14f7c93c024c: 9
14f7c93c2c88: 10
14f7c93e6646: 10
14f7c93e664b: 10
14f7c93c2ccc: 10
14f7c93c2c6b: 13
14f7c93c298d: 13
14f7c93bf62d: 14
56112c14a32f: 15
14f7c93c00ec: 15
14f7c93c331c: 16
14f7c93c220e: 16
14f7c93c21f4: 16
14f7c93bff19: 16
14f7c93c2e41: 16
14f7c93c2207: 16
14f7c93bff46: 19
14f7c93c2d4d: 19
14f7c93c0106: 20
14f7c93bfebb: 20
14f7c93c013f: 21
14f7c93c2a12: 21
14f7c93e6641: 22
14f7c93c0135: 23
14f7c93bfe97: 23
14f7c93bf896: 25
14f7c93bf867: 25
14f7c93c2d43: 25
14f7c93e6672: 30
14f7c93c2cb6: 34
14f7c93e663e: 34
14f7c93c2cde: 36
14f7c93c2cd4: 38
14f7c93bfeb2: 41
56112c14a327: 46
14f7c93e66cf: 54
14f7c93e66cb: 56
14f7c93bf5a7: 61
14f7c93c010a: 61
14f7c93e66c7: 62
14f7c93c0174: 63
14f7c93bfc11: 63
14f7c93bfef2: 66
14f7c93bff10: 76
14f7c93c0123: 81
14f7c93c00e6: 81
14f7c93e66d3: 98
14f7c93bfbf5: 131
14f7c93bf8f4: 142
14f7c93c00f0: 156
14f7c93bfc15: 161
14f7c93bf8e8: 168
14f7c93bf60d: 183
14f7c93e66f6: 187
14f7c93bff73: 188
14f7c93bf65b: 191
14f7c93e667f: 199
14f7c93bf58f: 206
14f7c93c2e55: 206
14f7c93bf323: 208
14f7c93bf574: 210
14f7c93c2076: 210
14f7c93bf4f8: 213
14f7c93c20e3: 213
14f7c9d5c3f0: 216
56112c148720: 219
14f7c93c20af: 219
14f7c93c20c1: 220
14f7c93bf5f4: 220
56112c1485b0: 222
14f7c93c2961: 223
14f7c93c20cf: 223
14f7c9d5bb30: 224
56112c148580: 225
14f7c93e66c4: 225
14f7c93c2978: 225
14f7c93c207d: 229
14f7c93bf581: 234
14f7c93c2d1a: 238
14f7c93e6682: 552
56112c14a1e3: 692
14f7c93e6686: 850
56112c14a2dc: 924
56112c14a1b8: 1299
14f7c93e668a: 1463
56112c14a1eb: 1548
14f7c93e6703: 5253
14f7c93e670a: 6544
14f7c93e670e: 7802
14f7c93e6706: 8318
56112c14a1d5: 10267
56112c14a1e7: 12029
56112c14a2d8: 19205
56112c14a200: 39269
56112c14a226: 7225324
PSCL5 TOTAL     ACCESS:      58741  HIT:      58741  MISS:          0  HIT %:        100  MISS %:          0   MPKI: 0
PSCL5 Test counter:          0
PSCL5 LOAD TRANSLATION ACCESS:      58741  HIT:      58741  MISS:          0  HIT %:        100  MISS %:          0   MPKI: 0
PSCL5 PREFETCH  REQUESTED:          0  ISSUED:          0  USEFUL:          0  USELESS:          0
PSCL5 USEFUL LOAD PREFETCHES:          0 PREFETCH ISSUED TO LOWER LEVEL:          0  ACCURACY: -nan
PSCL5 TIMELY PREFETCHES:          0 LATE PREFETCHES: 0 DROPPED PREFETCHES: 0
PSCL5 COMMIT LATE PREFETCHES: 0 MISSED OPPORTUNITY: 0 LATE IN PQ: 0 UNCOVERED: 0
PSCL5 COMMIT LATE MSHR PREFETCHES: 0
PSCL5 MPKI TOTAL: 0 MSHR LATE: 0 PQ LATE: 0 COMMIT LATE: 0 MISSED OPPORTUNITY: 0 UNCOVERED: 0
PSCL5 PREFETCHES SAME FILL-ORIGIN LEVEL: 0 DIFFERENT FILL-ORIGIN LEVEL: 0

PSCL4 TOTAL     ACCESS:      58741  HIT:      58741  MISS:          0  HIT %:        100  MISS %:          0   MPKI: 0
PSCL4 Test counter:          0
PSCL4 LOAD TRANSLATION ACCESS:      58741  HIT:      58741  MISS:          0  HIT %:        100  MISS %:          0   MPKI: 0
PSCL4 PREFETCH  REQUESTED:          0  ISSUED:          0  USEFUL:          0  USELESS:          0
PSCL4 USEFUL LOAD PREFETCHES:          0 PREFETCH ISSUED TO LOWER LEVEL:          0  ACCURACY: -nan
PSCL4 TIMELY PREFETCHES:          0 LATE PREFETCHES: 0 DROPPED PREFETCHES: 0
PSCL4 COMMIT LATE PREFETCHES: 0 MISSED OPPORTUNITY: 0 LATE IN PQ: 0 UNCOVERED: 0
PSCL4 COMMIT LATE MSHR PREFETCHES: 0
PSCL4 MPKI TOTAL: 0 MSHR LATE: 0 PQ LATE: 0 COMMIT LATE: 0 MISSED OPPORTUNITY: 0 UNCOVERED: 0
PSCL4 PREFETCHES SAME FILL-ORIGIN LEVEL: 0 DIFFERENT FILL-ORIGIN LEVEL: 0

PSCL3 TOTAL     ACCESS:      58741  HIT:      58741  MISS:          0  HIT %:        100  MISS %:          0   MPKI: 0
PSCL3 Test counter:          0
PSCL3 LOAD TRANSLATION ACCESS:      58741  HIT:      58741  MISS:          0  HIT %:        100  MISS %:          0   MPKI: 0
PSCL3 PREFETCH  REQUESTED:          0  ISSUED:          0  USEFUL:          0  USELESS:          0
PSCL3 USEFUL LOAD PREFETCHES:          0 PREFETCH ISSUED TO LOWER LEVEL:          0  ACCURACY: -nan
PSCL3 TIMELY PREFETCHES:          0 LATE PREFETCHES: 0 DROPPED PREFETCHES: 0
PSCL3 COMMIT LATE PREFETCHES: 0 MISSED OPPORTUNITY: 0 LATE IN PQ: 0 UNCOVERED: 0
PSCL3 COMMIT LATE MSHR PREFETCHES: 0
PSCL3 MPKI TOTAL: 0 MSHR LATE: 0 PQ LATE: 0 COMMIT LATE: 0 MISSED OPPORTUNITY: 0 UNCOVERED: 0
PSCL3 PREFETCHES SAME FILL-ORIGIN LEVEL: 0 DIFFERENT FILL-ORIGIN LEVEL: 0

PSCL2 TOTAL     ACCESS:      58741  HIT:      46666  MISS:      12075  HIT %:    79.4437  MISS %:    20.5563   MPKI: 0.060375
PSCL2 Test counter:          0
PSCL2 LOAD TRANSLATION ACCESS:      58741  HIT:      46666  MISS:      12075  HIT %:    79.4437  MISS %:    20.5563   MPKI: 0.060375
PSCL2 PREFETCH  REQUESTED:          0  ISSUED:          0  USEFUL:          0  USELESS:          0
PSCL2 USEFUL LOAD PREFETCHES:          0 PREFETCH ISSUED TO LOWER LEVEL:          0  ACCURACY: -nan
PSCL2 TIMELY PREFETCHES:          0 LATE PREFETCHES: 0 DROPPED PREFETCHES: 0
PSCL2 COMMIT LATE PREFETCHES: 0 MISSED OPPORTUNITY: 0 LATE IN PQ: 0 UNCOVERED: 0
PSCL2 COMMIT LATE MSHR PREFETCHES: 0
PSCL2 MPKI TOTAL: 0 MSHR LATE: 0 PQ LATE: 0 COMMIT LATE: 0 MISSED OPPORTUNITY: 0 UNCOVERED: 0
PSCL2 PREFETCHES SAME FILL-ORIGIN LEVEL: 0 DIFFERENT FILL-ORIGIN LEVEL: 0

LLC TOTAL     ACCESS:   17324115  HIT:    8687826  MISS:    8636289  HIT %:    50.1487  MISS %:    49.8513   MPKI: 43.1814
LLC Test counter:          0
LLC LOAD      ACCESS:    7349556  HIT:    3891550  MISS:    3458006  HIT %:    52.9495  MISS %:    47.0505   MPKI: 17.29
LLC RFO       ACCESS:     224077  HIT:     105951  MISS:     118126  HIT %:    47.2833  MISS %:    52.7167   MPKI: 0.59063
LLC PREFETCH  ACCESS:    8794787  HIT:    3782297  MISS:    5012490  HIT %:    43.0061  MISS %:    56.9939   MPKI: 25.0624
LLC WRITEBACK ACCESS:     909129  HIT:     899401  MISS:       9728  HIT %:      98.93  MISS %:    1.07004   MPKI: 0.04864
LLC LOAD TRANSLATION ACCESS:      46566  HIT:       8627  MISS:      37939  HIT %:    18.5264  MISS %:    81.4736   MPKI: 0.189695
LLC PREFETCH  REQUESTED:          0  ISSUED:          0  USEFUL:     663384  USELESS:    4351297
LLC USEFUL LOAD PREFETCHES:     663384 PREFETCH ISSUED TO LOWER LEVEL:    5012492  ACCURACY: 13.2346
LLC TIMELY PREFETCHES:     663384 LATE PREFETCHES: 0 DROPPED PREFETCHES: 0
LLC COMMIT LATE PREFETCHES: 0 MISSED OPPORTUNITY: 0 LATE IN PQ: 0 UNCOVERED: 0
LLC COMMIT LATE MSHR PREFETCHES: 0
LLC MPKI TOTAL: 17.29 MSHR LATE: 0 PQ LATE: 0 COMMIT LATE: 0 MISSED OPPORTUNITY: 0 UNCOVERED: 0
LLC PREFETCHES SAME FILL-ORIGIN LEVEL: 0 DIFFERENT FILL-ORIGIN LEVEL: 0
LLC AVERAGE MISS LATENCY: 153.245 cycles
LLC AVERAGE MISS LATENCY LOAD: 147.864 cycles
LLC AVERAGE MISS LATENCY PREFETCH: 156.343 cycles
LLC AVERAGE MSHR OCCUPANCY: 2.58827
LLC MSHR FULL: 0
LLC RQ	ACCESS:    7620202	FORWARD:          0	MERGED:          0	TO_CACHE:    7620199
LLC WQ	ACCESS:     909129	FORWARD:          3	MERGED:          0	TO_CACHE:     909129
LLC PQ	ACCESS:    8794789	FORWARD:          0	MERGED:          0	TO_CACHE:    8794789

LLC Dense regions hint to LLC: 0
56112c148710: 1
14f7c93e65cc: 1
14f7c93e658f: 1
14f7c93e65c8: 1
56112c14a5c5: 1
14f7c93c2d67: 1
56112c14a1c5: 1
14f7c93e657e: 1
56112c14a4d3: 1
14f7c93e65d0: 1
14f7c93e6477: 1
56112c14a442: 1
14f7c93c021e: 1
14f7c93e65d4: 1
14f7c93c345d: 1
7ffc04bd1d75: 1
56112c14a32f: 1
14f7c93c2d7f: 2
14f7c93c33a4: 2
14f7c93bf913: 2
14f7c93c0252: 2
14f7c93c012d: 2
14f7c93c2c95: 2
14f7c93c2c45: 2
14f7c93c2c4f: 2
14f7c93c2a27: 2
14f7c93c2c61: 2
14f7c93e65c5: 3
14f7c93c020e: 3
14f7c93c2cf9: 3
14f7c93bff2b: 4
14f7c93c3457: 4
14f7c93c344d: 4
14f7c93bfe6c: 5
14f7c93e6650: 5
14f7c93c339a: 5
14f7c93e6646: 6
14f7c93c2c88: 6
14f7c93bf795: 6
14f7c93c024c: 7
14f7c93e6641: 7
14f7c93c015a: 8
14f7c93e664b: 9
14f7c93c338c: 9
14f7c93c0106: 9
14f7c93c2ccc: 10
14f7c93c00ec: 11
14f7c93c21f4: 13
14f7c93c298d: 13
14f7c93c2c6b: 13
14f7c93bf62d: 13
14f7c93e6672: 13
14f7c93c220e: 13
14f7c93bff19: 14
14f7c93c2e41: 15
14f7c93bfebb: 15
14f7c93c2207: 15
14f7c93bf896: 15
14f7c93c331c: 16
14f7c93bfe97: 17
14f7c93bff46: 17
14f7c93bf867: 17
14f7c93c0135: 17
14f7c93c2d4d: 18
14f7c93c2a12: 18
14f7c93c013f: 18
14f7c93c2d43: 23
14f7c93e66d3: 25
14f7c93c2cb6: 33
14f7c93e663e: 34
14f7c93c2cde: 35
14f7c93bf5a7: 36
14f7c93c2cd4: 37
14f7c93bfeb2: 37
56112c14a327: 44
56112c14a2dc: 46
14f7c93c010a: 46
14f7c93bfc11: 53
14f7c93e66cf: 54
14f7c93e66cb: 55
14f7c93bfef2: 58
14f7c93c0174: 59
14f7c93e66c7: 62
14f7c93c00e6: 63
14f7c93bff10: 68
14f7c93c0123: 76
14f7c9d5c3f0: 93
56112c14a1e3: 93
14f7c93e66f6: 100
14f7c93c00f0: 104
14f7c93bfbf5: 104
56112c148580: 104
14f7c93bf8f4: 107
56112c1485b0: 108
14f7c93bff73: 109
14f7c93c2e55: 111
14f7c93c2076: 113
14f7c9d5bb30: 117
14f7c93c20c1: 119
14f7c93bf4f8: 119
14f7c93bf323: 125
14f7c93c20cf: 125
14f7c93c207d: 126
14f7c93bf65b: 127
14f7c93c20e3: 128
14f7c93bf574: 128
14f7c93c2978: 128
14f7c93bf8e8: 130
56112c14a1b8: 130
14f7c93c2961: 130
14f7c93bf581: 133
14f7c93c20af: 133
14f7c93bf58f: 136
56112c148720: 136
14f7c93bfc15: 138
14f7c93bf60d: 157
14f7c93bf5f4: 166
14f7c93e667f: 199
14f7c93e66c4: 222
14f7c93c2d1a: 231
14f7c93e6682: 552
14f7c93e6686: 850
56112c14a2d8: 1228
14f7c93e668a: 1463
56112c14a1eb: 1548
56112c14a1d5: 5158
14f7c93e6703: 5249
14f7c93e670a: 6526
14f7c93e670e: 7786
14f7c93e6706: 8299
56112c14a1e7: 12025
56112c14a200: 39267
56112c14a226: 3362231

RAW hits: 70101
Loads Generated: 76764930
Loads sent to L1D: 76694826
Stores Generated: 2241349
Stores sent to L1D: 2241352
Major fault: 0 Minor fault: 36864
Allocated PAGES: 36864
Total Load insts: 93554939
Total Non-spec loads: 6478688
Percentage of speculative loads: 93.075
L1D response latency: 97.1988 cycles
Load retirement latency: 175.341 cycles


stream: 
stream:times selected: 16489003
stream:pref_filled: 10055803
stream:pref_useful: 312375
stream:pref_late: 175385
stream:misses: 2352510
stream:misses_by_poll: 0

CS: 
CS:times selected: 3596482
CS:pref_filled: 1497202
CS:pref_useful: 1389227
CS:pref_late: 34886
CS:misses: 230992
CS:misses_by_poll: 1484

CPLX: 
CPLX:times selected: 12821715
CPLX:pref_filled: 434817
CPLX:pref_useful: 21675
CPLX:pref_late: 6768
CPLX:misses: 8412839
CPLX:misses_by_poll: 238

NL_L1: 
NL:times selected: 73487
NL:pref_filled: 68104
NL:pref_useful: 1172
NL:pref_late: 402
NL:misses: 71061
NL:misses_by_poll: 9

total selections: 32980687
total_filled: 9986597
total_useful: 1333902
total_late: 221406
total_polluted: 1731
total_misses_after_warmup: 9357133
conflicts: 85
Degree Incremented Times: 213003
Degree Decremented Times: 638093

L1 IP Table Write Accesses: 43587968
L1 IP Table Read Accesses: 43587883
L1 RST Write Accesses: 13258892
L1 RST Read Accesses: 26517784
L1 CSPT Write Accesses: 13258892
L1 CSPT Read Accesses: 23392946
L1 RR Filter Tag Write Accesses: 11168808
L1 RR Filter Tag Read Accesses: 572653187
L1 IP Table Tag Write Accesses: 43588861
L1 IP Table Tag Read Accesses: 43588861
L1 RST Tag Write Accesses: 0
L1 RST Tag Read Accesses: 118978421
L1 RR Filter Write Accesses: 0
L1 RR Filter Read Accesses: 22559946
test: 4580724

DRAM Statistics
 CHANNEL 0
 RQ ROW_BUFFER_HIT:    3597586  ROW_BUFFER_MISS:    5028816
 DBUS_CONGESTED:       7826
 WQ ROW_BUFFER_HIT:     204589  ROW_BUFFER_MISS:     553847  FULL:          0

 AVG_CONGESTED_CYCLE: 4
 All warmup complete: 2
Channel 0 Bank busy for read cycles: 0
Channel 0 Bank busy for write cycles: 0
Channel 0
Rank 0
0banks busy for read cycles: 54243497
0banks busy for write cycles: 240924
1banks busy for read cycles: 129506070
1banks busy for write cycles: 41556205
2banks busy for read cycles: 92798716
2banks busy for write cycles: 26712992
3banks busy for read cycles: 66652894
3banks busy for write cycles: 15131971
4banks busy for read cycles: 46653891
4banks busy for write cycles: 7720418
5banks busy for read cycles: 26015489
5banks busy for write cycles: 3543268
6banks busy for read cycles: 11132818
6banks busy for write cycles: 1408682
7banks busy for read cycles: 3402338
7banks busy for write cycles: 525580
8banks busy for read cycles: 1506075
8banks busy for write cycles: 312498

CPU 0 Branch Prediction Accuracy: 97.7638% MPKI: 3.32603 Average ROB Occupancy at Mispredict: 165.868
Branch types
NOT_BRANCH: 170252779 85.1264%
BRANCH_DIRECT_JUMP: 9217196 4.6086%
BRANCH_INDIRECT: 0 0%
BRANCH_CONDITIONAL: 20527371 10.2637%
BRANCH_DIRECT_CALL: 1324 0.000662%
BRANCH_INDIRECT_CALL: 0 0%
BRANCH_RETURN: 1324 0.000662%
BRANCH_OTHER: 0 0%

DRAM PAGES: 1048576
Allocated PAGES: 36864
