
*** ChampSim Multicore Out-of-Order Simulator ***

Warmup Instructions: 50000000
Simulation Instructions: 200000000
Number of CPUs: 1
LLC sets: 2048
LLC ways: 16
Secure Berti: OFF
Berti: OFF
Berti Fill: OFF
On commit prefetching: OFF
L2 LLC Bypass speculative loads: OFF
Off-chip DRAM Size: 4096 MB Channels: 1 Width: 64-bit Data Rate: 6400 MT/s
CPU 0 runs /home/sumon/secure_berti/Berti_Baseline/../../traces/gap/sssp-10.trace.gz
.gz
BTB has LRU replacement policy
ITLB has LRU replacement policy
DTLB has LRU replacement policy
STLB has LRU replacement policy
L1I has LRU replacement policy
IP Table Entries: 1024
CSPT Entries: 128
RR_ENTRIES: 32
RST_ENTRIES: 8
L1D has LRU replacement policy
L2C has LRU replacement policy
LLC has LRU replacement policy
Heartbeat CPU 0 instructions: 10000000 cycles: 3081940 heartbeat IPC: 3.24471 cumulative IPC: 3.24471 (Simulation time: 0 hr 0 min 26 sec) 
Heartbeat CPU 0 instructions: 20000003 cycles: 6135063 heartbeat IPC: 3.27534 cumulative IPC: 3.25995 (Simulation time: 0 hr 0 min 55 sec) 
Heartbeat CPU 0 instructions: 30000001 cycles: 9208603 heartbeat IPC: 3.25358 cumulative IPC: 3.25782 (Simulation time: 0 hr 1 min 38 sec) 
Heartbeat CPU 0 instructions: 40000002 cycles: 12294673 heartbeat IPC: 3.24037 cumulative IPC: 3.25344 (Simulation time: 0 hr 2 min 18 sec) 
Heartbeat CPU 0 instructions: 50000001 cycles: 15386479 heartbeat IPC: 3.23436 cumulative IPC: 3.24961 (Simulation time: 0 hr 3 min 6 sec) 

Warmup complete CPU 0 instructions: 50000001 cycles: 15386479 (Simulation time: 0 hr 3 min 6 sec) 

Heartbeat CPU 0 instructions: 60000000 cycles: 45524719 heartbeat IPC: 0.331804 cumulative IPC: 0.331804 (Simulation time: 0 hr 3 min 59 sec) 
Heartbeat CPU 0 instructions: 70000000 cycles: 74607315 heartbeat IPC: 0.343848 cumulative IPC: 0.337719 (Simulation time: 0 hr 4 min 53 sec) 
Heartbeat CPU 0 instructions: 80000001 cycles: 103205234 heartbeat IPC: 0.349676 cumulative IPC: 0.341613 (Simulation time: 0 hr 5 min 47 sec) 
Heartbeat CPU 0 instructions: 90000000 cycles: 131309221 heartbeat IPC: 0.355821 cumulative IPC: 0.345057 (Simulation time: 0 hr 6 min 41 sec) 
Heartbeat CPU 0 instructions: 100000000 cycles: 158826161 heartbeat IPC: 0.363412 cumulative IPC: 0.348579 (Simulation time: 0 hr 7 min 37 sec) 
Heartbeat CPU 0 instructions: 110000000 cycles: 185853469 heartbeat IPC: 0.369996 cumulative IPC: 0.351974 (Simulation time: 0 hr 8 min 32 sec) 
Heartbeat CPU 0 instructions: 120000003 cycles: 212629877 heartbeat IPC: 0.373463 cumulative IPC: 0.354891 (Simulation time: 0 hr 9 min 27 sec) 
Heartbeat CPU 0 instructions: 130000002 cycles: 239080151 heartbeat IPC: 0.378068 cumulative IPC: 0.357632 (Simulation time: 0 hr 10 min 24 sec) 
Heartbeat CPU 0 instructions: 140000002 cycles: 265326185 heartbeat IPC: 0.38101 cumulative IPC: 0.360087 (Simulation time: 0 hr 11 min 20 sec) 
Heartbeat CPU 0 instructions: 150000000 cycles: 291371779 heartbeat IPC: 0.383942 cumulative IPC: 0.362338 (Simulation time: 0 hr 12 min 16 sec) 
Heartbeat CPU 0 instructions: 160000001 cycles: 317348566 heartbeat IPC: 0.384959 cumulative IPC: 0.364284 (Simulation time: 0 hr 13 min 1 sec) 
Heartbeat CPU 0 instructions: 170000002 cycles: 343177091 heartbeat IPC: 0.387169 cumulative IPC: 0.366087 (Simulation time: 0 hr 13 min 34 sec) 
Heartbeat CPU 0 instructions: 180000001 cycles: 369013072 heartbeat IPC: 0.387057 cumulative IPC: 0.367619 (Simulation time: 0 hr 14 min 7 sec) 
Heartbeat CPU 0 instructions: 190000002 cycles: 394248942 heartbeat IPC: 0.396261 cumulative IPC: 0.369527 (Simulation time: 0 hr 14 min 40 sec) 
Heartbeat CPU 0 instructions: 200000003 cycles: 419499682 heartbeat IPC: 0.396028 cumulative IPC: 0.371183 (Simulation time: 0 hr 15 min 14 sec) 
Heartbeat CPU 0 instructions: 210000003 cycles: 444955453 heartbeat IPC: 0.392838 cumulative IPC: 0.372466 (Simulation time: 0 hr 15 min 47 sec) 
Heartbeat CPU 0 instructions: 220000000 cycles: 470142292 heartbeat IPC: 0.397033 cumulative IPC: 0.373827 (Simulation time: 0 hr 16 min 21 sec) 
Heartbeat CPU 0 instructions: 230000002 cycles: 495161439 heartbeat IPC: 0.399694 cumulative IPC: 0.375176 (Simulation time: 0 hr 16 min 54 sec) 
Heartbeat CPU 0 instructions: 240000001 cycles: 520176117 heartbeat IPC: 0.399765 cumulative IPC: 0.376394 (Simulation time: 0 hr 17 min 27 sec) 
Heartbeat CPU 0 instructions: 250000000 cycles: 545253988 heartbeat IPC: 0.398758 cumulative IPC: 0.377453 (Simulation time: 0 hr 17 min 59 sec) 
Finished CPU 0 instructions: 200000003 cycles: 529867510 cumulative IPC: 0.377453 (Simulation time: 0 hr 17 min 59 sec) 

ChampSim completed all CPUs

Region of Interest Statistics

CPU 0 cumulative IPC: 0.377453 instructions: 200000003 cycles: 529867510
ITLB TOTAL     ACCESS:   24459379  HIT:   24459379  MISS:          0  HIT %:        100  MISS %:          0   MPKI: 0
ITLB Test counter:          0
ITLB LOAD TRANSLATION ACCESS:   24459379  HIT:   24459379  MISS:          0  HIT %:        100  MISS %:          0   MPKI: 0
ITLB PREFETCH  REQUESTED:          0  ISSUED:          0  USEFUL:          0  USELESS:          0
ITLB USEFUL LOAD PREFETCHES:          0 PREFETCH ISSUED TO LOWER LEVEL:          0  ACCURACY: -nan
ITLB TIMELY PREFETCHES:          0 LATE PREFETCHES: 0 DROPPED PREFETCHES: 0
ITLB COMMIT LATE PREFETCHES: 0 MISSED OPPORTUNITY: 0 LATE IN PQ: 0 UNCOVERED: 0
ITLB COMMIT LATE MSHR PREFETCHES: 0
ITLB MPKI TOTAL: 0 MSHR LATE: 0 PQ LATE: 0 COMMIT LATE: 0 MISSED OPPORTUNITY: 0 UNCOVERED: 0
ITLB PREFETCHES SAME FILL-ORIGIN LEVEL: 0 DIFFERENT FILL-ORIGIN LEVEL: 0
ITLB AVERAGE MISS LATENCY: -nan cycles
ITLB AVERAGE MISS LATENCY LOAD: -nan cycles
ITLB AVERAGE MISS LATENCY PREFETCH: -nan cycles
ITLB AVERAGE MSHR OCCUPANCY: 0
ITLB MSHR FULL: 0
ITLB RQ	ACCESS:   25123466	FORWARD:          0	MERGED:     664087	TO_CACHE:   24459379

DTLB TOTAL     ACCESS:   43477210  HIT:   38802231  MISS:    4674979  HIT %:    89.2473  MISS %:    10.7527   MPKI: 23.3749
DTLB Test counter:          0
DTLB LOAD TRANSLATION ACCESS:   43477210  HIT:   38802231  MISS:    4674979  HIT %:    89.2473  MISS %:    10.7527   MPKI: 23.3749
DTLB PREFETCH  REQUESTED:          0  ISSUED:          0  USEFUL:          0  USELESS:          0
DTLB USEFUL LOAD PREFETCHES:          0 PREFETCH ISSUED TO LOWER LEVEL:          0  ACCURACY: -nan
DTLB TIMELY PREFETCHES:          0 LATE PREFETCHES: 0 DROPPED PREFETCHES: 0
DTLB COMMIT LATE PREFETCHES: 0 MISSED OPPORTUNITY: 0 LATE IN PQ: 0 UNCOVERED: 0
DTLB COMMIT LATE MSHR PREFETCHES: 0
DTLB MPKI TOTAL: 0 MSHR LATE: 0 PQ LATE: 0 COMMIT LATE: 0 MISSED OPPORTUNITY: 0 UNCOVERED: 0
DTLB PREFETCHES SAME FILL-ORIGIN LEVEL: 0 DIFFERENT FILL-ORIGIN LEVEL: 0
DTLB AVERAGE MISS LATENCY: 11.8776 cycles
DTLB AVERAGE MISS LATENCY LOAD: -nan cycles
DTLB AVERAGE MISS LATENCY PREFETCH: -nan cycles
DTLB AVERAGE MSHR OCCUPANCY: 0.172795
DTLB MSHR FULL: 2.06283e-07
DTLB RQ	ACCESS:   45759607	FORWARD:          0	MERGED:    2130282	TO_CACHE:   43629325

STLB TOTAL     ACCESS:   13563364  HIT:   13502624  MISS:      60740  HIT %:    99.5522  MISS %:   0.447824   MPKI: 0.3037
STLB Test counter:          0
STLB LOAD TRANSLATION ACCESS:    4674979  HIT:    4614239  MISS:      60740  HIT %:    98.7007  MISS %:    1.29926   MPKI: 0.3037
STLB TRANSLATION FROM L1D PREFETCHER ACCESS:    8888385  HIT:    8888385  MISS:          0  HIT %:        100  MISS %:          0   MPKI: 0
STLB PREFETCH  REQUESTED:          0  ISSUED:          0  USEFUL:          0  USELESS:          0
STLB USEFUL LOAD PREFETCHES:          0 PREFETCH ISSUED TO LOWER LEVEL:          0  ACCURACY: -nan
STLB TIMELY PREFETCHES:          0 LATE PREFETCHES: 0 DROPPED PREFETCHES: 0
STLB COMMIT LATE PREFETCHES: 0 MISSED OPPORTUNITY: 0 LATE IN PQ: 0 UNCOVERED: 0
STLB COMMIT LATE MSHR PREFETCHES: 0
STLB MPKI TOTAL: 0 MSHR LATE: 0 PQ LATE: 0 COMMIT LATE: 0 MISSED OPPORTUNITY: 0 UNCOVERED: 0
STLB PREFETCHES SAME FILL-ORIGIN LEVEL: 0 DIFFERENT FILL-ORIGIN LEVEL: 0
STLB AVERAGE MISS LATENCY: 204.146 cycles
STLB AVERAGE MISS LATENCY LOAD: -nan cycles
STLB AVERAGE MISS LATENCY PREFETCH: -nan cycles
STLB AVERAGE MSHR OCCUPANCY: 0.00743038
STLB MSHR FULL: 0
STLB RQ	ACCESS:   15868263	FORWARD:          0	MERGED:    2304899	TO_CACHE:   13563364

STLB Hit, L1D data hit: 0
STLB Hit, L2C data hit: 0
STLB Hit, LLC data hit: 0
STLB Hit, LLC data miss: 0
STLB STLB hints to L2: 0
L1D TOTAL     ACCESS:   56085883  HIT:   36323307  MISS:   19762576  HIT %:    64.7637  MISS %:    35.2363   MPKI: 98.8129
L1D Test counter:          0
L1D LOAD      ACCESS:   43331409  HIT:   34152810  MISS:    9390716  HIT %:    78.8177  MISS %:    21.1823   MPKI: 45.893
L1D RFO       ACCESS:    2033087  HIT:    1490153  MISS:     542934  HIT %:    73.2951  MISS %:    26.7049   MPKI: 2.71467
L1D PREFETCH  ACCESS:   10721387  HIT:     680344  MISS:   10041043  HIT %:    6.34567  MISS %:    93.6543   MPKI: 50.2052
L1D PREFETCH  REQUESTED:   22386573  ISSUED:   22386569  USEFUL:    1322819  USELESS:    8718202
L1D USEFUL LOAD PREFETCHES:    1322819 PREFETCH ISSUED TO LOWER LEVEL:   10226686  ACCURACY: 12.935
L1D TIMELY PREFETCHES:    1322819 LATE PREFETCHES: 185640 DROPPED PREFETCHES: 0
L1D COMMIT LATE PREFETCHES: 0 MISSED OPPORTUNITY: 0 LATE IN PQ: 182515 UNCOVERED: 0
L1D COMMIT LATE MSHR PREFETCHES: 0
L1D MPKI TOTAL: 46.9536 MSHR LATE: 0.9282 PQ LATE: 0.912575 COMMIT LATE: 0 MISSED OPPORTUNITY: 0 UNCOVERED: 0
L1D PREFETCHES SAME FILL-ORIGIN LEVEL: 10226686 DIFFERENT FILL-ORIGIN LEVEL: 0
L1D AVERAGE MISS LATENCY: 105.669 cycles
L1D AVERAGE MISS LATENCY LOAD: 94.9682 cycles
L1D AVERAGE MISS LATENCY PREFETCH: 117.514 cycles
L1D AVERAGE MSHR OCCUPANCY: 3.50333
L1D MSHR FULL: 0.0212747
L1D RQ	ACCESS:   76733208	FORWARD:          0	MERGED:   33186553	TO_CACHE:   43543525
L1D WQ	ACCESS:    2216772	FORWARD:       3131	MERGED:        690	TO_CACHE:    2216082
L1D PQ	ACCESS:   11193285	FORWARD:          0	MERGED:          0	TO_CACHE:   11193284

L1D UNIQUE REGIONS ACCESSED: 0
L1D REGIONS CONFLICTS: 0
L1D Cross Page Prefetch Requests: 0
L1D Same Page Prefetch Requests: 13847904
L1D ROI Sum of L1D PQ occupancy: 146689693
L1D PREFETCHES PUSHED FROM L2C: 0
56546d1c24af: 1
56546d1c0710: 1
56546d1c24aa: 1
56546d1c248c: 1
56546d1c21c5: 1
14aace2a7646: 1
14aace2a758f: 1
14aace2a75d0: 1
56546d1c25c5: 1
7ffd9c71bd75: 1
56546d1c2485: 1
56546d1c2442: 1
14aace2a76c3: 2
14aace283d3b: 2
14aace2a75d4: 2
14aace2a75c5: 2
14aace2a7477: 2
14aace281252: 2
14aace283d67: 2
14aace284457: 3
56546d1c22f6: 3
14aace28120e: 3
14aace280913: 4
56546d1c2568: 5
56546d1c2322: 5
14aace2843a4: 5
14aace28445d: 5
14aace28124c: 6
14aace28121e: 6
14aace28115a: 7
14aace28444d: 7
14aace280f2b: 7
14aace28113f: 8
14aace2a764b: 8
14aace2a7650: 8
14aace28439a: 9
14aace2810ec: 11
14aace280795: 12
14aace283ccc: 12
14aace280e6c: 12
56546d1c24d3: 13
14aace28062d: 13
14aace283cf9: 13
56546d1c2585: 13
14aace28438c: 13
14aace28112d: 14
14aace280e97: 15
14aace283e41: 15
14aace28320e: 15
14aace2831f4: 16
14aace280f19: 16
14aace283207: 16
14aace281106: 19
14aace280f46: 19
14aace28431c: 19
14aace283a12: 20
14aace280c11: 23
14aace2a7641: 24
14aace283d4d: 24
14aace281135: 26
14aace283d43: 26
14aace2a7686: 27
14aace2a763e: 27
14aace280ebb: 28
14aace2a7672: 29
56546d1c2317: 29
14aace280896: 33
14aace280867: 33
14aace28398d: 37
14aace280eb2: 44
14aace283d7f: 46
14aace2a774a: 46
14aace2839a6: 47
14aace283a09: 47
14aace283971: 47
14aace28399f: 47
56546d1c2539: 47
56546d1c2327: 47
14aace283cde: 48
56546d1c232f: 49
14aace281174: 50
14aace28110a: 51
14aace283cb6: 53
14aace283c61: 53
14aace283a27: 53
14aace283c95: 53
14aace283c4f: 53
14aace283cd4: 55
14aace283c45: 56
14aace2a76cb: 57
14aace2810e6: 57
14aace2a76cf: 59
14aace283c88: 59
14aace2a76c7: 63
14aace283c6b: 65
14aace2805a7: 67
14aace280c15: 75
14aace280ef2: 77
14aace281123: 77
14aace280f10: 88
14aace280bf5: 101
14aace2810f0: 109
14aace2808f4: 139
14aace28060d: 163
14aace2808e8: 182
14aace2a76d3: 192
14aace28065b: 207
14aace280f73: 211
14aace2a76f6: 227
14aace2a76c4: 232
14aace28058f: 236
14aace283d1a: 237
14aace2805f4: 243
14aace2830e3: 244
14aace280574: 244
14aace280323: 244
14aace2804f8: 244
14aace283e55: 245
14aace283076: 257
14aace2830af: 258
14aace283961: 258
14aace2830c1: 258
14aace2830cf: 258
56546d1c05b0: 259
14aacec1cb30: 259
56546d1c0720: 259
14aace283978: 259
14aace28307d: 260
56546d1c0580: 260
14aacec1d3f0: 260
14aace280581: 277
14aace2a7682: 494
14aace2a767f: 1134
56546d1c21eb: 1607
14aace2a768a: 2846
56546d1c21e3: 5212
56546d1c21b8: 6097
14aace2a770e: 11056
14aace2a7703: 12700
56546d1c21e7: 12714
56546d1c21d5: 13039
14aace2a7706: 13218
14aace2a770a: 13459
56546d1c22dc: 17107
56546d1c2200: 40842
56546d1c22d8: 213593
56546d1c2226: 8803876
L1I TOTAL     ACCESS:   25123466  HIT:   25123466  MISS:          0  HIT %:        100  MISS %:          0   MPKI: 0
L1I Test counter:          0
L1I LOAD      ACCESS:   25123466  HIT:   25123466  MISS:          0  HIT %:        100  MISS %:          0   MPKI: 0
L1I PREFETCH  REQUESTED:          0  ISSUED:          0  USEFUL:          0  USELESS:          0
L1I USEFUL LOAD PREFETCHES:          0 PREFETCH ISSUED TO LOWER LEVEL:          0  ACCURACY: -nan
L1I TIMELY PREFETCHES:          0 LATE PREFETCHES: 0 DROPPED PREFETCHES: 0
L1I COMMIT LATE PREFETCHES: 0 MISSED OPPORTUNITY: 0 LATE IN PQ: 0 UNCOVERED: 0
L1I COMMIT LATE MSHR PREFETCHES: 0
L1I MPKI TOTAL: 0 MSHR LATE: 0 PQ LATE: 0 COMMIT LATE: 0 MISSED OPPORTUNITY: 0 UNCOVERED: 0
L1I PREFETCHES SAME FILL-ORIGIN LEVEL: 0 DIFFERENT FILL-ORIGIN LEVEL: 0
L1I AVERAGE MISS LATENCY: -nan cycles
L1I AVERAGE MISS LATENCY LOAD: -nan cycles
L1I AVERAGE MISS LATENCY PREFETCH: -nan cycles
L1I AVERAGE MSHR OCCUPANCY: 0
L1I MSHR FULL: 0
L1I RQ	ACCESS:   38896471	FORWARD:          0	MERGED:   13773005	TO_CACHE:   25123466

BTB TOTAL     ACCESS:   29056031  HIT:   29055886  MISS:        145  HIT %:    99.9995  MISS %: 0.000499036   MPKI: 0.000725
BTB Test counter:          0
BTB BRANCH_DIRECT_JUMP	ACCESS:    9225403  HIT:    9225362  MISS:         41
BTB BRANCH_INDIRECT	ACCESS:          0  HIT:          0  MISS:          0
BTB BRANCH_CONDITIONAL	ACCESS:   19828000  HIT:   19827919  MISS:         81
BTB BRANCH_DIRECT_CALL	ACCESS:       1314  HIT:       1305  MISS:          9
BTB BRANCH_INDIRECT_CALL	ACCESS:          0  HIT:          0  MISS:          0
BTB BRANCH_RETURN	ACCESS:       1314  HIT:       1300  MISS:         14
BTB BRANCH_OTHER ACCESS:          0  HIT:          0  MISS:          0

L2C TOTAL     ACCESS:   21305145  HIT:    4904129  MISS:   16401016  HIT %:    23.0185  MISS %:    76.9815   MPKI: 82.0051
L2C Test counter:          0
L2C LOAD      ACCESS:    8992948  HIT:    1643660  MISS:    7349289  HIT %:    18.2772  MISS %:    81.7228   MPKI: 36.7464
L2C DATA LOAD MPKI: 36.7464
L2C INSTRUCTION LOAD MPKI: 0
L2C RFO       ACCESS:     542902  HIT:     319309  MISS:     223593  HIT %:    58.8152  MISS %:    41.1848   MPKI: 1.11796
L2C PREFETCH  ACCESS:   10226675  HIT:    1449552  MISS:    8777123  HIT %:    14.1742  MISS %:    85.8258   MPKI: 43.8856
L2C DATA PREFETCH MPKI: 43.8856
L2C INSTRUCTION PREFETCH MPKI: 0
L2C WRITEBACK ACCESS:    1469494  HIT:    1466498  MISS:       2996  HIT %:    99.7961  MISS %:    0.20388   MPKI: 0.01498
L2C LOAD TRANSLATION ACCESS:      73126  HIT:      25110  MISS:      48016  HIT %:     34.338  MISS %:     65.662   MPKI: 0.24008
L2C PREFETCH  REQUESTED:          0  ISSUED:          0  USEFUL:     249238  USELESS:    8528051
L2C USEFUL LOAD PREFETCHES:     249238 PREFETCH ISSUED TO LOWER LEVEL:    8777125  ACCURACY: 2.83963
L2C TIMELY PREFETCHES:     249238 LATE PREFETCHES: 0 DROPPED PREFETCHES: 0
L2C COMMIT LATE PREFETCHES: 0 MISSED OPPORTUNITY: 0 LATE IN PQ: 0 UNCOVERED: 0
L2C COMMIT LATE MSHR PREFETCHES: 0
L2C MPKI TOTAL: 36.7464 MSHR LATE: 0 PQ LATE: 0 COMMIT LATE: 0 MISSED OPPORTUNITY: 0 UNCOVERED: 0
L2C PREFETCHES SAME FILL-ORIGIN LEVEL: 0 DIFFERENT FILL-ORIGIN LEVEL: 0
L2C AVERAGE MISS LATENCY: 110.934 cycles
L2C AVERAGE MISS LATENCY LOAD: 99.9469 cycles
L2C AVERAGE MISS LATENCY PREFETCH: 119.416 cycles
L2C AVERAGE MSHR OCCUPANCY: 3.57814
L2C MSHR FULL: 0
L2C RQ	ACCESS:    9609020	FORWARD:          0	MERGED:          0	TO_CACHE:    9608977
L2C WQ	ACCESS:    1469494	FORWARD:         51	MERGED:          0	TO_CACHE:    1469494
L2C PQ	ACCESS:   10226686	FORWARD:          0	MERGED:          0	TO_CACHE:   10226678

L2C Instructions Evicting Data 0
L2C Translations Evicting Data 47852
L2C Data Evicting Data 16302177
L2C Instructions Evicting Instructions 0
L2C Translations Evicting Instructions 0
L2C Data Evicting Instructions 0
L2C Instructions Evicting Translations 0
L2C Translations Evicting Translations 164
L2C Data Evicting Translations 47827
L2C Dense regions hint from L2: 0
56546d1c2442: 1
7ffd9c71bd75: 1
56546d1c25c5: 1
14aace2a75d0: 1
56546d1c0710: 1
56546d1c21c5: 1
14aace2a758f: 1
14aace2a7646: 1
14aace2a75c5: 2
14aace280913: 2
14aace2a7477: 2
14aace283d67: 2
14aace283d3b: 2
14aace2a75d4: 2
14aace281252: 2
14aace28120e: 3
14aace284457: 3
14aace283c45: 4
14aace283c4f: 4
14aace283c61: 4
14aace2843a4: 4
14aace283d7f: 5
14aace283c95: 5
14aace28445d: 5
14aace283a27: 5
14aace28121e: 5
14aace28124c: 6
56546d1c24d3: 6
14aace280f2b: 7
14aace28115a: 7
14aace28444d: 7
14aace28439a: 8
14aace2a764b: 8
14aace2a7650: 8
14aace28113f: 8
14aace280e6c: 9
14aace283c88: 9
14aace2a7641: 10
14aace2810ec: 10
14aace280e97: 11
14aace28398d: 11
14aace283ccc: 12
14aace283cf9: 12
14aace280795: 12
14aace28438c: 12
14aace2a7686: 12
14aace28112d: 13
14aace28062d: 13
14aace283e41: 15
14aace28320e: 15
14aace2831f4: 16
14aace280f19: 16
14aace283207: 16
56546d1c232f: 16
14aace280f46: 18
14aace281106: 19
14aace28431c: 19
14aace2a7672: 20
14aace283a12: 20
14aace283c6b: 21
14aace280c11: 21
14aace283d4d: 24
14aace283d43: 25
14aace281135: 25
14aace280867: 26
14aace280896: 27
14aace2a763e: 27
14aace280ebb: 28
14aace283cde: 44
14aace280eb2: 44
56546d1c2327: 47
14aace28110a: 47
14aace281174: 48
14aace283cd4: 49
14aace283cb6: 51
14aace2810e6: 55
14aace2a76cb: 57
14aace2805a7: 58
14aace2a76cf: 59
14aace2a76c7: 63
14aace280c15: 73
14aace280ef2: 73
14aace281123: 75
14aace280f10: 85
14aace280bf5: 96
14aace2810f0: 104
14aace2a76d3: 105
14aace2808f4: 133
14aace28060d: 157
14aace2808e8: 161
14aace28065b: 187
14aace280f73: 191
14aace2a76f6: 204
14aace28058f: 204
14aace2830e3: 208
14aace283e55: 210
14aace2830c1: 212
14aace2830cf: 213
14aace2804f8: 214
14aace280574: 215
14aacec1d3f0: 215
14aace280323: 215
56546d1c0720: 218
14aace283076: 220
14aace2830af: 220
14aace283978: 220
14aacec1cb30: 220
14aace28307d: 221
14aace283961: 222
56546d1c05b0: 222
14aace2805f4: 223
56546d1c0580: 227
14aace2a76c4: 232
14aace280581: 234
14aace283d1a: 235
14aace2a7682: 255
14aace2a767f: 659
56546d1c21e3: 753
56546d1c22dc: 776
56546d1c21b8: 1248
14aace2a768a: 1556
56546d1c21eb: 1607
14aace2a770e: 5829
14aace2a770a: 7422
14aace2a7703: 7617
14aace2a7706: 7785
56546d1c21d5: 10855
56546d1c21e7: 12712
56546d1c22d8: 19527
56546d1c2200: 40099
56546d1c2226: 7222808
PSCL5 TOTAL     ACCESS:      60740  HIT:      60740  MISS:          0  HIT %:        100  MISS %:          0   MPKI: 0
PSCL5 Test counter:          0
PSCL5 LOAD TRANSLATION ACCESS:      60740  HIT:      60740  MISS:          0  HIT %:        100  MISS %:          0   MPKI: 0
PSCL5 PREFETCH  REQUESTED:          0  ISSUED:          0  USEFUL:          0  USELESS:          0
PSCL5 USEFUL LOAD PREFETCHES:          0 PREFETCH ISSUED TO LOWER LEVEL:          0  ACCURACY: -nan
PSCL5 TIMELY PREFETCHES:          0 LATE PREFETCHES: 0 DROPPED PREFETCHES: 0
PSCL5 COMMIT LATE PREFETCHES: 0 MISSED OPPORTUNITY: 0 LATE IN PQ: 0 UNCOVERED: 0
PSCL5 COMMIT LATE MSHR PREFETCHES: 0
PSCL5 MPKI TOTAL: 0 MSHR LATE: 0 PQ LATE: 0 COMMIT LATE: 0 MISSED OPPORTUNITY: 0 UNCOVERED: 0
PSCL5 PREFETCHES SAME FILL-ORIGIN LEVEL: 0 DIFFERENT FILL-ORIGIN LEVEL: 0

PSCL4 TOTAL     ACCESS:      60740  HIT:      60740  MISS:          0  HIT %:        100  MISS %:          0   MPKI: 0
PSCL4 Test counter:          0
PSCL4 LOAD TRANSLATION ACCESS:      60740  HIT:      60740  MISS:          0  HIT %:        100  MISS %:          0   MPKI: 0
PSCL4 PREFETCH  REQUESTED:          0  ISSUED:          0  USEFUL:          0  USELESS:          0
PSCL4 USEFUL LOAD PREFETCHES:          0 PREFETCH ISSUED TO LOWER LEVEL:          0  ACCURACY: -nan
PSCL4 TIMELY PREFETCHES:          0 LATE PREFETCHES: 0 DROPPED PREFETCHES: 0
PSCL4 COMMIT LATE PREFETCHES: 0 MISSED OPPORTUNITY: 0 LATE IN PQ: 0 UNCOVERED: 0
PSCL4 COMMIT LATE MSHR PREFETCHES: 0
PSCL4 MPKI TOTAL: 0 MSHR LATE: 0 PQ LATE: 0 COMMIT LATE: 0 MISSED OPPORTUNITY: 0 UNCOVERED: 0
PSCL4 PREFETCHES SAME FILL-ORIGIN LEVEL: 0 DIFFERENT FILL-ORIGIN LEVEL: 0

PSCL3 TOTAL     ACCESS:      60740  HIT:      60740  MISS:          0  HIT %:        100  MISS %:          0   MPKI: 0
PSCL3 Test counter:          0
PSCL3 LOAD TRANSLATION ACCESS:      60740  HIT:      60740  MISS:          0  HIT %:        100  MISS %:          0   MPKI: 0
PSCL3 PREFETCH  REQUESTED:          0  ISSUED:          0  USEFUL:          0  USELESS:          0
PSCL3 USEFUL LOAD PREFETCHES:          0 PREFETCH ISSUED TO LOWER LEVEL:          0  ACCURACY: -nan
PSCL3 TIMELY PREFETCHES:          0 LATE PREFETCHES: 0 DROPPED PREFETCHES: 0
PSCL3 COMMIT LATE PREFETCHES: 0 MISSED OPPORTUNITY: 0 LATE IN PQ: 0 UNCOVERED: 0
PSCL3 COMMIT LATE MSHR PREFETCHES: 0
PSCL3 MPKI TOTAL: 0 MSHR LATE: 0 PQ LATE: 0 COMMIT LATE: 0 MISSED OPPORTUNITY: 0 UNCOVERED: 0
PSCL3 PREFETCHES SAME FILL-ORIGIN LEVEL: 0 DIFFERENT FILL-ORIGIN LEVEL: 0

PSCL2 TOTAL     ACCESS:      60740  HIT:      48350  MISS:      12390  HIT %:    79.6016  MISS %:    20.3984   MPKI: 0.06195
PSCL2 Test counter:          0
PSCL2 LOAD TRANSLATION ACCESS:      60740  HIT:      48350  MISS:      12390  HIT %:    79.6016  MISS %:    20.3984   MPKI: 0.06195
PSCL2 PREFETCH  REQUESTED:          0  ISSUED:          0  USEFUL:          0  USELESS:          0
PSCL2 USEFUL LOAD PREFETCHES:          0 PREFETCH ISSUED TO LOWER LEVEL:          0  ACCURACY: -nan
PSCL2 TIMELY PREFETCHES:          0 LATE PREFETCHES: 0 DROPPED PREFETCHES: 0
PSCL2 COMMIT LATE PREFETCHES: 0 MISSED OPPORTUNITY: 0 LATE IN PQ: 0 UNCOVERED: 0
PSCL2 COMMIT LATE MSHR PREFETCHES: 0
PSCL2 MPKI TOTAL: 0 MSHR LATE: 0 PQ LATE: 0 COMMIT LATE: 0 MISSED OPPORTUNITY: 0 UNCOVERED: 0
PSCL2 PREFETCHES SAME FILL-ORIGIN LEVEL: 0 DIFFERENT FILL-ORIGIN LEVEL: 0

LLC TOTAL     ACCESS:   17298430  HIT:    8714533  MISS:    8583897  HIT %:    50.3776  MISS %:    49.6224   MPKI: 42.9195
LLC Test counter:          0
LLC LOAD      ACCESS:    7349288  HIT:    3908107  MISS:    3441181  HIT %:    53.1767  MISS %:    46.8233   MPKI: 17.2059
LLC RFO       ACCESS:     223590  HIT:     106696  MISS:     116894  HIT %:    47.7195  MISS %:    52.2805   MPKI: 0.58447
LLC PREFETCH  ACCESS:    8777123  HIT:    3799779  MISS:    4977344  HIT %:    43.2919  MISS %:    56.7081   MPKI: 24.8867
LLC WRITEBACK ACCESS:     900413  HIT:     891038  MISS:       9375  HIT %:    98.9588  MISS %:    1.04119   MPKI: 0.046875
LLC LOAD TRANSLATION ACCESS:      48016  HIT:       8913  MISS:      39103  HIT %:    18.5626  MISS %:    81.4374   MPKI: 0.195515
LLC PREFETCH  REQUESTED:          0  ISSUED:          0  USEFUL:     663307  USELESS:    4314410
LLC USEFUL LOAD PREFETCHES:     663307 PREFETCH ISSUED TO LOWER LEVEL:    4977346  ACCURACY: 13.3265
LLC TIMELY PREFETCHES:     663307 LATE PREFETCHES: 0 DROPPED PREFETCHES: 0
LLC COMMIT LATE PREFETCHES: 0 MISSED OPPORTUNITY: 0 LATE IN PQ: 0 UNCOVERED: 0
LLC COMMIT LATE MSHR PREFETCHES: 0
LLC MPKI TOTAL: 17.2059 MSHR LATE: 0 PQ LATE: 0 COMMIT LATE: 0 MISSED OPPORTUNITY: 0 UNCOVERED: 0
LLC PREFETCHES SAME FILL-ORIGIN LEVEL: 0 DIFFERENT FILL-ORIGIN LEVEL: 0
LLC AVERAGE MISS LATENCY: 154.492 cycles
LLC AVERAGE MISS LATENCY LOAD: 149.23 cycles
LLC AVERAGE MISS LATENCY PREFETCH: 157.529 cycles
LLC AVERAGE MSHR OCCUPANCY: 2.58092
LLC MSHR FULL: 0
LLC RQ	ACCESS:    7620898	FORWARD:          0	MERGED:          0	TO_CACHE:    7620895
LLC WQ	ACCESS:     900413	FORWARD:          3	MERGED:          0	TO_CACHE:     900413
LLC PQ	ACCESS:    8777125	FORWARD:          0	MERGED:          0	TO_CACHE:    8777125

LLC Dense regions hint to LLC: 0
56546d1c2442: 1
14aace283d67: 1
14aace283d7f: 1
56546d1c0710: 1
56546d1c21c5: 1
14aace2a7646: 1
14aace2a758f: 1
14aace2a75d0: 1
7ffd9c71bd75: 1
14aace2a75d4: 1
56546d1c25c5: 1
14aace281252: 1
14aace283c61: 2
14aace2a7477: 2
14aace283a27: 2
14aace2a75c5: 2
14aace283d3b: 2
14aace280913: 2
14aace283c45: 2
14aace283c95: 2
14aace284457: 3
14aace283c88: 3
14aace28120e: 3
14aace28445d: 3
14aace2a7641: 3
14aace2843a4: 3
14aace283c4f: 3
14aace28115a: 4
56546d1c232f: 5
14aace28121e: 5
14aace28124c: 6
14aace28444d: 6
14aace280f2b: 7
14aace2a7650: 7
14aace280e6c: 7
14aace2810ec: 8
14aace28439a: 8
14aace2a764b: 8
14aace28113f: 8
14aace28438c: 9
14aace283ccc: 10
14aace280e97: 11
14aace28398d: 11
14aace280795: 12
14aace2a7686: 12
14aace283cf9: 12
14aace28112d: 13
14aace28062d: 13
14aace28320e: 14
14aace280867: 14
14aace283e41: 14
14aace280f19: 15
14aace2831f4: 15
14aace280f46: 15
14aace280896: 15
14aace2a7672: 15
14aace283207: 16
14aace281106: 16
14aace28431c: 19
14aace280c11: 19
14aace283d43: 20
14aace281135: 20
14aace283a12: 20
14aace283c6b: 21
14aace283d4d: 21
14aace2a76d3: 27
14aace280ebb: 27
14aace2a763e: 27
14aace2805a7: 33
14aace280eb2: 35
14aace28110a: 37
14aace283cde: 38
56546d1c2327: 45
14aace283cd4: 45
14aace283cb6: 46
14aace281174: 47
14aace2810e6: 47
14aace2a76cb: 57
14aace2a76cf: 58
14aace2a76c7: 62
14aace280c15: 66
14aace280ef2: 68
14aace281123: 74
14aace280f10: 78
14aace280bf5: 82
14aace2810f0: 86
56546d1c22dc: 93
14aace280f73: 103
56546d1c0720: 106
14aace283978: 107
14aace2808f4: 108
14aace2830c1: 108
14aacec1d3f0: 109
56546d1c05b0: 111
14aace2830af: 111
14aace28065b: 111
14aace28307d: 111
56546d1c0580: 115
14aace283076: 116
14aace2808e8: 119
14aace2830e3: 119
14aace2830cf: 120
14aace2a76f6: 120
14aace283961: 121
14aace28058f: 122
14aace280581: 123
56546d1c21b8: 125
14aace283e55: 128
14aacec1cb30: 129
14aace280323: 129
14aace2804f8: 129
14aace280574: 138
14aace28060d: 139
56546d1c21e3: 147
14aace2805f4: 156
14aace2a76c4: 227
14aace283d1a: 229
14aace2a7682: 255
14aace2a767f: 659
56546d1c22d8: 1276
14aace2a768a: 1554
56546d1c21eb: 1607
56546d1c21d5: 5442
14aace2a770e: 5822
14aace2a770a: 7407
14aace2a7703: 7609
14aace2a7706: 7757
56546d1c21e7: 12708
56546d1c2200: 40098
56546d1c2226: 3343453

RAW hits: 72504
Loads Generated: 76805712
Loads sent to L1D: 76733208
Stores Generated: 2216772
Stores sent to L1D: 2216772
Major fault: 0 Minor fault: 37080
Allocated PAGES: 37080
Total Load insts: 93558186
Total Non-spec loads: 6417927
Percentage of speculative loads: 93.1402
L1D response latency: 96.9286 cycles
Load retirement latency: 175.667 cycles


stream: 
stream:times selected: 16493871
stream:pref_filled: 10091959
stream:pref_useful: 311844
stream:pref_late: 164425
stream:misses: 2353630
stream:misses_by_poll: 0

CS: 
CS:times selected: 3601579
CS:pref_filled: 1505191
CS:pref_useful: 1391129
CS:pref_late: 34346
CS:misses: 232461
CS:misses_by_poll: 1640

CPLX: 
CPLX:times selected: 12810917
CPLX:pref_filled: 436904
CPLX:pref_useful: 21039
CPLX:pref_late: 6521
CPLX:misses: 8414106
CPLX:misses_by_poll: 162

NL_L1: 
NL:times selected: 84421
NL:pref_filled: 62152
NL:pref_useful: 2281
NL:pref_late: 375
NL:misses: 64944
NL:misses_by_poll: 6

total selections: 32990788
total_filled: 10041043
total_useful: 1322819
total_late: 209470
total_polluted: 1808
total_misses_after_warmup: 9390716
conflicts: 84
Degree Incremented Times: 217654
Degree Decremented Times: 613824

L1 IP Table Write Accesses: 43542601
L1 IP Table Read Accesses: 43542517
L1 RST Write Accesses: 13270421
L1 RST Read Accesses: 26540842
L1 CSPT Write Accesses: 13270421
L1 CSPT Read Accesses: 23408106
L1 RR Filter Tag Write Accesses: 11193289
L1 RR Filter Tag Read Accesses: 571959681
L1 IP Table Tag Write Accesses: 43543526
L1 IP Table Tag Read Accesses: 43543526
L1 RST Tag Write Accesses: 0
L1 RST Tag Read Accesses: 119952831
L1 RR Filter Write Accesses: 0
L1 RR Filter Read Accesses: 22530738
test: 5470038

DRAM Statistics
 CHANNEL 0
 RQ ROW_BUFFER_HIT:    3477962  ROW_BUFFER_MISS:    5096412
 DBUS_CONGESTED:       7488
 WQ ROW_BUFFER_HIT:     203444  ROW_BUFFER_MISS:     545421  FULL:          0

 AVG_CONGESTED_CYCLE: 4
 All warmup complete: 2
Channel 0 Bank busy for read cycles: 0
Channel 0 Bank busy for write cycles: 0
Channel 0
Rank 0
0banks busy for read cycles: 54414546
0banks busy for write cycles: 239881
1banks busy for read cycles: 129347988
1banks busy for write cycles: 41497525
2banks busy for read cycles: 93319212
2banks busy for write cycles: 26508567
3banks busy for read cycles: 67093698
3banks busy for write cycles: 15018689
4banks busy for read cycles: 47005573
4banks busy for write cycles: 7607385
5banks busy for read cycles: 26129424
5banks busy for write cycles: 3409264
6banks busy for read cycles: 11188173
6banks busy for write cycles: 1401212
7banks busy for read cycles: 3370790
7banks busy for write cycles: 525327
8banks busy for read cycles: 1489642
8banks busy for write cycles: 300615

CPU 0 Branch Prediction Accuracy: 97.7909% MPKI: 3.2859 Average ROB Occupancy at Mispredict: 167.825
Branch types
NOT_BRANCH: 170250761 85.1254%
BRANCH_DIRECT_JUMP: 9225403 4.6127%
BRANCH_INDIRECT: 0 0%
BRANCH_CONDITIONAL: 20520883 10.2604%
BRANCH_DIRECT_CALL: 1314 0.000657%
BRANCH_INDIRECT_CALL: 0 0%
BRANCH_RETURN: 1314 0.000657%
BRANCH_OTHER: 0 0%

DRAM PAGES: 1048576
Allocated PAGES: 37080
