
*** ChampSim Multicore Out-of-Order Simulator ***

Warmup Instructions: 50000000
Simulation Instructions: 200000000
Number of CPUs: 1
LLC sets: 2048
LLC ways: 16
L0D sets: 16
L0D ways: 2
ROB size: 352
LQ size: 128
SQ size: 72
Secure Berti: OFF
Berti: OFF
Berti Fill: OFF
On commit prefetching: ON
Hit-based filter: ON
Time-guarding: ON
Free-slotting: ON
Leap-frogging: ON
Train prefetcher on L0D bypass: OFF
No translation penalty for prefetchers: OFF
Prefetch to L0D only: OFF
Prefetch to L1D only: OFF
Clean evictions: ON
Commit loads: ON
Commit write: ON
Fill commit loads to L2C, LLC: ON
DRAM IO FREQUENCY: 6400
ROB SIZE: 352
Off-chip DRAM Size: 4096 MB Channels: 1 Width: 64-bit Data Rate: 6400 MT/s
CPU 0 runs /home/sumon/secure_berti/GhostMinion/../../traces/gap/bc-0.trace.gz
.gz
BTB has LRU replacement policy
ITLB has LRU replacement policy
DTLB has LRU replacement policy
STLB has LRU replacement policy
L1I has LRU replacement policy
L0D has LRU replacement policy
L1D has LRU replacement policy
Bingo PHT WAYS: 16 and PHT_SIZE: 16384
L2C has LRU replacement policy
LLC has LRU replacement policy
Heartbeat CPU 0 instructions: 10000002 cycles: 3789591 heartbeat IPC: 2.63881 cumulative IPC: 2.63881 (Simulation time: 0 hr 1 min 12 sec) 
Heartbeat CPU 0 instructions: 20000000 cycles: 7205424 heartbeat IPC: 2.92754 cumulative IPC: 2.77569 (Simulation time: 0 hr 2 min 0 sec) 
Heartbeat CPU 0 instructions: 30000003 cycles: 10656433 heartbeat IPC: 2.8977 cumulative IPC: 2.8152 (Simulation time: 0 hr 2 min 48 sec) 
Heartbeat CPU 0 instructions: 40000000 cycles: 14088039 heartbeat IPC: 2.91409 cumulative IPC: 2.83929 (Simulation time: 0 hr 3 min 36 sec) 
Heartbeat CPU 0 instructions: 50000002 cycles: 17524187 heartbeat IPC: 2.91024 cumulative IPC: 2.8532 (Simulation time: 0 hr 4 min 24 sec) 

Warmup complete CPU 0 instructions: 50000002 cycles: 17524187 (Simulation time: 0 hr 4 min 24 sec) 

Heartbeat CPU 0 instructions: 60000003 cycles: 86858303 heartbeat IPC: 0.144229 cumulative IPC: 0.144229 (Simulation time: 0 hr 5 min 44 sec) 
Heartbeat CPU 0 instructions: 70000001 cycles: 156568178 heartbeat IPC: 0.143452 cumulative IPC: 0.143839 (Simulation time: 0 hr 6 min 56 sec) 
Heartbeat CPU 0 instructions: 80000000 cycles: 226147137 heartbeat IPC: 0.143722 cumulative IPC: 0.1438 (Simulation time: 0 hr 8 min 1 sec) 
Heartbeat CPU 0 instructions: 90000002 cycles: 296731109 heartbeat IPC: 0.141675 cumulative IPC: 0.143263 (Simulation time: 0 hr 9 min 3 sec) 
Heartbeat CPU 0 instructions: 100000001 cycles: 365770550 heartbeat IPC: 0.144845 cumulative IPC: 0.143577 (Simulation time: 0 hr 10 min 6 sec) 
Heartbeat CPU 0 instructions: 110000000 cycles: 435277006 heartbeat IPC: 0.143872 cumulative IPC: 0.143626 (Simulation time: 0 hr 11 min 9 sec) 
Heartbeat CPU 0 instructions: 120000001 cycles: 503627113 heartbeat IPC: 0.146306 cumulative IPC: 0.144002 (Simulation time: 0 hr 12 min 12 sec) 
Heartbeat CPU 0 instructions: 130000002 cycles: 572292259 heartbeat IPC: 0.145634 cumulative IPC: 0.144204 (Simulation time: 0 hr 13 min 15 sec) 
Heartbeat CPU 0 instructions: 140000000 cycles: 641197817 heartbeat IPC: 0.145126 cumulative IPC: 0.144306 (Simulation time: 0 hr 14 min 17 sec) 
Heartbeat CPU 0 instructions: 150000000 cycles: 709751287 heartbeat IPC: 0.145872 cumulative IPC: 0.144461 (Simulation time: 0 hr 15 min 18 sec) 
Heartbeat CPU 0 instructions: 160000003 cycles: 776956714 heartbeat IPC: 0.148798 cumulative IPC: 0.144845 (Simulation time: 0 hr 16 min 20 sec) 
Heartbeat CPU 0 instructions: 170000001 cycles: 844734664 heartbeat IPC: 0.147541 cumulative IPC: 0.145066 (Simulation time: 0 hr 17 min 22 sec) 
Heartbeat CPU 0 instructions: 180000002 cycles: 912119363 heartbeat IPC: 0.148402 cumulative IPC: 0.145317 (Simulation time: 0 hr 18 min 24 sec) 
Heartbeat CPU 0 instructions: 190000002 cycles: 979340021 heartbeat IPC: 0.148764 cumulative IPC: 0.145558 (Simulation time: 0 hr 19 min 26 sec) 
Heartbeat CPU 0 instructions: 200000000 cycles: 1047188585 heartbeat IPC: 0.147387 cumulative IPC: 0.145679 (Simulation time: 0 hr 20 min 27 sec) 
Heartbeat CPU 0 instructions: 210000001 cycles: 1114777306 heartbeat IPC: 0.147954 cumulative IPC: 0.145819 (Simulation time: 0 hr 21 min 29 sec) 
Heartbeat CPU 0 instructions: 220000000 cycles: 1182531613 heartbeat IPC: 0.147592 cumulative IPC: 0.145922 (Simulation time: 0 hr 22 min 30 sec) 
Heartbeat CPU 0 instructions: 230000000 cycles: 1250009734 heartbeat IPC: 0.148196 cumulative IPC: 0.146046 (Simulation time: 0 hr 23 min 32 sec) 
Heartbeat CPU 0 instructions: 240000003 cycles: 1317717901 heartbeat IPC: 0.147693 cumulative IPC: 0.146132 (Simulation time: 0 hr 24 min 33 sec) 
Heartbeat CPU 0 instructions: 250000000 cycles: 1385313856 heartbeat IPC: 0.147938 cumulative IPC: 0.146221 (Simulation time: 0 hr 25 min 34 sec) 
Finished CPU 0 instructions: 200000002 cycles: 1367789670 cumulative IPC: 0.146221 (Simulation time: 0 hr 25 min 34 sec) 
 Instruction ID: 250000014

ChampSim completed all CPUs

Region of Interest Statistics

CPU 0 cumulative IPC: 0.146221 instructions: 200000002 cycles: 1367789670
ITLB SPEC fills:          0  NON-SPEC fills:          0
ITLB Test counter :          0
ITLB Leapfrog:          0
ITLB MSHR merge:          0
ITLB TOTAL     ACCESS:   40679557  HIT:   40679557  MISS:          0  HIT %:        100  MISS %:          0   MPKI: 0
ITLB LOAD TRANSLATION NON_SPEC    ACCESS:   40679557  HIT:   40679557  MISS:          0  HIT %:        100  MISS %:          0   MPKI: 0
ITLB PREFETCH  REQUESTED:          0  ISSUED:          0  USEFUL:          0  USELESS:          0
ITLB USEFUL LOAD PREFETCHES:          0 PREFETCH ISSUED TO LOWER LEVEL:          0  ACCURACY: -nan
ITLB TIMELY PREFETCHES:          0 LATE PREFETCHES: 0 DROPPED PREFETCHES: 0
ITLB COMMIT LATE PREFETCHES: 0 MISSED OPPORTUNITY: 0 LATE IN PQ: 0 UNCOVERED: 0
ITLB COMMIT LATE MSHR PREFETCHES: 0
ITLB MPKI TOTAL: 0 MSHR LATE: 0 PQ LATE: 0 COMMIT LATE: 0 MISSED OPPORTUNITY: 0 UNCOVERED: 0
ITLB PREFETCHES SAME FILL-ORIGIN LEVEL: 0 DIFFERENT FILL-ORIGIN LEVEL: 0
ITLB AVERAGE MISS LATENCY: -nan cycles
ITLB AVERAGE MISS LATENCY LOAD: -nan cycles
ITLB AVERAGE MISS LATENCY PREFETCH: -nan cycles
ITLB AVERAGE MSHR OCCUPANCY: 0
ITLB MSHR FULL: 0
ITLB RQ	ACCESS:   40943582	FORWARD:          0	MERGED:     264026	TO_CACHE:   40679556

DTLB SPEC fills:          0  NON-SPEC fills:          0
DTLB Test counter :          0
DTLB Leapfrog:          0
DTLB MSHR merge:          0
DTLB TOTAL     ACCESS:   55020891  HIT:   45601469  MISS:    9419422  HIT %:    82.8803  MISS %:    17.1197   MPKI: 47.0971
DTLB LOAD TRANSLATION NON_SPEC    ACCESS:   55020891  HIT:   45601469  MISS:    9419422  HIT %:    82.8803  MISS %:    17.1197   MPKI: 47.0971
DTLB PREFETCH  REQUESTED:          0  ISSUED:          0  USEFUL:          0  USELESS:          0
DTLB USEFUL LOAD PREFETCHES:          0 PREFETCH ISSUED TO LOWER LEVEL:          0  ACCURACY: -nan
DTLB TIMELY PREFETCHES:          0 LATE PREFETCHES: 0 DROPPED PREFETCHES: 0
DTLB COMMIT LATE PREFETCHES: 0 MISSED OPPORTUNITY: 0 LATE IN PQ: 0 UNCOVERED: 0
DTLB COMMIT LATE MSHR PREFETCHES: 0
DTLB MPKI TOTAL: 0 MSHR LATE: 0 PQ LATE: 0 COMMIT LATE: 0 MISSED OPPORTUNITY: 0 UNCOVERED: 0
DTLB PREFETCHES SAME FILL-ORIGIN LEVEL: 0 DIFFERENT FILL-ORIGIN LEVEL: 0
DTLB AVERAGE MISS LATENCY: 36.0281 cycles
DTLB AVERAGE MISS LATENCY LOAD: -nan cycles
DTLB AVERAGE MISS LATENCY PREFETCH: -nan cycles
DTLB AVERAGE MSHR OCCUPANCY: 0.361135
DTLB MSHR FULL: 0.00144798
DTLB RQ	ACCESS:   60545069	FORWARD:          0	MERGED:    4791752	TO_CACHE:   55753317

STLB SPEC fills:          0  NON-SPEC fills:          0
STLB Test counter :          0
STLB Leapfrog:          0
STLB MSHR merge:          0
STLB TOTAL     ACCESS:    9419420  HIT:    6409349  MISS:    3010071  HIT %:     68.044  MISS %:     31.956   MPKI: 15.0504
STLB LOAD TRANSLATION NON_SPEC    ACCESS:    9419420  HIT:    6409349  MISS:    3010071  HIT %:     68.044  MISS %:     31.956   MPKI: 15.0504
STLB PREFETCH  REQUESTED:          0  ISSUED:          0  USEFUL:          0  USELESS:          0
STLB USEFUL LOAD PREFETCHES:          0 PREFETCH ISSUED TO LOWER LEVEL:          0  ACCURACY: -nan
STLB TIMELY PREFETCHES:          0 LATE PREFETCHES: 0 DROPPED PREFETCHES: 0
STLB COMMIT LATE PREFETCHES: 0 MISSED OPPORTUNITY: 0 LATE IN PQ: 0 UNCOVERED: 0
STLB COMMIT LATE MSHR PREFETCHES: 0
STLB MPKI TOTAL: 0 MSHR LATE: 0 PQ LATE: 0 COMMIT LATE: 0 MISSED OPPORTUNITY: 0 UNCOVERED: 0
STLB PREFETCHES SAME FILL-ORIGIN LEVEL: 0 DIFFERENT FILL-ORIGIN LEVEL: 0
STLB AVERAGE MISS LATENCY: 84.4114 cycles
STLB AVERAGE MISS LATENCY LOAD: -nan cycles
STLB AVERAGE MISS LATENCY PREFETCH: -nan cycles
STLB AVERAGE MSHR OCCUPANCY: 0.32857
STLB MSHR FULL: 0
STLB RQ	ACCESS:    9419420	FORWARD:          0	MERGED:          0	TO_CACHE:    9419420

STLB Hit, L1D data hit: 0
STLB Hit, L2C data hit: 0
STLB Hit, LLC data hit: 0
STLB Hit, LLC data miss: 0
STLB STLB hints to L2: 0
L0D SPEC fills:   32576945  NON-SPEC fills:          0
L0D TimeGuard Request with older TS:     287977 Restricted eviction:     308127 read:          1
L0D Test counter :          0
L0D Leapfrog:          0
L0D MSHR merge:     459256
L0D TOTAL     ACCESS:   50964760  HIT:   12289901  MISS:   38674859  HIT %:    24.1145  MISS %:    75.8855   MPKI: 193.374
L0D LOAD      TOTAL       ACCESS:   50964760  HIT:   12289901  MISS:   38674859  HIT %:    24.1145  MISS %:    75.8855   MPKI: 193.374
L0D LOAD      NON_SPEC    ACCESS:    5792023  HIT:       2149  MISS:    5789874  HIT %:  0.0371028  MISS %:    99.9629   MPKI: 28.9494
L0D LOAD      SPEC        ACCESS:   45172737  HIT:   12287752  MISS:   32884985  HIT %:    27.2017  MISS %:    72.7983   MPKI: 164.425
L0D PREFETCH  REQUESTED:          0  ISSUED:          0  USEFUL:          0  USELESS:          0
L0D USEFUL LOAD PREFETCHES:          0 PREFETCH ISSUED TO LOWER LEVEL:          0  ACCURACY: -nan
L0D TIMELY PREFETCHES:          0 LATE PREFETCHES: 0 DROPPED PREFETCHES: 0
L0D COMMIT LATE PREFETCHES: 0 MISSED OPPORTUNITY: 0 LATE IN PQ: 0 UNCOVERED: 0
L0D COMMIT LATE MSHR PREFETCHES: 0
L0D MPKI TOTAL: 195.671 MSHR LATE: 0 PQ LATE: 0 COMMIT LATE: 0 MISSED OPPORTUNITY: 0 UNCOVERED: 0
L0D PREFETCHES SAME FILL-ORIGIN LEVEL: 0 DIFFERENT FILL-ORIGIN LEVEL: 0
L0D AVERAGE MISS LATENCY: 59.6694 cycles
L0D AVERAGE MISS LATENCY LOAD: 59.6694 cycles
L0D AVERAGE MISS LATENCY PREFETCH: -nan cycles
L0D AVERAGE MSHR OCCUPANCY: 1.26309
L0D MSHR FULL: 0.0202774
L0D RQ	ACCESS:   52223453	FORWARD:          0	MERGED:     799445	TO_CACHE:   51424008
L0D WQ	ACCESS:    9121061	FORWARD:          0	MERGED:          0	TO_CACHE:    9121061

L1D SPEC fills:          0  NON-SPEC fills:     663901
L1D Test counter :          0
L1D Leapfrog:          0
L1D MSHR merge:       4625
L1D TOTAL     ACCESS:   61099136  HIT:   26481981  MISS:   34617155  HIT %:    43.3426  MISS %:    56.6574   MPKI: 173.086
L1D LOAD      TOTAL       ACCESS:   38670233  HIT:   21031454  MISS:   17638779  HIT %:    54.3867  MISS %:    45.6133   MPKI: 88.1939
L1D LOAD      NON_SPEC    ACCESS:    5788857  HIT:    5124956  MISS:     663901  HIT %:    88.5314  MISS %:    11.4686   MPKI: 3.3195
L1D LOAD      SPEC        ACCESS:   32881376  HIT:   15906498  MISS:   16974878  HIT %:    48.3754  MISS %:    51.6246   MPKI: 84.8744
L1D RFO       NON_SPEC    ACCESS:    4903454  HIT:    4874085  MISS:      29369  HIT %:    99.4011  MISS %:   0.598945   MPKI: 0.146845
L1D COMMIT LOAD NON_SPEC    ACCESS:     808297  HIT:     562007  MISS:     246290  HIT %:    69.5298  MISS %:    30.4702   MPKI: 1.23145
L1D COMMIT WRITE NON_SPEC    ACCESS:   16717152  HIT:      14435  MISS:   16702717  HIT %:  0.0863484  MISS %:    99.9137   MPKI: 83.5136
L1D PREFETCH  REQUESTED:          0  ISSUED:          0  USEFUL:          0  USELESS:          0
L1D USEFUL LOAD PREFETCHES:          0 PREFETCH ISSUED TO LOWER LEVEL:          0  ACCURACY: -nan
L1D TIMELY PREFETCHES:          0 LATE PREFETCHES: 0 DROPPED PREFETCHES: 0
L1D COMMIT LATE PREFETCHES: 0 MISSED OPPORTUNITY: 0 LATE IN PQ: 0 UNCOVERED: 0
L1D COMMIT LATE MSHR PREFETCHES: 0
L1D MPKI TOTAL: 88.217 MSHR LATE: 0 PQ LATE: 0 COMMIT LATE: 0 MISSED OPPORTUNITY: 0 UNCOVERED: 0
L1D PREFETCHES SAME FILL-ORIGIN LEVEL: 0 DIFFERENT FILL-ORIGIN LEVEL: 0
L1D AVERAGE MISS LATENCY: 61.7644 cycles
L1D AVERAGE MISS LATENCY LOAD: 119.738 cycles
L1D AVERAGE MISS LATENCY PREFETCH: -nan cycles
L1D AVERAGE MSHR OCCUPANCY: 1.06715
L1D MSHR FULL: 0.0150853
L1D RQ	ACCESS:   39621302	FORWARD:          0	MERGED:     132176	TO_CACHE:   39488998
L1D WQ	ACCESS:   25838215	FORWARD:        128	MERGED:    4160371	TO_CACHE:   21677844

L1D UNIQUE REGIONS ACCESSED: 0
L1D REGIONS CONFLICTS: 0
L1D Cross Page Prefetch Requests: 0
L1D Same Page Prefetch Requests: 0
L1D ROI Sum of L1D PQ occupancy: 0
L1D PREFETCHES PUSHED FROM L2C: 0
L1I SPEC fills:          0  NON-SPEC fills:          0
L1I Test counter :          0
L1I Leapfrog:          0
L1I MSHR merge:          0
L1I TOTAL     ACCESS:   40943583  HIT:   40943583  MISS:          0  HIT %:        100  MISS %:          0   MPKI: 0
L1I LOAD      TOTAL       ACCESS:   40943583  HIT:   40943583  MISS:          0  HIT %:        100  MISS %:          0   MPKI: 0
L1I LOAD      NON_SPEC    ACCESS:   40943583  HIT:   40943583  MISS:          0  HIT %:        100  MISS %:          0   MPKI: 0
L1I PREFETCH  REQUESTED:          0  ISSUED:          0  USEFUL:          0  USELESS:          0
L1I USEFUL LOAD PREFETCHES:          0 PREFETCH ISSUED TO LOWER LEVEL:          0  ACCURACY: -nan
L1I TIMELY PREFETCHES:          0 LATE PREFETCHES: 0 DROPPED PREFETCHES: 0
L1I COMMIT LATE PREFETCHES: 0 MISSED OPPORTUNITY: 0 LATE IN PQ: 0 UNCOVERED: 0
L1I COMMIT LATE MSHR PREFETCHES: 0
L1I MPKI TOTAL: 0 MSHR LATE: 0 PQ LATE: 0 COMMIT LATE: 0 MISSED OPPORTUNITY: 0 UNCOVERED: 0
L1I PREFETCHES SAME FILL-ORIGIN LEVEL: 0 DIFFERENT FILL-ORIGIN LEVEL: 0
L1I AVERAGE MISS LATENCY: -nan cycles
L1I AVERAGE MISS LATENCY LOAD: -nan cycles
L1I AVERAGE MISS LATENCY PREFETCH: -nan cycles
L1I AVERAGE MSHR OCCUPANCY: 0
L1I MSHR FULL: 0
L1I RQ	ACCESS:   52456375	FORWARD:          0	MERGED:   11512793	TO_CACHE:   40943582

BTB SPEC fills:          0  NON-SPEC fills:          0
BTB Test counter :          0
BTB Leapfrog:          0
BTB MSHR merge:          0
BTB TOTAL     ACCESS:   38946633  HIT:   38946619  MISS:         14  HIT %:        100  MISS %: 3.59466e-05   MPKI: 7e-05
BTB BRANCH_DIRECT_JUMP	ACCESS:     251798  HIT:     251794  MISS:          4
BTB BRANCH_INDIRECT	ACCESS:          0  HIT:          0  MISS:          0
BTB BRANCH_CONDITIONAL	ACCESS:   38694807  HIT:   38694799  MISS:          8
BTB BRANCH_DIRECT_CALL	ACCESS:         14  HIT:         13  MISS:          1
BTB BRANCH_INDIRECT_CALL	ACCESS:          0  HIT:          0  MISS:          0
BTB BRANCH_RETURN	ACCESS:         14  HIT:         13  MISS:          1
BTB BRANCH_OTHER ACCESS:          0  HIT:          0  MISS:          0

L2C SPEC fills:          0  NON-SPEC fills:     550154
L2C Test counter :          0
L2C Leapfrog:          0
L2C MSHR merge:     119874
L2C TOTAL     ACCESS:   59035474  HIT:   19561991  MISS:   39473483  HIT %:     33.136  MISS %:     66.864   MPKI: 197.367
L2C LOAD      TOTAL       ACCESS:   17638657  HIT:    3328733  MISS:   14309924  HIT %:    18.8718  MISS %:    81.1282   MPKI: 71.5496
L2C LOAD      NON_SPEC    ACCESS:     663901  HIT:     113747  MISS:     550154  HIT %:    17.1331  MISS %:    82.8669   MPKI: 2.75077
L2C LOAD      SPEC        ACCESS:   16974756  HIT:    3214986  MISS:   13759770  HIT %:    18.9398  MISS %:    81.0602   MPKI: 68.7988
L2C RFO       NON_SPEC    ACCESS:      29358  HIT:        744  MISS:      28614  HIT %:    2.53423  MISS %:    97.4658   MPKI: 0.14307
L2C PREFETCH  NON_SPEC    ACCESS:   12161149  HIT:     917201  MISS:   11243948  HIT %:    7.54206  MISS %:    92.4579   MPKI: 56.2197
L2C WRITEBACK NON_SPEC    ACCESS:     266379  HIT:     264845  MISS:       1534  HIT %:    99.4241  MISS %:   0.575871   MPKI: 0.00767
L2C CLEAN_EVICTION NON_SPEC    ACCESS:   13643297  HIT:     166149  MISS:   13477148  HIT %:    1.21781  MISS %:    98.7822   MPKI: 67.3857
L2C COMMIT LOAD NON_SPEC    ACCESS:     246290  HIT:     100177  MISS:     146113  HIT %:    40.6744  MISS %:    59.3256   MPKI: 0.730565
L2C LOAD TRANSLATION NON_SPEC    ACCESS:   15050344  HIT:   14784142  MISS:     266202  HIT %:    98.2313  MISS %:    1.76874   MPKI: 1.33101
L2C PREFETCH  REQUESTED:   12349623  ISSUED:   12349623  USEFUL:    1245802  USELESS:    9998358
L2C USEFUL LOAD PREFETCHES:    1245802 PREFETCH ISSUED TO LOWER LEVEL:   11366778  ACCURACY: 10.96
L2C TIMELY PREFETCHES:    1245802 LATE PREFETCHES: 122827 DROPPED PREFETCHES: 0
L2C COMMIT LATE PREFETCHES: 0 MISSED OPPORTUNITY: 0 LATE IN PQ: 0 UNCOVERED: 0
L2C COMMIT LATE MSHR PREFETCHES: 0
L2C MPKI TOTAL: 71.5496 MSHR LATE: 0.614135 PQ LATE: 0 COMMIT LATE: 0 MISSED OPPORTUNITY: 0 UNCOVERED: 0
L2C PREFETCHES SAME FILL-ORIGIN LEVEL: 11366778 DIFFERENT FILL-ORIGIN LEVEL: 0
L2C AVERAGE MISS LATENCY: 112.941 cycles
L2C AVERAGE MISS LATENCY LOAD: 133.745 cycles
L2C AVERAGE MISS LATENCY PREFETCH: 222.233 cycles
L2C AVERAGE MSHR OCCUPANCY: 3.06087
L2C MSHR FULL: 0.00634206
L2C RQ	ACCESS:   32964781	FORWARD:          0	MERGED:          0	TO_CACHE:   32964648
L2C WQ	ACCESS:   13909679	FORWARD:        168	MERGED:          0	TO_CACHE:   13909679
L2C PQ	ACCESS:   12349623	FORWARD:          0	MERGED:          6	TO_CACHE:   12349582

L2C Instructions Evicting Data 0
L2C Translations Evicting Data 265946
L2C Data Evicting Data 11826827
L2C Instructions Evicting Instructions 0
L2C Translations Evicting Instructions 0
L2C Data Evicting Instructions 0
L2C Instructions Evicting Translations 0
L2C Translations Evicting Translations 256
L2C Data Evicting Translations 142002
L2C Dense regions hint from L2: 0
PSCL5 SPEC fills:          0  NON-SPEC fills:          0
PSCL5 Test counter :          0
PSCL5 Leapfrog:          0
PSCL5 MSHR merge:          0
PSCL5 TOTAL     ACCESS:          0  HIT:          0  MISS:          0  HIT %:       -nan  MISS %:       -nan   MPKI: 0
PSCL5 PREFETCH  REQUESTED:          0  ISSUED:          0  USEFUL:          0  USELESS:          0
PSCL5 USEFUL LOAD PREFETCHES:          0 PREFETCH ISSUED TO LOWER LEVEL:          0  ACCURACY: -nan
PSCL5 TIMELY PREFETCHES:          0 LATE PREFETCHES: 0 DROPPED PREFETCHES: 0
PSCL5 COMMIT LATE PREFETCHES: 0 MISSED OPPORTUNITY: 0 LATE IN PQ: 0 UNCOVERED: 0
PSCL5 COMMIT LATE MSHR PREFETCHES: 0
PSCL5 MPKI TOTAL: 0 MSHR LATE: 0 PQ LATE: 0 COMMIT LATE: 0 MISSED OPPORTUNITY: 0 UNCOVERED: 0
PSCL5 PREFETCHES SAME FILL-ORIGIN LEVEL: 0 DIFFERENT FILL-ORIGIN LEVEL: 0

PSCL4 SPEC fills:          0  NON-SPEC fills:          0
PSCL4 Test counter :          0
PSCL4 Leapfrog:          0
PSCL4 MSHR merge:          0
PSCL4 TOTAL     ACCESS:          0  HIT:          0  MISS:          0  HIT %:       -nan  MISS %:       -nan   MPKI: 0
PSCL4 PREFETCH  REQUESTED:          0  ISSUED:          0  USEFUL:          0  USELESS:          0
PSCL4 USEFUL LOAD PREFETCHES:          0 PREFETCH ISSUED TO LOWER LEVEL:          0  ACCURACY: -nan
PSCL4 TIMELY PREFETCHES:          0 LATE PREFETCHES: 0 DROPPED PREFETCHES: 0
PSCL4 COMMIT LATE PREFETCHES: 0 MISSED OPPORTUNITY: 0 LATE IN PQ: 0 UNCOVERED: 0
PSCL4 COMMIT LATE MSHR PREFETCHES: 0
PSCL4 MPKI TOTAL: 0 MSHR LATE: 0 PQ LATE: 0 COMMIT LATE: 0 MISSED OPPORTUNITY: 0 UNCOVERED: 0
PSCL4 PREFETCHES SAME FILL-ORIGIN LEVEL: 0 DIFFERENT FILL-ORIGIN LEVEL: 0

PSCL3 SPEC fills:          0  NON-SPEC fills:          0
PSCL3 Test counter :          0
PSCL3 Leapfrog:          0
PSCL3 MSHR merge:          0
PSCL3 TOTAL     ACCESS:          0  HIT:          0  MISS:          0  HIT %:       -nan  MISS %:       -nan   MPKI: 0
PSCL3 PREFETCH  REQUESTED:          0  ISSUED:          0  USEFUL:          0  USELESS:          0
PSCL3 USEFUL LOAD PREFETCHES:          0 PREFETCH ISSUED TO LOWER LEVEL:          0  ACCURACY: -nan
PSCL3 TIMELY PREFETCHES:          0 LATE PREFETCHES: 0 DROPPED PREFETCHES: 0
PSCL3 COMMIT LATE PREFETCHES: 0 MISSED OPPORTUNITY: 0 LATE IN PQ: 0 UNCOVERED: 0
PSCL3 COMMIT LATE MSHR PREFETCHES: 0
PSCL3 MPKI TOTAL: 0 MSHR LATE: 0 PQ LATE: 0 COMMIT LATE: 0 MISSED OPPORTUNITY: 0 UNCOVERED: 0
PSCL3 PREFETCHES SAME FILL-ORIGIN LEVEL: 0 DIFFERENT FILL-ORIGIN LEVEL: 0

PSCL2 SPEC fills:          0  NON-SPEC fills:          0
PSCL2 Test counter :          0
PSCL2 Leapfrog:          0
PSCL2 MSHR merge:          0
PSCL2 TOTAL     ACCESS:          0  HIT:          0  MISS:          0  HIT %:       -nan  MISS %:       -nan   MPKI: 0
PSCL2 PREFETCH  REQUESTED:          0  ISSUED:          0  USEFUL:          0  USELESS:          0
PSCL2 USEFUL LOAD PREFETCHES:          0 PREFETCH ISSUED TO LOWER LEVEL:          0  ACCURACY: -nan
PSCL2 TIMELY PREFETCHES:          0 LATE PREFETCHES: 0 DROPPED PREFETCHES: 0
PSCL2 COMMIT LATE PREFETCHES: 0 MISSED OPPORTUNITY: 0 LATE IN PQ: 0 UNCOVERED: 0
PSCL2 COMMIT LATE MSHR PREFETCHES: 0
PSCL2 MPKI TOTAL: 0 MSHR LATE: 0 PQ LATE: 0 COMMIT LATE: 0 MISSED OPPORTUNITY: 0 UNCOVERED: 0
PSCL2 PREFETCHES SAME FILL-ORIGIN LEVEL: 0 DIFFERENT FILL-ORIGIN LEVEL: 0

LLC SPEC fills:          0  NON-SPEC fills:     353737
LLC Test counter :          0
LLC Leapfrog:          0
LLC MSHR merge:          0
LLC TOTAL     ACCESS:   39888390  HIT:   13784820  MISS:   26103570  HIT %:    34.5585  MISS %:    65.4415   MPKI: 130.518
LLC LOAD      TOTAL       ACCESS:   14189982  HIT:    5786892  MISS:    8403090  HIT %:    40.7815  MISS %:    59.2185   MPKI: 42.0154
LLC LOAD      NON_SPEC    ACCESS:     544166  HIT:     190429  MISS:     353737  HIT %:    34.9947  MISS %:    65.0053   MPKI: 1.76868
LLC LOAD      SPEC        ACCESS:   13645816  HIT:    5596463  MISS:    8049353  HIT %:    41.0123  MISS %:    58.9877   MPKI: 40.2468
LLC RFO       NON_SPEC    ACCESS:      28614  HIT:        360  MISS:      28254  HIT %:    1.25813  MISS %:    98.7419   MPKI: 0.14127
LLC PREFETCH  NON_SPEC    ACCESS:   11366706  HIT:    2630947  MISS:    8735759  HIT %:    23.1461  MISS %:    76.8539   MPKI: 43.6788
LLC WRITEBACK NON_SPEC    ACCESS:     259347  HIT:     259335  MISS:         12  HIT %:    99.9954  MISS %: 0.00462701   MPKI: 6e-05
LLC CLEAN_EVICTION NON_SPEC    ACCESS:   13634427  HIT:    4790332  MISS:    8844095  HIT %:    35.1341  MISS %:    64.8659   MPKI: 44.2205
LLC COMMIT LOAD NON_SPEC    ACCESS:     143112  HIT:     117529  MISS:      25583  HIT %:    82.1238  MISS %:    17.8762   MPKI: 0.127915
LLC LOAD TRANSLATION NON_SPEC    ACCESS:     266202  HIT:     199425  MISS:      66777  HIT %:    74.9149  MISS %:    25.0851   MPKI: 0.333885
LLC PREFETCH  REQUESTED:          0  ISSUED:          0  USEFUL:     642270  USELESS:    8096537
LLC USEFUL LOAD PREFETCHES:     642270 PREFETCH ISSUED TO LOWER LEVEL:    8735759  ACCURACY: 7.35219
LLC TIMELY PREFETCHES:     642270 LATE PREFETCHES: 0 DROPPED PREFETCHES: 0
LLC COMMIT LATE PREFETCHES: 0 MISSED OPPORTUNITY: 0 LATE IN PQ: 0 UNCOVERED: 0
LLC COMMIT LATE MSHR PREFETCHES: 0
LLC MPKI TOTAL: 42.0154 MSHR LATE: 0 PQ LATE: 0 COMMIT LATE: 0 MISSED OPPORTUNITY: 0 UNCOVERED: 0
LLC PREFETCHES SAME FILL-ORIGIN LEVEL: 0 DIFFERENT FILL-ORIGIN LEVEL: 0
LLC AVERAGE MISS LATENCY: 146.075 cycles
LLC AVERAGE MISS LATENCY LOAD: 188.887 cycles
LLC AVERAGE MISS LATENCY PREFETCH: 251.156 cycles
LLC AVERAGE MSHR OCCUPANCY: 2.38927
LLC MSHR FULL: 0
LLC RQ	ACCESS:   14628025	FORWARD:          0	MERGED:          0	TO_CACHE:   14627909
LLC WQ	ACCESS:   13893774	FORWARD:        185	MERGED:          0	TO_CACHE:   13893774
LLC PQ	ACCESS:   11366778	FORWARD:          0	MERGED:          0	TO_CACHE:   11366709

LLC Dense regions hint to LLC: 0

RAW hits: 275494
Loads Generated: 52498946
Loads sent to L1D: 52223453
Stores Generated: 9121059
Stores sent to L1D: 9121061
Major fault: 0 Minor fault: 33138
Allocated PAGES: 33138
Total Load insts: 64353867
Total Non-spec loads: 6079382
Percentage of speculative loads: 90.5532

LeapFrogging counter: 268690
Commit hits: 32312356 miss: 14119096
Commit hit %: 69.5915 miss %: 30.4085
Commits not translated: 0
Loads retired: 17638779
Stores retired: 9121061
Cache fills: 17638779
L1D response latency: 119.738 cycles
Load retirement latency: 243.944 cycles
OOO test counter: 0
Discarded buffer inserts: 32312356 hits: 26580 hit %: 0.0822596
Filter prediction accuracy: 98.8826
[Bingo] PHT Access: 11500039
[Bingo] PHT Hit PC+Addr: 404161
[Bingo] PHT Hit PC+Offs: 11092858
[Bingo] PHT Miss: 3020
[Bingo] Prefetch PC+Addr: 0
[Bingo] Prefetch PC+Offs: 0
[Bingo] Useful PC+Addr: 0
[Bingo] Useful PC+Offs: 0
[Bingo] Useless PC+Addr: 0
[Bingo] Useless PC+Offs: 0
[Bingo] L1 Prefetch per Region: 0
[Bingo] L2 Prefetch per Region: 2.08042
[Bingo] L3 Prefetch per Region: 0
[Bingo] No Prefetch per Region: 29.9196
[Bingo] Number of Voters Mean: 15.8729
[Bingo] Number of Voters SD: 6.44841
PHT read accesses: 179575097
PHT write accesses: 3051766
AT read accesses: 37433666
AT write accesses: 39726973
FT read accesses: 18123335
FT write accesses: 11500039
PS read accesses: 23128477
PS write accesses: 11497019
PHT tag read accesses: 277309927
PHT tag write accesses: 3455927
AT tag read accesses: 1392143351
AT tag write accesses: 40485422
FT tag read accesses: 1104654897
FT tag write accesses: 22247901
PS tag read accesses: 1248803446
PS tag write accesses: 34605794

DRAM Statistics
 CHANNEL 0
 RQ ROW_BUFFER_HIT:    3011441  ROW_BUFFER_MISS:   14238667
 DBUS_CONGESTED:       7710
 WQ ROW_BUFFER_HIT:    3207245  ROW_BUFFER_MISS:    6501358  FULL:     124258

 AVG_CONGESTED_CYCLE: 5
 All warmup complete: 2
Channel 0 Bank busy for read cycles: 0
Channel 0 Bank busy for write cycles: 0
Channel 0
Rank 0
0banks busy for read cycles: 3972618
0banks busy for write cycles: 730
1banks busy for read cycles: 350969909
1banks busy for write cycles: 3394121
2banks busy for read cycles: 319357045
2banks busy for write cycles: 3430208
3banks busy for read cycles: 175487942
3banks busy for write cycles: 3642505
4banks busy for read cycles: 82546039
4banks busy for write cycles: 4870587
5banks busy for read cycles: 35346504
5banks busy for write cycles: 11841371
6banks busy for read cycles: 15461869
6banks busy for write cycles: 41627594
7banks busy for read cycles: 10037719
7banks busy for write cycles: 116331030
8banks busy for read cycles: 16897900
8banks busy for write cycles: 172573980

CPU 0 Branch Prediction Accuracy: 88.9318% MPKI: 21.5679 Average ROB Occupancy at Mispredict: 32.887
Branch types
NOT_BRANCH: 161026986 80.5135%
BRANCH_DIRECT_JUMP: 251798 0.125899%
BRANCH_INDIRECT: 0 0%
BRANCH_CONDITIONAL: 38720835 19.3604%
BRANCH_DIRECT_CALL: 14 7e-06%
BRANCH_INDIRECT_CALL: 0 0%
BRANCH_RETURN: 14 7e-06%
BRANCH_OTHER: 0 0%

DRAM PAGES: 1048576
Allocated PAGES: 33138
