
*** ChampSim Multicore Out-of-Order Simulator ***

Warmup Instructions: 50000000
Simulation Instructions: 200000000
Number of CPUs: 1
LLC sets: 2048
LLC ways: 16
L0D sets: 16
L0D ways: 2
ROB size: 352
LQ size: 128
SQ size: 72
Secure Berti: OFF
Berti: OFF
Berti Fill: OFF
On commit prefetching: ON
Hit-based filter: ON
Time-guarding: ON
Free-slotting: ON
Leap-frogging: ON
Train prefetcher on L0D bypass: OFF
No translation penalty for prefetchers: OFF
Prefetch to L0D only: OFF
Prefetch to L1D only: OFF
Clean evictions: ON
Commit loads: ON
Commit write: ON
Fill commit loads to L2C, LLC: ON
DRAM IO FREQUENCY: 6400
ROB SIZE: 352
Off-chip DRAM Size: 4096 MB Channels: 1 Width: 64-bit Data Rate: 6400 MT/s
CPU 0 runs /home/sumon/secure_berti/GhostMinion/../../traces/gap/cc-5.trace.gz
.gz
BTB has LRU replacement policy
ITLB has LRU replacement policy
DTLB has LRU replacement policy
STLB has LRU replacement policy
L1I has LRU replacement policy
L0D has LRU replacement policy
L1D has LRU replacement policy
Bingo PHT WAYS: 16 and PHT_SIZE: 16384
L2C has LRU replacement policy
LLC has LRU replacement policy
Heartbeat CPU 0 instructions: 10000001 cycles: 3233821 heartbeat IPC: 3.09232 cumulative IPC: 3.09232 (Simulation time: 0 hr 0 min 54 sec) 
Heartbeat CPU 0 instructions: 20000001 cycles: 6459613 heartbeat IPC: 3.10001 cumulative IPC: 3.09616 (Simulation time: 0 hr 1 min 35 sec) 
Heartbeat CPU 0 instructions: 30000002 cycles: 9690597 heartbeat IPC: 3.09503 cumulative IPC: 3.09578 (Simulation time: 0 hr 2 min 15 sec) 
Heartbeat CPU 0 instructions: 40000001 cycles: 12919792 heartbeat IPC: 3.09675 cumulative IPC: 3.09603 (Simulation time: 0 hr 2 min 54 sec) 
Heartbeat CPU 0 instructions: 50000001 cycles: 16145232 heartbeat IPC: 3.10035 cumulative IPC: 3.09689 (Simulation time: 0 hr 3 min 31 sec) 

Warmup complete CPU 0 instructions: 50000001 cycles: 16145232 (Simulation time: 0 hr 3 min 31 sec) 

Heartbeat CPU 0 instructions: 60000001 cycles: 53308654 heartbeat IPC: 0.269082 cumulative IPC: 0.269082 (Simulation time: 0 hr 4 min 26 sec) 
Heartbeat CPU 0 instructions: 70000002 cycles: 90219376 heartbeat IPC: 0.270924 cumulative IPC: 0.27 (Simulation time: 0 hr 5 min 20 sec) 
Heartbeat CPU 0 instructions: 80000000 cycles: 127457400 heartbeat IPC: 0.268543 cumulative IPC: 0.269512 (Simulation time: 0 hr 6 min 12 sec) 
Heartbeat CPU 0 instructions: 90000002 cycles: 164432443 heartbeat IPC: 0.270453 cumulative IPC: 0.269747 (Simulation time: 0 hr 7 min 5 sec) 
Heartbeat CPU 0 instructions: 100000000 cycles: 200980936 heartbeat IPC: 0.273609 cumulative IPC: 0.27051 (Simulation time: 0 hr 7 min 57 sec) 
Heartbeat CPU 0 instructions: 110000000 cycles: 237287450 heartbeat IPC: 0.275433 cumulative IPC: 0.271319 (Simulation time: 0 hr 8 min 49 sec) 
Heartbeat CPU 0 instructions: 120000000 cycles: 273754756 heartbeat IPC: 0.274218 cumulative IPC: 0.271729 (Simulation time: 0 hr 9 min 41 sec) 
Heartbeat CPU 0 instructions: 130000001 cycles: 307887650 heartbeat IPC: 0.292973 cumulative IPC: 0.274215 (Simulation time: 0 hr 10 min 31 sec) 
Heartbeat CPU 0 instructions: 140000001 cycles: 343995877 heartbeat IPC: 0.276945 cumulative IPC: 0.274515 (Simulation time: 0 hr 11 min 22 sec) 
Heartbeat CPU 0 instructions: 150000000 cycles: 379505774 heartbeat IPC: 0.281612 cumulative IPC: 0.275209 (Simulation time: 0 hr 12 min 12 sec) 
Heartbeat CPU 0 instructions: 160000000 cycles: 415506586 heartbeat IPC: 0.277772 cumulative IPC: 0.27544 (Simulation time: 0 hr 13 min 4 sec) 
Heartbeat CPU 0 instructions: 170000001 cycles: 452109095 heartbeat IPC: 0.273205 cumulative IPC: 0.275252 (Simulation time: 0 hr 13 min 55 sec) 
Heartbeat CPU 0 instructions: 180000002 cycles: 488242762 heartbeat IPC: 0.27675 cumulative IPC: 0.275367 (Simulation time: 0 hr 14 min 45 sec) 
Heartbeat CPU 0 instructions: 190000002 cycles: 524978977 heartbeat IPC: 0.272211 cumulative IPC: 0.275139 (Simulation time: 0 hr 15 min 35 sec) 
Heartbeat CPU 0 instructions: 200000002 cycles: 560678602 heartbeat IPC: 0.280115 cumulative IPC: 0.275465 (Simulation time: 0 hr 16 min 25 sec) 
Heartbeat CPU 0 instructions: 210000001 cycles: 597349902 heartbeat IPC: 0.272693 cumulative IPC: 0.27529 (Simulation time: 0 hr 17 min 16 sec) 
Heartbeat CPU 0 instructions: 220000000 cycles: 632577994 heartbeat IPC: 0.283864 cumulative IPC: 0.27578 (Simulation time: 0 hr 18 min 6 sec) 
Heartbeat CPU 0 instructions: 230000001 cycles: 668122382 heartbeat IPC: 0.281338 cumulative IPC: 0.276083 (Simulation time: 0 hr 18 min 57 sec) 
Heartbeat CPU 0 instructions: 240000003 cycles: 703657031 heartbeat IPC: 0.281416 cumulative IPC: 0.276359 (Simulation time: 0 hr 19 min 47 sec) 
Heartbeat CPU 0 instructions: 250000002 cycles: 738938344 heartbeat IPC: 0.283436 cumulative IPC: 0.276704 (Simulation time: 0 hr 20 min 38 sec) 
Finished CPU 0 instructions: 200000001 cycles: 722793112 cumulative IPC: 0.276704 (Simulation time: 0 hr 20 min 38 sec) 
 Instruction ID: 250000027

ChampSim completed all CPUs

Region of Interest Statistics

CPU 0 cumulative IPC: 0.276704 instructions: 200000001 cycles: 722793112
ITLB SPEC fills:          0  NON-SPEC fills:          0
ITLB Test counter :          0
ITLB Leapfrog:          0
ITLB MSHR merge:          0
ITLB TOTAL     ACCESS:   29925956  HIT:   29925956  MISS:          0  HIT %:        100  MISS %:          0   MPKI: 0
ITLB LOAD TRANSLATION NON_SPEC    ACCESS:   29925956  HIT:   29925956  MISS:          0  HIT %:        100  MISS %:          0   MPKI: 0
ITLB PREFETCH  REQUESTED:          0  ISSUED:          0  USEFUL:          0  USELESS:          0
ITLB USEFUL LOAD PREFETCHES:          0 PREFETCH ISSUED TO LOWER LEVEL:          0  ACCURACY: -nan
ITLB TIMELY PREFETCHES:          0 LATE PREFETCHES: 0 DROPPED PREFETCHES: 0
ITLB COMMIT LATE PREFETCHES: 0 MISSED OPPORTUNITY: 0 LATE IN PQ: 0 UNCOVERED: 0
ITLB COMMIT LATE MSHR PREFETCHES: 0
ITLB MPKI TOTAL: 0 MSHR LATE: 0 PQ LATE: 0 COMMIT LATE: 0 MISSED OPPORTUNITY: 0 UNCOVERED: 0
ITLB PREFETCHES SAME FILL-ORIGIN LEVEL: 0 DIFFERENT FILL-ORIGIN LEVEL: 0
ITLB AVERAGE MISS LATENCY: -nan cycles
ITLB AVERAGE MISS LATENCY LOAD: -nan cycles
ITLB AVERAGE MISS LATENCY PREFETCH: -nan cycles
ITLB AVERAGE MSHR OCCUPANCY: 0
ITLB MSHR FULL: 0
ITLB RQ	ACCESS:   30549893	FORWARD:          0	MERGED:     623937	TO_CACHE:   29925956

DTLB SPEC fills:          0  NON-SPEC fills:          0
DTLB Test counter :          0
DTLB Leapfrog:          0
DTLB MSHR merge:          0
DTLB TOTAL     ACCESS:   45991749  HIT:   36512747  MISS:    9479002  HIT %:    79.3898  MISS %:    20.6102   MPKI: 47.395
DTLB LOAD TRANSLATION NON_SPEC    ACCESS:   45991749  HIT:   36512747  MISS:    9479002  HIT %:    79.3898  MISS %:    20.6102   MPKI: 47.395
DTLB PREFETCH  REQUESTED:          0  ISSUED:          0  USEFUL:          0  USELESS:          0
DTLB USEFUL LOAD PREFETCHES:          0 PREFETCH ISSUED TO LOWER LEVEL:          0  ACCURACY: -nan
DTLB TIMELY PREFETCHES:          0 LATE PREFETCHES: 0 DROPPED PREFETCHES: 0
DTLB COMMIT LATE PREFETCHES: 0 MISSED OPPORTUNITY: 0 LATE IN PQ: 0 UNCOVERED: 0
DTLB COMMIT LATE MSHR PREFETCHES: 0
DTLB MPKI TOTAL: 0 MSHR LATE: 0 PQ LATE: 0 COMMIT LATE: 0 MISSED OPPORTUNITY: 0 UNCOVERED: 0
DTLB PREFETCHES SAME FILL-ORIGIN LEVEL: 0 DIFFERENT FILL-ORIGIN LEVEL: 0
DTLB AVERAGE MISS LATENCY: 9.57893 cycles
DTLB AVERAGE MISS LATENCY LOAD: -nan cycles
DTLB AVERAGE MISS LATENCY PREFETCH: -nan cycles
DTLB AVERAGE MSHR OCCUPANCY: 0.377779
DTLB MSHR FULL: 0.00255345
DTLB RQ	ACCESS:   48351286	FORWARD:          0	MERGED:    2038123	TO_CACHE:   46313163

STLB SPEC fills:          0  NON-SPEC fills:          0
STLB Test counter :          0
STLB Leapfrog:          0
STLB MSHR merge:          0
STLB TOTAL     ACCESS:    9479002  HIT:    9464733  MISS:      14269  HIT %:    99.8495  MISS %:   0.150533   MPKI: 0.071345
STLB LOAD TRANSLATION NON_SPEC    ACCESS:    9479002  HIT:    9464733  MISS:      14269  HIT %:    99.8495  MISS %:   0.150533   MPKI: 0.071345
STLB PREFETCH  REQUESTED:          0  ISSUED:          0  USEFUL:          0  USELESS:          0
STLB USEFUL LOAD PREFETCHES:          0 PREFETCH ISSUED TO LOWER LEVEL:          0  ACCURACY: -nan
STLB TIMELY PREFETCHES:          0 LATE PREFETCHES: 0 DROPPED PREFETCHES: 0
STLB COMMIT LATE PREFETCHES: 0 MISSED OPPORTUNITY: 0 LATE IN PQ: 0 UNCOVERED: 0
STLB COMMIT LATE MSHR PREFETCHES: 0
STLB MPKI TOTAL: 0 MSHR LATE: 0 PQ LATE: 0 COMMIT LATE: 0 MISSED OPPORTUNITY: 0 UNCOVERED: 0
STLB PREFETCHES SAME FILL-ORIGIN LEVEL: 0 DIFFERENT FILL-ORIGIN LEVEL: 0
STLB AVERAGE MISS LATENCY: 196.435 cycles
STLB AVERAGE MISS LATENCY LOAD: -nan cycles
STLB AVERAGE MISS LATENCY PREFETCH: -nan cycles
STLB AVERAGE MSHR OCCUPANCY: 0.00137272
STLB MSHR FULL: 0
STLB RQ	ACCESS:    9479002	FORWARD:          0	MERGED:          0	TO_CACHE:    9479002

STLB Hit, L1D data hit: 0
STLB Hit, L2C data hit: 0
STLB Hit, LLC data hit: 0
STLB Hit, LLC data miss: 0
STLB STLB hints to L2: 0
L0D SPEC fills:   24725253  NON-SPEC fills:          0
L0D TimeGuard Request with older TS:     745333 Restricted eviction:     314171 read:     648849
L0D Test counter :          0
L0D Leapfrog:          0
L0D MSHR merge:    1699802
L0D TOTAL     ACCESS:   46403210  HIT:   12755404  MISS:   33647806  HIT %:    27.4882  MISS %:    72.5118   MPKI: 168.239
L0D LOAD      TOTAL       ACCESS:   46403210  HIT:   12755404  MISS:   33647806  HIT %:    27.4882  MISS %:    72.5118   MPKI: 168.239
L0D LOAD      NON_SPEC    ACCESS:    9549276  HIT:     940894  MISS:    8608382  HIT %:    9.85304  MISS %:     90.147   MPKI: 43.0419
L0D LOAD      SPEC        ACCESS:   36853934  HIT:   11814510  MISS:   25039424  HIT %:    32.0577  MISS %:    67.9423   MPKI: 125.197
L0D PREFETCH  REQUESTED:          0  ISSUED:          0  USEFUL:          0  USELESS:          0
L0D USEFUL LOAD PREFETCHES:          0 PREFETCH ISSUED TO LOWER LEVEL:          0  ACCURACY: -nan
L0D TIMELY PREFETCHES:          0 LATE PREFETCHES: 0 DROPPED PREFETCHES: 0
L0D COMMIT LATE PREFETCHES: 0 MISSED OPPORTUNITY: 0 LATE IN PQ: 0 UNCOVERED: 0
L0D COMMIT LATE MSHR PREFETCHES: 0
L0D MPKI TOTAL: 176.738 MSHR LATE: 0 PQ LATE: 0 COMMIT LATE: 0 MISSED OPPORTUNITY: 0 UNCOVERED: 0
L0D PREFETCHES SAME FILL-ORIGIN LEVEL: 0 DIFFERENT FILL-ORIGIN LEVEL: 0
L0D AVERAGE MISS LATENCY: 36.9625 cycles
L0D AVERAGE MISS LATENCY LOAD: 36.9625 cycles
L0D AVERAGE MISS LATENCY PREFETCH: -nan cycles
L0D AVERAGE MSHR OCCUPANCY: 2.31628
L0D MSHR FULL: 0.0524719
L0D RQ	ACCESS:   54337447	FORWARD:          0	MERGED:    6234443	TO_CACHE:   48103004
L0D WQ	ACCESS:     248282	FORWARD:          0	MERGED:          0	TO_CACHE:     248282

L1D SPEC fills:          0  NON-SPEC fills:    2815175
L1D Test counter :          0
L1D Leapfrog:          0
L1D MSHR merge:       8281
L1D TOTAL     ACCESS:   47240022  HIT:   20442956  MISS:   26797066  HIT %:    43.2747  MISS %:    56.7253   MPKI: 133.985
L1D LOAD      TOTAL       ACCESS:   33639524  HIT:   18786418  MISS:   14853106  HIT %:    55.8463  MISS %:    44.1537   MPKI: 74.2655
L1D LOAD      NON_SPEC    ACCESS:    8607757  HIT:    5792582  MISS:    2815175  HIT %:    67.2949  MISS %:    32.7051   MPKI: 14.0759
L1D LOAD      SPEC        ACCESS:   25031767  HIT:   12993836  MISS:   12037931  HIT %:    51.9094  MISS %:    48.0906   MPKI: 60.1897
L1D RFO       NON_SPEC    ACCESS:     246605  HIT:     246604  MISS:          1  HIT %:    99.9996  MISS %: 0.000405507   MPKI: 5e-06
L1D COMMIT LOAD NON_SPEC    ACCESS:    1418132  HIT:    1108325  MISS:     309807  HIT %:    78.1539  MISS %:    21.8461   MPKI: 1.54903
L1D COMMIT WRITE NON_SPEC    ACCESS:   11935761  HIT:     301609  MISS:   11634152  HIT %:    2.52694  MISS %:    97.4731   MPKI: 58.1708
L1D PREFETCH  REQUESTED:          0  ISSUED:          0  USEFUL:          0  USELESS:          0
L1D USEFUL LOAD PREFETCHES:          0 PREFETCH ISSUED TO LOWER LEVEL:          0  ACCURACY: -nan
L1D TIMELY PREFETCHES:          0 LATE PREFETCHES: 0 DROPPED PREFETCHES: 0
L1D COMMIT LATE PREFETCHES: 0 MISSED OPPORTUNITY: 0 LATE IN PQ: 0 UNCOVERED: 0
L1D COMMIT LATE MSHR PREFETCHES: 0
L1D MPKI TOTAL: 74.3069 MSHR LATE: 0 PQ LATE: 0 COMMIT LATE: 0 MISSED OPPORTUNITY: 0 UNCOVERED: 0
L1D PREFETCHES SAME FILL-ORIGIN LEVEL: 0 DIFFERENT FILL-ORIGIN LEVEL: 0
L1D AVERAGE MISS LATENCY: 40.4358 cycles
L1D AVERAGE MISS LATENCY LOAD: 72.0227 cycles
L1D AVERAGE MISS LATENCY PREFETCH: -nan cycles
L1D AVERAGE MSHR OCCUPANCY: 1.55819
L1D MSHR FULL: 0
L1D RQ	ACCESS:   35435315	FORWARD:          0	MERGED:     344235	TO_CACHE:   35082298
L1D WQ	ACCESS:   12185641	FORWARD:       8782	MERGED:       1609	TO_CACHE:   12184032

L1D UNIQUE REGIONS ACCESSED: 0
L1D REGIONS CONFLICTS: 0
L1D Cross Page Prefetch Requests: 0
L1D Same Page Prefetch Requests: 0
L1D ROI Sum of L1D PQ occupancy: 0
L1D PREFETCHES PUSHED FROM L2C: 0
L1I SPEC fills:          0  NON-SPEC fills:          0
L1I Test counter :          0
L1I Leapfrog:          0
L1I MSHR merge:          0
L1I TOTAL     ACCESS:   30549893  HIT:   30549893  MISS:          0  HIT %:        100  MISS %:          0   MPKI: 0
L1I LOAD      TOTAL       ACCESS:   30549893  HIT:   30549893  MISS:          0  HIT %:        100  MISS %:          0   MPKI: 0
L1I LOAD      NON_SPEC    ACCESS:   30549893  HIT:   30549893  MISS:          0  HIT %:        100  MISS %:          0   MPKI: 0
L1I PREFETCH  REQUESTED:          0  ISSUED:          0  USEFUL:          0  USELESS:          0
L1I USEFUL LOAD PREFETCHES:          0 PREFETCH ISSUED TO LOWER LEVEL:          0  ACCURACY: -nan
L1I TIMELY PREFETCHES:          0 LATE PREFETCHES: 0 DROPPED PREFETCHES: 0
L1I COMMIT LATE PREFETCHES: 0 MISSED OPPORTUNITY: 0 LATE IN PQ: 0 UNCOVERED: 0
L1I COMMIT LATE MSHR PREFETCHES: 0
L1I MPKI TOTAL: 0 MSHR LATE: 0 PQ LATE: 0 COMMIT LATE: 0 MISSED OPPORTUNITY: 0 UNCOVERED: 0
L1I PREFETCHES SAME FILL-ORIGIN LEVEL: 0 DIFFERENT FILL-ORIGIN LEVEL: 0
L1I AVERAGE MISS LATENCY: -nan cycles
L1I AVERAGE MISS LATENCY LOAD: -nan cycles
L1I AVERAGE MISS LATENCY PREFETCH: -nan cycles
L1I AVERAGE MSHR OCCUPANCY: 0
L1I MSHR FULL: 0
L1I RQ	ACCESS:   55516590	FORWARD:          0	MERGED:   24966697	TO_CACHE:   30549893

BTB SPEC fills:          0  NON-SPEC fills:          0
BTB Test counter :          0
BTB Leapfrog:          0
BTB MSHR merge:          0
BTB TOTAL     ACCESS:   40039424  HIT:   40039419  MISS:          5  HIT %:        100  MISS %: 1.24877e-05   MPKI: 2.5e-05
BTB BRANCH_DIRECT_JUMP	ACCESS:          0  HIT:          0  MISS:          0
BTB BRANCH_INDIRECT	ACCESS:          0  HIT:          0  MISS:          0
BTB BRANCH_CONDITIONAL	ACCESS:   40039424  HIT:   40039419  MISS:          5
BTB BRANCH_DIRECT_CALL	ACCESS:          0  HIT:          0  MISS:          0
BTB BRANCH_INDIRECT_CALL	ACCESS:          0  HIT:          0  MISS:          0
BTB BRANCH_RETURN	ACCESS:          0  HIT:          0  MISS:          0
BTB BRANCH_OTHER ACCESS:          0  HIT:          0  MISS:          0

L2C SPEC fills:          0  NON-SPEC fills:    1775995
L2C Test counter :          0
L2C Leapfrog:          0
L2C MSHR merge:      80305
L2C TOTAL     ACCESS:   34535644  HIT:    8342312  MISS:   26193332  HIT %:    24.1557  MISS %:    75.8443   MPKI: 130.967
L2C LOAD      TOTAL       ACCESS:   14852772  HIT:    5018450  MISS:    9834322  HIT %:     33.788  MISS %:     66.212   MPKI: 49.1716
L2C LOAD      NON_SPEC    ACCESS:    2815173  HIT:    1039178  MISS:    1775995  HIT %:    36.9135  MISS %:    63.0865   MPKI: 8.87997
L2C LOAD      SPEC        ACCESS:   12037599  HIT:    3979272  MISS:    8058327  HIT %:     33.057  MISS %:     66.943   MPKI: 40.2916
L2C RFO       NON_SPEC    ACCESS:          1  HIT:          1  MISS:          0  HIT %:        100  MISS %:          0   MPKI: 0
L2C PREFETCH  NON_SPEC    ACCESS:   11197264  HIT:    2753158  MISS:    8444106  HIT %:    24.5878  MISS %:    75.4122   MPKI: 42.2205
L2C WRITEBACK NON_SPEC    ACCESS:      31245  HIT:      31193  MISS:         52  HIT %:    99.8336  MISS %:   0.166427   MPKI: 0.00026
L2C CLEAN_EVICTION NON_SPEC    ACCESS:    8073237  HIT:     339163  MISS:    7734074  HIT %:    4.20108  MISS %:    95.7989   MPKI: 38.6704
L2C COMMIT LOAD NON_SPEC    ACCESS:     309807  HIT:     134252  MISS:     175555  HIT %:    43.3341  MISS %:    56.6659   MPKI: 0.877775
L2C LOAD TRANSLATION NON_SPEC    ACCESS:      71318  HIT:      66095  MISS:       5223  HIT %:    92.6765  MISS %:    7.32354   MPKI: 0.026115
L2C PREFETCH  REQUESTED:   11332095  ISSUED:   11332095  USEFUL:    1376183  USELESS:    7065318
L2C USEFUL LOAD PREFETCHES:    1376183 PREFETCH ISSUED TO LOWER LEVEL:    8527308  ACCURACY: 16.1385
L2C TIMELY PREFETCHES:    1376183 LATE PREFETCHES: 83199 DROPPED PREFETCHES: 0
L2C COMMIT LATE PREFETCHES: 0 MISSED OPPORTUNITY: 0 LATE IN PQ: 0 UNCOVERED: 0
L2C COMMIT LATE MSHR PREFETCHES: 0
L2C MPKI TOTAL: 49.1716 MSHR LATE: 0.415995 PQ LATE: 0 COMMIT LATE: 0 MISSED OPPORTUNITY: 0 UNCOVERED: 0
L2C PREFETCHES SAME FILL-ORIGIN LEVEL: 8527308 DIFFERENT FILL-ORIGIN LEVEL: 0
L2C AVERAGE MISS LATENCY: 86.2051 cycles
L2C AVERAGE MISS LATENCY LOAD: 90.7104 cycles
L2C AVERAGE MISS LATENCY PREFETCH: 160.606 cycles
L2C AVERAGE MSHR OCCUPANCY: 4.44895
L2C MSHR FULL: 0.0278331
L2C RQ	ACCESS:   15234231	FORWARD:          0	MERGED:          0	TO_CACHE:   15233897
L2C WQ	ACCESS:    8104486	FORWARD:        392	MERGED:          1	TO_CACHE:    8104485
L2C PQ	ACCESS:   11332095	FORWARD:          0	MERGED:         77	TO_CACHE:   11331960

L2C Instructions Evicting Data 0
L2C Translations Evicting Data 5222
L2C Data Evicting Data 10392988
L2C Instructions Evicting Instructions 0
L2C Translations Evicting Instructions 0
L2C Data Evicting Instructions 0
L2C Instructions Evicting Translations 0
L2C Translations Evicting Translations 1
L2C Data Evicting Translations 2668
L2C Dense regions hint from L2: 0
PSCL5 SPEC fills:          0  NON-SPEC fills:          0
PSCL5 Test counter :          0
PSCL5 Leapfrog:          0
PSCL5 MSHR merge:          0
PSCL5 TOTAL     ACCESS:          0  HIT:          0  MISS:          0  HIT %:       -nan  MISS %:       -nan   MPKI: 0
PSCL5 PREFETCH  REQUESTED:          0  ISSUED:          0  USEFUL:          0  USELESS:          0
PSCL5 USEFUL LOAD PREFETCHES:          0 PREFETCH ISSUED TO LOWER LEVEL:          0  ACCURACY: -nan
PSCL5 TIMELY PREFETCHES:          0 LATE PREFETCHES: 0 DROPPED PREFETCHES: 0
PSCL5 COMMIT LATE PREFETCHES: 0 MISSED OPPORTUNITY: 0 LATE IN PQ: 0 UNCOVERED: 0
PSCL5 COMMIT LATE MSHR PREFETCHES: 0
PSCL5 MPKI TOTAL: 0 MSHR LATE: 0 PQ LATE: 0 COMMIT LATE: 0 MISSED OPPORTUNITY: 0 UNCOVERED: 0
PSCL5 PREFETCHES SAME FILL-ORIGIN LEVEL: 0 DIFFERENT FILL-ORIGIN LEVEL: 0

PSCL4 SPEC fills:          0  NON-SPEC fills:          0
PSCL4 Test counter :          0
PSCL4 Leapfrog:          0
PSCL4 MSHR merge:          0
PSCL4 TOTAL     ACCESS:          0  HIT:          0  MISS:          0  HIT %:       -nan  MISS %:       -nan   MPKI: 0
PSCL4 PREFETCH  REQUESTED:          0  ISSUED:          0  USEFUL:          0  USELESS:          0
PSCL4 USEFUL LOAD PREFETCHES:          0 PREFETCH ISSUED TO LOWER LEVEL:          0  ACCURACY: -nan
PSCL4 TIMELY PREFETCHES:          0 LATE PREFETCHES: 0 DROPPED PREFETCHES: 0
PSCL4 COMMIT LATE PREFETCHES: 0 MISSED OPPORTUNITY: 0 LATE IN PQ: 0 UNCOVERED: 0
PSCL4 COMMIT LATE MSHR PREFETCHES: 0
PSCL4 MPKI TOTAL: 0 MSHR LATE: 0 PQ LATE: 0 COMMIT LATE: 0 MISSED OPPORTUNITY: 0 UNCOVERED: 0
PSCL4 PREFETCHES SAME FILL-ORIGIN LEVEL: 0 DIFFERENT FILL-ORIGIN LEVEL: 0

PSCL3 SPEC fills:          0  NON-SPEC fills:          0
PSCL3 Test counter :          0
PSCL3 Leapfrog:          0
PSCL3 MSHR merge:          0
PSCL3 TOTAL     ACCESS:          0  HIT:          0  MISS:          0  HIT %:       -nan  MISS %:       -nan   MPKI: 0
PSCL3 PREFETCH  REQUESTED:          0  ISSUED:          0  USEFUL:          0  USELESS:          0
PSCL3 USEFUL LOAD PREFETCHES:          0 PREFETCH ISSUED TO LOWER LEVEL:          0  ACCURACY: -nan
PSCL3 TIMELY PREFETCHES:          0 LATE PREFETCHES: 0 DROPPED PREFETCHES: 0
PSCL3 COMMIT LATE PREFETCHES: 0 MISSED OPPORTUNITY: 0 LATE IN PQ: 0 UNCOVERED: 0
PSCL3 COMMIT LATE MSHR PREFETCHES: 0
PSCL3 MPKI TOTAL: 0 MSHR LATE: 0 PQ LATE: 0 COMMIT LATE: 0 MISSED OPPORTUNITY: 0 UNCOVERED: 0
PSCL3 PREFETCHES SAME FILL-ORIGIN LEVEL: 0 DIFFERENT FILL-ORIGIN LEVEL: 0

PSCL2 SPEC fills:          0  NON-SPEC fills:          0
PSCL2 Test counter :          0
PSCL2 Leapfrog:          0
PSCL2 MSHR merge:          0
PSCL2 TOTAL     ACCESS:          0  HIT:          0  MISS:          0  HIT %:       -nan  MISS %:       -nan   MPKI: 0
PSCL2 PREFETCH  REQUESTED:          0  ISSUED:          0  USEFUL:          0  USELESS:          0
PSCL2 USEFUL LOAD PREFETCHES:          0 PREFETCH ISSUED TO LOWER LEVEL:          0  ACCURACY: -nan
PSCL2 TIMELY PREFETCHES:          0 LATE PREFETCHES: 0 DROPPED PREFETCHES: 0
PSCL2 COMMIT LATE PREFETCHES: 0 MISSED OPPORTUNITY: 0 LATE IN PQ: 0 UNCOVERED: 0
PSCL2 COMMIT LATE MSHR PREFETCHES: 0
PSCL2 MPKI TOTAL: 0 MSHR LATE: 0 PQ LATE: 0 COMMIT LATE: 0 MISSED OPPORTUNITY: 0 UNCOVERED: 0
PSCL2 PREFETCHES SAME FILL-ORIGIN LEVEL: 0 DIFFERENT FILL-ORIGIN LEVEL: 0

LLC SPEC fills:          0  NON-SPEC fills:     640821
LLC Test counter :          0
LLC Leapfrog:          0
LLC MSHR merge:          0
LLC TOTAL     ACCESS:   26553325  HIT:   14367017  MISS:   12186308  HIT %:    54.1063  MISS %:    45.8937   MPKI: 60.9315
LLC LOAD      TOTAL       ACCESS:    9753878  HIT:    6117372  MISS:    3636506  HIT %:    62.7173  MISS %:    37.2827   MPKI: 18.1825
LLC LOAD      NON_SPEC    ACCESS:    1759872  HIT:    1119051  MISS:     640821  HIT %:    63.5871  MISS %:    36.4129   MPKI: 3.2041
LLC LOAD      SPEC        ACCESS:    7994006  HIT:    4998321  MISS:    2995685  HIT %:    62.5259  MISS %:    37.4741   MPKI: 14.9784
LLC PREFETCH  NON_SPEC    ACCESS:    8527138  HIT:    3457303  MISS:    5069835  HIT %:    40.5447  MISS %:    59.4553   MPKI: 25.3492
LLC WRITEBACK NON_SPEC    ACCESS:      29077  HIT:      29072  MISS:          5  HIT %:    99.9828  MISS %:  0.0171957   MPKI: 2.5e-05
LLC CLEAN_EVICTION NON_SPEC    ACCESS:    8065394  HIT:    4608794  MISS:    3456600  HIT %:    57.1428  MISS %:    42.8572   MPKI: 17.283
LLC COMMIT LOAD NON_SPEC    ACCESS:     172615  HIT:     151387  MISS:      21228  HIT %:    87.7021  MISS %:    12.2979   MPKI: 0.10614
LLC LOAD TRANSLATION NON_SPEC    ACCESS:       5223  HIT:       3089  MISS:       2134  HIT %:    59.1423  MISS %:    40.8577   MPKI: 0.01067
LLC PREFETCH  REQUESTED:          0  ISSUED:          0  USEFUL:     694502  USELESS:    4370799
LLC USEFUL LOAD PREFETCHES:     694502 PREFETCH ISSUED TO LOWER LEVEL:    5069836  ACCURACY: 13.6987
LLC TIMELY PREFETCHES:     694502 LATE PREFETCHES: 0 DROPPED PREFETCHES: 0
LLC COMMIT LATE PREFETCHES: 0 MISSED OPPORTUNITY: 0 LATE IN PQ: 0 UNCOVERED: 0
LLC COMMIT LATE MSHR PREFETCHES: 0
LLC MPKI TOTAL: 18.1825 MSHR LATE: 0 PQ LATE: 0 COMMIT LATE: 0 MISSED OPPORTUNITY: 0 UNCOVERED: 0
LLC PREFETCHES SAME FILL-ORIGIN LEVEL: 0 DIFFERENT FILL-ORIGIN LEVEL: 0
LLC AVERAGE MISS LATENCY: 146.239 cycles
LLC AVERAGE MISS LATENCY LOAD: 180.072 cycles
LLC AVERAGE MISS LATENCY PREFETCH: 221.533 cycles
LLC AVERAGE MSHR OCCUPANCY: 2.60061
LLC MSHR FULL: 0
LLC RQ	ACCESS:    9931900	FORWARD:          0	MERGED:          0	TO_CACHE:    9931715
LLC WQ	ACCESS:    8094471	FORWARD:        352	MERGED:          0	TO_CACHE:    8094471
LLC PQ	ACCESS:    8527308	FORWARD:          0	MERGED:          0	TO_CACHE:    8527141

LLC Dense regions hint to LLC: 0

RAW hits: 30123
Loads Generated: 54367570
Loads sent to L1D: 54337447
Stores Generated: 248282
Stores sent to L1D: 248282
Major fault: 0 Minor fault: 18714
Allocated PAGES: 18714
Total Load insts: 66974690
Total Non-spec loads: 10013436
Percentage of speculative loads: 85.0489

LeapFrogging counter: 878555
Commit hits: 24119526 miss: 20545068
Commit hit %: 54.0014 miss %: 45.9986
Commits not translated: 0
Loads retired: 14853104
Stores retired: 248282
Cache fills: 14853106
L1D response latency: 72.0227 cycles
Load retirement latency: 172.433 cycles
OOO test counter: 0
Discarded buffer inserts: 24119526 hits: 101745 hit %: 0.421837
Filter prediction accuracy: 99.4832
[Bingo] PHT Access: 10456546
[Bingo] PHT Hit PC+Addr: 826863
[Bingo] PHT Hit PC+Offs: 9601088
[Bingo] PHT Miss: 28595
[Bingo] Prefetch PC+Addr: 0
[Bingo] Prefetch PC+Offs: 0
[Bingo] Useful PC+Addr: 0
[Bingo] Useful PC+Offs: 0
[Bingo] Useless PC+Addr: 0
[Bingo] Useless PC+Offs: 0
[Bingo] L1 Prefetch per Region: 0
[Bingo] L2 Prefetch per Region: 2.10303
[Bingo] L3 Prefetch per Region: 0
[Bingo] No Prefetch per Region: 29.897
[Bingo] Number of Voters Mean: 15.9999
[Bingo] Number of Voters SD: 7.67938
PHT read accesses: 160304692
PHT write accesses: 1827973
AT read accesses: 38463926
AT write accesses: 39447651
FT read accesses: 18523155
FT write accesses: 10456546
PS read accesses: 20999322
PS write accesses: 10427951
PHT tag read accesses: 216581979
PHT tag write accesses: 2654836
AT tag read accesses: 1240952683
AT tag write accesses: 40291854
FT tag read accesses: 933219038
FT tag write accesses: 20860446
PS tag read accesses: 1219921254
PS tag write accesses: 31383577

DRAM Statistics
 CHANNEL 0
 RQ ROW_BUFFER_HIT:    2105247  ROW_BUFFER_MISS:    6615054
 DBUS_CONGESTED:       8648
 WQ ROW_BUFFER_HIT:    1475350  ROW_BUFFER_MISS:    2905433  FULL:       2893

 AVG_CONGESTED_CYCLE: 4
 All warmup complete: 2
Channel 0 Bank busy for read cycles: 0
Channel 0 Bank busy for write cycles: 0
Channel 0
Rank 0
0banks busy for read cycles: 15415502
0banks busy for write cycles: 115068
1banks busy for read cycles: 207847030
1banks busy for write cycles: 21970851
2banks busy for read cycles: 134126155
2banks busy for write cycles: 22392626
3banks busy for read cycles: 75854203
3banks busy for write cycles: 21236908
4banks busy for read cycles: 37200172
4banks busy for write cycles: 20330678
5banks busy for read cycles: 16510247
5banks busy for write cycles: 20589349
6banks busy for read cycles: 7689579
6banks busy for write cycles: 24425999
7banks busy for read cycles: 6183923
7banks busy for write cycles: 34744599
8banks busy for read cycles: 10385088
8banks busy for write cycles: 45775136

CPU 0 Branch Prediction Accuracy: 94.3308% MPKI: 11.3996 Average ROB Occupancy at Mispredict: 48.7994
Branch types
NOT_BRANCH: 159783723 79.8919%
BRANCH_DIRECT_JUMP: 0 0%
BRANCH_INDIRECT: 0 0%
BRANCH_CONDITIONAL: 40215925 20.108%
BRANCH_DIRECT_CALL: 0 0%
BRANCH_INDIRECT_CALL: 0 0%
BRANCH_RETURN: 0 0%
BRANCH_OTHER: 0 0%

DRAM PAGES: 1048576
Allocated PAGES: 18714
