
*** ChampSim Multicore Out-of-Order Simulator ***

Warmup Instructions: 50000000
Simulation Instructions: 200000000
Number of CPUs: 1
LLC sets: 2048
LLC ways: 16
L0D sets: 16
L0D ways: 2
ROB size: 352
LQ size: 128
SQ size: 72
Secure Berti: OFF
Berti: OFF
Berti Fill: OFF
On commit prefetching: ON
Hit-based filter: ON
Time-guarding: ON
Free-slotting: ON
Leap-frogging: ON
Train prefetcher on L0D bypass: OFF
No translation penalty for prefetchers: OFF
Prefetch to L0D only: OFF
Prefetch to L1D only: OFF
Clean evictions: ON
Commit loads: ON
Commit write: ON
Fill commit loads to L2C, LLC: ON
DRAM IO FREQUENCY: 6400
ROB SIZE: 352
Off-chip DRAM Size: 4096 MB Channels: 1 Width: 64-bit Data Rate: 6400 MT/s
CPU 0 runs /home/sumon/secure_berti/GhostMinion/../../traces/gap/pr-14.trace.gz
.gz
BTB has LRU replacement policy
ITLB has LRU replacement policy
DTLB has LRU replacement policy
STLB has LRU replacement policy
L1I has LRU replacement policy
L0D has LRU replacement policy
L1D has LRU replacement policy
Bingo PHT WAYS: 16 and PHT_SIZE: 16384
L2C has LRU replacement policy
LLC has LRU replacement policy
Heartbeat CPU 0 instructions: 10000001 cycles: 3333820 heartbeat IPC: 2.99956 cumulative IPC: 2.99956 (Simulation time: 0 hr 0 min 29 sec) 
Heartbeat CPU 0 instructions: 20000001 cycles: 17906196 heartbeat IPC: 0.68623 cumulative IPC: 1.11693 (Simulation time: 0 hr 1 min 43 sec) 
Heartbeat CPU 0 instructions: 30000003 cycles: 34530266 heartbeat IPC: 0.601538 cumulative IPC: 0.868803 (Simulation time: 0 hr 2 min 58 sec) 
Heartbeat CPU 0 instructions: 40000003 cycles: 51127522 heartbeat IPC: 0.602509 cumulative IPC: 0.782358 (Simulation time: 0 hr 4 min 4 sec) 
Heartbeat CPU 0 instructions: 50000000 cycles: 67714669 heartbeat IPC: 0.602876 cumulative IPC: 0.738392 (Simulation time: 0 hr 5 min 11 sec) 

Warmup complete CPU 0 instructions: 50000004 cycles: 67714677 (Simulation time: 0 hr 5 min 11 sec) 

Heartbeat CPU 0 instructions: 60000000 cycles: 256475523 heartbeat IPC: 0.0529771 cumulative IPC: 0.0529771 (Simulation time: 0 hr 7 min 31 sec) 
Heartbeat CPU 0 instructions: 70000000 cycles: 444779203 heartbeat IPC: 0.0531057 cumulative IPC: 0.0530413 (Simulation time: 0 hr 9 min 48 sec) 
Heartbeat CPU 0 instructions: 80000001 cycles: 633978241 heartbeat IPC: 0.0528544 cumulative IPC: 0.0529789 (Simulation time: 0 hr 12 min 5 sec) 
Heartbeat CPU 0 instructions: 90000000 cycles: 823410741 heartbeat IPC: 0.0527892 cumulative IPC: 0.0529313 (Simulation time: 0 hr 14 min 21 sec) 
Heartbeat CPU 0 instructions: 100000001 cycles: 1010666327 heartbeat IPC: 0.053403 cumulative IPC: 0.053025 (Simulation time: 0 hr 16 min 36 sec) 
Heartbeat CPU 0 instructions: 110000000 cycles: 1200498976 heartbeat IPC: 0.052678 cumulative IPC: 0.0529668 (Simulation time: 0 hr 18 min 51 sec) 
Heartbeat CPU 0 instructions: 120000001 cycles: 1389524085 heartbeat IPC: 0.052903 cumulative IPC: 0.0529577 (Simulation time: 0 hr 21 min 6 sec) 
Heartbeat CPU 0 instructions: 130000000 cycles: 1577362141 heartbeat IPC: 0.0532373 cumulative IPC: 0.0529925 (Simulation time: 0 hr 23 min 19 sec) 
Heartbeat CPU 0 instructions: 140000002 cycles: 1766065282 heartbeat IPC: 0.0529933 cumulative IPC: 0.0529926 (Simulation time: 0 hr 25 min 33 sec) 
Heartbeat CPU 0 instructions: 150000001 cycles: 1955388939 heartbeat IPC: 0.0528196 cumulative IPC: 0.0529752 (Simulation time: 0 hr 27 min 46 sec) 
Heartbeat CPU 0 instructions: 160000001 cycles: 2144568065 heartbeat IPC: 0.05286 cumulative IPC: 0.0529647 (Simulation time: 0 hr 29 min 58 sec) 
Heartbeat CPU 0 instructions: 170000003 cycles: 2332419623 heartbeat IPC: 0.0532335 cumulative IPC: 0.052987 (Simulation time: 0 hr 32 min 9 sec) 
Heartbeat CPU 0 instructions: 180000001 cycles: 2521266584 heartbeat IPC: 0.0529529 cumulative IPC: 0.0529844 (Simulation time: 0 hr 34 min 26 sec) 
Heartbeat CPU 0 instructions: 190000000 cycles: 2655657890 heartbeat IPC: 0.0744096 cumulative IPC: 0.054097 (Simulation time: 0 hr 36 min 10 sec) 
Heartbeat CPU 0 instructions: 200000002 cycles: 2697645840 heartbeat IPC: 0.238164 cumulative IPC: 0.0570357 (Simulation time: 0 hr 36 min 57 sec) 
Heartbeat CPU 0 instructions: 210000001 cycles: 2886843588 heartbeat IPC: 0.0528547 cumulative IPC: 0.0567551 (Simulation time: 0 hr 39 min 13 sec) 
Heartbeat CPU 0 instructions: 220000000 cycles: 3076165486 heartbeat IPC: 0.0528201 cumulative IPC: 0.0565075 (Simulation time: 0 hr 41 min 30 sec) 
Heartbeat CPU 0 instructions: 230000000 cycles: 3266317300 heartbeat IPC: 0.0525896 cumulative IPC: 0.0562746 (Simulation time: 0 hr 43 min 47 sec) 
Heartbeat CPU 0 instructions: 240000002 cycles: 3454359960 heartbeat IPC: 0.0531794 cumulative IPC: 0.0561027 (Simulation time: 0 hr 46 min 5 sec) 
Heartbeat CPU 0 instructions: 250000003 cycles: 3643793263 heartbeat IPC: 0.052789 cumulative IPC: 0.0559272 (Simulation time: 0 hr 48 min 20 sec) 
Finished CPU 0 instructions: 200000000 cycles: 3576078587 cumulative IPC: 0.0559272 (Simulation time: 0 hr 48 min 20 sec) 
 Instruction ID: 250000385

ChampSim completed all CPUs

Region of Interest Statistics

CPU 0 cumulative IPC: 0.0559272 instructions: 200000000 cycles: 3576078587
ITLB SPEC fills:          0  NON-SPEC fills:          0
ITLB Test counter :          0
ITLB Leapfrog:          0
ITLB MSHR merge:          0
ITLB TOTAL     ACCESS:   58853021  HIT:   58853021  MISS:          0  HIT %:        100  MISS %:          0   MPKI: 0
ITLB LOAD TRANSLATION NON_SPEC    ACCESS:   58853021  HIT:   58853021  MISS:          0  HIT %:        100  MISS %:          0   MPKI: 0
ITLB PREFETCH  REQUESTED:          0  ISSUED:          0  USEFUL:          0  USELESS:          0
ITLB USEFUL LOAD PREFETCHES:          0 PREFETCH ISSUED TO LOWER LEVEL:          0  ACCURACY: -nan
ITLB TIMELY PREFETCHES:          0 LATE PREFETCHES: 0 DROPPED PREFETCHES: 0
ITLB COMMIT LATE PREFETCHES: 0 MISSED OPPORTUNITY: 0 LATE IN PQ: 0 UNCOVERED: 0
ITLB COMMIT LATE MSHR PREFETCHES: 0
ITLB MPKI TOTAL: 0 MSHR LATE: 0 PQ LATE: 0 COMMIT LATE: 0 MISSED OPPORTUNITY: 0 UNCOVERED: 0
ITLB PREFETCHES SAME FILL-ORIGIN LEVEL: 0 DIFFERENT FILL-ORIGIN LEVEL: 0
ITLB AVERAGE MISS LATENCY: -nan cycles
ITLB AVERAGE MISS LATENCY LOAD: -nan cycles
ITLB AVERAGE MISS LATENCY PREFETCH: -nan cycles
ITLB AVERAGE MSHR OCCUPANCY: 0
ITLB MSHR FULL: 0
ITLB RQ	ACCESS:   59981029	FORWARD:          0	MERGED:    1128007	TO_CACHE:   58853022

DTLB SPEC fills:          0  NON-SPEC fills:          0
DTLB Test counter :          0
DTLB Leapfrog:          0
DTLB MSHR merge:          0
DTLB TOTAL     ACCESS:   71337184  HIT:   48339755  MISS:   22997429  HIT %:    67.7624  MISS %:    32.2376   MPKI: 114.987
DTLB LOAD TRANSLATION NON_SPEC    ACCESS:   71337184  HIT:   48339755  MISS:   22997429  HIT %:    67.7624  MISS %:    32.2376   MPKI: 114.987
DTLB PREFETCH  REQUESTED:          0  ISSUED:          0  USEFUL:          0  USELESS:          0
DTLB USEFUL LOAD PREFETCHES:          0 PREFETCH ISSUED TO LOWER LEVEL:          0  ACCURACY: -nan
DTLB TIMELY PREFETCHES:          0 LATE PREFETCHES: 0 DROPPED PREFETCHES: 0
DTLB COMMIT LATE PREFETCHES: 0 MISSED OPPORTUNITY: 0 LATE IN PQ: 0 UNCOVERED: 0
DTLB COMMIT LATE MSHR PREFETCHES: 0
DTLB MPKI TOTAL: 0 MSHR LATE: 0 PQ LATE: 0 COMMIT LATE: 0 MISSED OPPORTUNITY: 0 UNCOVERED: 0
DTLB PREFETCHES SAME FILL-ORIGIN LEVEL: 0 DIFFERENT FILL-ORIGIN LEVEL: 0
DTLB AVERAGE MISS LATENCY: 9.30647 cycles
DTLB AVERAGE MISS LATENCY LOAD: -nan cycles
DTLB AVERAGE MISS LATENCY PREFETCH: -nan cycles
DTLB AVERAGE MSHR OCCUPANCY: 0.196233
DTLB MSHR FULL: 0
DTLB RQ	ACCESS:   72231141	FORWARD:          0	MERGED:     884603	TO_CACHE:   71346538

STLB SPEC fills:          0  NON-SPEC fills:          0
STLB Test counter :          0
STLB Leapfrog:          0
STLB MSHR merge:          0
STLB TOTAL     ACCESS:   22997428  HIT:   22956610  MISS:      40818  HIT %:    99.8225  MISS %:   0.177489   MPKI: 0.20409
STLB LOAD TRANSLATION NON_SPEC    ACCESS:   22997428  HIT:   22956610  MISS:      40818  HIT %:    99.8225  MISS %:   0.177489   MPKI: 0.20409
STLB PREFETCH  REQUESTED:          0  ISSUED:          0  USEFUL:          0  USELESS:          0
STLB USEFUL LOAD PREFETCHES:          0 PREFETCH ISSUED TO LOWER LEVEL:          0  ACCURACY: -nan
STLB TIMELY PREFETCHES:          0 LATE PREFETCHES: 0 DROPPED PREFETCHES: 0
STLB COMMIT LATE PREFETCHES: 0 MISSED OPPORTUNITY: 0 LATE IN PQ: 0 UNCOVERED: 0
STLB COMMIT LATE MSHR PREFETCHES: 0
STLB MPKI TOTAL: 0 MSHR LATE: 0 PQ LATE: 0 COMMIT LATE: 0 MISSED OPPORTUNITY: 0 UNCOVERED: 0
STLB PREFETCHES SAME FILL-ORIGIN LEVEL: 0 DIFFERENT FILL-ORIGIN LEVEL: 0
STLB AVERAGE MISS LATENCY: 163.858 cycles
STLB AVERAGE MISS LATENCY LOAD: -nan cycles
STLB AVERAGE MISS LATENCY PREFETCH: -nan cycles
STLB AVERAGE MSHR OCCUPANCY: 0.00118461
STLB MSHR FULL: 0
STLB RQ	ACCESS:   22997428	FORWARD:          0	MERGED:          0	TO_CACHE:   22997428

STLB Hit, L1D data hit: 0
STLB Hit, L2C data hit: 0
STLB Hit, LLC data hit: 0
STLB Hit, LLC data miss: 0
STLB STLB hints to L2: 0
L0D SPEC fills:    5582741  NON-SPEC fills:          0
L0D TimeGuard Request with older TS:      69549 Restricted eviction:      11404 read:      25708
L0D Test counter :          0
L0D Leapfrog:          0
L0D MSHR merge:    3144728
L0D TOTAL     ACCESS:   65780597  HIT:   22641613  MISS:   43138984  HIT %:    34.4199  MISS %:    65.5801   MPKI: 215.695
L0D LOAD      TOTAL       ACCESS:   65780597  HIT:   22641613  MISS:   43138984  HIT %:    34.4199  MISS %:    65.5801   MPKI: 215.695
L0D LOAD      NON_SPEC    ACCESS:   37561534  HIT:      16695  MISS:   37544839  HIT %:  0.0444471  MISS %:    99.9556   MPKI: 187.724
L0D LOAD      SPEC        ACCESS:   28219063  HIT:   22624918  MISS:    5594145  HIT %:     80.176  MISS %:     19.824   MPKI: 27.9707
L0D PREFETCH  REQUESTED:          0  ISSUED:          0  USEFUL:          0  USELESS:          0
L0D USEFUL LOAD PREFETCHES:          0 PREFETCH ISSUED TO LOWER LEVEL:          0  ACCURACY: -nan
L0D TIMELY PREFETCHES:          0 LATE PREFETCHES: 0 DROPPED PREFETCHES: 0
L0D COMMIT LATE PREFETCHES: 0 MISSED OPPORTUNITY: 0 LATE IN PQ: 0 UNCOVERED: 0
L0D COMMIT LATE MSHR PREFETCHES: 0
L0D MPKI TOTAL: 231.419 MSHR LATE: 0 PQ LATE: 0 COMMIT LATE: 0 MISSED OPPORTUNITY: 0 UNCOVERED: 0
L0D PREFETCHES SAME FILL-ORIGIN LEVEL: 0 DIFFERENT FILL-ORIGIN LEVEL: 0
L0D AVERAGE MISS LATENCY: 71.7555 cycles
L0D AVERAGE MISS LATENCY LOAD: 71.7555 cycles
L0D AVERAGE MISS LATENCY PREFETCH: -nan cycles
L0D AVERAGE MSHR OCCUPANCY: 0.268161
L0D MSHR FULL: 0
L0D RQ	ACCESS:   77350916	FORWARD:          0	MERGED:    8425592	TO_CACHE:   68925324
L0D WQ	ACCESS:    3305817	FORWARD:          0	MERGED:          0	TO_CACHE:    3305817

L1D SPEC fills:          0  NON-SPEC fills:   31937604
L1D Test counter :          0
L1D Leapfrog:          0
L1D MSHR merge:         64
L1D TOTAL     ACCESS:   55984297  HIT:   18876720  MISS:   37107577  HIT %:    33.7179  MISS %:    66.2821   MPKI: 185.538
L1D LOAD      TOTAL       ACCESS:   43138920  HIT:    8624653  MISS:   34514267  HIT %:    19.9927  MISS %:    80.0073   MPKI: 172.571
L1D LOAD      NON_SPEC    ACCESS:   37544838  HIT:    5607234  MISS:   31937604  HIT %:    14.9348  MISS %:    85.0652   MPKI: 159.688
L1D LOAD      SPEC        ACCESS:    5594082  HIT:    3017419  MISS:    2576663  HIT %:    53.9395  MISS %:    46.0605   MPKI: 12.8833
L1D RFO       NON_SPEC    ACCESS:    2557826  HIT:    2492049  MISS:      65777  HIT %:    97.4284  MISS %:     2.5716   MPKI: 0.328885
L1D COMMIT LOAD NON_SPEC    ACCESS:    7573593  HIT:    7572950  MISS:        643  HIT %:    99.9915  MISS %: 0.00849003   MPKI: 0.003215
L1D COMMIT WRITE NON_SPEC    ACCESS:    2713958  HIT:     187068  MISS:    2526890  HIT %:    6.89281  MISS %:    93.1072   MPKI: 12.6344
L1D PREFETCH  REQUESTED:          0  ISSUED:          0  USEFUL:          0  USELESS:          0
L1D USEFUL LOAD PREFETCHES:          0 PREFETCH ISSUED TO LOWER LEVEL:          0  ACCURACY: -nan
L1D TIMELY PREFETCHES:          0 LATE PREFETCHES: 0 DROPPED PREFETCHES: 0
L1D COMMIT LATE PREFETCHES: 0 MISSED OPPORTUNITY: 0 LATE IN PQ: 0 UNCOVERED: 0
L1D COMMIT LATE MSHR PREFETCHES: 0
L1D MPKI TOTAL: 172.572 MSHR LATE: 0 PQ LATE: 0 COMMIT LATE: 0 MISSED OPPORTUNITY: 0 UNCOVERED: 0
L1D PREFETCHES SAME FILL-ORIGIN LEVEL: 0 DIFFERENT FILL-ORIGIN LEVEL: 0
L1D AVERAGE MISS LATENCY: 77.9612 cycles
L1D AVERAGE MISS LATENCY LOAD: 83.4283 cycles
L1D AVERAGE MISS LATENCY PREFETCH: -nan cycles
L1D AVERAGE MSHR OCCUPANCY: 0.0949906
L1D MSHR FULL: 0
L1D RQ	ACCESS:   50781915	FORWARD:          0	MERGED:      64381	TO_CACHE:   50712583
L1D WQ	ACCESS:    6020234	FORWARD:       4951	MERGED:       3835	TO_CACHE:    6016399

L1D UNIQUE REGIONS ACCESSED: 0
L1D REGIONS CONFLICTS: 0
L1D Cross Page Prefetch Requests: 0
L1D Same Page Prefetch Requests: 0
L1D ROI Sum of L1D PQ occupancy: 0
L1D PREFETCHES PUSHED FROM L2C: 0
L1I SPEC fills:          0  NON-SPEC fills:          0
L1I Test counter :          0
L1I Leapfrog:          0
L1I MSHR merge:          1
L1I TOTAL     ACCESS:   59981027  HIT:   59981006  MISS:         21  HIT %:        100  MISS %: 3.50111e-05   MPKI: 0.000105
L1I LOAD      TOTAL       ACCESS:   59981027  HIT:   59981006  MISS:         21  HIT %:        100  MISS %: 3.50111e-05   MPKI: 0.000105
L1I LOAD      NON_SPEC    ACCESS:   59981027  HIT:   59981006  MISS:         21  HIT %:        100  MISS %: 3.50111e-05   MPKI: 0.000105
L1I PREFETCH  REQUESTED:          0  ISSUED:          0  USEFUL:          0  USELESS:          0
L1I USEFUL LOAD PREFETCHES:          0 PREFETCH ISSUED TO LOWER LEVEL:          0  ACCURACY: -nan
L1I TIMELY PREFETCHES:          0 LATE PREFETCHES: 0 DROPPED PREFETCHES: 0
L1I COMMIT LATE PREFETCHES: 0 MISSED OPPORTUNITY: 0 LATE IN PQ: 0 UNCOVERED: 0
L1I COMMIT LATE MSHR PREFETCHES: 0
L1I MPKI TOTAL: 0.00011 MSHR LATE: 0 PQ LATE: 0 COMMIT LATE: 0 MISSED OPPORTUNITY: 0 UNCOVERED: 0
L1I PREFETCHES SAME FILL-ORIGIN LEVEL: 0 DIFFERENT FILL-ORIGIN LEVEL: 0
L1I AVERAGE MISS LATENCY: 147.333 cycles
L1I AVERAGE MISS LATENCY LOAD: 147.333 cycles
L1I AVERAGE MISS LATENCY PREFETCH: -nan cycles
L1I AVERAGE MSHR OCCUPANCY: 1.33376e-07
L1I MSHR FULL: 0
L1I RQ	ACCESS:   71104114	FORWARD:          0	MERGED:   11123085	TO_CACHE:   59981029

BTB SPEC fills:          0  NON-SPEC fills:          0
BTB Test counter :          0
BTB Leapfrog:          0
BTB MSHR merge:          0
BTB TOTAL     ACCESS:   37022761  HIT:   37022589  MISS:        172  HIT %:    99.9995  MISS %: 0.000464579   MPKI: 0.00086
BTB BRANCH_DIRECT_JUMP	ACCESS:         66  HIT:         33  MISS:         33
BTB BRANCH_INDIRECT	ACCESS:          4  HIT:          0  MISS:          4
BTB BRANCH_CONDITIONAL	ACCESS:   37022625  HIT:   37022536  MISS:         89
BTB BRANCH_DIRECT_CALL	ACCESS:         28  HIT:         10  MISS:         18
BTB BRANCH_INDIRECT_CALL	ACCESS:          5  HIT:          1  MISS:          4
BTB BRANCH_RETURN	ACCESS:         33  HIT:          9  MISS:         24
BTB BRANCH_OTHER ACCESS:          0  HIT:          0  MISS:          0

L2C SPEC fills:          0  NON-SPEC fills:   23392170
L2C Test counter :          0
L2C Leapfrog:          0
L2C MSHR merge:     293809
L2C TOTAL     ACCESS:   60815206  HIT:   16101359  MISS:   44713847  HIT %:    26.4759  MISS %:    73.5241   MPKI: 223.569
L2C LOAD      TOTAL       ACCESS:   34514288  HIT:   10955369  MISS:   23558919  HIT %:    31.7415  MISS %:    68.2585   MPKI: 117.795
L2C LOAD      NON_SPEC    ACCESS:   31937625  HIT:    8545434  MISS:   23392191  HIT %:    26.7566  MISS %:    73.2434   MPKI: 116.961
L2C LOAD      SPEC        ACCESS:    2576663  HIT:    2409935  MISS:     166728  HIT %:    93.5293  MISS %:    6.47069   MPKI: 0.83364
L2C RFO       NON_SPEC    ACCESS:      65777  HIT:        313  MISS:      65464  HIT %:    0.47585  MISS %:    99.5241   MPKI: 0.32732
L2C PREFETCH  NON_SPEC    ACCESS:   25596151  HIT:    4646532  MISS:   20949619  HIT %:    18.1532  MISS %:    81.8468   MPKI: 104.748
L2C WRITEBACK NON_SPEC    ACCESS:      74148  HIT:      73221  MISS:        927  HIT %:    98.7498  MISS %:     1.2502   MPKI: 0.004635
L2C CLEAN_EVICTION NON_SPEC    ACCESS:     360156  HIT:     236811  MISS:     123345  HIT %:    65.7523  MISS %:    34.2477   MPKI: 0.616725
L2C COMMIT LOAD NON_SPEC    ACCESS:        643  HIT:        632  MISS:         11  HIT %:    98.2893  MISS %:    1.71073   MPKI: 5.5e-05
L2C LOAD TRANSLATION NON_SPEC    ACCESS:     204043  HIT:     188481  MISS:      15562  HIT %:    92.3732  MISS %:    7.62682   MPKI: 0.07781
L2C PREFETCH  REQUESTED:   25895582  ISSUED:   25895582  USEFUL:    3586543  USELESS:   17363163
L2C USEFUL LOAD PREFETCHES:    3586543 PREFETCH ISSUED TO LOWER LEVEL:   21243430  ACCURACY: 16.8831
L2C TIMELY PREFETCHES:    3586543 LATE PREFETCHES: 293811 DROPPED PREFETCHES: 0
L2C COMMIT LATE PREFETCHES: 0 MISSED OPPORTUNITY: 0 LATE IN PQ: 0 UNCOVERED: 0
L2C COMMIT LATE MSHR PREFETCHES: 0
L2C MPKI TOTAL: 117.795 MSHR LATE: 1.46905 PQ LATE: 0 COMMIT LATE: 0 MISSED OPPORTUNITY: 0 UNCOVERED: 0
L2C PREFETCHES SAME FILL-ORIGIN LEVEL: 21243430 DIFFERENT FILL-ORIGIN LEVEL: 0
L2C AVERAGE MISS LATENCY: 114.629 cycles
L2C AVERAGE MISS LATENCY LOAD: 100.798 cycles
L2C AVERAGE MISS LATENCY PREFETCH: 130.62 cycles
L2C AVERAGE MSHR OCCUPANCY: 1.19422
L2C MSHR FULL: 0.00019945
L2C RQ	ACCESS:   34784751	FORWARD:          0	MERGED:          0	TO_CACHE:   34784751
L2C WQ	ACCESS:     434304	FORWARD:          0	MERGED:          0	TO_CACHE:     434304
L2C PQ	ACCESS:   25895582	FORWARD:          0	MERGED:          0	TO_CACHE:   25895582

L2C Instructions Evicting Data 21
L2C Translations Evicting Data 15561
L2C Data Evicting Data 44391756
L2C Instructions Evicting Instructions 0
L2C Translations Evicting Instructions 0
L2C Data Evicting Instructions 21
L2C Instructions Evicting Translations 0
L2C Translations Evicting Translations 1
L2C Data Evicting Translations 15487
L2C Dense regions hint from L2: 0
PSCL5 SPEC fills:          0  NON-SPEC fills:          0
PSCL5 Test counter :          0
PSCL5 Leapfrog:          0
PSCL5 MSHR merge:          0
PSCL5 TOTAL     ACCESS:          0  HIT:          0  MISS:          0  HIT %:       -nan  MISS %:       -nan   MPKI: 0
PSCL5 PREFETCH  REQUESTED:          0  ISSUED:          0  USEFUL:          0  USELESS:          0
PSCL5 USEFUL LOAD PREFETCHES:          0 PREFETCH ISSUED TO LOWER LEVEL:          0  ACCURACY: -nan
PSCL5 TIMELY PREFETCHES:          0 LATE PREFETCHES: 0 DROPPED PREFETCHES: 0
PSCL5 COMMIT LATE PREFETCHES: 0 MISSED OPPORTUNITY: 0 LATE IN PQ: 0 UNCOVERED: 0
PSCL5 COMMIT LATE MSHR PREFETCHES: 0
PSCL5 MPKI TOTAL: 0 MSHR LATE: 0 PQ LATE: 0 COMMIT LATE: 0 MISSED OPPORTUNITY: 0 UNCOVERED: 0
PSCL5 PREFETCHES SAME FILL-ORIGIN LEVEL: 0 DIFFERENT FILL-ORIGIN LEVEL: 0

PSCL4 SPEC fills:          0  NON-SPEC fills:          0
PSCL4 Test counter :          0
PSCL4 Leapfrog:          0
PSCL4 MSHR merge:          0
PSCL4 TOTAL     ACCESS:          0  HIT:          0  MISS:          0  HIT %:       -nan  MISS %:       -nan   MPKI: 0
PSCL4 PREFETCH  REQUESTED:          0  ISSUED:          0  USEFUL:          0  USELESS:          0
PSCL4 USEFUL LOAD PREFETCHES:          0 PREFETCH ISSUED TO LOWER LEVEL:          0  ACCURACY: -nan
PSCL4 TIMELY PREFETCHES:          0 LATE PREFETCHES: 0 DROPPED PREFETCHES: 0
PSCL4 COMMIT LATE PREFETCHES: 0 MISSED OPPORTUNITY: 0 LATE IN PQ: 0 UNCOVERED: 0
PSCL4 COMMIT LATE MSHR PREFETCHES: 0
PSCL4 MPKI TOTAL: 0 MSHR LATE: 0 PQ LATE: 0 COMMIT LATE: 0 MISSED OPPORTUNITY: 0 UNCOVERED: 0
PSCL4 PREFETCHES SAME FILL-ORIGIN LEVEL: 0 DIFFERENT FILL-ORIGIN LEVEL: 0

PSCL3 SPEC fills:          0  NON-SPEC fills:          0
PSCL3 Test counter :          0
PSCL3 Leapfrog:          0
PSCL3 MSHR merge:          0
PSCL3 TOTAL     ACCESS:          0  HIT:          0  MISS:          0  HIT %:       -nan  MISS %:       -nan   MPKI: 0
PSCL3 PREFETCH  REQUESTED:          0  ISSUED:          0  USEFUL:          0  USELESS:          0
PSCL3 USEFUL LOAD PREFETCHES:          0 PREFETCH ISSUED TO LOWER LEVEL:          0  ACCURACY: -nan
PSCL3 TIMELY PREFETCHES:          0 LATE PREFETCHES: 0 DROPPED PREFETCHES: 0
PSCL3 COMMIT LATE PREFETCHES: 0 MISSED OPPORTUNITY: 0 LATE IN PQ: 0 UNCOVERED: 0
PSCL3 COMMIT LATE MSHR PREFETCHES: 0
PSCL3 MPKI TOTAL: 0 MSHR LATE: 0 PQ LATE: 0 COMMIT LATE: 0 MISSED OPPORTUNITY: 0 UNCOVERED: 0
PSCL3 PREFETCHES SAME FILL-ORIGIN LEVEL: 0 DIFFERENT FILL-ORIGIN LEVEL: 0

PSCL2 SPEC fills:          0  NON-SPEC fills:          0
PSCL2 Test counter :          0
PSCL2 Leapfrog:          0
PSCL2 MSHR merge:          0
PSCL2 TOTAL     ACCESS:          0  HIT:          0  MISS:          0  HIT %:       -nan  MISS %:       -nan   MPKI: 0
PSCL2 PREFETCH  REQUESTED:          0  ISSUED:          0  USEFUL:          0  USELESS:          0
PSCL2 USEFUL LOAD PREFETCHES:          0 PREFETCH ISSUED TO LOWER LEVEL:          0  ACCURACY: -nan
PSCL2 TIMELY PREFETCHES:          0 LATE PREFETCHES: 0 DROPPED PREFETCHES: 0
PSCL2 COMMIT LATE PREFETCHES: 0 MISSED OPPORTUNITY: 0 LATE IN PQ: 0 UNCOVERED: 0
PSCL2 COMMIT LATE MSHR PREFETCHES: 0
PSCL2 MPKI TOTAL: 0 MSHR LATE: 0 PQ LATE: 0 COMMIT LATE: 0 MISSED OPPORTUNITY: 0 UNCOVERED: 0
PSCL2 PREFETCHES SAME FILL-ORIGIN LEVEL: 0 DIFFERENT FILL-ORIGIN LEVEL: 0

LLC SPEC fills:          0  NON-SPEC fills:   10135116
LLC Test counter :          0
LLC Leapfrog:          0
LLC MSHR merge:          0
LLC TOTAL     ACCESS:   45010882  HIT:   21205744  MISS:   23805138  HIT %:    47.1125  MISS %:    52.8875   MPKI: 119.026
LLC LOAD      TOTAL       ACCESS:   23265110  HIT:   12976320  MISS:   10288790  HIT %:    55.7759  MISS %:    44.2241   MPKI: 51.444
LLC LOAD      NON_SPEC    ACCESS:   23107828  HIT:   12972691  MISS:   10135137  HIT %:    56.1398  MISS %:    43.8602   MPKI: 50.6757
LLC LOAD      SPEC        ACCESS:     157282  HIT:       3629  MISS:     153653  HIT %:    2.30732  MISS %:    97.6927   MPKI: 0.768265
LLC RFO       NON_SPEC    ACCESS:      65462  HIT:       1558  MISS:      63904  HIT %:    2.38001  MISS %:      97.62   MPKI: 0.31952
LLC PREFETCH  NON_SPEC    ACCESS:   21243430  HIT:    7907590  MISS:   13335840  HIT %:    37.2237  MISS %:    62.7763   MPKI: 66.6792
LLC WRITEBACK NON_SPEC    ACCESS:      67278  HIT:      66829  MISS:        449  HIT %:    99.3326  MISS %:    0.66738   MPKI: 0.002245
LLC CLEAN_EVICTION NON_SPEC    ACCESS:     354029  HIT:     245686  MISS:     108343  HIT %:    69.3971  MISS %:    30.6029   MPKI: 0.541715
LLC COMMIT LOAD NON_SPEC    ACCESS:         11  HIT:          8  MISS:          3  HIT %:    72.7273  MISS %:    27.2727   MPKI: 1.5e-05
LLC LOAD TRANSLATION NON_SPEC    ACCESS:      15562  HIT:       7753  MISS:       7809  HIT %:    49.8201  MISS %:    50.1799   MPKI: 0.039045
LLC PREFETCH  REQUESTED:          0  ISSUED:          0  USEFUL:    1654817  USELESS:   11683418
LLC USEFUL LOAD PREFETCHES:    1654817 PREFETCH ISSUED TO LOWER LEVEL:   13335841  ACCURACY: 12.4088
LLC TIMELY PREFETCHES:    1654817 LATE PREFETCHES: 0 DROPPED PREFETCHES: 0
LLC COMMIT LATE PREFETCHES: 0 MISSED OPPORTUNITY: 0 LATE IN PQ: 0 UNCOVERED: 0
LLC COMMIT LATE MSHR PREFETCHES: 0
LLC MPKI TOTAL: 51.444 MSHR LATE: 0 PQ LATE: 0 COMMIT LATE: 0 MISSED OPPORTUNITY: 0 UNCOVERED: 0
LLC PREFETCHES SAME FILL-ORIGIN LEVEL: 0 DIFFERENT FILL-ORIGIN LEVEL: 0
LLC AVERAGE MISS LATENCY: 159.355 cycles
LLC AVERAGE MISS LATENCY LOAD: 160.619 cycles
LLC AVERAGE MISS LATENCY PREFETCH: 159.644 cycles
LLC AVERAGE MSHR OCCUPANCY: 0.816838
LLC MSHR FULL: 0
LLC RQ	ACCESS:   23346145	FORWARD:          0	MERGED:          0	TO_CACHE:   23346145
LLC WQ	ACCESS:     421307	FORWARD:          0	MERGED:          0	TO_CACHE:     421307
LLC PQ	ACCESS:   21243430	FORWARD:          0	MERGED:          0	TO_CACHE:   21243430

LLC Dense regions hint to LLC: 0

RAW hits: 25
Loads Generated: 77350942
Loads sent to L1D: 77350916
Stores Generated: 3305817
Stores sent to L1D: 3305817
Major fault: 0 Minor fault: 34901
Allocated PAGES: 34901
Total Load insts: 95645184
Total Non-spec loads: 44857013
Percentage of speculative loads: 53.1006

LeapFrogging counter: 595
Commit hits: 5582458 miss: 34174766
Commit hit %: 14.0414 miss %: 85.9586
Commits not translated: 0
Loads retired: 34514264
Stores retired: 3305817
Cache fills: 34514267
L1D response latency: 83.4283 cycles
Load retirement latency: 229.502 cycles
OOO test counter: 0
Discarded buffer inserts: 5582458 hits: 55178 hit %: 0.988418
Filter prediction accuracy: 99.9132
[Bingo] PHT Access: 25101423
[Bingo] PHT Hit PC+Addr: 1503048
[Bingo] PHT Hit PC+Offs: 23495242
[Bingo] PHT Miss: 103133
[Bingo] Prefetch PC+Addr: 0
[Bingo] Prefetch PC+Offs: 0
[Bingo] Useful PC+Addr: 0
[Bingo] Useful PC+Offs: 0
[Bingo] Useless PC+Addr: 0
[Bingo] Useless PC+Offs: 0
[Bingo] L1 Prefetch per Region: 0
[Bingo] L2 Prefetch per Region: 2.0392
[Bingo] L3 Prefetch per Region: 0
[Bingo] No Prefetch per Region: 29.9608
[Bingo] Number of Voters Mean: 16
[Bingo] Number of Voters SD: 7.2193
PHT read accesses: 388625578
PHT write accesses: 4302171
AT read accesses: 49358426
AT write accesses: 51659835
FT read accesses: 23892928
FT write accesses: 25101423
PS read accesses: 50203858
PS write accesses: 24998290
PHT tag read accesses: 525128803
PHT tag write accesses: 5805219
AT tag read accesses: 2140876603
AT tag write accesses: 53660592
FT tag read accesses: 2089800603
FT tag write accesses: 39800334
PS tag read accesses: 2065012002
PS tag write accesses: 75185362

DRAM Statistics
 CHANNEL 0
 RQ ROW_BUFFER_HIT:    6399283  ROW_BUFFER_MISS:   17297058
 DBUS_CONGESTED:       1454
 WQ ROW_BUFFER_HIT:     216692  ROW_BUFFER_MISS:     203684  FULL:          0

 AVG_CONGESTED_CYCLE: 4
 All warmup complete: 2
Channel 0 Bank busy for read cycles: 0
Channel 0 Bank busy for write cycles: 0
Channel 0
Rank 0
0banks busy for read cycles: 1486376101
0banks busy for write cycles: 243379
1banks busy for read cycles: 1470565996
1banks busy for write cycles: 59807806
2banks busy for read cycles: 385426538
2banks busy for write cycles: 4690670
3banks busy for read cycles: 97015314
3banks busy for write cycles: 1465045
4banks busy for read cycles: 23551715
4banks busy for write cycles: 887641
5banks busy for read cycles: 9466161
5banks busy for write cycles: 739910
6banks busy for read cycles: 6750666
6banks busy for write cycles: 624132
7banks busy for read cycles: 8688531
7banks busy for write cycles: 693923
8banks busy for read cycles: 17414252
8banks busy for write cycles: 1670808

CPU 0 Branch Prediction Accuracy: 96.9509% MPKI: 5.6443 Average ROB Occupancy at Mispredict: 137.575
Branch types
NOT_BRANCH: 162977012 81.4885%
BRANCH_DIRECT_JUMP: 66 3.3e-05%
BRANCH_INDIRECT: 4 2e-06%
BRANCH_CONDITIONAL: 37022851 18.5114%
BRANCH_DIRECT_CALL: 28 1.4e-05%
BRANCH_INDIRECT_CALL: 5 2.5e-06%
BRANCH_RETURN: 33 1.65e-05%
BRANCH_OTHER: 0 0%

DRAM PAGES: 1048576
Allocated PAGES: 34901
