
*** ChampSim Multicore Out-of-Order Simulator ***

Warmup Instructions: 50000000
Simulation Instructions: 200000000
Number of CPUs: 1
LLC sets: 2048
LLC ways: 16
L0D sets: 16
L0D ways: 2
ROB size: 352
LQ size: 128
SQ size: 72
Secure Berti: OFF
Berti: OFF
Berti Fill: OFF
On commit prefetching: ON
Hit-based filter: ON
Time-guarding: ON
Free-slotting: ON
Leap-frogging: ON
Train prefetcher on L0D bypass: OFF
No translation penalty for prefetchers: OFF
Prefetch to L0D only: OFF
Prefetch to L1D only: OFF
Clean evictions: ON
Commit loads: ON
Commit write: ON
Fill commit loads to L2C, LLC: ON
DRAM IO FREQUENCY: 6400
ROB SIZE: 352
Off-chip DRAM Size: 4096 MB Channels: 1 Width: 64-bit Data Rate: 6400 MT/s
CPU 0 runs /home/sumon/secure_berti/GhostMinion/../../traces/gap/pr-5.trace.gz
.gz
BTB has LRU replacement policy
ITLB has LRU replacement policy
DTLB has LRU replacement policy
STLB has LRU replacement policy
L1I has LRU replacement policy
L0D has LRU replacement policy
L1D has LRU replacement policy
Bingo PHT WAYS: 16 and PHT_SIZE: 16384
L2C has LRU replacement policy
LLC has LRU replacement policy
Heartbeat CPU 0 instructions: 10000001 cycles: 3333816 heartbeat IPC: 2.99957 cumulative IPC: 2.99957 (Simulation time: 0 hr 0 min 26 sec) 
Heartbeat CPU 0 instructions: 20000001 cycles: 17942783 heartbeat IPC: 0.684511 cumulative IPC: 1.11465 (Simulation time: 0 hr 1 min 41 sec) 
Heartbeat CPU 0 instructions: 30000000 cycles: 34522590 heartbeat IPC: 0.603143 cumulative IPC: 0.868996 (Simulation time: 0 hr 2 min 58 sec) 
Heartbeat CPU 0 instructions: 40000001 cycles: 51153158 heartbeat IPC: 0.601302 cumulative IPC: 0.781965 (Simulation time: 0 hr 4 min 16 sec) 
Heartbeat CPU 0 instructions: 50000003 cycles: 67741021 heartbeat IPC: 0.602851 cumulative IPC: 0.738105 (Simulation time: 0 hr 5 min 31 sec) 

Warmup complete CPU 0 instructions: 50000003 cycles: 67741021 (Simulation time: 0 hr 5 min 31 sec) 

Heartbeat CPU 0 instructions: 60000000 cycles: 255464647 heartbeat IPC: 0.0532698 cumulative IPC: 0.0532698 (Simulation time: 0 hr 7 min 58 sec) 
Heartbeat CPU 0 instructions: 70000002 cycles: 447510259 heartbeat IPC: 0.052071 cumulative IPC: 0.0526636 (Simulation time: 0 hr 10 min 18 sec) 
Heartbeat CPU 0 instructions: 80000001 cycles: 638909731 heartbeat IPC: 0.0522467 cumulative IPC: 0.0525239 (Simulation time: 0 hr 12 min 35 sec) 
Heartbeat CPU 0 instructions: 90000000 cycles: 829837183 heartbeat IPC: 0.0523759 cumulative IPC: 0.0524868 (Simulation time: 0 hr 14 min 50 sec) 
Heartbeat CPU 0 instructions: 100000000 cycles: 1020367527 heartbeat IPC: 0.0524851 cumulative IPC: 0.0524865 (Simulation time: 0 hr 17 min 6 sec) 
Heartbeat CPU 0 instructions: 110000000 cycles: 1213748773 heartbeat IPC: 0.0517113 cumulative IPC: 0.0523557 (Simulation time: 0 hr 19 min 24 sec) 
Heartbeat CPU 0 instructions: 120000002 cycles: 1405204394 heartbeat IPC: 0.0522314 cumulative IPC: 0.0523379 (Simulation time: 0 hr 21 min 38 sec) 
Heartbeat CPU 0 instructions: 130000003 cycles: 1597709311 heartbeat IPC: 0.0519467 cumulative IPC: 0.0522887 (Simulation time: 0 hr 23 min 54 sec) 
Heartbeat CPU 0 instructions: 140000000 cycles: 1788369990 heartbeat IPC: 0.0524492 cumulative IPC: 0.0523065 (Simulation time: 0 hr 26 min 8 sec) 
Heartbeat CPU 0 instructions: 150000001 cycles: 1979998785 heartbeat IPC: 0.0521842 cumulative IPC: 0.0522942 (Simulation time: 0 hr 28 min 21 sec) 
Heartbeat CPU 0 instructions: 160000001 cycles: 2170618425 heartbeat IPC: 0.0524605 cumulative IPC: 0.0523093 (Simulation time: 0 hr 30 min 33 sec) 
Heartbeat CPU 0 instructions: 170000001 cycles: 2363064383 heartbeat IPC: 0.0519626 cumulative IPC: 0.0522802 (Simulation time: 0 hr 32 min 48 sec) 
Heartbeat CPU 0 instructions: 180000000 cycles: 2554603366 heartbeat IPC: 0.0522087 cumulative IPC: 0.0522747 (Simulation time: 0 hr 35 min 7 sec) 
Heartbeat CPU 0 instructions: 190000000 cycles: 2694097586 heartbeat IPC: 0.0716876 cumulative IPC: 0.0533058 (Simulation time: 0 hr 36 min 52 sec) 
Heartbeat CPU 0 instructions: 200000003 cycles: 2736709177 heartbeat IPC: 0.234678 cumulative IPC: 0.0562015 (Simulation time: 0 hr 37 min 39 sec) 
Heartbeat CPU 0 instructions: 210000001 cycles: 2928903283 heartbeat IPC: 0.0520307 cumulative IPC: 0.0559213 (Simulation time: 0 hr 39 min 58 sec) 
Heartbeat CPU 0 instructions: 220000000 cycles: 3119680253 heartbeat IPC: 0.0524172 cumulative IPC: 0.0557023 (Simulation time: 0 hr 42 min 15 sec) 
Heartbeat CPU 0 instructions: 230000001 cycles: 3311897977 heartbeat IPC: 0.0520243 cumulative IPC: 0.0554844 (Simulation time: 0 hr 44 min 33 sec) 
Heartbeat CPU 0 instructions: 240000000 cycles: 3502659363 heartbeat IPC: 0.0524215 cumulative IPC: 0.0553143 (Simulation time: 0 hr 46 min 51 sec) 
Heartbeat CPU 0 instructions: 250000003 cycles: 3690321487 heartbeat IPC: 0.0532873 cumulative IPC: 0.0552093 (Simulation time: 0 hr 49 min 5 sec) 
Finished CPU 0 instructions: 200000000 cycles: 3622580466 cumulative IPC: 0.0552093 (Simulation time: 0 hr 49 min 5 sec) 
 Instruction ID: 250000346

ChampSim completed all CPUs

Region of Interest Statistics

CPU 0 cumulative IPC: 0.0552093 instructions: 200000000 cycles: 3622580466
ITLB SPEC fills:          0  NON-SPEC fills:          0
ITLB Test counter :          0
ITLB Leapfrog:          0
ITLB MSHR merge:          0
ITLB TOTAL     ACCESS:   58880085  HIT:   58880085  MISS:          0  HIT %:        100  MISS %:          0   MPKI: 0
ITLB LOAD TRANSLATION NON_SPEC    ACCESS:   58880085  HIT:   58880085  MISS:          0  HIT %:        100  MISS %:          0   MPKI: 0
ITLB PREFETCH  REQUESTED:          0  ISSUED:          0  USEFUL:          0  USELESS:          0
ITLB USEFUL LOAD PREFETCHES:          0 PREFETCH ISSUED TO LOWER LEVEL:          0  ACCURACY: -nan
ITLB TIMELY PREFETCHES:          0 LATE PREFETCHES: 0 DROPPED PREFETCHES: 0
ITLB COMMIT LATE PREFETCHES: 0 MISSED OPPORTUNITY: 0 LATE IN PQ: 0 UNCOVERED: 0
ITLB COMMIT LATE MSHR PREFETCHES: 0
ITLB MPKI TOTAL: 0 MSHR LATE: 0 PQ LATE: 0 COMMIT LATE: 0 MISSED OPPORTUNITY: 0 UNCOVERED: 0
ITLB PREFETCHES SAME FILL-ORIGIN LEVEL: 0 DIFFERENT FILL-ORIGIN LEVEL: 0
ITLB AVERAGE MISS LATENCY: -nan cycles
ITLB AVERAGE MISS LATENCY LOAD: -nan cycles
ITLB AVERAGE MISS LATENCY PREFETCH: -nan cycles
ITLB AVERAGE MSHR OCCUPANCY: 0
ITLB MSHR FULL: 0
ITLB RQ	ACCESS:   60005077	FORWARD:          0	MERGED:    1124992	TO_CACHE:   58880085

DTLB SPEC fills:          0  NON-SPEC fills:          0
DTLB Test counter :          0
DTLB Leapfrog:          0
DTLB MSHR merge:          0
DTLB TOTAL     ACCESS:   71296148  HIT:   48382334  MISS:   22913814  HIT %:    67.8611  MISS %:    32.1389   MPKI: 114.569
DTLB LOAD TRANSLATION NON_SPEC    ACCESS:   71296148  HIT:   48382334  MISS:   22913814  HIT %:    67.8611  MISS %:    32.1389   MPKI: 114.569
DTLB PREFETCH  REQUESTED:          0  ISSUED:          0  USEFUL:          0  USELESS:          0
DTLB USEFUL LOAD PREFETCHES:          0 PREFETCH ISSUED TO LOWER LEVEL:          0  ACCURACY: -nan
DTLB TIMELY PREFETCHES:          0 LATE PREFETCHES: 0 DROPPED PREFETCHES: 0
DTLB COMMIT LATE PREFETCHES: 0 MISSED OPPORTUNITY: 0 LATE IN PQ: 0 UNCOVERED: 0
DTLB COMMIT LATE MSHR PREFETCHES: 0
DTLB MPKI TOTAL: 0 MSHR LATE: 0 PQ LATE: 0 COMMIT LATE: 0 MISSED OPPORTUNITY: 0 UNCOVERED: 0
DTLB PREFETCHES SAME FILL-ORIGIN LEVEL: 0 DIFFERENT FILL-ORIGIN LEVEL: 0
DTLB AVERAGE MISS LATENCY: 9.3006 cycles
DTLB AVERAGE MISS LATENCY LOAD: -nan cycles
DTLB AVERAGE MISS LATENCY PREFETCH: -nan cycles
DTLB AVERAGE MSHR OCCUPANCY: 0.19573
DTLB MSHR FULL: 0
DTLB RQ	ACCESS:   72182551	FORWARD:          0	MERGED:     877475	TO_CACHE:   71305076

STLB SPEC fills:          0  NON-SPEC fills:          0
STLB Test counter :          0
STLB Leapfrog:          0
STLB MSHR merge:          0
STLB TOTAL     ACCESS:   22913813  HIT:   22872999  MISS:      40814  HIT %:    99.8219  MISS %:    0.17812   MPKI: 0.20407
STLB LOAD TRANSLATION NON_SPEC    ACCESS:   22913813  HIT:   22872999  MISS:      40814  HIT %:    99.8219  MISS %:    0.17812   MPKI: 0.20407
STLB PREFETCH  REQUESTED:          0  ISSUED:          0  USEFUL:          0  USELESS:          0
STLB USEFUL LOAD PREFETCHES:          0 PREFETCH ISSUED TO LOWER LEVEL:          0  ACCURACY: -nan
STLB TIMELY PREFETCHES:          0 LATE PREFETCHES: 0 DROPPED PREFETCHES: 0
STLB COMMIT LATE PREFETCHES: 0 MISSED OPPORTUNITY: 0 LATE IN PQ: 0 UNCOVERED: 0
STLB COMMIT LATE MSHR PREFETCHES: 0
STLB MPKI TOTAL: 0 MSHR LATE: 0 PQ LATE: 0 COMMIT LATE: 0 MISSED OPPORTUNITY: 0 UNCOVERED: 0
STLB PREFETCHES SAME FILL-ORIGIN LEVEL: 0 DIFFERENT FILL-ORIGIN LEVEL: 0
STLB AVERAGE MISS LATENCY: 160.005 cycles
STLB AVERAGE MISS LATENCY LOAD: -nan cycles
STLB AVERAGE MISS LATENCY PREFETCH: -nan cycles
STLB AVERAGE MSHR OCCUPANCY: 0.00112504
STLB MSHR FULL: 0
STLB RQ	ACCESS:   22913813	FORWARD:          0	MERGED:          0	TO_CACHE:   22913813

STLB Hit, L1D data hit: 0
STLB Hit, L2C data hit: 0
STLB Hit, LLC data hit: 0
STLB Hit, LLC data miss: 0
STLB STLB hints to L2: 0
L0D SPEC fills:    5545308  NON-SPEC fills:          0
L0D TimeGuard Request with older TS:      70037 Restricted eviction:      11202 read:      16716
L0D Test counter :          0
L0D Leapfrog:          0
L0D MSHR merge:    3117724
L0D TOTAL     ACCESS:   65764591  HIT:   22617836  MISS:   43146755  HIT %:    34.3921  MISS %:    65.6079   MPKI: 215.734
L0D LOAD      TOTAL       ACCESS:   65764591  HIT:   22617836  MISS:   43146755  HIT %:    34.3921  MISS %:    65.6079   MPKI: 215.734
L0D LOAD      NON_SPEC    ACCESS:   37611873  HIT:      21628  MISS:   37590245  HIT %:  0.0575031  MISS %:    99.9425   MPKI: 187.951
L0D LOAD      SPEC        ACCESS:   28152718  HIT:   22596208  MISS:    5556510  HIT %:     80.263  MISS %:     19.737   MPKI: 27.7826
L0D PREFETCH  REQUESTED:          0  ISSUED:          0  USEFUL:          0  USELESS:          0
L0D USEFUL LOAD PREFETCHES:          0 PREFETCH ISSUED TO LOWER LEVEL:          0  ACCURACY: -nan
L0D TIMELY PREFETCHES:          0 LATE PREFETCHES: 0 DROPPED PREFETCHES: 0
L0D COMMIT LATE PREFETCHES: 0 MISSED OPPORTUNITY: 0 LATE IN PQ: 0 UNCOVERED: 0
L0D COMMIT LATE MSHR PREFETCHES: 0
L0D MPKI TOTAL: 231.322 MSHR LATE: 0 PQ LATE: 0 COMMIT LATE: 0 MISSED OPPORTUNITY: 0 UNCOVERED: 0
L0D PREFETCHES SAME FILL-ORIGIN LEVEL: 0 DIFFERENT FILL-ORIGIN LEVEL: 0
L0D AVERAGE MISS LATENCY: 72.8274 cycles
L0D AVERAGE MISS LATENCY LOAD: 72.8274 cycles
L0D AVERAGE MISS LATENCY PREFETCH: -nan cycles
L0D AVERAGE MSHR OCCUPANCY: 0.267076
L0D MSHR FULL: 0
L0D RQ	ACCESS:   77353672	FORWARD:          0	MERGED:    8471358	TO_CACHE:   68882314
L0D WQ	ACCESS:    3300237	FORWARD:          0	MERGED:          0	TO_CACHE:    3300237

L1D SPEC fills:          0  NON-SPEC fills:   31908079
L1D Test counter :          0
L1D Leapfrog:          0
L1D MSHR merge:         67
L1D TOTAL     ACCESS:   56000648  HIT:   18927171  MISS:   37073477  HIT %:    33.7981  MISS %:    66.2019   MPKI: 185.367
L1D LOAD      TOTAL       ACCESS:   43146688  HIT:    8666632  MISS:   34480056  HIT %:    20.0864  MISS %:    79.9136   MPKI: 172.4
L1D LOAD      NON_SPEC    ACCESS:   37590245  HIT:    5682166  MISS:   31908079  HIT %:    15.1161  MISS %:    84.8839   MPKI: 159.54
L1D LOAD      SPEC        ACCESS:    5556443  HIT:    2984466  MISS:    2571977  HIT %:    53.7118  MISS %:    46.2882   MPKI: 12.8599
L1D RFO       NON_SPEC    ACCESS:    2595797  HIT:    2530035  MISS:      65762  HIT %:    97.4666  MISS %:     2.5334   MPKI: 0.32881
L1D COMMIT LOAD NON_SPEC    ACCESS:    7562750  HIT:    7562076  MISS:        674  HIT %:    99.9911  MISS %:  0.0089121   MPKI: 0.00337
L1D COMMIT WRITE NON_SPEC    ACCESS:    2695413  HIT:     168428  MISS:    2526985  HIT %:    6.24869  MISS %:    93.7513   MPKI: 12.6349
L1D PREFETCH  REQUESTED:          0  ISSUED:          0  USEFUL:          0  USELESS:          0
L1D USEFUL LOAD PREFETCHES:          0 PREFETCH ISSUED TO LOWER LEVEL:          0  ACCURACY: -nan
L1D TIMELY PREFETCHES:          0 LATE PREFETCHES: 0 DROPPED PREFETCHES: 0
L1D COMMIT LATE PREFETCHES: 0 MISSED OPPORTUNITY: 0 LATE IN PQ: 0 UNCOVERED: 0
L1D COMMIT LATE MSHR PREFETCHES: 0
L1D MPKI TOTAL: 172.401 MSHR LATE: 0 PQ LATE: 0 COMMIT LATE: 0 MISSED OPPORTUNITY: 0 UNCOVERED: 0
L1D PREFETCHES SAME FILL-ORIGIN LEVEL: 0 DIFFERENT FILL-ORIGIN LEVEL: 0
L1D AVERAGE MISS LATENCY: 79.2807 cycles
L1D AVERAGE MISS LATENCY LOAD: 84.8676 cycles
L1D AVERAGE MISS LATENCY PREFETCH: -nan cycles
L1D AVERAGE MSHR OCCUPANCY: 0.0923747
L1D MSHR FULL: 0
L1D RQ	ACCESS:   50754914	FORWARD:          0	MERGED:      44015	TO_CACHE:   50709513
L1D WQ	ACCESS:    5995955	FORWARD:       1386	MERGED:       3505	TO_CACHE:    5992450

L1D UNIQUE REGIONS ACCESSED: 0
L1D REGIONS CONFLICTS: 0
L1D Cross Page Prefetch Requests: 0
L1D Same Page Prefetch Requests: 0
L1D ROI Sum of L1D PQ occupancy: 0
L1D PREFETCHES PUSHED FROM L2C: 0
L1I SPEC fills:          0  NON-SPEC fills:          0
L1I Test counter :          0
L1I Leapfrog:          0
L1I MSHR merge:          1
L1I TOTAL     ACCESS:   60005076  HIT:   60005054  MISS:         22  HIT %:        100  MISS %: 3.66636e-05   MPKI: 0.00011
L1I LOAD      TOTAL       ACCESS:   60005076  HIT:   60005054  MISS:         22  HIT %:        100  MISS %: 3.66636e-05   MPKI: 0.00011
L1I LOAD      NON_SPEC    ACCESS:   60005076  HIT:   60005054  MISS:         22  HIT %:        100  MISS %: 3.66636e-05   MPKI: 0.00011
L1I PREFETCH  REQUESTED:          0  ISSUED:          0  USEFUL:          0  USELESS:          0
L1I USEFUL LOAD PREFETCHES:          0 PREFETCH ISSUED TO LOWER LEVEL:          0  ACCURACY: -nan
L1I TIMELY PREFETCHES:          0 LATE PREFETCHES: 0 DROPPED PREFETCHES: 0
L1I COMMIT LATE PREFETCHES: 0 MISSED OPPORTUNITY: 0 LATE IN PQ: 0 UNCOVERED: 0
L1I COMMIT LATE MSHR PREFETCHES: 0
L1I MPKI TOTAL: 0.000115 MSHR LATE: 0 PQ LATE: 0 COMMIT LATE: 0 MISSED OPPORTUNITY: 0 UNCOVERED: 0
L1I PREFETCHES SAME FILL-ORIGIN LEVEL: 0 DIFFERENT FILL-ORIGIN LEVEL: 0
L1I AVERAGE MISS LATENCY: 154.909 cycles
L1I AVERAGE MISS LATENCY LOAD: 154.909 cycles
L1I AVERAGE MISS LATENCY PREFETCH: -nan cycles
L1I AVERAGE MSHR OCCUPANCY: 1.33322e-07
L1I MSHR FULL: 0
L1I RQ	ACCESS:   71105939	FORWARD:          0	MERGED:   11100862	TO_CACHE:   60005077

BTB SPEC fills:          0  NON-SPEC fills:          0
BTB Test counter :          0
BTB Leapfrog:          0
BTB MSHR merge:          0
BTB TOTAL     ACCESS:   37026927  HIT:   37026756  MISS:        171  HIT %:    99.9995  MISS %: 0.000461826   MPKI: 0.000855
BTB BRANCH_DIRECT_JUMP	ACCESS:         66  HIT:         33  MISS:         33
BTB BRANCH_INDIRECT	ACCESS:          4  HIT:          0  MISS:          4
BTB BRANCH_CONDITIONAL	ACCESS:   37026791  HIT:   37026703  MISS:         88
BTB BRANCH_DIRECT_CALL	ACCESS:         28  HIT:         10  MISS:         18
BTB BRANCH_INDIRECT_CALL	ACCESS:          5  HIT:          1  MISS:          4
BTB BRANCH_RETURN	ACCESS:         33  HIT:          9  MISS:         24
BTB BRANCH_OTHER ACCESS:          0  HIT:          0  MISS:          0

L2C SPEC fills:          0  NON-SPEC fills:   23430176
L2C Test counter :          0
L2C Leapfrog:          0
L2C MSHR merge:     295690
L2C TOTAL     ACCESS:   60894732  HIT:   15986220  MISS:   44908512  HIT %:    26.2522  MISS %:    73.7478   MPKI: 224.543
L2C LOAD      TOTAL       ACCESS:   34480077  HIT:   10882473  MISS:   23597604  HIT %:    31.5616  MISS %:    68.4384   MPKI: 117.988
L2C LOAD      NON_SPEC    ACCESS:   31908101  HIT:    8477903  MISS:   23430198  HIT %:    26.5698  MISS %:    73.4302   MPKI: 117.151
L2C LOAD      SPEC        ACCESS:    2571976  HIT:    2404570  MISS:     167406  HIT %:    93.4912  MISS %:    6.50885   MPKI: 0.83703
L2C RFO       NON_SPEC    ACCESS:      65762  HIT:        385  MISS:      65377  HIT %:   0.585444  MISS %:    99.4146   MPKI: 0.326885
L2C PREFETCH  NON_SPEC    ACCESS:   25723092  HIT:    4617631  MISS:   21105461  HIT %:    17.9513  MISS %:    82.0487   MPKI: 105.527
L2C WRITEBACK NON_SPEC    ACCESS:      73243  HIT:      73047  MISS:        196  HIT %:    99.7324  MISS %:   0.267602   MPKI: 0.00098
L2C CLEAN_EVICTION NON_SPEC    ACCESS:     347861  HIT:     224080  MISS:     123781  HIT %:    64.4165  MISS %:    35.5835   MPKI: 0.618905
L2C COMMIT LOAD NON_SPEC    ACCESS:        674  HIT:        660  MISS:         14  HIT %:    97.9228  MISS %:    2.07715   MPKI: 7e-05
L2C LOAD TRANSLATION NON_SPEC    ACCESS:     204023  HIT:     187944  MISS:      16079  HIT %:     92.119  MISS %:    7.88097   MPKI: 0.080395
L2C PREFETCH  REQUESTED:   26024021  ISSUED:   26024021  USEFUL:    3603336  USELESS:   17502375
L2C USEFUL LOAD PREFETCHES:    3603336 PREFETCH ISSUED TO LOWER LEVEL:   21401151  ACCURACY: 16.8371
L2C TIMELY PREFETCHES:    3603336 LATE PREFETCHES: 295691 DROPPED PREFETCHES: 0
L2C COMMIT LATE PREFETCHES: 0 MISSED OPPORTUNITY: 0 LATE IN PQ: 0 UNCOVERED: 0
L2C COMMIT LATE MSHR PREFETCHES: 0
L2C MPKI TOTAL: 117.988 MSHR LATE: 1.47846 PQ LATE: 0 COMMIT LATE: 0 MISSED OPPORTUNITY: 0 UNCOVERED: 0
L2C PREFETCHES SAME FILL-ORIGIN LEVEL: 21401151 DIFFERENT FILL-ORIGIN LEVEL: 0
L2C AVERAGE MISS LATENCY: 115.418 cycles
L2C AVERAGE MISS LATENCY LOAD: 102.637 cycles
L2C AVERAGE MISS LATENCY PREFETCH: 130.182 cycles
L2C AVERAGE MSHR OCCUPANCY: 1.18214
L2C MSHR FULL: 0.000141921
L2C RQ	ACCESS:   34750537	FORWARD:          0	MERGED:          0	TO_CACHE:   34750536
L2C WQ	ACCESS:     421104	FORWARD:          1	MERGED:          0	TO_CACHE:     421104
L2C PQ	ACCESS:   26024021	FORWARD:          0	MERGED:          9	TO_CACHE:   26024012

L2C Instructions Evicting Data 22
L2C Translations Evicting Data 16079
L2C Data Evicting Data 44585011
L2C Instructions Evicting Instructions 0
L2C Translations Evicting Instructions 0
L2C Data Evicting Instructions 21
L2C Instructions Evicting Translations 0
L2C Translations Evicting Translations 0
L2C Data Evicting Translations 15996
L2C Dense regions hint from L2: 0
PSCL5 SPEC fills:          0  NON-SPEC fills:          0
PSCL5 Test counter :          0
PSCL5 Leapfrog:          0
PSCL5 MSHR merge:          0
PSCL5 TOTAL     ACCESS:          0  HIT:          0  MISS:          0  HIT %:       -nan  MISS %:       -nan   MPKI: 0
PSCL5 PREFETCH  REQUESTED:          0  ISSUED:          0  USEFUL:          0  USELESS:          0
PSCL5 USEFUL LOAD PREFETCHES:          0 PREFETCH ISSUED TO LOWER LEVEL:          0  ACCURACY: -nan
PSCL5 TIMELY PREFETCHES:          0 LATE PREFETCHES: 0 DROPPED PREFETCHES: 0
PSCL5 COMMIT LATE PREFETCHES: 0 MISSED OPPORTUNITY: 0 LATE IN PQ: 0 UNCOVERED: 0
PSCL5 COMMIT LATE MSHR PREFETCHES: 0
PSCL5 MPKI TOTAL: 0 MSHR LATE: 0 PQ LATE: 0 COMMIT LATE: 0 MISSED OPPORTUNITY: 0 UNCOVERED: 0
PSCL5 PREFETCHES SAME FILL-ORIGIN LEVEL: 0 DIFFERENT FILL-ORIGIN LEVEL: 0

PSCL4 SPEC fills:          0  NON-SPEC fills:          0
PSCL4 Test counter :          0
PSCL4 Leapfrog:          0
PSCL4 MSHR merge:          0
PSCL4 TOTAL     ACCESS:          0  HIT:          0  MISS:          0  HIT %:       -nan  MISS %:       -nan   MPKI: 0
PSCL4 PREFETCH  REQUESTED:          0  ISSUED:          0  USEFUL:          0  USELESS:          0
PSCL4 USEFUL LOAD PREFETCHES:          0 PREFETCH ISSUED TO LOWER LEVEL:          0  ACCURACY: -nan
PSCL4 TIMELY PREFETCHES:          0 LATE PREFETCHES: 0 DROPPED PREFETCHES: 0
PSCL4 COMMIT LATE PREFETCHES: 0 MISSED OPPORTUNITY: 0 LATE IN PQ: 0 UNCOVERED: 0
PSCL4 COMMIT LATE MSHR PREFETCHES: 0
PSCL4 MPKI TOTAL: 0 MSHR LATE: 0 PQ LATE: 0 COMMIT LATE: 0 MISSED OPPORTUNITY: 0 UNCOVERED: 0
PSCL4 PREFETCHES SAME FILL-ORIGIN LEVEL: 0 DIFFERENT FILL-ORIGIN LEVEL: 0

PSCL3 SPEC fills:          0  NON-SPEC fills:          0
PSCL3 Test counter :          0
PSCL3 Leapfrog:          0
PSCL3 MSHR merge:          0
PSCL3 TOTAL     ACCESS:          0  HIT:          0  MISS:          0  HIT %:       -nan  MISS %:       -nan   MPKI: 0
PSCL3 PREFETCH  REQUESTED:          0  ISSUED:          0  USEFUL:          0  USELESS:          0
PSCL3 USEFUL LOAD PREFETCHES:          0 PREFETCH ISSUED TO LOWER LEVEL:          0  ACCURACY: -nan
PSCL3 TIMELY PREFETCHES:          0 LATE PREFETCHES: 0 DROPPED PREFETCHES: 0
PSCL3 COMMIT LATE PREFETCHES: 0 MISSED OPPORTUNITY: 0 LATE IN PQ: 0 UNCOVERED: 0
PSCL3 COMMIT LATE MSHR PREFETCHES: 0
PSCL3 MPKI TOTAL: 0 MSHR LATE: 0 PQ LATE: 0 COMMIT LATE: 0 MISSED OPPORTUNITY: 0 UNCOVERED: 0
PSCL3 PREFETCHES SAME FILL-ORIGIN LEVEL: 0 DIFFERENT FILL-ORIGIN LEVEL: 0

PSCL2 SPEC fills:          0  NON-SPEC fills:          0
PSCL2 Test counter :          0
PSCL2 Leapfrog:          0
PSCL2 MSHR merge:          0
PSCL2 TOTAL     ACCESS:          0  HIT:          0  MISS:          0  HIT %:       -nan  MISS %:       -nan   MPKI: 0
PSCL2 PREFETCH  REQUESTED:          0  ISSUED:          0  USEFUL:          0  USELESS:          0
PSCL2 USEFUL LOAD PREFETCHES:          0 PREFETCH ISSUED TO LOWER LEVEL:          0  ACCURACY: -nan
PSCL2 TIMELY PREFETCHES:          0 LATE PREFETCHES: 0 DROPPED PREFETCHES: 0
PSCL2 COMMIT LATE PREFETCHES: 0 MISSED OPPORTUNITY: 0 LATE IN PQ: 0 UNCOVERED: 0
PSCL2 COMMIT LATE MSHR PREFETCHES: 0
PSCL2 MPKI TOTAL: 0 MSHR LATE: 0 PQ LATE: 0 COMMIT LATE: 0 MISSED OPPORTUNITY: 0 UNCOVERED: 0
PSCL2 PREFETCHES SAME FILL-ORIGIN LEVEL: 0 DIFFERENT FILL-ORIGIN LEVEL: 0

LLC SPEC fills:          0  NON-SPEC fills:   10489926
LLC Test counter :          0
LLC Leapfrog:          0
LLC MSHR merge:          0
LLC TOTAL     ACCESS:   45192634  HIT:   20857766  MISS:   24334868  HIT %:     46.153  MISS %:     53.847   MPKI: 121.674
LLC LOAD      TOTAL       ACCESS:   23301914  HIT:   12659270  MISS:   10642644  HIT %:    54.3272  MISS %:    45.6728   MPKI: 53.2132
LLC LOAD      NON_SPEC    ACCESS:   23145193  HIT:   12655245  MISS:   10489948  HIT %:    54.6776  MISS %:    45.3224   MPKI: 52.4497
LLC LOAD      SPEC        ACCESS:     156721  HIT:       4025  MISS:     152696  HIT %:    2.56826  MISS %:    97.4317   MPKI: 0.76348
LLC RFO       NON_SPEC    ACCESS:      65376  HIT:       1974  MISS:      63402  HIT %:    3.01946  MISS %:    96.9805   MPKI: 0.31701
LLC PREFETCH  NON_SPEC    ACCESS:   21401152  HIT:    7887026  MISS:   13514126  HIT %:    36.8533  MISS %:    63.1467   MPKI: 67.5706
LLC WRITEBACK NON_SPEC    ACCESS:      66243  HIT:      66097  MISS:        146  HIT %:    99.7796  MISS %:   0.220401   MPKI: 0.00073
LLC CLEAN_EVICTION NON_SPEC    ACCESS:     341856  HIT:     234253  MISS:     107603  HIT %:    68.5239  MISS %:    31.4761   MPKI: 0.538015
LLC COMMIT LOAD NON_SPEC    ACCESS:         14  HIT:         10  MISS:          4  HIT %:    71.4286  MISS %:    28.5714   MPKI: 2e-05
LLC LOAD TRANSLATION NON_SPEC    ACCESS:      16079  HIT:       9136  MISS:       6943  HIT %:    56.8195  MISS %:    43.1805   MPKI: 0.034715
LLC PREFETCH  REQUESTED:          0  ISSUED:          0  USEFUL:    1583275  USELESS:   11931219
LLC USEFUL LOAD PREFETCHES:    1583275 PREFETCH ISSUED TO LOWER LEVEL:   13514126  ACCURACY: 11.7157
LLC TIMELY PREFETCHES:    1583275 LATE PREFETCHES: 0 DROPPED PREFETCHES: 0
LLC COMMIT LATE PREFETCHES: 0 MISSED OPPORTUNITY: 0 LATE IN PQ: 0 UNCOVERED: 0
LLC COMMIT LATE MSHR PREFETCHES: 0
LLC MPKI TOTAL: 53.2132 MSHR LATE: 0 PQ LATE: 0 COMMIT LATE: 0 MISSED OPPORTUNITY: 0 UNCOVERED: 0
LLC PREFETCHES SAME FILL-ORIGIN LEVEL: 0 DIFFERENT FILL-ORIGIN LEVEL: 0
LLC AVERAGE MISS LATENCY: 158.03 cycles
LLC AVERAGE MISS LATENCY LOAD: 159.617 cycles
LLC AVERAGE MISS LATENCY PREFETCH: 158.031 cycles
LLC AVERAGE MSHR OCCUPANCY: 0.806419
LLC MSHR FULL: 0
LLC RQ	ACCESS:   23383383	FORWARD:          0	MERGED:          0	TO_CACHE:   23383383
LLC WQ	ACCESS:     408099	FORWARD:          0	MERGED:          0	TO_CACHE:     408099
LLC PQ	ACCESS:   21401151	FORWARD:          0	MERGED:          0	TO_CACHE:   21401151

LLC Dense regions hint to LLC: 0

RAW hits: 19
Loads Generated: 77353692
Loads sent to L1D: 77353672
Stores Generated: 3300237
Stores sent to L1D: 3300237
Major fault: 0 Minor fault: 34894
Allocated PAGES: 34894
Total Load insts: 95645034
Total Non-spec loads: 44904784
Percentage of speculative loads: 53.0506

LeapFrogging counter: 757
Commit hits: 5544924 miss: 34160643
Commit hit %: 13.9651 miss %: 86.0349
Commits not translated: 0
Loads retired: 34480054
Stores retired: 3300237
Cache fills: 34480056
L1D response latency: 84.8676 cycles
Load retirement latency: 232.845 cycles
OOO test counter: 0
Discarded buffer inserts: 5544924 hits: 54206 hit %: 0.977579
Filter prediction accuracy: 99.9197
[Bingo] PHT Access: 25112804
[Bingo] PHT Hit PC+Addr: 1474823
[Bingo] PHT Hit PC+Offs: 23534464
[Bingo] PHT Miss: 103517
[Bingo] Prefetch PC+Addr: 0
[Bingo] Prefetch PC+Offs: 0
[Bingo] Useful PC+Addr: 0
[Bingo] Useful PC+Offs: 0
[Bingo] Useless PC+Addr: 0
[Bingo] Useless PC+Offs: 0
[Bingo] L1 Prefetch per Region: 0
[Bingo] L2 Prefetch per Region: 2.04457
[Bingo] L3 Prefetch per Region: 0
[Bingo] No Prefetch per Region: 29.9554
[Bingo] Number of Voters Mean: 16
[Bingo] Number of Voters SD: 7.2443
PHT read accesses: 389052698
PHT write accesses: 4277398
AT read accesses: 49390067
AT write accesses: 51631624
FT read accesses: 23783887
FT write accesses: 25112804
PS read accesses: 50227721
PS write accesses: 25009287
PHT tag read accesses: 525034370
PHT tag write accesses: 5752221
AT tag read accesses: 2142514437
AT tag write accesses: 53667463
FT tag read accesses: 2092790136
FT tag write accesses: 39732635
PS tag read accesses: 2065398868
PS tag write accesses: 75219592

DRAM Statistics
 CHANNEL 0
 RQ ROW_BUFFER_HIT:    6816480  ROW_BUFFER_MISS:   17410634
 DBUS_CONGESTED:       1544
 WQ ROW_BUFFER_HIT:     200197  ROW_BUFFER_MISS:     208502  FULL:          0

 AVG_CONGESTED_CYCLE: 4
 All warmup complete: 2
Channel 0 Bank busy for read cycles: 0
Channel 0 Bank busy for write cycles: 0
Channel 0
Rank 0
0banks busy for read cycles: 1512069874
0banks busy for write cycles: 244169
1banks busy for read cycles: 1484600594
1banks busy for write cycles: 60064132
2banks busy for read cycles: 387445161
2banks busy for write cycles: 5270583
3banks busy for read cycles: 100177810
3banks busy for write cycles: 1602643
4banks busy for read cycles: 24338344
4banks busy for write cycles: 866528
5banks busy for read cycles: 9718821
5banks busy for write cycles: 531314
6banks busy for read cycles: 7132271
6banks busy for write cycles: 357649
7banks busy for read cycles: 9028375
7banks busy for write cycles: 412705
8banks busy for read cycles: 17571169
8banks busy for write cycles: 1148325

CPU 0 Branch Prediction Accuracy: 96.9587% MPKI: 5.6305 Average ROB Occupancy at Mispredict: 137.676
Branch types
NOT_BRANCH: 162972814 81.4864%
BRANCH_DIRECT_JUMP: 66 3.3e-05%
BRANCH_INDIRECT: 4 2e-06%
BRANCH_CONDITIONAL: 37027011 18.5135%
BRANCH_DIRECT_CALL: 28 1.4e-05%
BRANCH_INDIRECT_CALL: 5 2.5e-06%
BRANCH_RETURN: 33 1.65e-05%
BRANCH_OTHER: 0 0%

DRAM PAGES: 1048576
Allocated PAGES: 34894
