
*** ChampSim Multicore Out-of-Order Simulator ***

Warmup Instructions: 50000000
Simulation Instructions: 200000000
Number of CPUs: 1
LLC sets: 2048
LLC ways: 16
L0D sets: 16
L0D ways: 2
ROB size: 352
LQ size: 128
SQ size: 72
Secure Berti: OFF
Berti: OFF
Berti Fill: OFF
On commit prefetching: ON
Hit-based filter: ON
Time-guarding: ON
Free-slotting: ON
Leap-frogging: ON
Train prefetcher on L0D bypass: OFF
No translation penalty for prefetchers: OFF
Prefetch to L0D only: OFF
Prefetch to L1D only: OFF
Clean evictions: ON
Commit loads: ON
Commit write: ON
Fill commit loads to L2C, LLC: ON
DRAM IO FREQUENCY: 6400
ROB SIZE: 352
Off-chip DRAM Size: 4096 MB Channels: 1 Width: 64-bit Data Rate: 6400 MT/s
CPU 0 runs /home/sumon/secure_berti/GhostMinion/../../traces/gap/sssp-14.trace.gz
.gz
BTB has LRU replacement policy
ITLB has LRU replacement policy
DTLB has LRU replacement policy
STLB has LRU replacement policy
L1I has LRU replacement policy
L0D has LRU replacement policy
L1D has LRU replacement policy
Bingo PHT WAYS: 16 and PHT_SIZE: 16384
L2C has LRU replacement policy
LLC has LRU replacement policy
Heartbeat CPU 0 instructions: 10000000 cycles: 3991382 heartbeat IPC: 2.5054 cumulative IPC: 2.5054 (Simulation time: 0 hr 0 min 53 sec) 
Heartbeat CPU 0 instructions: 20000003 cycles: 7858513 heartbeat IPC: 2.5859 cumulative IPC: 2.54501 (Simulation time: 0 hr 1 min 30 sec) 
Heartbeat CPU 0 instructions: 30000001 cycles: 11666951 heartbeat IPC: 2.62575 cumulative IPC: 2.57137 (Simulation time: 0 hr 2 min 6 sec) 
Heartbeat CPU 0 instructions: 40000003 cycles: 15450103 heartbeat IPC: 2.6433 cumulative IPC: 2.58898 (Simulation time: 0 hr 2 min 42 sec) 
Heartbeat CPU 0 instructions: 50000000 cycles: 19213903 heartbeat IPC: 2.65689 cumulative IPC: 2.60228 (Simulation time: 0 hr 3 min 17 sec) 

Warmup complete CPU 0 instructions: 50000004 cycles: 19213904 (Simulation time: 0 hr 3 min 17 sec) 

Heartbeat CPU 0 instructions: 60000002 cycles: 47189846 heartbeat IPC: 0.35745 cumulative IPC: 0.35745 (Simulation time: 0 hr 4 min 5 sec) 
Heartbeat CPU 0 instructions: 70000001 cycles: 74792905 heartbeat IPC: 0.362279 cumulative IPC: 0.359848 (Simulation time: 0 hr 4 min 53 sec) 
Heartbeat CPU 0 instructions: 80000003 cycles: 101987400 heartbeat IPC: 0.367722 cumulative IPC: 0.362435 (Simulation time: 0 hr 5 min 41 sec) 
Heartbeat CPU 0 instructions: 90000003 cycles: 129394155 heartbeat IPC: 0.364874 cumulative IPC: 0.363041 (Simulation time: 0 hr 6 min 28 sec) 
Heartbeat CPU 0 instructions: 100000002 cycles: 156155630 heartbeat IPC: 0.373671 cumulative IPC: 0.365119 (Simulation time: 0 hr 7 min 15 sec) 
Heartbeat CPU 0 instructions: 110000000 cycles: 182756211 heartbeat IPC: 0.375932 cumulative IPC: 0.366878 (Simulation time: 0 hr 8 min 2 sec) 
Heartbeat CPU 0 instructions: 120000001 cycles: 209291066 heartbeat IPC: 0.376863 cumulative IPC: 0.368271 (Simulation time: 0 hr 8 min 49 sec) 
Heartbeat CPU 0 instructions: 130000003 cycles: 235155313 heartbeat IPC: 0.386634 cumulative IPC: 0.370471 (Simulation time: 0 hr 9 min 36 sec) 
Heartbeat CPU 0 instructions: 140000003 cycles: 261439182 heartbeat IPC: 0.380461 cumulative IPC: 0.371555 (Simulation time: 0 hr 10 min 22 sec) 
Heartbeat CPU 0 instructions: 150000000 cycles: 288094099 heartbeat IPC: 0.375165 cumulative IPC: 0.371913 (Simulation time: 0 hr 11 min 10 sec) 
Heartbeat CPU 0 instructions: 160000002 cycles: 313895371 heartbeat IPC: 0.387578 cumulative IPC: 0.373284 (Simulation time: 0 hr 11 min 57 sec) 
Heartbeat CPU 0 instructions: 170000003 cycles: 339918616 heartbeat IPC: 0.384272 cumulative IPC: 0.374176 (Simulation time: 0 hr 12 min 45 sec) 
Heartbeat CPU 0 instructions: 180000003 cycles: 365786457 heartbeat IPC: 0.38658 cumulative IPC: 0.375102 (Simulation time: 0 hr 13 min 32 sec) 
Heartbeat CPU 0 instructions: 190000001 cycles: 391664149 heartbeat IPC: 0.386433 cumulative IPC: 0.375889 (Simulation time: 0 hr 14 min 20 sec) 
Heartbeat CPU 0 instructions: 200000001 cycles: 417386551 heartbeat IPC: 0.388766 cumulative IPC: 0.376721 (Simulation time: 0 hr 15 min 7 sec) 
Heartbeat CPU 0 instructions: 210000002 cycles: 442821200 heartbeat IPC: 0.393164 cumulative IPC: 0.377708 (Simulation time: 0 hr 15 min 53 sec) 
Heartbeat CPU 0 instructions: 220000000 cycles: 468688340 heartbeat IPC: 0.386591 cumulative IPC: 0.378219 (Simulation time: 0 hr 16 min 41 sec) 
Heartbeat CPU 0 instructions: 230000001 cycles: 494047896 heartbeat IPC: 0.394329 cumulative IPC: 0.37908 (Simulation time: 0 hr 17 min 28 sec) 
Heartbeat CPU 0 instructions: 240000003 cycles: 519808206 heartbeat IPC: 0.388194 cumulative IPC: 0.379549 (Simulation time: 0 hr 18 min 16 sec) 
Heartbeat CPU 0 instructions: 250000001 cycles: 545103535 heartbeat IPC: 0.39533 cumulative IPC: 0.380308 (Simulation time: 0 hr 19 min 4 sec) 
Finished CPU 0 instructions: 200000001 cycles: 525889632 cumulative IPC: 0.380308 (Simulation time: 0 hr 19 min 4 sec) 
 Instruction ID: 250000191

ChampSim completed all CPUs

Region of Interest Statistics

CPU 0 cumulative IPC: 0.380308 instructions: 200000001 cycles: 525889632
ITLB SPEC fills:          0  NON-SPEC fills:          0
ITLB Test counter :          0
ITLB Leapfrog:          0
ITLB MSHR merge:          0
ITLB TOTAL     ACCESS:   24215417  HIT:   24215417  MISS:          0  HIT %:        100  MISS %:          0   MPKI: 0
ITLB LOAD TRANSLATION NON_SPEC    ACCESS:   24215417  HIT:   24215417  MISS:          0  HIT %:        100  MISS %:          0   MPKI: 0
ITLB PREFETCH  REQUESTED:          0  ISSUED:          0  USEFUL:          0  USELESS:          0
ITLB USEFUL LOAD PREFETCHES:          0 PREFETCH ISSUED TO LOWER LEVEL:          0  ACCURACY: -nan
ITLB TIMELY PREFETCHES:          0 LATE PREFETCHES: 0 DROPPED PREFETCHES: 0
ITLB COMMIT LATE PREFETCHES: 0 MISSED OPPORTUNITY: 0 LATE IN PQ: 0 UNCOVERED: 0
ITLB COMMIT LATE MSHR PREFETCHES: 0
ITLB MPKI TOTAL: 0 MSHR LATE: 0 PQ LATE: 0 COMMIT LATE: 0 MISSED OPPORTUNITY: 0 UNCOVERED: 0
ITLB PREFETCHES SAME FILL-ORIGIN LEVEL: 0 DIFFERENT FILL-ORIGIN LEVEL: 0
ITLB AVERAGE MISS LATENCY: -nan cycles
ITLB AVERAGE MISS LATENCY LOAD: -nan cycles
ITLB AVERAGE MISS LATENCY PREFETCH: -nan cycles
ITLB AVERAGE MSHR OCCUPANCY: 0
ITLB MSHR FULL: 0
ITLB RQ	ACCESS:   24883894	FORWARD:          0	MERGED:     668477	TO_CACHE:   24215417

DTLB SPEC fills:          0  NON-SPEC fills:          0
DTLB Test counter :          0
DTLB Leapfrog:          0
DTLB MSHR merge:          0
DTLB TOTAL     ACCESS:   48439624  HIT:   43891380  MISS:    4548244  HIT %:    90.6105  MISS %:    9.38951   MPKI: 22.7412
DTLB LOAD TRANSLATION NON_SPEC    ACCESS:   48439624  HIT:   43891380  MISS:    4548244  HIT %:    90.6105  MISS %:    9.38951   MPKI: 22.7412
DTLB PREFETCH  REQUESTED:          0  ISSUED:          0  USEFUL:          0  USELESS:          0
DTLB USEFUL LOAD PREFETCHES:          0 PREFETCH ISSUED TO LOWER LEVEL:          0  ACCURACY: -nan
DTLB TIMELY PREFETCHES:          0 LATE PREFETCHES: 0 DROPPED PREFETCHES: 0
DTLB COMMIT LATE PREFETCHES: 0 MISSED OPPORTUNITY: 0 LATE IN PQ: 0 UNCOVERED: 0
DTLB COMMIT LATE MSHR PREFETCHES: 0
DTLB MPKI TOTAL: 0 MSHR LATE: 0 PQ LATE: 0 COMMIT LATE: 0 MISSED OPPORTUNITY: 0 UNCOVERED: 0
DTLB PREFETCHES SAME FILL-ORIGIN LEVEL: 0 DIFFERENT FILL-ORIGIN LEVEL: 0
DTLB AVERAGE MISS LATENCY: 12.6673 cycles
DTLB AVERAGE MISS LATENCY LOAD: -nan cycles
DTLB AVERAGE MISS LATENCY PREFETCH: -nan cycles
DTLB AVERAGE MSHR OCCUPANCY: 0.229026
DTLB MSHR FULL: 2.45787e-07
DTLB RQ	ACCESS:   52898917	FORWARD:          0	MERGED:    4076163	TO_CACHE:   48822754

STLB SPEC fills:          0  NON-SPEC fills:          0
STLB Test counter :          0
STLB Leapfrog:          0
STLB MSHR merge:          0
STLB TOTAL     ACCESS:    4548244  HIT:    4488465  MISS:      59779  HIT %:    98.6857  MISS %:    1.31433   MPKI: 0.298895
STLB LOAD TRANSLATION NON_SPEC    ACCESS:    4548244  HIT:    4488465  MISS:      59779  HIT %:    98.6857  MISS %:    1.31433   MPKI: 0.298895
STLB PREFETCH  REQUESTED:          0  ISSUED:          0  USEFUL:          0  USELESS:          0
STLB USEFUL LOAD PREFETCHES:          0 PREFETCH ISSUED TO LOWER LEVEL:          0  ACCURACY: -nan
STLB TIMELY PREFETCHES:          0 LATE PREFETCHES: 0 DROPPED PREFETCHES: 0
STLB COMMIT LATE PREFETCHES: 0 MISSED OPPORTUNITY: 0 LATE IN PQ: 0 UNCOVERED: 0
STLB COMMIT LATE MSHR PREFETCHES: 0
STLB MPKI TOTAL: 0 MSHR LATE: 0 PQ LATE: 0 COMMIT LATE: 0 MISSED OPPORTUNITY: 0 UNCOVERED: 0
STLB PREFETCHES SAME FILL-ORIGIN LEVEL: 0 DIFFERENT FILL-ORIGIN LEVEL: 0
STLB AVERAGE MISS LATENCY: 261.704 cycles
STLB AVERAGE MISS LATENCY LOAD: -nan cycles
STLB AVERAGE MISS LATENCY PREFETCH: -nan cycles
STLB AVERAGE MSHR OCCUPANCY: 0.0109425
STLB MSHR FULL: 0
STLB RQ	ACCESS:    4548244	FORWARD:          0	MERGED:          0	TO_CACHE:    4548244

STLB Hit, L1D data hit: 0
STLB Hit, L2C data hit: 0
STLB Hit, LLC data hit: 0
STLB Hit, LLC data miss: 0
STLB STLB hints to L2: 0
L0D SPEC fills:   25904830  NON-SPEC fills:          0
L0D TimeGuard Request with older TS:    1989836 Restricted eviction:     192779 read:    4067504
L0D Test counter :          0
L0D Leapfrog:          0
L0D MSHR merge:    3029938
L0D TOTAL     ACCESS:   47638390  HIT:   16490001  MISS:   31148389  HIT %:    34.6149  MISS %:    65.3851   MPKI: 155.742
L0D LOAD      TOTAL       ACCESS:   47638390  HIT:   16490001  MISS:   31148389  HIT %:    34.6149  MISS %:    65.3851   MPKI: 155.742
L0D LOAD      NON_SPEC    ACCESS:    5136877  HIT:      86097  MISS:    5050780  HIT %:    1.67606  MISS %:    98.3239   MPKI: 25.2539
L0D LOAD      SPEC        ACCESS:   42501513  HIT:   16403904  MISS:   26097609  HIT %:     38.596  MISS %:     61.404   MPKI: 130.488
L0D PREFETCH  REQUESTED:          0  ISSUED:          0  USEFUL:          0  USELESS:          0
L0D USEFUL LOAD PREFETCHES:          0 PREFETCH ISSUED TO LOWER LEVEL:          0  ACCURACY: -nan
L0D TIMELY PREFETCHES:          0 LATE PREFETCHES: 0 DROPPED PREFETCHES: 0
L0D COMMIT LATE PREFETCHES: 0 MISSED OPPORTUNITY: 0 LATE IN PQ: 0 UNCOVERED: 0
L0D COMMIT LATE MSHR PREFETCHES: 0
L0D MPKI TOTAL: 170.892 MSHR LATE: 0 PQ LATE: 0 COMMIT LATE: 0 MISSED OPPORTUNITY: 0 UNCOVERED: 0
L0D PREFETCHES SAME FILL-ORIGIN LEVEL: 0 DIFFERENT FILL-ORIGIN LEVEL: 0
L0D AVERAGE MISS LATENCY: 33.3867 cycles
L0D AVERAGE MISS LATENCY LOAD: 33.3867 cycles
L0D AVERAGE MISS LATENCY PREFETCH: -nan cycles
L0D AVERAGE MSHR OCCUPANCY: 2.1572
L0D MSHR FULL: 0.0337939
L0D RQ	ACCESS:   76716680	FORWARD:          0	MERGED:   26048351	TO_CACHE:   50668329
L0D WQ	ACCESS:    2230588	FORWARD:          0	MERGED:          0	TO_CACHE:    2230588

L1D SPEC fills:          0  NON-SPEC fills:    1762482
L1D Test counter :          0
L1D Leapfrog:          0
L1D MSHR merge:       9688
L1D TOTAL     ACCESS:   44384066  HIT:   24279227  MISS:   20104839  HIT %:    54.7026  MISS %:    45.2974   MPKI: 100.524
L1D LOAD      TOTAL       ACCESS:   31138701  HIT:   20156555  MISS:   10982146  HIT %:    64.7315  MISS %:    35.2685   MPKI: 54.9107
L1D LOAD      NON_SPEC    ACCESS:    5049392  HIT:    3286910  MISS:    1762482  HIT %:    65.0952  MISS %:    34.9048   MPKI: 8.81241
L1D LOAD      SPEC        ACCESS:   26089309  HIT:   16869645  MISS:    9219664  HIT %:    64.6611  MISS %:    35.3389   MPKI: 46.0983
L1D RFO       NON_SPEC    ACCESS:    2040100  HIT:    1568348  MISS:     471752  HIT %:     76.876  MISS %:     23.124   MPKI: 2.35876
L1D COMMIT LOAD NON_SPEC    ACCESS:    1981574  HIT:    1843302  MISS:     138272  HIT %:    93.0221  MISS %:    6.97789   MPKI: 0.69136
L1D COMMIT WRITE NON_SPEC    ACCESS:    9223691  HIT:     711022  MISS:    8512669  HIT %:    7.70865  MISS %:    92.2914   MPKI: 42.5633
L1D PREFETCH  REQUESTED:          0  ISSUED:          0  USEFUL:          0  USELESS:          0
L1D USEFUL LOAD PREFETCHES:          0 PREFETCH ISSUED TO LOWER LEVEL:          0  ACCURACY: -nan
L1D TIMELY PREFETCHES:          0 LATE PREFETCHES: 0 DROPPED PREFETCHES: 0
L1D COMMIT LATE PREFETCHES: 0 MISSED OPPORTUNITY: 0 LATE IN PQ: 0 UNCOVERED: 0
L1D COMMIT LATE MSHR PREFETCHES: 0
L1D MPKI TOTAL: 54.9592 MSHR LATE: 0 PQ LATE: 0 COMMIT LATE: 0 MISSED OPPORTUNITY: 0 UNCOVERED: 0
L1D PREFETCHES SAME FILL-ORIGIN LEVEL: 0 DIFFERENT FILL-ORIGIN LEVEL: 0
L1D AVERAGE MISS LATENCY: 46.4729 cycles
L1D AVERAGE MISS LATENCY LOAD: 80.0342 cycles
L1D AVERAGE MISS LATENCY PREFETCH: -nan cycles
L1D AVERAGE MSHR OCCUPANCY: 2.08782
L1D MSHR FULL: 0.051957
L1D RQ	ACCESS:   34322625	FORWARD:          0	MERGED:    1168401	TO_CACHE:   33145258
L1D WQ	ACCESS:   11454313	FORWARD:       8966	MERGED:       1214	TO_CACHE:   11453099

L1D UNIQUE REGIONS ACCESSED: 0
L1D REGIONS CONFLICTS: 0
L1D Cross Page Prefetch Requests: 0
L1D Same Page Prefetch Requests: 0
L1D ROI Sum of L1D PQ occupancy: 0
L1D PREFETCHES PUSHED FROM L2C: 0
L1I SPEC fills:          0  NON-SPEC fills:          0
L1I Test counter :          0
L1I Leapfrog:          0
L1I MSHR merge:          0
L1I TOTAL     ACCESS:   24883892  HIT:   24883892  MISS:          0  HIT %:        100  MISS %:          0   MPKI: 0
L1I LOAD      TOTAL       ACCESS:   24883892  HIT:   24883892  MISS:          0  HIT %:        100  MISS %:          0   MPKI: 0
L1I LOAD      NON_SPEC    ACCESS:   24883892  HIT:   24883892  MISS:          0  HIT %:        100  MISS %:          0   MPKI: 0
L1I PREFETCH  REQUESTED:          0  ISSUED:          0  USEFUL:          0  USELESS:          0
L1I USEFUL LOAD PREFETCHES:          0 PREFETCH ISSUED TO LOWER LEVEL:          0  ACCURACY: -nan
L1I TIMELY PREFETCHES:          0 LATE PREFETCHES: 0 DROPPED PREFETCHES: 0
L1I COMMIT LATE PREFETCHES: 0 MISSED OPPORTUNITY: 0 LATE IN PQ: 0 UNCOVERED: 0
L1I COMMIT LATE MSHR PREFETCHES: 0
L1I MPKI TOTAL: 0 MSHR LATE: 0 PQ LATE: 0 COMMIT LATE: 0 MISSED OPPORTUNITY: 0 UNCOVERED: 0
L1I PREFETCHES SAME FILL-ORIGIN LEVEL: 0 DIFFERENT FILL-ORIGIN LEVEL: 0
L1I AVERAGE MISS LATENCY: -nan cycles
L1I AVERAGE MISS LATENCY LOAD: -nan cycles
L1I AVERAGE MISS LATENCY PREFETCH: -nan cycles
L1I AVERAGE MSHR OCCUPANCY: 0
L1I MSHR FULL: 0
L1I RQ	ACCESS:   38847491	FORWARD:          0	MERGED:   13963597	TO_CACHE:   24883894

BTB SPEC fills:          0  NON-SPEC fills:          0
BTB Test counter :          0
BTB Leapfrog:          0
BTB MSHR merge:          0
BTB TOTAL     ACCESS:   29059518  HIT:   29059371  MISS:        147  HIT %:    99.9995  MISS %: 0.000505858   MPKI: 0.000735
BTB BRANCH_DIRECT_JUMP	ACCESS:    9220890  HIT:    9220849  MISS:         41
BTB BRANCH_INDIRECT	ACCESS:          0  HIT:          0  MISS:          0
BTB BRANCH_CONDITIONAL	ACCESS:   19836028  HIT:   19835946  MISS:         82
BTB BRANCH_DIRECT_CALL	ACCESS:       1300  HIT:       1290  MISS:         10
BTB BRANCH_INDIRECT_CALL	ACCESS:          0  HIT:          0  MISS:          0
BTB BRANCH_RETURN	ACCESS:       1300  HIT:       1286  MISS:         14
BTB BRANCH_OTHER ACCESS:          0  HIT:          0  MISS:          0

L2C SPEC fills:          0  NON-SPEC fills:    1181201
L2C Test counter :          0
L2C Leapfrog:          0
L2C MSHR merge:     159469
L2C TOTAL     ACCESS:   27190856  HIT:    6766724  MISS:   20424132  HIT %:     24.886  MISS %:     75.114   MPKI: 102.121
L2C LOAD      TOTAL       ACCESS:   10980557  HIT:    3789534  MISS:    7191023  HIT %:    34.5113  MISS %:    65.4887   MPKI: 35.9551
L2C LOAD      NON_SPEC    ACCESS:    1762479  HIT:     581278  MISS:    1181201  HIT %:    32.9807  MISS %:    67.0193   MPKI: 5.906
L2C LOAD      SPEC        ACCESS:    9218078  HIT:    3208256  MISS:    6009822  HIT %:     34.804  MISS %:     65.196   MPKI: 30.0491
L2C RFO       NON_SPEC    ACCESS:     471714  HIT:     263453  MISS:     208261  HIT %:    55.8502  MISS %:    44.1498   MPKI: 1.0413
L2C PREFETCH  NON_SPEC    ACCESS:    8014774  HIT:     877718  MISS:    7137056  HIT %:    10.9513  MISS %:    89.0487   MPKI: 35.6853
L2C WRITEBACK NON_SPEC    ACCESS:     821531  HIT:     818588  MISS:       2943  HIT %:    99.6418  MISS %:   0.358234   MPKI: 0.014715
L2C CLEAN_EVICTION NON_SPEC    ACCESS:    6465115  HIT:     703161  MISS:    5761954  HIT %:    10.8762  MISS %:    89.1238   MPKI: 28.8098
L2C COMMIT LOAD NON_SPEC    ACCESS:     138272  HIT:      61507  MISS:      76765  HIT %:    44.4826  MISS %:    55.5174   MPKI: 0.383825
L2C LOAD TRANSLATION NON_SPEC    ACCESS:     298893  HIT:     252763  MISS:      46130  HIT %:    84.5664  MISS %:    15.4336   MPKI: 0.23065
L2C PREFETCH  REQUESTED:    8262328  ISSUED:    8262328  USEFUL:    1505154  USELESS:    5632065
L2C USEFUL LOAD PREFETCHES:    1505154 PREFETCH ISSUED TO LOWER LEVEL:    7302135  ACCURACY: 20.6125
L2C TIMELY PREFETCHES:    1505154 LATE PREFETCHES: 165077 DROPPED PREFETCHES: 0
L2C COMMIT LATE PREFETCHES: 0 MISSED OPPORTUNITY: 0 LATE IN PQ: 0 UNCOVERED: 0
L2C COMMIT LATE MSHR PREFETCHES: 0
L2C MPKI TOTAL: 35.9551 MSHR LATE: 0.825385 PQ LATE: 0 COMMIT LATE: 0 MISSED OPPORTUNITY: 0 UNCOVERED: 0
L2C PREFETCHES SAME FILL-ORIGIN LEVEL: 7302135 DIFFERENT FILL-ORIGIN LEVEL: 0
L2C AVERAGE MISS LATENCY: 106.898 cycles
L2C AVERAGE MISS LATENCY LOAD: 103.719 cycles
L2C AVERAGE MISS LATENCY PREFETCH: 193.683 cycles
L2C AVERAGE MSHR OCCUPANCY: 5.15829
L2C MSHR FULL: 0.0370603
L2C RQ	ACCESS:   11891065	FORWARD:          0	MERGED:          0	TO_CACHE:   11889438
L2C WQ	ACCESS:    7286649	FORWARD:       1642	MERGED:          3	TO_CACHE:    7286646
L2C PQ	ACCESS:    8262328	FORWARD:          0	MERGED:         41	TO_CACHE:    8262272

L2C Instructions Evicting Data 0
L2C Translations Evicting Data 45945
L2C Data Evicting Data 8578712
L2C Instructions Evicting Instructions 0
L2C Translations Evicting Instructions 0
L2C Data Evicting Instructions 0
L2C Instructions Evicting Translations 0
L2C Translations Evicting Translations 185
L2C Data Evicting Translations 24571
L2C Dense regions hint from L2: 0
PSCL5 SPEC fills:          0  NON-SPEC fills:          0
PSCL5 Test counter :          0
PSCL5 Leapfrog:          0
PSCL5 MSHR merge:          0
PSCL5 TOTAL     ACCESS:          0  HIT:          0  MISS:          0  HIT %:       -nan  MISS %:       -nan   MPKI: 0
PSCL5 PREFETCH  REQUESTED:          0  ISSUED:          0  USEFUL:          0  USELESS:          0
PSCL5 USEFUL LOAD PREFETCHES:          0 PREFETCH ISSUED TO LOWER LEVEL:          0  ACCURACY: -nan
PSCL5 TIMELY PREFETCHES:          0 LATE PREFETCHES: 0 DROPPED PREFETCHES: 0
PSCL5 COMMIT LATE PREFETCHES: 0 MISSED OPPORTUNITY: 0 LATE IN PQ: 0 UNCOVERED: 0
PSCL5 COMMIT LATE MSHR PREFETCHES: 0
PSCL5 MPKI TOTAL: 0 MSHR LATE: 0 PQ LATE: 0 COMMIT LATE: 0 MISSED OPPORTUNITY: 0 UNCOVERED: 0
PSCL5 PREFETCHES SAME FILL-ORIGIN LEVEL: 0 DIFFERENT FILL-ORIGIN LEVEL: 0

PSCL4 SPEC fills:          0  NON-SPEC fills:          0
PSCL4 Test counter :          0
PSCL4 Leapfrog:          0
PSCL4 MSHR merge:          0
PSCL4 TOTAL     ACCESS:          0  HIT:          0  MISS:          0  HIT %:       -nan  MISS %:       -nan   MPKI: 0
PSCL4 PREFETCH  REQUESTED:          0  ISSUED:          0  USEFUL:          0  USELESS:          0
PSCL4 USEFUL LOAD PREFETCHES:          0 PREFETCH ISSUED TO LOWER LEVEL:          0  ACCURACY: -nan
PSCL4 TIMELY PREFETCHES:          0 LATE PREFETCHES: 0 DROPPED PREFETCHES: 0
PSCL4 COMMIT LATE PREFETCHES: 0 MISSED OPPORTUNITY: 0 LATE IN PQ: 0 UNCOVERED: 0
PSCL4 COMMIT LATE MSHR PREFETCHES: 0
PSCL4 MPKI TOTAL: 0 MSHR LATE: 0 PQ LATE: 0 COMMIT LATE: 0 MISSED OPPORTUNITY: 0 UNCOVERED: 0
PSCL4 PREFETCHES SAME FILL-ORIGIN LEVEL: 0 DIFFERENT FILL-ORIGIN LEVEL: 0

PSCL3 SPEC fills:          0  NON-SPEC fills:          0
PSCL3 Test counter :          0
PSCL3 Leapfrog:          0
PSCL3 MSHR merge:          0
PSCL3 TOTAL     ACCESS:          0  HIT:          0  MISS:          0  HIT %:       -nan  MISS %:       -nan   MPKI: 0
PSCL3 PREFETCH  REQUESTED:          0  ISSUED:          0  USEFUL:          0  USELESS:          0
PSCL3 USEFUL LOAD PREFETCHES:          0 PREFETCH ISSUED TO LOWER LEVEL:          0  ACCURACY: -nan
PSCL3 TIMELY PREFETCHES:          0 LATE PREFETCHES: 0 DROPPED PREFETCHES: 0
PSCL3 COMMIT LATE PREFETCHES: 0 MISSED OPPORTUNITY: 0 LATE IN PQ: 0 UNCOVERED: 0
PSCL3 COMMIT LATE MSHR PREFETCHES: 0
PSCL3 MPKI TOTAL: 0 MSHR LATE: 0 PQ LATE: 0 COMMIT LATE: 0 MISSED OPPORTUNITY: 0 UNCOVERED: 0
PSCL3 PREFETCHES SAME FILL-ORIGIN LEVEL: 0 DIFFERENT FILL-ORIGIN LEVEL: 0

PSCL2 SPEC fills:          0  NON-SPEC fills:          0
PSCL2 Test counter :          0
PSCL2 Leapfrog:          0
PSCL2 MSHR merge:          0
PSCL2 TOTAL     ACCESS:          0  HIT:          0  MISS:          0  HIT %:       -nan  MISS %:       -nan   MPKI: 0
PSCL2 PREFETCH  REQUESTED:          0  ISSUED:          0  USEFUL:          0  USELESS:          0
PSCL2 USEFUL LOAD PREFETCHES:          0 PREFETCH ISSUED TO LOWER LEVEL:          0  ACCURACY: -nan
PSCL2 TIMELY PREFETCHES:          0 LATE PREFETCHES: 0 DROPPED PREFETCHES: 0
PSCL2 COMMIT LATE PREFETCHES: 0 MISSED OPPORTUNITY: 0 LATE IN PQ: 0 UNCOVERED: 0
PSCL2 COMMIT LATE MSHR PREFETCHES: 0
PSCL2 MPKI TOTAL: 0 MSHR LATE: 0 PQ LATE: 0 COMMIT LATE: 0 MISSED OPPORTUNITY: 0 UNCOVERED: 0
PSCL2 PREFETCHES SAME FILL-ORIGIN LEVEL: 0 DIFFERENT FILL-ORIGIN LEVEL: 0

LLC SPEC fills:          0  NON-SPEC fills:     488069
LLC Test counter :          0
LLC Leapfrog:          0
LLC MSHR merge:          0
LLC TOTAL     ACCESS:   21451288  HIT:   10168775  MISS:   11282513  HIT %:     47.404  MISS %:     52.596   MPKI: 56.4126
LLC LOAD      TOTAL       ACCESS:    7031500  HIT:    3959147  MISS:    3072353  HIT %:    56.3059  MISS %:    43.6941   MPKI: 15.3618
LLC LOAD      NON_SPEC    ACCESS:    1141267  HIT:     653198  MISS:     488069  HIT %:    57.2345  MISS %:    42.7655   MPKI: 2.44034
LLC LOAD      SPEC        ACCESS:    5890233  HIT:    3305949  MISS:    2584284  HIT %:    56.1259  MISS %:    43.8741   MPKI: 12.9214
LLC RFO       NON_SPEC    ACCESS:     208245  HIT:      94674  MISS:     113571  HIT %:    45.4628  MISS %:    54.5372   MPKI: 0.567855
LLC PREFETCH  NON_SPEC    ACCESS:    7301993  HIT:    2202295  MISS:    5099698  HIT %:    30.1602  MISS %:    69.8398   MPKI: 25.4985
LLC WRITEBACK NON_SPEC    ACCESS:     351624  HIT:     342225  MISS:       9399  HIT %:     97.327  MISS %:    2.67303   MPKI: 0.046995
LLC CLEAN_EVICTION NON_SPEC    ACCESS:    6440642  HIT:    3501910  MISS:    2938732  HIT %:    54.3721  MISS %:    45.6279   MPKI: 14.6937
LLC COMMIT LOAD NON_SPEC    ACCESS:      71154  HIT:      60127  MISS:      11027  HIT %:    84.5026  MISS %:    15.4974   MPKI: 0.055135
LLC LOAD TRANSLATION NON_SPEC    ACCESS:      46130  HIT:       8397  MISS:      37733  HIT %:    18.2029  MISS %:    81.7971   MPKI: 0.188665
LLC PREFETCH  REQUESTED:          0  ISSUED:          0  USEFUL:     542267  USELESS:    4556988
LLC USEFUL LOAD PREFETCHES:     542267 PREFETCH ISSUED TO LOWER LEVEL:    5099698  ACCURACY: 10.6333
LLC TIMELY PREFETCHES:     542267 LATE PREFETCHES: 0 DROPPED PREFETCHES: 0
LLC COMMIT LATE PREFETCHES: 0 MISSED OPPORTUNITY: 0 LATE IN PQ: 0 UNCOVERED: 0
LLC COMMIT LATE MSHR PREFETCHES: 0
LLC MPKI TOTAL: 15.3618 MSHR LATE: 0 PQ LATE: 0 COMMIT LATE: 0 MISSED OPPORTUNITY: 0 UNCOVERED: 0
LLC PREFETCHES SAME FILL-ORIGIN LEVEL: 0 DIFFERENT FILL-ORIGIN LEVEL: 0
LLC AVERAGE MISS LATENCY: 160.476 cycles
LLC AVERAGE MISS LATENCY LOAD: 181.633 cycles
LLC AVERAGE MISS LATENCY PREFETCH: 236.95 cycles
LLC AVERAGE MSHR OCCUPANCY: 3.22395
LLC MSHR FULL: 0
LLC RQ	ACCESS:    7357103	FORWARD:          0	MERGED:          0	TO_CACHE:    7357030
LLC WQ	ACCESS:    6792266	FORWARD:        215	MERGED:          0	TO_CACHE:    6792266
LLC PQ	ACCESS:    7302135	FORWARD:          0	MERGED:          0	TO_CACHE:    7301993

LLC Dense regions hint to LLC: 0

RAW hits: 63323
Loads Generated: 76780007
Loads sent to L1D: 76716680
Stores Generated: 2230587
Stores sent to L1D: 2230588
Major fault: 0 Minor fault: 36865
Allocated PAGES: 36865
Total Load insts: 93541030
Total Non-spec loads: 6317208
Percentage of speculative loads: 93.2466

LeapFrogging counter: 513818
Commit hits: 24045964 miss: 47419846
Commit hit %: 33.6468 miss %: 66.3532
Commits not translated: 0
Loads retired: 10982143
Stores retired: 2230588
Cache fills: 10982146
L1D response latency: 80.0342 cycles
Load retirement latency: 178.678 cycles
OOO test counter: 0
Discarded buffer inserts: 24045964 hits: 120678 hit %: 0.501864
Filter prediction accuracy: 97.7826
[Bingo] PHT Access: 5231330
[Bingo] PHT Hit PC+Addr: 209942
[Bingo] PHT Hit PC+Offs: 5017641
[Bingo] PHT Miss: 3747
[Bingo] Prefetch PC+Addr: 0
[Bingo] Prefetch PC+Offs: 0
[Bingo] Useful PC+Addr: 0
[Bingo] Useful PC+Offs: 0
[Bingo] Useless PC+Addr: 0
[Bingo] Useless PC+Offs: 0
[Bingo] L1 Prefetch per Region: 0
[Bingo] L2 Prefetch per Region: 2.59717
[Bingo] L3 Prefetch per Region: 0
[Bingo] No Prefetch per Region: 29.4028
[Bingo] Number of Voters Mean: 15.9686
[Bingo] Number of Voters SD: 6.30152
PHT read accesses: 81794920
PHT write accesses: 1904913
AT read accesses: 64054002
AT write accesses: 65417899
FT read accesses: 22046332
FT write accesses: 5231330
PS read accesses: 10805854
PS write accesses: 5227583
PHT tag read accesses: 141747372
PHT tag write accesses: 2114855
AT tag read accesses: 1546447701
AT tag write accesses: 65958914
FT tag read accesses: 653384490
FT tag write accesses: 17337077
PS tag read accesses: 1412848965
PS tag write accesses: 16010323

DRAM Statistics
 CHANNEL 0
 RQ ROW_BUFFER_HIT:    2899599  ROW_BUFFER_MISS:    5428695
 DBUS_CONGESTED:       9336
 WQ ROW_BUFFER_HIT:    1264505  ROW_BUFFER_MISS:    2986933  FULL:      12924

 AVG_CONGESTED_CYCLE: 5
 All warmup complete: 2
Channel 0 Bank busy for read cycles: 0
Channel 0 Bank busy for write cycles: 0
Channel 0
Rank 0
0banks busy for read cycles: 3624927
0banks busy for write cycles: 13913
1banks busy for read cycles: 120966448
1banks busy for write cycles: 3767557
2banks busy for read cycles: 96627574
2banks busy for write cycles: 4303047
3banks busy for read cycles: 62436544
3banks busy for write cycles: 5136327
4banks busy for read cycles: 33953670
4banks busy for write cycles: 6924636
5banks busy for read cycles: 16806108
5banks busy for write cycles: 11060910
6banks busy for read cycles: 9155144
6banks busy for write cycles: 21470134
7banks busy for read cycles: 8388616
7banks busy for write cycles: 41938311
8banks busy for read cycles: 17272481
8banks busy for write cycles: 62043286

CPU 0 Branch Prediction Accuracy: 97.7755% MPKI: 3.30878 Average ROB Occupancy at Mispredict: 162.426
Branch types
NOT_BRANCH: 170251444 85.1257%
BRANCH_DIRECT_JUMP: 9220890 4.61044%
BRANCH_INDIRECT: 0 0%
BRANCH_CONDITIONAL: 20524873 10.2624%
BRANCH_DIRECT_CALL: 1300 0.00065%
BRANCH_INDIRECT_CALL: 0 0%
BRANCH_RETURN: 1300 0.00065%
BRANCH_OTHER: 0 0%

DRAM PAGES: 1048576
Allocated PAGES: 36865
