
*** ChampSim Multicore Out-of-Order Simulator ***

Warmup Instructions: 50000000
Simulation Instructions: 200000000
Number of CPUs: 1
LLC sets: 2048
LLC ways: 16
L0D sets: 16
L0D ways: 2
ROB size: 352
LQ size: 128
SQ size: 72
Secure Berti: OFF
Berti: OFF
Berti Fill: OFF
On commit prefetching: ON
Hit-based filter: ON
Time-guarding: ON
Free-slotting: ON
Leap-frogging: ON
Train prefetcher on L0D bypass: OFF
No translation penalty for prefetchers: OFF
Prefetch to L0D only: OFF
Prefetch to L1D only: OFF
Clean evictions: ON
Commit loads: ON
Commit write: ON
Fill commit loads to L2C, LLC: ON
DRAM IO FREQUENCY: 6400
ROB SIZE: 352
Off-chip DRAM Size: 4096 MB Channels: 1 Width: 64-bit Data Rate: 6400 MT/s
CPU 0 runs /home/sumon/secure_berti/GhostMinion/../../traces/gap/sssp-10.trace.gz
.gz
BTB has LRU replacement policy
ITLB has LRU replacement policy
DTLB has LRU replacement policy
STLB has LRU replacement policy
L1I has LRU replacement policy
L0D has LRU replacement policy
L1D has LRU replacement policy
Bingo PHT WAYS: 16 and PHT_SIZE: 16384
L2C has LRU replacement policy
LLC has LRU replacement policy
Heartbeat CPU 0 instructions: 10000000 cycles: 3960374 heartbeat IPC: 2.52501 cumulative IPC: 2.52501 (Simulation time: 0 hr 0 min 34 sec) 
Heartbeat CPU 0 instructions: 20000001 cycles: 7798824 heartbeat IPC: 2.60522 cumulative IPC: 2.56449 (Simulation time: 0 hr 1 min 10 sec) 
Heartbeat CPU 0 instructions: 30000003 cycles: 11593485 heartbeat IPC: 2.63528 cumulative IPC: 2.58766 (Simulation time: 0 hr 1 min 46 sec) 
Heartbeat CPU 0 instructions: 40000002 cycles: 15360372 heartbeat IPC: 2.65471 cumulative IPC: 2.6041 (Simulation time: 0 hr 2 min 23 sec) 
Heartbeat CPU 0 instructions: 50000001 cycles: 19107607 heartbeat IPC: 2.66863 cumulative IPC: 2.61676 (Simulation time: 0 hr 2 min 57 sec) 

Warmup complete CPU 0 instructions: 50000001 cycles: 19107607 (Simulation time: 0 hr 2 min 57 sec) 

Heartbeat CPU 0 instructions: 60000000 cycles: 47257022 heartbeat IPC: 0.355247 cumulative IPC: 0.355247 (Simulation time: 0 hr 3 min 46 sec) 
Heartbeat CPU 0 instructions: 70000000 cycles: 75131421 heartbeat IPC: 0.358752 cumulative IPC: 0.356991 (Simulation time: 0 hr 4 min 34 sec) 
Heartbeat CPU 0 instructions: 80000001 cycles: 102187332 heartbeat IPC: 0.369605 cumulative IPC: 0.361099 (Simulation time: 0 hr 5 min 22 sec) 
Heartbeat CPU 0 instructions: 90000000 cycles: 127941753 heartbeat IPC: 0.388283 cumulative IPC: 0.367532 (Simulation time: 0 hr 6 min 7 sec) 
Heartbeat CPU 0 instructions: 100000000 cycles: 154855396 heartbeat IPC: 0.371559 cumulative IPC: 0.36833 (Simulation time: 0 hr 6 min 55 sec) 
Heartbeat CPU 0 instructions: 110000000 cycles: 181376589 heartbeat IPC: 0.377057 cumulative IPC: 0.369756 (Simulation time: 0 hr 7 min 42 sec) 
Heartbeat CPU 0 instructions: 120000003 cycles: 208425104 heartbeat IPC: 0.369706 cumulative IPC: 0.369749 (Simulation time: 0 hr 8 min 30 sec) 
Heartbeat CPU 0 instructions: 130000002 cycles: 234389331 heartbeat IPC: 0.385145 cumulative IPC: 0.371606 (Simulation time: 0 hr 9 min 20 sec) 
Heartbeat CPU 0 instructions: 140000002 cycles: 260439438 heartbeat IPC: 0.383876 cumulative IPC: 0.37293 (Simulation time: 0 hr 10 min 8 sec) 
Heartbeat CPU 0 instructions: 150000000 cycles: 286419726 heartbeat IPC: 0.384907 cumulative IPC: 0.374095 (Simulation time: 0 hr 10 min 54 sec) 
Heartbeat CPU 0 instructions: 160000001 cycles: 312485562 heartbeat IPC: 0.383644 cumulative IPC: 0.374943 (Simulation time: 0 hr 11 min 42 sec) 
Heartbeat CPU 0 instructions: 170000002 cycles: 338935204 heartbeat IPC: 0.378077 cumulative IPC: 0.375202 (Simulation time: 0 hr 12 min 29 sec) 
Heartbeat CPU 0 instructions: 180000001 cycles: 365145958 heartbeat IPC: 0.381523 cumulative IPC: 0.375681 (Simulation time: 0 hr 13 min 17 sec) 
Heartbeat CPU 0 instructions: 190000002 cycles: 390937531 heartbeat IPC: 0.387724 cumulative IPC: 0.376516 (Simulation time: 0 hr 14 min 4 sec) 
Heartbeat CPU 0 instructions: 200000003 cycles: 416411184 heartbeat IPC: 0.392563 cumulative IPC: 0.377545 (Simulation time: 0 hr 14 min 51 sec) 
Heartbeat CPU 0 instructions: 210000003 cycles: 442098355 heartbeat IPC: 0.389299 cumulative IPC: 0.378259 (Simulation time: 0 hr 15 min 39 sec) 
Heartbeat CPU 0 instructions: 220000000 cycles: 468049657 heartbeat IPC: 0.385337 cumulative IPC: 0.378668 (Simulation time: 0 hr 16 min 27 sec) 
Heartbeat CPU 0 instructions: 230000001 cycles: 493513634 heartbeat IPC: 0.392712 cumulative IPC: 0.379422 (Simulation time: 0 hr 17 min 14 sec) 
Heartbeat CPU 0 instructions: 240000001 cycles: 519003447 heartbeat IPC: 0.392314 cumulative IPC: 0.380079 (Simulation time: 0 hr 18 min 2 sec) 
Heartbeat CPU 0 instructions: 250000000 cycles: 544596961 heartbeat IPC: 0.390724 cumulative IPC: 0.380598 (Simulation time: 0 hr 18 min 51 sec) 
Finished CPU 0 instructions: 200000003 cycles: 525489355 cumulative IPC: 0.380598 (Simulation time: 0 hr 18 min 51 sec) 
 Instruction ID: 250000054

ChampSim completed all CPUs

Region of Interest Statistics

CPU 0 cumulative IPC: 0.380598 instructions: 200000003 cycles: 525489355
ITLB SPEC fills:          0  NON-SPEC fills:          0
ITLB Test counter :          0
ITLB Leapfrog:          0
ITLB MSHR merge:          0
ITLB TOTAL     ACCESS:   24219549  HIT:   24219549  MISS:          0  HIT %:        100  MISS %:          0   MPKI: 0
ITLB LOAD TRANSLATION NON_SPEC    ACCESS:   24219549  HIT:   24219549  MISS:          0  HIT %:        100  MISS %:          0   MPKI: 0
ITLB PREFETCH  REQUESTED:          0  ISSUED:          0  USEFUL:          0  USELESS:          0
ITLB USEFUL LOAD PREFETCHES:          0 PREFETCH ISSUED TO LOWER LEVEL:          0  ACCURACY: -nan
ITLB TIMELY PREFETCHES:          0 LATE PREFETCHES: 0 DROPPED PREFETCHES: 0
ITLB COMMIT LATE PREFETCHES: 0 MISSED OPPORTUNITY: 0 LATE IN PQ: 0 UNCOVERED: 0
ITLB COMMIT LATE MSHR PREFETCHES: 0
ITLB MPKI TOTAL: 0 MSHR LATE: 0 PQ LATE: 0 COMMIT LATE: 0 MISSED OPPORTUNITY: 0 UNCOVERED: 0
ITLB PREFETCHES SAME FILL-ORIGIN LEVEL: 0 DIFFERENT FILL-ORIGIN LEVEL: 0
ITLB AVERAGE MISS LATENCY: -nan cycles
ITLB AVERAGE MISS LATENCY LOAD: -nan cycles
ITLB AVERAGE MISS LATENCY PREFETCH: -nan cycles
ITLB AVERAGE MSHR OCCUPANCY: 0
ITLB MSHR FULL: 0
ITLB RQ	ACCESS:   24883824	FORWARD:          0	MERGED:     664275	TO_CACHE:   24219549

DTLB SPEC fills:          0  NON-SPEC fills:          0
DTLB Test counter :          0
DTLB Leapfrog:          0
DTLB MSHR merge:          0
DTLB TOTAL     ACCESS:   48447210  HIT:   43772272  MISS:    4674938  HIT %:    90.3504  MISS %:    9.64955   MPKI: 23.3747
DTLB LOAD TRANSLATION NON_SPEC    ACCESS:   48447210  HIT:   43772272  MISS:    4674938  HIT %:    90.3504  MISS %:    9.64955   MPKI: 23.3747
DTLB PREFETCH  REQUESTED:          0  ISSUED:          0  USEFUL:          0  USELESS:          0
DTLB USEFUL LOAD PREFETCHES:          0 PREFETCH ISSUED TO LOWER LEVEL:          0  ACCURACY: -nan
DTLB TIMELY PREFETCHES:          0 LATE PREFETCHES: 0 DROPPED PREFETCHES: 0
DTLB COMMIT LATE PREFETCHES: 0 MISSED OPPORTUNITY: 0 LATE IN PQ: 0 UNCOVERED: 0
DTLB COMMIT LATE MSHR PREFETCHES: 0
DTLB MPKI TOTAL: 0 MSHR LATE: 0 PQ LATE: 0 COMMIT LATE: 0 MISSED OPPORTUNITY: 0 UNCOVERED: 0
DTLB PREFETCHES SAME FILL-ORIGIN LEVEL: 0 DIFFERENT FILL-ORIGIN LEVEL: 0
DTLB AVERAGE MISS LATENCY: 12.5742 cycles
DTLB AVERAGE MISS LATENCY LOAD: -nan cycles
DTLB AVERAGE MISS LATENCY PREFETCH: -nan cycles
DTLB AVERAGE MSHR OCCUPANCY: 0.23414
DTLB MSHR FULL: 1.63822e-07
DTLB RQ	ACCESS:   52852099	FORWARD:          0	MERGED:    4018549	TO_CACHE:   48833550

STLB SPEC fills:          0  NON-SPEC fills:          0
STLB Test counter :          0
STLB Leapfrog:          0
STLB MSHR merge:          0
STLB TOTAL     ACCESS:    4674938  HIT:    4614398  MISS:      60540  HIT %:     98.705  MISS %:    1.29499   MPKI: 0.3027
STLB LOAD TRANSLATION NON_SPEC    ACCESS:    4674938  HIT:    4614398  MISS:      60540  HIT %:     98.705  MISS %:    1.29499   MPKI: 0.3027
STLB PREFETCH  REQUESTED:          0  ISSUED:          0  USEFUL:          0  USELESS:          0
STLB USEFUL LOAD PREFETCHES:          0 PREFETCH ISSUED TO LOWER LEVEL:          0  ACCURACY: -nan
STLB TIMELY PREFETCHES:          0 LATE PREFETCHES: 0 DROPPED PREFETCHES: 0
STLB COMMIT LATE PREFETCHES: 0 MISSED OPPORTUNITY: 0 LATE IN PQ: 0 UNCOVERED: 0
STLB COMMIT LATE MSHR PREFETCHES: 0
STLB MPKI TOTAL: 0 MSHR LATE: 0 PQ LATE: 0 COMMIT LATE: 0 MISSED OPPORTUNITY: 0 UNCOVERED: 0
STLB PREFETCHES SAME FILL-ORIGIN LEVEL: 0 DIFFERENT FILL-ORIGIN LEVEL: 0
STLB AVERAGE MISS LATENCY: 258.295 cycles
STLB AVERAGE MISS LATENCY LOAD: -nan cycles
STLB AVERAGE MISS LATENCY PREFETCH: -nan cycles
STLB AVERAGE MSHR OCCUPANCY: 0.0109159
STLB MSHR FULL: 0
STLB RQ	ACCESS:    4674938	FORWARD:          0	MERGED:          0	TO_CACHE:    4674938

STLB Hit, L1D data hit: 0
STLB Hit, L2C data hit: 0
STLB Hit, LLC data hit: 0
STLB Hit, LLC data miss: 0
STLB STLB hints to L2: 0
L0D SPEC fills:   25907236  NON-SPEC fills:          0
L0D TimeGuard Request with older TS:    2012032 Restricted eviction:     197883 read:    4071549
L0D Test counter :          0
L0D Leapfrog:          0
L0D MSHR merge:    3010261
L0D TOTAL     ACCESS:   47625068  HIT:   16495743  MISS:   31129325  HIT %:    34.6367  MISS %:    65.3633   MPKI: 155.647
L0D LOAD      TOTAL       ACCESS:   47625068  HIT:   16495743  MISS:   31129325  HIT %:    34.6367  MISS %:    65.3633   MPKI: 155.647
L0D LOAD      NON_SPEC    ACCESS:    5105207  HIT:      81001  MISS:    5024206  HIT %:    1.58663  MISS %:    98.4134   MPKI: 25.121
L0D LOAD      SPEC        ACCESS:   42519861  HIT:   16414742  MISS:   26105119  HIT %:    38.6049  MISS %:    61.3951   MPKI: 130.526
L0D PREFETCH  REQUESTED:          0  ISSUED:          0  USEFUL:          0  USELESS:          0
L0D USEFUL LOAD PREFETCHES:          0 PREFETCH ISSUED TO LOWER LEVEL:          0  ACCURACY: -nan
L0D TIMELY PREFETCHES:          0 LATE PREFETCHES: 0 DROPPED PREFETCHES: 0
L0D COMMIT LATE PREFETCHES: 0 MISSED OPPORTUNITY: 0 LATE IN PQ: 0 UNCOVERED: 0
L0D COMMIT LATE MSHR PREFETCHES: 0
L0D MPKI TOTAL: 170.698 MSHR LATE: 0 PQ LATE: 0 COMMIT LATE: 0 MISSED OPPORTUNITY: 0 UNCOVERED: 0
L0D PREFETCHES SAME FILL-ORIGIN LEVEL: 0 DIFFERENT FILL-ORIGIN LEVEL: 0
L0D AVERAGE MISS LATENCY: 33.2937 cycles
L0D AVERAGE MISS LATENCY LOAD: 33.2937 cycles
L0D AVERAGE MISS LATENCY PREFETCH: -nan cycles
L0D AVERAGE MSHR OCCUPANCY: 2.16295
L0D MSHR FULL: 0.0349877
L0D RQ	ACCESS:   76741774	FORWARD:          0	MERGED:   26106447	TO_CACHE:   50635327
L0D WQ	ACCESS:    2216772	FORWARD:          0	MERGED:          0	TO_CACHE:    2216772

L1D SPEC fills:          0  NON-SPEC fills:    1758388
L1D Test counter :          0
L1D Leapfrog:          0
L1D MSHR merge:       9323
L1D TOTAL     ACCESS:   44327279  HIT:   24214955  MISS:   20112324  HIT %:    54.6277  MISS %:    45.3723   MPKI: 100.562
L1D LOAD      TOTAL       ACCESS:   31120002  HIT:   20136741  MISS:   10983261  HIT %:    64.7067  MISS %:    35.2933   MPKI: 54.9163
L1D LOAD      NON_SPEC    ACCESS:    5022783  HIT:    3264395  MISS:    1758388  HIT %:    64.9918  MISS %:    35.0082   MPKI: 8.79194
L1D LOAD      SPEC        ACCESS:   26097219  HIT:   16872346  MISS:    9224873  HIT %:    64.6519  MISS %:    35.3481   MPKI: 46.1244
L1D RFO       NON_SPEC    ACCESS:    2023749  HIT:    1554587  MISS:     469162  HIT %:    76.8172  MISS %:    23.1828   MPKI: 2.34581
L1D COMMIT LOAD NON_SPEC    ACCESS:    1956160  HIT:    1817004  MISS:     139156  HIT %:    92.8863  MISS %:    7.11373   MPKI: 0.69578
L1D COMMIT WRITE NON_SPEC    ACCESS:    9227368  HIT:     706623  MISS:    8520745  HIT %:     7.6579  MISS %:    92.3421   MPKI: 42.6037
L1D PREFETCH  REQUESTED:          0  ISSUED:          0  USEFUL:          0  USELESS:          0
L1D USEFUL LOAD PREFETCHES:          0 PREFETCH ISSUED TO LOWER LEVEL:          0  ACCURACY: -nan
L1D TIMELY PREFETCHES:          0 LATE PREFETCHES: 0 DROPPED PREFETCHES: 0
L1D COMMIT LATE PREFETCHES: 0 MISSED OPPORTUNITY: 0 LATE IN PQ: 0 UNCOVERED: 0
L1D COMMIT LATE MSHR PREFETCHES: 0
L1D MPKI TOTAL: 54.9629 MSHR LATE: 0 PQ LATE: 0 COMMIT LATE: 0 MISSED OPPORTUNITY: 0 UNCOVERED: 0
L1D PREFETCHES SAME FILL-ORIGIN LEVEL: 0 DIFFERENT FILL-ORIGIN LEVEL: 0
L1D AVERAGE MISS LATENCY: 46.3052 cycles
L1D AVERAGE MISS LATENCY LOAD: 79.7123 cycles
L1D AVERAGE MISS LATENCY PREFETCH: -nan cycles
L1D AVERAGE MSHR OCCUPANCY: 2.10888
L1D MSHR FULL: 0.0533802
L1D RQ	ACCESS:   34247252	FORWARD:          0	MERGED:    1142319	TO_CACHE:   33099685
L1D WQ	ACCESS:   11444139	FORWARD:       5248	MERGED:       1163	TO_CACHE:   11442976

L1D UNIQUE REGIONS ACCESSED: 0
L1D REGIONS CONFLICTS: 0
L1D Cross Page Prefetch Requests: 0
L1D Same Page Prefetch Requests: 0
L1D ROI Sum of L1D PQ occupancy: 0
L1D PREFETCHES PUSHED FROM L2C: 0
L1I SPEC fills:          0  NON-SPEC fills:          0
L1I Test counter :          0
L1I Leapfrog:          0
L1I MSHR merge:          0
L1I TOTAL     ACCESS:   24883824  HIT:   24883824  MISS:          0  HIT %:        100  MISS %:          0   MPKI: 0
L1I LOAD      TOTAL       ACCESS:   24883824  HIT:   24883824  MISS:          0  HIT %:        100  MISS %:          0   MPKI: 0
L1I LOAD      NON_SPEC    ACCESS:   24883824  HIT:   24883824  MISS:          0  HIT %:        100  MISS %:          0   MPKI: 0
L1I PREFETCH  REQUESTED:          0  ISSUED:          0  USEFUL:          0  USELESS:          0
L1I USEFUL LOAD PREFETCHES:          0 PREFETCH ISSUED TO LOWER LEVEL:          0  ACCURACY: -nan
L1I TIMELY PREFETCHES:          0 LATE PREFETCHES: 0 DROPPED PREFETCHES: 0
L1I COMMIT LATE PREFETCHES: 0 MISSED OPPORTUNITY: 0 LATE IN PQ: 0 UNCOVERED: 0
L1I COMMIT LATE MSHR PREFETCHES: 0
L1I MPKI TOTAL: 0 MSHR LATE: 0 PQ LATE: 0 COMMIT LATE: 0 MISSED OPPORTUNITY: 0 UNCOVERED: 0
L1I PREFETCHES SAME FILL-ORIGIN LEVEL: 0 DIFFERENT FILL-ORIGIN LEVEL: 0
L1I AVERAGE MISS LATENCY: -nan cycles
L1I AVERAGE MISS LATENCY LOAD: -nan cycles
L1I AVERAGE MISS LATENCY PREFETCH: -nan cycles
L1I AVERAGE MSHR OCCUPANCY: 0
L1I MSHR FULL: 0
L1I RQ	ACCESS:   38861722	FORWARD:          0	MERGED:   13977898	TO_CACHE:   24883824

BTB SPEC fills:          0  NON-SPEC fills:          0
BTB Test counter :          0
BTB Leapfrog:          0
BTB MSHR merge:          0
BTB TOTAL     ACCESS:   29056031  HIT:   29055886  MISS:        145  HIT %:    99.9995  MISS %: 0.000499036   MPKI: 0.000725
BTB BRANCH_DIRECT_JUMP	ACCESS:    9225403  HIT:    9225362  MISS:         41
BTB BRANCH_INDIRECT	ACCESS:          0  HIT:          0  MISS:          0
BTB BRANCH_CONDITIONAL	ACCESS:   19828000  HIT:   19827919  MISS:         81
BTB BRANCH_DIRECT_CALL	ACCESS:       1314  HIT:       1305  MISS:          9
BTB BRANCH_INDIRECT_CALL	ACCESS:          0  HIT:          0  MISS:          0
BTB BRANCH_RETURN	ACCESS:       1314  HIT:       1300  MISS:         14
BTB BRANCH_OTHER ACCESS:          0  HIT:          0  MISS:          0

L2C SPEC fills:          0  NON-SPEC fills:    1179708
L2C Test counter :          0
L2C Leapfrog:          0
L2C MSHR merge:     137212
L2C TOTAL     ACCESS:   27116936  HIT:    6772834  MISS:   20344102  HIT %:    24.9764  MISS %:    75.0236   MPKI: 101.721
L2C LOAD      TOTAL       ACCESS:   10983228  HIT:    3789798  MISS:    7193430  HIT %:    34.5053  MISS %:    65.4947   MPKI: 35.9671
L2C LOAD      NON_SPEC    ACCESS:    1758385  HIT:     578677  MISS:    1179708  HIT %:    32.9096  MISS %:    67.0904   MPKI: 5.89854
L2C LOAD      SPEC        ACCESS:    9224843  HIT:    3211121  MISS:    6013722  HIT %:    34.8095  MISS %:    65.1905   MPKI: 30.0686
L2C RFO       NON_SPEC    ACCESS:     469138  HIT:     263382  MISS:     205756  HIT %:    56.1417  MISS %:    43.8583   MPKI: 1.02878
L2C PREFETCH  NON_SPEC    ACCESS:    7940722  HIT:     902115  MISS:    7038607  HIT %:    11.3606  MISS %:    88.6394   MPKI: 35.193
L2C WRITEBACK NON_SPEC    ACCESS:     816382  HIT:     813637  MISS:       2745  HIT %:    99.6638  MISS %:    0.33624   MPKI: 0.013725
L2C CLEAN_EVICTION NON_SPEC    ACCESS:    6465614  HIT:     686864  MISS:    5778750  HIT %:    10.6233  MISS %:    89.3767   MPKI: 28.8937
L2C COMMIT LOAD NON_SPEC    ACCESS:     139156  HIT:      60524  MISS:      78632  HIT %:    43.4936  MISS %:    56.5064   MPKI: 0.39316
L2C LOAD TRANSLATION NON_SPEC    ACCESS:     302696  HIT:     256514  MISS:      46182  HIT %:    84.7431  MISS %:    15.2569   MPKI: 0.23091
L2C PREFETCH  REQUESTED:    8156595  ISSUED:    8156595  USEFUL:    1489074  USELESS:    5549944
L2C USEFUL LOAD PREFETCHES:    1489074 PREFETCH ISSUED TO LOWER LEVEL:    7181356  ACCURACY: 20.7353
L2C TIMELY PREFETCHES:    1489074 LATE PREFETCHES: 142746 DROPPED PREFETCHES: 0
L2C COMMIT LATE PREFETCHES: 0 MISSED OPPORTUNITY: 0 LATE IN PQ: 0 UNCOVERED: 0
L2C COMMIT LATE MSHR PREFETCHES: 0
L2C MPKI TOTAL: 35.9672 MSHR LATE: 0.71373 PQ LATE: 0 COMMIT LATE: 0 MISSED OPPORTUNITY: 0 UNCOVERED: 0
L2C PREFETCHES SAME FILL-ORIGIN LEVEL: 7181356 DIFFERENT FILL-ORIGIN LEVEL: 0
L2C AVERAGE MISS LATENCY: 105.932 cycles
L2C AVERAGE MISS LATENCY LOAD: 103.139 cycles
L2C AVERAGE MISS LATENCY PREFETCH: 192.886 cycles
L2C AVERAGE MSHR OCCUPANCY: 5.10346
L2C MSHR FULL: 0.0364384
L2C RQ	ACCESS:   11894277	FORWARD:          0	MERGED:          0	TO_CACHE:   11894220
L2C WQ	ACCESS:    7282001	FORWARD:         75	MERGED:          5	TO_CACHE:    7281996
L2C PQ	ACCESS:    8156595	FORWARD:          0	MERGED:         29	TO_CACHE:    8156548

L2C Instructions Evicting Data 0
L2C Translations Evicting Data 45979
L2C Data Evicting Data 8479182
L2C Instructions Evicting Instructions 0
L2C Translations Evicting Instructions 0
L2C Data Evicting Instructions 0
L2C Instructions Evicting Translations 0
L2C Translations Evicting Translations 203
L2C Data Evicting Translations 23521
L2C Dense regions hint from L2: 0
PSCL5 SPEC fills:          0  NON-SPEC fills:          0
PSCL5 Test counter :          0
PSCL5 Leapfrog:          0
PSCL5 MSHR merge:          0
PSCL5 TOTAL     ACCESS:          0  HIT:          0  MISS:          0  HIT %:       -nan  MISS %:       -nan   MPKI: 0
PSCL5 PREFETCH  REQUESTED:          0  ISSUED:          0  USEFUL:          0  USELESS:          0
PSCL5 USEFUL LOAD PREFETCHES:          0 PREFETCH ISSUED TO LOWER LEVEL:          0  ACCURACY: -nan
PSCL5 TIMELY PREFETCHES:          0 LATE PREFETCHES: 0 DROPPED PREFETCHES: 0
PSCL5 COMMIT LATE PREFETCHES: 0 MISSED OPPORTUNITY: 0 LATE IN PQ: 0 UNCOVERED: 0
PSCL5 COMMIT LATE MSHR PREFETCHES: 0
PSCL5 MPKI TOTAL: 0 MSHR LATE: 0 PQ LATE: 0 COMMIT LATE: 0 MISSED OPPORTUNITY: 0 UNCOVERED: 0
PSCL5 PREFETCHES SAME FILL-ORIGIN LEVEL: 0 DIFFERENT FILL-ORIGIN LEVEL: 0

PSCL4 SPEC fills:          0  NON-SPEC fills:          0
PSCL4 Test counter :          0
PSCL4 Leapfrog:          0
PSCL4 MSHR merge:          0
PSCL4 TOTAL     ACCESS:          0  HIT:          0  MISS:          0  HIT %:       -nan  MISS %:       -nan   MPKI: 0
PSCL4 PREFETCH  REQUESTED:          0  ISSUED:          0  USEFUL:          0  USELESS:          0
PSCL4 USEFUL LOAD PREFETCHES:          0 PREFETCH ISSUED TO LOWER LEVEL:          0  ACCURACY: -nan
PSCL4 TIMELY PREFETCHES:          0 LATE PREFETCHES: 0 DROPPED PREFETCHES: 0
PSCL4 COMMIT LATE PREFETCHES: 0 MISSED OPPORTUNITY: 0 LATE IN PQ: 0 UNCOVERED: 0
PSCL4 COMMIT LATE MSHR PREFETCHES: 0
PSCL4 MPKI TOTAL: 0 MSHR LATE: 0 PQ LATE: 0 COMMIT LATE: 0 MISSED OPPORTUNITY: 0 UNCOVERED: 0
PSCL4 PREFETCHES SAME FILL-ORIGIN LEVEL: 0 DIFFERENT FILL-ORIGIN LEVEL: 0

PSCL3 SPEC fills:          0  NON-SPEC fills:          0
PSCL3 Test counter :          0
PSCL3 Leapfrog:          0
PSCL3 MSHR merge:          0
PSCL3 TOTAL     ACCESS:          0  HIT:          0  MISS:          0  HIT %:       -nan  MISS %:       -nan   MPKI: 0
PSCL3 PREFETCH  REQUESTED:          0  ISSUED:          0  USEFUL:          0  USELESS:          0
PSCL3 USEFUL LOAD PREFETCHES:          0 PREFETCH ISSUED TO LOWER LEVEL:          0  ACCURACY: -nan
PSCL3 TIMELY PREFETCHES:          0 LATE PREFETCHES: 0 DROPPED PREFETCHES: 0
PSCL3 COMMIT LATE PREFETCHES: 0 MISSED OPPORTUNITY: 0 LATE IN PQ: 0 UNCOVERED: 0
PSCL3 COMMIT LATE MSHR PREFETCHES: 0
PSCL3 MPKI TOTAL: 0 MSHR LATE: 0 PQ LATE: 0 COMMIT LATE: 0 MISSED OPPORTUNITY: 0 UNCOVERED: 0
PSCL3 PREFETCHES SAME FILL-ORIGIN LEVEL: 0 DIFFERENT FILL-ORIGIN LEVEL: 0

PSCL2 SPEC fills:          0  NON-SPEC fills:          0
PSCL2 Test counter :          0
PSCL2 Leapfrog:          0
PSCL2 MSHR merge:          0
PSCL2 TOTAL     ACCESS:          0  HIT:          0  MISS:          0  HIT %:       -nan  MISS %:       -nan   MPKI: 0
PSCL2 PREFETCH  REQUESTED:          0  ISSUED:          0  USEFUL:          0  USELESS:          0
PSCL2 USEFUL LOAD PREFETCHES:          0 PREFETCH ISSUED TO LOWER LEVEL:          0  ACCURACY: -nan
PSCL2 TIMELY PREFETCHES:          0 LATE PREFETCHES: 0 DROPPED PREFETCHES: 0
PSCL2 COMMIT LATE PREFETCHES: 0 MISSED OPPORTUNITY: 0 LATE IN PQ: 0 UNCOVERED: 0
PSCL2 COMMIT LATE MSHR PREFETCHES: 0
PSCL2 MPKI TOTAL: 0 MSHR LATE: 0 PQ LATE: 0 COMMIT LATE: 0 MISSED OPPORTUNITY: 0 UNCOVERED: 0
PSCL2 PREFETCHES SAME FILL-ORIGIN LEVEL: 0 DIFFERENT FILL-ORIGIN LEVEL: 0

LLC SPEC fills:          0  NON-SPEC fills:     483065
LLC Test counter :          0
LLC Leapfrog:          0
LLC MSHR merge:          0
LLC TOTAL     ACCESS:   21353391  HIT:   10243600  MISS:   11109791  HIT %:    47.9718  MISS %:    52.0282   MPKI: 55.549
LLC LOAD      TOTAL       ACCESS:    7056173  HIT:    4004341  MISS:    3051832  HIT %:    56.7495  MISS %:    43.2505   MPKI: 15.2592
LLC LOAD      NON_SPEC    ACCESS:    1145228  HIT:     662163  MISS:     483065  HIT %:    57.8193  MISS %:    42.1807   MPKI: 2.41532
LLC LOAD      SPEC        ACCESS:    5910945  HIT:    3342178  MISS:    2568767  HIT %:    56.5422  MISS %:    43.4578   MPKI: 12.8438
LLC RFO       NON_SPEC    ACCESS:     205740  HIT:      90538  MISS:     115202  HIT %:     44.006  MISS %:     55.994   MPKI: 0.57601
LLC PREFETCH  NON_SPEC    ACCESS:    7181197  HIT:    2226973  MISS:    4954224  HIT %:    31.0112  MISS %:    68.9888   MPKI: 24.7711
LLC WRITEBACK NON_SPEC    ACCESS:     347031  HIT:     338154  MISS:       8877  HIT %:     97.442  MISS %:    2.55798   MPKI: 0.044385
LLC CLEAN_EVICTION NON_SPEC    ACCESS:    6443972  HIT:    3513646  MISS:    2930326  HIT %:    54.5261  MISS %:    45.4739   MPKI: 14.6516
LLC COMMIT LOAD NON_SPEC    ACCESS:      73096  HIT:      61256  MISS:      11840  HIT %:    83.8021  MISS %:    16.1979   MPKI: 0.0592
LLC LOAD TRANSLATION NON_SPEC    ACCESS:      46182  HIT:       8692  MISS:      37490  HIT %:    18.8212  MISS %:    81.1788   MPKI: 0.18745
LLC PREFETCH  REQUESTED:          0  ISSUED:          0  USEFUL:     527254  USELESS:    4427613
LLC USEFUL LOAD PREFETCHES:     527254 PREFETCH ISSUED TO LOWER LEVEL:    4954225  ACCURACY: 10.6425
LLC TIMELY PREFETCHES:     527254 LATE PREFETCHES: 0 DROPPED PREFETCHES: 0
LLC COMMIT LATE PREFETCHES: 0 MISSED OPPORTUNITY: 0 LATE IN PQ: 0 UNCOVERED: 0
LLC COMMIT LATE MSHR PREFETCHES: 0
LLC MPKI TOTAL: 15.2592 MSHR LATE: 0 PQ LATE: 0 COMMIT LATE: 0 MISSED OPPORTUNITY: 0 UNCOVERED: 0
LLC PREFETCHES SAME FILL-ORIGIN LEVEL: 0 DIFFERENT FILL-ORIGIN LEVEL: 0
LLC AVERAGE MISS LATENCY: 160.5 cycles
LLC AVERAGE MISS LATENCY LOAD: 182.576 cycles
LLC AVERAGE MISS LATENCY PREFETCH: 238.439 cycles
LLC AVERAGE MSHR OCCUPANCY: 3.20291
LLC MSHR FULL: 0
LLC RQ	ACCESS:    7381256	FORWARD:          0	MERGED:          0	TO_CACHE:    7381193
LLC WQ	ACCESS:    6791003	FORWARD:        219	MERGED:          0	TO_CACHE:    6791003
LLC PQ	ACCESS:    7181356	FORWARD:          0	MERGED:          0	TO_CACHE:    7181200

LLC Dense regions hint to LLC: 0

RAW hits: 63943
Loads Generated: 76805717
Loads sent to L1D: 76741774
Stores Generated: 2216772
Stores sent to L1D: 2216772
Major fault: 0 Minor fault: 37080
Allocated PAGES: 37080
Total Load insts: 93562476
Total Non-spec loads: 6283277
Percentage of speculative loads: 93.2844

LeapFrogging counter: 539847
Commit hits: 24027717 miss: 47489041
Commit hit %: 33.5973 miss %: 66.4027
Commits not translated: 0
Loads retired: 10983260
Stores retired: 2216772
Cache fills: 10983261
L1D response latency: 79.7123 cycles
Load retirement latency: 178.886 cycles
OOO test counter: 0
Discarded buffer inserts: 24027717 hits: 118097 hit %: 0.491503
Filter prediction accuracy: 97.8858
[Bingo] PHT Access: 5367684
[Bingo] PHT Hit PC+Addr: 234621
[Bingo] PHT Hit PC+Offs: 5128920
[Bingo] PHT Miss: 4143
[Bingo] Prefetch PC+Addr: 0
[Bingo] Prefetch PC+Offs: 0
[Bingo] Useful PC+Addr: 0
[Bingo] Useful PC+Offs: 0
[Bingo] Useless PC+Addr: 0
[Bingo] Useless PC+Offs: 0
[Bingo] L1 Prefetch per Region: 0
[Bingo] L2 Prefetch per Region: 2.53809
[Bingo] L3 Prefetch per Region: 0
[Bingo] No Prefetch per Region: 29.4619
[Bingo] Number of Voters Mean: 15.9561
[Bingo] Number of Voters SD: 5.96608
PHT read accesses: 83812609
PHT write accesses: 1910903
AT read accesses: 61718472
AT write accesses: 63070893
FT read accesses: 26555827
FT write accesses: 5367684
PS read accesses: 11057848
PS write accesses: 5363541
PHT tag read accesses: 143796499
PHT tag write accesses: 2145524
AT tag read accesses: 1545662768
AT tag write accesses: 63629375
FT tag read accesses: 694790432
FT tag write accesses: 19734541
PS tag read accesses: 1419368655
PS tag write accesses: 16397277

DRAM Statistics
 CHANNEL 0
 RQ ROW_BUFFER_HIT:    2761975  ROW_BUFFER_MISS:    5402215
 DBUS_CONGESTED:       9233
 WQ ROW_BUFFER_HIT:    1257899  ROW_BUFFER_MISS:    2956990  FULL:      10711

 AVG_CONGESTED_CYCLE: 5
 All warmup complete: 2
Channel 0 Bank busy for read cycles: 0
Channel 0 Bank busy for write cycles: 0
Channel 0
Rank 0
0banks busy for read cycles: 4109310
0banks busy for write cycles: 15118
1banks busy for read cycles: 121655271
1banks busy for write cycles: 3833500
2banks busy for read cycles: 97735286
2banks busy for write cycles: 4307392
3banks busy for read cycles: 63031498
3banks busy for write cycles: 5150943
4banks busy for read cycles: 33799993
4banks busy for write cycles: 6896479
5banks busy for read cycles: 16473432
5banks busy for write cycles: 11018584
6banks busy for read cycles: 8652894
6banks busy for write cycles: 21392764
7banks busy for read cycles: 7877654
7banks busy for write cycles: 42042523
8banks busy for read cycles: 16454364
8banks busy for write cycles: 61042351

CPU 0 Branch Prediction Accuracy: 97.7909% MPKI: 3.2859 Average ROB Occupancy at Mispredict: 162.974
Branch types
NOT_BRANCH: 170250761 85.1254%
BRANCH_DIRECT_JUMP: 9225403 4.6127%
BRANCH_INDIRECT: 0 0%
BRANCH_CONDITIONAL: 20520883 10.2604%
BRANCH_DIRECT_CALL: 1314 0.000657%
BRANCH_INDIRECT_CALL: 0 0%
BRANCH_RETURN: 1314 0.000657%
BRANCH_OTHER: 0 0%

DRAM PAGES: 1048576
Allocated PAGES: 37080
