
*** ChampSim Multicore Out-of-Order Simulator ***

Warmup Instructions: 50000000
Simulation Instructions: 200000000
Number of CPUs: 1
LLC sets: 2048
LLC ways: 16
L0D sets: 16
L0D ways: 2
ROB size: 352
LQ size: 128
SQ size: 72
Secure Berti: OFF
Berti: OFF
Berti Fill: OFF
On commit prefetching: OFF
Hit-based filter: OFF
Time-guarding: ON
Free-slotting: ON
Leap-frogging: ON
Train prefetcher on L0D bypass: OFF
No translation penalty for prefetchers: OFF
Prefetch to L0D only: OFF
Prefetch to L1D only: OFF
Clean evictions: ON
Commit loads: ON
Commit write: ON
Fill commit loads to L2C, LLC: ON
DRAM IO FREQUENCY: 6400
ROB SIZE: 352
Off-chip DRAM Size: 4096 MB Channels: 1 Width: 64-bit Data Rate: 6400 MT/s
CPU 0 runs /home/sumon/secure_berti/GhostMinion/../../traces/gap/bc-3.trace.gz
.gz
BTB has LRU replacement policy
ITLB has LRU replacement policy
DTLB has LRU replacement policy
STLB has LRU replacement policy
L1I has LRU replacement policy
L0D has LRU replacement policy
L1D has LRU replacement policy
L2C has LRU replacement policy
LLC has LRU replacement policy
Heartbeat CPU 0 instructions: 10000002 cycles: 3767348 heartbeat IPC: 2.65439 cumulative IPC: 2.65439 (Simulation time: 0 hr 0 min 31 sec) 
Heartbeat CPU 0 instructions: 20000000 cycles: 7076102 heartbeat IPC: 3.02229 cumulative IPC: 2.82641 (Simulation time: 0 hr 1 min 0 sec) 
Heartbeat CPU 0 instructions: 30000003 cycles: 10434233 heartbeat IPC: 2.97785 cumulative IPC: 2.87515 (Simulation time: 0 hr 1 min 30 sec) 
Heartbeat CPU 0 instructions: 40000003 cycles: 13791996 heartbeat IPC: 2.97817 cumulative IPC: 2.90023 (Simulation time: 0 hr 2 min 0 sec) 
Heartbeat CPU 0 instructions: 50000003 cycles: 17153060 heartbeat IPC: 2.97525 cumulative IPC: 2.91493 (Simulation time: 0 hr 2 min 30 sec) 

Warmup complete CPU 0 instructions: 50000003 cycles: 17153060 (Simulation time: 0 hr 2 min 30 sec) 

Heartbeat CPU 0 instructions: 60000001 cycles: 74030836 heartbeat IPC: 0.175816 cumulative IPC: 0.175816 (Simulation time: 0 hr 3 min 24 sec) 
Heartbeat CPU 0 instructions: 70000000 cycles: 130963797 heartbeat IPC: 0.175645 cumulative IPC: 0.17573 (Simulation time: 0 hr 4 min 18 sec) 
Heartbeat CPU 0 instructions: 80000000 cycles: 188248078 heartbeat IPC: 0.174568 cumulative IPC: 0.175341 (Simulation time: 0 hr 5 min 14 sec) 
Heartbeat CPU 0 instructions: 90000000 cycles: 245457106 heartbeat IPC: 0.174798 cumulative IPC: 0.175205 (Simulation time: 0 hr 6 min 12 sec) 
Heartbeat CPU 0 instructions: 100000003 cycles: 302386911 heartbeat IPC: 0.175655 cumulative IPC: 0.175295 (Simulation time: 0 hr 7 min 35 sec) 
Heartbeat CPU 0 instructions: 110000000 cycles: 359656994 heartbeat IPC: 0.174611 cumulative IPC: 0.17518 (Simulation time: 0 hr 9 min 11 sec) 
Heartbeat CPU 0 instructions: 120000000 cycles: 416278972 heartbeat IPC: 0.17661 cumulative IPC: 0.175383 (Simulation time: 0 hr 10 min 27 sec) 
Heartbeat CPU 0 instructions: 130000001 cycles: 473653708 heartbeat IPC: 0.174293 cumulative IPC: 0.175246 (Simulation time: 0 hr 11 min 34 sec) 
Heartbeat CPU 0 instructions: 140000001 cycles: 530893560 heartbeat IPC: 0.174703 cumulative IPC: 0.175186 (Simulation time: 0 hr 12 min 42 sec) 
Heartbeat CPU 0 instructions: 150000000 cycles: 588196914 heartbeat IPC: 0.17451 cumulative IPC: 0.175118 (Simulation time: 0 hr 13 min 46 sec) 
Heartbeat CPU 0 instructions: 160000001 cycles: 644547307 heartbeat IPC: 0.177461 cumulative IPC: 0.175328 (Simulation time: 0 hr 14 min 50 sec) 
Heartbeat CPU 0 instructions: 170000000 cycles: 700442844 heartbeat IPC: 0.178905 cumulative IPC: 0.175621 (Simulation time: 0 hr 15 min 56 sec) 
Heartbeat CPU 0 instructions: 180000000 cycles: 755629547 heartbeat IPC: 0.181203 cumulative IPC: 0.176038 (Simulation time: 0 hr 16 min 59 sec) 
Heartbeat CPU 0 instructions: 190000001 cycles: 810414049 heartbeat IPC: 0.182533 cumulative IPC: 0.176487 (Simulation time: 0 hr 18 min 1 sec) 
Heartbeat CPU 0 instructions: 200000000 cycles: 865203862 heartbeat IPC: 0.182516 cumulative IPC: 0.176876 (Simulation time: 0 hr 18 min 59 sec) 
Heartbeat CPU 0 instructions: 210000000 cycles: 919987291 heartbeat IPC: 0.182537 cumulative IPC: 0.17722 (Simulation time: 0 hr 19 min 55 sec) 
Heartbeat CPU 0 instructions: 220000000 cycles: 974874387 heartbeat IPC: 0.182192 cumulative IPC: 0.177505 (Simulation time: 0 hr 20 min 49 sec) 
Heartbeat CPU 0 instructions: 230000000 cycles: 1029905072 heartbeat IPC: 0.181717 cumulative IPC: 0.177734 (Simulation time: 0 hr 21 min 42 sec) 
Heartbeat CPU 0 instructions: 240000000 cycles: 1084805850 heartbeat IPC: 0.182147 cumulative IPC: 0.17796 (Simulation time: 0 hr 22 min 32 sec) 
Heartbeat CPU 0 instructions: 250000002 cycles: 1139662188 heartbeat IPC: 0.182294 cumulative IPC: 0.178172 (Simulation time: 0 hr 23 min 23 sec) 
Finished CPU 0 instructions: 200000000 cycles: 1122509156 cumulative IPC: 0.178172 (Simulation time: 0 hr 23 min 23 sec) 
 Instruction ID: 250000029

ChampSim completed all CPUs

Region of Interest Statistics

CPU 0 cumulative IPC: 0.178172 instructions: 200000000 cycles: 1122509156
ITLB SPEC fills:          0  NON-SPEC fills:          0
ITLB Test counter :          0
ITLB Leapfrog:          0
ITLB MSHR merge:          0
ITLB TOTAL     ACCESS:   42182567  HIT:   42182567  MISS:          0  HIT %:        100  MISS %:          0   MPKI: 0
ITLB LOAD TRANSLATION NON_SPEC    ACCESS:   42182567  HIT:   42182567  MISS:          0  HIT %:        100  MISS %:          0   MPKI: 0
ITLB PREFETCH  REQUESTED:          0  ISSUED:          0  USEFUL:          0  USELESS:          0
ITLB USEFUL LOAD PREFETCHES:          0 PREFETCH ISSUED TO LOWER LEVEL:          0  ACCURACY: -nan
ITLB TIMELY PREFETCHES:          0 LATE PREFETCHES: 0 DROPPED PREFETCHES: 0
ITLB COMMIT LATE PREFETCHES: 0 MISSED OPPORTUNITY: 0 LATE IN PQ: 0 UNCOVERED: 0
ITLB COMMIT LATE MSHR PREFETCHES: 0
ITLB MPKI TOTAL: 0 MSHR LATE: 0 PQ LATE: 0 COMMIT LATE: 0 MISSED OPPORTUNITY: 0 UNCOVERED: 0
ITLB PREFETCHES SAME FILL-ORIGIN LEVEL: 0 DIFFERENT FILL-ORIGIN LEVEL: 0
ITLB AVERAGE MISS LATENCY: -nan cycles
ITLB AVERAGE MISS LATENCY LOAD: -nan cycles
ITLB AVERAGE MISS LATENCY PREFETCH: -nan cycles
ITLB AVERAGE MSHR OCCUPANCY: 0
ITLB MSHR FULL: 0
ITLB RQ	ACCESS:   42461351	FORWARD:          0	MERGED:     278785	TO_CACHE:   42182566

DTLB SPEC fills:          0  NON-SPEC fills:          0
DTLB Test counter :          0
DTLB Leapfrog:          0
DTLB MSHR merge:          0
DTLB TOTAL     ACCESS:   48078415  HIT:   37722358  MISS:   10356057  HIT %:    78.4601  MISS %:    21.5399   MPKI: 51.7803
DTLB LOAD TRANSLATION NON_SPEC    ACCESS:   48078415  HIT:   37722358  MISS:   10356057  HIT %:    78.4601  MISS %:    21.5399   MPKI: 51.7803
DTLB PREFETCH  REQUESTED:          0  ISSUED:          0  USEFUL:          0  USELESS:          0
DTLB USEFUL LOAD PREFETCHES:          0 PREFETCH ISSUED TO LOWER LEVEL:          0  ACCURACY: -nan
DTLB TIMELY PREFETCHES:          0 LATE PREFETCHES: 0 DROPPED PREFETCHES: 0
DTLB COMMIT LATE PREFETCHES: 0 MISSED OPPORTUNITY: 0 LATE IN PQ: 0 UNCOVERED: 0
DTLB COMMIT LATE MSHR PREFETCHES: 0
DTLB MPKI TOTAL: 0 MSHR LATE: 0 PQ LATE: 0 COMMIT LATE: 0 MISSED OPPORTUNITY: 0 UNCOVERED: 0
DTLB PREFETCHES SAME FILL-ORIGIN LEVEL: 0 DIFFERENT FILL-ORIGIN LEVEL: 0
DTLB AVERAGE MISS LATENCY: 25.3486 cycles
DTLB AVERAGE MISS LATENCY LOAD: -nan cycles
DTLB AVERAGE MISS LATENCY PREFETCH: -nan cycles
DTLB AVERAGE MSHR OCCUPANCY: 0.497041
DTLB MSHR FULL: 0.00696502
DTLB RQ	ACCESS:   53049559	FORWARD:          0	MERGED:    4471245	TO_CACHE:   48578314

STLB SPEC fills:          0  NON-SPEC fills:          0
STLB Test counter :          0
STLB Leapfrog:          0
STLB MSHR merge:          0
STLB TOTAL     ACCESS:   10356057  HIT:    8187452  MISS:    2168605  HIT %:    79.0595  MISS %:    20.9405   MPKI: 10.843
STLB LOAD TRANSLATION NON_SPEC    ACCESS:   10356057  HIT:    8187452  MISS:    2168605  HIT %:    79.0595  MISS %:    20.9405   MPKI: 10.843
STLB PREFETCH  REQUESTED:          0  ISSUED:          0  USEFUL:          0  USELESS:          0
STLB USEFUL LOAD PREFETCHES:          0 PREFETCH ISSUED TO LOWER LEVEL:          0  ACCURACY: -nan
STLB TIMELY PREFETCHES:          0 LATE PREFETCHES: 0 DROPPED PREFETCHES: 0
STLB COMMIT LATE PREFETCHES: 0 MISSED OPPORTUNITY: 0 LATE IN PQ: 0 UNCOVERED: 0
STLB COMMIT LATE MSHR PREFETCHES: 0
STLB MPKI TOTAL: 0 MSHR LATE: 0 PQ LATE: 0 COMMIT LATE: 0 MISSED OPPORTUNITY: 0 UNCOVERED: 0
STLB PREFETCHES SAME FILL-ORIGIN LEVEL: 0 DIFFERENT FILL-ORIGIN LEVEL: 0
STLB AVERAGE MISS LATENCY: 77.1061 cycles
STLB AVERAGE MISS LATENCY LOAD: -nan cycles
STLB AVERAGE MISS LATENCY PREFETCH: -nan cycles
STLB AVERAGE MSHR OCCUPANCY: 0.259441
STLB MSHR FULL: 0
STLB RQ	ACCESS:   10356057	FORWARD:          0	MERGED:          0	TO_CACHE:   10356057

STLB Hit, L1D data hit: 0
STLB Hit, L2C data hit: 0
STLB Hit, LLC data hit: 0
STLB Hit, LLC data miss: 0
STLB STLB hints to L2: 0
L0D SPEC fills:   28590188  NON-SPEC fills:          0
L0D TimeGuard Request with older TS:     239373 Restricted eviction:     236335 read:          5
L0D Test counter :          0
L0D Leapfrog:          0
L0D MSHR merge:    2501737
L0D TOTAL     ACCESS:   43919319  HIT:    9812520  MISS:   34106799  HIT %:    22.3421  MISS %:    77.6579   MPKI: 170.534
L0D LOAD      TOTAL       ACCESS:   43919319  HIT:    9812520  MISS:   34106799  HIT %:    22.3421  MISS %:    77.6579   MPKI: 170.534
L0D LOAD      NON_SPEC    ACCESS:    5281133  HIT:        759  MISS:    5280374  HIT %:  0.0143719  MISS %:    99.9856   MPKI: 26.4019
L0D LOAD      SPEC        ACCESS:   38638186  HIT:    9811761  MISS:   28826425  HIT %:    25.3939  MISS %:    74.6061   MPKI: 144.132
L0D PREFETCH  REQUESTED:          0  ISSUED:          0  USEFUL:          0  USELESS:          0
L0D USEFUL LOAD PREFETCHES:          0 PREFETCH ISSUED TO LOWER LEVEL:          0  ACCURACY: -nan
L0D TIMELY PREFETCHES:          0 LATE PREFETCHES: 0 DROPPED PREFETCHES: 0
L0D COMMIT LATE PREFETCHES: 0 MISSED OPPORTUNITY: 0 LATE IN PQ: 0 UNCOVERED: 0
L0D COMMIT LATE MSHR PREFETCHES: 0
L0D MPKI TOTAL: 183.043 MSHR LATE: 0 PQ LATE: 0 COMMIT LATE: 0 MISSED OPPORTUNITY: 0 UNCOVERED: 0
L0D PREFETCHES SAME FILL-ORIGIN LEVEL: 0 DIFFERENT FILL-ORIGIN LEVEL: 0
L0D AVERAGE MISS LATENCY: 57.4885 cycles
L0D AVERAGE MISS LATENCY LOAD: 57.4885 cycles
L0D AVERAGE MISS LATENCY PREFETCH: -nan cycles
L0D AVERAGE MSHR OCCUPANCY: 1.88917
L0D MSHR FULL: 0.0802471
L0D RQ	ACCESS:   47885933	FORWARD:          0	MERGED:    1464882	TO_CACHE:   46421051
L0D WQ	ACCESS:    6628508	FORWARD:          0	MERGED:          0	TO_CACHE:    6628508

L1D SPEC fills:          0  NON-SPEC fills:    1078595
L1D Test counter :   16577423
L1D Leapfrog:          0
L1D MSHR merge:       5224
L1D TOTAL     ACCESS:   75485340  HIT:   40922700  MISS:   34562640  HIT %:    54.2128  MISS %:    45.7872   MPKI: 172.813
L1D LOAD      TOTAL       ACCESS:   34101575  HIT:   16298633  MISS:   17802942  HIT %:    47.7944  MISS %:    52.2056   MPKI: 89.0147
L1D LOAD      NON_SPEC    ACCESS:    5279146  HIT:    4200551  MISS:    1078595  HIT %:    79.5688  MISS %:    20.4312   MPKI: 5.39297
L1D LOAD      SPEC        ACCESS:   28822429  HIT:   12098082  MISS:   16724347  HIT %:    41.9745  MISS %:    58.0255   MPKI: 83.6217
L1D RFO       NON_SPEC    ACCESS:    3004571  HIT:    2974978  MISS:      29593  HIT %:    99.0151  MISS %:   0.984933   MPKI: 0.147965
L1D COMMIT LOAD NON_SPEC    ACCESS:   10004412  HIT:    9788373  MISS:     216039  HIT %:    97.8406  MISS %:    2.15944   MPKI: 1.0802
L1D COMMIT WRITE NON_SPEC    ACCESS:   28374782  HIT:   11860716  MISS:   16514066  HIT %:    41.8002  MISS %:    58.1998   MPKI: 82.5703
L1D PREFETCH  REQUESTED:          0  ISSUED:          0  USEFUL:          0  USELESS:          0
L1D USEFUL LOAD PREFETCHES:          0 PREFETCH ISSUED TO LOWER LEVEL:          0  ACCURACY: -nan
L1D TIMELY PREFETCHES:          0 LATE PREFETCHES: 0 DROPPED PREFETCHES: 0
L1D COMMIT LATE PREFETCHES: 0 MISSED OPPORTUNITY: 0 LATE IN PQ: 0 UNCOVERED: 0
L1D COMMIT LATE MSHR PREFETCHES: 0
L1D MPKI TOTAL: 89.0408 MSHR LATE: 0 PQ LATE: 0 COMMIT LATE: 0 MISSED OPPORTUNITY: 0 UNCOVERED: 0
L1D PREFETCHES SAME FILL-ORIGIN LEVEL: 0 DIFFERENT FILL-ORIGIN LEVEL: 0
L1D AVERAGE MISS LATENCY: 52.3769 cycles
L1D AVERAGE MISS LATENCY LOAD: 100.303 cycles
L1D AVERAGE MISS LATENCY PREFETCH: -nan cycles
L1D AVERAGE MSHR OCCUPANCY: 1.2905
L1D MSHR FULL: 0.0175985
L1D RQ	ACCESS:   48336776	FORWARD:          0	MERGED:    4149209	TO_CACHE:   44121479
L1D WQ	ACCESS:   35003352	FORWARD:      66088	MERGED:    3575848	TO_CACHE:   31427504

L1D UNIQUE REGIONS ACCESSED: 0
L1D REGIONS CONFLICTS: 0
L1D Cross Page Prefetch Requests: 0
L1D Same Page Prefetch Requests: 0
L1D ROI Sum of L1D PQ occupancy: 0
L1D PREFETCHES PUSHED FROM L2C: 0
L1I SPEC fills:          0  NON-SPEC fills:          0
L1I Test counter :          0
L1I Leapfrog:          0
L1I MSHR merge:          0
L1I TOTAL     ACCESS:   42461352  HIT:   42461352  MISS:          0  HIT %:        100  MISS %:          0   MPKI: 0
L1I LOAD      TOTAL       ACCESS:   42461352  HIT:   42461352  MISS:          0  HIT %:        100  MISS %:          0   MPKI: 0
L1I LOAD      NON_SPEC    ACCESS:   42461352  HIT:   42461352  MISS:          0  HIT %:        100  MISS %:          0   MPKI: 0
L1I PREFETCH  REQUESTED:          0  ISSUED:          0  USEFUL:          0  USELESS:          0
L1I USEFUL LOAD PREFETCHES:          0 PREFETCH ISSUED TO LOWER LEVEL:          0  ACCURACY: -nan
L1I TIMELY PREFETCHES:          0 LATE PREFETCHES: 0 DROPPED PREFETCHES: 0
L1I COMMIT LATE PREFETCHES: 0 MISSED OPPORTUNITY: 0 LATE IN PQ: 0 UNCOVERED: 0
L1I COMMIT LATE MSHR PREFETCHES: 0
L1I MPKI TOTAL: 0 MSHR LATE: 0 PQ LATE: 0 COMMIT LATE: 0 MISSED OPPORTUNITY: 0 UNCOVERED: 0
L1I PREFETCHES SAME FILL-ORIGIN LEVEL: 0 DIFFERENT FILL-ORIGIN LEVEL: 0
L1I AVERAGE MISS LATENCY: -nan cycles
L1I AVERAGE MISS LATENCY LOAD: -nan cycles
L1I AVERAGE MISS LATENCY PREFETCH: -nan cycles
L1I AVERAGE MSHR OCCUPANCY: 0
L1I MSHR FULL: 0
L1I RQ	ACCESS:   56790010	FORWARD:          0	MERGED:   14328659	TO_CACHE:   42461351

BTB SPEC fills:          0  NON-SPEC fills:          0
BTB Test counter :          0
BTB Leapfrog:          0
BTB MSHR merge:          0
BTB TOTAL     ACCESS:   43358648  HIT:   43358634  MISS:         14  HIT %:        100  MISS %: 3.22888e-05   MPKI: 7e-05
BTB BRANCH_DIRECT_JUMP	ACCESS:     271551  HIT:     271547  MISS:          4
BTB BRANCH_INDIRECT	ACCESS:          0  HIT:          0  MISS:          0
BTB BRANCH_CONDITIONAL	ACCESS:   43087069  HIT:   43087061  MISS:          8
BTB BRANCH_DIRECT_CALL	ACCESS:         14  HIT:         13  MISS:          1
BTB BRANCH_INDIRECT_CALL	ACCESS:          0  HIT:          0  MISS:          0
BTB BRANCH_RETURN	ACCESS:         14  HIT:         13  MISS:          1
BTB BRANCH_OTHER ACCESS:          0  HIT:          0  MISS:          0

L2C SPEC fills:          0  NON-SPEC fills:     858235
L2C Test counter :   13619998
L2C Leapfrog:          0
L2C MSHR merge:          0
L2C TOTAL     ACCESS:   45681170  HIT:   17677699  MISS:   28003471  HIT %:     38.698  MISS %:     61.302   MPKI: 140.017
L2C LOAD      TOTAL       ACCESS:   17802875  HIT:    3567742  MISS:   14235133  HIT %:    20.0403  MISS %:    79.9597   MPKI: 71.1757
L2C LOAD      NON_SPEC    ACCESS:    1078590  HIT:     220355  MISS:     858235  HIT %:    20.4299  MISS %:    79.5701   MPKI: 4.29117
L2C LOAD      SPEC        ACCESS:   16724285  HIT:    3347387  MISS:   13376898  HIT %:    20.0151  MISS %:    79.9849   MPKI: 66.8845
L2C RFO       NON_SPEC    ACCESS:      29592  HIT:        883  MISS:      28709  HIT %:    2.98391  MISS %:    97.0161   MPKI: 0.143545
L2C WRITEBACK NON_SPEC    ACCESS:     212344  HIT:     212282  MISS:         62  HIT %:    99.9708  MISS %:  0.0291979   MPKI: 0.00031
L2C CLEAN_EVICTION NON_SPEC    ACCESS:   16577423  HIT:    3118528  MISS:   13458895  HIT %:    18.8119  MISS %:    81.1881   MPKI: 67.2945
L2C COMMIT LOAD NON_SPEC    ACCESS:     215911  HIT:      80075  MISS:     135836  HIT %:     37.087  MISS %:     62.913   MPKI: 0.67918
L2C LOAD TRANSLATION NON_SPEC    ACCESS:   10843025  HIT:   10698189  MISS:     144836  HIT %:    98.6642  MISS %:    1.33575   MPKI: 0.72418
L2C PREFETCH  REQUESTED:          0  ISSUED:          0  USEFUL:          0  USELESS:          0
L2C USEFUL LOAD PREFETCHES:          0 PREFETCH ISSUED TO LOWER LEVEL:          0  ACCURACY: -nan
L2C TIMELY PREFETCHES:          0 LATE PREFETCHES: 0 DROPPED PREFETCHES: 0
L2C COMMIT LATE PREFETCHES: 0 MISSED OPPORTUNITY: 0 LATE IN PQ: 0 UNCOVERED: 0
L2C COMMIT LATE MSHR PREFETCHES: 0
L2C MPKI TOTAL: 71.1757 MSHR LATE: 0 PQ LATE: 0 COMMIT LATE: 0 MISSED OPPORTUNITY: 0 UNCOVERED: 0
L2C PREFETCHES SAME FILL-ORIGIN LEVEL: 0 DIFFERENT FILL-ORIGIN LEVEL: 0
L2C AVERAGE MISS LATENCY: 57.6144 cycles
L2C AVERAGE MISS LATENCY LOAD: 111.112 cycles
L2C AVERAGE MISS LATENCY PREFETCH: -nan cycles
L2C AVERAGE MSHR OCCUPANCY: 1.33247
L2C MSHR FULL: 0
L2C RQ	ACCESS:   28891599	FORWARD:          0	MERGED:          0	TO_CACHE:   28891403
L2C WQ	ACCESS:   16789767	FORWARD:        196	MERGED:          0	TO_CACHE:   16789767

L2C Instructions Evicting Data 0
L2C Translations Evicting Data 144518
L2C Data Evicting Data 1012415
L2C Instructions Evicting Instructions 0
L2C Translations Evicting Instructions 0
L2C Data Evicting Instructions 0
L2C Instructions Evicting Translations 0
L2C Translations Evicting Translations 318
L2C Data Evicting Translations 10365
L2C Dense regions hint from L2: 0
PSCL5 SPEC fills:          0  NON-SPEC fills:          0
PSCL5 Test counter :          0
PSCL5 Leapfrog:          0
PSCL5 MSHR merge:          0
PSCL5 TOTAL     ACCESS:          0  HIT:          0  MISS:          0  HIT %:       -nan  MISS %:       -nan   MPKI: 0
PSCL5 PREFETCH  REQUESTED:          0  ISSUED:          0  USEFUL:          0  USELESS:          0
PSCL5 USEFUL LOAD PREFETCHES:          0 PREFETCH ISSUED TO LOWER LEVEL:          0  ACCURACY: -nan
PSCL5 TIMELY PREFETCHES:          0 LATE PREFETCHES: 0 DROPPED PREFETCHES: 0
PSCL5 COMMIT LATE PREFETCHES: 0 MISSED OPPORTUNITY: 0 LATE IN PQ: 0 UNCOVERED: 0
PSCL5 COMMIT LATE MSHR PREFETCHES: 0
PSCL5 MPKI TOTAL: 0 MSHR LATE: 0 PQ LATE: 0 COMMIT LATE: 0 MISSED OPPORTUNITY: 0 UNCOVERED: 0
PSCL5 PREFETCHES SAME FILL-ORIGIN LEVEL: 0 DIFFERENT FILL-ORIGIN LEVEL: 0

PSCL4 SPEC fills:          0  NON-SPEC fills:          0
PSCL4 Test counter :          0
PSCL4 Leapfrog:          0
PSCL4 MSHR merge:          0
PSCL4 TOTAL     ACCESS:          0  HIT:          0  MISS:          0  HIT %:       -nan  MISS %:       -nan   MPKI: 0
PSCL4 PREFETCH  REQUESTED:          0  ISSUED:          0  USEFUL:          0  USELESS:          0
PSCL4 USEFUL LOAD PREFETCHES:          0 PREFETCH ISSUED TO LOWER LEVEL:          0  ACCURACY: -nan
PSCL4 TIMELY PREFETCHES:          0 LATE PREFETCHES: 0 DROPPED PREFETCHES: 0
PSCL4 COMMIT LATE PREFETCHES: 0 MISSED OPPORTUNITY: 0 LATE IN PQ: 0 UNCOVERED: 0
PSCL4 COMMIT LATE MSHR PREFETCHES: 0
PSCL4 MPKI TOTAL: 0 MSHR LATE: 0 PQ LATE: 0 COMMIT LATE: 0 MISSED OPPORTUNITY: 0 UNCOVERED: 0
PSCL4 PREFETCHES SAME FILL-ORIGIN LEVEL: 0 DIFFERENT FILL-ORIGIN LEVEL: 0

PSCL3 SPEC fills:          0  NON-SPEC fills:          0
PSCL3 Test counter :          0
PSCL3 Leapfrog:          0
PSCL3 MSHR merge:          0
PSCL3 TOTAL     ACCESS:          0  HIT:          0  MISS:          0  HIT %:       -nan  MISS %:       -nan   MPKI: 0
PSCL3 PREFETCH  REQUESTED:          0  ISSUED:          0  USEFUL:          0  USELESS:          0
PSCL3 USEFUL LOAD PREFETCHES:          0 PREFETCH ISSUED TO LOWER LEVEL:          0  ACCURACY: -nan
PSCL3 TIMELY PREFETCHES:          0 LATE PREFETCHES: 0 DROPPED PREFETCHES: 0
PSCL3 COMMIT LATE PREFETCHES: 0 MISSED OPPORTUNITY: 0 LATE IN PQ: 0 UNCOVERED: 0
PSCL3 COMMIT LATE MSHR PREFETCHES: 0
PSCL3 MPKI TOTAL: 0 MSHR LATE: 0 PQ LATE: 0 COMMIT LATE: 0 MISSED OPPORTUNITY: 0 UNCOVERED: 0
PSCL3 PREFETCHES SAME FILL-ORIGIN LEVEL: 0 DIFFERENT FILL-ORIGIN LEVEL: 0

PSCL2 SPEC fills:          0  NON-SPEC fills:          0
PSCL2 Test counter :          0
PSCL2 Leapfrog:          0
PSCL2 MSHR merge:          0
PSCL2 TOTAL     ACCESS:          0  HIT:          0  MISS:          0  HIT %:       -nan  MISS %:       -nan   MPKI: 0
PSCL2 PREFETCH  REQUESTED:          0  ISSUED:          0  USEFUL:          0  USELESS:          0
PSCL2 USEFUL LOAD PREFETCHES:          0 PREFETCH ISSUED TO LOWER LEVEL:          0  ACCURACY: -nan
PSCL2 TIMELY PREFETCHES:          0 LATE PREFETCHES: 0 DROPPED PREFETCHES: 0
PSCL2 COMMIT LATE PREFETCHES: 0 MISSED OPPORTUNITY: 0 LATE IN PQ: 0 UNCOVERED: 0
PSCL2 COMMIT LATE MSHR PREFETCHES: 0
PSCL2 MPKI TOTAL: 0 MSHR LATE: 0 PQ LATE: 0 COMMIT LATE: 0 MISSED OPPORTUNITY: 0 UNCOVERED: 0
PSCL2 PREFETCHES SAME FILL-ORIGIN LEVEL: 0 DIFFERENT FILL-ORIGIN LEVEL: 0

LLC SPEC fills:          0  NON-SPEC fills:     482922
LLC Test counter :    8300723
LLC Leapfrog:          0
LLC MSHR merge:          0
LLC TOTAL     ACCESS:   28370951  HIT:   12158731  MISS:   16212220  HIT %:    42.8563  MISS %:    57.1437   MPKI: 81.0611
LLC LOAD      TOTAL       ACCESS:   14235049  HIT:    6278884  MISS:    7956165  HIT %:    44.1086  MISS %:    55.8914   MPKI: 39.7808
LLC LOAD      NON_SPEC    ACCESS:     858218  HIT:     375296  MISS:     482922  HIT %:    43.7297  MISS %:    56.2703   MPKI: 2.41461
LLC LOAD      SPEC        ACCESS:   13376831  HIT:    5903588  MISS:    7473243  HIT %:    44.1329  MISS %:    55.8671   MPKI: 37.3662
LLC RFO       NON_SPEC    ACCESS:      28709  HIT:        736  MISS:      27973  HIT %:    2.56366  MISS %:    97.4363   MPKI: 0.139865
LLC WRITEBACK NON_SPEC    ACCESS:     206601  HIT:     206586  MISS:         15  HIT %:    99.9927  MISS %: 0.00726037   MPKI: 7.5e-05
LLC CLEAN_EVICTION NON_SPEC    ACCESS:   13619996  HIT:    5453870  MISS:    8166126  HIT %:    40.0431  MISS %:    59.9569   MPKI: 40.8306
LLC COMMIT LOAD NON_SPEC    ACCESS:     135760  HIT:     109178  MISS:      26582  HIT %:    80.4199  MISS %:    19.5801   MPKI: 0.13291
LLC LOAD TRANSLATION NON_SPEC    ACCESS:     144836  HIT:     109477  MISS:      35359  HIT %:    75.5869  MISS %:    24.4131   MPKI: 0.176795
LLC PREFETCH  REQUESTED:          0  ISSUED:          0  USEFUL:          0  USELESS:          0
LLC USEFUL LOAD PREFETCHES:          0 PREFETCH ISSUED TO LOWER LEVEL:          0  ACCURACY: -nan
LLC TIMELY PREFETCHES:          0 LATE PREFETCHES: 0 DROPPED PREFETCHES: 0
LLC COMMIT LATE PREFETCHES: 0 MISSED OPPORTUNITY: 0 LATE IN PQ: 0 UNCOVERED: 0
LLC COMMIT LATE MSHR PREFETCHES: 0
LLC MPKI TOTAL: 39.7808 MSHR LATE: 0 PQ LATE: 0 COMMIT LATE: 0 MISSED OPPORTUNITY: 0 UNCOVERED: 0
LLC PREFETCHES SAME FILL-ORIGIN LEVEL: 0 DIFFERENT FILL-ORIGIN LEVEL: 0
LLC AVERAGE MISS LATENCY: 80.0107 cycles
LLC AVERAGE MISS LATENCY LOAD: 160.222 cycles
LLC AVERAGE MISS LATENCY PREFETCH: -nan cycles
LLC AVERAGE MSHR OCCUPANCY: 0.9565
LLC MSHR FULL: 0
LLC RQ	ACCESS:   14544514	FORWARD:          0	MERGED:          0	TO_CACHE:   14544354
LLC WQ	ACCESS:   13826599	FORWARD:        160	MERGED:          0	TO_CACHE:   13826599

LLC Dense regions hint to LLC: 0

RAW hits: 117005
Loads Generated: 48002938
Loads sent to L1D: 47885933
Stores Generated: 6628505
Stores sent to L1D: 6628508
Major fault: 0 Minor fault: 32429
Allocated PAGES: 32429
Total Load insts: 59453542
Total Non-spec loads: 5540958
Percentage of speculative loads: 90.6802

LeapFrogging counter: 613866
Commit hits: 28374842 miss: 14229979
Commit hit %: 66.6001 miss %: 33.3999
Commits not translated: 0
Loads retired: 17802940
Stores retired: 6628508
Cache fills: 17802942
L1D response latency: 100.303 cycles
Load retirement latency: 203.583 cycles
OOO test counter: 0
Discarded buffer inserts: 28374842 hits: 13217 hit %: 0.04658

DRAM Statistics
 CHANNEL 0
 RQ ROW_BUFFER_HIT:     358615  ROW_BUFFER_MISS:    7685159
 DBUS_CONGESTED:       1757
 WQ ROW_BUFFER_HIT:    4782384  ROW_BUFFER_MISS:    3698877  FULL:      12050

 AVG_CONGESTED_CYCLE: 5
 All warmup complete: 2
Channel 0 Bank busy for read cycles: 0
Channel 0 Bank busy for write cycles: 0
Channel 0
Rank 0
0banks busy for read cycles: 4228673
0banks busy for write cycles: 3264
1banks busy for read cycles: 413530144
1banks busy for write cycles: 4256530
2banks busy for read cycles: 239867157
2banks busy for write cycles: 6707614
3banks busy for read cycles: 68379694
3banks busy for write cycles: 13138385
4banks busy for read cycles: 14157354
4banks busy for write cycles: 26349835
5banks busy for read cycles: 2171151
5banks busy for write cycles: 48318573
6banks busy for read cycles: 295518
6banks busy for write cycles: 78270569
7banks busy for read cycles: 137753
7banks busy for write cycles: 106444830
8banks busy for read cycles: 339580
8banks busy for write cycles: 95912533

CPU 0 Branch Prediction Accuracy: 92.9184% MPKI: 15.3683 Average ROB Occupancy at Mispredict: 46.1856
Branch types
NOT_BRANCH: 156596208 78.2981%
BRANCH_DIRECT_JUMP: 271551 0.135775%
BRANCH_INDIRECT: 0 0%
BRANCH_CONDITIONAL: 43131869 21.5659%
BRANCH_DIRECT_CALL: 14 7e-06%
BRANCH_INDIRECT_CALL: 0 0%
BRANCH_RETURN: 14 7e-06%
BRANCH_OTHER: 0 0%

DRAM PAGES: 1048576
Allocated PAGES: 32429
