
*** ChampSim Multicore Out-of-Order Simulator ***

Warmup Instructions: 50000000
Simulation Instructions: 200000000
Number of CPUs: 1
LLC sets: 2048
LLC ways: 16
L0D sets: 16
L0D ways: 2
ROB size: 352
LQ size: 128
SQ size: 72
Secure Berti: OFF
Berti: OFF
Berti Fill: OFF
On commit prefetching: OFF
Hit-based filter: OFF
Time-guarding: ON
Free-slotting: ON
Leap-frogging: ON
Train prefetcher on L0D bypass: OFF
No translation penalty for prefetchers: OFF
Prefetch to L0D only: OFF
Prefetch to L1D only: OFF
Clean evictions: ON
Commit loads: ON
Commit write: ON
Fill commit loads to L2C, LLC: ON
DRAM IO FREQUENCY: 6400
ROB SIZE: 352
Off-chip DRAM Size: 4096 MB Channels: 1 Width: 64-bit Data Rate: 6400 MT/s
CPU 0 runs /home/sumon/secure_berti/GhostMinion/../../traces/gap/bfs-3.trace.gz
.gz
BTB has LRU replacement policy
ITLB has LRU replacement policy
DTLB has LRU replacement policy
STLB has LRU replacement policy
L1I has LRU replacement policy
L0D has LRU replacement policy
L1D has LRU replacement policy
L2C has LRU replacement policy
LLC has LRU replacement policy
Heartbeat CPU 0 instructions: 10000002 cycles: 2973579 heartbeat IPC: 3.36295 cumulative IPC: 3.36295 (Simulation time: 0 hr 0 min 17 sec) 
Heartbeat CPU 0 instructions: 20000002 cycles: 6136073 heartbeat IPC: 3.16206 cumulative IPC: 3.25941 (Simulation time: 0 hr 0 min 44 sec) 
Heartbeat CPU 0 instructions: 30000002 cycles: 9293755 heartbeat IPC: 3.16688 cumulative IPC: 3.22797 (Simulation time: 0 hr 1 min 12 sec) 
Heartbeat CPU 0 instructions: 40000003 cycles: 12450722 heartbeat IPC: 3.1676 cumulative IPC: 3.21267 (Simulation time: 0 hr 1 min 39 sec) 
Heartbeat CPU 0 instructions: 50000003 cycles: 15644322 heartbeat IPC: 3.13126 cumulative IPC: 3.19605 (Simulation time: 0 hr 2 min 6 sec) 

Warmup complete CPU 0 instructions: 50000003 cycles: 15644322 (Simulation time: 0 hr 2 min 6 sec) 

Heartbeat CPU 0 instructions: 60000000 cycles: 82890111 heartbeat IPC: 0.148708 cumulative IPC: 0.148708 (Simulation time: 0 hr 2 min 45 sec) 
Heartbeat CPU 0 instructions: 70000001 cycles: 131495040 heartbeat IPC: 0.20574 cumulative IPC: 0.172636 (Simulation time: 0 hr 3 min 20 sec) 
Heartbeat CPU 0 instructions: 80000001 cycles: 145420443 heartbeat IPC: 0.718112 cumulative IPC: 0.231167 (Simulation time: 0 hr 3 min 47 sec) 
Heartbeat CPU 0 instructions: 90000000 cycles: 176152143 heartbeat IPC: 0.325397 cumulative IPC: 0.249209 (Simulation time: 0 hr 4 min 27 sec) 
Heartbeat CPU 0 instructions: 100000001 cycles: 225814470 heartbeat IPC: 0.20136 cumulative IPC: 0.237902 (Simulation time: 0 hr 5 min 11 sec) 
Heartbeat CPU 0 instructions: 110000000 cycles: 273044282 heartbeat IPC: 0.211731 cumulative IPC: 0.2331 (Simulation time: 0 hr 5 min 57 sec) 
Heartbeat CPU 0 instructions: 120000001 cycles: 328179476 heartbeat IPC: 0.181372 cumulative IPC: 0.223975 (Simulation time: 0 hr 7 min 29 sec) 
Heartbeat CPU 0 instructions: 130000000 cycles: 386290637 heartbeat IPC: 0.172084 cumulative IPC: 0.215839 (Simulation time: 0 hr 8 min 26 sec) 
Heartbeat CPU 0 instructions: 140000001 cycles: 417767643 heartbeat IPC: 0.317692 cumulative IPC: 0.223812 (Simulation time: 0 hr 9 min 8 sec) 
Heartbeat CPU 0 instructions: 150000000 cycles: 436234522 heartbeat IPC: 0.54151 cumulative IPC: 0.237761 (Simulation time: 0 hr 9 min 53 sec) 
Heartbeat CPU 0 instructions: 160000001 cycles: 478410559 heartbeat IPC: 0.237101 cumulative IPC: 0.237701 (Simulation time: 0 hr 10 min 43 sec) 
Heartbeat CPU 0 instructions: 170000000 cycles: 529624538 heartbeat IPC: 0.195259 cumulative IPC: 0.233472 (Simulation time: 0 hr 11 min 46 sec) 
Heartbeat CPU 0 instructions: 180000000 cycles: 572699132 heartbeat IPC: 0.232155 cumulative IPC: 0.23337 (Simulation time: 0 hr 12 min 52 sec) 
Heartbeat CPU 0 instructions: 190000000 cycles: 603271203 heartbeat IPC: 0.327096 cumulative IPC: 0.238246 (Simulation time: 0 hr 13 min 37 sec) 
Heartbeat CPU 0 instructions: 200000000 cycles: 666089325 heartbeat IPC: 0.15919 cumulative IPC: 0.230611 (Simulation time: 0 hr 14 min 18 sec) 
Heartbeat CPU 0 instructions: 210000002 cycles: 727259923 heartbeat IPC: 0.163477 cumulative IPC: 0.22484 (Simulation time: 0 hr 14 min 57 sec) 
Heartbeat CPU 0 instructions: 220000000 cycles: 767836595 heartbeat IPC: 0.246447 cumulative IPC: 0.226006 (Simulation time: 0 hr 15 min 28 sec) 
Heartbeat CPU 0 instructions: 230000000 cycles: 783173154 heartbeat IPC: 0.652037 cumulative IPC: 0.234519 (Simulation time: 0 hr 15 min 55 sec) 
Heartbeat CPU 0 instructions: 240000000 cycles: 819592762 heartbeat IPC: 0.274577 cumulative IPC: 0.236334 (Simulation time: 0 hr 16 min 29 sec) 
Heartbeat CPU 0 instructions: 250000001 cycles: 867402483 heartbeat IPC: 0.209163 cumulative IPC: 0.234808 (Simulation time: 0 hr 17 min 6 sec) 
Finished CPU 0 instructions: 200000000 cycles: 851758162 cumulative IPC: 0.234808 (Simulation time: 0 hr 17 min 6 sec) 
 Instruction ID: 250000003

ChampSim completed all CPUs

Region of Interest Statistics

CPU 0 cumulative IPC: 0.234808 instructions: 200000000 cycles: 851758162
ITLB SPEC fills:          0  NON-SPEC fills:          0
ITLB Test counter :          0
ITLB Leapfrog:          0
ITLB MSHR merge:          0
ITLB TOTAL     ACCESS:   33939414  HIT:   33939414  MISS:          0  HIT %:        100  MISS %:          0   MPKI: 0
ITLB LOAD TRANSLATION NON_SPEC    ACCESS:   33939414  HIT:   33939414  MISS:          0  HIT %:        100  MISS %:          0   MPKI: 0
ITLB PREFETCH  REQUESTED:          0  ISSUED:          0  USEFUL:          0  USELESS:          0
ITLB USEFUL LOAD PREFETCHES:          0 PREFETCH ISSUED TO LOWER LEVEL:          0  ACCURACY: -nan
ITLB TIMELY PREFETCHES:          0 LATE PREFETCHES: 0 DROPPED PREFETCHES: 0
ITLB COMMIT LATE PREFETCHES: 0 MISSED OPPORTUNITY: 0 LATE IN PQ: 0 UNCOVERED: 0
ITLB COMMIT LATE MSHR PREFETCHES: 0
ITLB MPKI TOTAL: 0 MSHR LATE: 0 PQ LATE: 0 COMMIT LATE: 0 MISSED OPPORTUNITY: 0 UNCOVERED: 0
ITLB PREFETCHES SAME FILL-ORIGIN LEVEL: 0 DIFFERENT FILL-ORIGIN LEVEL: 0
ITLB AVERAGE MISS LATENCY: -nan cycles
ITLB AVERAGE MISS LATENCY LOAD: -nan cycles
ITLB AVERAGE MISS LATENCY PREFETCH: -nan cycles
ITLB AVERAGE MSHR OCCUPANCY: 0
ITLB MSHR FULL: 0
ITLB RQ	ACCESS:   41506212	FORWARD:          0	MERGED:    7566799	TO_CACHE:   33939413

DTLB SPEC fills:          0  NON-SPEC fills:          0
DTLB Test counter :          0
DTLB Leapfrog:          0
DTLB MSHR merge:          0
DTLB TOTAL     ACCESS:   43349256  HIT:   42617208  MISS:     732048  HIT %:    98.3113  MISS %:    1.68872   MPKI: 3.66024
DTLB LOAD TRANSLATION NON_SPEC    ACCESS:   43349256  HIT:   42617208  MISS:     732048  HIT %:    98.3113  MISS %:    1.68872   MPKI: 3.66024
DTLB PREFETCH  REQUESTED:          0  ISSUED:          0  USEFUL:          0  USELESS:          0
DTLB USEFUL LOAD PREFETCHES:          0 PREFETCH ISSUED TO LOWER LEVEL:          0  ACCURACY: -nan
DTLB TIMELY PREFETCHES:          0 LATE PREFETCHES: 0 DROPPED PREFETCHES: 0
DTLB COMMIT LATE PREFETCHES: 0 MISSED OPPORTUNITY: 0 LATE IN PQ: 0 UNCOVERED: 0
DTLB COMMIT LATE MSHR PREFETCHES: 0
DTLB MPKI TOTAL: 0 MSHR LATE: 0 PQ LATE: 0 COMMIT LATE: 0 MISSED OPPORTUNITY: 0 UNCOVERED: 0
DTLB PREFETCHES SAME FILL-ORIGIN LEVEL: 0 DIFFERENT FILL-ORIGIN LEVEL: 0
DTLB AVERAGE MISS LATENCY: 37.5499 cycles
DTLB AVERAGE MISS LATENCY LOAD: -nan cycles
DTLB AVERAGE MISS LATENCY PREFETCH: -nan cycles
DTLB AVERAGE MSHR OCCUPANCY: 0.0374392
DTLB MSHR FULL: 0.000618312
DTLB RQ	ACCESS:   46449505	FORWARD:          0	MERGED:    3028077	TO_CACHE:   43421428

STLB SPEC fills:          0  NON-SPEC fills:          0
STLB Test counter :          0
STLB Leapfrog:          0
STLB MSHR merge:          0
STLB TOTAL     ACCESS:     732048  HIT:     585525  MISS:     146523  HIT %:    79.9845  MISS %:    20.0155   MPKI: 0.732615
STLB LOAD TRANSLATION NON_SPEC    ACCESS:     732048  HIT:     585525  MISS:     146523  HIT %:    79.9845  MISS %:    20.0155   MPKI: 0.732615
STLB PREFETCH  REQUESTED:          0  ISSUED:          0  USEFUL:          0  USELESS:          0
STLB USEFUL LOAD PREFETCHES:          0 PREFETCH ISSUED TO LOWER LEVEL:          0  ACCURACY: -nan
STLB TIMELY PREFETCHES:          0 LATE PREFETCHES: 0 DROPPED PREFETCHES: 0
STLB COMMIT LATE PREFETCHES: 0 MISSED OPPORTUNITY: 0 LATE IN PQ: 0 UNCOVERED: 0
STLB COMMIT LATE MSHR PREFETCHES: 0
STLB MPKI TOTAL: 0 MSHR LATE: 0 PQ LATE: 0 COMMIT LATE: 0 MISSED OPPORTUNITY: 0 UNCOVERED: 0
STLB PREFETCHES SAME FILL-ORIGIN LEVEL: 0 DIFFERENT FILL-ORIGIN LEVEL: 0
STLB AVERAGE MISS LATENCY: 141.807 cycles
STLB AVERAGE MISS LATENCY LOAD: -nan cycles
STLB AVERAGE MISS LATENCY PREFETCH: -nan cycles
STLB AVERAGE MSHR OCCUPANCY: 0.0662675
STLB MSHR FULL: 0
STLB RQ	ACCESS:     732048	FORWARD:          0	MERGED:          0	TO_CACHE:     732048

STLB Hit, L1D data hit: 0
STLB Hit, L2C data hit: 0
STLB Hit, LLC data hit: 0
STLB Hit, LLC data miss: 0
STLB STLB hints to L2: 0
L0D SPEC fills:   18406923  NON-SPEC fills:          0
L0D TimeGuard Request with older TS:      68135 Restricted eviction:      19949 read:       1381
L0D Test counter :          0
L0D Leapfrog:          0
L0D MSHR merge:    3599526
L0D TOTAL     ACCESS:   35213164  HIT:    5583655  MISS:   29629509  HIT %:    15.8567  MISS %:    84.1433   MPKI: 148.148
L0D LOAD      TOTAL       ACCESS:   35213164  HIT:    5583655  MISS:   29629509  HIT %:    15.8567  MISS %:    84.1433   MPKI: 148.148
L0D LOAD      NON_SPEC    ACCESS:   11204890  HIT:       2250  MISS:   11202640  HIT %:  0.0200805  MISS %:    99.9799   MPKI: 56.0132
L0D LOAD      SPEC        ACCESS:   24008274  HIT:    5581405  MISS:   18426869  HIT %:    23.2478  MISS %:    76.7522   MPKI: 92.1343
L0D PREFETCH  REQUESTED:          0  ISSUED:          0  USEFUL:          0  USELESS:          0
L0D USEFUL LOAD PREFETCHES:          0 PREFETCH ISSUED TO LOWER LEVEL:          0  ACCURACY: -nan
L0D TIMELY PREFETCHES:          0 LATE PREFETCHES: 0 DROPPED PREFETCHES: 0
L0D COMMIT LATE PREFETCHES: 0 MISSED OPPORTUNITY: 0 LATE IN PQ: 0 UNCOVERED: 0
L0D COMMIT LATE MSHR PREFETCHES: 0
L0D MPKI TOTAL: 166.145 MSHR LATE: 0 PQ LATE: 0 COMMIT LATE: 0 MISSED OPPORTUNITY: 0 UNCOVERED: 0
L0D PREFETCHES SAME FILL-ORIGIN LEVEL: 0 DIFFERENT FILL-ORIGIN LEVEL: 0
L0D AVERAGE MISS LATENCY: 28.5357 cycles
L0D AVERAGE MISS LATENCY LOAD: 28.5357 cycles
L0D AVERAGE MISS LATENCY PREFETCH: -nan cycles
L0D AVERAGE MSHR OCCUPANCY: 1.41576
L0D MSHR FULL: 0.0794094
L0D RQ	ACCESS:   47430345	FORWARD:          0	MERGED:    8617660	TO_CACHE:   38812685
L0D WQ	ACCESS:    7636820	FORWARD:          0	MERGED:          0	TO_CACHE:    7636820

L1D SPEC fills:          0  NON-SPEC fills:    2310909
L1D Test counter :    4125419
L1D Leapfrog:          0
L1D MSHR merge:       1210
L1D TOTAL     ACCESS:   65608264  HIT:   55702609  MISS:    9905655  HIT %:    84.9018  MISS %:    15.0982   MPKI: 49.5283
L1D LOAD      TOTAL       ACCESS:   29628298  HIT:   23665599  MISS:    5962699  HIT %:     79.875  MISS %:     20.125   MPKI: 29.8135
L1D LOAD      NON_SPEC    ACCESS:   11202036  HIT:    8891127  MISS:    2310909  HIT %:    79.3706  MISS %:    20.6294   MPKI: 11.5545
L1D LOAD      SPEC        ACCESS:   18426262  HIT:   14774472  MISS:    3651790  HIT %:    80.1816  MISS %:    19.8184   MPKI: 18.2589
L1D RFO       NON_SPEC    ACCESS:    5871173  HIT:    5596350  MISS:     274823  HIT %:    95.3191  MISS %:    4.68089   MPKI: 1.37411
L1D COMMIT LOAD NON_SPEC    ACCESS:   11738687  HIT:   11701502  MISS:      37185  HIT %:    99.6832  MISS %:   0.316773   MPKI: 0.185925
L1D COMMIT WRITE NON_SPEC    ACCESS:   18370106  HIT:   14739158  MISS:    3630948  HIT %:    80.2345  MISS %:    19.7655   MPKI: 18.1547
L1D PREFETCH  REQUESTED:          0  ISSUED:          0  USEFUL:          0  USELESS:          0
L1D USEFUL LOAD PREFETCHES:          0 PREFETCH ISSUED TO LOWER LEVEL:          0  ACCURACY: -nan
L1D TIMELY PREFETCHES:          0 LATE PREFETCHES: 0 DROPPED PREFETCHES: 0
L1D COMMIT LATE PREFETCHES: 0 MISSED OPPORTUNITY: 0 LATE IN PQ: 0 UNCOVERED: 0
L1D COMMIT LATE MSHR PREFETCHES: 0
L1D MPKI TOTAL: 29.8195 MSHR LATE: 0 PQ LATE: 0 COMMIT LATE: 0 MISSED OPPORTUNITY: 0 UNCOVERED: 0
L1D PREFETCHES SAME FILL-ORIGIN LEVEL: 0 DIFFERENT FILL-ORIGIN LEVEL: 0
L1D AVERAGE MISS LATENCY: 76.1809 cycles
L1D AVERAGE MISS LATENCY LOAD: 115.214 cycles
L1D AVERAGE MISS LATENCY PREFETCH: -nan cycles
L1D AVERAGE MSHR OCCUPANCY: 1.05023
L1D MSHR FULL: 0.0417796
L1D RQ	ACCESS:   47484212	FORWARD:          0	MERGED:    4790653	TO_CACHE:   41369173
L1D WQ	ACCESS:   25949934	FORWARD:    1324386	MERGED:    1339023	TO_CACHE:   24610911

L1D UNIQUE REGIONS ACCESSED: 0
L1D REGIONS CONFLICTS: 0
L1D Cross Page Prefetch Requests: 0
L1D Same Page Prefetch Requests: 0
L1D ROI Sum of L1D PQ occupancy: 0
L1D PREFETCHES PUSHED FROM L2C: 0
L1I SPEC fills:          0  NON-SPEC fills:          0
L1I Test counter :          0
L1I Leapfrog:          0
L1I MSHR merge:          2
L1I TOTAL     ACCESS:   41506211  HIT:   41506194  MISS:         17  HIT %:        100  MISS %: 4.09577e-05   MPKI: 8.5e-05
L1I LOAD      TOTAL       ACCESS:   41506211  HIT:   41506194  MISS:         17  HIT %:        100  MISS %: 4.09577e-05   MPKI: 8.5e-05
L1I LOAD      NON_SPEC    ACCESS:   41506211  HIT:   41506194  MISS:         17  HIT %:        100  MISS %: 4.09577e-05   MPKI: 8.5e-05
L1I PREFETCH  REQUESTED:          0  ISSUED:          0  USEFUL:          0  USELESS:          0
L1I USEFUL LOAD PREFETCHES:          0 PREFETCH ISSUED TO LOWER LEVEL:          0  ACCURACY: -nan
L1I TIMELY PREFETCHES:          0 LATE PREFETCHES: 0 DROPPED PREFETCHES: 0
L1I COMMIT LATE PREFETCHES: 0 MISSED OPPORTUNITY: 0 LATE IN PQ: 0 UNCOVERED: 0
L1I COMMIT LATE MSHR PREFETCHES: 0
L1I MPKI TOTAL: 9.5e-05 MSHR LATE: 0 PQ LATE: 0 COMMIT LATE: 0 MISSED OPPORTUNITY: 0 UNCOVERED: 0
L1I PREFETCHES SAME FILL-ORIGIN LEVEL: 0 DIFFERENT FILL-ORIGIN LEVEL: 0
L1I AVERAGE MISS LATENCY: 295.471 cycles
L1I AVERAGE MISS LATENCY LOAD: 295.471 cycles
L1I AVERAGE MISS LATENCY PREFETCH: -nan cycles
L1I AVERAGE MSHR OCCUPANCY: 1.92742e-07
L1I MSHR FULL: 0
L1I RQ	ACCESS:   64801659	FORWARD:          0	MERGED:   23295447	TO_CACHE:   41506212

BTB SPEC fills:          0  NON-SPEC fills:          0
BTB Test counter :          0
BTB Leapfrog:          0
BTB MSHR merge:          0
BTB TOTAL     ACCESS:   40442036  HIT:   40441679  MISS:        357  HIT %:    99.9991  MISS %: 0.000882745   MPKI: 0.001785
BTB BRANCH_DIRECT_JUMP	ACCESS:      22041  HIT:      21996  MISS:         45
BTB BRANCH_INDIRECT	ACCESS:          3  HIT:          2  MISS:          1
BTB BRANCH_CONDITIONAL	ACCESS:   40419252  HIT:   40419148  MISS:        104
BTB BRANCH_DIRECT_CALL	ACCESS:        361  HIT:        318  MISS:         43
BTB BRANCH_INDIRECT_CALL	ACCESS:          9  HIT:          6  MISS:          3
BTB BRANCH_RETURN	ACCESS:        370  HIT:        209  MISS:        161
BTB BRANCH_OTHER ACCESS:          0  HIT:          0  MISS:          0

L2C SPEC fills:          0  NON-SPEC fills:    1590384
L2C Test counter :    3593613
L2C Leapfrog:          0
L2C MSHR merge:          0
L2C TOTAL     ACCESS:   11677234  HIT:    3611806  MISS:    8065428  HIT %:    30.9303  MISS %:    69.0697   MPKI: 40.3271
L2C LOAD      TOTAL       ACCESS:    5962656  HIT:    1297209  MISS:    4665447  HIT %:    21.7556  MISS %:    78.2444   MPKI: 23.3272
L2C LOAD      NON_SPEC    ACCESS:    2310909  HIT:     720508  MISS:    1590401  HIT %:    31.1786  MISS %:    68.8214   MPKI: 7.952
L2C LOAD      SPEC        ACCESS:    3651747  HIT:     576701  MISS:    3075046  HIT %:    15.7925  MISS %:    84.2075   MPKI: 15.3752
L2C RFO       NON_SPEC    ACCESS:     274823  HIT:       9688  MISS:     265135  HIT %:    3.52518  MISS %:    96.4748   MPKI: 1.32567
L2C WRITEBACK NON_SPEC    ACCESS:     544544  HIT:     544516  MISS:         28  HIT %:    99.9949  MISS %: 0.00514192   MPKI: 0.00014
L2C CLEAN_EVICTION NON_SPEC    ACCESS:    4125418  HIT:    1053678  MISS:    3071740  HIT %:    25.5411  MISS %:    74.4589   MPKI: 15.3587
L2C COMMIT LOAD NON_SPEC    ACCESS:      37179  HIT:       7983  MISS:      29196  HIT %:    21.4718  MISS %:    78.5282   MPKI: 0.14598
L2C LOAD TRANSLATION NON_SPEC    ACCESS:     732614  HIT:     698732  MISS:      33882  HIT %:    95.3752  MISS %:    4.62481   MPKI: 0.16941
L2C PREFETCH  REQUESTED:          0  ISSUED:          0  USEFUL:          0  USELESS:          0
L2C USEFUL LOAD PREFETCHES:          0 PREFETCH ISSUED TO LOWER LEVEL:          0  ACCURACY: -nan
L2C TIMELY PREFETCHES:          0 LATE PREFETCHES: 0 DROPPED PREFETCHES: 0
L2C COMMIT LATE PREFETCHES: 0 MISSED OPPORTUNITY: 0 LATE IN PQ: 0 UNCOVERED: 0
L2C COMMIT LATE MSHR PREFETCHES: 0
L2C MPKI TOTAL: 23.3272 MSHR LATE: 0 PQ LATE: 0 COMMIT LATE: 0 MISSED OPPORTUNITY: 0 UNCOVERED: 0
L2C PREFETCHES SAME FILL-ORIGIN LEVEL: 0 DIFFERENT FILL-ORIGIN LEVEL: 0
L2C AVERAGE MISS LATENCY: 84.2257 cycles
L2C AVERAGE MISS LATENCY LOAD: 130.614 cycles
L2C AVERAGE MISS LATENCY PREFETCH: -nan cycles
L2C AVERAGE MSHR OCCUPANCY: 0.913851
L2C MSHR FULL: 0
L2C RQ	ACCESS:    7007337	FORWARD:          0	MERGED:          0	TO_CACHE:    7007272
L2C WQ	ACCESS:    4669963	FORWARD:         65	MERGED:          0	TO_CACHE:    4669963

L2C Instructions Evicting Data 17
L2C Translations Evicting Data 33006
L2C Data Evicting Data 1872162
L2C Instructions Evicting Instructions 0
L2C Translations Evicting Instructions 2
L2C Data Evicting Instructions 6
L2C Instructions Evicting Translations 0
L2C Translations Evicting Translations 874
L2C Data Evicting Translations 12547
L2C Dense regions hint from L2: 0
PSCL5 SPEC fills:          0  NON-SPEC fills:          0
PSCL5 Test counter :          0
PSCL5 Leapfrog:          0
PSCL5 MSHR merge:          0
PSCL5 TOTAL     ACCESS:          0  HIT:          0  MISS:          0  HIT %:       -nan  MISS %:       -nan   MPKI: 0
PSCL5 PREFETCH  REQUESTED:          0  ISSUED:          0  USEFUL:          0  USELESS:          0
PSCL5 USEFUL LOAD PREFETCHES:          0 PREFETCH ISSUED TO LOWER LEVEL:          0  ACCURACY: -nan
PSCL5 TIMELY PREFETCHES:          0 LATE PREFETCHES: 0 DROPPED PREFETCHES: 0
PSCL5 COMMIT LATE PREFETCHES: 0 MISSED OPPORTUNITY: 0 LATE IN PQ: 0 UNCOVERED: 0
PSCL5 COMMIT LATE MSHR PREFETCHES: 0
PSCL5 MPKI TOTAL: 0 MSHR LATE: 0 PQ LATE: 0 COMMIT LATE: 0 MISSED OPPORTUNITY: 0 UNCOVERED: 0
PSCL5 PREFETCHES SAME FILL-ORIGIN LEVEL: 0 DIFFERENT FILL-ORIGIN LEVEL: 0

PSCL4 SPEC fills:          0  NON-SPEC fills:          0
PSCL4 Test counter :          0
PSCL4 Leapfrog:          0
PSCL4 MSHR merge:          0
PSCL4 TOTAL     ACCESS:          0  HIT:          0  MISS:          0  HIT %:       -nan  MISS %:       -nan   MPKI: 0
PSCL4 PREFETCH  REQUESTED:          0  ISSUED:          0  USEFUL:          0  USELESS:          0
PSCL4 USEFUL LOAD PREFETCHES:          0 PREFETCH ISSUED TO LOWER LEVEL:          0  ACCURACY: -nan
PSCL4 TIMELY PREFETCHES:          0 LATE PREFETCHES: 0 DROPPED PREFETCHES: 0
PSCL4 COMMIT LATE PREFETCHES: 0 MISSED OPPORTUNITY: 0 LATE IN PQ: 0 UNCOVERED: 0
PSCL4 COMMIT LATE MSHR PREFETCHES: 0
PSCL4 MPKI TOTAL: 0 MSHR LATE: 0 PQ LATE: 0 COMMIT LATE: 0 MISSED OPPORTUNITY: 0 UNCOVERED: 0
PSCL4 PREFETCHES SAME FILL-ORIGIN LEVEL: 0 DIFFERENT FILL-ORIGIN LEVEL: 0

PSCL3 SPEC fills:          0  NON-SPEC fills:          0
PSCL3 Test counter :          0
PSCL3 Leapfrog:          0
PSCL3 MSHR merge:          0
PSCL3 TOTAL     ACCESS:          0  HIT:          0  MISS:          0  HIT %:       -nan  MISS %:       -nan   MPKI: 0
PSCL3 PREFETCH  REQUESTED:          0  ISSUED:          0  USEFUL:          0  USELESS:          0
PSCL3 USEFUL LOAD PREFETCHES:          0 PREFETCH ISSUED TO LOWER LEVEL:          0  ACCURACY: -nan
PSCL3 TIMELY PREFETCHES:          0 LATE PREFETCHES: 0 DROPPED PREFETCHES: 0
PSCL3 COMMIT LATE PREFETCHES: 0 MISSED OPPORTUNITY: 0 LATE IN PQ: 0 UNCOVERED: 0
PSCL3 COMMIT LATE MSHR PREFETCHES: 0
PSCL3 MPKI TOTAL: 0 MSHR LATE: 0 PQ LATE: 0 COMMIT LATE: 0 MISSED OPPORTUNITY: 0 UNCOVERED: 0
PSCL3 PREFETCHES SAME FILL-ORIGIN LEVEL: 0 DIFFERENT FILL-ORIGIN LEVEL: 0

PSCL2 SPEC fills:          0  NON-SPEC fills:          0
PSCL2 Test counter :          0
PSCL2 Leapfrog:          0
PSCL2 MSHR merge:          0
PSCL2 TOTAL     ACCESS:          0  HIT:          0  MISS:          0  HIT %:       -nan  MISS %:       -nan   MPKI: 0
PSCL2 PREFETCH  REQUESTED:          0  ISSUED:          0  USEFUL:          0  USELESS:          0
PSCL2 USEFUL LOAD PREFETCHES:          0 PREFETCH ISSUED TO LOWER LEVEL:          0  ACCURACY: -nan
PSCL2 TIMELY PREFETCHES:          0 LATE PREFETCHES: 0 DROPPED PREFETCHES: 0
PSCL2 COMMIT LATE PREFETCHES: 0 MISSED OPPORTUNITY: 0 LATE IN PQ: 0 UNCOVERED: 0
PSCL2 COMMIT LATE MSHR PREFETCHES: 0
PSCL2 MPKI TOTAL: 0 MSHR LATE: 0 PQ LATE: 0 COMMIT LATE: 0 MISSED OPPORTUNITY: 0 UNCOVERED: 0
PSCL2 PREFETCHES SAME FILL-ORIGIN LEVEL: 0 DIFFERENT FILL-ORIGIN LEVEL: 0

LLC SPEC fills:          0  NON-SPEC fills:    1246527
LLC Test counter :    2762551
LLC Leapfrog:          0
LLC MSHR merge:          0
LLC TOTAL     ACCESS:    9066482  HIT:    3117308  MISS:    5949174  HIT %:    34.3828  MISS %:    65.6172   MPKI: 29.7459
LLC LOAD      TOTAL       ACCESS:    4665427  HIT:    1264001  MISS:    3401426  HIT %:    27.0929  MISS %:    72.9071   MPKI: 17.0071
LLC LOAD      NON_SPEC    ACCESS:    1590397  HIT:     343853  MISS:    1246544  HIT %:    21.6206  MISS %:    78.3794   MPKI: 6.23272
LLC LOAD      SPEC        ACCESS:    3075030  HIT:     920148  MISS:    2154882  HIT %:    29.9232  MISS %:    70.0768   MPKI: 10.7744
LLC RFO       NON_SPEC    ACCESS:     265135  HIT:      17588  MISS:     247547  HIT %:     6.6336  MISS %:    93.3664   MPKI: 1.23774
LLC WRITEBACK NON_SPEC    ACCESS:     479233  HIT:     478058  MISS:       1175  HIT %:    99.7548  MISS %:   0.245183   MPKI: 0.005875
LLC CLEAN_EVICTION NON_SPEC    ACCESS:    3593612  HIT:    1341721  MISS:    2251891  HIT %:    37.3363  MISS %:    62.6637   MPKI: 11.2595
LLC COMMIT LOAD NON_SPEC    ACCESS:      29193  HIT:      14725  MISS:      14468  HIT %:    50.4402  MISS %:    49.5598   MPKI: 0.07234
LLC LOAD TRANSLATION NON_SPEC    ACCESS:      33882  HIT:       1215  MISS:      32667  HIT %:    3.58597  MISS %:     96.414   MPKI: 0.163335
LLC PREFETCH  REQUESTED:          0  ISSUED:          0  USEFUL:          0  USELESS:          0
LLC USEFUL LOAD PREFETCHES:          0 PREFETCH ISSUED TO LOWER LEVEL:          0  ACCURACY: -nan
LLC TIMELY PREFETCHES:          0 LATE PREFETCHES: 0 DROPPED PREFETCHES: 0
LLC COMMIT LATE PREFETCHES: 0 MISSED OPPORTUNITY: 0 LATE IN PQ: 0 UNCOVERED: 0
LLC COMMIT LATE MSHR PREFETCHES: 0
LLC MPKI TOTAL: 17.0071 MSHR LATE: 0 PQ LATE: 0 COMMIT LATE: 0 MISSED OPPORTUNITY: 0 UNCOVERED: 0
LLC PREFETCHES SAME FILL-ORIGIN LEVEL: 0 DIFFERENT FILL-ORIGIN LEVEL: 0
LLC AVERAGE MISS LATENCY: 93.6416 cycles
LLC AVERAGE MISS LATENCY LOAD: 146.12 cycles
LLC AVERAGE MISS LATENCY PREFETCH: -nan cycles
LLC AVERAGE MSHR OCCUPANCY: 0.648811
LLC MSHR FULL: 0
LLC RQ	ACCESS:    4993660	FORWARD:          0	MERGED:          0	TO_CACHE:    4993637
LLC WQ	ACCESS:    4072846	FORWARD:         23	MERGED:          0	TO_CACHE:    4072846

LLC Dense regions hint to LLC: 0

RAW hits: 273203
Loads Generated: 47703547
Loads sent to L1D: 47430345
Stores Generated: 7636817
Stores sent to L1D: 7636820
Major fault: 0 Minor fault: 29015
Allocated PAGES: 29015
Total Load insts: 60194897
Total Non-spec loads: 11479520
Percentage of speculative loads: 80.9294

LeapFrogging counter: 906447
Commit hits: 18370717 miss: 17854708
Commit hit %: 50.7122 miss %: 49.2878
Commits not translated: 0
Loads retired: 5962699
Stores retired: 7636820
Cache fills: 5962699
L1D response latency: 115.214 cycles
Load retirement latency: 159.151 cycles
OOO test counter: 0
Discarded buffer inserts: 18370717 hits: 26286 hit %: 0.143086

DRAM Statistics
 CHANNEL 0
 RQ ROW_BUFFER_HIT:     718315  ROW_BUFFER_MISS:    2977578
 DBUS_CONGESTED:        662
 WQ ROW_BUFFER_HIT:    1153308  ROW_BUFFER_MISS:    2024507  FULL:      48938

 AVG_CONGESTED_CYCLE: 6
 All warmup complete: 2
Channel 0 Bank busy for read cycles: 0
Channel 0 Bank busy for write cycles: 0
Channel 0
Rank 0
0banks busy for read cycles: 157862248
0banks busy for write cycles: 901216
1banks busy for read cycles: 290982814
1banks busy for write cycles: 161926522
2banks busy for read cycles: 67516160
2banks busy for write cycles: 85771611
3banks busy for read cycles: 10582873
3banks busy for write cycles: 26373112
4banks busy for read cycles: 3254544
4banks busy for write cycles: 10553706
5banks busy for read cycles: 995529
5banks busy for write cycles: 7229871
6banks busy for read cycles: 303180
6banks busy for write cycles: 6351638
7banks busy for read cycles: 187479
7banks busy for write cycles: 7073430
8banks busy for read cycles: 593429
8banks busy for write cycles: 13298801

CPU 0 Branch Prediction Accuracy: 88.7511% MPKI: 23.6813 Average ROB Occupancy at Mispredict: 11.1177
Branch types
NOT_BRANCH: 157895415 78.9477%
BRANCH_DIRECT_JUMP: 22041 0.0110205%
BRANCH_INDIRECT: 3 1.5e-06%
BRANCH_CONDITIONAL: 42081441 21.0407%
BRANCH_DIRECT_CALL: 361 0.0001805%
BRANCH_INDIRECT_CALL: 9 4.5e-06%
BRANCH_RETURN: 370 0.000185%
BRANCH_OTHER: 0 0%

DRAM PAGES: 1048576
Allocated PAGES: 29015
