
*** ChampSim Multicore Out-of-Order Simulator ***

Warmup Instructions: 50000000
Simulation Instructions: 200000000
Number of CPUs: 1
LLC sets: 2048
LLC ways: 16
L0D sets: 16
L0D ways: 2
ROB size: 352
LQ size: 128
SQ size: 72
Secure Berti: OFF
Berti: OFF
Berti Fill: OFF
On commit prefetching: OFF
Hit-based filter: OFF
Time-guarding: ON
Free-slotting: ON
Leap-frogging: ON
Train prefetcher on L0D bypass: OFF
No translation penalty for prefetchers: OFF
Prefetch to L0D only: OFF
Prefetch to L1D only: OFF
Clean evictions: ON
Commit loads: ON
Commit write: ON
Fill commit loads to L2C, LLC: ON
DRAM IO FREQUENCY: 6400
ROB SIZE: 352
Off-chip DRAM Size: 4096 MB Channels: 1 Width: 64-bit Data Rate: 6400 MT/s
CPU 0 runs /home/sumon/secure_berti/GhostMinion/../../traces/gap/cc-13.trace.gz
.gz
BTB has LRU replacement policy
ITLB has LRU replacement policy
DTLB has LRU replacement policy
STLB has LRU replacement policy
L1I has LRU replacement policy
L0D has LRU replacement policy
L1D has LRU replacement policy
L2C has LRU replacement policy
LLC has LRU replacement policy
Heartbeat CPU 0 instructions: 10000003 cycles: 3246303 heartbeat IPC: 3.08043 cumulative IPC: 3.08043 (Simulation time: 0 hr 0 min 26 sec) 
Heartbeat CPU 0 instructions: 20000000 cycles: 6502498 heartbeat IPC: 3.07107 cumulative IPC: 3.07574 (Simulation time: 0 hr 0 min 56 sec) 
Heartbeat CPU 0 instructions: 30000003 cycles: 9761458 heartbeat IPC: 3.06846 cumulative IPC: 3.07331 (Simulation time: 0 hr 1 min 25 sec) 
Heartbeat CPU 0 instructions: 40000002 cycles: 13019813 heartbeat IPC: 3.06903 cumulative IPC: 3.07224 (Simulation time: 0 hr 1 min 55 sec) 
Heartbeat CPU 0 instructions: 50000001 cycles: 16282649 heartbeat IPC: 3.06482 cumulative IPC: 3.07075 (Simulation time: 0 hr 2 min 24 sec) 

Warmup complete CPU 0 instructions: 50000001 cycles: 16282649 (Simulation time: 0 hr 2 min 24 sec) 

Heartbeat CPU 0 instructions: 60000000 cycles: 69287716 heartbeat IPC: 0.188661 cumulative IPC: 0.188661 (Simulation time: 0 hr 3 min 8 sec) 
Heartbeat CPU 0 instructions: 70000000 cycles: 120115100 heartbeat IPC: 0.196744 cumulative IPC: 0.192618 (Simulation time: 0 hr 3 min 50 sec) 
Heartbeat CPU 0 instructions: 80000000 cycles: 170871097 heartbeat IPC: 0.197021 cumulative IPC: 0.194064 (Simulation time: 0 hr 4 min 33 sec) 
Heartbeat CPU 0 instructions: 90000003 cycles: 222232644 heartbeat IPC: 0.194698 cumulative IPC: 0.194222 (Simulation time: 0 hr 5 min 16 sec) 
Heartbeat CPU 0 instructions: 100000003 cycles: 271665121 heartbeat IPC: 0.202296 cumulative IPC: 0.195785 (Simulation time: 0 hr 6 min 0 sec) 
Heartbeat CPU 0 instructions: 110000000 cycles: 320549298 heartbeat IPC: 0.204565 cumulative IPC: 0.197195 (Simulation time: 0 hr 6 min 51 sec) 
Heartbeat CPU 0 instructions: 120000000 cycles: 369326197 heartbeat IPC: 0.205015 cumulative IPC: 0.198276 (Simulation time: 0 hr 7 min 40 sec) 
Heartbeat CPU 0 instructions: 130000000 cycles: 420119726 heartbeat IPC: 0.196875 cumulative IPC: 0.1981 (Simulation time: 0 hr 8 min 28 sec) 
Heartbeat CPU 0 instructions: 140000002 cycles: 470606720 heartbeat IPC: 0.198071 cumulative IPC: 0.198096 (Simulation time: 0 hr 9 min 15 sec) 
Heartbeat CPU 0 instructions: 150000000 cycles: 518073820 heartbeat IPC: 0.210672 cumulative IPC: 0.199286 (Simulation time: 0 hr 10 min 4 sec) 
Heartbeat CPU 0 instructions: 160000002 cycles: 567355046 heartbeat IPC: 0.202917 cumulative IPC: 0.199611 (Simulation time: 0 hr 10 min 51 sec) 
Heartbeat CPU 0 instructions: 170000001 cycles: 617005666 heartbeat IPC: 0.201407 cumulative IPC: 0.199759 (Simulation time: 0 hr 11 min 37 sec) 
Heartbeat CPU 0 instructions: 180000003 cycles: 666564894 heartbeat IPC: 0.201779 cumulative IPC: 0.199913 (Simulation time: 0 hr 12 min 25 sec) 
Heartbeat CPU 0 instructions: 190000001 cycles: 715772286 heartbeat IPC: 0.203221 cumulative IPC: 0.200146 (Simulation time: 0 hr 13 min 12 sec) 
Heartbeat CPU 0 instructions: 200000000 cycles: 765294919 heartbeat IPC: 0.201928 cumulative IPC: 0.200264 (Simulation time: 0 hr 13 min 58 sec) 
Heartbeat CPU 0 instructions: 210000002 cycles: 813262059 heartbeat IPC: 0.208476 cumulative IPC: 0.200758 (Simulation time: 0 hr 14 min 43 sec) 
Heartbeat CPU 0 instructions: 220000000 cycles: 863760505 heartbeat IPC: 0.198026 cumulative IPC: 0.200595 (Simulation time: 0 hr 15 min 30 sec) 
Heartbeat CPU 0 instructions: 230000000 cycles: 912195264 heartbeat IPC: 0.206463 cumulative IPC: 0.200912 (Simulation time: 0 hr 16 min 15 sec) 
Heartbeat CPU 0 instructions: 240000000 cycles: 962016109 heartbeat IPC: 0.200719 cumulative IPC: 0.200902 (Simulation time: 0 hr 17 min 0 sec) 
Heartbeat CPU 0 instructions: 250000000 cycles: 1011034655 heartbeat IPC: 0.204004 cumulative IPC: 0.201055 (Simulation time: 0 hr 17 min 44 sec) 
Finished CPU 0 instructions: 200000003 cycles: 994752007 cumulative IPC: 0.201055 (Simulation time: 0 hr 17 min 44 sec) 
 Instruction ID: 250000047

ChampSim completed all CPUs

Region of Interest Statistics

CPU 0 cumulative IPC: 0.201055 instructions: 200000003 cycles: 994752007
ITLB SPEC fills:          0  NON-SPEC fills:          0
ITLB Test counter :          0
ITLB Leapfrog:          0
ITLB MSHR merge:          0
ITLB TOTAL     ACCESS:   31299709  HIT:   31299709  MISS:          0  HIT %:        100  MISS %:          0   MPKI: 0
ITLB LOAD TRANSLATION NON_SPEC    ACCESS:   31299709  HIT:   31299709  MISS:          0  HIT %:        100  MISS %:          0   MPKI: 0
ITLB PREFETCH  REQUESTED:          0  ISSUED:          0  USEFUL:          0  USELESS:          0
ITLB USEFUL LOAD PREFETCHES:          0 PREFETCH ISSUED TO LOWER LEVEL:          0  ACCURACY: -nan
ITLB TIMELY PREFETCHES:          0 LATE PREFETCHES: 0 DROPPED PREFETCHES: 0
ITLB COMMIT LATE PREFETCHES: 0 MISSED OPPORTUNITY: 0 LATE IN PQ: 0 UNCOVERED: 0
ITLB COMMIT LATE MSHR PREFETCHES: 0
ITLB MPKI TOTAL: 0 MSHR LATE: 0 PQ LATE: 0 COMMIT LATE: 0 MISSED OPPORTUNITY: 0 UNCOVERED: 0
ITLB PREFETCHES SAME FILL-ORIGIN LEVEL: 0 DIFFERENT FILL-ORIGIN LEVEL: 0
ITLB AVERAGE MISS LATENCY: -nan cycles
ITLB AVERAGE MISS LATENCY LOAD: -nan cycles
ITLB AVERAGE MISS LATENCY PREFETCH: -nan cycles
ITLB AVERAGE MSHR OCCUPANCY: 0
ITLB MSHR FULL: 0
ITLB RQ	ACCESS:   31897345	FORWARD:          0	MERGED:     597637	TO_CACHE:   31299708

DTLB SPEC fills:          0  NON-SPEC fills:          0
DTLB Test counter :          0
DTLB Leapfrog:          0
DTLB MSHR merge:          0
DTLB TOTAL     ACCESS:   48821189  HIT:   38780774  MISS:   10040415  HIT %:    79.4343  MISS %:    20.5657   MPKI: 50.2021
DTLB LOAD TRANSLATION NON_SPEC    ACCESS:   48821189  HIT:   38780774  MISS:   10040415  HIT %:    79.4343  MISS %:    20.5657   MPKI: 50.2021
DTLB PREFETCH  REQUESTED:          0  ISSUED:          0  USEFUL:          0  USELESS:          0
DTLB USEFUL LOAD PREFETCHES:          0 PREFETCH ISSUED TO LOWER LEVEL:          0  ACCURACY: -nan
DTLB TIMELY PREFETCHES:          0 LATE PREFETCHES: 0 DROPPED PREFETCHES: 0
DTLB COMMIT LATE PREFETCHES: 0 MISSED OPPORTUNITY: 0 LATE IN PQ: 0 UNCOVERED: 0
DTLB COMMIT LATE MSHR PREFETCHES: 0
DTLB MPKI TOTAL: 0 MSHR LATE: 0 PQ LATE: 0 COMMIT LATE: 0 MISSED OPPORTUNITY: 0 UNCOVERED: 0
DTLB PREFETCHES SAME FILL-ORIGIN LEVEL: 0 DIFFERENT FILL-ORIGIN LEVEL: 0
DTLB AVERAGE MISS LATENCY: 9.58292 cycles
DTLB AVERAGE MISS LATENCY LOAD: -nan cycles
DTLB AVERAGE MISS LATENCY PREFETCH: -nan cycles
DTLB AVERAGE MSHR OCCUPANCY: 0.340684
DTLB MSHR FULL: 0.00503904
DTLB RQ	ACCESS:   51032459	FORWARD:          0	MERGED:    2020014	TO_CACHE:   49012445

STLB SPEC fills:          0  NON-SPEC fills:          0
STLB Test counter :          0
STLB Leapfrog:          0
STLB MSHR merge:          0
STLB TOTAL     ACCESS:   10040414  HIT:   10025394  MISS:      15020  HIT %:    99.8504  MISS %:   0.149595   MPKI: 0.0751
STLB LOAD TRANSLATION NON_SPEC    ACCESS:   10040414  HIT:   10025394  MISS:      15020  HIT %:    99.8504  MISS %:   0.149595   MPKI: 0.0751
STLB PREFETCH  REQUESTED:          0  ISSUED:          0  USEFUL:          0  USELESS:          0
STLB USEFUL LOAD PREFETCHES:          0 PREFETCH ISSUED TO LOWER LEVEL:          0  ACCURACY: -nan
STLB TIMELY PREFETCHES:          0 LATE PREFETCHES: 0 DROPPED PREFETCHES: 0
STLB COMMIT LATE PREFETCHES: 0 MISSED OPPORTUNITY: 0 LATE IN PQ: 0 UNCOVERED: 0
STLB COMMIT LATE MSHR PREFETCHES: 0
STLB MPKI TOTAL: 0 MSHR LATE: 0 PQ LATE: 0 COMMIT LATE: 0 MISSED OPPORTUNITY: 0 UNCOVERED: 0
STLB PREFETCHES SAME FILL-ORIGIN LEVEL: 0 DIFFERENT FILL-ORIGIN LEVEL: 0
STLB AVERAGE MISS LATENCY: 187.447 cycles
STLB AVERAGE MISS LATENCY LOAD: -nan cycles
STLB AVERAGE MISS LATENCY PREFETCH: -nan cycles
STLB AVERAGE MSHR OCCUPANCY: 0.00106828
STLB MSHR FULL: 0
STLB RQ	ACCESS:   10040414	FORWARD:          0	MERGED:          0	TO_CACHE:   10040414

STLB Hit, L1D data hit: 0
STLB Hit, L2C data hit: 0
STLB Hit, LLC data hit: 0
STLB Hit, LLC data miss: 0
STLB STLB hints to L2: 0
L0D SPEC fills:   24139360  NON-SPEC fills:          0
L0D TimeGuard Request with older TS:     432183 Restricted eviction:     153942 read:     503534
L0D Test counter :          0
L0D Leapfrog:          0
L0D MSHR merge:    2603532
L0D TOTAL     ACCESS:   48181887  HIT:   11309278  MISS:   36872609  HIT %:    23.4721  MISS %:    76.5279   MPKI: 184.363
L0D LOAD      TOTAL       ACCESS:   48181887  HIT:   11309278  MISS:   36872609  HIT %:    23.4721  MISS %:    76.5279   MPKI: 184.363
L0D LOAD      NON_SPEC    ACCESS:   13601313  HIT:    1022006  MISS:   12579307  HIT %:    7.51402  MISS %:     92.486   MPKI: 62.8965
L0D LOAD      SPEC        ACCESS:   34580574  HIT:   10287272  MISS:   24293302  HIT %:    29.7487  MISS %:    70.2513   MPKI: 121.467
L0D PREFETCH  REQUESTED:          0  ISSUED:          0  USEFUL:          0  USELESS:          0
L0D USEFUL LOAD PREFETCHES:          0 PREFETCH ISSUED TO LOWER LEVEL:          0  ACCURACY: -nan
L0D TIMELY PREFETCHES:          0 LATE PREFETCHES: 0 DROPPED PREFETCHES: 0
L0D COMMIT LATE PREFETCHES: 0 MISSED OPPORTUNITY: 0 LATE IN PQ: 0 UNCOVERED: 0
L0D COMMIT LATE MSHR PREFETCHES: 0
L0D MPKI TOTAL: 197.381 MSHR LATE: 0 PQ LATE: 0 COMMIT LATE: 0 MISSED OPPORTUNITY: 0 UNCOVERED: 0
L0D PREFETCHES SAME FILL-ORIGIN LEVEL: 0 DIFFERENT FILL-ORIGIN LEVEL: 0
L0D AVERAGE MISS LATENCY: 35.2546 cycles
L0D AVERAGE MISS LATENCY LOAD: 35.2546 cycles
L0D AVERAGE MISS LATENCY PREFETCH: -nan cycles
L0D AVERAGE MSHR OCCUPANCY: 1.68264
L0D MSHR FULL: 0.033708
L0D RQ	ACCESS:   55706383	FORWARD:          0	MERGED:    4920969	TO_CACHE:   50785414
L0D WQ	ACCESS:     247045	FORWARD:          0	MERGED:          0	TO_CACHE:     247045

L1D SPEC fills:          0  NON-SPEC fills:    4661129
L1D Test counter :   10841921
L1D Leapfrog:          0
L1D MSHR merge:       2850
L1D TOTAL     ACCESS:   72492113  HIT:   46600818  MISS:   25891295  HIT %:     64.284  MISS %:     35.716   MPKI: 129.456
L1D LOAD      TOTAL       ACCESS:   36869759  HIT:   21583688  MISS:   15286071  HIT %:    58.5404  MISS %:    41.4596   MPKI: 76.4304
L1D LOAD      NON_SPEC    ACCESS:   12577704  HIT:    7916575  MISS:    4661129  HIT %:    62.9413  MISS %:    37.0587   MPKI: 23.3056
L1D LOAD      SPEC        ACCESS:   24292055  HIT:   13667113  MISS:   10624942  HIT %:    56.2617  MISS %:    43.7383   MPKI: 53.1247
L1D RFO       NON_SPEC    ACCESS:     246177  HIT:     246177  MISS:          0  HIT %:        100  MISS %:          0   MPKI: 0
L1D COMMIT LOAD NON_SPEC    ACCESS:   11790211  HIT:   11630523  MISS:     159688  HIT %:    98.6456  MISS %:    1.35441   MPKI: 0.79844
L1D COMMIT WRITE NON_SPEC    ACCESS:   23585966  HIT:   13140430  MISS:   10445536  HIT %:    55.7129  MISS %:    44.2871   MPKI: 52.2277
L1D PREFETCH  REQUESTED:          0  ISSUED:          0  USEFUL:          0  USELESS:          0
L1D USEFUL LOAD PREFETCHES:          0 PREFETCH ISSUED TO LOWER LEVEL:          0  ACCURACY: -nan
L1D TIMELY PREFETCHES:          0 LATE PREFETCHES: 0 DROPPED PREFETCHES: 0
L1D COMMIT LATE PREFETCHES: 0 MISSED OPPORTUNITY: 0 LATE IN PQ: 0 UNCOVERED: 0
L1D COMMIT LATE MSHR PREFETCHES: 0
L1D MPKI TOTAL: 76.4446 MSHR LATE: 0 PQ LATE: 0 COMMIT LATE: 0 MISSED OPPORTUNITY: 0 UNCOVERED: 0
L1D PREFETCHES SAME FILL-ORIGIN LEVEL: 0 DIFFERENT FILL-ORIGIN LEVEL: 0
L1D AVERAGE MISS LATENCY: 43.2241 cycles
L1D AVERAGE MISS LATENCY LOAD: 72.7777 cycles
L1D AVERAGE MISS LATENCY PREFETCH: -nan cycles
L1D AVERAGE MSHR OCCUPANCY: 1.00256
L1D MSHR FULL: 0
L1D RQ	ACCESS:   54976086	FORWARD:          0	MERGED:    4549138	TO_CACHE:   48675051
L1D WQ	ACCESS:   24047167	FORWARD:    1751897	MERGED:     214320	TO_CACHE:   23832847

L1D UNIQUE REGIONS ACCESSED: 0
L1D REGIONS CONFLICTS: 0
L1D Cross Page Prefetch Requests: 0
L1D Same Page Prefetch Requests: 0
L1D ROI Sum of L1D PQ occupancy: 0
L1D PREFETCHES PUSHED FROM L2C: 0
L1I SPEC fills:          0  NON-SPEC fills:          0
L1I Test counter :          0
L1I Leapfrog:          0
L1I MSHR merge:          0
L1I TOTAL     ACCESS:   31897346  HIT:   31897346  MISS:          0  HIT %:        100  MISS %:          0   MPKI: 0
L1I LOAD      TOTAL       ACCESS:   31897346  HIT:   31897346  MISS:          0  HIT %:        100  MISS %:          0   MPKI: 0
L1I LOAD      NON_SPEC    ACCESS:   31897346  HIT:   31897346  MISS:          0  HIT %:        100  MISS %:          0   MPKI: 0
L1I PREFETCH  REQUESTED:          0  ISSUED:          0  USEFUL:          0  USELESS:          0
L1I USEFUL LOAD PREFETCHES:          0 PREFETCH ISSUED TO LOWER LEVEL:          0  ACCURACY: -nan
L1I TIMELY PREFETCHES:          0 LATE PREFETCHES: 0 DROPPED PREFETCHES: 0
L1I COMMIT LATE PREFETCHES: 0 MISSED OPPORTUNITY: 0 LATE IN PQ: 0 UNCOVERED: 0
L1I COMMIT LATE MSHR PREFETCHES: 0
L1I MPKI TOTAL: 0 MSHR LATE: 0 PQ LATE: 0 COMMIT LATE: 0 MISSED OPPORTUNITY: 0 UNCOVERED: 0
L1I PREFETCHES SAME FILL-ORIGIN LEVEL: 0 DIFFERENT FILL-ORIGIN LEVEL: 0
L1I AVERAGE MISS LATENCY: -nan cycles
L1I AVERAGE MISS LATENCY LOAD: -nan cycles
L1I AVERAGE MISS LATENCY PREFETCH: -nan cycles
L1I AVERAGE MSHR OCCUPANCY: 0
L1I MSHR FULL: 0
L1I RQ	ACCESS:   57233718	FORWARD:          0	MERGED:   25336373	TO_CACHE:   31897345

BTB SPEC fills:          0  NON-SPEC fills:          0
BTB Test counter :          0
BTB Leapfrog:          0
BTB MSHR merge:          0
BTB TOTAL     ACCESS:   40650073  HIT:   40650068  MISS:          5  HIT %:        100  MISS %: 1.23001e-05   MPKI: 2.5e-05
BTB BRANCH_DIRECT_JUMP	ACCESS:          0  HIT:          0  MISS:          0
BTB BRANCH_INDIRECT	ACCESS:          0  HIT:          0  MISS:          0
BTB BRANCH_CONDITIONAL	ACCESS:   40650073  HIT:   40650068  MISS:          5
BTB BRANCH_DIRECT_CALL	ACCESS:          0  HIT:          0  MISS:          0
BTB BRANCH_INDIRECT_CALL	ACCESS:          0  HIT:          0  MISS:          0
BTB BRANCH_RETURN	ACCESS:          0  HIT:          0  MISS:          0
BTB BRANCH_OTHER ACCESS:          0  HIT:          0  MISS:          0

L2C SPEC fills:          0  NON-SPEC fills:    3090217
L2C Test counter :    8140849
L2C Leapfrog:          0
L2C MSHR merge:          0
L2C TOTAL     ACCESS:   26411666  HIT:    8361323  MISS:   18050343  HIT %:    31.6577  MISS %:    68.3423   MPKI: 90.2517
L2C LOAD      TOTAL       ACCESS:   15285913  HIT:    4790630  MISS:   10495283  HIT %:    31.3402  MISS %:    68.6598   MPKI: 52.4764
L2C LOAD      NON_SPEC    ACCESS:    4661104  HIT:    1570887  MISS:    3090217  HIT %:     33.702  MISS %:     66.298   MPKI: 15.4511
L2C LOAD      SPEC        ACCESS:   10624809  HIT:    3219743  MISS:    7405066  HIT %:     30.304  MISS %:     69.696   MPKI: 37.0253
L2C WRITEBACK NON_SPEC    ACCESS:      49173  HIT:      49173  MISS:          0  HIT %:        100  MISS %:          0   MPKI: 0
L2C CLEAN_EVICTION NON_SPEC    ACCESS:   10841921  HIT:    3381821  MISS:    7460100  HIT %:    31.1921  MISS %:    68.8079   MPKI: 37.3005
L2C COMMIT LOAD NON_SPEC    ACCESS:     159589  HIT:      69646  MISS:      89943  HIT %:    43.6409  MISS %:    56.3591   MPKI: 0.449715
L2C LOAD TRANSLATION NON_SPEC    ACCESS:      75070  HIT:      70053  MISS:       5017  HIT %:    93.3169  MISS %:     6.6831   MPKI: 0.025085
L2C PREFETCH  REQUESTED:          0  ISSUED:          0  USEFUL:          0  USELESS:          0
L2C USEFUL LOAD PREFETCHES:          0 PREFETCH ISSUED TO LOWER LEVEL:          0  ACCURACY: -nan
L2C TIMELY PREFETCHES:          0 LATE PREFETCHES: 0 DROPPED PREFETCHES: 0
L2C COMMIT LATE PREFETCHES: 0 MISSED OPPORTUNITY: 0 LATE IN PQ: 0 UNCOVERED: 0
L2C COMMIT LATE MSHR PREFETCHES: 0
L2C MPKI TOTAL: 52.4764 MSHR LATE: 0 PQ LATE: 0 COMMIT LATE: 0 MISSED OPPORTUNITY: 0 UNCOVERED: 0
L2C PREFETCHES SAME FILL-ORIGIN LEVEL: 0 DIFFERENT FILL-ORIGIN LEVEL: 0
L2C AVERAGE MISS LATENCY: 51.3952 cycles
L2C AVERAGE MISS LATENCY LOAD: 87.9415 cycles
L2C AVERAGE MISS LATENCY PREFETCH: -nan cycles
L2C AVERAGE MSHR OCCUPANCY: 1.14032
L2C MSHR FULL: 0
L2C RQ	ACCESS:   15520829	FORWARD:          0	MERGED:          0	TO_CACHE:   15520573
L2C WQ	ACCESS:   10891094	FORWARD:        256	MERGED:          0	TO_CACHE:   10891094

L2C Instructions Evicting Data 0
L2C Translations Evicting Data 5017
L2C Data Evicting Data 3178578
L2C Instructions Evicting Instructions 0
L2C Translations Evicting Instructions 0
L2C Data Evicting Instructions 0
L2C Instructions Evicting Translations 0
L2C Translations Evicting Translations 0
L2C Data Evicting Translations 1582
L2C Dense regions hint from L2: 0
PSCL5 SPEC fills:          0  NON-SPEC fills:          0
PSCL5 Test counter :          0
PSCL5 Leapfrog:          0
PSCL5 MSHR merge:          0
PSCL5 TOTAL     ACCESS:          0  HIT:          0  MISS:          0  HIT %:       -nan  MISS %:       -nan   MPKI: 0
PSCL5 PREFETCH  REQUESTED:          0  ISSUED:          0  USEFUL:          0  USELESS:          0
PSCL5 USEFUL LOAD PREFETCHES:          0 PREFETCH ISSUED TO LOWER LEVEL:          0  ACCURACY: -nan
PSCL5 TIMELY PREFETCHES:          0 LATE PREFETCHES: 0 DROPPED PREFETCHES: 0
PSCL5 COMMIT LATE PREFETCHES: 0 MISSED OPPORTUNITY: 0 LATE IN PQ: 0 UNCOVERED: 0
PSCL5 COMMIT LATE MSHR PREFETCHES: 0
PSCL5 MPKI TOTAL: 0 MSHR LATE: 0 PQ LATE: 0 COMMIT LATE: 0 MISSED OPPORTUNITY: 0 UNCOVERED: 0
PSCL5 PREFETCHES SAME FILL-ORIGIN LEVEL: 0 DIFFERENT FILL-ORIGIN LEVEL: 0

PSCL4 SPEC fills:          0  NON-SPEC fills:          0
PSCL4 Test counter :          0
PSCL4 Leapfrog:          0
PSCL4 MSHR merge:          0
PSCL4 TOTAL     ACCESS:          0  HIT:          0  MISS:          0  HIT %:       -nan  MISS %:       -nan   MPKI: 0
PSCL4 PREFETCH  REQUESTED:          0  ISSUED:          0  USEFUL:          0  USELESS:          0
PSCL4 USEFUL LOAD PREFETCHES:          0 PREFETCH ISSUED TO LOWER LEVEL:          0  ACCURACY: -nan
PSCL4 TIMELY PREFETCHES:          0 LATE PREFETCHES: 0 DROPPED PREFETCHES: 0
PSCL4 COMMIT LATE PREFETCHES: 0 MISSED OPPORTUNITY: 0 LATE IN PQ: 0 UNCOVERED: 0
PSCL4 COMMIT LATE MSHR PREFETCHES: 0
PSCL4 MPKI TOTAL: 0 MSHR LATE: 0 PQ LATE: 0 COMMIT LATE: 0 MISSED OPPORTUNITY: 0 UNCOVERED: 0
PSCL4 PREFETCHES SAME FILL-ORIGIN LEVEL: 0 DIFFERENT FILL-ORIGIN LEVEL: 0

PSCL3 SPEC fills:          0  NON-SPEC fills:          0
PSCL3 Test counter :          0
PSCL3 Leapfrog:          0
PSCL3 MSHR merge:          0
PSCL3 TOTAL     ACCESS:          0  HIT:          0  MISS:          0  HIT %:       -nan  MISS %:       -nan   MPKI: 0
PSCL3 PREFETCH  REQUESTED:          0  ISSUED:          0  USEFUL:          0  USELESS:          0
PSCL3 USEFUL LOAD PREFETCHES:          0 PREFETCH ISSUED TO LOWER LEVEL:          0  ACCURACY: -nan
PSCL3 TIMELY PREFETCHES:          0 LATE PREFETCHES: 0 DROPPED PREFETCHES: 0
PSCL3 COMMIT LATE PREFETCHES: 0 MISSED OPPORTUNITY: 0 LATE IN PQ: 0 UNCOVERED: 0
PSCL3 COMMIT LATE MSHR PREFETCHES: 0
PSCL3 MPKI TOTAL: 0 MSHR LATE: 0 PQ LATE: 0 COMMIT LATE: 0 MISSED OPPORTUNITY: 0 UNCOVERED: 0
PSCL3 PREFETCHES SAME FILL-ORIGIN LEVEL: 0 DIFFERENT FILL-ORIGIN LEVEL: 0

PSCL2 SPEC fills:          0  NON-SPEC fills:          0
PSCL2 Test counter :          0
PSCL2 Leapfrog:          0
PSCL2 MSHR merge:          0
PSCL2 TOTAL     ACCESS:          0  HIT:          0  MISS:          0  HIT %:       -nan  MISS %:       -nan   MPKI: 0
PSCL2 PREFETCH  REQUESTED:          0  ISSUED:          0  USEFUL:          0  USELESS:          0
PSCL2 USEFUL LOAD PREFETCHES:          0 PREFETCH ISSUED TO LOWER LEVEL:          0  ACCURACY: -nan
PSCL2 TIMELY PREFETCHES:          0 LATE PREFETCHES: 0 DROPPED PREFETCHES: 0
PSCL2 COMMIT LATE PREFETCHES: 0 MISSED OPPORTUNITY: 0 LATE IN PQ: 0 UNCOVERED: 0
PSCL2 COMMIT LATE MSHR PREFETCHES: 0
PSCL2 MPKI TOTAL: 0 MSHR LATE: 0 PQ LATE: 0 COMMIT LATE: 0 MISSED OPPORTUNITY: 0 UNCOVERED: 0
PSCL2 PREFETCHES SAME FILL-ORIGIN LEVEL: 0 DIFFERENT FILL-ORIGIN LEVEL: 0

LLC SPEC fills:          0  NON-SPEC fills:    1209741
LLC Test counter :    4023143
LLC Leapfrog:          0
LLC MSHR merge:          0
LLC TOTAL     ACCESS:   18776452  HIT:   10983713  MISS:    7792739  HIT %:    58.4973  MISS %:    41.5027   MPKI: 38.9637
LLC LOAD      TOTAL       ACCESS:   10495226  HIT:    6185311  MISS:    4309915  HIT %:    58.9345  MISS %:    41.0655   MPKI: 21.5496
LLC LOAD      NON_SPEC    ACCESS:    3090210  HIT:    1880469  MISS:    1209741  HIT %:    60.8525  MISS %:    39.1475   MPKI: 6.0487
LLC LOAD      SPEC        ACCESS:    7405016  HIT:    4304842  MISS:    3100174  HIT %:    58.1341  MISS %:    41.8659   MPKI: 15.5009
LLC WRITEBACK NON_SPEC    ACCESS:      45441  HIT:      45433  MISS:          8  HIT %:    99.9824  MISS %:  0.0176052   MPKI: 4e-05
LLC CLEAN_EVICTION NON_SPEC    ACCESS:    8140850  HIT:    4672521  MISS:    3468329  HIT %:     57.396  MISS %:     42.604   MPKI: 17.3416
LLC COMMIT LOAD NON_SPEC    ACCESS:      89918  HIT:      77348  MISS:      12570  HIT %:    86.0206  MISS %:    13.9794   MPKI: 0.06285
LLC LOAD TRANSLATION NON_SPEC    ACCESS:       5017  HIT:       3100  MISS:       1917  HIT %:    61.7899  MISS %:    38.2101   MPKI: 0.009585
LLC PREFETCH  REQUESTED:          0  ISSUED:          0  USEFUL:          0  USELESS:          0
LLC USEFUL LOAD PREFETCHES:          0 PREFETCH ISSUED TO LOWER LEVEL:          0  ACCURACY: -nan
LLC TIMELY PREFETCHES:          0 LATE PREFETCHES: 0 DROPPED PREFETCHES: 0
LLC COMMIT LATE PREFETCHES: 0 MISSED OPPORTUNITY: 0 LATE IN PQ: 0 UNCOVERED: 0
LLC COMMIT LATE MSHR PREFETCHES: 0
LLC MPKI TOTAL: 21.5496 MSHR LATE: 0 PQ LATE: 0 COMMIT LATE: 0 MISSED OPPORTUNITY: 0 UNCOVERED: 0
LLC PREFETCHES SAME FILL-ORIGIN LEVEL: 0 DIFFERENT FILL-ORIGIN LEVEL: 0
LLC AVERAGE MISS LATENCY: 86.8099 cycles
LLC AVERAGE MISS LATENCY LOAD: 156.525 cycles
LLC AVERAGE MISS LATENCY PREFETCH: -nan cycles
LLC AVERAGE MSHR OCCUPANCY: 0.54459
LLC MSHR FULL: 0
LLC RQ	ACCESS:   10590244	FORWARD:          0	MERGED:          0	TO_CACHE:   10590162
LLC WQ	ACCESS:    8186290	FORWARD:         82	MERGED:          0	TO_CACHE:    8186290

LLC Dense regions hint to LLC: 0

RAW hits: 26179
Loads Generated: 55732562
Loads sent to L1D: 55706383
Stores Generated: 247045
Stores sent to L1D: 247045
Major fault: 0 Minor fault: 19633
Allocated PAGES: 19633
Total Load insts: 68639296
Total Non-spec loads: 14151742
Percentage of speculative loads: 79.3824

LeapFrogging counter: 454008
Commit hits: 23800122 miss: 18103480
Commit hit %: 56.7973 miss %: 43.2027
Commits not translated: 0
Loads retired: 15286070
Stores retired: 247045
Cache fills: 15286071
L1D response latency: 72.7777 cycles
Load retirement latency: 139.228 cycles
OOO test counter: 0
Discarded buffer inserts: 23800122 hits: 15306 hit %: 0.0643106

DRAM Statistics
 CHANNEL 0
 RQ ROW_BUFFER_HIT:     327255  ROW_BUFFER_MISS:    3996759
 DBUS_CONGESTED:        861
 WQ ROW_BUFFER_HIT:    1332476  ROW_BUFFER_MISS:    2721397  FULL:          0

 AVG_CONGESTED_CYCLE: 6
 All warmup complete: 2
Channel 0 Bank busy for read cycles: 0
Channel 0 Bank busy for write cycles: 0
Channel 0
Rank 0
0banks busy for read cycles: 116169435
0banks busy for write cycles: 1028722
1banks busy for read cycles: 339033409
1banks busy for write cycles: 190733973
2banks busy for read cycles: 89571247
2banks busy for write cycles: 126084341
3banks busy for read cycles: 23896893
3banks busy for write cycles: 52812036
4banks busy for read cycles: 5242366
4banks busy for write cycles: 20797902
5banks busy for read cycles: 853622
5banks busy for write cycles: 10361653
6banks busy for read cycles: 116269
6banks busy for write cycles: 6763351
7banks busy for read cycles: 11777
7banks busy for write cycles: 5757559
8banks busy for read cycles: 86
8banks busy for write cycles: 5517367

CPU 0 Branch Prediction Accuracy: 90.5062% MPKI: 19.3845 Average ROB Occupancy at Mispredict: 25.5359
Branch types
NOT_BRANCH: 159163481 79.5817%
BRANCH_DIRECT_JUMP: 0 0%
BRANCH_INDIRECT: 0 0%
BRANCH_CONDITIONAL: 40836226 20.4181%
BRANCH_DIRECT_CALL: 0 0%
BRANCH_INDIRECT_CALL: 0 0%
BRANCH_RETURN: 0 0%
BRANCH_OTHER: 0 0%

DRAM PAGES: 1048576
Allocated PAGES: 19633
