
*** ChampSim Multicore Out-of-Order Simulator ***

Warmup Instructions: 50000000
Simulation Instructions: 200000000
Number of CPUs: 1
LLC sets: 2048
LLC ways: 16
L0D sets: 16
L0D ways: 2
ROB size: 352
LQ size: 128
SQ size: 72
Secure Berti: OFF
Berti: OFF
Berti Fill: OFF
On commit prefetching: OFF
Hit-based filter: OFF
Time-guarding: ON
Free-slotting: ON
Leap-frogging: ON
Train prefetcher on L0D bypass: OFF
No translation penalty for prefetchers: OFF
Prefetch to L0D only: OFF
Prefetch to L1D only: OFF
Clean evictions: ON
Commit loads: ON
Commit write: ON
Fill commit loads to L2C, LLC: ON
DRAM IO FREQUENCY: 6400
ROB SIZE: 352
Off-chip DRAM Size: 4096 MB Channels: 1 Width: 64-bit Data Rate: 6400 MT/s
CPU 0 runs /home/sumon/secure_berti/GhostMinion/../../traces/gap/cc-14.trace.gz
.gz
BTB has LRU replacement policy
ITLB has LRU replacement policy
DTLB has LRU replacement policy
STLB has LRU replacement policy
L1I has LRU replacement policy
L0D has LRU replacement policy
L1D has LRU replacement policy
L2C has LRU replacement policy
LLC has LRU replacement policy
Heartbeat CPU 0 instructions: 10000003 cycles: 3236811 heartbeat IPC: 3.08946 cumulative IPC: 3.08946 (Simulation time: 0 hr 0 min 26 sec) 
Heartbeat CPU 0 instructions: 20000001 cycles: 6481438 heartbeat IPC: 3.08202 cumulative IPC: 3.08574 (Simulation time: 0 hr 0 min 54 sec) 
Heartbeat CPU 0 instructions: 30000002 cycles: 9734121 heartbeat IPC: 3.07439 cumulative IPC: 3.08194 (Simulation time: 0 hr 1 min 23 sec) 
Heartbeat CPU 0 instructions: 40000001 cycles: 12982121 heartbeat IPC: 3.07882 cumulative IPC: 3.08116 (Simulation time: 0 hr 1 min 51 sec) 
Heartbeat CPU 0 instructions: 50000003 cycles: 16233639 heartbeat IPC: 3.07549 cumulative IPC: 3.08002 (Simulation time: 0 hr 2 min 20 sec) 

Warmup complete CPU 0 instructions: 50000003 cycles: 16233639 (Simulation time: 0 hr 2 min 20 sec) 

Heartbeat CPU 0 instructions: 60000003 cycles: 60956557 heartbeat IPC: 0.223599 cumulative IPC: 0.223599 (Simulation time: 0 hr 3 min 5 sec) 
Heartbeat CPU 0 instructions: 70000000 cycles: 105149798 heartbeat IPC: 0.226279 cumulative IPC: 0.224931 (Simulation time: 0 hr 3 min 52 sec) 
Heartbeat CPU 0 instructions: 80000001 cycles: 149973611 heartbeat IPC: 0.223096 cumulative IPC: 0.224316 (Simulation time: 0 hr 4 min 38 sec) 
Heartbeat CPU 0 instructions: 90000000 cycles: 193345865 heartbeat IPC: 0.230562 cumulative IPC: 0.225845 (Simulation time: 0 hr 5 min 24 sec) 
Heartbeat CPU 0 instructions: 100000001 cycles: 236681169 heartbeat IPC: 0.230759 cumulative IPC: 0.226811 (Simulation time: 0 hr 6 min 15 sec) 
Heartbeat CPU 0 instructions: 110000000 cycles: 280942129 heartbeat IPC: 0.225933 cumulative IPC: 0.226664 (Simulation time: 0 hr 7 min 13 sec) 
Heartbeat CPU 0 instructions: 120000000 cycles: 325669077 heartbeat IPC: 0.223579 cumulative IPC: 0.226218 (Simulation time: 0 hr 8 min 11 sec) 
Heartbeat CPU 0 instructions: 130000003 cycles: 370795563 heartbeat IPC: 0.221599 cumulative IPC: 0.225631 (Simulation time: 0 hr 9 min 11 sec) 
Heartbeat CPU 0 instructions: 140000001 cycles: 414577721 heartbeat IPC: 0.228403 cumulative IPC: 0.225935 (Simulation time: 0 hr 10 min 10 sec) 
Heartbeat CPU 0 instructions: 150000001 cycles: 457703330 heartbeat IPC: 0.231881 cumulative IPC: 0.226516 (Simulation time: 0 hr 11 min 8 sec) 
Heartbeat CPU 0 instructions: 160000003 cycles: 501323891 heartbeat IPC: 0.22925 cumulative IPC: 0.226762 (Simulation time: 0 hr 12 min 5 sec) 
Heartbeat CPU 0 instructions: 170000000 cycles: 546216677 heartbeat IPC: 0.222753 cumulative IPC: 0.226422 (Simulation time: 0 hr 13 min 2 sec) 
Heartbeat CPU 0 instructions: 180000001 cycles: 590128410 heartbeat IPC: 0.22773 cumulative IPC: 0.226522 (Simulation time: 0 hr 13 min 58 sec) 
Heartbeat CPU 0 instructions: 190000002 cycles: 633087978 heartbeat IPC: 0.232777 cumulative IPC: 0.226958 (Simulation time: 0 hr 14 min 54 sec) 
Heartbeat CPU 0 instructions: 200000001 cycles: 677229207 heartbeat IPC: 0.226546 cumulative IPC: 0.22693 (Simulation time: 0 hr 15 min 51 sec) 
Heartbeat CPU 0 instructions: 210000000 cycles: 721266285 heartbeat IPC: 0.227081 cumulative IPC: 0.22694 (Simulation time: 0 hr 16 min 45 sec) 
Heartbeat CPU 0 instructions: 220000000 cycles: 765000356 heartbeat IPC: 0.228655 cumulative IPC: 0.22704 (Simulation time: 0 hr 17 min 39 sec) 
Heartbeat CPU 0 instructions: 230000000 cycles: 810014783 heartbeat IPC: 0.222151 cumulative IPC: 0.226763 (Simulation time: 0 hr 18 min 30 sec) 
Heartbeat CPU 0 instructions: 240000003 cycles: 853582861 heartbeat IPC: 0.229526 cumulative IPC: 0.226907 (Simulation time: 0 hr 19 min 19 sec) 
Heartbeat CPU 0 instructions: 250000002 cycles: 897047778 heartbeat IPC: 0.230071 cumulative IPC: 0.227063 (Simulation time: 0 hr 20 min 7 sec) 
Finished CPU 0 instructions: 200000000 cycles: 880814140 cumulative IPC: 0.227063 (Simulation time: 0 hr 20 min 7 sec) 
 Instruction ID: 250000145

ChampSim completed all CPUs

Region of Interest Statistics

CPU 0 cumulative IPC: 0.227063 instructions: 200000000 cycles: 880814140
ITLB SPEC fills:          0  NON-SPEC fills:          0
ITLB Test counter :          0
ITLB Leapfrog:          0
ITLB MSHR merge:          0
ITLB TOTAL     ACCESS:   30708366  HIT:   30708366  MISS:          0  HIT %:        100  MISS %:          0   MPKI: 0
ITLB LOAD TRANSLATION NON_SPEC    ACCESS:   30708366  HIT:   30708366  MISS:          0  HIT %:        100  MISS %:          0   MPKI: 0
ITLB PREFETCH  REQUESTED:          0  ISSUED:          0  USEFUL:          0  USELESS:          0
ITLB USEFUL LOAD PREFETCHES:          0 PREFETCH ISSUED TO LOWER LEVEL:          0  ACCURACY: -nan
ITLB TIMELY PREFETCHES:          0 LATE PREFETCHES: 0 DROPPED PREFETCHES: 0
ITLB COMMIT LATE PREFETCHES: 0 MISSED OPPORTUNITY: 0 LATE IN PQ: 0 UNCOVERED: 0
ITLB COMMIT LATE MSHR PREFETCHES: 0
ITLB MPKI TOTAL: 0 MSHR LATE: 0 PQ LATE: 0 COMMIT LATE: 0 MISSED OPPORTUNITY: 0 UNCOVERED: 0
ITLB PREFETCHES SAME FILL-ORIGIN LEVEL: 0 DIFFERENT FILL-ORIGIN LEVEL: 0
ITLB AVERAGE MISS LATENCY: -nan cycles
ITLB AVERAGE MISS LATENCY LOAD: -nan cycles
ITLB AVERAGE MISS LATENCY PREFETCH: -nan cycles
ITLB AVERAGE MSHR OCCUPANCY: 0
ITLB MSHR FULL: 0
ITLB RQ	ACCESS:   31315758	FORWARD:          0	MERGED:     607393	TO_CACHE:   30708365

DTLB SPEC fills:          0  NON-SPEC fills:          0
DTLB Test counter :          0
DTLB Leapfrog:          0
DTLB MSHR merge:          0
DTLB TOTAL     ACCESS:   47032180  HIT:   37332460  MISS:    9699720  HIT %:    79.3764  MISS %:    20.6236   MPKI: 48.4986
DTLB LOAD TRANSLATION NON_SPEC    ACCESS:   47032180  HIT:   37332460  MISS:    9699720  HIT %:    79.3764  MISS %:    20.6236   MPKI: 48.4986
DTLB PREFETCH  REQUESTED:          0  ISSUED:          0  USEFUL:          0  USELESS:          0
DTLB USEFUL LOAD PREFETCHES:          0 PREFETCH ISSUED TO LOWER LEVEL:          0  ACCURACY: -nan
DTLB TIMELY PREFETCHES:          0 LATE PREFETCHES: 0 DROPPED PREFETCHES: 0
DTLB COMMIT LATE PREFETCHES: 0 MISSED OPPORTUNITY: 0 LATE IN PQ: 0 UNCOVERED: 0
DTLB COMMIT LATE MSHR PREFETCHES: 0
DTLB MPKI TOTAL: 0 MSHR LATE: 0 PQ LATE: 0 COMMIT LATE: 0 MISSED OPPORTUNITY: 0 UNCOVERED: 0
DTLB PREFETCHES SAME FILL-ORIGIN LEVEL: 0 DIFFERENT FILL-ORIGIN LEVEL: 0
DTLB AVERAGE MISS LATENCY: 9.66109 cycles
DTLB AVERAGE MISS LATENCY LOAD: -nan cycles
DTLB AVERAGE MISS LATENCY PREFETCH: -nan cycles
DTLB AVERAGE MSHR OCCUPANCY: 0.397809
DTLB MSHR FULL: 0.00707043
DTLB RQ	ACCESS:   49572543	FORWARD:          0	MERGED:    2324580	TO_CACHE:   47247963

STLB SPEC fills:          0  NON-SPEC fills:          0
STLB Test counter :          0
STLB Leapfrog:          0
STLB MSHR merge:          0
STLB TOTAL     ACCESS:    9699720  HIT:    9685076  MISS:      14644  HIT %:     99.849  MISS %:   0.150973   MPKI: 0.07322
STLB LOAD TRANSLATION NON_SPEC    ACCESS:    9699720  HIT:    9685076  MISS:      14644  HIT %:     99.849  MISS %:   0.150973   MPKI: 0.07322
STLB PREFETCH  REQUESTED:          0  ISSUED:          0  USEFUL:          0  USELESS:          0
STLB USEFUL LOAD PREFETCHES:          0 PREFETCH ISSUED TO LOWER LEVEL:          0  ACCURACY: -nan
STLB TIMELY PREFETCHES:          0 LATE PREFETCHES: 0 DROPPED PREFETCHES: 0
STLB COMMIT LATE PREFETCHES: 0 MISSED OPPORTUNITY: 0 LATE IN PQ: 0 UNCOVERED: 0
STLB COMMIT LATE MSHR PREFETCHES: 0
STLB MPKI TOTAL: 0 MSHR LATE: 0 PQ LATE: 0 COMMIT LATE: 0 MISSED OPPORTUNITY: 0 UNCOVERED: 0
STLB PREFETCHES SAME FILL-ORIGIN LEVEL: 0 DIFFERENT FILL-ORIGIN LEVEL: 0
STLB AVERAGE MISS LATENCY: 186.461 cycles
STLB AVERAGE MISS LATENCY LOAD: -nan cycles
STLB AVERAGE MISS LATENCY PREFETCH: -nan cycles
STLB AVERAGE MSHR OCCUPANCY: 0.00122416
STLB MSHR FULL: 0
STLB RQ	ACCESS:    9699721	FORWARD:          0	MERGED:          0	TO_CACHE:    9699721

STLB Hit, L1D data hit: 0
STLB Hit, L2C data hit: 0
STLB Hit, LLC data hit: 0
STLB Hit, LLC data miss: 0
STLB STLB hints to L2: 0
L0D SPEC fills:   24213109  NON-SPEC fills:          0
L0D TimeGuard Request with older TS:     521471 Restricted eviction:     213957 read:     548452
L0D Test counter :          0
L0D Leapfrog:          0
L0D MSHR merge:    2977420
L0D TOTAL     ACCESS:   46347616  HIT:   10991432  MISS:   35356184  HIT %:    23.7152  MISS %:    76.2848   MPKI: 176.781
L0D LOAD      TOTAL       ACCESS:   46347616  HIT:   10991432  MISS:   35356184  HIT %:    23.7152  MISS %:    76.2848   MPKI: 176.781
L0D LOAD      NON_SPEC    ACCESS:   11853900  HIT:     924782  MISS:   10929118  HIT %:     7.8015  MISS %:    92.1985   MPKI: 54.6456
L0D LOAD      SPEC        ACCESS:   34493716  HIT:   10066650  MISS:   24427066  HIT %:     29.184  MISS %:     70.816   MPKI: 122.135
L0D PREFETCH  REQUESTED:          0  ISSUED:          0  USEFUL:          0  USELESS:          0
L0D USEFUL LOAD PREFETCHES:          0 PREFETCH ISSUED TO LOWER LEVEL:          0  ACCURACY: -nan
L0D TIMELY PREFETCHES:          0 LATE PREFETCHES: 0 DROPPED PREFETCHES: 0
L0D COMMIT LATE PREFETCHES: 0 MISSED OPPORTUNITY: 0 LATE IN PQ: 0 UNCOVERED: 0
L0D COMMIT LATE MSHR PREFETCHES: 0
L0D MPKI TOTAL: 191.668 MSHR LATE: 0 PQ LATE: 0 COMMIT LATE: 0 MISSED OPPORTUNITY: 0 UNCOVERED: 0
L0D PREFETCHES SAME FILL-ORIGIN LEVEL: 0 DIFFERENT FILL-ORIGIN LEVEL: 0
L0D AVERAGE MISS LATENCY: 35.6646 cycles
L0D AVERAGE MISS LATENCY LOAD: 35.6646 cycles
L0D AVERAGE MISS LATENCY PREFETCH: -nan cycles
L0D AVERAGE MSHR OCCUPANCY: 1.97748
L0D MSHR FULL: 0.0465575
L0D RQ	ACCESS:   55035496	FORWARD:          0	MERGED:    5710459	TO_CACHE:   49325037
L0D WQ	ACCESS:     247506	FORWARD:          0	MERGED:          0	TO_CACHE:     247506

L1D SPEC fills:          0  NON-SPEC fills:    3864286
L1D Test counter :   11143843
L1D Leapfrog:          0
L1D MSHR merge:       3388
L1D TOTAL     ACCESS:   71471336  HIT:   45545767  MISS:   25925569  HIT %:    63.7259  MISS %:    36.2741   MPKI: 129.628
L1D LOAD      TOTAL       ACCESS:   35352796  HIT:   20445363  MISS:   14907433  HIT %:    57.8324  MISS %:    42.1676   MPKI: 74.5372
L1D LOAD      NON_SPEC    ACCESS:   10927404  HIT:    7063118  MISS:    3864286  HIT %:    64.6367  MISS %:    35.3633   MPKI: 19.3214
L1D LOAD      SPEC        ACCESS:   24425392  HIT:   13382245  MISS:   11043147  HIT %:    54.7883  MISS %:    45.2117   MPKI: 55.2157
L1D RFO       NON_SPEC    ACCESS:     246337  HIT:     246337  MISS:          0  HIT %:        100  MISS %:          0   MPKI: 0
L1D COMMIT LOAD NON_SPEC    ACCESS:   12290615  HIT:   12089838  MISS:     200777  HIT %:    98.3664  MISS %:    1.63358   MPKI: 1.00388
L1D COMMIT WRITE NON_SPEC    ACCESS:   23581588  HIT:   12764229  MISS:   10817359  HIT %:    54.1279  MISS %:    45.8721   MPKI: 54.0868
L1D PREFETCH  REQUESTED:          0  ISSUED:          0  USEFUL:          0  USELESS:          0
L1D USEFUL LOAD PREFETCHES:          0 PREFETCH ISSUED TO LOWER LEVEL:          0  ACCURACY: -nan
L1D TIMELY PREFETCHES:          0 LATE PREFETCHES: 0 DROPPED PREFETCHES: 0
L1D COMMIT LATE PREFETCHES: 0 MISSED OPPORTUNITY: 0 LATE IN PQ: 0 UNCOVERED: 0
L1D COMMIT LATE MSHR PREFETCHES: 0
L1D MPKI TOTAL: 74.5541 MSHR LATE: 0 PQ LATE: 0 COMMIT LATE: 0 MISSED OPPORTUNITY: 0 UNCOVERED: 0
L1D PREFETCHES SAME FILL-ORIGIN LEVEL: 0 DIFFERENT FILL-ORIGIN LEVEL: 0
L1D AVERAGE MISS LATENCY: 41.9854 cycles
L1D AVERAGE MISS LATENCY LOAD: 72.4555 cycles
L1D AVERAGE MISS LATENCY PREFETCH: -nan cycles
L1D AVERAGE MSHR OCCUPANCY: 1.18452
L1D MSHR FULL: 0
L1D RQ	ACCESS:   54583030	FORWARD:          0	MERGED:    5105978	TO_CACHE:   47663187
L1D WQ	ACCESS:   24049200	FORWARD:    1813865	MERGED:     220406	TO_CACHE:   23828794

L1D UNIQUE REGIONS ACCESSED: 0
L1D REGIONS CONFLICTS: 0
L1D Cross Page Prefetch Requests: 0
L1D Same Page Prefetch Requests: 0
L1D ROI Sum of L1D PQ occupancy: 0
L1D PREFETCHES PUSHED FROM L2C: 0
L1I SPEC fills:          0  NON-SPEC fills:          0
L1I Test counter :          0
L1I Leapfrog:          0
L1I MSHR merge:          0
L1I TOTAL     ACCESS:   31315759  HIT:   31315759  MISS:          0  HIT %:        100  MISS %:          0   MPKI: 0
L1I LOAD      TOTAL       ACCESS:   31315759  HIT:   31315759  MISS:          0  HIT %:        100  MISS %:          0   MPKI: 0
L1I LOAD      NON_SPEC    ACCESS:   31315759  HIT:   31315759  MISS:          0  HIT %:        100  MISS %:          0   MPKI: 0
L1I PREFETCH  REQUESTED:          0  ISSUED:          0  USEFUL:          0  USELESS:          0
L1I USEFUL LOAD PREFETCHES:          0 PREFETCH ISSUED TO LOWER LEVEL:          0  ACCURACY: -nan
L1I TIMELY PREFETCHES:          0 LATE PREFETCHES: 0 DROPPED PREFETCHES: 0
L1I COMMIT LATE PREFETCHES: 0 MISSED OPPORTUNITY: 0 LATE IN PQ: 0 UNCOVERED: 0
L1I COMMIT LATE MSHR PREFETCHES: 0
L1I MPKI TOTAL: 0 MSHR LATE: 0 PQ LATE: 0 COMMIT LATE: 0 MISSED OPPORTUNITY: 0 UNCOVERED: 0
L1I PREFETCHES SAME FILL-ORIGIN LEVEL: 0 DIFFERENT FILL-ORIGIN LEVEL: 0
L1I AVERAGE MISS LATENCY: -nan cycles
L1I AVERAGE MISS LATENCY LOAD: -nan cycles
L1I AVERAGE MISS LATENCY PREFETCH: -nan cycles
L1I AVERAGE MSHR OCCUPANCY: 0
L1I MSHR FULL: 0
L1I RQ	ACCESS:   56036712	FORWARD:          0	MERGED:   24720954	TO_CACHE:   31315758

BTB SPEC fills:          0  NON-SPEC fills:          0
BTB Test counter :          0
BTB Leapfrog:          0
BTB MSHR merge:          0
BTB TOTAL     ACCESS:   40353859  HIT:   40353854  MISS:          5  HIT %:        100  MISS %: 1.23904e-05   MPKI: 2.5e-05
BTB BRANCH_DIRECT_JUMP	ACCESS:          0  HIT:          0  MISS:          0
BTB BRANCH_INDIRECT	ACCESS:          0  HIT:          0  MISS:          0
BTB BRANCH_CONDITIONAL	ACCESS:   40353859  HIT:   40353854  MISS:          5
BTB BRANCH_DIRECT_CALL	ACCESS:          0  HIT:          0  MISS:          0
BTB BRANCH_INDIRECT_CALL	ACCESS:          0  HIT:          0  MISS:          0
BTB BRANCH_RETURN	ACCESS:          0  HIT:          0  MISS:          0
BTB BRANCH_OTHER ACCESS:          0  HIT:          0  MISS:          0

L2C SPEC fills:          0  NON-SPEC fills:    2560573
L2C Test counter :    8311959
L2C Leapfrog:          0
L2C MSHR merge:          0
L2C TOTAL     ACCESS:   26367222  HIT:    8248590  MISS:   18118632  HIT %:    31.2835  MISS %:    68.7165   MPKI: 90.5932
L2C LOAD      TOTAL       ACCESS:   14907270  HIT:    4642386  MISS:   10264884  HIT %:    31.1418  MISS %:    68.8582   MPKI: 51.3244
L2C LOAD      NON_SPEC    ACCESS:    3864257  HIT:    1303684  MISS:    2560573  HIT %:     33.737  MISS %:     66.263   MPKI: 12.8029
L2C LOAD      SPEC        ACCESS:   11043013  HIT:    3338702  MISS:    7704311  HIT %:    30.2336  MISS %:    69.7664   MPKI: 38.5216
L2C WRITEBACK NON_SPEC    ACCESS:      42257  HIT:      42257  MISS:          0  HIT %:        100  MISS %:          0   MPKI: 0
L2C CLEAN_EVICTION NON_SPEC    ACCESS:   11143842  HIT:    3408092  MISS:    7735750  HIT %:    30.5827  MISS %:    69.4173   MPKI: 38.6788
L2C COMMIT LOAD NON_SPEC    ACCESS:     200662  HIT:      87023  MISS:     113639  HIT %:     43.368  MISS %:     56.632   MPKI: 0.568195
L2C LOAD TRANSLATION NON_SPEC    ACCESS:      73191  HIT:      68832  MISS:       4359  HIT %:    94.0443  MISS %:    5.95565   MPKI: 0.021795
L2C PREFETCH  REQUESTED:          0  ISSUED:          0  USEFUL:          0  USELESS:          0
L2C USEFUL LOAD PREFETCHES:          0 PREFETCH ISSUED TO LOWER LEVEL:          0  ACCURACY: -nan
L2C TIMELY PREFETCHES:          0 LATE PREFETCHES: 0 DROPPED PREFETCHES: 0
L2C COMMIT LATE PREFETCHES: 0 MISSED OPPORTUNITY: 0 LATE IN PQ: 0 UNCOVERED: 0
L2C COMMIT LATE MSHR PREFETCHES: 0
L2C MPKI TOTAL: 51.3244 MSHR LATE: 0 PQ LATE: 0 COMMIT LATE: 0 MISSED OPPORTUNITY: 0 UNCOVERED: 0
L2C PREFETCHES SAME FILL-ORIGIN LEVEL: 0 DIFFERENT FILL-ORIGIN LEVEL: 0
L2C AVERAGE MISS LATENCY: 49.8578 cycles
L2C AVERAGE MISS LATENCY LOAD: 87.4384 cycles
L2C AVERAGE MISS LATENCY PREFETCH: -nan cycles
L2C AVERAGE MSHR OCCUPANCY: 1.31635
L2C MSHR FULL: 0
L2C RQ	ACCESS:   15181404	FORWARD:          0	MERGED:          0	TO_CACHE:   15181126
L2C WQ	ACCESS:   11186100	FORWARD:        278	MERGED:          0	TO_CACHE:   11186100

L2C Instructions Evicting Data 0
L2C Translations Evicting Data 4356
L2C Data Evicting Data 2673094
L2C Instructions Evicting Instructions 0
L2C Translations Evicting Instructions 0
L2C Data Evicting Instructions 0
L2C Instructions Evicting Translations 0
L2C Translations Evicting Translations 3
L2C Data Evicting Translations 1118
L2C Dense regions hint from L2: 0
PSCL5 SPEC fills:          0  NON-SPEC fills:          0
PSCL5 Test counter :          0
PSCL5 Leapfrog:          0
PSCL5 MSHR merge:          0
PSCL5 TOTAL     ACCESS:          0  HIT:          0  MISS:          0  HIT %:       -nan  MISS %:       -nan   MPKI: 0
PSCL5 PREFETCH  REQUESTED:          0  ISSUED:          0  USEFUL:          0  USELESS:          0
PSCL5 USEFUL LOAD PREFETCHES:          0 PREFETCH ISSUED TO LOWER LEVEL:          0  ACCURACY: -nan
PSCL5 TIMELY PREFETCHES:          0 LATE PREFETCHES: 0 DROPPED PREFETCHES: 0
PSCL5 COMMIT LATE PREFETCHES: 0 MISSED OPPORTUNITY: 0 LATE IN PQ: 0 UNCOVERED: 0
PSCL5 COMMIT LATE MSHR PREFETCHES: 0
PSCL5 MPKI TOTAL: 0 MSHR LATE: 0 PQ LATE: 0 COMMIT LATE: 0 MISSED OPPORTUNITY: 0 UNCOVERED: 0
PSCL5 PREFETCHES SAME FILL-ORIGIN LEVEL: 0 DIFFERENT FILL-ORIGIN LEVEL: 0

PSCL4 SPEC fills:          0  NON-SPEC fills:          0
PSCL4 Test counter :          0
PSCL4 Leapfrog:          0
PSCL4 MSHR merge:          0
PSCL4 TOTAL     ACCESS:          0  HIT:          0  MISS:          0  HIT %:       -nan  MISS %:       -nan   MPKI: 0
PSCL4 PREFETCH  REQUESTED:          0  ISSUED:          0  USEFUL:          0  USELESS:          0
PSCL4 USEFUL LOAD PREFETCHES:          0 PREFETCH ISSUED TO LOWER LEVEL:          0  ACCURACY: -nan
PSCL4 TIMELY PREFETCHES:          0 LATE PREFETCHES: 0 DROPPED PREFETCHES: 0
PSCL4 COMMIT LATE PREFETCHES: 0 MISSED OPPORTUNITY: 0 LATE IN PQ: 0 UNCOVERED: 0
PSCL4 COMMIT LATE MSHR PREFETCHES: 0
PSCL4 MPKI TOTAL: 0 MSHR LATE: 0 PQ LATE: 0 COMMIT LATE: 0 MISSED OPPORTUNITY: 0 UNCOVERED: 0
PSCL4 PREFETCHES SAME FILL-ORIGIN LEVEL: 0 DIFFERENT FILL-ORIGIN LEVEL: 0

PSCL3 SPEC fills:          0  NON-SPEC fills:          0
PSCL3 Test counter :          0
PSCL3 Leapfrog:          0
PSCL3 MSHR merge:          0
PSCL3 TOTAL     ACCESS:          0  HIT:          0  MISS:          0  HIT %:       -nan  MISS %:       -nan   MPKI: 0
PSCL3 PREFETCH  REQUESTED:          0  ISSUED:          0  USEFUL:          0  USELESS:          0
PSCL3 USEFUL LOAD PREFETCHES:          0 PREFETCH ISSUED TO LOWER LEVEL:          0  ACCURACY: -nan
PSCL3 TIMELY PREFETCHES:          0 LATE PREFETCHES: 0 DROPPED PREFETCHES: 0
PSCL3 COMMIT LATE PREFETCHES: 0 MISSED OPPORTUNITY: 0 LATE IN PQ: 0 UNCOVERED: 0
PSCL3 COMMIT LATE MSHR PREFETCHES: 0
PSCL3 MPKI TOTAL: 0 MSHR LATE: 0 PQ LATE: 0 COMMIT LATE: 0 MISSED OPPORTUNITY: 0 UNCOVERED: 0
PSCL3 PREFETCHES SAME FILL-ORIGIN LEVEL: 0 DIFFERENT FILL-ORIGIN LEVEL: 0

PSCL2 SPEC fills:          0  NON-SPEC fills:          0
PSCL2 Test counter :          0
PSCL2 Leapfrog:          0
PSCL2 MSHR merge:          0
PSCL2 TOTAL     ACCESS:          0  HIT:          0  MISS:          0  HIT %:       -nan  MISS %:       -nan   MPKI: 0
PSCL2 PREFETCH  REQUESTED:          0  ISSUED:          0  USEFUL:          0  USELESS:          0
PSCL2 USEFUL LOAD PREFETCHES:          0 PREFETCH ISSUED TO LOWER LEVEL:          0  ACCURACY: -nan
PSCL2 TIMELY PREFETCHES:          0 LATE PREFETCHES: 0 DROPPED PREFETCHES: 0
PSCL2 COMMIT LATE PREFETCHES: 0 MISSED OPPORTUNITY: 0 LATE IN PQ: 0 UNCOVERED: 0
PSCL2 COMMIT LATE MSHR PREFETCHES: 0
PSCL2 MPKI TOTAL: 0 MSHR LATE: 0 PQ LATE: 0 COMMIT LATE: 0 MISSED OPPORTUNITY: 0 UNCOVERED: 0
PSCL2 PREFETCHES SAME FILL-ORIGIN LEVEL: 0 DIFFERENT FILL-ORIGIN LEVEL: 0

LLC SPEC fills:          0  NON-SPEC fills:     990631
LLC Test counter :    4028952
LLC Leapfrog:          0
LLC MSHR merge:          0
LLC TOTAL     ACCESS:   18733609  HIT:   10953748  MISS:    7779861  HIT %:    58.4711  MISS %:    41.5289   MPKI: 38.8993
LLC LOAD      TOTAL       ACCESS:   10264801  HIT:    6072000  MISS:    4192801  HIT %:    59.1536  MISS %:    40.8464   MPKI: 20.964
LLC LOAD      NON_SPEC    ACCESS:    2560563  HIT:    1569932  MISS:     990631  HIT %:     61.312  MISS %:     38.688   MPKI: 4.95315
LLC LOAD      SPEC        ACCESS:    7704238  HIT:    4502068  MISS:    3202170  HIT %:    58.4363  MISS %:    41.5637   MPKI: 16.0109
LLC WRITEBACK NON_SPEC    ACCESS:      38886  HIT:      38878  MISS:          8  HIT %:    99.9794  MISS %:   0.020573   MPKI: 4e-05
LLC CLEAN_EVICTION NON_SPEC    ACCESS:    8311958  HIT:    4741813  MISS:    3570145  HIT %:    57.0481  MISS %:    42.9519   MPKI: 17.8507
LLC COMMIT LOAD NON_SPEC    ACCESS:     113605  HIT:      98562  MISS:      15043  HIT %:    86.7585  MISS %:    13.2415   MPKI: 0.075215
LLC LOAD TRANSLATION NON_SPEC    ACCESS:       4359  HIT:       2495  MISS:       1864  HIT %:    57.2379  MISS %:    42.7621   MPKI: 0.00932
LLC PREFETCH  REQUESTED:          0  ISSUED:          0  USEFUL:          0  USELESS:          0
LLC USEFUL LOAD PREFETCHES:          0 PREFETCH ISSUED TO LOWER LEVEL:          0  ACCURACY: -nan
LLC TIMELY PREFETCHES:          0 LATE PREFETCHES: 0 DROPPED PREFETCHES: 0
LLC COMMIT LATE PREFETCHES: 0 MISSED OPPORTUNITY: 0 LATE IN PQ: 0 UNCOVERED: 0
LLC COMMIT LATE MSHR PREFETCHES: 0
LLC MPKI TOTAL: 20.964 MSHR LATE: 0 PQ LATE: 0 COMMIT LATE: 0 MISSED OPPORTUNITY: 0 UNCOVERED: 0
LLC PREFETCHES SAME FILL-ORIGIN LEVEL: 0 DIFFERENT FILL-ORIGIN LEVEL: 0
LLC AVERAGE MISS LATENCY: 84.9678 cycles
LLC AVERAGE MISS LATENCY LOAD: 157.12 cycles
LLC AVERAGE MISS LATENCY PREFETCH: -nan cycles
LLC AVERAGE MSHR OCCUPANCY: 0.632845
LLC MSHR FULL: 0
LLC RQ	ACCESS:   10382883	FORWARD:          0	MERGED:          0	TO_CACHE:   10382766
LLC WQ	ACCESS:    8350845	FORWARD:        117	MERGED:          0	TO_CACHE:    8350845

LLC Dense regions hint to LLC: 0

RAW hits: 26534
Loads Generated: 55062032
Loads sent to L1D: 55035496
Stores Generated: 247506
Stores sent to L1D: 247506
Major fault: 0 Minor fault: 19168
Allocated PAGES: 19168
Total Load insts: 67812900
Total Non-spec loads: 12355571
Percentage of speculative loads: 81.7799

LeapFrogging counter: 618355
Commit hits: 23801694 miss: 19226844
Commit hit %: 55.3161 miss %: 44.6839
Commits not translated: 0
Loads retired: 14907431
Stores retired: 247506
Cache fills: 14907433
L1D response latency: 72.4555 cycles
Load retirement latency: 145.365 cycles
OOO test counter: 0
Discarded buffer inserts: 23801694 hits: 19441 hit %: 0.0816791

DRAM Statistics
 CHANNEL 0
 RQ ROW_BUFFER_HIT:     310074  ROW_BUFFER_MISS:    3899129
 DBUS_CONGESTED:        879
 WQ ROW_BUFFER_HIT:    1435992  ROW_BUFFER_MISS:    2619022  FULL:          0

 AVG_CONGESTED_CYCLE: 5
 All warmup complete: 2
Channel 0 Bank busy for read cycles: 0
Channel 0 Bank busy for write cycles: 0
Channel 0
Rank 0
0banks busy for read cycles: 78026604
0banks busy for write cycles: 759060
1banks busy for read cycles: 300320725
1banks busy for write cycles: 140498915
2banks busy for read cycles: 92660928
2banks busy for write cycles: 106171967
3banks busy for read cycles: 27948221
3banks busy for write cycles: 54856776
4banks busy for read cycles: 6397423
4banks busy for write cycles: 28190801
5banks busy for read cycles: 955300
5banks busy for write cycles: 16737343
6banks busy for read cycles: 82556
6banks busy for write cycles: 11158282
7banks busy for read cycles: 4429
7banks busy for write cycles: 8713449
8banks busy for read cycles: 0
8banks busy for write cycles: 7331362

CPU 0 Branch Prediction Accuracy: 92.3859% MPKI: 15.4313 Average ROB Occupancy at Mispredict: 34.444
Branch types
NOT_BRANCH: 159466168 79.7331%
BRANCH_DIRECT_JUMP: 0 0%
BRANCH_INDIRECT: 0 0%
BRANCH_CONDITIONAL: 40533593 20.2668%
BRANCH_DIRECT_CALL: 0 0%
BRANCH_INDIRECT_CALL: 0 0%
BRANCH_RETURN: 0 0%
BRANCH_OTHER: 0 0%

DRAM PAGES: 1048576
Allocated PAGES: 19168
