
*** ChampSim Multicore Out-of-Order Simulator ***

Warmup Instructions: 50000000
Simulation Instructions: 200000000
Number of CPUs: 1
LLC sets: 2048
LLC ways: 16
L0D sets: 16
L0D ways: 2
ROB size: 352
LQ size: 128
SQ size: 72
Secure Berti: OFF
Berti: OFF
Berti Fill: OFF
On commit prefetching: OFF
Hit-based filter: OFF
Time-guarding: ON
Free-slotting: ON
Leap-frogging: ON
Train prefetcher on L0D bypass: OFF
No translation penalty for prefetchers: OFF
Prefetch to L0D only: OFF
Prefetch to L1D only: OFF
Clean evictions: ON
Commit loads: ON
Commit write: ON
Fill commit loads to L2C, LLC: ON
DRAM IO FREQUENCY: 6400
ROB SIZE: 352
Off-chip DRAM Size: 4096 MB Channels: 1 Width: 64-bit Data Rate: 6400 MT/s
CPU 0 runs /home/sumon/secure_berti/GhostMinion/../../traces/gap/sssp-5.trace.gz
.gz
BTB has LRU replacement policy
ITLB has LRU replacement policy
DTLB has LRU replacement policy
STLB has LRU replacement policy
L1I has LRU replacement policy
L0D has LRU replacement policy
L1D has LRU replacement policy
L2C has LRU replacement policy
LLC has LRU replacement policy
Heartbeat CPU 0 instructions: 10000001 cycles: 3970897 heartbeat IPC: 2.51832 cumulative IPC: 2.51832 (Simulation time: 0 hr 0 min 27 sec) 
Heartbeat CPU 0 instructions: 20000000 cycles: 7826630 heartbeat IPC: 2.59354 cumulative IPC: 2.55538 (Simulation time: 0 hr 0 min 56 sec) 
Heartbeat CPU 0 instructions: 30000003 cycles: 11643259 heartbeat IPC: 2.62011 cumulative IPC: 2.5766 (Simulation time: 0 hr 1 min 25 sec) 
Heartbeat CPU 0 instructions: 40000000 cycles: 15435380 heartbeat IPC: 2.63705 cumulative IPC: 2.59145 (Simulation time: 0 hr 1 min 55 sec) 
Heartbeat CPU 0 instructions: 50000003 cycles: 19212745 heartbeat IPC: 2.64735 cumulative IPC: 2.60244 (Simulation time: 0 hr 2 min 25 sec) 

Warmup complete CPU 0 instructions: 50000003 cycles: 19212745 (Simulation time: 0 hr 2 min 25 sec) 

Heartbeat CPU 0 instructions: 60000002 cycles: 52347398 heartbeat IPC: 0.301799 cumulative IPC: 0.301799 (Simulation time: 0 hr 3 min 8 sec) 
Heartbeat CPU 0 instructions: 70000001 cycles: 84931395 heartbeat IPC: 0.306899 cumulative IPC: 0.304328 (Simulation time: 0 hr 3 min 51 sec) 
Heartbeat CPU 0 instructions: 80000000 cycles: 117845482 heartbeat IPC: 0.303821 cumulative IPC: 0.304159 (Simulation time: 0 hr 4 min 35 sec) 
Heartbeat CPU 0 instructions: 90000001 cycles: 149259059 heartbeat IPC: 0.318334 cumulative IPC: 0.307583 (Simulation time: 0 hr 5 min 20 sec) 
Heartbeat CPU 0 instructions: 100000000 cycles: 180177488 heartbeat IPC: 0.323432 cumulative IPC: 0.310627 (Simulation time: 0 hr 6 min 5 sec) 
Heartbeat CPU 0 instructions: 110000000 cycles: 210555410 heartbeat IPC: 0.329186 cumulative IPC: 0.313574 (Simulation time: 0 hr 7 min 0 sec) 
Heartbeat CPU 0 instructions: 120000000 cycles: 240318496 heartbeat IPC: 0.335987 cumulative IPC: 0.316591 (Simulation time: 0 hr 7 min 54 sec) 
Heartbeat CPU 0 instructions: 130000000 cycles: 270490041 heartbeat IPC: 0.331438 cumulative IPC: 0.318373 (Simulation time: 0 hr 8 min 52 sec) 
Heartbeat CPU 0 instructions: 140000000 cycles: 300184212 heartbeat IPC: 0.336766 cumulative IPC: 0.320317 (Simulation time: 0 hr 9 min 49 sec) 
Heartbeat CPU 0 instructions: 150000000 cycles: 329432042 heartbeat IPC: 0.341906 cumulative IPC: 0.322353 (Simulation time: 0 hr 10 min 44 sec) 
Heartbeat CPU 0 instructions: 160000000 cycles: 358513774 heartbeat IPC: 0.343858 cumulative IPC: 0.324196 (Simulation time: 0 hr 11 min 39 sec) 
Heartbeat CPU 0 instructions: 170000002 cycles: 387551055 heartbeat IPC: 0.344385 cumulative IPC: 0.325787 (Simulation time: 0 hr 12 min 34 sec) 
Heartbeat CPU 0 instructions: 180000000 cycles: 416584845 heartbeat IPC: 0.344426 cumulative IPC: 0.327149 (Simulation time: 0 hr 13 min 29 sec) 
Heartbeat CPU 0 instructions: 190000001 cycles: 445590215 heartbeat IPC: 0.344764 cumulative IPC: 0.328348 (Simulation time: 0 hr 14 min 22 sec) 
Heartbeat CPU 0 instructions: 200000001 cycles: 474426571 heartbeat IPC: 0.346784 cumulative IPC: 0.329515 (Simulation time: 0 hr 15 min 19 sec) 
Heartbeat CPU 0 instructions: 210000000 cycles: 502900329 heartbeat IPC: 0.351201 cumulative IPC: 0.330792 (Simulation time: 0 hr 16 min 14 sec) 
Heartbeat CPU 0 instructions: 220000000 cycles: 531656191 heartbeat IPC: 0.347755 cumulative IPC: 0.331744 (Simulation time: 0 hr 17 min 9 sec) 
Heartbeat CPU 0 instructions: 230000002 cycles: 560016402 heartbeat IPC: 0.352607 cumulative IPC: 0.332838 (Simulation time: 0 hr 18 min 2 sec) 
Heartbeat CPU 0 instructions: 240000002 cycles: 588307630 heartbeat IPC: 0.353466 cumulative IPC: 0.333863 (Simulation time: 0 hr 18 min 52 sec) 
Heartbeat CPU 0 instructions: 250000000 cycles: 616453958 heartbeat IPC: 0.355286 cumulative IPC: 0.334873 (Simulation time: 0 hr 19 min 42 sec) 
Finished CPU 0 instructions: 200000001 cycles: 597241214 cumulative IPC: 0.334873 (Simulation time: 0 hr 19 min 42 sec) 
 Instruction ID: 250000379

ChampSim completed all CPUs

Region of Interest Statistics

CPU 0 cumulative IPC: 0.334873 instructions: 200000001 cycles: 597241214
ITLB SPEC fills:          0  NON-SPEC fills:          0
ITLB Test counter :          0
ITLB Leapfrog:          0
ITLB MSHR merge:          0
ITLB TOTAL     ACCESS:   24701449  HIT:   24701449  MISS:          0  HIT %:        100  MISS %:          0   MPKI: 0
ITLB LOAD TRANSLATION NON_SPEC    ACCESS:   24701449  HIT:   24701449  MISS:          0  HIT %:        100  MISS %:          0   MPKI: 0
ITLB PREFETCH  REQUESTED:          0  ISSUED:          0  USEFUL:          0  USELESS:          0
ITLB USEFUL LOAD PREFETCHES:          0 PREFETCH ISSUED TO LOWER LEVEL:          0  ACCURACY: -nan
ITLB TIMELY PREFETCHES:          0 LATE PREFETCHES: 0 DROPPED PREFETCHES: 0
ITLB COMMIT LATE PREFETCHES: 0 MISSED OPPORTUNITY: 0 LATE IN PQ: 0 UNCOVERED: 0
ITLB COMMIT LATE MSHR PREFETCHES: 0
ITLB MPKI TOTAL: 0 MSHR LATE: 0 PQ LATE: 0 COMMIT LATE: 0 MISSED OPPORTUNITY: 0 UNCOVERED: 0
ITLB PREFETCHES SAME FILL-ORIGIN LEVEL: 0 DIFFERENT FILL-ORIGIN LEVEL: 0
ITLB AVERAGE MISS LATENCY: -nan cycles
ITLB AVERAGE MISS LATENCY LOAD: -nan cycles
ITLB AVERAGE MISS LATENCY PREFETCH: -nan cycles
ITLB AVERAGE MSHR OCCUPANCY: 0
ITLB MSHR FULL: 0
ITLB RQ	ACCESS:   25374102	FORWARD:          0	MERGED:     672653	TO_CACHE:   24701449

DTLB SPEC fills:          0  NON-SPEC fills:          0
DTLB Test counter :          0
DTLB Leapfrog:          0
DTLB MSHR merge:          0
DTLB TOTAL     ACCESS:   48477508  HIT:   43955658  MISS:    4521850  HIT %:    90.6723  MISS %:    9.32773   MPKI: 22.6092
DTLB LOAD TRANSLATION NON_SPEC    ACCESS:   48477508  HIT:   43955658  MISS:    4521850  HIT %:    90.6723  MISS %:    9.32773   MPKI: 22.6092
DTLB PREFETCH  REQUESTED:          0  ISSUED:          0  USEFUL:          0  USELESS:          0
DTLB USEFUL LOAD PREFETCHES:          0 PREFETCH ISSUED TO LOWER LEVEL:          0  ACCURACY: -nan
DTLB TIMELY PREFETCHES:          0 LATE PREFETCHES: 0 DROPPED PREFETCHES: 0
DTLB COMMIT LATE PREFETCHES: 0 MISSED OPPORTUNITY: 0 LATE IN PQ: 0 UNCOVERED: 0
DTLB COMMIT LATE MSHR PREFETCHES: 0
DTLB MPKI TOTAL: 0 MSHR LATE: 0 PQ LATE: 0 COMMIT LATE: 0 MISSED OPPORTUNITY: 0 UNCOVERED: 0
DTLB PREFETCHES SAME FILL-ORIGIN LEVEL: 0 DIFFERENT FILL-ORIGIN LEVEL: 0
DTLB AVERAGE MISS LATENCY: 12.3267 cycles
DTLB AVERAGE MISS LATENCY LOAD: -nan cycles
DTLB AVERAGE MISS LATENCY PREFETCH: -nan cycles
DTLB AVERAGE MSHR OCCUPANCY: 0.219309
DTLB MSHR FULL: 8.62939e-07
DTLB RQ	ACCESS:   53346510	FORWARD:          0	MERGED:    4675654	TO_CACHE:   48670856

STLB SPEC fills:          0  NON-SPEC fills:          0
STLB Test counter :          0
STLB Leapfrog:          0
STLB MSHR merge:          0
STLB TOTAL     ACCESS:    4521850  HIT:    4463300  MISS:      58550  HIT %:    98.7052  MISS %:    1.29482   MPKI: 0.29275
STLB LOAD TRANSLATION NON_SPEC    ACCESS:    4521850  HIT:    4463300  MISS:      58550  HIT %:    98.7052  MISS %:    1.29482   MPKI: 0.29275
STLB PREFETCH  REQUESTED:          0  ISSUED:          0  USEFUL:          0  USELESS:          0
STLB USEFUL LOAD PREFETCHES:          0 PREFETCH ISSUED TO LOWER LEVEL:          0  ACCURACY: -nan
STLB TIMELY PREFETCHES:          0 LATE PREFETCHES: 0 DROPPED PREFETCHES: 0
STLB COMMIT LATE PREFETCHES: 0 MISSED OPPORTUNITY: 0 LATE IN PQ: 0 UNCOVERED: 0
STLB COMMIT LATE MSHR PREFETCHES: 0
STLB MPKI TOTAL: 0 MSHR LATE: 0 PQ LATE: 0 COMMIT LATE: 0 MISSED OPPORTUNITY: 0 UNCOVERED: 0
STLB PREFETCHES SAME FILL-ORIGIN LEVEL: 0 DIFFERENT FILL-ORIGIN LEVEL: 0
STLB AVERAGE MISS LATENCY: 230.469 cycles
STLB AVERAGE MISS LATENCY LOAD: -nan cycles
STLB AVERAGE MISS LATENCY PREFETCH: -nan cycles
STLB AVERAGE MSHR OCCUPANCY: 0.00767982
STLB MSHR FULL: 0
STLB RQ	ACCESS:    4521850	FORWARD:          0	MERGED:          0	TO_CACHE:    4521850

STLB Hit, L1D data hit: 0
STLB Hit, L2C data hit: 0
STLB Hit, LLC data hit: 0
STLB Hit, LLC data miss: 0
STLB STLB hints to L2: 0
L0D SPEC fills:   24465699  NON-SPEC fills:          0
L0D TimeGuard Request with older TS:    1681094 Restricted eviction:     129049 read:    3351579
L0D Test counter :          0
L0D Leapfrog:          0
L0D MSHR merge:    7484055
L0D TOTAL     ACCESS:   43621105  HIT:   13642899  MISS:   29978206  HIT %:    31.2759  MISS %:    68.7241   MPKI: 149.891
L0D LOAD      TOTAL       ACCESS:   43621105  HIT:   13642899  MISS:   29978206  HIT %:    31.2759  MISS %:    68.7241   MPKI: 149.891
L0D LOAD      NON_SPEC    ACCESS:    5454760  HIT:      71302  MISS:    5383458  HIT %:    1.30715  MISS %:    98.6928   MPKI: 26.9173
L0D LOAD      SPEC        ACCESS:   38166345  HIT:   13571597  MISS:   24594748  HIT %:    35.5591  MISS %:    64.4409   MPKI: 122.974
L0D PREFETCH  REQUESTED:          0  ISSUED:          0  USEFUL:          0  USELESS:          0
L0D USEFUL LOAD PREFETCHES:          0 PREFETCH ISSUED TO LOWER LEVEL:          0  ACCURACY: -nan
L0D TIMELY PREFETCHES:          0 LATE PREFETCHES: 0 DROPPED PREFETCHES: 0
L0D COMMIT LATE PREFETCHES: 0 MISSED OPPORTUNITY: 0 LATE IN PQ: 0 UNCOVERED: 0
L0D COMMIT LATE MSHR PREFETCHES: 0
L0D MPKI TOTAL: 187.311 MSHR LATE: 0 PQ LATE: 0 COMMIT LATE: 0 MISSED OPPORTUNITY: 0 UNCOVERED: 0
L0D PREFETCHES SAME FILL-ORIGIN LEVEL: 0 DIFFERENT FILL-ORIGIN LEVEL: 0
L0D AVERAGE MISS LATENCY: 36.7709 cycles
L0D AVERAGE MISS LATENCY LOAD: 36.7709 cycles
L0D AVERAGE MISS LATENCY PREFETCH: -nan cycles
L0D AVERAGE MSHR OCCUPANCY: 2.4639
L0D MSHR FULL: 0.0815538
L0D RQ	ACCESS:   76702051	FORWARD:          0	MERGED:   25596893	TO_CACHE:   51105158
L0D WQ	ACCESS:    2241352	FORWARD:          0	MERGED:          0	TO_CACHE:    2241352

L1D SPEC fills:          0  NON-SPEC fills:    2166245
L1D Test counter :    8182139
L1D Leapfrog:          0
L1D MSHR merge:       4567
L1D TOTAL     ACCESS:   73951209  HIT:   54744257  MISS:   19206952  HIT %:    74.0275  MISS %:    25.9725   MPKI: 96.0348
L1D LOAD      TOTAL       ACCESS:   29973638  HIT:   19569422  MISS:   10404216  HIT %:    65.2888  MISS %:    34.7112   MPKI: 52.0211
L1D LOAD      NON_SPEC    ACCESS:    5383168  HIT:    3216923  MISS:    2166245  HIT %:    59.7589  MISS %:    40.2411   MPKI: 10.8312
L1D LOAD      SPEC        ACCESS:   24590470  HIT:   16352499  MISS:    8237971  HIT %:    66.4993  MISS %:    33.5007   MPKI: 41.1899
L1D RFO       NON_SPEC    ACCESS:    2052875  HIT:    1579698  MISS:     473177  HIT %:    76.9505  MISS %:    23.0495   MPKI: 2.36588
L1D COMMIT LOAD NON_SPEC    ACCESS:   19035142  HIT:   18831495  MISS:     203647  HIT %:    98.9302  MISS %:    1.06985   MPKI: 1.01823
L1D COMMIT WRITE NON_SPEC    ACCESS:   22889554  HIT:   14763642  MISS:    8125912  HIT %:    64.4995  MISS %:    35.5005   MPKI: 40.6296
L1D PREFETCH  REQUESTED:          0  ISSUED:          0  USEFUL:          0  USELESS:          0
L1D USEFUL LOAD PREFETCHES:          0 PREFETCH ISSUED TO LOWER LEVEL:          0  ACCURACY: -nan
L1D TIMELY PREFETCHES:          0 LATE PREFETCHES: 0 DROPPED PREFETCHES: 0
L1D COMMIT LATE PREFETCHES: 0 MISSED OPPORTUNITY: 0 LATE IN PQ: 0 UNCOVERED: 0
L1D COMMIT LATE MSHR PREFETCHES: 0
L1D MPKI TOTAL: 52.0439 MSHR LATE: 0 PQ LATE: 0 COMMIT LATE: 0 MISSED OPPORTUNITY: 0 UNCOVERED: 0
L1D PREFETCHES SAME FILL-ORIGIN LEVEL: 0 DIFFERENT FILL-ORIGIN LEVEL: 0
L1D AVERAGE MISS LATENCY: 53.6305 cycles
L1D AVERAGE MISS LATENCY LOAD: 90.9566 cycles
L1D AVERAGE MISS LATENCY PREFETCH: -nan cycles
L1D AVERAGE MSHR OCCUPANCY: 2.02645
L1D MSHR FULL: 0.0476202
L1D RQ	ACCESS:   78243955	FORWARD:          0	MERGED:   24008761	TO_CACHE:   49035672
L1D WQ	ACCESS:   25152360	FORWARD:    5199522	MERGED:      23135	TO_CACHE:   25129225

L1D UNIQUE REGIONS ACCESSED: 0
L1D REGIONS CONFLICTS: 0
L1D Cross Page Prefetch Requests: 0
L1D Same Page Prefetch Requests: 0
L1D ROI Sum of L1D PQ occupancy: 0
L1D PREFETCHES PUSHED FROM L2C: 0
L1I SPEC fills:          0  NON-SPEC fills:          0
L1I Test counter :          0
L1I Leapfrog:          0
L1I MSHR merge:          0
L1I TOTAL     ACCESS:   25374100  HIT:   25374100  MISS:          0  HIT %:        100  MISS %:          0   MPKI: 0
L1I LOAD      TOTAL       ACCESS:   25374100  HIT:   25374100  MISS:          0  HIT %:        100  MISS %:          0   MPKI: 0
L1I LOAD      NON_SPEC    ACCESS:   25374100  HIT:   25374100  MISS:          0  HIT %:        100  MISS %:          0   MPKI: 0
L1I PREFETCH  REQUESTED:          0  ISSUED:          0  USEFUL:          0  USELESS:          0
L1I USEFUL LOAD PREFETCHES:          0 PREFETCH ISSUED TO LOWER LEVEL:          0  ACCURACY: -nan
L1I TIMELY PREFETCHES:          0 LATE PREFETCHES: 0 DROPPED PREFETCHES: 0
L1I COMMIT LATE PREFETCHES: 0 MISSED OPPORTUNITY: 0 LATE IN PQ: 0 UNCOVERED: 0
L1I COMMIT LATE MSHR PREFETCHES: 0
L1I MPKI TOTAL: 0 MSHR LATE: 0 PQ LATE: 0 COMMIT LATE: 0 MISSED OPPORTUNITY: 0 UNCOVERED: 0
L1I PREFETCHES SAME FILL-ORIGIN LEVEL: 0 DIFFERENT FILL-ORIGIN LEVEL: 0
L1I AVERAGE MISS LATENCY: -nan cycles
L1I AVERAGE MISS LATENCY LOAD: -nan cycles
L1I AVERAGE MISS LATENCY PREFETCH: -nan cycles
L1I AVERAGE MSHR OCCUPANCY: 0
L1I MSHR FULL: 0
L1I RQ	ACCESS:   39198957	FORWARD:          0	MERGED:   13824855	TO_CACHE:   25374102

BTB SPEC fills:          0  NON-SPEC fills:          0
BTB Test counter :          0
BTB Leapfrog:          0
BTB MSHR merge:          0
BTB TOTAL     ACCESS:   29044147  HIT:   29044001  MISS:        146  HIT %:    99.9995  MISS %: 0.000502683   MPKI: 0.00073
BTB BRANCH_DIRECT_JUMP	ACCESS:    9217196  HIT:    9217156  MISS:         40
BTB BRANCH_INDIRECT	ACCESS:          0  HIT:          0  MISS:          0
BTB BRANCH_CONDITIONAL	ACCESS:   19824303  HIT:   19824221  MISS:         82
BTB BRANCH_DIRECT_CALL	ACCESS:       1324  HIT:       1315  MISS:          9
BTB BRANCH_INDIRECT_CALL	ACCESS:          0  HIT:          0  MISS:          0
BTB BRANCH_RETURN	ACCESS:       1324  HIT:       1309  MISS:         15
BTB BRANCH_OTHER ACCESS:          0  HIT:          0  MISS:          0

L2C SPEC fills:          0  NON-SPEC fills:    1470211
L2C Test counter :    6714943
L2C Leapfrog:          0
L2C MSHR merge:          0
L2C TOTAL     ACCESS:   20407394  HIT:    5636887  MISS:   14770507  HIT %:    27.6218  MISS %:    72.3782   MPKI: 73.8525
L2C LOAD      TOTAL       ACCESS:   10404195  HIT:    2419907  MISS:    7984288  HIT %:     23.259  MISS %:     76.741   MPKI: 39.9214
L2C LOAD      NON_SPEC    ACCESS:    2166235  HIT:     696024  MISS:    1470211  HIT %:    32.1306  MISS %:    67.8694   MPKI: 7.35105
L2C LOAD      SPEC        ACCESS:    8237960  HIT:    1723883  MISS:    6514077  HIT %:    20.9261  MISS %:    79.0739   MPKI: 32.5704
L2C RFO       NON_SPEC    ACCESS:     473177  HIT:     303180  MISS:     169997  HIT %:    64.0733  MISS %:    35.9267   MPKI: 0.849985
L2C WRITEBACK NON_SPEC    ACCESS:     851632  HIT:     849986  MISS:       1646  HIT %:    99.8067  MISS %:   0.193276   MPKI: 0.00823
L2C CLEAN_EVICTION NON_SPEC    ACCESS:    8182011  HIT:    1792611  MISS:    6389400  HIT %:    21.9092  MISS %:    78.0908   MPKI: 31.947
L2C COMMIT LOAD NON_SPEC    ACCESS:     203631  HIT:      22221  MISS:     181410  HIT %:    10.9124  MISS %:    89.0876   MPKI: 0.90705
L2C LOAD TRANSLATION NON_SPEC    ACCESS:     292748  HIT:     248982  MISS:      43766  HIT %:    85.0499  MISS %:    14.9501   MPKI: 0.21883
L2C PREFETCH  REQUESTED:          0  ISSUED:          0  USEFUL:          0  USELESS:          0
L2C USEFUL LOAD PREFETCHES:          0 PREFETCH ISSUED TO LOWER LEVEL:          0  ACCURACY: -nan
L2C TIMELY PREFETCHES:          0 LATE PREFETCHES: 0 DROPPED PREFETCHES: 0
L2C COMMIT LATE PREFETCHES: 0 MISSED OPPORTUNITY: 0 LATE IN PQ: 0 UNCOVERED: 0
L2C COMMIT LATE MSHR PREFETCHES: 0
L2C MPKI TOTAL: 39.9214 MSHR LATE: 0 PQ LATE: 0 COMMIT LATE: 0 MISSED OPPORTUNITY: 0 UNCOVERED: 0
L2C PREFETCHES SAME FILL-ORIGIN LEVEL: 0 DIFFERENT FILL-ORIGIN LEVEL: 0
L2C AVERAGE MISS LATENCY: 60.7053 cycles
L2C AVERAGE MISS LATENCY LOAD: 102.214 cycles
L2C AVERAGE MISS LATENCY PREFETCH: -nan cycles
L2C AVERAGE MSHR OCCUPANCY: 1.62316
L2C MSHR FULL: 0
L2C RQ	ACCESS:   11373788	FORWARD:          0	MERGED:          0	TO_CACHE:   11373751
L2C WQ	ACCESS:    9033771	FORWARD:         37	MERGED:        128	TO_CACHE:    9033643

L2C Instructions Evicting Data 0
L2C Translations Evicting Data 43559
L2C Data Evicting Data 1812172
L2C Instructions Evicting Instructions 0
L2C Translations Evicting Instructions 0
L2C Data Evicting Instructions 0
L2C Instructions Evicting Translations 0
L2C Translations Evicting Translations 207
L2C Data Evicting Translations 9446
L2C Dense regions hint from L2: 0
PSCL5 SPEC fills:          0  NON-SPEC fills:          0
PSCL5 Test counter :          0
PSCL5 Leapfrog:          0
PSCL5 MSHR merge:          0
PSCL5 TOTAL     ACCESS:          0  HIT:          0  MISS:          0  HIT %:       -nan  MISS %:       -nan   MPKI: 0
PSCL5 PREFETCH  REQUESTED:          0  ISSUED:          0  USEFUL:          0  USELESS:          0
PSCL5 USEFUL LOAD PREFETCHES:          0 PREFETCH ISSUED TO LOWER LEVEL:          0  ACCURACY: -nan
PSCL5 TIMELY PREFETCHES:          0 LATE PREFETCHES: 0 DROPPED PREFETCHES: 0
PSCL5 COMMIT LATE PREFETCHES: 0 MISSED OPPORTUNITY: 0 LATE IN PQ: 0 UNCOVERED: 0
PSCL5 COMMIT LATE MSHR PREFETCHES: 0
PSCL5 MPKI TOTAL: 0 MSHR LATE: 0 PQ LATE: 0 COMMIT LATE: 0 MISSED OPPORTUNITY: 0 UNCOVERED: 0
PSCL5 PREFETCHES SAME FILL-ORIGIN LEVEL: 0 DIFFERENT FILL-ORIGIN LEVEL: 0

PSCL4 SPEC fills:          0  NON-SPEC fills:          0
PSCL4 Test counter :          0
PSCL4 Leapfrog:          0
PSCL4 MSHR merge:          0
PSCL4 TOTAL     ACCESS:          0  HIT:          0  MISS:          0  HIT %:       -nan  MISS %:       -nan   MPKI: 0
PSCL4 PREFETCH  REQUESTED:          0  ISSUED:          0  USEFUL:          0  USELESS:          0
PSCL4 USEFUL LOAD PREFETCHES:          0 PREFETCH ISSUED TO LOWER LEVEL:          0  ACCURACY: -nan
PSCL4 TIMELY PREFETCHES:          0 LATE PREFETCHES: 0 DROPPED PREFETCHES: 0
PSCL4 COMMIT LATE PREFETCHES: 0 MISSED OPPORTUNITY: 0 LATE IN PQ: 0 UNCOVERED: 0
PSCL4 COMMIT LATE MSHR PREFETCHES: 0
PSCL4 MPKI TOTAL: 0 MSHR LATE: 0 PQ LATE: 0 COMMIT LATE: 0 MISSED OPPORTUNITY: 0 UNCOVERED: 0
PSCL4 PREFETCHES SAME FILL-ORIGIN LEVEL: 0 DIFFERENT FILL-ORIGIN LEVEL: 0

PSCL3 SPEC fills:          0  NON-SPEC fills:          0
PSCL3 Test counter :          0
PSCL3 Leapfrog:          0
PSCL3 MSHR merge:          0
PSCL3 TOTAL     ACCESS:          0  HIT:          0  MISS:          0  HIT %:       -nan  MISS %:       -nan   MPKI: 0
PSCL3 PREFETCH  REQUESTED:          0  ISSUED:          0  USEFUL:          0  USELESS:          0
PSCL3 USEFUL LOAD PREFETCHES:          0 PREFETCH ISSUED TO LOWER LEVEL:          0  ACCURACY: -nan
PSCL3 TIMELY PREFETCHES:          0 LATE PREFETCHES: 0 DROPPED PREFETCHES: 0
PSCL3 COMMIT LATE PREFETCHES: 0 MISSED OPPORTUNITY: 0 LATE IN PQ: 0 UNCOVERED: 0
PSCL3 COMMIT LATE MSHR PREFETCHES: 0
PSCL3 MPKI TOTAL: 0 MSHR LATE: 0 PQ LATE: 0 COMMIT LATE: 0 MISSED OPPORTUNITY: 0 UNCOVERED: 0
PSCL3 PREFETCHES SAME FILL-ORIGIN LEVEL: 0 DIFFERENT FILL-ORIGIN LEVEL: 0

PSCL2 SPEC fills:          0  NON-SPEC fills:          0
PSCL2 Test counter :          0
PSCL2 Leapfrog:          0
PSCL2 MSHR merge:          0
PSCL2 TOTAL     ACCESS:          0  HIT:          0  MISS:          0  HIT %:       -nan  MISS %:       -nan   MPKI: 0
PSCL2 PREFETCH  REQUESTED:          0  ISSUED:          0  USEFUL:          0  USELESS:          0
PSCL2 USEFUL LOAD PREFETCHES:          0 PREFETCH ISSUED TO LOWER LEVEL:          0  ACCURACY: -nan
PSCL2 TIMELY PREFETCHES:          0 LATE PREFETCHES: 0 DROPPED PREFETCHES: 0
PSCL2 COMMIT LATE PREFETCHES: 0 MISSED OPPORTUNITY: 0 LATE IN PQ: 0 UNCOVERED: 0
PSCL2 COMMIT LATE MSHR PREFETCHES: 0
PSCL2 MPKI TOTAL: 0 MSHR LATE: 0 PQ LATE: 0 COMMIT LATE: 0 MISSED OPPORTUNITY: 0 UNCOVERED: 0
PSCL2 PREFETCHES SAME FILL-ORIGIN LEVEL: 0 DIFFERENT FILL-ORIGIN LEVEL: 0

LLC SPEC fills:          0  NON-SPEC fills:     585877
LLC Test counter :    3828635
LLC Leapfrog:          0
LLC MSHR merge:          0
LLC TOTAL     ACCESS:   15422626  HIT:    7647955  MISS:    7774671  HIT %:    49.5892  MISS %:    50.4108   MPKI: 38.8734
LLC LOAD      TOTAL       ACCESS:    7984222  HIT:    4020050  MISS:    3964172  HIT %:    50.3499  MISS %:    49.6501   MPKI: 19.8209
LLC LOAD      NON_SPEC    ACCESS:    1470199  HIT:     884322  MISS:     585877  HIT %:    60.1498  MISS %:    39.8502   MPKI: 2.92938
LLC LOAD      SPEC        ACCESS:    6514023  HIT:    3135728  MISS:    3378295  HIT %:    48.1381  MISS %:    51.8619   MPKI: 16.8915
LLC RFO       NON_SPEC    ACCESS:     169996  HIT:      68054  MISS:     101942  HIT %:    40.0327  MISS %:    59.9673   MPKI: 0.50971
LLC WRITEBACK NON_SPEC    ACCESS:     328303  HIT:     323419  MISS:       4884  HIT %:    98.5123  MISS %:    1.48765   MPKI: 0.02442
LLC CLEAN_EVICTION NON_SPEC    ACCESS:    6714943  HIT:    3193503  MISS:    3521440  HIT %:    47.5582  MISS %:    52.4418   MPKI: 17.6072
LLC COMMIT LOAD NON_SPEC    ACCESS:     181396  HIT:      31266  MISS:     150130  HIT %:    17.2363  MISS %:    82.7637   MPKI: 0.75065
LLC LOAD TRANSLATION NON_SPEC    ACCESS:      43766  HIT:      11663  MISS:      32103  HIT %:    26.6485  MISS %:    73.3515   MPKI: 0.160515
LLC PREFETCH  REQUESTED:          0  ISSUED:          0  USEFUL:          0  USELESS:          0
LLC USEFUL LOAD PREFETCHES:          0 PREFETCH ISSUED TO LOWER LEVEL:          0  ACCURACY: -nan
LLC TIMELY PREFETCHES:          0 LATE PREFETCHES: 0 DROPPED PREFETCHES: 0
LLC COMMIT LATE PREFETCHES: 0 MISSED OPPORTUNITY: 0 LATE IN PQ: 0 UNCOVERED: 0
LLC COMMIT LATE MSHR PREFETCHES: 0
LLC MPKI TOTAL: 19.8209 MSHR LATE: 0 PQ LATE: 0 COMMIT LATE: 0 MISSED OPPORTUNITY: 0 UNCOVERED: 0
LLC PREFETCHES SAME FILL-ORIGIN LEVEL: 0 DIFFERENT FILL-ORIGIN LEVEL: 0
LLC AVERAGE MISS LATENCY: 90.4325 cycles
LLC AVERAGE MISS LATENCY LOAD: 160.052 cycles
LLC AVERAGE MISS LATENCY PREFETCH: -nan cycles
LLC AVERAGE MSHR OCCUPANCY: 0.979325
LLC MSHR FULL: 0
LLC RQ	ACCESS:    8379461	FORWARD:          0	MERGED:          0	TO_CACHE:    8379380
LLC WQ	ACCESS:    7043246	FORWARD:         81	MERGED:          0	TO_CACHE:    7043246

LLC Dense regions hint to LLC: 0

RAW hits: 62881
Loads Generated: 76764934
Loads sent to L1D: 76702051
Stores Generated: 2241351
Stores sent to L1D: 2241352
Major fault: 0 Minor fault: 36864
Allocated PAGES: 36864
Total Load insts: 93558061
Total Non-spec loads: 6583352
Percentage of speculative loads: 92.9633

LeapFrogging counter: 327841
Commit hits: 22911006 miss: 48265751
Commit hit %: 32.1889 miss %: 67.8111
Commits not translated: 0
Loads retired: 10404213
Stores retired: 2241352
Cache fills: 10404216
L1D response latency: 90.9566 cycles
Load retirement latency: 159.249 cycles
OOO test counter: 0
Discarded buffer inserts: 22911006 hits: 187439 hit %: 0.818118

DRAM Statistics
 CHANNEL 0
 RQ ROW_BUFFER_HIT:     381099  ROW_BUFFER_MISS:    3866263
 DBUS_CONGESTED:       5483
 WQ ROW_BUFFER_HIT:    1812887  ROW_BUFFER_MISS:    2213966  FULL:      16963

 AVG_CONGESTED_CYCLE: 5
 All warmup complete: 2
Channel 0 Bank busy for read cycles: 0
Channel 0 Bank busy for write cycles: 0
Channel 0
Rank 0
0banks busy for read cycles: 4102358
0banks busy for write cycles: 30932
1banks busy for read cycles: 234795602
1banks busy for write cycles: 7849887
2banks busy for read cycles: 104301275
2banks busy for write cycles: 14353805
3banks busy for read cycles: 34646717
3banks busy for write cycles: 20490110
4banks busy for read cycles: 7736668
4banks busy for write cycles: 25667379
5banks busy for read cycles: 1203209
5banks busy for write cycles: 30494000
6banks busy for read cycles: 376696
6banks busy for write cycles: 35366406
7banks busy for read cycles: 437408
7banks busy for write cycles: 39334916
8banks busy for read cycles: 1463372
8banks busy for write cycles: 34590475

CPU 0 Branch Prediction Accuracy: 97.7638% MPKI: 3.32603 Average ROB Occupancy at Mispredict: 164.6
Branch types
NOT_BRANCH: 170252779 85.1264%
BRANCH_DIRECT_JUMP: 9217196 4.6086%
BRANCH_INDIRECT: 0 0%
BRANCH_CONDITIONAL: 20527371 10.2637%
BRANCH_DIRECT_CALL: 1324 0.000662%
BRANCH_INDIRECT_CALL: 0 0%
BRANCH_RETURN: 1324 0.000662%
BRANCH_OTHER: 0 0%

DRAM PAGES: 1048576
Allocated PAGES: 36864
