
*** ChampSim Multicore Out-of-Order Simulator ***

Warmup Instructions: 50000000
Simulation Instructions: 200000000
Number of CPUs: 1
LLC sets: 2048
LLC ways: 16
L0D sets: 16
L0D ways: 2
ROB size: 352
LQ size: 128
SQ size: 72
Secure Berti: ON
Berti: ON
Berti Fill: ON
On commit prefetching: OFF
Hit-based filter: ON
Time-guarding: ON
Free-slotting: ON
Leap-frogging: ON
Train prefetcher on L0D bypass: OFF
No translation penalty for prefetchers: OFF
Prefetch to L0D only: OFF
Prefetch to L1D only: OFF
Clean evictions: ON
Commit loads: ON
Commit write: ON
Fill commit loads to L2C, LLC: ON
DRAM IO FREQUENCY: 6400
ROB SIZE: 352
Off-chip DRAM Size: 4096 MB Channels: 1 Width: 64-bit Data Rate: 6400 MT/s
CPU 0 runs /home/sumon/secure_berti/GhostMinion/../../traces/spec/603.bwaves_s-891B.champsimtrace.xz
.xz
BTB has LRU replacement policy
ITLB has LRU replacement policy
DTLB has LRU replacement policy
STLB has LRU replacement policy
L1I has LRU replacement policy
L0D has LRU replacement policy
Berti version on_commit
History Sets: 8
History Ways: 16
BERTI Size: 16
BERTI Stride Size: 16
L1D has LRU replacement policy
L2C has LRU replacement policy
LLC has LRU replacement policy
Heartbeat CPU 0 instructions: 10000003 cycles: 2784226 heartbeat IPC: 3.59166 cumulative IPC: 3.59166 (Simulation time: 0 hr 0 min 34 sec) 
Heartbeat CPU 0 instructions: 20000003 cycles: 5568159 heartbeat IPC: 3.59204 cumulative IPC: 3.59185 (Simulation time: 0 hr 1 min 6 sec) 
Heartbeat CPU 0 instructions: 30000003 cycles: 8352602 heartbeat IPC: 3.59138 cumulative IPC: 3.5917 (Simulation time: 0 hr 1 min 39 sec) 
Heartbeat CPU 0 instructions: 40000000 cycles: 11136541 heartbeat IPC: 3.59203 cumulative IPC: 3.59178 (Simulation time: 0 hr 2 min 12 sec) 
Heartbeat CPU 0 instructions: 50000002 cycles: 14073210 heartbeat IPC: 3.40522 cumulative IPC: 3.55285 (Simulation time: 0 hr 2 min 39 sec) 

Warmup complete CPU 0 instructions: 50000002 cycles: 14073210 (Simulation time: 0 hr 2 min 39 sec) 

Heartbeat CPU 0 instructions: 60000002 cycles: 27828169 heartbeat IPC: 0.727011 cumulative IPC: 0.727011 (Simulation time: 0 hr 3 min 12 sec) 
Heartbeat CPU 0 instructions: 70000001 cycles: 41584205 heartbeat IPC: 0.726954 cumulative IPC: 0.726982 (Simulation time: 0 hr 3 min 48 sec) 
Heartbeat CPU 0 instructions: 80000000 cycles: 55340090 heartbeat IPC: 0.726961 cumulative IPC: 0.726975 (Simulation time: 0 hr 4 min 23 sec) 
Heartbeat CPU 0 instructions: 90000001 cycles: 69096365 heartbeat IPC: 0.726941 cumulative IPC: 0.726967 (Simulation time: 0 hr 4 min 59 sec) 
Heartbeat CPU 0 instructions: 100000000 cycles: 82851562 heartbeat IPC: 0.726998 cumulative IPC: 0.726973 (Simulation time: 0 hr 5 min 35 sec) 
Heartbeat CPU 0 instructions: 110000000 cycles: 96608301 heartbeat IPC: 0.726916 cumulative IPC: 0.726964 (Simulation time: 0 hr 6 min 11 sec) 
Heartbeat CPU 0 instructions: 120000001 cycles: 110364423 heartbeat IPC: 0.726949 cumulative IPC: 0.726961 (Simulation time: 0 hr 6 min 47 sec) 
Heartbeat CPU 0 instructions: 130000000 cycles: 124119940 heartbeat IPC: 0.726981 cumulative IPC: 0.726964 (Simulation time: 0 hr 7 min 24 sec) 
Heartbeat CPU 0 instructions: 140000001 cycles: 137876338 heartbeat IPC: 0.726935 cumulative IPC: 0.726961 (Simulation time: 0 hr 8 min 1 sec) 
Heartbeat CPU 0 instructions: 150000000 cycles: 151632663 heartbeat IPC: 0.726938 cumulative IPC: 0.726958 (Simulation time: 0 hr 8 min 36 sec) 
Heartbeat CPU 0 instructions: 160000000 cycles: 165389173 heartbeat IPC: 0.726929 cumulative IPC: 0.726956 (Simulation time: 0 hr 9 min 12 sec) 
Heartbeat CPU 0 instructions: 170000000 cycles: 179066123 heartbeat IPC: 0.731157 cumulative IPC: 0.727304 (Simulation time: 0 hr 9 min 49 sec) 
Heartbeat CPU 0 instructions: 180000001 cycles: 192584053 heartbeat IPC: 0.739758 cumulative IPC: 0.728247 (Simulation time: 0 hr 10 min 26 sec) 
Heartbeat CPU 0 instructions: 190000002 cycles: 205500739 heartbeat IPC: 0.774192 cumulative IPC: 0.731347 (Simulation time: 0 hr 11 min 6 sec) 
Heartbeat CPU 0 instructions: 200000003 cycles: 217707610 heartbeat IPC: 0.819211 cumulative IPC: 0.736614 (Simulation time: 0 hr 11 min 52 sec) 
Heartbeat CPU 0 instructions: 210000001 cycles: 229914372 heartbeat IPC: 0.819218 cumulative IPC: 0.741286 (Simulation time: 0 hr 12 min 38 sec) 
Heartbeat CPU 0 instructions: 220000000 cycles: 242121318 heartbeat IPC: 0.819206 cumulative IPC: 0.745457 (Simulation time: 0 hr 13 min 25 sec) 
Heartbeat CPU 0 instructions: 230000001 cycles: 254327667 heartbeat IPC: 0.819246 cumulative IPC: 0.749206 (Simulation time: 0 hr 14 min 10 sec) 
Heartbeat CPU 0 instructions: 240000000 cycles: 266534250 heartbeat IPC: 0.81923 cumulative IPC: 0.752591 (Simulation time: 0 hr 14 min 52 sec) 
Heartbeat CPU 0 instructions: 250000001 cycles: 278740919 heartbeat IPC: 0.819224 cumulative IPC: 0.755665 (Simulation time: 0 hr 15 min 34 sec) 
Finished CPU 0 instructions: 200000002 cycles: 264667710 cumulative IPC: 0.755665 (Simulation time: 0 hr 15 min 34 sec) 
 Instruction ID: 250000030

ChampSim completed all CPUs

Region of Interest Statistics

CPU 0 cumulative IPC: 0.755665 instructions: 200000002 cycles: 264667710
ITLB SPEC fills:          0  NON-SPEC fills:          0
ITLB Test counter :          0
ITLB Leapfrog:          0
ITLB MSHR merge:          0
ITLB TOTAL     ACCESS:   33459790  HIT:   33459789  MISS:          1  HIT %:        100  MISS %: 2.98866e-06   MPKI: 5e-06
ITLB LOAD TRANSLATION NON_SPEC    ACCESS:   33459790  HIT:   33459789  MISS:          1  HIT %:        100  MISS %: 2.98866e-06   MPKI: 5e-06
ITLB PREFETCH  REQUESTED:          0  ISSUED:          0  USEFUL:          0  USELESS:          0
ITLB USEFUL LOAD PREFETCHES:          0 PREFETCH ISSUED TO LOWER LEVEL:          0  ACCURACY: -nan
ITLB TIMELY PREFETCHES:          0 LATE PREFETCHES: 0 DROPPED PREFETCHES: 0
ITLB COMMIT LATE PREFETCHES: 0 MISSED OPPORTUNITY: 0 LATE IN PQ: 0 UNCOVERED: 0
ITLB COMMIT LATE MSHR PREFETCHES: 0
ITLB MPKI TOTAL: 0 MSHR LATE: 0 PQ LATE: 0 COMMIT LATE: 0 MISSED OPPORTUNITY: 0 UNCOVERED: 0
ITLB PREFETCHES SAME FILL-ORIGIN LEVEL: 0 DIFFERENT FILL-ORIGIN LEVEL: 0
ITLB AVERAGE MISS LATENCY: 964 cycles
ITLB AVERAGE MISS LATENCY LOAD: -nan cycles
ITLB AVERAGE MISS LATENCY PREFETCH: -nan cycles
ITLB AVERAGE MSHR OCCUPANCY: 2.98866e-08
ITLB MSHR FULL: 0
ITLB RQ	ACCESS:   34848003	FORWARD:          0	MERGED:    1388212	TO_CACHE:   33459791

DTLB SPEC fills:          0  NON-SPEC fills:          0
DTLB Test counter :          0
DTLB Leapfrog:          0
DTLB MSHR merge:          0
DTLB TOTAL     ACCESS:   33020814  HIT:   32960160  MISS:      60654  HIT %:    99.8163  MISS %:   0.183684   MPKI: 0.30327
DTLB LOAD TRANSLATION NON_SPEC    ACCESS:   33020814  HIT:   32960160  MISS:      60654  HIT %:    99.8163  MISS %:   0.183684   MPKI: 0.30327
DTLB PREFETCH  REQUESTED:          0  ISSUED:          0  USEFUL:          0  USELESS:          0
DTLB USEFUL LOAD PREFETCHES:          0 PREFETCH ISSUED TO LOWER LEVEL:          0  ACCURACY: -nan
DTLB TIMELY PREFETCHES:          0 LATE PREFETCHES: 0 DROPPED PREFETCHES: 0
DTLB COMMIT LATE PREFETCHES: 0 MISSED OPPORTUNITY: 0 LATE IN PQ: 0 UNCOVERED: 0
DTLB COMMIT LATE MSHR PREFETCHES: 0
DTLB MPKI TOTAL: 0 MSHR LATE: 0 PQ LATE: 0 COMMIT LATE: 0 MISSED OPPORTUNITY: 0 UNCOVERED: 0
DTLB PREFETCHES SAME FILL-ORIGIN LEVEL: 0 DIFFERENT FILL-ORIGIN LEVEL: 0
DTLB AVERAGE MISS LATENCY: 130.054 cycles
DTLB AVERAGE MISS LATENCY LOAD: -nan cycles
DTLB AVERAGE MISS LATENCY PREFETCH: -nan cycles
DTLB AVERAGE MSHR OCCUPANCY: 0.00268531
DTLB MSHR FULL: 0
DTLB RQ	ACCESS:   33579652	FORWARD:          0	MERGED:     539180	TO_CACHE:   33040472

STLB SPEC fills:          0  NON-SPEC fills:          0
STLB Test counter :          0
STLB Leapfrog:          0
STLB MSHR merge:          0
STLB TOTAL     ACCESS:   15145733  HIT:   15085415  MISS:      60318  HIT %:    99.6017  MISS %:   0.398251   MPKI: 0.30159
STLB LOAD TRANSLATION NON_SPEC    ACCESS:      60655  HIT:      18563  MISS:      42092  HIT %:    30.6042  MISS %:    69.3958   MPKI: 0.21046
STLB TRANSLATION FROM L1D PREFETCHER NON_SPEC    ACCESS:   15085078  HIT:   15066852  MISS:      18226  HIT %:    99.8792  MISS %:   0.120821   MPKI: 0.09113
STLB PREFETCH  REQUESTED:          0  ISSUED:          0  USEFUL:      18226  USELESS:          0
STLB USEFUL LOAD PREFETCHES:      18226 PREFETCH ISSUED TO LOWER LEVEL:          0  ACCURACY: inf
STLB TIMELY PREFETCHES:      18226 LATE PREFETCHES: 31719 DROPPED PREFETCHES: 649048
STLB COMMIT LATE PREFETCHES: 0 MISSED OPPORTUNITY: 0 LATE IN PQ: 0 UNCOVERED: 0
STLB COMMIT LATE MSHR PREFETCHES: 0
STLB MPKI TOTAL: 0 MSHR LATE: 0.158595 PQ LATE: 0 COMMIT LATE: 0 MISSED OPPORTUNITY: 0 UNCOVERED: 0
STLB PREFETCHES SAME FILL-ORIGIN LEVEL: 0 DIFFERENT FILL-ORIGIN LEVEL: 0
STLB AVERAGE MISS LATENCY: 149.829 cycles
STLB AVERAGE MISS LATENCY LOAD: -nan cycles
STLB AVERAGE MISS LATENCY PREFETCH: -nan cycles
STLB AVERAGE MSHR OCCUPANCY: 0.099274
STLB MSHR FULL: 0
STLB RQ	ACCESS:  100539473	FORWARD:          0	MERGED:   84329514	TO_CACHE:   16209959

STLB Hit, L1D data hit: 0
STLB Hit, L2C data hit: 0
STLB Hit, LLC data hit: 0
STLB Hit, LLC data miss: 0
STLB STLB hints to L2: 0
L0D SPEC fills:    9532425  NON-SPEC fills:          0
L0D TimeGuard Request with older TS:       6252 Restricted eviction:         94 read:       1239
L0D Test counter :          0
L0D Leapfrog:          0
L0D MSHR merge:    2180800
L0D TOTAL     ACCESS:   28023031  HIT:    1966738  MISS:   26056293  HIT %:    7.01829  MISS %:    92.9817   MPKI: 130.281
L0D LOAD      TOTAL       ACCESS:   28023031  HIT:    1966738  MISS:   26056293  HIT %:    7.01829  MISS %:    92.9817   MPKI: 130.281
L0D LOAD      NON_SPEC    ACCESS:   16552694  HIT:      28920  MISS:   16523774  HIT %:   0.174715  MISS %:    99.8253   MPKI: 82.6189
L0D LOAD      SPEC        ACCESS:   11470337  HIT:    1937818  MISS:    9532519  HIT %:    16.8942  MISS %:    83.1058   MPKI: 47.6626
L0D PREFETCH  REQUESTED:          0  ISSUED:          0  USEFUL:          0  USELESS:          0
L0D USEFUL LOAD PREFETCHES:          0 PREFETCH ISSUED TO LOWER LEVEL:          0  ACCURACY: -nan
L0D TIMELY PREFETCHES:          0 LATE PREFETCHES: 0 DROPPED PREFETCHES: 0
L0D COMMIT LATE PREFETCHES: 0 MISSED OPPORTUNITY: 0 LATE IN PQ: 0 UNCOVERED: 0
L0D COMMIT LATE MSHR PREFETCHES: 0
L0D MPKI TOTAL: 141.185 MSHR LATE: 0 PQ LATE: 0 COMMIT LATE: 0 MISSED OPPORTUNITY: 0 UNCOVERED: 0
L0D PREFETCHES SAME FILL-ORIGIN LEVEL: 0 DIFFERENT FILL-ORIGIN LEVEL: 0
L0D AVERAGE MISS LATENCY: 5.64213 cycles
L0D AVERAGE MISS LATENCY LOAD: 5.64213 cycles
L0D AVERAGE MISS LATENCY PREFETCH: -nan cycles
L0D AVERAGE MSHR OCCUPANCY: 0.265056
L0D MSHR FULL: 0
L0D RQ	ACCESS:   35804802	FORWARD:          0	MERGED:    5600972	TO_CACHE:   30203830
L0D WQ	ACCESS:    3375822	FORWARD:          0	MERGED:          0	TO_CACHE:    3375822

L1D SPEC fills:          0  NON-SPEC fills:      24858
L1D Test counter :      84068
L1D Leapfrog:          0
L1D MSHR merge:      59708
L1D TOTAL     ACCESS:  108584388  HIT:  104623419  MISS:    3960969  HIT %:    96.3522  MISS %:    3.64783   MPKI: 19.8048
L1D LOAD      TOTAL       ACCESS:   26056293  HIT:   25936795  MISS:     119498  HIT %:    99.5414  MISS %:   0.458615   MPKI: 0.59749
L1D LOAD      NON_SPEC    ACCESS:   16523774  HIT:   16498916  MISS:      24858  HIT %:    99.8496  MISS %:   0.150438   MPKI: 0.12429
L1D LOAD      SPEC        ACCESS:    9532519  HIT:    9437879  MISS:      94640  HIT %:    99.0072  MISS %:   0.992812   MPKI: 0.4732
L1D RFO       NON_SPEC    ACCESS:    3375823  HIT:    3375821  MISS:          2  HIT %:    99.9999  MISS %: 5.92448e-05   MPKI: 1e-05
L1D PREFETCH  NON_SPEC    ACCESS:   78829809  HIT:   75067986  MISS:    3761823  HIT %:    95.2279  MISS %:    4.77208   MPKI: 18.8091
L1D COMMIT LOAD NON_SPEC    ACCESS:     225108  HIT:     225108  MISS:          0  HIT %:        100  MISS %:          0   MPKI: 0
L1D COMMIT WRITE NON_SPEC    ACCESS:      97355  HIT:      17709  MISS:      79646  HIT %:    18.1901  MISS %:    81.8099   MPKI: 0.39823
L1D PREFETCH  REQUESTED:  283953435  ISSUED:  220696576  USEFUL:    3760235  USELESS:       1573
L1D USEFUL LOAD PREFETCHES:    3760235 PREFETCH ISSUED TO LOWER LEVEL:   18010116  ACCURACY: 20.8785
L1D TIMELY PREFETCHES:    3760235 LATE PREFETCHES: 59708 DROPPED PREFETCHES: 2647148
L1D COMMIT LATE PREFETCHES: 0 MISSED OPPORTUNITY: 0 LATE IN PQ: 0 UNCOVERED: 0
L1D COMMIT LATE MSHR PREFETCHES: 0
L1D MPKI TOTAL: 0.59749 MSHR LATE: 0.29854 PQ LATE: 0 COMMIT LATE: 0 MISSED OPPORTUNITY: 0 UNCOVERED: 0
L1D PREFETCHES SAME FILL-ORIGIN LEVEL: 3821533 DIFFERENT FILL-ORIGIN LEVEL: 14188583
L1D AVERAGE MISS LATENCY: 78.6751 cycles
L1D AVERAGE MISS LATENCY LOAD: 138.086 cycles
L1D AVERAGE MISS LATENCY PREFETCH: 78.4535 cycles
L1D AVERAGE MSHR OCCUPANCY: 1.15805
L1D MSHR FULL: 0
L1D RQ	ACCESS:   26654252	FORWARD:          0	MERGED:     372852	TO_CACHE:   26281400
L1D WQ	ACCESS:    3473178	FORWARD:          0	MERGED:          0	TO_CACHE:    3473178
L1D PQ	ACCESS:  220696576	FORWARD:          0	MERGED:  120217758	TO_CACHE:  100478818

L1D UNIQUE REGIONS ACCESSED: 0
L1D REGIONS CONFLICTS: 0
L1D Cross Page Prefetch Requests: 19816233
L1D Same Page Prefetch Requests: 228765757
L1D ROI Sum of L1D PQ occupancy: 2043687792
L1D PREFETCHES PUSHED FROM L2C: 0
L1I SPEC fills:          0  NON-SPEC fills:          0
L1I Test counter :          0
L1I Leapfrog:          0
L1I MSHR merge:          1
L1I TOTAL     ACCESS:   34848001  HIT:   34847994  MISS:          7  HIT %:        100  MISS %: 2.00872e-05   MPKI: 3.5e-05
L1I LOAD      TOTAL       ACCESS:   34848001  HIT:   34847994  MISS:          7  HIT %:        100  MISS %: 2.00872e-05   MPKI: 3.5e-05
L1I LOAD      NON_SPEC    ACCESS:   34848001  HIT:   34847994  MISS:          7  HIT %:        100  MISS %: 2.00872e-05   MPKI: 3.5e-05
L1I PREFETCH  REQUESTED:          0  ISSUED:          0  USEFUL:          0  USELESS:          0
L1I USEFUL LOAD PREFETCHES:          0 PREFETCH ISSUED TO LOWER LEVEL:          0  ACCURACY: -nan
L1I TIMELY PREFETCHES:          0 LATE PREFETCHES: 0 DROPPED PREFETCHES: 0
L1I COMMIT LATE PREFETCHES: 0 MISSED OPPORTUNITY: 0 LATE IN PQ: 0 UNCOVERED: 0
L1I COMMIT LATE MSHR PREFETCHES: 0
L1I MPKI TOTAL: 4e-05 MSHR LATE: 0 PQ LATE: 0 COMMIT LATE: 0 MISSED OPPORTUNITY: 0 UNCOVERED: 0
L1I PREFETCHES SAME FILL-ORIGIN LEVEL: 0 DIFFERENT FILL-ORIGIN LEVEL: 0
L1I AVERAGE MISS LATENCY: 214.143 cycles
L1I AVERAGE MISS LATENCY LOAD: 214.143 cycles
L1I AVERAGE MISS LATENCY PREFETCH: -nan cycles
L1I AVERAGE MSHR OCCUPANCY: 1.4348e-07
L1I MSHR FULL: 0
L1I RQ	ACCESS:   43870913	FORWARD:          0	MERGED:    9022910	TO_CACHE:   34848003

BTB SPEC fills:          0  NON-SPEC fills:          0
BTB Test counter :          0
BTB Leapfrog:          0
BTB MSHR merge:          0
BTB TOTAL     ACCESS:   30088184  HIT:   30088173  MISS:         11  HIT %:        100  MISS %: 3.65592e-05   MPKI: 5.5e-05
BTB BRANCH_DIRECT_JUMP	ACCESS:    1387292  HIT:    1387290  MISS:          2
BTB BRANCH_INDIRECT	ACCESS:          0  HIT:          0  MISS:          0
BTB BRANCH_CONDITIONAL	ACCESS:   28700892  HIT:   28700883  MISS:          9
BTB BRANCH_DIRECT_CALL	ACCESS:          0  HIT:          0  MISS:          0
BTB BRANCH_INDIRECT_CALL	ACCESS:          0  HIT:          0  MISS:          0
BTB BRANCH_RETURN	ACCESS:          0  HIT:          0  MISS:          0
BTB BRANCH_OTHER ACCESS:          0  HIT:          0  MISS:          0

L2C SPEC fills:          0  NON-SPEC fills:      24147
L2C Test counter :      83966
L2C Leapfrog:          0
L2C MSHR merge:       1256
L2C TOTAL     ACCESS:   14603884  HIT:   10709472  MISS:    3894412  HIT %:     73.333  MISS %:     26.667   MPKI: 19.4721
L2C LOAD      TOTAL       ACCESS:      59797  HIT:      10271  MISS:      49526  HIT %:    17.1764  MISS %:    82.8236   MPKI: 0.24763
L2C LOAD      NON_SPEC    ACCESS:      24188  HIT:         34  MISS:      24154  HIT %:   0.140566  MISS %:    99.8594   MPKI: 0.12077
L2C LOAD      SPEC        ACCESS:      35609  HIT:      10237  MISS:      25372  HIT %:    28.7484  MISS %:    71.2516   MPKI: 0.12686
L2C RFO       NON_SPEC    ACCESS:          2  HIT:          0  MISS:          2  HIT %:          0  MISS %:        100   MPKI: 1e-05
L2C PREFETCH  NON_SPEC    ACCESS:   10756126  HIT:    6942202  MISS:    3813924  HIT %:    64.5418  MISS %:    35.4582   MPKI: 19.0696
L2C WRITEBACK NON_SPEC    ACCESS:          3  HIT:          1  MISS:          2  HIT %:    33.3333  MISS %:    66.6667   MPKI: 1e-05
L2C CLEAN_EVICTION NON_SPEC    ACCESS:      84068  HIT:      60673  MISS:      23395  HIT %:    72.1713  MISS %:    27.8287   MPKI: 0.116975
L2C LOAD TRANSLATION NON_SPEC    ACCESS:     210379  HIT:     210371  MISS:          8  HIT %:    99.9962  MISS %: 0.00380266   MPKI: 4e-05
L2C TRANSLATION FROM L1D PREFETCHER NON_SPEC    ACCESS:    3493509  HIT:    3485954  MISS:       7555  HIT %:    99.7837  MISS %:   0.216258   MPKI: 0.037775
L2C PREFETCH  REQUESTED:          0  ISSUED:          0  USEFUL:      13120  USELESS:    3808444
L2C USEFUL LOAD PREFETCHES:      13120 PREFETCH ISSUED TO LOWER LEVEL:    3815184  ACCURACY: 0.343889
L2C TIMELY PREFETCHES:      13120 LATE PREFETCHES: 1256 DROPPED PREFETCHES: 0
L2C COMMIT LATE PREFETCHES: 0 MISSED OPPORTUNITY: 0 LATE IN PQ: 0 UNCOVERED: 0
L2C COMMIT LATE MSHR PREFETCHES: 0
L2C MPKI TOTAL: 0.24763 MSHR LATE: 0.00628 PQ LATE: 0 COMMIT LATE: 0 MISSED OPPORTUNITY: 0 UNCOVERED: 0
L2C PREFETCHES SAME FILL-ORIGIN LEVEL: 2370787 DIFFERENT FILL-ORIGIN LEVEL: 0
L2C AVERAGE MISS LATENCY: 167.637 cycles
L2C AVERAGE MISS LATENCY LOAD: 139.2 cycles
L2C AVERAGE MISS LATENCY PREFETCH: 168.955 cycles
L2C AVERAGE MSHR OCCUPANCY: 0.613591
L2C MSHR FULL: 0
L2C RQ	ACCESS:    3763687	FORWARD:          0	MERGED:          0	TO_CACHE:    3763687
L2C WQ	ACCESS:      84071	FORWARD:          0	MERGED:          0	TO_CACHE:      84071
L2C PQ	ACCESS:   18010116	FORWARD:          0	MERGED:       3174	TO_CACHE:   18006942

L2C Instructions Evicting Data 7
L2C Translations Evicting Data 7563
L2C Data Evicting Data 3830566
L2C Instructions Evicting Instructions 0
L2C Translations Evicting Instructions 0
L2C Data Evicting Instructions 7
L2C Instructions Evicting Translations 0
L2C Translations Evicting Translations 0
L2C Data Evicting Translations 7500
L2C Dense regions hint from L2: 0
PSCL5 SPEC fills:          0  NON-SPEC fills:          0
PSCL5 Test counter :          0
PSCL5 Leapfrog:          0
PSCL5 MSHR merge:          0
PSCL5 TOTAL     ACCESS:          0  HIT:          0  MISS:          0  HIT %:       -nan  MISS %:       -nan   MPKI: 0
PSCL5 PREFETCH  REQUESTED:          0  ISSUED:          0  USEFUL:          0  USELESS:          0
PSCL5 USEFUL LOAD PREFETCHES:          0 PREFETCH ISSUED TO LOWER LEVEL:          0  ACCURACY: -nan
PSCL5 TIMELY PREFETCHES:          0 LATE PREFETCHES: 0 DROPPED PREFETCHES: 0
PSCL5 COMMIT LATE PREFETCHES: 0 MISSED OPPORTUNITY: 0 LATE IN PQ: 0 UNCOVERED: 0
PSCL5 COMMIT LATE MSHR PREFETCHES: 0
PSCL5 MPKI TOTAL: 0 MSHR LATE: 0 PQ LATE: 0 COMMIT LATE: 0 MISSED OPPORTUNITY: 0 UNCOVERED: 0
PSCL5 PREFETCHES SAME FILL-ORIGIN LEVEL: 0 DIFFERENT FILL-ORIGIN LEVEL: 0

PSCL4 SPEC fills:          0  NON-SPEC fills:          0
PSCL4 Test counter :          0
PSCL4 Leapfrog:          0
PSCL4 MSHR merge:          0
PSCL4 TOTAL     ACCESS:          0  HIT:          0  MISS:          0  HIT %:       -nan  MISS %:       -nan   MPKI: 0
PSCL4 PREFETCH  REQUESTED:          0  ISSUED:          0  USEFUL:          0  USELESS:          0
PSCL4 USEFUL LOAD PREFETCHES:          0 PREFETCH ISSUED TO LOWER LEVEL:          0  ACCURACY: -nan
PSCL4 TIMELY PREFETCHES:          0 LATE PREFETCHES: 0 DROPPED PREFETCHES: 0
PSCL4 COMMIT LATE PREFETCHES: 0 MISSED OPPORTUNITY: 0 LATE IN PQ: 0 UNCOVERED: 0
PSCL4 COMMIT LATE MSHR PREFETCHES: 0
PSCL4 MPKI TOTAL: 0 MSHR LATE: 0 PQ LATE: 0 COMMIT LATE: 0 MISSED OPPORTUNITY: 0 UNCOVERED: 0
PSCL4 PREFETCHES SAME FILL-ORIGIN LEVEL: 0 DIFFERENT FILL-ORIGIN LEVEL: 0

PSCL3 SPEC fills:          0  NON-SPEC fills:          0
PSCL3 Test counter :          0
PSCL3 Leapfrog:          0
PSCL3 MSHR merge:          0
PSCL3 TOTAL     ACCESS:          0  HIT:          0  MISS:          0  HIT %:       -nan  MISS %:       -nan   MPKI: 0
PSCL3 PREFETCH  REQUESTED:          0  ISSUED:          0  USEFUL:          0  USELESS:          0
PSCL3 USEFUL LOAD PREFETCHES:          0 PREFETCH ISSUED TO LOWER LEVEL:          0  ACCURACY: -nan
PSCL3 TIMELY PREFETCHES:          0 LATE PREFETCHES: 0 DROPPED PREFETCHES: 0
PSCL3 COMMIT LATE PREFETCHES: 0 MISSED OPPORTUNITY: 0 LATE IN PQ: 0 UNCOVERED: 0
PSCL3 COMMIT LATE MSHR PREFETCHES: 0
PSCL3 MPKI TOTAL: 0 MSHR LATE: 0 PQ LATE: 0 COMMIT LATE: 0 MISSED OPPORTUNITY: 0 UNCOVERED: 0
PSCL3 PREFETCHES SAME FILL-ORIGIN LEVEL: 0 DIFFERENT FILL-ORIGIN LEVEL: 0

PSCL2 SPEC fills:          0  NON-SPEC fills:          0
PSCL2 Test counter :          0
PSCL2 Leapfrog:          0
PSCL2 MSHR merge:          0
PSCL2 TOTAL     ACCESS:          0  HIT:          0  MISS:          0  HIT %:       -nan  MISS %:       -nan   MPKI: 0
PSCL2 PREFETCH  REQUESTED:          0  ISSUED:          0  USEFUL:          0  USELESS:          0
PSCL2 USEFUL LOAD PREFETCHES:          0 PREFETCH ISSUED TO LOWER LEVEL:          0  ACCURACY: -nan
PSCL2 TIMELY PREFETCHES:          0 LATE PREFETCHES: 0 DROPPED PREFETCHES: 0
PSCL2 COMMIT LATE PREFETCHES: 0 MISSED OPPORTUNITY: 0 LATE IN PQ: 0 UNCOVERED: 0
PSCL2 COMMIT LATE MSHR PREFETCHES: 0
PSCL2 MPKI TOTAL: 0 MSHR LATE: 0 PQ LATE: 0 COMMIT LATE: 0 MISSED OPPORTUNITY: 0 UNCOVERED: 0
PSCL2 PREFETCHES SAME FILL-ORIGIN LEVEL: 0 DIFFERENT FILL-ORIGIN LEVEL: 0

LLC SPEC fills:          0  NON-SPEC fills:      23992
LLC Test counter :      82383
LLC Leapfrog:          0
LLC MSHR merge:          0
LLC TOTAL     ACCESS:    3954983  HIT:      64160  MISS:    3890823  HIT %:    1.62226  MISS %:    98.3777   MPKI: 19.4541
LLC LOAD      TOTAL       ACCESS:      48269  HIT:       1220  MISS:      47049  HIT %:     2.5275  MISS %:    97.4725   MPKI: 0.235245
LLC LOAD      NON_SPEC    ACCESS:      24054  HIT:         55  MISS:      23999  HIT %:   0.228652  MISS %:    99.7713   MPKI: 0.119995
LLC LOAD      SPEC        ACCESS:      24215  HIT:       1165  MISS:      23050  HIT %:    4.81107  MISS %:    95.1889   MPKI: 0.11525
LLC RFO       NON_SPEC    ACCESS:          2  HIT:          0  MISS:          2  HIT %:          0  MISS %:        100   MPKI: 1e-05
LLC PREFETCH  NON_SPEC    ACCESS:    3815180  HIT:          4  MISS:    3815176  HIT %: 0.000104844  MISS %:    99.9999   MPKI: 19.0759
LLC WRITEBACK NON_SPEC    ACCESS:          3  HIT:          1  MISS:          2  HIT %:    33.3333  MISS %:    66.6667   MPKI: 1e-05
LLC CLEAN_EVICTION NON_SPEC    ACCESS:      83966  HIT:      62935  MISS:      21031  HIT %:     74.953  MISS %:     25.047   MPKI: 0.105155
LLC LOAD TRANSLATION NON_SPEC    ACCESS:          8  HIT:          0  MISS:          8  HIT %:          0  MISS %:        100   MPKI: 4e-05
LLC TRANSLATION FROM L1D PREFETCHER NON_SPEC    ACCESS:       7555  HIT:          0  MISS:       7555  HIT %:          0  MISS %:        100   MPKI: 0.037775
LLC PREFETCH  REQUESTED:          0  ISSUED:          0  USEFUL:          0  USELESS:    3822993
LLC USEFUL LOAD PREFETCHES:          0 PREFETCH ISSUED TO LOWER LEVEL:    3815178  ACCURACY: 0
LLC TIMELY PREFETCHES:          0 LATE PREFETCHES: 0 DROPPED PREFETCHES: 0
LLC COMMIT LATE PREFETCHES: 0 MISSED OPPORTUNITY: 0 LATE IN PQ: 0 UNCOVERED: 0
LLC COMMIT LATE MSHR PREFETCHES: 0
LLC MPKI TOTAL: 0.235245 MSHR LATE: 0 PQ LATE: 0 COMMIT LATE: 0 MISSED OPPORTUNITY: 0 UNCOVERED: 0
LLC PREFETCHES SAME FILL-ORIGIN LEVEL: 0 DIFFERENT FILL-ORIGIN LEVEL: 0
LLC AVERAGE MISS LATENCY: 137.949 cycles
LLC AVERAGE MISS LATENCY LOAD: 116.108 cycles
LLC AVERAGE MISS LATENCY PREFETCH: 138.9 cycles
LLC AVERAGE MSHR OCCUPANCY: 1.01852
LLC MSHR FULL: 0
LLC RQ	ACCESS:      55835	FORWARD:          0	MERGED:          0	TO_CACHE:      55834
LLC WQ	ACCESS:      83969	FORWARD:          1	MERGED:          0	TO_CACHE:      83969
LLC PQ	ACCESS:    3815184	FORWARD:          0	MERGED:          0	TO_CACHE:    3815184

LLC Dense regions hint to LLC: 0

RAW hits: 1
Loads Generated: 35804805
Loads sent to L1D: 35804802
Stores Generated: 3375822
Stores sent to L1D: 3375822
Major fault: 0 Minor fault: 62153
Allocated PAGES: 62153
Total Load insts: 43892553
Total Non-spec loads: 16911716
Percentage of speculative loads: 61.4702

LeapFrogging counter: 0
Commit hits: 9530223 miss: 9721849
Commit hit %: 49.5023 miss %: 50.4977
Commits not translated: 0
Loads retired: 119498
Stores retired: 3375822
Cache fills: 119498
L1D response latency: 138.086 cycles
Load retirement latency: 238.371 cycles
OOO test counter: 0
Discarded buffer inserts: 9530223 hits: 5980 hit %: 0.0627477
Filter prediction accuracy: 0.99998
ALL MISSES SIZE: 5999
LATENCY_FILL: 135.159 119255
LATENCY_FILL_ROB: 151.106 119232
test counter pref: 2426623
Max ROB Extended: 9

DRAM Statistics
 CHANNEL 0
 RQ ROW_BUFFER_HIT:    2080328  ROW_BUFFER_MISS:    1789462
 DBUS_CONGESTED:      13607
 WQ ROW_BUFFER_HIT:      16437  ROW_BUFFER_MISS:      65948  FULL:          0

 AVG_CONGESTED_CYCLE: 4
 All warmup complete: 2
Channel 0 Bank busy for read cycles: 0
Channel 0 Bank busy for write cycles: 0
Channel 0
Rank 0
0banks busy for read cycles: 46080469
0banks busy for write cycles: 38122
1banks busy for read cycles: 78584994
1banks busy for write cycles: 12911029
2banks busy for read cycles: 43736781
2banks busy for write cycles: 19087442
3banks busy for read cycles: 31020549
3banks busy for write cycles: 5879140
4banks busy for read cycles: 16028577
4banks busy for write cycles: 916312
5banks busy for read cycles: 2288046
5banks busy for write cycles: 2833917
6banks busy for read cycles: 1392475
6banks busy for write cycles: 107438
7banks busy for read cycles: 571073
7banks busy for write cycles: 2929
8banks busy for read cycles: 3184417
8banks busy for write cycles: 4001

CPU 0 Branch Prediction Accuracy: 99.8669% MPKI: 0.223155 Average ROB Occupancy at Mispredict: 26.827
Branch types
NOT_BRANCH: 166478330 83.2392%
BRANCH_DIRECT_JUMP: 1387292 0.693646%
BRANCH_INDIRECT: 0 0%
BRANCH_CONDITIONAL: 32134342 16.0672%
BRANCH_DIRECT_CALL: 0 0%
BRANCH_INDIRECT_CALL: 0 0%
BRANCH_RETURN: 0 0%
BRANCH_OTHER: 0 0%

DRAM PAGES: 1048576
Allocated PAGES: 62153
