
*** ChampSim Multicore Out-of-Order Simulator ***

Warmup Instructions: 50000000
Simulation Instructions: 200000000
Number of CPUs: 1
LLC sets: 2048
LLC ways: 16
L0D sets: 16
L0D ways: 2
ROB size: 352
LQ size: 128
SQ size: 72
Secure Berti: ON
Berti: ON
Berti Fill: ON
On commit prefetching: OFF
Hit-based filter: ON
Time-guarding: ON
Free-slotting: ON
Leap-frogging: ON
Train prefetcher on L0D bypass: OFF
No translation penalty for prefetchers: OFF
Prefetch to L0D only: OFF
Prefetch to L1D only: OFF
Clean evictions: ON
Commit loads: ON
Commit write: ON
Fill commit loads to L2C, LLC: ON
DRAM IO FREQUENCY: 6400
ROB SIZE: 352
Off-chip DRAM Size: 4096 MB Channels: 1 Width: 64-bit Data Rate: 6400 MT/s
CPU 0 runs /home/sumon/secure_berti/GhostMinion/../../traces/spec/605.mcf_s-665B.champsimtrace.xz
.xz
BTB has LRU replacement policy
ITLB has LRU replacement policy
DTLB has LRU replacement policy
STLB has LRU replacement policy
L1I has LRU replacement policy
L0D has LRU replacement policy
Berti version on_commit
History Sets: 8
History Ways: 16
BERTI Size: 16
BERTI Stride Size: 16
L1D has LRU replacement policy
L2C has LRU replacement policy
LLC has LRU replacement policy
Heartbeat CPU 0 instructions: 10000000 cycles: 5672840 heartbeat IPC: 1.76279 cumulative IPC: 1.76279 (Simulation time: 0 hr 0 min 47 sec) 
Heartbeat CPU 0 instructions: 20000000 cycles: 11334106 heartbeat IPC: 1.76639 cumulative IPC: 1.76459 (Simulation time: 0 hr 1 min 34 sec) 
Heartbeat CPU 0 instructions: 30000002 cycles: 17001230 heartbeat IPC: 1.76456 cumulative IPC: 1.76458 (Simulation time: 0 hr 2 min 20 sec) 
Heartbeat CPU 0 instructions: 40000000 cycles: 22645100 heartbeat IPC: 1.77183 cumulative IPC: 1.76639 (Simulation time: 0 hr 3 min 7 sec) 
Heartbeat CPU 0 instructions: 50000000 cycles: 28315482 heartbeat IPC: 1.76355 cumulative IPC: 1.76582 (Simulation time: 0 hr 3 min 55 sec) 

Warmup complete CPU 0 instructions: 50000004 cycles: 28315483 (Simulation time: 0 hr 3 min 55 sec) 

Heartbeat CPU 0 instructions: 60000003 cycles: 60994180 heartbeat IPC: 0.30601 cumulative IPC: 0.30601 (Simulation time: 0 hr 4 min 49 sec) 
Heartbeat CPU 0 instructions: 70000003 cycles: 93535491 heartbeat IPC: 0.307302 cumulative IPC: 0.306654 (Simulation time: 0 hr 5 min 43 sec) 
Heartbeat CPU 0 instructions: 80000001 cycles: 126098920 heartbeat IPC: 0.307093 cumulative IPC: 0.3068 (Simulation time: 0 hr 6 min 37 sec) 
Heartbeat CPU 0 instructions: 90000001 cycles: 159479768 heartbeat IPC: 0.299573 cumulative IPC: 0.304961 (Simulation time: 0 hr 7 min 31 sec) 
Heartbeat CPU 0 instructions: 100000000 cycles: 191820734 heartbeat IPC: 0.309205 cumulative IPC: 0.305801 (Simulation time: 0 hr 8 min 24 sec) 
Heartbeat CPU 0 instructions: 110000000 cycles: 224202860 heartbeat IPC: 0.308812 cumulative IPC: 0.306298 (Simulation time: 0 hr 9 min 17 sec) 
Heartbeat CPU 0 instructions: 120000000 cycles: 256400306 heartbeat IPC: 0.310584 cumulative IPC: 0.306903 (Simulation time: 0 hr 10 min 10 sec) 
Heartbeat CPU 0 instructions: 130000000 cycles: 288535876 heartbeat IPC: 0.311182 cumulative IPC: 0.307432 (Simulation time: 0 hr 11 min 3 sec) 
Heartbeat CPU 0 instructions: 140000002 cycles: 321342694 heartbeat IPC: 0.304815 cumulative IPC: 0.307139 (Simulation time: 0 hr 11 min 56 sec) 
Heartbeat CPU 0 instructions: 150000000 cycles: 353927109 heartbeat IPC: 0.306895 cumulative IPC: 0.307114 (Simulation time: 0 hr 12 min 51 sec) 
Heartbeat CPU 0 instructions: 160000001 cycles: 386313501 heartbeat IPC: 0.308772 cumulative IPC: 0.307264 (Simulation time: 0 hr 13 min 46 sec) 
Heartbeat CPU 0 instructions: 170000003 cycles: 419168908 heartbeat IPC: 0.304364 cumulative IPC: 0.30702 (Simulation time: 0 hr 14 min 42 sec) 
Heartbeat CPU 0 instructions: 180000001 cycles: 451539455 heartbeat IPC: 0.308923 cumulative IPC: 0.307166 (Simulation time: 0 hr 15 min 36 sec) 
Heartbeat CPU 0 instructions: 190000002 cycles: 483952160 heartbeat IPC: 0.308521 cumulative IPC: 0.307262 (Simulation time: 0 hr 16 min 26 sec) 
Heartbeat CPU 0 instructions: 200000000 cycles: 516465584 heartbeat IPC: 0.307565 cumulative IPC: 0.307283 (Simulation time: 0 hr 17 min 13 sec) 
Heartbeat CPU 0 instructions: 210000000 cycles: 548862961 heartbeat IPC: 0.308667 cumulative IPC: 0.307369 (Simulation time: 0 hr 17 min 57 sec) 
Heartbeat CPU 0 instructions: 220000000 cycles: 580982061 heartbeat IPC: 0.311341 cumulative IPC: 0.3076 (Simulation time: 0 hr 18 min 38 sec) 
Heartbeat CPU 0 instructions: 230000000 cycles: 614096246 heartbeat IPC: 0.301985 cumulative IPC: 0.307282 (Simulation time: 0 hr 19 min 19 sec) 
Heartbeat CPU 0 instructions: 240000000 cycles: 646229686 heartbeat IPC: 0.311202 cumulative IPC: 0.307486 (Simulation time: 0 hr 20 min 0 sec) 
Heartbeat CPU 0 instructions: 250000002 cycles: 678575273 heartbeat IPC: 0.309161 cumulative IPC: 0.307569 (Simulation time: 0 hr 20 min 40 sec) 
Finished CPU 0 instructions: 200000002 cycles: 650259791 cumulative IPC: 0.307569 (Simulation time: 0 hr 20 min 40 sec) 
 Instruction ID: 250000015

ChampSim completed all CPUs

Region of Interest Statistics

CPU 0 cumulative IPC: 0.307569 instructions: 200000002 cycles: 650259791
ITLB SPEC fills:          0  NON-SPEC fills:          0
ITLB Test counter :          0
ITLB Leapfrog:          0
ITLB MSHR merge:          0
ITLB TOTAL     ACCESS:   36305865  HIT:   36305865  MISS:          0  HIT %:        100  MISS %:          0   MPKI: 0
ITLB LOAD TRANSLATION NON_SPEC    ACCESS:   36305865  HIT:   36305865  MISS:          0  HIT %:        100  MISS %:          0   MPKI: 0
ITLB PREFETCH  REQUESTED:          0  ISSUED:          0  USEFUL:          0  USELESS:          0
ITLB USEFUL LOAD PREFETCHES:          0 PREFETCH ISSUED TO LOWER LEVEL:          0  ACCURACY: -nan
ITLB TIMELY PREFETCHES:          0 LATE PREFETCHES: 0 DROPPED PREFETCHES: 0
ITLB COMMIT LATE PREFETCHES: 0 MISSED OPPORTUNITY: 0 LATE IN PQ: 0 UNCOVERED: 0
ITLB COMMIT LATE MSHR PREFETCHES: 0
ITLB MPKI TOTAL: 0 MSHR LATE: 0 PQ LATE: 0 COMMIT LATE: 0 MISSED OPPORTUNITY: 0 UNCOVERED: 0
ITLB PREFETCHES SAME FILL-ORIGIN LEVEL: 0 DIFFERENT FILL-ORIGIN LEVEL: 0
ITLB AVERAGE MISS LATENCY: -nan cycles
ITLB AVERAGE MISS LATENCY LOAD: -nan cycles
ITLB AVERAGE MISS LATENCY PREFETCH: -nan cycles
ITLB AVERAGE MSHR OCCUPANCY: 0
ITLB MSHR FULL: 0
ITLB RQ	ACCESS:   38010996	FORWARD:          0	MERGED:    1705132	TO_CACHE:   36305864

DTLB SPEC fills:          0  NON-SPEC fills:          0
DTLB Test counter :          0
DTLB Leapfrog:          0
DTLB MSHR merge:          0
DTLB TOTAL     ACCESS:   67953543  HIT:   64957961  MISS:    2995582  HIT %:    95.5917  MISS %:    4.40828   MPKI: 14.9779
DTLB LOAD TRANSLATION NON_SPEC    ACCESS:   67953543  HIT:   64957961  MISS:    2995582  HIT %:    95.5917  MISS %:    4.40828   MPKI: 14.9779
DTLB PREFETCH  REQUESTED:          0  ISSUED:          0  USEFUL:          0  USELESS:          0
DTLB USEFUL LOAD PREFETCHES:          0 PREFETCH ISSUED TO LOWER LEVEL:          0  ACCURACY: -nan
DTLB TIMELY PREFETCHES:          0 LATE PREFETCHES: 0 DROPPED PREFETCHES: 0
DTLB COMMIT LATE PREFETCHES: 0 MISSED OPPORTUNITY: 0 LATE IN PQ: 0 UNCOVERED: 0
DTLB COMMIT LATE MSHR PREFETCHES: 0
DTLB MPKI TOTAL: 0 MSHR LATE: 0 PQ LATE: 0 COMMIT LATE: 0 MISSED OPPORTUNITY: 0 UNCOVERED: 0
DTLB PREFETCHES SAME FILL-ORIGIN LEVEL: 0 DIFFERENT FILL-ORIGIN LEVEL: 0
DTLB AVERAGE MISS LATENCY: 11.171 cycles
DTLB AVERAGE MISS LATENCY LOAD: -nan cycles
DTLB AVERAGE MISS LATENCY PREFETCH: -nan cycles
DTLB AVERAGE MSHR OCCUPANCY: 0.0256461
DTLB MSHR FULL: 0
DTLB RQ	ACCESS:   82039506	FORWARD:          0	MERGED:   13702694	TO_CACHE:   68336812

STLB SPEC fills:          0  NON-SPEC fills:          0
STLB Test counter :          0
STLB Leapfrog:          0
STLB MSHR merge:          0
STLB TOTAL     ACCESS:   10376631  HIT:   10334496  MISS:      42135  HIT %:    99.5939  MISS %:   0.406057   MPKI: 0.210675
STLB LOAD TRANSLATION NON_SPEC    ACCESS:    2995582  HIT:    2953602  MISS:      41980  HIT %:    98.5986  MISS %:     1.4014   MPKI: 0.2099
STLB TRANSLATION FROM L1D PREFETCHER NON_SPEC    ACCESS:    7381049  HIT:    7380894  MISS:        155  HIT %:    99.9979  MISS %: 0.00209997   MPKI: 0.000775
STLB PREFETCH  REQUESTED:          0  ISSUED:          0  USEFUL:         97  USELESS:         59
STLB USEFUL LOAD PREFETCHES:         97 PREFETCH ISSUED TO LOWER LEVEL:          0  ACCURACY: inf
STLB TIMELY PREFETCHES:         97 LATE PREFETCHES: 9745 DROPPED PREFETCHES: 749880
STLB COMMIT LATE PREFETCHES: 0 MISSED OPPORTUNITY: 0 LATE IN PQ: 0 UNCOVERED: 0
STLB COMMIT LATE MSHR PREFETCHES: 0
STLB MPKI TOTAL: 0 MSHR LATE: 0.048725 PQ LATE: 0 COMMIT LATE: 0 MISSED OPPORTUNITY: 0 UNCOVERED: 0
STLB PREFETCHES SAME FILL-ORIGIN LEVEL: 0 DIFFERENT FILL-ORIGIN LEVEL: 0
STLB AVERAGE MISS LATENCY: 152.096 cycles
STLB AVERAGE MISS LATENCY LOAD: -nan cycles
STLB AVERAGE MISS LATENCY PREFETCH: -nan cycles
STLB AVERAGE MSHR OCCUPANCY: 0.152279
STLB MSHR FULL: 0
STLB RQ	ACCESS:   38799930	FORWARD:          0	MERGED:   27575943	TO_CACHE:   11223987

STLB Hit, L1D data hit: 0
STLB Hit, L2C data hit: 0
STLB Hit, LLC data hit: 0
STLB Hit, LLC data miss: 0
STLB STLB hints to L2: 0
L0D SPEC fills:   34432070  NON-SPEC fills:          0
L0D TimeGuard Request with older TS:     160878 Restricted eviction:      69749 read:     227048
L0D Test counter :          0
L0D Leapfrog:          0
L0D MSHR merge:     951446
L0D TOTAL     ACCESS:   57413682  HIT:    3952772  MISS:   53460910  HIT %:    6.88472  MISS %:    93.1153   MPKI: 267.305
L0D LOAD      TOTAL       ACCESS:   57413682  HIT:    3952772  MISS:   53460910  HIT %:    6.88472  MISS %:    93.1153   MPKI: 267.305
L0D LOAD      NON_SPEC    ACCESS:   19467281  HIT:     508190  MISS:   18959091  HIT %:    2.61048  MISS %:    97.3895   MPKI: 94.7955
L0D LOAD      SPEC        ACCESS:   37946401  HIT:    3444582  MISS:   34501819  HIT %:    9.07749  MISS %:    90.9225   MPKI: 172.509
L0D PREFETCH  REQUESTED:          0  ISSUED:          0  USEFUL:          0  USELESS:          0
L0D USEFUL LOAD PREFETCHES:          0 PREFETCH ISSUED TO LOWER LEVEL:          0  ACCURACY: -nan
L0D TIMELY PREFETCHES:          0 LATE PREFETCHES: 0 DROPPED PREFETCHES: 0
L0D COMMIT LATE PREFETCHES: 0 MISSED OPPORTUNITY: 0 LATE IN PQ: 0 UNCOVERED: 0
L0D COMMIT LATE MSHR PREFETCHES: 0
L0D MPKI TOTAL: 272.062 MSHR LATE: 0 PQ LATE: 0 COMMIT LATE: 0 MISSED OPPORTUNITY: 0 UNCOVERED: 0
L0D PREFETCHES SAME FILL-ORIGIN LEVEL: 0 DIFFERENT FILL-ORIGIN LEVEL: 0
L0D AVERAGE MISS LATENCY: 9.78129 cycles
L0D AVERAGE MISS LATENCY LOAD: 9.78129 cycles
L0D AVERAGE MISS LATENCY PREFETCH: -nan cycles
L0D AVERAGE MSHR OCCUPANCY: 0.626083
L0D MSHR FULL: 0.00185589
L0D RQ	ACCESS:   67402282	FORWARD:          0	MERGED:    9037157	TO_CACHE:   58365125
L0D WQ	ACCESS:   23674381	FORWARD:          0	MERGED:          0	TO_CACHE:   23674381

L1D SPEC fills:          0  NON-SPEC fills:    2640468
L1D Test counter :    1508570
L1D Leapfrog:          0
L1D MSHR merge:      48114
L1D TOTAL     ACCESS:  106588953  HIT:   97359127  MISS:    9229826  HIT %:    91.3407  MISS %:    8.65927   MPKI: 46.1491
L1D LOAD      TOTAL       ACCESS:   53459181  HIT:   48610563  MISS:    4848618  HIT %:    90.9302  MISS %:    9.06976   MPKI: 24.2431
L1D LOAD      NON_SPEC    ACCESS:   18958835  HIT:   16318367  MISS:    2640468  HIT %:    86.0726  MISS %:    13.9274   MPKI: 13.2023
L1D LOAD      SPEC        ACCESS:   34500346  HIT:   32292196  MISS:    2208150  HIT %:    93.5996  MISS %:    6.40037   MPKI: 11.0407
L1D RFO       NON_SPEC    ACCESS:   22287042  HIT:   21532781  MISS:     754261  HIT %:    96.6157  MISS %:     3.3843   MPKI: 3.7713
L1D PREFETCH  NON_SPEC    ACCESS:   28246430  HIT:   26804632  MISS:    1441798  HIT %:    94.8956  MISS %:    5.10435   MPKI: 7.20899
L1D COMMIT LOAD NON_SPEC    ACCESS:     434725  HIT:     375226  MISS:      59499  HIT %:    86.3134  MISS %:    13.6866   MPKI: 0.297495
L1D COMMIT WRITE NON_SPEC    ACCESS:    2161575  HIT:      35925  MISS:    2125650  HIT %:    1.66198  MISS %:     98.338   MPKI: 10.6282
L1D PREFETCH  REQUESTED:   42903358  ISSUED:   38362551  USEFUL:    1426132  USELESS:      15664
L1D USEFUL LOAD PREFETCHES:    1426132 PREFETCH ISSUED TO LOWER LEVEL:    5646173  ACCURACY: 25.2584
L1D TIMELY PREFETCHES:    1426132 LATE PREFETCHES: 46683 DROPPED PREFETCHES: 2932952
L1D COMMIT LATE PREFETCHES: 0 MISSED OPPORTUNITY: 0 LATE IN PQ: 0 UNCOVERED: 0
L1D COMMIT LATE MSHR PREFETCHES: 0
L1D MPKI TOTAL: 24.2517 MSHR LATE: 0.233415 PQ LATE: 0 COMMIT LATE: 0 MISSED OPPORTUNITY: 0 UNCOVERED: 0
L1D PREFETCHES SAME FILL-ORIGIN LEVEL: 1488481 DIFFERENT FILL-ORIGIN LEVEL: 4157692
L1D AVERAGE MISS LATENCY: 51.3461 cycles
L1D AVERAGE MISS LATENCY LOAD: 51.4555 cycles
L1D AVERAGE MISS LATENCY PREFETCH: 138.938 cycles
L1D AVERAGE MSHR OCCUPANCY: 0.358024
L1D MSHR FULL: 0.00392687
L1D RQ	ACCESS:   54071101	FORWARD:          0	MERGED:     173209	TO_CACHE:   53896515
L1D WQ	ACCESS:   25835968	FORWARD:       1377	MERGED:     119812	TO_CACHE:   25716156
L1D PQ	ACCESS:   38362551	FORWARD:          0	MERGED:    2558203	TO_CACHE:   35804348

L1D UNIQUE REGIONS ACCESSED: 0
L1D REGIONS CONFLICTS: 0
L1D Cross Page Prefetch Requests: 6250824
L1D Same Page Prefetch Requests: 43763319
L1D ROI Sum of L1D PQ occupancy: 833870030
L1D PREFETCHES PUSHED FROM L2C: 0
L1I SPEC fills:          0  NON-SPEC fills:          0
L1I Test counter :          0
L1I Leapfrog:          0
L1I MSHR merge:          0
L1I TOTAL     ACCESS:   38010997  HIT:   38010995  MISS:          2  HIT %:        100  MISS %: 5.26164e-06   MPKI: 1e-05
L1I LOAD      TOTAL       ACCESS:   38010997  HIT:   38010995  MISS:          2  HIT %:        100  MISS %: 5.26164e-06   MPKI: 1e-05
L1I LOAD      NON_SPEC    ACCESS:   38010997  HIT:   38010995  MISS:          2  HIT %:        100  MISS %: 5.26164e-06   MPKI: 1e-05
L1I PREFETCH  REQUESTED:          0  ISSUED:          0  USEFUL:          0  USELESS:          0
L1I USEFUL LOAD PREFETCHES:          0 PREFETCH ISSUED TO LOWER LEVEL:          0  ACCURACY: -nan
L1I TIMELY PREFETCHES:          0 LATE PREFETCHES: 0 DROPPED PREFETCHES: 0
L1I COMMIT LATE PREFETCHES: 0 MISSED OPPORTUNITY: 0 LATE IN PQ: 0 UNCOVERED: 0
L1I COMMIT LATE MSHR PREFETCHES: 0
L1I MPKI TOTAL: 1e-05 MSHR LATE: 0 PQ LATE: 0 COMMIT LATE: 0 MISSED OPPORTUNITY: 0 UNCOVERED: 0
L1I PREFETCHES SAME FILL-ORIGIN LEVEL: 0 DIFFERENT FILL-ORIGIN LEVEL: 0
L1I AVERAGE MISS LATENCY: 214 cycles
L1I AVERAGE MISS LATENCY LOAD: 214 cycles
L1I AVERAGE MISS LATENCY PREFETCH: -nan cycles
L1I AVERAGE MSHR OCCUPANCY: 2.63082e-08
L1I MSHR FULL: 0
L1I RQ	ACCESS:   61773788	FORWARD:          0	MERGED:   23762792	TO_CACHE:   38010996

BTB SPEC fills:          0  NON-SPEC fills:          0
BTB Test counter :          0
BTB Leapfrog:          0
BTB MSHR merge:          0
BTB TOTAL     ACCESS:   47317450  HIT:   44887024  MISS:    2430426  HIT %:    94.8636  MISS %:    5.13643   MPKI: 12.1521
BTB BRANCH_DIRECT_JUMP	ACCESS:    5163667  HIT:    5163630  MISS:         37
BTB BRANCH_INDIRECT	ACCESS:          0  HIT:          0  MISS:          0
BTB BRANCH_CONDITIONAL	ACCESS:   31033862  HIT:   31033783  MISS:         79
BTB BRANCH_DIRECT_CALL	ACCESS:    5259751  HIT:    5259733  MISS:         18
BTB BRANCH_INDIRECT_CALL	ACCESS:     300210  HIT:     300202  MISS:          8
BTB BRANCH_RETURN	ACCESS:    5559960  HIT:    3129676  MISS:    2430284
BTB BRANCH_OTHER ACCESS:          0  HIT:          0  MISS:          0

L2C SPEC fills:          0  NON-SPEC fills:    1231859
L2C Test counter :    1421403
L2C Leapfrog:          0
L2C MSHR merge:       5196
L2C TOTAL     ACCESS:   17568679  HIT:   11630678  MISS:    5938001  HIT %:    66.2012  MISS %:    33.7988   MPKI: 29.69
L2C LOAD      TOTAL       ACCESS:    4802169  HIT:    2186088  MISS:    2616081  HIT %:    45.5229  MISS %:    54.4771   MPKI: 13.0804
L2C LOAD      NON_SPEC    ACCESS:    2639635  HIT:    1407774  MISS:    1231861  HIT %:    53.3321  MISS %:    46.6679   MPKI: 6.1593
L2C LOAD      SPEC        ACCESS:    2162534  HIT:     778314  MISS:    1384220  HIT %:    35.9908  MISS %:    64.0092   MPKI: 6.9211
L2C RFO       NON_SPEC    ACCESS:     754216  HIT:     441721  MISS:     312495  HIT %:    58.5669  MISS %:    41.4331   MPKI: 1.56247
L2C PREFETCH  NON_SPEC    ACCESS:    5577319  HIT:    3945796  MISS:    1631523  HIT %:    70.7472  MISS %:    29.2528   MPKI: 8.15761
L2C WRITEBACK NON_SPEC    ACCESS:     860338  HIT:     860336  MISS:          2  HIT %:    99.9998  MISS %: 0.000232467   MPKI: 1e-05
L2C CLEAN_EVICTION NON_SPEC    ACCESS:    1508570  HIT:     192572  MISS:    1315998  HIT %:    12.7652  MISS %:    87.2348   MPKI: 6.57999
L2C COMMIT LOAD NON_SPEC    ACCESS:      59200  HIT:      17348  MISS:      41852  HIT %:    29.3041  MISS %:    70.6959   MPKI: 0.20926
L2C LOAD TRANSLATION NON_SPEC    ACCESS:     209683  HIT:     192990  MISS:      16693  HIT %:    92.0389  MISS %:    7.96107   MPKI: 0.083465
L2C TRANSLATION FROM L1D PREFETCHER NON_SPEC    ACCESS:    3797184  HIT:    3793827  MISS:       3357  HIT %:    99.9116  MISS %:  0.0884076   MPKI: 0.016785
L2C PREFETCH  REQUESTED:          0  ISSUED:          0  USEFUL:     395388  USELESS:    1239554
L2C USEFUL LOAD PREFETCHES:     395388 PREFETCH ISSUED TO LOWER LEVEL:    1636911  ACCURACY: 24.1545
L2C TIMELY PREFETCHES:     395388 LATE PREFETCHES: 5388 DROPPED PREFETCHES: 0
L2C COMMIT LATE PREFETCHES: 0 MISSED OPPORTUNITY: 0 LATE IN PQ: 0 UNCOVERED: 0
L2C COMMIT LATE MSHR PREFETCHES: 0
L2C MPKI TOTAL: 13.0804 MSHR LATE: 0.02694 PQ LATE: 0 COMMIT LATE: 0 MISSED OPPORTUNITY: 0 UNCOVERED: 0
L2C PREFETCHES SAME FILL-ORIGIN LEVEL: 589262 DIFFERENT FILL-ORIGIN LEVEL: 0
L2C AVERAGE MISS LATENCY: 74.647 cycles
L2C AVERAGE MISS LATENCY LOAD: 68.3938 cycles
L2C AVERAGE MISS LATENCY PREFETCH: 153.726 cycles
L2C AVERAGE MSHR OCCUPANCY: 1.70278
L2C MSHR FULL: 4.93614e-05
L2C RQ	ACCESS:    9622564	FORWARD:          0	MERGED:          0	TO_CACHE:    9622452
L2C WQ	ACCESS:    2368909	FORWARD:        115	MERGED:          1	TO_CACHE:    2368908
L2C PQ	ACCESS:    5646173	FORWARD:          0	MERGED:        444	TO_CACHE:    5645726

L2C Instructions Evicting Data 2
L2C Translations Evicting Data 19918
L2C Data Evicting Data 3203793
L2C Instructions Evicting Instructions 0
L2C Translations Evicting Instructions 0
L2C Data Evicting Instructions 0
L2C Instructions Evicting Translations 0
L2C Translations Evicting Translations 132
L2C Data Evicting Translations 13936
L2C Dense regions hint from L2: 0
PSCL5 SPEC fills:          0  NON-SPEC fills:          0
PSCL5 Test counter :          0
PSCL5 Leapfrog:          0
PSCL5 MSHR merge:          0
PSCL5 TOTAL     ACCESS:          0  HIT:          0  MISS:          0  HIT %:       -nan  MISS %:       -nan   MPKI: 0
PSCL5 PREFETCH  REQUESTED:          0  ISSUED:          0  USEFUL:          0  USELESS:          0
PSCL5 USEFUL LOAD PREFETCHES:          0 PREFETCH ISSUED TO LOWER LEVEL:          0  ACCURACY: -nan
PSCL5 TIMELY PREFETCHES:          0 LATE PREFETCHES: 0 DROPPED PREFETCHES: 0
PSCL5 COMMIT LATE PREFETCHES: 0 MISSED OPPORTUNITY: 0 LATE IN PQ: 0 UNCOVERED: 0
PSCL5 COMMIT LATE MSHR PREFETCHES: 0
PSCL5 MPKI TOTAL: 0 MSHR LATE: 0 PQ LATE: 0 COMMIT LATE: 0 MISSED OPPORTUNITY: 0 UNCOVERED: 0
PSCL5 PREFETCHES SAME FILL-ORIGIN LEVEL: 0 DIFFERENT FILL-ORIGIN LEVEL: 0

PSCL4 SPEC fills:          0  NON-SPEC fills:          0
PSCL4 Test counter :          0
PSCL4 Leapfrog:          0
PSCL4 MSHR merge:          0
PSCL4 TOTAL     ACCESS:          0  HIT:          0  MISS:          0  HIT %:       -nan  MISS %:       -nan   MPKI: 0
PSCL4 PREFETCH  REQUESTED:          0  ISSUED:          0  USEFUL:          0  USELESS:          0
PSCL4 USEFUL LOAD PREFETCHES:          0 PREFETCH ISSUED TO LOWER LEVEL:          0  ACCURACY: -nan
PSCL4 TIMELY PREFETCHES:          0 LATE PREFETCHES: 0 DROPPED PREFETCHES: 0
PSCL4 COMMIT LATE PREFETCHES: 0 MISSED OPPORTUNITY: 0 LATE IN PQ: 0 UNCOVERED: 0
PSCL4 COMMIT LATE MSHR PREFETCHES: 0
PSCL4 MPKI TOTAL: 0 MSHR LATE: 0 PQ LATE: 0 COMMIT LATE: 0 MISSED OPPORTUNITY: 0 UNCOVERED: 0
PSCL4 PREFETCHES SAME FILL-ORIGIN LEVEL: 0 DIFFERENT FILL-ORIGIN LEVEL: 0

PSCL3 SPEC fills:          0  NON-SPEC fills:          0
PSCL3 Test counter :          0
PSCL3 Leapfrog:          0
PSCL3 MSHR merge:          0
PSCL3 TOTAL     ACCESS:          0  HIT:          0  MISS:          0  HIT %:       -nan  MISS %:       -nan   MPKI: 0
PSCL3 PREFETCH  REQUESTED:          0  ISSUED:          0  USEFUL:          0  USELESS:          0
PSCL3 USEFUL LOAD PREFETCHES:          0 PREFETCH ISSUED TO LOWER LEVEL:          0  ACCURACY: -nan
PSCL3 TIMELY PREFETCHES:          0 LATE PREFETCHES: 0 DROPPED PREFETCHES: 0
PSCL3 COMMIT LATE PREFETCHES: 0 MISSED OPPORTUNITY: 0 LATE IN PQ: 0 UNCOVERED: 0
PSCL3 COMMIT LATE MSHR PREFETCHES: 0
PSCL3 MPKI TOTAL: 0 MSHR LATE: 0 PQ LATE: 0 COMMIT LATE: 0 MISSED OPPORTUNITY: 0 UNCOVERED: 0
PSCL3 PREFETCHES SAME FILL-ORIGIN LEVEL: 0 DIFFERENT FILL-ORIGIN LEVEL: 0

PSCL2 SPEC fills:          0  NON-SPEC fills:          0
PSCL2 Test counter :          0
PSCL2 Leapfrog:          0
PSCL2 MSHR merge:          0
PSCL2 TOTAL     ACCESS:          0  HIT:          0  MISS:          0  HIT %:       -nan  MISS %:       -nan   MPKI: 0
PSCL2 PREFETCH  REQUESTED:          0  ISSUED:          0  USEFUL:          0  USELESS:          0
PSCL2 USEFUL LOAD PREFETCHES:          0 PREFETCH ISSUED TO LOWER LEVEL:          0  ACCURACY: -nan
PSCL2 TIMELY PREFETCHES:          0 LATE PREFETCHES: 0 DROPPED PREFETCHES: 0
PSCL2 COMMIT LATE PREFETCHES: 0 MISSED OPPORTUNITY: 0 LATE IN PQ: 0 UNCOVERED: 0
PSCL2 COMMIT LATE MSHR PREFETCHES: 0
PSCL2 MPKI TOTAL: 0 MSHR LATE: 0 PQ LATE: 0 COMMIT LATE: 0 MISSED OPPORTUNITY: 0 UNCOVERED: 0
PSCL2 PREFETCHES SAME FILL-ORIGIN LEVEL: 0 DIFFERENT FILL-ORIGIN LEVEL: 0

LLC SPEC fills:          0  NON-SPEC fills:     251908
LLC Test counter :     570823
LLC Leapfrog:          0
LLC MSHR merge:          0
LLC TOTAL     ACCESS:    6422370  HIT:    3957927  MISS:    2464443  HIT %:    61.6272  MISS %:    38.3728   MPKI: 12.3222
LLC LOAD      TOTAL       ACCESS:    2610875  HIT:    1966689  MISS:     644186  HIT %:    75.3268  MISS %:    24.6732   MPKI: 3.22093
LLC LOAD      NON_SPEC    ACCESS:    1231061  HIT:     979151  MISS:     251910  HIT %:    79.5372  MISS %:    20.4628   MPKI: 1.25955
LLC LOAD      SPEC        ACCESS:    1379814  HIT:     987538  MISS:     392276  HIT %:    71.5704  MISS %:    28.4296   MPKI: 1.96138
LLC RFO       NON_SPEC    ACCESS:     312484  HIT:     309706  MISS:       2778  HIT %:     99.111  MISS %:   0.889006   MPKI: 0.01389
LLC PREFETCH  NON_SPEC    ACCESS:    1636907  HIT:     241228  MISS:    1395679  HIT %:    14.7368  MISS %:    85.2632   MPKI: 6.97839
LLC WRITEBACK NON_SPEC    ACCESS:     378992  HIT:     371077  MISS:       7915  HIT %:    97.9116  MISS %:    2.08843   MPKI: 0.039575
LLC CLEAN_EVICTION NON_SPEC    ACCESS:    1421403  HIT:    1017146  MISS:     404257  HIT %:    71.5593  MISS %:    28.4407   MPKI: 2.02128
LLC COMMIT LOAD NON_SPEC    ACCESS:      41659  HIT:      37517  MISS:       4142  HIT %:    90.0574  MISS %:    9.94263   MPKI: 0.02071
LLC LOAD TRANSLATION NON_SPEC    ACCESS:      16693  HIT:      14176  MISS:       2517  HIT %:    84.9218  MISS %:    15.0782   MPKI: 0.012585
LLC TRANSLATION FROM L1D PREFETCHER NON_SPEC    ACCESS:       3357  HIT:        388  MISS:       2969  HIT %:    11.5579  MISS %:    88.4421   MPKI: 0.014845
LLC PREFETCH  REQUESTED:          0  ISSUED:          0  USEFUL:     185398  USELESS:    1215379
LLC USEFUL LOAD PREFETCHES:     185398 PREFETCH ISSUED TO LOWER LEVEL:    1395679  ACCURACY: 13.2837
LLC TIMELY PREFETCHES:     185398 LATE PREFETCHES: 0 DROPPED PREFETCHES: 0
LLC COMMIT LATE PREFETCHES: 0 MISSED OPPORTUNITY: 0 LATE IN PQ: 0 UNCOVERED: 0
LLC COMMIT LATE MSHR PREFETCHES: 0
LLC MPKI TOTAL: 3.22093 MSHR LATE: 0 PQ LATE: 0 COMMIT LATE: 0 MISSED OPPORTUNITY: 0 UNCOVERED: 0
LLC PREFETCHES SAME FILL-ORIGIN LEVEL: 0 DIFFERENT FILL-ORIGIN LEVEL: 0
LLC AVERAGE MISS LATENCY: 128.57 cycles
LLC AVERAGE MISS LATENCY LOAD: 173.885 cycles
LLC AVERAGE MISS LATENCY PREFETCH: 145.164 cycles
LLC AVERAGE MSHR OCCUPANCY: 1.46731
LLC MSHR FULL: 0
LLC RQ	ACCESS:    2985090	FORWARD:          0	MERGED:          0	TO_CACHE:    2985068
LLC WQ	ACCESS:    1800395	FORWARD:         26	MERGED:          0	TO_CACHE:    1800395
LLC PQ	ACCESS:    1636911	FORWARD:          0	MERGED:          0	TO_CACHE:    1636907

LLC Dense regions hint to LLC: 0

RAW hits: 2883323
Loads Generated: 70285606
Loads sent to L1D: 67402282
Stores Generated: 23674352
Stores sent to L1D: 23674381
Major fault: 0 Minor fault: 30918
Allocated PAGES: 30918
Total Load insts: 83342847
Total Non-spec loads: 21283324
Percentage of speculative loads: 74.4629

LeapFrogging counter: 144676
Commit hits: 34354677 miss: 13473581
Commit hit %: 71.8292 miss %: 28.1708
Commits not translated: 0
Loads retired: 4848618
Stores retired: 23674381
Cache fills: 4848618
L1D response latency: 51.4555 cycles
Load retirement latency: 100.752 cycles
OOO test counter: 0
Discarded buffer inserts: 34354677 hits: 15506 hit %: 0.045135
Filter prediction accuracy: 0.999917
ALL MISSES SIZE: 5631
LATENCY_FILL: 51.3299 4846525
LATENCY_FILL_ROB: 87.49 4843802
test counter pref: 73143588
Max ROB Extended: 52

DRAM Statistics
 CHANNEL 0
 RQ ROW_BUFFER_HIT:     777575  ROW_BUFFER_MISS:    1274509
 DBUS_CONGESTED:       3888
 WQ ROW_BUFFER_HIT:     112109  ROW_BUFFER_MISS:     477630  FULL:          0

 AVG_CONGESTED_CYCLE: 4
 All warmup complete: 2
Channel 0 Bank busy for read cycles: 0
Channel 0 Bank busy for write cycles: 0
Channel 0
Rank 0
0banks busy for read cycles: 505461564
0banks busy for write cycles: 118953
1banks busy for read cycles: 53195009
1banks busy for write cycles: 18360908
2banks busy for read cycles: 21082070
2banks busy for write cycles: 5778321
3banks busy for read cycles: 8403350
3banks busy for write cycles: 3578027
4banks busy for read cycles: 5016296
4banks busy for write cycles: 3104100
5banks busy for read cycles: 4550190
5banks busy for write cycles: 3017530
6banks busy for read cycles: 4604130
6banks busy for write cycles: 3092024
7banks busy for read cycles: 2571393
7banks busy for write cycles: 3062146
8banks busy for read cycles: 2638378
8banks busy for write cycles: 2625403

CPU 0 Branch Prediction Accuracy: 92.9349% MPKI: 17.4788 Average ROB Occupancy at Mispredict: 18.2544
Branch types
NOT_BRANCH: 150520483 75.2602%
BRANCH_DIRECT_JUMP: 5163667 2.58183%
BRANCH_INDIRECT: 0 0%
BRANCH_CONDITIONAL: 33195560 16.5978%
BRANCH_DIRECT_CALL: 5259751 2.62988%
BRANCH_INDIRECT_CALL: 300210 0.150105%
BRANCH_RETURN: 5559960 2.77998%
BRANCH_OTHER: 0 0%

DRAM PAGES: 1048576
Allocated PAGES: 30918
