
*** ChampSim Multicore Out-of-Order Simulator ***

Warmup Instructions: 50000000
Simulation Instructions: 200000000
Number of CPUs: 1
LLC sets: 2048
LLC ways: 16
L0D sets: 16
L0D ways: 2
ROB size: 352
LQ size: 128
SQ size: 72
Secure Berti: ON
Berti: ON
Berti Fill: ON
On commit prefetching: OFF
Hit-based filter: ON
Time-guarding: ON
Free-slotting: ON
Leap-frogging: ON
Train prefetcher on L0D bypass: OFF
No translation penalty for prefetchers: OFF
Prefetch to L0D only: OFF
Prefetch to L1D only: OFF
Clean evictions: ON
Commit loads: ON
Commit write: ON
Fill commit loads to L2C, LLC: ON
DRAM IO FREQUENCY: 6400
ROB SIZE: 352
Off-chip DRAM Size: 4096 MB Channels: 1 Width: 64-bit Data Rate: 6400 MT/s
CPU 0 runs /home/sumon/secure_berti/GhostMinion/../../traces/spec/605.mcf_s-472B.champsimtrace.xz
.xz
BTB has LRU replacement policy
ITLB has LRU replacement policy
DTLB has LRU replacement policy
STLB has LRU replacement policy
L1I has LRU replacement policy
L0D has LRU replacement policy
Berti version on_commit
History Sets: 8
History Ways: 16
BERTI Size: 16
BERTI Stride Size: 16
L1D has LRU replacement policy
L2C has LRU replacement policy
LLC has LRU replacement policy
Heartbeat CPU 0 instructions: 10000001 cycles: 5537219 heartbeat IPC: 1.80596 cumulative IPC: 1.80596 (Simulation time: 0 hr 0 min 46 sec) 
Heartbeat CPU 0 instructions: 20000001 cycles: 10733327 heartbeat IPC: 1.92452 cumulative IPC: 1.86336 (Simulation time: 0 hr 1 min 37 sec) 
Heartbeat CPU 0 instructions: 30000003 cycles: 15788891 heartbeat IPC: 1.97802 cumulative IPC: 1.90007 (Simulation time: 0 hr 2 min 31 sec) 
Heartbeat CPU 0 instructions: 40000001 cycles: 21348440 heartbeat IPC: 1.79871 cumulative IPC: 1.87367 (Simulation time: 0 hr 3 min 18 sec) 
Heartbeat CPU 0 instructions: 50000001 cycles: 26768189 heartbeat IPC: 1.8451 cumulative IPC: 1.86789 (Simulation time: 0 hr 4 min 8 sec) 

Warmup complete CPU 0 instructions: 50000001 cycles: 26768189 (Simulation time: 0 hr 4 min 8 sec) 

Heartbeat CPU 0 instructions: 60000001 cycles: 48889488 heartbeat IPC: 0.452053 cumulative IPC: 0.452053 (Simulation time: 0 hr 5 min 17 sec) 
Heartbeat CPU 0 instructions: 70000003 cycles: 69823410 heartbeat IPC: 0.477694 cumulative IPC: 0.46452 (Simulation time: 0 hr 6 min 24 sec) 
Heartbeat CPU 0 instructions: 80000002 cycles: 95793062 heartbeat IPC: 0.385065 cumulative IPC: 0.434626 (Simulation time: 0 hr 7 min 43 sec) 
Heartbeat CPU 0 instructions: 90000000 cycles: 116331361 heartbeat IPC: 0.486895 cumulative IPC: 0.446612 (Simulation time: 0 hr 8 min 51 sec) 
Heartbeat CPU 0 instructions: 100000002 cycles: 140988267 heartbeat IPC: 0.405566 cumulative IPC: 0.437751 (Simulation time: 0 hr 10 min 6 sec) 
Heartbeat CPU 0 instructions: 110000000 cycles: 162673265 heartbeat IPC: 0.461148 cumulative IPC: 0.441485 (Simulation time: 0 hr 11 min 12 sec) 
Heartbeat CPU 0 instructions: 120000002 cycles: 186391361 heartbeat IPC: 0.421619 cumulative IPC: 0.438533 (Simulation time: 0 hr 12 min 22 sec) 
Heartbeat CPU 0 instructions: 130000002 cycles: 211758740 heartbeat IPC: 0.394207 cumulative IPC: 0.432455 (Simulation time: 0 hr 13 min 38 sec) 
Heartbeat CPU 0 instructions: 140000002 cycles: 236152901 heartbeat IPC: 0.409934 cumulative IPC: 0.429831 (Simulation time: 0 hr 14 min 50 sec) 
Heartbeat CPU 0 instructions: 150000002 cycles: 260869379 heartbeat IPC: 0.404588 cumulative IPC: 0.427166 (Simulation time: 0 hr 16 min 0 sec) 
Heartbeat CPU 0 instructions: 160000001 cycles: 285004082 heartbeat IPC: 0.414341 cumulative IPC: 0.425967 (Simulation time: 0 hr 17 min 2 sec) 
Heartbeat CPU 0 instructions: 170000001 cycles: 307621839 heartbeat IPC: 0.44213 cumulative IPC: 0.427269 (Simulation time: 0 hr 17 min 57 sec) 
Heartbeat CPU 0 instructions: 180000002 cycles: 327080442 heartbeat IPC: 0.513912 cumulative IPC: 0.432883 (Simulation time: 0 hr 18 min 49 sec) 
Heartbeat CPU 0 instructions: 190000000 cycles: 354396938 heartbeat IPC: 0.366079 cumulative IPC: 0.427313 (Simulation time: 0 hr 19 min 52 sec) 
Heartbeat CPU 0 instructions: 200000002 cycles: 376445306 heartbeat IPC: 0.453548 cumulative IPC: 0.428967 (Simulation time: 0 hr 20 min 47 sec) 
Heartbeat CPU 0 instructions: 210000003 cycles: 399436484 heartbeat IPC: 0.434949 cumulative IPC: 0.429336 (Simulation time: 0 hr 21 min 40 sec) 
Heartbeat CPU 0 instructions: 220000000 cycles: 423728074 heartbeat IPC: 0.411665 cumulative IPC: 0.428255 (Simulation time: 0 hr 22 min 36 sec) 
Heartbeat CPU 0 instructions: 230000001 cycles: 446762694 heartbeat IPC: 0.434129 cumulative IPC: 0.428577 (Simulation time: 0 hr 23 min 29 sec) 
Heartbeat CPU 0 instructions: 240000002 cycles: 475070585 heartbeat IPC: 0.353258 cumulative IPC: 0.423821 (Simulation time: 0 hr 24 min 28 sec) 
Heartbeat CPU 0 instructions: 250000000 cycles: 504343516 heartbeat IPC: 0.341612 cumulative IPC: 0.418782 (Simulation time: 0 hr 25 min 29 sec) 
Finished CPU 0 instructions: 200000000 cycles: 477575328 cumulative IPC: 0.418782 (Simulation time: 0 hr 25 min 29 sec) 
 Instruction ID: 250000323

ChampSim completed all CPUs

Region of Interest Statistics

CPU 0 cumulative IPC: 0.418782 instructions: 200000000 cycles: 477575328
ITLB SPEC fills:          0  NON-SPEC fills:          0
ITLB Test counter :          0
ITLB Leapfrog:          0
ITLB MSHR merge:          0
ITLB TOTAL     ACCESS:   34088746  HIT:   34088746  MISS:          0  HIT %:        100  MISS %:          0   MPKI: 0
ITLB LOAD TRANSLATION NON_SPEC    ACCESS:   34088746  HIT:   34088746  MISS:          0  HIT %:        100  MISS %:          0   MPKI: 0
ITLB PREFETCH  REQUESTED:          0  ISSUED:          0  USEFUL:          0  USELESS:          0
ITLB USEFUL LOAD PREFETCHES:          0 PREFETCH ISSUED TO LOWER LEVEL:          0  ACCURACY: -nan
ITLB TIMELY PREFETCHES:          0 LATE PREFETCHES: 0 DROPPED PREFETCHES: 0
ITLB COMMIT LATE PREFETCHES: 0 MISSED OPPORTUNITY: 0 LATE IN PQ: 0 UNCOVERED: 0
ITLB COMMIT LATE MSHR PREFETCHES: 0
ITLB MPKI TOTAL: 0 MSHR LATE: 0 PQ LATE: 0 COMMIT LATE: 0 MISSED OPPORTUNITY: 0 UNCOVERED: 0
ITLB PREFETCHES SAME FILL-ORIGIN LEVEL: 0 DIFFERENT FILL-ORIGIN LEVEL: 0
ITLB AVERAGE MISS LATENCY: -nan cycles
ITLB AVERAGE MISS LATENCY LOAD: -nan cycles
ITLB AVERAGE MISS LATENCY PREFETCH: -nan cycles
ITLB AVERAGE MSHR OCCUPANCY: 0
ITLB MSHR FULL: 0
ITLB RQ	ACCESS:   44117845	FORWARD:          0	MERGED:   10029100	TO_CACHE:   34088745

DTLB SPEC fills:          0  NON-SPEC fills:          0
DTLB Test counter :          0
DTLB Leapfrog:          0
DTLB MSHR merge:          0
DTLB TOTAL     ACCESS:   57387220  HIT:   56671854  MISS:     715366  HIT %:    98.7534  MISS %:    1.24656   MPKI: 3.57683
DTLB LOAD TRANSLATION NON_SPEC    ACCESS:   57387220  HIT:   56671854  MISS:     715366  HIT %:    98.7534  MISS %:    1.24656   MPKI: 3.57683
DTLB PREFETCH  REQUESTED:          0  ISSUED:          0  USEFUL:          0  USELESS:          0
DTLB USEFUL LOAD PREFETCHES:          0 PREFETCH ISSUED TO LOWER LEVEL:          0  ACCURACY: -nan
DTLB TIMELY PREFETCHES:          0 LATE PREFETCHES: 0 DROPPED PREFETCHES: 0
DTLB COMMIT LATE PREFETCHES: 0 MISSED OPPORTUNITY: 0 LATE IN PQ: 0 UNCOVERED: 0
DTLB COMMIT LATE MSHR PREFETCHES: 0
DTLB MPKI TOTAL: 0 MSHR LATE: 0 PQ LATE: 0 COMMIT LATE: 0 MISSED OPPORTUNITY: 0 UNCOVERED: 0
DTLB PREFETCHES SAME FILL-ORIGIN LEVEL: 0 DIFFERENT FILL-ORIGIN LEVEL: 0
DTLB AVERAGE MISS LATENCY: 24.4466 cycles
DTLB AVERAGE MISS LATENCY LOAD: -nan cycles
DTLB AVERAGE MISS LATENCY PREFETCH: -nan cycles
DTLB AVERAGE MSHR OCCUPANCY: 0.0188289
DTLB MSHR FULL: 0
DTLB RQ	ACCESS:   92470562	FORWARD:          0	MERGED:   34975937	TO_CACHE:   57494625

STLB SPEC fills:          0  NON-SPEC fills:          0
STLB Test counter :          0
STLB Leapfrog:          0
STLB MSHR merge:          0
STLB TOTAL     ACCESS:   11986833  HIT:   11727345  MISS:     259488  HIT %:    97.8352  MISS %:    2.16478   MPKI: 1.29744
STLB LOAD TRANSLATION NON_SPEC    ACCESS:     715366  HIT:     657699  MISS:      57667  HIT %:    91.9388  MISS %:    8.06119   MPKI: 0.288335
STLB TRANSLATION FROM L1D PREFETCHER NON_SPEC    ACCESS:   11271467  HIT:   11069646  MISS:     201821  HIT %:    98.2095  MISS %:    1.79055   MPKI: 1.0091
STLB PREFETCH  REQUESTED:          0  ISSUED:          0  USEFUL:     201726  USELESS:         95
STLB USEFUL LOAD PREFETCHES:     201726 PREFETCH ISSUED TO LOWER LEVEL:          0  ACCURACY: inf
STLB TIMELY PREFETCHES:     201726 LATE PREFETCHES: 17924 DROPPED PREFETCHES: 542823
STLB COMMIT LATE PREFETCHES: 0 MISSED OPPORTUNITY: 0 LATE IN PQ: 0 UNCOVERED: 0
STLB COMMIT LATE MSHR PREFETCHES: 0
STLB MPKI TOTAL: 0 MSHR LATE: 0.08962 PQ LATE: 0 COMMIT LATE: 0 MISSED OPPORTUNITY: 0 UNCOVERED: 0
STLB PREFETCHES SAME FILL-ORIGIN LEVEL: 0 DIFFERENT FILL-ORIGIN LEVEL: 0
STLB AVERAGE MISS LATENCY: 129.075 cycles
STLB AVERAGE MISS LATENCY LOAD: -nan cycles
STLB AVERAGE MISS LATENCY PREFETCH: -nan cycles
STLB AVERAGE MSHR OCCUPANCY: 0.249513
STLB MSHR FULL: 1.18567e-06
STLB RQ	ACCESS:   44452983	FORWARD:          0	MERGED:   31801903	TO_CACHE:   12651080

STLB Hit, L1D data hit: 0
STLB Hit, L2C data hit: 0
STLB Hit, LLC data hit: 0
STLB Hit, LLC data miss: 0
STLB STLB hints to L2: 0
L0D SPEC fills:   29995359  NON-SPEC fills:          0
L0D TimeGuard Request with older TS:     945337 Restricted eviction:     335022 read:    1048252
L0D Test counter :          0
L0D Leapfrog:          0
L0D MSHR merge:    2133514
L0D TOTAL     ACCESS:   44088634  HIT:    6524216  MISS:   37564418  HIT %:     14.798  MISS %:     85.202   MPKI: 187.822
L0D LOAD      TOTAL       ACCESS:   44088634  HIT:    6524216  MISS:   37564418  HIT %:     14.798  MISS %:     85.202   MPKI: 187.822
L0D LOAD      NON_SPEC    ACCESS:    7763891  HIT:     529854  MISS:    7234037  HIT %:    6.82459  MISS %:    93.1754   MPKI: 36.1702
L0D LOAD      SPEC        ACCESS:   36324743  HIT:    5994362  MISS:   30330381  HIT %:    16.5021  MISS %:    83.4979   MPKI: 151.652
L0D PREFETCH  REQUESTED:          0  ISSUED:          0  USEFUL:          0  USELESS:          0
L0D USEFUL LOAD PREFETCHES:          0 PREFETCH ISSUED TO LOWER LEVEL:          0  ACCURACY: -nan
L0D TIMELY PREFETCHES:          0 LATE PREFETCHES: 0 DROPPED PREFETCHES: 0
L0D COMMIT LATE PREFETCHES: 0 MISSED OPPORTUNITY: 0 LATE IN PQ: 0 UNCOVERED: 0
L0D COMMIT LATE MSHR PREFETCHES: 0
L0D MPKI TOTAL: 198.49 MSHR LATE: 0 PQ LATE: 0 COMMIT LATE: 0 MISSED OPPORTUNITY: 0 UNCOVERED: 0
L0D PREFETCHES SAME FILL-ORIGIN LEVEL: 0 DIFFERENT FILL-ORIGIN LEVEL: 0
L0D AVERAGE MISS LATENCY: 24.1863 cycles
L0D AVERAGE MISS LATENCY LOAD: 24.1863 cycles
L0D AVERAGE MISS LATENCY PREFETCH: -nan cycles
L0D AVERAGE MSHR OCCUPANCY: 2.74568
L0D MSHR FULL: 0.159188
L0D RQ	ACCESS:   66810398	FORWARD:          0	MERGED:   20588254	TO_CACHE:   46222144
L0D WQ	ACCESS:   46248418	FORWARD:          0	MERGED:          0	TO_CACHE:   46248418

L1D SPEC fills:          0  NON-SPEC fills:     578427
L1D Test counter :    3157587
L1D Leapfrog:          0
L1D MSHR merge:    1352895
L1D TOTAL     ACCESS:  109843857  HIT:   93612104  MISS:   16231753  HIT %:    85.2229  MISS %:    14.7771   MPKI: 81.1588
L1D LOAD      TOTAL       ACCESS:   37562414  HIT:   32139238  MISS:    5423176  HIT %:    85.5622  MISS %:    14.4378   MPKI: 27.1159
L1D LOAD      NON_SPEC    ACCESS:    7232975  HIT:    6654548  MISS:     578427  HIT %:    92.0029  MISS %:    7.99708   MPKI: 2.89214
L1D LOAD      SPEC        ACCESS:   30329439  HIT:   25484690  MISS:    4844749  HIT %:    84.0262  MISS %:    15.9738   MPKI: 24.2237
L1D RFO       NON_SPEC    ACCESS:   44777843  HIT:   44478867  MISS:     298976  HIT %:    99.3323  MISS %:   0.667687   MPKI: 1.49488
L1D PREFETCH  NON_SPEC    ACCESS:   21559366  HIT:   15262746  MISS:    6296620  HIT %:     70.794  MISS %:     29.206   MPKI: 31.4831
L1D COMMIT LOAD NON_SPEC    ACCESS:    1322167  HIT:    1203439  MISS:     118728  HIT %:    91.0202  MISS %:     8.9798   MPKI: 0.59364
L1D COMMIT WRITE NON_SPEC    ACCESS:    4622067  HIT:     527814  MISS:    4094253  HIT %:    11.4194  MISS %:    88.5806   MPKI: 20.4713
L1D PREFETCH  REQUESTED:  125195811  ISSUED:   49878341  USEFUL:    5131295  USELESS:    1165484
L1D USEFUL LOAD PREFETCHES:    5131295 PREFETCH ISSUED TO LOWER LEVEL:   24051608  ACCURACY: 21.3345
L1D TIMELY PREFETCHES:    5131295 LATE PREFETCHES: 1363775 DROPPED PREFETCHES: 794059
L1D COMMIT LATE PREFETCHES: 0 MISSED OPPORTUNITY: 0 LATE IN PQ: 0 UNCOVERED: 0
L1D COMMIT LATE MSHR PREFETCHES: 0
L1D MPKI TOTAL: 27.1259 MSHR LATE: 6.81888 PQ LATE: 0 COMMIT LATE: 0 MISSED OPPORTUNITY: 0 UNCOVERED: 0
L1D PREFETCHES SAME FILL-ORIGIN LEVEL: 7738535 DIFFERENT FILL-ORIGIN LEVEL: 16313073
L1D AVERAGE MISS LATENCY: 112.389 cycles
L1D AVERAGE MISS LATENCY LOAD: 127.498 cycles
L1D AVERAGE MISS LATENCY PREFETCH: 164.47 cycles
L1D AVERAGE MSHR OCCUPANCY: 5.32304
L1D MSHR FULL: 0.119555
L1D RQ	ACCESS:   39032230	FORWARD:          0	MERGED:     136516	TO_CACHE:   38892920
L1D WQ	ACCESS:   50870486	FORWARD:       2794	MERGED:     565071	TO_CACHE:   50305415
L1D PQ	ACCESS:   49878341	FORWARD:          0	MERGED:    6140724	TO_CACHE:   43737617

L1D UNIQUE REGIONS ACCESSED: 0
L1D REGIONS CONFLICTS: 0
L1D Cross Page Prefetch Requests: 11278952
L1D Same Page Prefetch Requests: 50871380
L1D ROI Sum of L1D PQ occupancy: 1317111096
L1D PREFETCHES PUSHED FROM L2C: 0
L1I SPEC fills:          0  NON-SPEC fills:          0
L1I Test counter :          0
L1I Leapfrog:          0
L1I MSHR merge:          0
L1I TOTAL     ACCESS:   44117845  HIT:   44117839  MISS:          6  HIT %:        100  MISS %: 1.35999e-05   MPKI: 3e-05
L1I LOAD      TOTAL       ACCESS:   44117845  HIT:   44117839  MISS:          6  HIT %:        100  MISS %: 1.35999e-05   MPKI: 3e-05
L1I LOAD      NON_SPEC    ACCESS:   44117845  HIT:   44117839  MISS:          6  HIT %:        100  MISS %: 1.35999e-05   MPKI: 3e-05
L1I PREFETCH  REQUESTED:          0  ISSUED:          0  USEFUL:          0  USELESS:          0
L1I USEFUL LOAD PREFETCHES:          0 PREFETCH ISSUED TO LOWER LEVEL:          0  ACCURACY: -nan
L1I TIMELY PREFETCHES:          0 LATE PREFETCHES: 0 DROPPED PREFETCHES: 0
L1I COMMIT LATE PREFETCHES: 0 MISSED OPPORTUNITY: 0 LATE IN PQ: 0 UNCOVERED: 0
L1I COMMIT LATE MSHR PREFETCHES: 0
L1I MPKI TOTAL: 3e-05 MSHR LATE: 0 PQ LATE: 0 COMMIT LATE: 0 MISSED OPPORTUNITY: 0 UNCOVERED: 0
L1I PREFETCHES SAME FILL-ORIGIN LEVEL: 0 DIFFERENT FILL-ORIGIN LEVEL: 0
L1I AVERAGE MISS LATENCY: 216 cycles
L1I AVERAGE MISS LATENCY LOAD: 216 cycles
L1I AVERAGE MISS LATENCY PREFETCH: -nan cycles
L1I AVERAGE MSHR OCCUPANCY: 4.53331e-08
L1I MSHR FULL: 0
L1I RQ	ACCESS:   58234953	FORWARD:          0	MERGED:   14117108	TO_CACHE:   44117845

BTB SPEC fills:          0  NON-SPEC fills:          0
BTB Test counter :          0
BTB Leapfrog:          0
BTB MSHR merge:          0
BTB TOTAL     ACCESS:   25427274  HIT:   25427235  MISS:         39  HIT %:    99.9998  MISS %: 0.000153379   MPKI: 0.000195
BTB BRANCH_DIRECT_JUMP	ACCESS:    2120382  HIT:    2120376  MISS:          6
BTB BRANCH_INDIRECT	ACCESS:          0  HIT:          0  MISS:          0
BTB BRANCH_CONDITIONAL	ACCESS:   23306411  HIT:   23306383  MISS:         28
BTB BRANCH_DIRECT_CALL	ACCESS:        241  HIT:        238  MISS:          3
BTB BRANCH_INDIRECT_CALL	ACCESS:          0  HIT:          0  MISS:          0
BTB BRANCH_RETURN	ACCESS:        240  HIT:        238  MISS:          2
BTB BRANCH_OTHER ACCESS:          0  HIT:          0  MISS:          0

L2C SPEC fills:          0  NON-SPEC fills:     237875
L2C Test counter :    3064831
L2C Leapfrog:          0
L2C MSHR merge:     730621
L2C TOTAL     ACCESS:   32013103  HIT:   17437942  MISS:   14575161  HIT %:    54.4713  MISS %:    45.5287   MPKI: 72.8758
L2C LOAD      TOTAL       ACCESS:    4071428  HIT:    2022806  MISS:    2048622  HIT %:     49.683  MISS %:     50.317   MPKI: 10.2431
L2C LOAD      NON_SPEC    ACCESS:     543718  HIT:     305837  MISS:     237881  HIT %:    56.2492  MISS %:    43.7508   MPKI: 1.18941
L2C LOAD      SPEC        ACCESS:    3527710  HIT:    1716969  MISS:    1810741  HIT %:    48.6709  MISS %:    51.3291   MPKI: 9.05371
L2C RFO       NON_SPEC    ACCESS:     253656  HIT:      26619  MISS:     227037  HIT %:    10.4941  MISS %:    89.5059   MPKI: 1.13519
L2C PREFETCH  NON_SPEC    ACCESS:   19730403  HIT:    8839826  MISS:   10890577  HIT %:    44.8031  MISS %:    55.1969   MPKI: 54.4529
L2C WRITEBACK NON_SPEC    ACCESS:     614661  HIT:     612398  MISS:       2263  HIT %:    99.6318  MISS %:    0.36817   MPKI: 0.011315
L2C CLEAN_EVICTION NON_SPEC    ACCESS:    3157587  HIT:    1821094  MISS:    1336493  HIT %:    57.6736  MISS %:    42.3264   MPKI: 6.68246
L2C COMMIT LOAD NON_SPEC    ACCESS:     105846  HIT:      77496  MISS:      28350  HIT %:    73.2158  MISS %:    26.7842   MPKI: 0.14175
L2C LOAD TRANSLATION NON_SPEC    ACCESS:     272819  HIT:     264693  MISS:       8126  HIT %:    97.0215  MISS %:    2.97853   MPKI: 0.04063
L2C TRANSLATION FROM L1D PREFETCHER NON_SPEC    ACCESS:    3806703  HIT:    3773010  MISS:      33693  HIT %:    99.1149  MISS %:   0.885097   MPKI: 0.168465
L2C PREFETCH  REQUESTED:          0  ISSUED:          0  USEFUL:    1803705  USELESS:    9121824
L2C USEFUL LOAD PREFETCHES:    1803705 PREFETCH ISSUED TO LOWER LEVEL:   11633085  ACCURACY: 15.505
L2C TIMELY PREFETCHES:    1803705 LATE PREFETCHES: 742507 DROPPED PREFETCHES: 0
L2C COMMIT LATE PREFETCHES: 0 MISSED OPPORTUNITY: 0 LATE IN PQ: 0 UNCOVERED: 0
L2C COMMIT LATE MSHR PREFETCHES: 0
L2C MPKI TOTAL: 10.2431 MSHR LATE: 3.71253 PQ LATE: 0 COMMIT LATE: 0 MISSED OPPORTUNITY: 0 UNCOVERED: 0
L2C PREFETCHES SAME FILL-ORIGIN LEVEL: 7478969 DIFFERENT FILL-ORIGIN LEVEL: 0
L2C AVERAGE MISS LATENCY: 248.384 cycles
L2C AVERAGE MISS LATENCY LOAD: 195.301 cycles
L2C AVERAGE MISS LATENCY PREFETCH: 286.116 cycles
L2C AVERAGE MSHR OCCUPANCY: 11.9731
L2C MSHR FULL: 0.150715
L2C RQ	ACCESS:    8511357	FORWARD:          0	MERGED:          0	TO_CACHE:    8510453
L2C WQ	ACCESS:    3772248	FORWARD:        906	MERGED:          0	TO_CACHE:    3772248
L2C PQ	ACCESS:   23414662	FORWARD:          0	MERGED:      15803	TO_CACHE:   23398857

L2C Instructions Evicting Data 6
L2C Translations Evicting Data 41736
L2C Data Evicting Data 11346395
L2C Instructions Evicting Instructions 0
L2C Translations Evicting Instructions 0
L2C Data Evicting Instructions 6
L2C Instructions Evicting Translations 0
L2C Translations Evicting Translations 83
L2C Data Evicting Translations 37438
L2C Dense regions hint from L2: 0
PSCL5 SPEC fills:          0  NON-SPEC fills:          0
PSCL5 Test counter :          0
PSCL5 Leapfrog:          0
PSCL5 MSHR merge:          0
PSCL5 TOTAL     ACCESS:          0  HIT:          0  MISS:          0  HIT %:       -nan  MISS %:       -nan   MPKI: 0
PSCL5 PREFETCH  REQUESTED:          0  ISSUED:          0  USEFUL:          0  USELESS:          0
PSCL5 USEFUL LOAD PREFETCHES:          0 PREFETCH ISSUED TO LOWER LEVEL:          0  ACCURACY: -nan
PSCL5 TIMELY PREFETCHES:          0 LATE PREFETCHES: 0 DROPPED PREFETCHES: 0
PSCL5 COMMIT LATE PREFETCHES: 0 MISSED OPPORTUNITY: 0 LATE IN PQ: 0 UNCOVERED: 0
PSCL5 COMMIT LATE MSHR PREFETCHES: 0
PSCL5 MPKI TOTAL: 0 MSHR LATE: 0 PQ LATE: 0 COMMIT LATE: 0 MISSED OPPORTUNITY: 0 UNCOVERED: 0
PSCL5 PREFETCHES SAME FILL-ORIGIN LEVEL: 0 DIFFERENT FILL-ORIGIN LEVEL: 0

PSCL4 SPEC fills:          0  NON-SPEC fills:          0
PSCL4 Test counter :          0
PSCL4 Leapfrog:          0
PSCL4 MSHR merge:          0
PSCL4 TOTAL     ACCESS:          0  HIT:          0  MISS:          0  HIT %:       -nan  MISS %:       -nan   MPKI: 0
PSCL4 PREFETCH  REQUESTED:          0  ISSUED:          0  USEFUL:          0  USELESS:          0
PSCL4 USEFUL LOAD PREFETCHES:          0 PREFETCH ISSUED TO LOWER LEVEL:          0  ACCURACY: -nan
PSCL4 TIMELY PREFETCHES:          0 LATE PREFETCHES: 0 DROPPED PREFETCHES: 0
PSCL4 COMMIT LATE PREFETCHES: 0 MISSED OPPORTUNITY: 0 LATE IN PQ: 0 UNCOVERED: 0
PSCL4 COMMIT LATE MSHR PREFETCHES: 0
PSCL4 MPKI TOTAL: 0 MSHR LATE: 0 PQ LATE: 0 COMMIT LATE: 0 MISSED OPPORTUNITY: 0 UNCOVERED: 0
PSCL4 PREFETCHES SAME FILL-ORIGIN LEVEL: 0 DIFFERENT FILL-ORIGIN LEVEL: 0

PSCL3 SPEC fills:          0  NON-SPEC fills:          0
PSCL3 Test counter :          0
PSCL3 Leapfrog:          0
PSCL3 MSHR merge:          0
PSCL3 TOTAL     ACCESS:          0  HIT:          0  MISS:          0  HIT %:       -nan  MISS %:       -nan   MPKI: 0
PSCL3 PREFETCH  REQUESTED:          0  ISSUED:          0  USEFUL:          0  USELESS:          0
PSCL3 USEFUL LOAD PREFETCHES:          0 PREFETCH ISSUED TO LOWER LEVEL:          0  ACCURACY: -nan
PSCL3 TIMELY PREFETCHES:          0 LATE PREFETCHES: 0 DROPPED PREFETCHES: 0
PSCL3 COMMIT LATE PREFETCHES: 0 MISSED OPPORTUNITY: 0 LATE IN PQ: 0 UNCOVERED: 0
PSCL3 COMMIT LATE MSHR PREFETCHES: 0
PSCL3 MPKI TOTAL: 0 MSHR LATE: 0 PQ LATE: 0 COMMIT LATE: 0 MISSED OPPORTUNITY: 0 UNCOVERED: 0
PSCL3 PREFETCHES SAME FILL-ORIGIN LEVEL: 0 DIFFERENT FILL-ORIGIN LEVEL: 0

PSCL2 SPEC fills:          0  NON-SPEC fills:          0
PSCL2 Test counter :          0
PSCL2 Leapfrog:          0
PSCL2 MSHR merge:          0
PSCL2 TOTAL     ACCESS:          0  HIT:          0  MISS:          0  HIT %:       -nan  MISS %:       -nan   MPKI: 0
PSCL2 PREFETCH  REQUESTED:          0  ISSUED:          0  USEFUL:          0  USELESS:          0
PSCL2 USEFUL LOAD PREFETCHES:          0 PREFETCH ISSUED TO LOWER LEVEL:          0  ACCURACY: -nan
PSCL2 TIMELY PREFETCHES:          0 LATE PREFETCHES: 0 DROPPED PREFETCHES: 0
PSCL2 COMMIT LATE PREFETCHES: 0 MISSED OPPORTUNITY: 0 LATE IN PQ: 0 UNCOVERED: 0
PSCL2 COMMIT LATE MSHR PREFETCHES: 0
PSCL2 MPKI TOTAL: 0 MSHR LATE: 0 PQ LATE: 0 COMMIT LATE: 0 MISSED OPPORTUNITY: 0 UNCOVERED: 0
PSCL2 PREFETCHES SAME FILL-ORIGIN LEVEL: 0 DIFFERENT FILL-ORIGIN LEVEL: 0

LLC SPEC fills:          0  NON-SPEC fills:     211711
LLC Test counter :    3044438
LLC Leapfrog:          0
LLC MSHR merge:          0
LLC TOTAL     ACCESS:   16890259  HIT:    3090187  MISS:   13800072  HIT %:    18.2957  MISS %:    81.7043   MPKI: 69.0004
LLC LOAD      TOTAL       ACCESS:    1318000  HIT:      47779  MISS:    1270221  HIT %:    3.62511  MISS %:    96.3749   MPKI: 6.3511
LLC LOAD      NON_SPEC    ACCESS:     214885  HIT:       3168  MISS:     211717  HIT %:    1.47428  MISS %:    98.5257   MPKI: 1.05859
LLC LOAD      SPEC        ACCESS:    1103115  HIT:      44611  MISS:    1058504  HIT %:    4.04409  MISS %:    95.9559   MPKI: 5.29252
LLC RFO       NON_SPEC    ACCESS:     222027  HIT:        411  MISS:     221616  HIT %:   0.185113  MISS %:    99.8149   MPKI: 1.10808
LLC PREFETCH  NON_SPEC    ACCESS:   11633084  HIT:     228323  MISS:   11404761  HIT %:     1.9627  MISS %:    98.0373   MPKI: 57.0238
LLC WRITEBACK NON_SPEC    ACCESS:     589025  HIT:     587271  MISS:       1754  HIT %:    99.7022  MISS %:    0.29778   MPKI: 0.00877
LLC CLEAN_EVICTION NON_SPEC    ACCESS:    3064830  HIT:    2213423  MISS:     851407  HIT %:    72.2201  MISS %:    27.7799   MPKI: 4.25704
LLC COMMIT LOAD NON_SPEC    ACCESS:      21474  HIT:      10292  MISS:      11182  HIT %:    47.9277  MISS %:    52.0723   MPKI: 0.05591
LLC LOAD TRANSLATION NON_SPEC    ACCESS:       8126  HIT:       1200  MISS:       6926  HIT %:    14.7674  MISS %:    85.2326   MPKI: 0.03463
LLC TRANSLATION FROM L1D PREFETCHER NON_SPEC    ACCESS:      33693  HIT:       1488  MISS:      32205  HIT %:    4.41635  MISS %:    95.5837   MPKI: 0.161025
LLC PREFETCH  REQUESTED:          0  ISSUED:          0  USEFUL:      46192  USELESS:   11391802
LLC USEFUL LOAD PREFETCHES:      46192 PREFETCH ISSUED TO LOWER LEVEL:   11404761  ACCURACY: 0.405024
LLC TIMELY PREFETCHES:      46192 LATE PREFETCHES: 0 DROPPED PREFETCHES: 0
LLC COMMIT LATE PREFETCHES: 0 MISSED OPPORTUNITY: 0 LATE IN PQ: 0 UNCOVERED: 0
LLC COMMIT LATE MSHR PREFETCHES: 0
LLC MPKI TOTAL: 6.3511 MSHR LATE: 0 PQ LATE: 0 COMMIT LATE: 0 MISSED OPPORTUNITY: 0 UNCOVERED: 0
LLC PREFETCHES SAME FILL-ORIGIN LEVEL: 0 DIFFERENT FILL-ORIGIN LEVEL: 0
LLC AVERAGE MISS LATENCY: 241.615 cycles
LLC AVERAGE MISS LATENCY LOAD: 177.244 cycles
LLC AVERAGE MISS LATENCY PREFETCH: 264.414 cycles
LLC AVERAGE MSHR OCCUPANCY: 7.64153
LLC MSHR FULL: 0
LLC RQ	ACCESS:    1603321	FORWARD:          0	MERGED:          0	TO_CACHE:    1603320
LLC WQ	ACCESS:    3653856	FORWARD:          1	MERGED:          0	TO_CACHE:    3653856
LLC PQ	ACCESS:   11633085	FORWARD:          0	MERGED:          0	TO_CACHE:   11633085

LLC Dense regions hint to LLC: 0

RAW hits: 2408044
Loads Generated: 69218443
Loads sent to L1D: 66810398
Stores Generated: 46248413
Stores sent to L1D: 46248418
Major fault: 0 Minor fault: 63874
Allocated PAGES: 63874
Total Load insts: 83608373
Total Non-spec loads: 10392695
Percentage of speculative loads: 87.5698

LeapFrogging counter: 5238818
Commit hits: 29173119 miss: 28735742
Commit hit %: 50.3776 miss %: 49.6224
Commits not translated: 0
Loads retired: 5423174
Stores retired: 46248418
Cache fills: 5423176
L1D response latency: 127.498 cycles
Load retirement latency: 284.828 cycles
OOO test counter: 0
Discarded buffer inserts: 29173119 hits: 18624 hit %: 0.0638396
Filter prediction accuracy: 0.993954
ALL MISSES SIZE: 22506
LATENCY_FILL: 125.448 5414339
LATENCY_FILL_ROB: 263.595 5398487
test counter pref: 82342605
Max ROB Extended: 44

DRAM Statistics
 CHANNEL 0
 RQ ROW_BUFFER_HIT:    8458474  ROW_BUFFER_MISS:    4488430
 DBUS_CONGESTED:       2774
 WQ ROW_BUFFER_HIT:     664688  ROW_BUFFER_MISS:    2967369  FULL:      10604

 AVG_CONGESTED_CYCLE: 4
 All warmup complete: 2
Channel 0 Bank busy for read cycles: 0
Channel 0 Bank busy for write cycles: 0
Channel 0
Rank 0
0banks busy for read cycles: 88893728
0banks busy for write cycles: 176485
1banks busy for read cycles: 69270241
1banks busy for write cycles: 22900594
2banks busy for read cycles: 32457656
2banks busy for write cycles: 12430422
3banks busy for read cycles: 21218932
3banks busy for write cycles: 7790618
4banks busy for read cycles: 20243425
4banks busy for write cycles: 5454036
5banks busy for read cycles: 22173543
5banks busy for write cycles: 4443010
6banks busy for read cycles: 26407393
6banks busy for write cycles: 4563061
7banks busy for read cycles: 33492659
7banks busy for write cycles: 10016419
8banks busy for read cycles: 43812437
8banks busy for write cycles: 51830670

CPU 0 Branch Prediction Accuracy: 99.1418% MPKI: 1.10599 Average ROB Occupancy at Mispredict: 156.634
Branch types
NOT_BRANCH: 174224566 87.1123%
BRANCH_DIRECT_JUMP: 2120382 1.06019%
BRANCH_INDIRECT: 0 0%
BRANCH_CONDITIONAL: 23654512 11.8273%
BRANCH_DIRECT_CALL: 241 0.0001205%
BRANCH_INDIRECT_CALL: 0 0%
BRANCH_RETURN: 240 0.00012%
BRANCH_OTHER: 0 0%

DRAM PAGES: 1048576
Allocated PAGES: 63874
