
*** ChampSim Multicore Out-of-Order Simulator ***

Warmup Instructions: 50000000
Simulation Instructions: 200000000
Number of CPUs: 1
LLC sets: 2048
LLC ways: 16
L0D sets: 16
L0D ways: 2
ROB size: 352
LQ size: 128
SQ size: 72
Secure Berti: ON
Berti: ON
Berti Fill: ON
On commit prefetching: OFF
Hit-based filter: ON
Time-guarding: ON
Free-slotting: ON
Leap-frogging: ON
Train prefetcher on L0D bypass: OFF
No translation penalty for prefetchers: OFF
Prefetch to L0D only: OFF
Prefetch to L1D only: OFF
Clean evictions: ON
Commit loads: ON
Commit write: ON
Fill commit loads to L2C, LLC: ON
DRAM IO FREQUENCY: 6400
ROB SIZE: 352
Off-chip DRAM Size: 4096 MB Channels: 1 Width: 64-bit Data Rate: 6400 MT/s
CPU 0 runs /home/sumon/secure_berti/GhostMinion/../../traces/spec/605.mcf_s-1536B.champsimtrace.xz
.xz
BTB has LRU replacement policy
ITLB has LRU replacement policy
DTLB has LRU replacement policy
STLB has LRU replacement policy
L1I has LRU replacement policy
L0D has LRU replacement policy
Berti version on_commit
History Sets: 8
History Ways: 16
BERTI Size: 16
BERTI Stride Size: 16
L1D has LRU replacement policy
L2C has LRU replacement policy
LLC has LRU replacement policy
Heartbeat CPU 0 instructions: 10000003 cycles: 4495632 heartbeat IPC: 2.22438 cumulative IPC: 2.22438 (Simulation time: 0 hr 0 min 34 sec) 
Heartbeat CPU 0 instructions: 20000003 cycles: 8965813 heartbeat IPC: 2.23705 cumulative IPC: 2.2307 (Simulation time: 0 hr 1 min 11 sec) 
Heartbeat CPU 0 instructions: 30000001 cycles: 13471657 heartbeat IPC: 2.21934 cumulative IPC: 2.2269 (Simulation time: 0 hr 1 min 49 sec) 
Heartbeat CPU 0 instructions: 40000002 cycles: 17994983 heartbeat IPC: 2.21076 cumulative IPC: 2.22284 (Simulation time: 0 hr 2 min 26 sec) 
Heartbeat CPU 0 instructions: 50000003 cycles: 22554065 heartbeat IPC: 2.19342 cumulative IPC: 2.2169 (Simulation time: 0 hr 3 min 4 sec) 

Warmup complete CPU 0 instructions: 50000003 cycles: 22554065 (Simulation time: 0 hr 3 min 4 sec) 

Heartbeat CPU 0 instructions: 60000003 cycles: 75194413 heartbeat IPC: 0.189968 cumulative IPC: 0.189968 (Simulation time: 0 hr 4 min 16 sec) 
Heartbeat CPU 0 instructions: 70000003 cycles: 128111704 heartbeat IPC: 0.188974 cumulative IPC: 0.18947 (Simulation time: 0 hr 5 min 29 sec) 
Heartbeat CPU 0 instructions: 80000001 cycles: 180856852 heartbeat IPC: 0.189591 cumulative IPC: 0.18951 (Simulation time: 0 hr 6 min 41 sec) 
Heartbeat CPU 0 instructions: 90000000 cycles: 233881744 heartbeat IPC: 0.188591 cumulative IPC: 0.189279 (Simulation time: 0 hr 7 min 54 sec) 
Heartbeat CPU 0 instructions: 100000002 cycles: 286633399 heartbeat IPC: 0.189568 cumulative IPC: 0.189337 (Simulation time: 0 hr 9 min 7 sec) 
Heartbeat CPU 0 instructions: 110000000 cycles: 339531790 heartbeat IPC: 0.189042 cumulative IPC: 0.189288 (Simulation time: 0 hr 10 min 19 sec) 
Heartbeat CPU 0 instructions: 120000000 cycles: 392705973 heartbeat IPC: 0.188061 cumulative IPC: 0.189112 (Simulation time: 0 hr 11 min 32 sec) 
Heartbeat CPU 0 instructions: 130000003 cycles: 445781378 heartbeat IPC: 0.188411 cumulative IPC: 0.189024 (Simulation time: 0 hr 12 min 44 sec) 
Heartbeat CPU 0 instructions: 140000003 cycles: 499014706 heartbeat IPC: 0.187852 cumulative IPC: 0.188893 (Simulation time: 0 hr 13 min 54 sec) 
Heartbeat CPU 0 instructions: 150000001 cycles: 552022866 heartbeat IPC: 0.18865 cumulative IPC: 0.188869 (Simulation time: 0 hr 15 min 3 sec) 
Heartbeat CPU 0 instructions: 160000000 cycles: 604916137 heartbeat IPC: 0.18906 cumulative IPC: 0.188886 (Simulation time: 0 hr 16 min 10 sec) 
Heartbeat CPU 0 instructions: 170000002 cycles: 657832934 heartbeat IPC: 0.188976 cumulative IPC: 0.188893 (Simulation time: 0 hr 17 min 17 sec) 
Heartbeat CPU 0 instructions: 180000002 cycles: 710428186 heartbeat IPC: 0.190131 cumulative IPC: 0.188988 (Simulation time: 0 hr 18 min 23 sec) 
Heartbeat CPU 0 instructions: 190000000 cycles: 763108741 heartbeat IPC: 0.189823 cumulative IPC: 0.189047 (Simulation time: 0 hr 19 min 30 sec) 
Heartbeat CPU 0 instructions: 200000003 cycles: 815641501 heartbeat IPC: 0.190357 cumulative IPC: 0.189134 (Simulation time: 0 hr 20 min 35 sec) 
Heartbeat CPU 0 instructions: 210000000 cycles: 868450246 heartbeat IPC: 0.189363 cumulative IPC: 0.189149 (Simulation time: 0 hr 21 min 41 sec) 
Heartbeat CPU 0 instructions: 220000000 cycles: 921482599 heartbeat IPC: 0.188564 cumulative IPC: 0.189114 (Simulation time: 0 hr 22 min 45 sec) 
Heartbeat CPU 0 instructions: 230000000 cycles: 974921909 heartbeat IPC: 0.187128 cumulative IPC: 0.189003 (Simulation time: 0 hr 23 min 47 sec) 
Heartbeat CPU 0 instructions: 240000002 cycles: 1028554510 heartbeat IPC: 0.186454 cumulative IPC: 0.188867 (Simulation time: 0 hr 24 min 50 sec) 
Heartbeat CPU 0 instructions: 250000001 cycles: 1082708014 heartbeat IPC: 0.18466 cumulative IPC: 0.188652 (Simulation time: 0 hr 25 min 52 sec) 
Finished CPU 0 instructions: 200000002 cycles: 1060153950 cumulative IPC: 0.188652 (Simulation time: 0 hr 25 min 52 sec) 
 Instruction ID: 250000381

ChampSim completed all CPUs

Region of Interest Statistics

CPU 0 cumulative IPC: 0.188652 instructions: 200000002 cycles: 1060153950
ITLB SPEC fills:          0  NON-SPEC fills:          0
ITLB Test counter :          0
ITLB Leapfrog:          0
ITLB MSHR merge:          0
ITLB TOTAL     ACCESS:   38177248  HIT:   38177248  MISS:          0  HIT %:        100  MISS %:          0   MPKI: 0
ITLB LOAD TRANSLATION NON_SPEC    ACCESS:   38177248  HIT:   38177248  MISS:          0  HIT %:        100  MISS %:          0   MPKI: 0
ITLB PREFETCH  REQUESTED:          0  ISSUED:          0  USEFUL:          0  USELESS:          0
ITLB USEFUL LOAD PREFETCHES:          0 PREFETCH ISSUED TO LOWER LEVEL:          0  ACCURACY: -nan
ITLB TIMELY PREFETCHES:          0 LATE PREFETCHES: 0 DROPPED PREFETCHES: 0
ITLB COMMIT LATE PREFETCHES: 0 MISSED OPPORTUNITY: 0 LATE IN PQ: 0 UNCOVERED: 0
ITLB COMMIT LATE MSHR PREFETCHES: 0
ITLB MPKI TOTAL: 0 MSHR LATE: 0 PQ LATE: 0 COMMIT LATE: 0 MISSED OPPORTUNITY: 0 UNCOVERED: 0
ITLB PREFETCHES SAME FILL-ORIGIN LEVEL: 0 DIFFERENT FILL-ORIGIN LEVEL: 0
ITLB AVERAGE MISS LATENCY: -nan cycles
ITLB AVERAGE MISS LATENCY LOAD: -nan cycles
ITLB AVERAGE MISS LATENCY PREFETCH: -nan cycles
ITLB AVERAGE MSHR OCCUPANCY: 0
ITLB MSHR FULL: 0
ITLB RQ	ACCESS:   39398679	FORWARD:          0	MERGED:    1221431	TO_CACHE:   38177248

DTLB SPEC fills:          0  NON-SPEC fills:          0
DTLB Test counter :          0
DTLB Leapfrog:          0
DTLB MSHR merge:          0
DTLB TOTAL     ACCESS:   33845203  HIT:   28970868  MISS:    4874335  HIT %:    85.5982  MISS %:    14.4018   MPKI: 24.3717
DTLB LOAD TRANSLATION NON_SPEC    ACCESS:   33845203  HIT:   28970868  MISS:    4874335  HIT %:    85.5982  MISS %:    14.4018   MPKI: 24.3717
DTLB PREFETCH  REQUESTED:          0  ISSUED:          0  USEFUL:          0  USELESS:          0
DTLB USEFUL LOAD PREFETCHES:          0 PREFETCH ISSUED TO LOWER LEVEL:          0  ACCURACY: -nan
DTLB TIMELY PREFETCHES:          0 LATE PREFETCHES: 0 DROPPED PREFETCHES: 0
DTLB COMMIT LATE PREFETCHES: 0 MISSED OPPORTUNITY: 0 LATE IN PQ: 0 UNCOVERED: 0
DTLB COMMIT LATE MSHR PREFETCHES: 0
DTLB MPKI TOTAL: 0 MSHR LATE: 0 PQ LATE: 0 COMMIT LATE: 0 MISSED OPPORTUNITY: 0 UNCOVERED: 0
DTLB PREFETCHES SAME FILL-ORIGIN LEVEL: 0 DIFFERENT FILL-ORIGIN LEVEL: 0
DTLB AVERAGE MISS LATENCY: 128.601 cycles
DTLB AVERAGE MISS LATENCY LOAD: -nan cycles
DTLB AVERAGE MISS LATENCY PREFETCH: -nan cycles
DTLB AVERAGE MSHR OCCUPANCY: 0.482414
DTLB MSHR FULL: 0
DTLB RQ	ACCESS:   38823992	FORWARD:          0	MERGED:    4956788	TO_CACHE:   33867204

STLB SPEC fills:          0  NON-SPEC fills:          0
STLB Test counter :          0
STLB Leapfrog:          0
STLB MSHR merge:          0
STLB TOTAL     ACCESS:   12400812  HIT:    7755682  MISS:    4645130  HIT %:    62.5417  MISS %:    37.4583   MPKI: 23.2256
STLB LOAD TRANSLATION NON_SPEC    ACCESS:    4874335  HIT:     338964  MISS:    4535371  HIT %:    6.95406  MISS %:    93.0459   MPKI: 22.6769
STLB TRANSLATION FROM L1D PREFETCHER NON_SPEC    ACCESS:    7526477  HIT:    7416718  MISS:     109759  HIT %:    98.5417  MISS %:    1.45831   MPKI: 0.548795
STLB PREFETCH  REQUESTED:          0  ISSUED:          0  USEFUL:     108307  USELESS:       1452
STLB USEFUL LOAD PREFETCHES:     108307 PREFETCH ISSUED TO LOWER LEVEL:          0  ACCURACY: inf
STLB TIMELY PREFETCHES:     108307 LATE PREFETCHES: 2193 DROPPED PREFETCHES: 84582
STLB COMMIT LATE PREFETCHES: 0 MISSED OPPORTUNITY: 0 LATE IN PQ: 0 UNCOVERED: 0
STLB COMMIT LATE MSHR PREFETCHES: 0
STLB MPKI TOTAL: 0 MSHR LATE: 0.010965 PQ LATE: 0 COMMIT LATE: 0 MISSED OPPORTUNITY: 0 UNCOVERED: 0
STLB PREFETCHES SAME FILL-ORIGIN LEVEL: 0 DIFFERENT FILL-ORIGIN LEVEL: 0
STLB AVERAGE MISS LATENCY: 127.308 cycles
STLB AVERAGE MISS LATENCY LOAD: -nan cycles
STLB AVERAGE MISS LATENCY PREFETCH: -nan cycles
STLB AVERAGE MSHR OCCUPANCY: 0.32559
STLB MSHR FULL: 0
STLB RQ	ACCESS:   26277565	FORWARD:          0	MERGED:   13767353	TO_CACHE:   12510212

STLB Hit, L1D data hit: 0
STLB Hit, L2C data hit: 0
STLB Hit, LLC data hit: 0
STLB Hit, LLC data miss: 0
STLB STLB hints to L2: 0
L0D SPEC fills:   19638259  NON-SPEC fills:          0
L0D TimeGuard Request with older TS:     613549 Restricted eviction:       7682 read:    2486948
L0D Test counter :          0
L0D Leapfrog:          0
L0D MSHR merge:     894469
L0D TOTAL     ACCESS:   29061112  HIT:    1808388  MISS:   27252724  HIT %:    6.22271  MISS %:    93.7773   MPKI: 136.264
L0D LOAD      TOTAL       ACCESS:   29061112  HIT:    1808388  MISS:   27252724  HIT %:    6.22271  MISS %:    93.7773   MPKI: 136.264
L0D LOAD      NON_SPEC    ACCESS:    7918756  HIT:     311973  MISS:    7606783  HIT %:    3.93967  MISS %:    96.0603   MPKI: 38.0339
L0D LOAD      SPEC        ACCESS:   21142356  HIT:    1496415  MISS:   19645941  HIT %:    7.07781  MISS %:    92.9222   MPKI: 98.2297
L0D PREFETCH  REQUESTED:          0  ISSUED:          0  USEFUL:          0  USELESS:          0
L0D USEFUL LOAD PREFETCHES:          0 PREFETCH ISSUED TO LOWER LEVEL:          0  ACCURACY: -nan
L0D TIMELY PREFETCHES:          0 LATE PREFETCHES: 0 DROPPED PREFETCHES: 0
L0D COMMIT LATE PREFETCHES: 0 MISSED OPPORTUNITY: 0 LATE IN PQ: 0 UNCOVERED: 0
L0D COMMIT LATE MSHR PREFETCHES: 0
L0D MPKI TOTAL: 140.736 MSHR LATE: 0 PQ LATE: 0 COMMIT LATE: 0 MISSED OPPORTUNITY: 0 UNCOVERED: 0
L0D PREFETCHES SAME FILL-ORIGIN LEVEL: 0 DIFFERENT FILL-ORIGIN LEVEL: 0
L0D AVERAGE MISS LATENCY: 43.005 cycles
L0D AVERAGE MISS LATENCY LOAD: 43.005 cycles
L0D AVERAGE MISS LATENCY PREFETCH: -nan cycles
L0D AVERAGE MSHR OCCUPANCY: 0.869694
L0D MSHR FULL: 0
L0D RQ	ACCESS:   49150792	FORWARD:          0	MERGED:   19195214	TO_CACHE:   29955578
L0D WQ	ACCESS:    8868414	FORWARD:          0	MERGED:          0	TO_CACHE:    8868414

L1D SPEC fills:          0  NON-SPEC fills:    3138178
L1D Test counter :    6044724
L1D Leapfrog:          0
L1D MSHR merge:       1380
L1D TOTAL     ACCESS:   54591835  HIT:   35978538  MISS:   18613297  HIT %:    65.9046  MISS %:    34.0954   MPKI: 93.0665
L1D LOAD      TOTAL       ACCESS:   27251989  HIT:   17300911  MISS:    9951078  HIT %:    63.4849  MISS %:    36.5151   MPKI: 49.7554
L1D LOAD      NON_SPEC    ACCESS:    7606728  HIT:    4468550  MISS:    3138178  HIT %:    58.7447  MISS %:    41.2553   MPKI: 15.6909
L1D LOAD      SPEC        ACCESS:   19645261  HIT:   12832361  MISS:    6812900  HIT %:    65.3204  MISS %:    34.6796   MPKI: 34.0645
L1D RFO       NON_SPEC    ACCESS:    8867788  HIT:    8313441  MISS:     554347  HIT %:    93.7488  MISS %:    6.25124   MPKI: 2.77173
L1D PREFETCH  NON_SPEC    ACCESS:    3770132  HIT:    2463328  MISS:    1306804  HIT %:     65.338  MISS %:     34.662   MPKI: 6.53402
L1D COMMIT LOAD NON_SPEC    ACCESS:    7890224  HIT:    7883857  MISS:       6367  HIT %:    99.9193  MISS %:  0.0806948   MPKI: 0.031835
L1D COMMIT WRITE NON_SPEC    ACCESS:    6811702  HIT:      17001  MISS:    6794701  HIT %:   0.249585  MISS %:    99.7504   MPKI: 33.9735
L1D PREFETCH  REQUESTED:   21508226  ISSUED:   21506493  USEFUL:     605273  USELESS:     701555
L1D USEFUL LOAD PREFETCHES:     605273 PREFETCH ISSUED TO LOWER LEVEL:   18808444  ACCURACY: 3.21809
L1D TIMELY PREFETCHES:     605273 LATE PREFETCHES: 646 DROPPED PREFETCHES: 101661
L1D COMMIT LATE PREFETCHES: 0 MISSED OPPORTUNITY: 0 LATE IN PQ: 0 UNCOVERED: 0
L1D COMMIT LATE MSHR PREFETCHES: 0
L1D MPKI TOTAL: 49.7591 MSHR LATE: 0.00323 PQ LATE: 0 COMMIT LATE: 0 MISSED OPPORTUNITY: 0 UNCOVERED: 0
L1D PREFETCHES SAME FILL-ORIGIN LEVEL: 1307450 DIFFERENT FILL-ORIGIN LEVEL: 17500994
L1D AVERAGE MISS LATENCY: 58.1016 cycles
L1D AVERAGE MISS LATENCY LOAD: 103.701 cycles
L1D AVERAGE MISS LATENCY PREFETCH: 23.0652 cycles
L1D AVERAGE MSHR OCCUPANCY: 0.720819
L1D MSHR FULL: 0
L1D RQ	ACCESS:   37991315	FORWARD:          0	MERGED:    2847823	TO_CACHE:   35143492
L1D WQ	ACCESS:   15680115	FORWARD:          0	MERGED:          0	TO_CACHE:   15680115
L1D PQ	ACCESS:   21506493	FORWARD:          0	MERGED:     103262	TO_CACHE:   21403231

L1D UNIQUE REGIONS ACCESSED: 0
L1D REGIONS CONFLICTS: 0
L1D Cross Page Prefetch Requests: 3835880
L1D Same Page Prefetch Requests: 24766086
L1D ROI Sum of L1D PQ occupancy: 357274316
L1D PREFETCHES PUSHED FROM L2C: 0
L1I SPEC fills:          0  NON-SPEC fills:          0
L1I Test counter :          0
L1I Leapfrog:          0
L1I MSHR merge:          0
L1I TOTAL     ACCESS:   39398677  HIT:   39398677  MISS:          0  HIT %:        100  MISS %:          0   MPKI: 0
L1I LOAD      TOTAL       ACCESS:   39398677  HIT:   39398677  MISS:          0  HIT %:        100  MISS %:          0   MPKI: 0
L1I LOAD      NON_SPEC    ACCESS:   39398677  HIT:   39398677  MISS:          0  HIT %:        100  MISS %:          0   MPKI: 0
L1I PREFETCH  REQUESTED:          0  ISSUED:          0  USEFUL:          0  USELESS:          0
L1I USEFUL LOAD PREFETCHES:          0 PREFETCH ISSUED TO LOWER LEVEL:          0  ACCURACY: -nan
L1I TIMELY PREFETCHES:          0 LATE PREFETCHES: 0 DROPPED PREFETCHES: 0
L1I COMMIT LATE PREFETCHES: 0 MISSED OPPORTUNITY: 0 LATE IN PQ: 0 UNCOVERED: 0
L1I COMMIT LATE MSHR PREFETCHES: 0
L1I MPKI TOTAL: 0 MSHR LATE: 0 PQ LATE: 0 COMMIT LATE: 0 MISSED OPPORTUNITY: 0 UNCOVERED: 0
L1I PREFETCHES SAME FILL-ORIGIN LEVEL: 0 DIFFERENT FILL-ORIGIN LEVEL: 0
L1I AVERAGE MISS LATENCY: -nan cycles
L1I AVERAGE MISS LATENCY LOAD: -nan cycles
L1I AVERAGE MISS LATENCY PREFETCH: -nan cycles
L1I AVERAGE MSHR OCCUPANCY: 0
L1I MSHR FULL: 0
L1I RQ	ACCESS:   61128285	FORWARD:          0	MERGED:   21729606	TO_CACHE:   39398679

BTB SPEC fills:          0  NON-SPEC fills:          0
BTB Test counter :          0
BTB Leapfrog:          0
BTB MSHR merge:          0
BTB TOTAL     ACCESS:   26649158  HIT:   26649150  MISS:          8  HIT %:        100  MISS %: 3.00197e-05   MPKI: 4e-05
BTB BRANCH_DIRECT_JUMP	ACCESS:    4549688  HIT:    4549686  MISS:          2
BTB BRANCH_INDIRECT	ACCESS:          0  HIT:          0  MISS:          0
BTB BRANCH_CONDITIONAL	ACCESS:   13231060  HIT:   13231056  MISS:          4
BTB BRANCH_DIRECT_CALL	ACCESS:    4434205  HIT:    4434204  MISS:          1
BTB BRANCH_INDIRECT_CALL	ACCESS:          0  HIT:          0  MISS:          0
BTB BRANCH_RETURN	ACCESS:    4434205  HIT:    4434204  MISS:          1
BTB BRANCH_OTHER ACCESS:          0  HIT:          0  MISS:          0

L2C SPEC fills:          0  NON-SPEC fills:     830783
L2C Test counter :    5779626
L2C Leapfrog:          0
L2C MSHR merge:       4868
L2C TOTAL     ACCESS:   59676819  HIT:   39893928  MISS:   19782891  HIT %:      66.85  MISS %:      33.15   MPKI: 98.9145
L2C LOAD      TOTAL       ACCESS:    9948917  HIT:    3447741  MISS:    6501176  HIT %:    34.6544  MISS %:    65.3456   MPKI: 32.5059
L2C LOAD      NON_SPEC    ACCESS:    3138053  HIT:    2307270  MISS:     830783  HIT %:    73.5255  MISS %:    26.4745   MPKI: 4.15391
L2C LOAD      SPEC        ACCESS:    6810864  HIT:    1140471  MISS:    5670393  HIT %:    16.7449  MISS %:    83.2551   MPKI: 28.352
L2C RFO       NON_SPEC    ACCESS:     554347  HIT:     194377  MISS:     359970  HIT %:    35.0641  MISS %:    64.9359   MPKI: 1.79985
L2C PREFETCH  NON_SPEC    ACCESS:   18757347  HIT:   15559221  MISS:    3198126  HIT %:      82.95  MISS %:      17.05   MPKI: 15.9906
L2C WRITEBACK NON_SPEC    ACCESS:     716523  HIT:     716514  MISS:          9  HIT %:    99.9987  MISS %: 0.00125607   MPKI: 4.5e-05
L2C CLEAN_EVICTION NON_SPEC    ACCESS:    6044724  HIT:     289350  MISS:    5755374  HIT %:    4.78682  MISS %:    95.2132   MPKI: 28.7769
L2C COMMIT LOAD NON_SPEC    ACCESS:       6366  HIT:       4957  MISS:       1409  HIT %:    77.8668  MISS %:    22.1332   MPKI: 0.007045
L2C LOAD TRANSLATION NON_SPEC    ACCESS:   22665925  HIT:   18709087  MISS:    3956838  HIT %:    82.5428  MISS %:    17.4572   MPKI: 19.7842
L2C TRANSLATION FROM L1D PREFETCHER NON_SPEC    ACCESS:     982670  HIT:     972681  MISS:       9989  HIT %:    98.9835  MISS %:    1.01652   MPKI: 0.049945
L2C PREFETCH  REQUESTED:          0  ISSUED:          0  USEFUL:     731573  USELESS:    2475273
L2C USEFUL LOAD PREFETCHES:     731573 PREFETCH ISSUED TO LOWER LEVEL:    3203009  ACCURACY: 22.8402
L2C TIMELY PREFETCHES:     731573 LATE PREFETCHES: 4881 DROPPED PREFETCHES: 0
L2C COMMIT LATE PREFETCHES: 0 MISSED OPPORTUNITY: 0 LATE IN PQ: 0 UNCOVERED: 0
L2C COMMIT LATE MSHR PREFETCHES: 0
L2C MPKI TOTAL: 32.5059 MSHR LATE: 0.024405 PQ LATE: 0 COMMIT LATE: 0 MISSED OPPORTUNITY: 0 UNCOVERED: 0
L2C PREFETCHES SAME FILL-ORIGIN LEVEL: 3002720 DIFFERENT FILL-ORIGIN LEVEL: 0
L2C AVERAGE MISS LATENCY: 59.329 cycles
L2C AVERAGE MISS LATENCY LOAD: 139.728 cycles
L2C AVERAGE MISS LATENCY PREFETCH: 41.2927 cycles
L2C AVERAGE MSHR OCCUPANCY: 0.793005
L2C MSHR FULL: 0
L2C RQ	ACCESS:   34159741	FORWARD:          0	MERGED:          0	TO_CACHE:   34158225
L2C WQ	ACCESS:    6761247	FORWARD:       1516	MERGED:          0	TO_CACHE:    6761247
L2C PQ	ACCESS:   18808444	FORWARD:          0	MERGED:          5	TO_CACHE:   18808439

L2C Instructions Evicting Data 0
L2C Translations Evicting Data 2523713
L2C Data Evicting Data 3259131
L2C Instructions Evicting Instructions 0
L2C Translations Evicting Instructions 0
L2C Data Evicting Instructions 0
L2C Instructions Evicting Translations 0
L2C Translations Evicting Translations 1443114
L2C Data Evicting Translations 1131157
L2C Dense regions hint from L2: 0
PSCL5 SPEC fills:          0  NON-SPEC fills:          0
PSCL5 Test counter :          0
PSCL5 Leapfrog:          0
PSCL5 MSHR merge:          0
PSCL5 TOTAL     ACCESS:          0  HIT:          0  MISS:          0  HIT %:       -nan  MISS %:       -nan   MPKI: 0
PSCL5 PREFETCH  REQUESTED:          0  ISSUED:          0  USEFUL:          0  USELESS:          0
PSCL5 USEFUL LOAD PREFETCHES:          0 PREFETCH ISSUED TO LOWER LEVEL:          0  ACCURACY: -nan
PSCL5 TIMELY PREFETCHES:          0 LATE PREFETCHES: 0 DROPPED PREFETCHES: 0
PSCL5 COMMIT LATE PREFETCHES: 0 MISSED OPPORTUNITY: 0 LATE IN PQ: 0 UNCOVERED: 0
PSCL5 COMMIT LATE MSHR PREFETCHES: 0
PSCL5 MPKI TOTAL: 0 MSHR LATE: 0 PQ LATE: 0 COMMIT LATE: 0 MISSED OPPORTUNITY: 0 UNCOVERED: 0
PSCL5 PREFETCHES SAME FILL-ORIGIN LEVEL: 0 DIFFERENT FILL-ORIGIN LEVEL: 0

PSCL4 SPEC fills:          0  NON-SPEC fills:          0
PSCL4 Test counter :          0
PSCL4 Leapfrog:          0
PSCL4 MSHR merge:          0
PSCL4 TOTAL     ACCESS:          0  HIT:          0  MISS:          0  HIT %:       -nan  MISS %:       -nan   MPKI: 0
PSCL4 PREFETCH  REQUESTED:          0  ISSUED:          0  USEFUL:          0  USELESS:          0
PSCL4 USEFUL LOAD PREFETCHES:          0 PREFETCH ISSUED TO LOWER LEVEL:          0  ACCURACY: -nan
PSCL4 TIMELY PREFETCHES:          0 LATE PREFETCHES: 0 DROPPED PREFETCHES: 0
PSCL4 COMMIT LATE PREFETCHES: 0 MISSED OPPORTUNITY: 0 LATE IN PQ: 0 UNCOVERED: 0
PSCL4 COMMIT LATE MSHR PREFETCHES: 0
PSCL4 MPKI TOTAL: 0 MSHR LATE: 0 PQ LATE: 0 COMMIT LATE: 0 MISSED OPPORTUNITY: 0 UNCOVERED: 0
PSCL4 PREFETCHES SAME FILL-ORIGIN LEVEL: 0 DIFFERENT FILL-ORIGIN LEVEL: 0

PSCL3 SPEC fills:          0  NON-SPEC fills:          0
PSCL3 Test counter :          0
PSCL3 Leapfrog:          0
PSCL3 MSHR merge:          0
PSCL3 TOTAL     ACCESS:          0  HIT:          0  MISS:          0  HIT %:       -nan  MISS %:       -nan   MPKI: 0
PSCL3 PREFETCH  REQUESTED:          0  ISSUED:          0  USEFUL:          0  USELESS:          0
PSCL3 USEFUL LOAD PREFETCHES:          0 PREFETCH ISSUED TO LOWER LEVEL:          0  ACCURACY: -nan
PSCL3 TIMELY PREFETCHES:          0 LATE PREFETCHES: 0 DROPPED PREFETCHES: 0
PSCL3 COMMIT LATE PREFETCHES: 0 MISSED OPPORTUNITY: 0 LATE IN PQ: 0 UNCOVERED: 0
PSCL3 COMMIT LATE MSHR PREFETCHES: 0
PSCL3 MPKI TOTAL: 0 MSHR LATE: 0 PQ LATE: 0 COMMIT LATE: 0 MISSED OPPORTUNITY: 0 UNCOVERED: 0
PSCL3 PREFETCHES SAME FILL-ORIGIN LEVEL: 0 DIFFERENT FILL-ORIGIN LEVEL: 0

PSCL2 SPEC fills:          0  NON-SPEC fills:          0
PSCL2 Test counter :          0
PSCL2 Leapfrog:          0
PSCL2 MSHR merge:          0
PSCL2 TOTAL     ACCESS:          0  HIT:          0  MISS:          0  HIT %:       -nan  MISS %:       -nan   MPKI: 0
PSCL2 PREFETCH  REQUESTED:          0  ISSUED:          0  USEFUL:          0  USELESS:          0
PSCL2 USEFUL LOAD PREFETCHES:          0 PREFETCH ISSUED TO LOWER LEVEL:          0  ACCURACY: -nan
PSCL2 TIMELY PREFETCHES:          0 LATE PREFETCHES: 0 DROPPED PREFETCHES: 0
PSCL2 COMMIT LATE PREFETCHES: 0 MISSED OPPORTUNITY: 0 LATE IN PQ: 0 UNCOVERED: 0
PSCL2 COMMIT LATE MSHR PREFETCHES: 0
PSCL2 MPKI TOTAL: 0 MSHR LATE: 0 PQ LATE: 0 COMMIT LATE: 0 MISSED OPPORTUNITY: 0 UNCOVERED: 0
PSCL2 PREFETCHES SAME FILL-ORIGIN LEVEL: 0 DIFFERENT FILL-ORIGIN LEVEL: 0

LLC SPEC fills:          0  NON-SPEC fills:     308669
LLC Test counter :    4777091
LLC Leapfrog:          0
LLC MSHR merge:          0
LLC TOTAL     ACCESS:   20336981  HIT:   10431203  MISS:    9905778  HIT %:    51.2918  MISS %:    48.7082   MPKI: 49.5289
LLC LOAD      TOTAL       ACCESS:    6496277  HIT:    1494834  MISS:    5001443  HIT %:    23.0106  MISS %:    76.9894   MPKI: 25.0072
LLC LOAD      NON_SPEC    ACCESS:     827786  HIT:     519117  MISS:     308669  HIT %:    62.7115  MISS %:    37.2885   MPKI: 1.54334
LLC LOAD      SPEC        ACCESS:    5668491  HIT:     975717  MISS:    4692774  HIT %:     17.213  MISS %:     82.787   MPKI: 23.4639
LLC RFO       NON_SPEC    ACCESS:     359966  HIT:     359964  MISS:          2  HIT %:    99.9994  MISS %: 0.000555608   MPKI: 1e-05
LLC PREFETCH  NON_SPEC    ACCESS:    3203004  HIT:    3015147  MISS:     187857  HIT %:     94.135  MISS %:    5.86503   MPKI: 0.939285
LLC WRITEBACK NON_SPEC    ACCESS:     529885  HIT:     529885  MISS:          0  HIT %:        100  MISS %:          0   MPKI: 0
LLC CLEAN_EVICTION NON_SPEC    ACCESS:    5779626  HIT:    1082079  MISS:    4697547  HIT %:    18.7223  MISS %:    81.2777   MPKI: 23.4877
LLC COMMIT LOAD NON_SPEC    ACCESS:       1396  HIT:        887  MISS:        509  HIT %:    63.5387  MISS %:    36.4613   MPKI: 0.002545
LLC LOAD TRANSLATION NON_SPEC    ACCESS:    3956838  HIT:    3938741  MISS:      18097  HIT %:    99.5426  MISS %:    0.45736   MPKI: 0.090485
LLC TRANSLATION FROM L1D PREFETCHER NON_SPEC    ACCESS:       9989  HIT:       9666  MISS:        323  HIT %:    96.7664  MISS %:    3.23356   MPKI: 0.001615
LLC PREFETCH  REQUESTED:          0  ISSUED:          0  USEFUL:       4276  USELESS:     179444
LLC USEFUL LOAD PREFETCHES:       4276 PREFETCH ISSUED TO LOWER LEVEL:     187857  ACCURACY: 2.2762
LLC TIMELY PREFETCHES:       4276 LATE PREFETCHES: 0 DROPPED PREFETCHES: 0
LLC COMMIT LATE PREFETCHES: 0 MISSED OPPORTUNITY: 0 LATE IN PQ: 0 UNCOVERED: 0
LLC COMMIT LATE MSHR PREFETCHES: 0
LLC MPKI TOTAL: 25.0072 MSHR LATE: 0 PQ LATE: 0 COMMIT LATE: 0 MISSED OPPORTUNITY: 0 UNCOVERED: 0
LLC PREFETCHES SAME FILL-ORIGIN LEVEL: 0 DIFFERENT FILL-ORIGIN LEVEL: 0
LLC AVERAGE MISS LATENCY: 81.0483 cycles
LLC AVERAGE MISS LATENCY LOAD: 152.665 cycles
LLC AVERAGE MISS LATENCY PREFETCH: 191.238 cycles
LLC AVERAGE MSHR OCCUPANCY: 0.655316
LLC MSHR FULL: 0
LLC RQ	ACCESS:   10824501	FORWARD:          0	MERGED:          0	TO_CACHE:   10824466
LLC WQ	ACCESS:    6309511	FORWARD:         38	MERGED:          0	TO_CACHE:    6309511
LLC PQ	ACCESS:    3203009	FORWARD:          0	MERGED:          0	TO_CACHE:    3203006

LLC Dense regions hint to LLC: 0

RAW hits: 4057927
Loads Generated: 53208719
Loads sent to L1D: 49150792
Stores Generated: 8868414
Stores sent to L1D: 8868414
Major fault: 0 Minor fault: 101164
Allocated PAGES: 101164
Total Load insts: 61391214
Total Non-spec loads: 9380896
Percentage of speculative loads: 84.7195

LeapFrogging counter: 0
Commit hits: 19298701 miss: 21845179
Commit hit %: 46.9054 miss %: 53.0946
Commits not translated: 0
Loads retired: 9951078
Stores retired: 8868414
Cache fills: 9951078
L1D response latency: 103.701 cycles
Load retirement latency: 238.754 cycles
OOO test counter: 0
Discarded buffer inserts: 19298701 hits: 12102 hit %: 0.0627089
Filter prediction accuracy: 0.974274
ALL MISSES SIZE: 7573
LATENCY_FILL: 103.588 9936063
LATENCY_FILL_ROB: 150.031 9929216
test counter pref: 180562217
Max ROB Extended: 11

DRAM Statistics
 CHANNEL 0
 RQ ROW_BUFFER_HIT:      19667  ROW_BUFFER_MISS:    5188562
 DBUS_CONGESTED:        112
 WQ ROW_BUFFER_HIT:    1229377  ROW_BUFFER_MISS:    3739789  FULL:        128

 AVG_CONGESTED_CYCLE: 6
 All warmup complete: 2
Channel 0 Bank busy for read cycles: 0
Channel 0 Bank busy for write cycles: 0
Channel 0
Rank 0
0banks busy for read cycles: 81637549
0banks busy for write cycles: 710064
1banks busy for read cycles: 420818454
1banks busy for write cycles: 125197836
2banks busy for read cycles: 133025124
2banks busy for write cycles: 100716851
3banks busy for read cycles: 28478411
3banks busy for write cycles: 68659843
4banks busy for read cycles: 1402843
4banks busy for write cycles: 45406295
5banks busy for read cycles: 233817
5banks busy for write cycles: 27345227
6banks busy for read cycles: 73801
6banks busy for write cycles: 14572592
7banks busy for read cycles: 23869
7banks busy for write cycles: 7016132
8banks busy for read cycles: 5821
8banks busy for write cycles: 4829422

CPU 0 Branch Prediction Accuracy: 99.988% MPKI: 0.01864 Average ROB Occupancy at Mispredict: 328.204
Branch types
NOT_BRANCH: 168845084 84.4225%
BRANCH_DIRECT_JUMP: 4549688 2.27484%
BRANCH_INDIRECT: 0 0%
BRANCH_CONDITIONAL: 17736819 8.86841%
BRANCH_DIRECT_CALL: 4434205 2.2171%
BRANCH_INDIRECT_CALL: 0 0%
BRANCH_RETURN: 4434205 2.2171%
BRANCH_OTHER: 0 0%

DRAM PAGES: 1048576
Allocated PAGES: 101164
