
*** ChampSim Multicore Out-of-Order Simulator ***

Warmup Instructions: 50000000
Simulation Instructions: 200000000
Number of CPUs: 1
LLC sets: 2048
LLC ways: 16
L0D sets: 16
L0D ways: 2
ROB size: 352
LQ size: 128
SQ size: 72
Secure Berti: ON
Berti: ON
Berti Fill: ON
On commit prefetching: OFF
Hit-based filter: ON
Time-guarding: ON
Free-slotting: ON
Leap-frogging: ON
Train prefetcher on L0D bypass: OFF
No translation penalty for prefetchers: OFF
Prefetch to L0D only: OFF
Prefetch to L1D only: OFF
Clean evictions: ON
Commit loads: ON
Commit write: ON
Fill commit loads to L2C, LLC: ON
DRAM IO FREQUENCY: 6400
ROB SIZE: 352
Off-chip DRAM Size: 4096 MB Channels: 1 Width: 64-bit Data Rate: 6400 MT/s
CPU 0 runs /home/sumon/secure_berti/GhostMinion/../../traces/spec/605.mcf_s-1644B.champsimtrace.xz
.xz
BTB has LRU replacement policy
ITLB has LRU replacement policy
DTLB has LRU replacement policy
STLB has LRU replacement policy
L1I has LRU replacement policy
L0D has LRU replacement policy
Berti version on_commit
History Sets: 8
History Ways: 16
BERTI Size: 16
BERTI Stride Size: 16
L1D has LRU replacement policy
L2C has LRU replacement policy
LLC has LRU replacement policy
Heartbeat CPU 0 instructions: 10000003 cycles: 14285321 heartbeat IPC: 0.700019 cumulative IPC: 0.700019 (Simulation time: 0 hr 1 min 15 sec) 
Heartbeat CPU 0 instructions: 20000001 cycles: 28564292 heartbeat IPC: 0.70033 cumulative IPC: 0.700175 (Simulation time: 0 hr 2 min 32 sec) 
Heartbeat CPU 0 instructions: 30000002 cycles: 42857721 heartbeat IPC: 0.699622 cumulative IPC: 0.699991 (Simulation time: 0 hr 3 min 52 sec) 
Heartbeat CPU 0 instructions: 40000001 cycles: 57143096 heartbeat IPC: 0.700017 cumulative IPC: 0.699997 (Simulation time: 0 hr 5 min 10 sec) 
Heartbeat CPU 0 instructions: 50000000 cycles: 71437561 heartbeat IPC: 0.699571 cumulative IPC: 0.699912 (Simulation time: 0 hr 6 min 28 sec) 

Warmup complete CPU 0 instructions: 50000004 cycles: 71437562 (Simulation time: 0 hr 6 min 28 sec) 

Heartbeat CPU 0 instructions: 60000001 cycles: 141276536 heartbeat IPC: 0.143187 cumulative IPC: 0.143186 (Simulation time: 0 hr 8 min 29 sec) 
Heartbeat CPU 0 instructions: 70000003 cycles: 211385051 heartbeat IPC: 0.142636 cumulative IPC: 0.142911 (Simulation time: 0 hr 10 min 31 sec) 
Heartbeat CPU 0 instructions: 80000000 cycles: 281746464 heartbeat IPC: 0.142123 cumulative IPC: 0.142647 (Simulation time: 0 hr 12 min 33 sec) 
Heartbeat CPU 0 instructions: 90000000 cycles: 352263181 heartbeat IPC: 0.14181 cumulative IPC: 0.142437 (Simulation time: 0 hr 14 min 36 sec) 
Heartbeat CPU 0 instructions: 100000003 cycles: 423625923 heartbeat IPC: 0.140129 cumulative IPC: 0.141969 (Simulation time: 0 hr 16 min 26 sec) 
Heartbeat CPU 0 instructions: 110000000 cycles: 495171212 heartbeat IPC: 0.139772 cumulative IPC: 0.141598 (Simulation time: 0 hr 18 min 8 sec) 
Heartbeat CPU 0 instructions: 120000001 cycles: 566758208 heartbeat IPC: 0.13969 cumulative IPC: 0.141323 (Simulation time: 0 hr 19 min 43 sec) 
Heartbeat CPU 0 instructions: 130000001 cycles: 637879534 heartbeat IPC: 0.140605 cumulative IPC: 0.141232 (Simulation time: 0 hr 21 min 18 sec) 
Heartbeat CPU 0 instructions: 140000003 cycles: 707503285 heartbeat IPC: 0.143629 cumulative IPC: 0.141495 (Simulation time: 0 hr 22 min 49 sec) 
Heartbeat CPU 0 instructions: 150000002 cycles: 774351203 heartbeat IPC: 0.149593 cumulative IPC: 0.142265 (Simulation time: 0 hr 24 min 18 sec) 
Heartbeat CPU 0 instructions: 160000002 cycles: 840057620 heartbeat IPC: 0.152192 cumulative IPC: 0.143114 (Simulation time: 0 hr 25 min 48 sec) 
Heartbeat CPU 0 instructions: 170000000 cycles: 907878363 heartbeat IPC: 0.147447 cumulative IPC: 0.143465 (Simulation time: 0 hr 27 min 13 sec) 
Heartbeat CPU 0 instructions: 180000002 cycles: 976076635 heartbeat IPC: 0.146631 cumulative IPC: 0.143704 (Simulation time: 0 hr 28 min 40 sec) 
Heartbeat CPU 0 instructions: 190000000 cycles: 1043739297 heartbeat IPC: 0.147792 cumulative IPC: 0.143988 (Simulation time: 0 hr 30 min 6 sec) 
Heartbeat CPU 0 instructions: 200000001 cycles: 1112651098 heartbeat IPC: 0.145113 cumulative IPC: 0.144063 (Simulation time: 0 hr 31 min 33 sec) 
Heartbeat CPU 0 instructions: 210000003 cycles: 1181545755 heartbeat IPC: 0.145149 cumulative IPC: 0.14413 (Simulation time: 0 hr 33 min 0 sec) 
Heartbeat CPU 0 instructions: 220000000 cycles: 1250014888 heartbeat IPC: 0.146051 cumulative IPC: 0.144242 (Simulation time: 0 hr 34 min 27 sec) 
Heartbeat CPU 0 instructions: 230000003 cycles: 1318700364 heartbeat IPC: 0.145591 cumulative IPC: 0.144316 (Simulation time: 0 hr 35 min 54 sec) 
Heartbeat CPU 0 instructions: 240000000 cycles: 1388132268 heartbeat IPC: 0.144026 cumulative IPC: 0.144301 (Simulation time: 0 hr 37 min 21 sec) 
Heartbeat CPU 0 instructions: 250000000 cycles: 1457427672 heartbeat IPC: 0.14431 cumulative IPC: 0.144301 (Simulation time: 0 hr 38 min 48 sec) 
Finished CPU 0 instructions: 200000000 cycles: 1385990112 cumulative IPC: 0.144301 (Simulation time: 0 hr 38 min 48 sec) 
 Instruction ID: 250000247

ChampSim completed all CPUs

Region of Interest Statistics

CPU 0 cumulative IPC: 0.144301 instructions: 200000000 cycles: 1385990112
ITLB SPEC fills:          0  NON-SPEC fills:          0
ITLB Test counter :          0
ITLB Leapfrog:          0
ITLB MSHR merge:          0
ITLB TOTAL     ACCESS:   33653485  HIT:   33653485  MISS:          0  HIT %:        100  MISS %:          0   MPKI: 0
ITLB LOAD TRANSLATION NON_SPEC    ACCESS:   33653485  HIT:   33653485  MISS:          0  HIT %:        100  MISS %:          0   MPKI: 0
ITLB PREFETCH  REQUESTED:          0  ISSUED:          0  USEFUL:          0  USELESS:          0
ITLB USEFUL LOAD PREFETCHES:          0 PREFETCH ISSUED TO LOWER LEVEL:          0  ACCURACY: -nan
ITLB TIMELY PREFETCHES:          0 LATE PREFETCHES: 0 DROPPED PREFETCHES: 0
ITLB COMMIT LATE PREFETCHES: 0 MISSED OPPORTUNITY: 0 LATE IN PQ: 0 UNCOVERED: 0
ITLB COMMIT LATE MSHR PREFETCHES: 0
ITLB MPKI TOTAL: 0 MSHR LATE: 0 PQ LATE: 0 COMMIT LATE: 0 MISSED OPPORTUNITY: 0 UNCOVERED: 0
ITLB PREFETCHES SAME FILL-ORIGIN LEVEL: 0 DIFFERENT FILL-ORIGIN LEVEL: 0
ITLB AVERAGE MISS LATENCY: -nan cycles
ITLB AVERAGE MISS LATENCY LOAD: -nan cycles
ITLB AVERAGE MISS LATENCY PREFETCH: -nan cycles
ITLB AVERAGE MSHR OCCUPANCY: 0
ITLB MSHR FULL: 0
ITLB RQ	ACCESS:   33655974	FORWARD:          0	MERGED:       2490	TO_CACHE:   33653484

DTLB SPEC fills:          0  NON-SPEC fills:          0
DTLB Test counter :          0
DTLB Leapfrog:          0
DTLB MSHR merge:          0
DTLB TOTAL     ACCESS:   79053437  HIT:   73419589  MISS:    5633848  HIT %:    92.8734  MISS %:    7.12663   MPKI: 28.1692
DTLB LOAD TRANSLATION NON_SPEC    ACCESS:   79053437  HIT:   73419589  MISS:    5633848  HIT %:    92.8734  MISS %:    7.12663   MPKI: 28.1692
DTLB PREFETCH  REQUESTED:          0  ISSUED:          0  USEFUL:          0  USELESS:          0
DTLB USEFUL LOAD PREFETCHES:          0 PREFETCH ISSUED TO LOWER LEVEL:          0  ACCURACY: -nan
DTLB TIMELY PREFETCHES:          0 LATE PREFETCHES: 0 DROPPED PREFETCHES: 0
DTLB COMMIT LATE PREFETCHES: 0 MISSED OPPORTUNITY: 0 LATE IN PQ: 0 UNCOVERED: 0
DTLB COMMIT LATE MSHR PREFETCHES: 0
DTLB MPKI TOTAL: 0 MSHR LATE: 0 PQ LATE: 0 COMMIT LATE: 0 MISSED OPPORTUNITY: 0 UNCOVERED: 0
DTLB PREFETCHES SAME FILL-ORIGIN LEVEL: 0 DIFFERENT FILL-ORIGIN LEVEL: 0
DTLB AVERAGE MISS LATENCY: 874.028 cycles
DTLB AVERAGE MISS LATENCY LOAD: -nan cycles
DTLB AVERAGE MISS LATENCY PREFETCH: -nan cycles
DTLB AVERAGE MSHR OCCUPANCY: 3.15611
DTLB MSHR FULL: 8.82375e-05
DTLB RQ	ACCESS:  125944609	FORWARD:          0	MERGED:   26944871	TO_CACHE:   98999738

STLB SPEC fills:          0  NON-SPEC fills:          0
STLB Test counter :          0
STLB Leapfrog:          0
STLB MSHR merge:          0
STLB TOTAL     ACCESS:    8587448  HIT:    3754449  MISS:    4832999  HIT %:    43.7202  MISS %:    56.2798   MPKI: 24.165
STLB LOAD TRANSLATION NON_SPEC    ACCESS:    5633848  HIT:     815614  MISS:    4818234  HIT %:     14.477  MISS %:     85.523   MPKI: 24.0912
STLB TRANSLATION FROM L1D PREFETCHER NON_SPEC    ACCESS:    2953600  HIT:    2938835  MISS:      14765  HIT %:    99.5001  MISS %:   0.499898   MPKI: 0.073825
STLB PREFETCH  REQUESTED:          0  ISSUED:          0  USEFUL:       8394  USELESS:       6371
STLB USEFUL LOAD PREFETCHES:       8394 PREFETCH ISSUED TO LOWER LEVEL:          0  ACCURACY: inf
STLB TIMELY PREFETCHES:       8394 LATE PREFETCHES: 71437 DROPPED PREFETCHES: 1203664
STLB COMMIT LATE PREFETCHES: 0 MISSED OPPORTUNITY: 0 LATE IN PQ: 0 UNCOVERED: 0
STLB COMMIT LATE MSHR PREFETCHES: 0
STLB MPKI TOTAL: 0 MSHR LATE: 0.357185 PQ LATE: 0 COMMIT LATE: 0 MISSED OPPORTUNITY: 0 UNCOVERED: 0
STLB PREFETCHES SAME FILL-ORIGIN LEVEL: 0 DIFFERENT FILL-ORIGIN LEVEL: 0
STLB AVERAGE MISS LATENCY: 1010.38 cycles
STLB AVERAGE MISS LATENCY LOAD: -nan cycles
STLB AVERAGE MISS LATENCY PREFETCH: -nan cycles
STLB AVERAGE MSHR OCCUPANCY: 3.43279
STLB MSHR FULL: 0
STLB RQ	ACCESS:   39760217	FORWARD:          0	MERGED:   29127553	TO_CACHE:   10632664

STLB Hit, L1D data hit: 0
STLB Hit, L2C data hit: 0
STLB Hit, LLC data hit: 0
STLB Hit, LLC data miss: 0
STLB STLB hints to L2: 0
L0D SPEC fills:   22193999  NON-SPEC fills:          0
L0D TimeGuard Request with older TS:    2773016 Restricted eviction:     548830 read:    5306647
L0D Test counter :          0
L0D Leapfrog:          0
L0D MSHR merge:    1609152
L0D TOTAL     ACCESS:   54362357  HIT:   16916508  MISS:   37445849  HIT %:    31.1181  MISS %:    68.8819   MPKI: 187.229
L0D LOAD      TOTAL       ACCESS:   54362357  HIT:   16916508  MISS:   37445849  HIT %:    31.1181  MISS %:    68.8819   MPKI: 187.229
L0D LOAD      NON_SPEC    ACCESS:   18772040  HIT:    4068173  MISS:   14703867  HIT %:    21.6714  MISS %:    78.3286   MPKI: 73.5193
L0D LOAD      SPEC        ACCESS:   35590317  HIT:   12848335  MISS:   22741982  HIT %:    36.1006  MISS %:    63.8994   MPKI: 113.71
L0D PREFETCH  REQUESTED:          0  ISSUED:          0  USEFUL:          0  USELESS:          0
L0D USEFUL LOAD PREFETCHES:          0 PREFETCH ISSUED TO LOWER LEVEL:          0  ACCURACY: -nan
L0D TIMELY PREFETCHES:          0 LATE PREFETCHES: 0 DROPPED PREFETCHES: 0
L0D COMMIT LATE PREFETCHES: 0 MISSED OPPORTUNITY: 0 LATE IN PQ: 0 UNCOVERED: 0
L0D COMMIT LATE MSHR PREFETCHES: 0
L0D MPKI TOTAL: 195.275 MSHR LATE: 0 PQ LATE: 0 COMMIT LATE: 0 MISSED OPPORTUNITY: 0 UNCOVERED: 0
L0D PREFETCHES SAME FILL-ORIGIN LEVEL: 0 DIFFERENT FILL-ORIGIN LEVEL: 0
L0D AVERAGE MISS LATENCY: 16.7761 cycles
L0D AVERAGE MISS LATENCY LOAD: 16.7761 cycles
L0D AVERAGE MISS LATENCY PREFETCH: -nan cycles
L0D AVERAGE MSHR OCCUPANCY: 0.816559
L0D MSHR FULL: 1.35246e-05
L0D RQ	ACCESS:   69858596	FORWARD:          0	MERGED:   13887089	TO_CACHE:   55971507
L0D WQ	ACCESS:   69973102	FORWARD:          0	MERGED:          0	TO_CACHE:   69973102

L1D SPEC fills:          0  NON-SPEC fills:     168438
L1D Test counter :    3792639
L1D Leapfrog:          0
L1D MSHR merge:     178938
L1D TOTAL     ACCESS:  105965567  HIT:   83619300  MISS:   22346267  HIT %:    78.9118  MISS %:    21.0882   MPKI: 111.731
L1D LOAD      TOTAL       ACCESS:   37444951  HIT:   32903395  MISS:    4541556  HIT %:    87.8714  MISS %:    12.1286   MPKI: 22.7078
L1D LOAD      NON_SPEC    ACCESS:   14703259  HIT:   14534821  MISS:     168438  HIT %:    98.8544  MISS %:    1.14558   MPKI: 0.84219
L1D LOAD      SPEC        ACCESS:   22741692  HIT:   18368574  MISS:    4373118  HIT %:    80.7705  MISS %:    19.2295   MPKI: 21.8656
L1D RFO       NON_SPEC    ACCESS:   37760334  HIT:   29011599  MISS:    8748735  HIT %:    76.8309  MISS %:    23.1691   MPKI: 43.7437
L1D PREFETCH  NON_SPEC    ACCESS:   26104720  HIT:   21372202  MISS:    4732518  HIT %:     81.871  MISS %:     18.129   MPKI: 23.6626
L1D COMMIT LOAD NON_SPEC    ACCESS:     464474  HIT:     247051  MISS:     217423  HIT %:    53.1894  MISS %:    46.8106   MPKI: 1.08712
L1D COMMIT WRITE NON_SPEC    ACCESS:    4191088  HIT:      85053  MISS:    4106035  HIT %:    2.02938  MISS %:    97.9706   MPKI: 20.5302
L1D PREFETCH  REQUESTED:   80134372  ISSUED:   38635438  USEFUL:    4712924  USELESS:      19579
L1D USEFUL LOAD PREFETCHES:    4712924 PREFETCH ISSUED TO LOWER LEVEL:    6826221  ACCURACY: 69.0415
L1D TIMELY PREFETCHES:    4712924 LATE PREFETCHES: 178558 DROPPED PREFETCHES: 5333307
L1D COMMIT LATE PREFETCHES: 0 MISSED OPPORTUNITY: 0 LATE IN PQ: 0 UNCOVERED: 0
L1D COMMIT LATE MSHR PREFETCHES: 0
L1D MPKI TOTAL: 22.7123 MSHR LATE: 0.89279 PQ LATE: 0 COMMIT LATE: 0 MISSED OPPORTUNITY: 0 UNCOVERED: 0
L1D PREFETCHES SAME FILL-ORIGIN LEVEL: 4911076 DIFFERENT FILL-ORIGIN LEVEL: 1915145
L1D AVERAGE MISS LATENCY: 201.165 cycles
L1D AVERAGE MISS LATENCY LOAD: 94.3566 cycles
L1D AVERAGE MISS LATENCY PREFETCH: 323.731 cycles
L1D AVERAGE MSHR OCCUPANCY: 5.97253
L1D MSHR FULL: 0.17265
L1D RQ	ACCESS:   38052232	FORWARD:          0	MERGED:     141398	TO_CACHE:   37910789
L1D WQ	ACCESS:   74164167	FORWARD:         45	MERGED:    1386752	TO_CACHE:   72777415
L1D PQ	ACCESS:   38635438	FORWARD:          0	MERGED:    4509072	TO_CACHE:   34126366

L1D UNIQUE REGIONS ACCESSED: 0
L1D REGIONS CONFLICTS: 0
L1D Cross Page Prefetch Requests: 13300809
L1D Same Page Prefetch Requests: 43826306
L1D ROI Sum of L1D PQ occupancy: 13069135143
L1D PREFETCHES PUSHED FROM L2C: 0
L1I SPEC fills:          0  NON-SPEC fills:          0
L1I Test counter :          0
L1I Leapfrog:          0
L1I MSHR merge:          0
L1I TOTAL     ACCESS:   33655975  HIT:   33655975  MISS:          0  HIT %:        100  MISS %:          0   MPKI: 0
L1I LOAD      TOTAL       ACCESS:   33655975  HIT:   33655975  MISS:          0  HIT %:        100  MISS %:          0   MPKI: 0
L1I LOAD      NON_SPEC    ACCESS:   33655975  HIT:   33655975  MISS:          0  HIT %:        100  MISS %:          0   MPKI: 0
L1I PREFETCH  REQUESTED:          0  ISSUED:          0  USEFUL:          0  USELESS:          0
L1I USEFUL LOAD PREFETCHES:          0 PREFETCH ISSUED TO LOWER LEVEL:          0  ACCURACY: -nan
L1I TIMELY PREFETCHES:          0 LATE PREFETCHES: 0 DROPPED PREFETCHES: 0
L1I COMMIT LATE PREFETCHES: 0 MISSED OPPORTUNITY: 0 LATE IN PQ: 0 UNCOVERED: 0
L1I COMMIT LATE MSHR PREFETCHES: 0
L1I MPKI TOTAL: 0 MSHR LATE: 0 PQ LATE: 0 COMMIT LATE: 0 MISSED OPPORTUNITY: 0 UNCOVERED: 0
L1I PREFETCHES SAME FILL-ORIGIN LEVEL: 0 DIFFERENT FILL-ORIGIN LEVEL: 0
L1I AVERAGE MISS LATENCY: -nan cycles
L1I AVERAGE MISS LATENCY LOAD: -nan cycles
L1I AVERAGE MISS LATENCY PREFETCH: -nan cycles
L1I AVERAGE MSHR OCCUPANCY: 0
L1I MSHR FULL: 0
L1I RQ	ACCESS:   57295795	FORWARD:          0	MERGED:   23639821	TO_CACHE:   33655974

BTB SPEC fills:          0  NON-SPEC fills:          0
BTB Test counter :          0
BTB Leapfrog:          0
BTB MSHR merge:          0
BTB TOTAL     ACCESS:   20480052  HIT:   20480047  MISS:          5  HIT %:        100  MISS %: 2.4414e-05   MPKI: 2.5e-05
BTB BRANCH_DIRECT_JUMP	ACCESS:    2986818  HIT:    2986817  MISS:          1
BTB BRANCH_INDIRECT	ACCESS:          0  HIT:          0  MISS:          0
BTB BRANCH_CONDITIONAL	ACCESS:    8746602  HIT:    8746600  MISS:          2
BTB BRANCH_DIRECT_CALL	ACCESS:    4373316  HIT:    4373315  MISS:          1
BTB BRANCH_INDIRECT_CALL	ACCESS:          0  HIT:          0  MISS:          0
BTB BRANCH_RETURN	ACCESS:    4373316  HIT:    4373315  MISS:          1
BTB BRANCH_OTHER ACCESS:          0  HIT:          0  MISS:          0

L2C SPEC fills:          0  NON-SPEC fills:     121491
L2C Test counter :    3217399
L2C Leapfrog:          0
L2C MSHR merge:      10335
L2C TOTAL     ACCESS:   67809747  HIT:   43278280  MISS:   24531467  HIT %:    63.8231  MISS %:    36.1769   MPKI: 122.657
L2C LOAD      TOTAL       ACCESS:    4363448  HIT:    1187357  MISS:    3176091  HIT %:    27.2114  MISS %:    72.7886   MPKI: 15.8805
L2C LOAD      NON_SPEC    ACCESS:     167887  HIT:      46396  MISS:     121491  HIT %:    27.6353  MISS %:    72.3647   MPKI: 0.607455
L2C LOAD      SPEC        ACCESS:    4195561  HIT:    1140961  MISS:    3054600  HIT %:    27.1945  MISS %:    72.8055   MPKI: 15.273
L2C RFO       NON_SPEC    ACCESS:    8748703  HIT:       3394  MISS:    8745309  HIT %:  0.0387943  MISS %:    99.9612   MPKI: 43.7265
L2C PREFETCH  NON_SPEC    ACCESS:    6573206  HIT:    1171655  MISS:    5401551  HIT %:    17.8247  MISS %:    82.1753   MPKI: 27.0078
L2C WRITEBACK NON_SPEC    ACCESS:   13606387  HIT:   13605925  MISS:        462  HIT %:    99.9966  MISS %: 0.00339546   MPKI: 0.00231
L2C CLEAN_EVICTION NON_SPEC    ACCESS:    3792638  HIT:     862538  MISS:    2930100  HIT %:    22.7424  MISS %:    77.2576   MPKI: 14.6505
L2C COMMIT LOAD NON_SPEC    ACCESS:     216905  HIT:      71050  MISS:     145855  HIT %:    32.7563  MISS %:    67.2437   MPKI: 0.729275
L2C LOAD TRANSLATION NON_SPEC    ACCESS:   24061661  HIT:   19943497  MISS:    4118164  HIT %:     82.885  MISS %:     17.115   MPKI: 20.5908
L2C TRANSLATION FROM L1D PREFETCHER NON_SPEC    ACCESS:    6446799  HIT:    6432864  MISS:      13935  HIT %:    99.7838  MISS %:   0.216154   MPKI: 0.069675
L2C PREFETCH  REQUESTED:          0  ISSUED:          0  USEFUL:     100987  USELESS:    5314702
L2C USEFUL LOAD PREFETCHES:     100987 PREFETCH ISSUED TO LOWER LEVEL:    5446103  ACCURACY: 1.8543
L2C TIMELY PREFETCHES:     100987 LATE PREFETCHES: 44552 DROPPED PREFETCHES: 0
L2C COMMIT LATE PREFETCHES: 0 MISSED OPPORTUNITY: 0 LATE IN PQ: 0 UNCOVERED: 0
L2C COMMIT LATE MSHR PREFETCHES: 0
L2C MPKI TOTAL: 15.8805 MSHR LATE: 0.22276 PQ LATE: 0 COMMIT LATE: 0 MISSED OPPORTUNITY: 0 UNCOVERED: 0
L2C PREFETCHES SAME FILL-ORIGIN LEVEL: 1605837 DIFFERENT FILL-ORIGIN LEVEL: 0
L2C AVERAGE MISS LATENCY: 240.642 cycles
L2C AVERAGE MISS LATENCY LOAD: 101.533 cycles
L2C AVERAGE MISS LATENCY PREFETCH: 405.088 cycles
L2C AVERAGE MSHR OCCUPANCY: 3.17725
L2C MSHR FULL: 0.00244684
L2C RQ	ACCESS:   43837619	FORWARD:          0	MERGED:          0	TO_CACHE:   43837519
L2C WQ	ACCESS:   17399036	FORWARD:        100	MERGED:         11	TO_CACHE:   17399025
L2C PQ	ACCESS:    6826221	FORWARD:          0	MERGED:          4	TO_CACHE:    6826217

L2C Instructions Evicting Data 0
L2C Translations Evicting Data 3336057
L2C Data Evicting Data 11638715
L2C Instructions Evicting Instructions 0
L2C Translations Evicting Instructions 0
L2C Data Evicting Instructions 0
L2C Instructions Evicting Translations 0
L2C Translations Evicting Translations 796042
L2C Data Evicting Translations 2775491
L2C Dense regions hint from L2: 0
PSCL5 SPEC fills:          0  NON-SPEC fills:          0
PSCL5 Test counter :          0
PSCL5 Leapfrog:          0
PSCL5 MSHR merge:          0
PSCL5 TOTAL     ACCESS:          0  HIT:          0  MISS:          0  HIT %:       -nan  MISS %:       -nan   MPKI: 0
PSCL5 PREFETCH  REQUESTED:          0  ISSUED:          0  USEFUL:          0  USELESS:          0
PSCL5 USEFUL LOAD PREFETCHES:          0 PREFETCH ISSUED TO LOWER LEVEL:          0  ACCURACY: -nan
PSCL5 TIMELY PREFETCHES:          0 LATE PREFETCHES: 0 DROPPED PREFETCHES: 0
PSCL5 COMMIT LATE PREFETCHES: 0 MISSED OPPORTUNITY: 0 LATE IN PQ: 0 UNCOVERED: 0
PSCL5 COMMIT LATE MSHR PREFETCHES: 0
PSCL5 MPKI TOTAL: 0 MSHR LATE: 0 PQ LATE: 0 COMMIT LATE: 0 MISSED OPPORTUNITY: 0 UNCOVERED: 0
PSCL5 PREFETCHES SAME FILL-ORIGIN LEVEL: 0 DIFFERENT FILL-ORIGIN LEVEL: 0

PSCL4 SPEC fills:          0  NON-SPEC fills:          0
PSCL4 Test counter :          0
PSCL4 Leapfrog:          0
PSCL4 MSHR merge:          0
PSCL4 TOTAL     ACCESS:          0  HIT:          0  MISS:          0  HIT %:       -nan  MISS %:       -nan   MPKI: 0
PSCL4 PREFETCH  REQUESTED:          0  ISSUED:          0  USEFUL:          0  USELESS:          0
PSCL4 USEFUL LOAD PREFETCHES:          0 PREFETCH ISSUED TO LOWER LEVEL:          0  ACCURACY: -nan
PSCL4 TIMELY PREFETCHES:          0 LATE PREFETCHES: 0 DROPPED PREFETCHES: 0
PSCL4 COMMIT LATE PREFETCHES: 0 MISSED OPPORTUNITY: 0 LATE IN PQ: 0 UNCOVERED: 0
PSCL4 COMMIT LATE MSHR PREFETCHES: 0
PSCL4 MPKI TOTAL: 0 MSHR LATE: 0 PQ LATE: 0 COMMIT LATE: 0 MISSED OPPORTUNITY: 0 UNCOVERED: 0
PSCL4 PREFETCHES SAME FILL-ORIGIN LEVEL: 0 DIFFERENT FILL-ORIGIN LEVEL: 0

PSCL3 SPEC fills:          0  NON-SPEC fills:          0
PSCL3 Test counter :          0
PSCL3 Leapfrog:          0
PSCL3 MSHR merge:          0
PSCL3 TOTAL     ACCESS:          0  HIT:          0  MISS:          0  HIT %:       -nan  MISS %:       -nan   MPKI: 0
PSCL3 PREFETCH  REQUESTED:          0  ISSUED:          0  USEFUL:          0  USELESS:          0
PSCL3 USEFUL LOAD PREFETCHES:          0 PREFETCH ISSUED TO LOWER LEVEL:          0  ACCURACY: -nan
PSCL3 TIMELY PREFETCHES:          0 LATE PREFETCHES: 0 DROPPED PREFETCHES: 0
PSCL3 COMMIT LATE PREFETCHES: 0 MISSED OPPORTUNITY: 0 LATE IN PQ: 0 UNCOVERED: 0
PSCL3 COMMIT LATE MSHR PREFETCHES: 0
PSCL3 MPKI TOTAL: 0 MSHR LATE: 0 PQ LATE: 0 COMMIT LATE: 0 MISSED OPPORTUNITY: 0 UNCOVERED: 0
PSCL3 PREFETCHES SAME FILL-ORIGIN LEVEL: 0 DIFFERENT FILL-ORIGIN LEVEL: 0

PSCL2 SPEC fills:          0  NON-SPEC fills:          0
PSCL2 Test counter :          0
PSCL2 Leapfrog:          0
PSCL2 MSHR merge:          0
PSCL2 TOTAL     ACCESS:          0  HIT:          0  MISS:          0  HIT %:       -nan  MISS %:       -nan   MPKI: 0
PSCL2 PREFETCH  REQUESTED:          0  ISSUED:          0  USEFUL:          0  USELESS:          0
PSCL2 USEFUL LOAD PREFETCHES:          0 PREFETCH ISSUED TO LOWER LEVEL:          0  ACCURACY: -nan
PSCL2 TIMELY PREFETCHES:          0 LATE PREFETCHES: 0 DROPPED PREFETCHES: 0
PSCL2 COMMIT LATE PREFETCHES: 0 MISSED OPPORTUNITY: 0 LATE IN PQ: 0 UNCOVERED: 0
PSCL2 COMMIT LATE MSHR PREFETCHES: 0
PSCL2 MPKI TOTAL: 0 MSHR LATE: 0 PQ LATE: 0 COMMIT LATE: 0 MISSED OPPORTUNITY: 0 UNCOVERED: 0
PSCL2 PREFETCHES SAME FILL-ORIGIN LEVEL: 0 DIFFERENT FILL-ORIGIN LEVEL: 0

LLC SPEC fills:          0  NON-SPEC fills:      32981
LLC Test counter :    1372797
LLC Leapfrog:          0
LLC MSHR merge:          0
LLC TOTAL     ACCESS:   38373515  HIT:   19179207  MISS:   19194308  HIT %:    49.9803  MISS %:    50.0197   MPKI: 95.9715
LLC LOAD      TOTAL       ACCESS:    3165711  HIT:    2246494  MISS:     919217  HIT %:    70.9633  MISS %:    29.0367   MPKI: 4.59609
LLC LOAD      NON_SPEC    ACCESS:     121258  HIT:      88277  MISS:      32981  HIT %:     72.801  MISS %:     27.199   MPKI: 0.164905
LLC LOAD      SPEC        ACCESS:    3044453  HIT:    2158217  MISS:     886236  HIT %:    70.8901  MISS %:    29.1099   MPKI: 4.43118
LLC RFO       NON_SPEC    ACCESS:    8711298  HIT:      49163  MISS:    8662135  HIT %:   0.564359  MISS %:    99.4356   MPKI: 43.3107
LLC PREFETCH  NON_SPEC    ACCESS:    5446103  HIT:     130232  MISS:    5315871  HIT %:    2.39129  MISS %:    97.6087   MPKI: 26.5794
LLC WRITEBACK NON_SPEC    ACCESS:   13555259  HIT:   13554978  MISS:        281  HIT %:    99.9979  MISS %:   0.002073   MPKI: 0.001405
LLC CLEAN_EVICTION NON_SPEC    ACCESS:    3217399  HIT:    2106139  MISS:    1111260  HIT %:    65.4609  MISS %:    34.5391   MPKI: 5.5563
LLC COMMIT LOAD NON_SPEC    ACCESS:     145646  HIT:     117055  MISS:      28591  HIT %:    80.3695  MISS %:    19.6305   MPKI: 0.142955
LLC LOAD TRANSLATION NON_SPEC    ACCESS:    4118164  HIT:     973399  MISS:    3144765  HIT %:    23.6367  MISS %:    76.3633   MPKI: 15.7238
LLC TRANSLATION FROM L1D PREFETCHER NON_SPEC    ACCESS:      13935  HIT:       1747  MISS:      12188  HIT %:    12.5368  MISS %:    87.4632   MPKI: 0.06094
LLC PREFETCH  REQUESTED:          0  ISSUED:          0  USEFUL:      28552  USELESS:    5299532
LLC USEFUL LOAD PREFETCHES:      28552 PREFETCH ISSUED TO LOWER LEVEL:    5315871  ACCURACY: 0.537109
LLC TIMELY PREFETCHES:      28552 LATE PREFETCHES: 0 DROPPED PREFETCHES: 0
LLC COMMIT LATE PREFETCHES: 0 MISSED OPPORTUNITY: 0 LATE IN PQ: 0 UNCOVERED: 0
LLC COMMIT LATE MSHR PREFETCHES: 0
LLC MPKI TOTAL: 4.59609 MSHR LATE: 0 PQ LATE: 0 COMMIT LATE: 0 MISSED OPPORTUNITY: 0 UNCOVERED: 0
LLC PREFETCHES SAME FILL-ORIGIN LEVEL: 0 DIFFERENT FILL-ORIGIN LEVEL: 0
LLC AVERAGE MISS LATENCY: 275.2 cycles
LLC AVERAGE MISS LATENCY LOAD: 274.524 cycles
LLC AVERAGE MISS LATENCY PREFETCH: 383.527 cycles
LLC AVERAGE MSHR OCCUPANCY: 2.80242
LLC MSHR FULL: 0
LLC RQ	ACCESS:   16154802	FORWARD:          0	MERGED:          0	TO_CACHE:   16154754
LLC WQ	ACCESS:   16772658	FORWARD:         48	MERGED:          0	TO_CACHE:   16772658
LLC PQ	ACCESS:    5446103	FORWARD:          0	MERGED:          0	TO_CACHE:    5446103

LLC Dense regions hint to LLC: 0

RAW hits: 13234491
Loads Generated: 83093086
Loads sent to L1D: 69858596
Stores Generated: 69973136
Stores sent to L1D: 69973102
Major fault: 0 Minor fault: 318411
Allocated PAGES: 318411
Total Load insts: 89122656
Total Non-spec loads: 28478506
Percentage of speculative loads: 68.0457

LeapFrogging counter: 1080869
Commit hits: 19728690 miss: 31315378
Commit hit %: 38.6503 miss %: 61.3497
Commits not translated: 0
Loads retired: 4541554
Stores retired: 69973102
Cache fills: 4541556
L1D response latency: 94.3566 cycles
Load retirement latency: 654.533 cycles
OOO test counter: 0
Discarded buffer inserts: 19728690 hits: 3705 hit %: 0.0187798
Filter prediction accuracy: 0.999824
ALL MISSES SIZE: 31931
LATENCY_FILL: 93.1774 4535355
LATENCY_FILL_ROB: 518.508 4505189
test counter pref: 78305566
Max ROB Extended: 13

DRAM Statistics
 CHANNEL 0
 RQ ROW_BUFFER_HIT:    1407498  ROW_BUFFER_MISS:   16673227
 DBUS_CONGESTED:         82
 WQ ROW_BUFFER_HIT:    4795673  ROW_BUFFER_MISS:    9988425  FULL:       9199

 AVG_CONGESTED_CYCLE: 5
 All warmup complete: 2
Channel 0 Bank busy for read cycles: 0
Channel 0 Bank busy for write cycles: 0
Channel 0
Rank 0
0banks busy for read cycles: 3983441
0banks busy for write cycles: 1378
1banks busy for read cycles: 204175203
1banks busy for write cycles: 3301660
2banks busy for read cycles: 215944785
2banks busy for write cycles: 3283748
3banks busy for read cycles: 255918714
3banks busy for write cycles: 3358158
4banks busy for read cycles: 109848064
4banks busy for write cycles: 6004169
5banks busy for read cycles: 49257389
5banks busy for write cycles: 11288111
6banks busy for read cycles: 29553746
6banks busy for write cycles: 26086557
7banks busy for read cycles: 20410459
7banks busy for write cycles: 95137402
8banks busy for read cycles: 30618900
8banks busy for write cycles: 317818229

CPU 0 Branch Prediction Accuracy: 95.2594% MPKI: 5.89096 Average ROB Occupancy at Mispredict: 144.209
Branch types
NOT_BRANCH: 175146465 87.5732%
BRANCH_DIRECT_JUMP: 2986818 1.49341%
BRANCH_INDIRECT: 0 0%
BRANCH_CONDITIONAL: 13119949 6.55997%
BRANCH_DIRECT_CALL: 4373316 2.18666%
BRANCH_INDIRECT_CALL: 0 0%
BRANCH_RETURN: 4373316 2.18666%
BRANCH_OTHER: 0 0%

DRAM PAGES: 1048576
Allocated PAGES: 318411
