
*** ChampSim Multicore Out-of-Order Simulator ***

Warmup Instructions: 50000000
Simulation Instructions: 200000000
Number of CPUs: 1
LLC sets: 2048
LLC ways: 16
L0D sets: 16
L0D ways: 2
ROB size: 352
LQ size: 128
SQ size: 72
Secure Berti: ON
Berti: ON
Berti Fill: ON
On commit prefetching: OFF
Hit-based filter: ON
Time-guarding: ON
Free-slotting: ON
Leap-frogging: ON
Train prefetcher on L0D bypass: OFF
No translation penalty for prefetchers: OFF
Prefetch to L0D only: OFF
Prefetch to L1D only: OFF
Clean evictions: ON
Commit loads: ON
Commit write: ON
Fill commit loads to L2C, LLC: ON
DRAM IO FREQUENCY: 6400
ROB SIZE: 352
Off-chip DRAM Size: 4096 MB Channels: 1 Width: 64-bit Data Rate: 6400 MT/s
CPU 0 runs /home/sumon/secure_berti/GhostMinion/../../traces/spec/607.cactuBSSN_s-4004B.champsimtrace.xz
.xz
BTB has LRU replacement policy
ITLB has LRU replacement policy
DTLB has LRU replacement policy
STLB has LRU replacement policy
L1I has LRU replacement policy
L0D has LRU replacement policy
Berti version on_commit
History Sets: 8
History Ways: 16
BERTI Size: 16
BERTI Stride Size: 16
L1D has LRU replacement policy
L2C has LRU replacement policy
LLC has LRU replacement policy
Heartbeat CPU 0 instructions: 10000001 cycles: 4397017 heartbeat IPC: 2.27427 cumulative IPC: 2.27427 (Simulation time: 0 hr 0 min 44 sec) 
Heartbeat CPU 0 instructions: 20000002 cycles: 8786765 heartbeat IPC: 2.27804 cumulative IPC: 2.27615 (Simulation time: 0 hr 1 min 27 sec) 
Heartbeat CPU 0 instructions: 30000001 cycles: 13181527 heartbeat IPC: 2.27544 cumulative IPC: 2.27591 (Simulation time: 0 hr 2 min 11 sec) 
Heartbeat CPU 0 instructions: 40000002 cycles: 17565315 heartbeat IPC: 2.28113 cumulative IPC: 2.27722 (Simulation time: 0 hr 2 min 54 sec) 
Heartbeat CPU 0 instructions: 50000001 cycles: 21970011 heartbeat IPC: 2.2703 cumulative IPC: 2.27583 (Simulation time: 0 hr 3 min 42 sec) 

Warmup complete CPU 0 instructions: 50000001 cycles: 21970011 (Simulation time: 0 hr 3 min 42 sec) 

Heartbeat CPU 0 instructions: 60000001 cycles: 40740840 heartbeat IPC: 0.532742 cumulative IPC: 0.532742 (Simulation time: 0 hr 4 min 47 sec) 
Heartbeat CPU 0 instructions: 70000003 cycles: 59216171 heartbeat IPC: 0.541262 cumulative IPC: 0.536968 (Simulation time: 0 hr 5 min 53 sec) 
Heartbeat CPU 0 instructions: 80000003 cycles: 78685114 heartbeat IPC: 0.513639 cumulative IPC: 0.52896 (Simulation time: 0 hr 7 min 0 sec) 
Heartbeat CPU 0 instructions: 90000003 cycles: 97048988 heartbeat IPC: 0.544547 cumulative IPC: 0.532772 (Simulation time: 0 hr 8 min 6 sec) 
Heartbeat CPU 0 instructions: 100000000 cycles: 115493891 heartbeat IPC: 0.542155 cumulative IPC: 0.534623 (Simulation time: 0 hr 9 min 14 sec) 
Heartbeat CPU 0 instructions: 110000000 cycles: 133979189 heartbeat IPC: 0.54097 cumulative IPC: 0.53567 (Simulation time: 0 hr 10 min 21 sec) 
Heartbeat CPU 0 instructions: 120000001 cycles: 152520488 heartbeat IPC: 0.539337 cumulative IPC: 0.536191 (Simulation time: 0 hr 11 min 25 sec) 
Heartbeat CPU 0 instructions: 130000000 cycles: 171138039 heartbeat IPC: 0.537127 cumulative IPC: 0.536308 (Simulation time: 0 hr 12 min 29 sec) 
Heartbeat CPU 0 instructions: 140000001 cycles: 189976276 heartbeat IPC: 0.530835 cumulative IPC: 0.535694 (Simulation time: 0 hr 13 min 37 sec) 
Heartbeat CPU 0 instructions: 150000002 cycles: 208591709 heartbeat IPC: 0.537189 cumulative IPC: 0.535843 (Simulation time: 0 hr 14 min 40 sec) 
Heartbeat CPU 0 instructions: 160000002 cycles: 227287590 heartbeat IPC: 0.534877 cumulative IPC: 0.535755 (Simulation time: 0 hr 15 min 41 sec) 
Heartbeat CPU 0 instructions: 170000001 cycles: 245767430 heartbeat IPC: 0.54113 cumulative IPC: 0.536199 (Simulation time: 0 hr 16 min 35 sec) 
Heartbeat CPU 0 instructions: 180000001 cycles: 264401328 heartbeat IPC: 0.536656 cumulative IPC: 0.536234 (Simulation time: 0 hr 17 min 26 sec) 
Heartbeat CPU 0 instructions: 190000001 cycles: 282903423 heartbeat IPC: 0.540479 cumulative IPC: 0.536535 (Simulation time: 0 hr 18 min 14 sec) 
Heartbeat CPU 0 instructions: 200000003 cycles: 301455080 heartbeat IPC: 0.539035 cumulative IPC: 0.536701 (Simulation time: 0 hr 19 min 2 sec) 
Heartbeat CPU 0 instructions: 210000003 cycles: 320107514 heartbeat IPC: 0.536123 cumulative IPC: 0.536665 (Simulation time: 0 hr 19 min 50 sec) 
Heartbeat CPU 0 instructions: 220000000 cycles: 338628467 heartbeat IPC: 0.539929 cumulative IPC: 0.536856 (Simulation time: 0 hr 20 min 36 sec) 
Heartbeat CPU 0 instructions: 230000000 cycles: 357083241 heartbeat IPC: 0.541865 cumulative IPC: 0.537132 (Simulation time: 0 hr 21 min 23 sec) 
Heartbeat CPU 0 instructions: 240000001 cycles: 376140804 heartbeat IPC: 0.524726 cumulative IPC: 0.536464 (Simulation time: 0 hr 22 min 9 sec) 
Heartbeat CPU 0 instructions: 250000000 cycles: 394755752 heartbeat IPC: 0.537203 cumulative IPC: 0.536501 (Simulation time: 0 hr 22 min 54 sec) 
Finished CPU 0 instructions: 200000003 cycles: 372785742 cumulative IPC: 0.536501 (Simulation time: 0 hr 22 min 54 sec) 
 Instruction ID: 250000373

ChampSim completed all CPUs

Region of Interest Statistics

CPU 0 cumulative IPC: 0.536501 instructions: 200000003 cycles: 372785742
ITLB SPEC fills:          0  NON-SPEC fills:          0
ITLB Test counter :          0
ITLB Leapfrog:          0
ITLB MSHR merge:          0
ITLB TOTAL     ACCESS:   28807399  HIT:   28807399  MISS:          0  HIT %:        100  MISS %:          0   MPKI: 0
ITLB LOAD TRANSLATION NON_SPEC    ACCESS:   28807399  HIT:   28807399  MISS:          0  HIT %:        100  MISS %:          0   MPKI: 0
ITLB PREFETCH  REQUESTED:          0  ISSUED:          0  USEFUL:          0  USELESS:          0
ITLB USEFUL LOAD PREFETCHES:          0 PREFETCH ISSUED TO LOWER LEVEL:          0  ACCURACY: -nan
ITLB TIMELY PREFETCHES:          0 LATE PREFETCHES: 0 DROPPED PREFETCHES: 0
ITLB COMMIT LATE PREFETCHES: 0 MISSED OPPORTUNITY: 0 LATE IN PQ: 0 UNCOVERED: 0
ITLB COMMIT LATE MSHR PREFETCHES: 0
ITLB MPKI TOTAL: 0 MSHR LATE: 0 PQ LATE: 0 COMMIT LATE: 0 MISSED OPPORTUNITY: 0 UNCOVERED: 0
ITLB PREFETCHES SAME FILL-ORIGIN LEVEL: 0 DIFFERENT FILL-ORIGIN LEVEL: 0
ITLB AVERAGE MISS LATENCY: -nan cycles
ITLB AVERAGE MISS LATENCY LOAD: -nan cycles
ITLB AVERAGE MISS LATENCY PREFETCH: -nan cycles
ITLB AVERAGE MSHR OCCUPANCY: 0
ITLB MSHR FULL: 0
ITLB RQ	ACCESS:   34738711	FORWARD:          0	MERGED:    5931313	TO_CACHE:   28807398

DTLB SPEC fills:          0  NON-SPEC fills:          0
DTLB Test counter :          0
DTLB Leapfrog:          0
DTLB MSHR merge:          0
DTLB TOTAL     ACCESS:   57696670  HIT:   49973317  MISS:    7723353  HIT %:    86.6139  MISS %:    13.3861   MPKI: 38.6168
DTLB LOAD TRANSLATION NON_SPEC    ACCESS:   57696670  HIT:   49973317  MISS:    7723353  HIT %:    86.6139  MISS %:    13.3861   MPKI: 38.6168
DTLB PREFETCH  REQUESTED:          0  ISSUED:          0  USEFUL:          0  USELESS:          0
DTLB USEFUL LOAD PREFETCHES:          0 PREFETCH ISSUED TO LOWER LEVEL:          0  ACCURACY: -nan
DTLB TIMELY PREFETCHES:          0 LATE PREFETCHES: 0 DROPPED PREFETCHES: 0
DTLB COMMIT LATE PREFETCHES: 0 MISSED OPPORTUNITY: 0 LATE IN PQ: 0 UNCOVERED: 0
DTLB COMMIT LATE MSHR PREFETCHES: 0
DTLB MPKI TOTAL: 0 MSHR LATE: 0 PQ LATE: 0 COMMIT LATE: 0 MISSED OPPORTUNITY: 0 UNCOVERED: 0
DTLB PREFETCHES SAME FILL-ORIGIN LEVEL: 0 DIFFERENT FILL-ORIGIN LEVEL: 0
DTLB AVERAGE MISS LATENCY: 10.0504 cycles
DTLB AVERAGE MISS LATENCY LOAD: -nan cycles
DTLB AVERAGE MISS LATENCY PREFETCH: -nan cycles
DTLB AVERAGE MSHR OCCUPANCY: 0.912681
DTLB MSHR FULL: 0.0299227
DTLB RQ	ACCESS:   83514062	FORWARD:          0	MERGED:   24753080	TO_CACHE:   58760982

STLB SPEC fills:          0  NON-SPEC fills:          0
STLB Test counter :          0
STLB Leapfrog:          0
STLB MSHR merge:          0
STLB TOTAL     ACCESS:    7883043  HIT:    7874510  MISS:       8533  HIT %:    99.8918  MISS %:   0.108245   MPKI: 0.042665
STLB LOAD TRANSLATION NON_SPEC    ACCESS:    7723353  HIT:    7714957  MISS:       8396  HIT %:    99.8913  MISS %:   0.108709   MPKI: 0.04198
STLB TRANSLATION FROM L1D PREFETCHER NON_SPEC    ACCESS:     159690  HIT:     159553  MISS:        137  HIT %:    99.9142  MISS %:  0.0857912   MPKI: 0.000685
STLB PREFETCH  REQUESTED:          0  ISSUED:          0  USEFUL:        135  USELESS:          1
STLB USEFUL LOAD PREFETCHES:        135 PREFETCH ISSUED TO LOWER LEVEL:          0  ACCURACY: inf
STLB TIMELY PREFETCHES:        135 LATE PREFETCHES: 0 DROPPED PREFETCHES: 35762
STLB COMMIT LATE PREFETCHES: 0 MISSED OPPORTUNITY: 0 LATE IN PQ: 0 UNCOVERED: 0
STLB COMMIT LATE MSHR PREFETCHES: 0
STLB MPKI TOTAL: 0 MSHR LATE: 0 PQ LATE: 0 COMMIT LATE: 0 MISSED OPPORTUNITY: 0 UNCOVERED: 0
STLB PREFETCHES SAME FILL-ORIGIN LEVEL: 0 DIFFERENT FILL-ORIGIN LEVEL: 0
STLB AVERAGE MISS LATENCY: 640.282 cycles
STLB AVERAGE MISS LATENCY LOAD: -nan cycles
STLB AVERAGE MISS LATENCY PREFETCH: -nan cycles
STLB AVERAGE MSHR OCCUPANCY: 0.0139329
STLB MSHR FULL: 0
STLB RQ	ACCESS:    7935989	FORWARD:          0	MERGED:      17183	TO_CACHE:    7918806

STLB Hit, L1D data hit: 0
STLB Hit, L2C data hit: 0
STLB Hit, LLC data hit: 0
STLB Hit, LLC data miss: 0
STLB STLB hints to L2: 0
L0D SPEC fills:   46068870  NON-SPEC fills:          0
L0D TimeGuard Request with older TS:    2887903 Restricted eviction:    2761232 read:    2957167
L0D Test counter :          0
L0D Leapfrog:          0
L0D MSHR merge:    3046271
L0D TOTAL     ACCESS:   64255217  HIT:    9256833  MISS:   54998384  HIT %:    14.4064  MISS %:    85.5936   MPKI: 274.992
L0D LOAD      TOTAL       ACCESS:   64255217  HIT:    9256833  MISS:   54998384  HIT %:    14.4064  MISS %:    85.5936   MPKI: 274.992
L0D LOAD      NON_SPEC    ACCESS:    6505513  HIT:     336949  MISS:    6168564  HIT %:    5.17944  MISS %:    94.8206   MPKI: 30.8428
L0D LOAD      SPEC        ACCESS:   57749704  HIT:    8919884  MISS:   48829820  HIT %:    15.4458  MISS %:    84.5542   MPKI: 244.149
L0D PREFETCH  REQUESTED:          0  ISSUED:          0  USEFUL:          0  USELESS:          0
L0D USEFUL LOAD PREFETCHES:          0 PREFETCH ISSUED TO LOWER LEVEL:          0  ACCURACY: -nan
L0D TIMELY PREFETCHES:          0 LATE PREFETCHES: 0 DROPPED PREFETCHES: 0
L0D COMMIT LATE PREFETCHES: 0 MISSED OPPORTUNITY: 0 LATE IN PQ: 0 UNCOVERED: 0
L0D COMMIT LATE MSHR PREFETCHES: 0
L0D MPKI TOTAL: 290.223 MSHR LATE: 0 PQ LATE: 0 COMMIT LATE: 0 MISSED OPPORTUNITY: 0 UNCOVERED: 0
L0D PREFETCHES SAME FILL-ORIGIN LEVEL: 0 DIFFERENT FILL-ORIGIN LEVEL: 0
L0D AVERAGE MISS LATENCY: 16.1971 cycles
L0D AVERAGE MISS LATENCY LOAD: 16.1971 cycles
L0D AVERAGE MISS LATENCY PREFETCH: -nan cycles
L0D AVERAGE MSHR OCCUPANCY: 5.35094
L0D MSHR FULL: 0.457079
L0D RQ	ACCESS:   77807034	FORWARD:          0	MERGED:   10505554	TO_CACHE:   67301480
L0D WQ	ACCESS:   16212582	FORWARD:          0	MERGED:          0	TO_CACHE:   16212582

L1D SPEC fills:          0  NON-SPEC fills:     618095
L1D Test counter :    1303751
L1D Leapfrog:          0
L1D MSHR merge:      77787
L1D TOTAL     ACCESS:   87822433  HIT:   59163122  MISS:   28659311  HIT %:    67.3668  MISS %:    32.6332   MPKI: 143.297
L1D LOAD      TOTAL       ACCESS:   54920596  HIT:   40481623  MISS:   14438973  HIT %:    73.7094  MISS %:    26.2906   MPKI: 72.1949
L1D LOAD      NON_SPEC    ACCESS:    6155684  HIT:    5537589  MISS:     618095  HIT %:     89.959  MISS %:     10.041   MPKI: 3.09047
L1D LOAD      SPEC        ACCESS:   48764912  HIT:   34944034  MISS:   13820878  HIT %:    71.6582  MISS %:    28.3418   MPKI: 69.1044
L1D RFO       NON_SPEC    ACCESS:   15958506  HIT:   14715564  MISS:    1242942  HIT %:    92.2114  MISS %:    7.78859   MPKI: 6.21471
L1D PREFETCH  NON_SPEC    ACCESS:      86178  HIT:      80708  MISS:       5470  HIT %:    93.6527  MISS %:    6.34733   MPKI: 0.02735
L1D COMMIT LOAD NON_SPEC    ACCESS:    5839973  HIT:    3341262  MISS:    2498711  HIT %:    57.2137  MISS %:    42.7863   MPKI: 12.4936
L1D COMMIT WRITE NON_SPEC    ACCESS:   11017180  HIT:     543965  MISS:   10473215  HIT %:    4.93743  MISS %:    95.0626   MPKI: 52.3661
L1D PREFETCH  REQUESTED:     212671  ISSUED:     212671  USEFUL:       5125  USELESS:        345
L1D USEFUL LOAD PREFETCHES:       5125 PREFETCH ISSUED TO LOWER LEVEL:      93743  ACCURACY: 5.46707
L1D TIMELY PREFETCHES:       5125 LATE PREFETCHES: 0 DROPPED PREFETCHES: 36630
L1D COMMIT LATE PREFETCHES: 0 MISSED OPPORTUNITY: 0 LATE IN PQ: 0 UNCOVERED: 0
L1D COMMIT LATE MSHR PREFETCHES: 0
L1D MPKI TOTAL: 72.5838 MSHR LATE: 0 PQ LATE: 0 COMMIT LATE: 0 MISSED OPPORTUNITY: 0 UNCOVERED: 0
L1D PREFETCHES SAME FILL-ORIGIN LEVEL: 5470 DIFFERENT FILL-ORIGIN LEVEL: 88273
L1D AVERAGE MISS LATENCY: 14.613 cycles
L1D AVERAGE MISS LATENCY LOAD: 18.0886 cycles
L1D AVERAGE MISS LATENCY PREFETCH: 15.1303 cycles
L1D AVERAGE MSHR OCCUPANCY: 3.30593
L1D MSHR FULL: 0.120924
L1D RQ	ACCESS:   62244907	FORWARD:          0	MERGED:    1277056	TO_CACHE:   60967851
L1D WQ	ACCESS:   27229763	FORWARD:          0	MERGED:     129009	TO_CACHE:   27100754
L1D PQ	ACCESS:     212671	FORWARD:          0	MERGED:         35	TO_CACHE:     212636

L1D UNIQUE REGIONS ACCESSED: 0
L1D REGIONS CONFLICTS: 0
L1D Cross Page Prefetch Requests: 243882
L1D Same Page Prefetch Requests: 88532
L1D ROI Sum of L1D PQ occupancy: 5169551
L1D PREFETCHES PUSHED FROM L2C: 0
L1I SPEC fills:          0  NON-SPEC fills:          0
L1I Test counter :          0
L1I Leapfrog:          0
L1I MSHR merge:    2614661
L1I TOTAL     ACCESS:   32124050  HIT:   26924040  MISS:    5200010  HIT %:    83.8127  MISS %:    16.1873   MPKI: 26
L1I LOAD      TOTAL       ACCESS:   32124050  HIT:   26924040  MISS:    5200010  HIT %:    83.8127  MISS %:    16.1873   MPKI: 26
L1I LOAD      NON_SPEC    ACCESS:   32124050  HIT:   26924040  MISS:    5200010  HIT %:    83.8127  MISS %:    16.1873   MPKI: 26
L1I PREFETCH  REQUESTED:          0  ISSUED:          0  USEFUL:          0  USELESS:          0
L1I USEFUL LOAD PREFETCHES:          0 PREFETCH ISSUED TO LOWER LEVEL:          0  ACCURACY: -nan
L1I TIMELY PREFETCHES:          0 LATE PREFETCHES: 0 DROPPED PREFETCHES: 0
L1I COMMIT LATE PREFETCHES: 0 MISSED OPPORTUNITY: 0 LATE IN PQ: 0 UNCOVERED: 0
L1I COMMIT LATE MSHR PREFETCHES: 0
L1I MPKI TOTAL: 39.0734 MSHR LATE: 0 PQ LATE: 0 COMMIT LATE: 0 MISSED OPPORTUNITY: 0 UNCOVERED: 0
L1I PREFETCHES SAME FILL-ORIGIN LEVEL: 0 DIFFERENT FILL-ORIGIN LEVEL: 0
L1I AVERAGE MISS LATENCY: 14.036 cycles
L1I AVERAGE MISS LATENCY LOAD: 14.036 cycles
L1I AVERAGE MISS LATENCY PREFETCH: -nan cycles
L1I AVERAGE MSHR OCCUPANCY: 0.204825
L1I MSHR FULL: 0
L1I RQ	ACCESS:   49876599	FORWARD:          0	MERGED:   15137888	TO_CACHE:   34738711

BTB SPEC fills:          0  NON-SPEC fills:          0
BTB Test counter :          0
BTB Leapfrog:          0
BTB MSHR merge:          0
BTB TOTAL     ACCESS:    1127062  HIT:    1054337  MISS:      72725  HIT %:    93.5474  MISS %:    6.45262   MPKI: 0.363625
BTB BRANCH_DIRECT_JUMP	ACCESS:     218098  HIT:     218093  MISS:          5
BTB BRANCH_INDIRECT	ACCESS:      36350  HIT:      36349  MISS:          1
BTB BRANCH_CONDITIONAL	ACCESS:     436418  HIT:     436406  MISS:         12
BTB BRANCH_DIRECT_CALL	ACCESS:     218098  HIT:     218093  MISS:          5
BTB BRANCH_INDIRECT_CALL	ACCESS:          0  HIT:          0  MISS:          0
BTB BRANCH_RETURN	ACCESS:     218098  HIT:     145396  MISS:      72702
BTB BRANCH_OTHER ACCESS:          0  HIT:          0  MISS:          0

L2C SPEC fills:          0  NON-SPEC fills:      48956
L2C Test counter :     799407
L2C Leapfrog:          0
L2C MSHR merge:          7
L2C TOTAL     ACCESS:   26229930  HIT:   24210238  MISS:    2019692  HIT %:       92.3  MISS %:    7.69995   MPKI: 10.0985
L2C LOAD      TOTAL       ACCESS:   19633750  HIT:   18666589  MISS:     967161  HIT %:     95.074  MISS %:    4.92601   MPKI: 4.8358
L2C LOAD      NON_SPEC    ACCESS:    5817739  HIT:    5767586  MISS:      50153  HIT %:    99.1379  MISS %:    0.86207   MPKI: 0.250765
L2C LOAD      SPEC        ACCESS:   13816011  HIT:   12899003  MISS:     917008  HIT %:    93.3627  MISS %:    6.63728   MPKI: 4.58504
L2C RFO       NON_SPEC    ACCESS:    1240761  HIT:    1122994  MISS:     117767  HIT %:    90.5085  MISS %:    9.49151   MPKI: 0.588835
L2C PREFETCH  NON_SPEC    ACCESS:      93735  HIT:      87495  MISS:       6240  HIT %:    93.3429  MISS %:    6.65707   MPKI: 0.0312
L2C WRITEBACK NON_SPEC    ACCESS:    1258005  HIT:    1257941  MISS:         64  HIT %:    99.9949  MISS %: 0.00508742   MPKI: 0.00032
L2C CLEAN_EVICTION NON_SPEC    ACCESS:    1303492  HIT:     548702  MISS:     754790  HIT %:    42.0948  MISS %:    57.9052   MPKI: 3.77395
L2C COMMIT LOAD NON_SPEC    ACCESS:    2498431  HIT:    2336486  MISS:     161945  HIT %:    93.5181  MISS %:    6.48187   MPKI: 0.809725
L2C LOAD TRANSLATION NON_SPEC    ACCESS:      41971  HIT:      30836  MISS:      11135  HIT %:    73.4698  MISS %:    26.5302   MPKI: 0.055675
L2C TRANSLATION FROM L1D PREFETCHER NON_SPEC    ACCESS:     159785  HIT:     159195  MISS:        590  HIT %:    99.6308  MISS %:   0.369246   MPKI: 0.00295
L2C PREFETCH  REQUESTED:          0  ISSUED:          0  USEFUL:       3222  USELESS:       3615
L2C USEFUL LOAD PREFETCHES:       3222 PREFETCH ISSUED TO LOWER LEVEL:       6247  ACCURACY: 51.5768
L2C TIMELY PREFETCHES:       3222 LATE PREFETCHES: 7 DROPPED PREFETCHES: 0
L2C COMMIT LATE PREFETCHES: 0 MISSED OPPORTUNITY: 0 LATE IN PQ: 0 UNCOVERED: 0
L2C COMMIT LATE MSHR PREFETCHES: 0
L2C MPKI TOTAL: 4.8358 MSHR LATE: 3.5e-05 PQ LATE: 0 COMMIT LATE: 0 MISSED OPPORTUNITY: 0 UNCOVERED: 0
L2C PREFETCHES SAME FILL-ORIGIN LEVEL: 6245 DIFFERENT FILL-ORIGIN LEVEL: 0
L2C AVERAGE MISS LATENCY: 93.0931 cycles
L2C AVERAGE MISS LATENCY LOAD: 89.9104 cycles
L2C AVERAGE MISS LATENCY PREFETCH: 164.887 cycles
L2C AVERAGE MSHR OCCUPANCY: 0.56561
L2C MSHR FULL: 0
L2C RQ	ACCESS:   23582392	FORWARD:          0	MERGED:          0	TO_CACHE:   23574698
L2C WQ	ACCESS:    2561781	FORWARD:       7695	MERGED:        284	TO_CACHE:    2561497
L2C PQ	ACCESS:      93743	FORWARD:          0	MERGED:          0	TO_CACHE:      93742

L2C Instructions Evicting Data 1130
L2C Translations Evicting Data 11622
L2C Data Evicting Data 330864
L2C Instructions Evicting Instructions 57
L2C Translations Evicting Instructions 4
L2C Data Evicting Instructions 432
L2C Instructions Evicting Translations 10
L2C Translations Evicting Translations 99
L2C Data Evicting Translations 3612
L2C Dense regions hint from L2: 0
PSCL5 SPEC fills:          0  NON-SPEC fills:          0
PSCL5 Test counter :          0
PSCL5 Leapfrog:          0
PSCL5 MSHR merge:          0
PSCL5 TOTAL     ACCESS:          0  HIT:          0  MISS:          0  HIT %:       -nan  MISS %:       -nan   MPKI: 0
PSCL5 PREFETCH  REQUESTED:          0  ISSUED:          0  USEFUL:          0  USELESS:          0
PSCL5 USEFUL LOAD PREFETCHES:          0 PREFETCH ISSUED TO LOWER LEVEL:          0  ACCURACY: -nan
PSCL5 TIMELY PREFETCHES:          0 LATE PREFETCHES: 0 DROPPED PREFETCHES: 0
PSCL5 COMMIT LATE PREFETCHES: 0 MISSED OPPORTUNITY: 0 LATE IN PQ: 0 UNCOVERED: 0
PSCL5 COMMIT LATE MSHR PREFETCHES: 0
PSCL5 MPKI TOTAL: 0 MSHR LATE: 0 PQ LATE: 0 COMMIT LATE: 0 MISSED OPPORTUNITY: 0 UNCOVERED: 0
PSCL5 PREFETCHES SAME FILL-ORIGIN LEVEL: 0 DIFFERENT FILL-ORIGIN LEVEL: 0

PSCL4 SPEC fills:          0  NON-SPEC fills:          0
PSCL4 Test counter :          0
PSCL4 Leapfrog:          0
PSCL4 MSHR merge:          0
PSCL4 TOTAL     ACCESS:          0  HIT:          0  MISS:          0  HIT %:       -nan  MISS %:       -nan   MPKI: 0
PSCL4 PREFETCH  REQUESTED:          0  ISSUED:          0  USEFUL:          0  USELESS:          0
PSCL4 USEFUL LOAD PREFETCHES:          0 PREFETCH ISSUED TO LOWER LEVEL:          0  ACCURACY: -nan
PSCL4 TIMELY PREFETCHES:          0 LATE PREFETCHES: 0 DROPPED PREFETCHES: 0
PSCL4 COMMIT LATE PREFETCHES: 0 MISSED OPPORTUNITY: 0 LATE IN PQ: 0 UNCOVERED: 0
PSCL4 COMMIT LATE MSHR PREFETCHES: 0
PSCL4 MPKI TOTAL: 0 MSHR LATE: 0 PQ LATE: 0 COMMIT LATE: 0 MISSED OPPORTUNITY: 0 UNCOVERED: 0
PSCL4 PREFETCHES SAME FILL-ORIGIN LEVEL: 0 DIFFERENT FILL-ORIGIN LEVEL: 0

PSCL3 SPEC fills:          0  NON-SPEC fills:          0
PSCL3 Test counter :          0
PSCL3 Leapfrog:          0
PSCL3 MSHR merge:          0
PSCL3 TOTAL     ACCESS:          0  HIT:          0  MISS:          0  HIT %:       -nan  MISS %:       -nan   MPKI: 0
PSCL3 PREFETCH  REQUESTED:          0  ISSUED:          0  USEFUL:          0  USELESS:          0
PSCL3 USEFUL LOAD PREFETCHES:          0 PREFETCH ISSUED TO LOWER LEVEL:          0  ACCURACY: -nan
PSCL3 TIMELY PREFETCHES:          0 LATE PREFETCHES: 0 DROPPED PREFETCHES: 0
PSCL3 COMMIT LATE PREFETCHES: 0 MISSED OPPORTUNITY: 0 LATE IN PQ: 0 UNCOVERED: 0
PSCL3 COMMIT LATE MSHR PREFETCHES: 0
PSCL3 MPKI TOTAL: 0 MSHR LATE: 0 PQ LATE: 0 COMMIT LATE: 0 MISSED OPPORTUNITY: 0 UNCOVERED: 0
PSCL3 PREFETCHES SAME FILL-ORIGIN LEVEL: 0 DIFFERENT FILL-ORIGIN LEVEL: 0

PSCL2 SPEC fills:          0  NON-SPEC fills:          0
PSCL2 Test counter :          0
PSCL2 Leapfrog:          0
PSCL2 MSHR merge:          0
PSCL2 TOTAL     ACCESS:          0  HIT:          0  MISS:          0  HIT %:       -nan  MISS %:       -nan   MPKI: 0
PSCL2 PREFETCH  REQUESTED:          0  ISSUED:          0  USEFUL:          0  USELESS:          0
PSCL2 USEFUL LOAD PREFETCHES:          0 PREFETCH ISSUED TO LOWER LEVEL:          0  ACCURACY: -nan
PSCL2 TIMELY PREFETCHES:          0 LATE PREFETCHES: 0 DROPPED PREFETCHES: 0
PSCL2 COMMIT LATE PREFETCHES: 0 MISSED OPPORTUNITY: 0 LATE IN PQ: 0 UNCOVERED: 0
PSCL2 COMMIT LATE MSHR PREFETCHES: 0
PSCL2 MPKI TOTAL: 0 MSHR LATE: 0 PQ LATE: 0 COMMIT LATE: 0 MISSED OPPORTUNITY: 0 UNCOVERED: 0
PSCL2 PREFETCHES SAME FILL-ORIGIN LEVEL: 0 DIFFERENT FILL-ORIGIN LEVEL: 0

LLC SPEC fills:          0  NON-SPEC fills:      11207
LLC Test counter :     377369
LLC Leapfrog:          0
LLC MSHR merge:          0
LLC TOTAL     ACCESS:    2181479  HIT:    1246668  MISS:     934811  HIT %:    57.1478  MISS %:    42.8522   MPKI: 4.67405
LLC LOAD      TOTAL       ACCESS:     966676  HIT:     555354  MISS:     411322  HIT %:    57.4499  MISS %:    42.5501   MPKI: 2.05661
LLC LOAD      NON_SPEC    ACCESS:      50145  HIT:      38887  MISS:      11258  HIT %:    77.5491  MISS %:    22.4509   MPKI: 0.05629
LLC LOAD      SPEC        ACCESS:     916531  HIT:     516467  MISS:     400064  HIT %:    56.3502  MISS %:    43.6498   MPKI: 2.00032
LLC RFO       NON_SPEC    ACCESS:     117752  HIT:         52  MISS:     117700  HIT %:  0.0441606  MISS %:    99.9558   MPKI: 0.5885
LLC PREFETCH  NON_SPEC    ACCESS:       6247  HIT:       1296  MISS:       4951  HIT %:     20.746  MISS %:     79.254   MPKI: 0.024755
LLC WRITEBACK NON_SPEC    ACCESS:     117883  HIT:     117869  MISS:         14  HIT %:    99.9881  MISS %:  0.0118762   MPKI: 7e-05
LLC CLEAN_EVICTION NON_SPEC    ACCESS:     799407  HIT:     452551  MISS:     346856  HIT %:    56.6108  MISS %:    43.3892   MPKI: 1.73428
LLC COMMIT LOAD NON_SPEC    ACCESS:     161789  HIT:     108997  MISS:      52792  HIT %:    67.3698  MISS %:    32.6302   MPKI: 0.26396
LLC LOAD TRANSLATION NON_SPEC    ACCESS:      11135  HIT:      10020  MISS:       1115  HIT %:    89.9865  MISS %:    10.0135   MPKI: 0.005575
LLC TRANSLATION FROM L1D PREFETCHER NON_SPEC    ACCESS:        590  HIT:        529  MISS:         61  HIT %:     89.661  MISS %:     10.339   MPKI: 0.000305
LLC PREFETCH  REQUESTED:          0  ISSUED:          0  USEFUL:       3763  USELESS:       1253
LLC USEFUL LOAD PREFETCHES:       3763 PREFETCH ISSUED TO LOWER LEVEL:       4951  ACCURACY: 76.0048
LLC TIMELY PREFETCHES:       3763 LATE PREFETCHES: 0 DROPPED PREFETCHES: 0
LLC COMMIT LATE PREFETCHES: 0 MISSED OPPORTUNITY: 0 LATE IN PQ: 0 UNCOVERED: 0
LLC COMMIT LATE MSHR PREFETCHES: 0
LLC MPKI TOTAL: 2.05661 MSHR LATE: 0 PQ LATE: 0 COMMIT LATE: 0 MISSED OPPORTUNITY: 0 UNCOVERED: 0
LLC PREFETCHES SAME FILL-ORIGIN LEVEL: 0 DIFFERENT FILL-ORIGIN LEVEL: 0
LLC AVERAGE MISS LATENCY: 169.097 cycles
LLC AVERAGE MISS LATENCY LOAD: 160.389 cycles
LLC AVERAGE MISS LATENCY PREFETCH: 169.993 cycles
LLC AVERAGE MSHR OCCUPANCY: 2.02506
LLC MSHR FULL: 0
LLC RQ	ACCESS:    1258591	FORWARD:          0	MERGED:          0	TO_CACHE:    1257942
LLC WQ	ACCESS:     917290	FORWARD:        649	MERGED:          0	TO_CACHE:     917290
LLC PQ	ACCESS:       6247	FORWARD:          0	MERGED:          0	TO_CACHE:       6247

LLC Dense regions hint to LLC: 0

RAW hits: 564965
Loads Generated: 78372000
Loads sent to L1D: 77807034
Stores Generated: 16212582
Stores sent to L1D: 16212582
Major fault: 0 Minor fault: 8463
Allocated PAGES: 8463
Total Load insts: 136889432
Total Non-spec loads: 9300717
Percentage of speculative loads: 93.2057

LeapFrogging counter: 37081418
Commit hits: 43494933 miss: 27657337
Commit hit %: 61.1294 miss %: 38.8706
Commits not translated: 0
Loads retired: 14438955
Stores retired: 16212582
Cache fills: 14438973
L1D response latency: 18.0886 cycles
Load retirement latency: 226.403 cycles
OOO test counter: 0
Discarded buffer inserts: 43494933 hits: 470282 hit %: 1.08123
Filter prediction accuracy: 0.983823
ALL MISSES SIZE: 234532
LATENCY_FILL: 17.9572 14458669
LATENCY_FILL_ROB: 176.862 14435634
test counter pref: 1980390
Max ROB Extended: 53

DRAM Statistics
 CHANNEL 0
 RQ ROW_BUFFER_HIT:     329335  ROW_BUFFER_MISS:     258606
 DBUS_CONGESTED:        691
 WQ ROW_BUFFER_HIT:     117046  ROW_BUFFER_MISS:     377715  FULL:          0

 AVG_CONGESTED_CYCLE: 5
 All warmup complete: 2
Channel 0 Bank busy for read cycles: 0
Channel 0 Bank busy for write cycles: 0
Channel 0
Rank 0
0banks busy for read cycles: 285543027
0banks busy for write cycles: 288823
1banks busy for read cycles: 28508090
1banks busy for write cycles: 34704714
2banks busy for read cycles: 6306351
2banks busy for write cycles: 8395239
3banks busy for read cycles: 2710806
3banks busy for write cycles: 3185843
4banks busy for read cycles: 917190
4banks busy for write cycles: 1138881
5banks busy for read cycles: 386092
5banks busy for write cycles: 382362
6banks busy for read cycles: 64742
6banks busy for write cycles: 173088
7banks busy for read cycles: 3008
7banks busy for write cycles: 63838
8banks busy for read cycles: 0
8banks busy for write cycles: 13649

CPU 0 Branch Prediction Accuracy: 99.9875% MPKI: 0.001115 Average ROB Occupancy at Mispredict: 24.7534
Branch types
NOT_BRANCH: 198218417 99.1092%
BRANCH_DIRECT_JUMP: 218098 0.109049%
BRANCH_INDIRECT: 36350 0.018175%
BRANCH_CONDITIONAL: 1090933 0.545466%
BRANCH_DIRECT_CALL: 218098 0.109049%
BRANCH_INDIRECT_CALL: 0 0%
BRANCH_RETURN: 218098 0.109049%
BRANCH_OTHER: 0 0%

DRAM PAGES: 1048576
Allocated PAGES: 8463
