
*** ChampSim Multicore Out-of-Order Simulator ***

Warmup Instructions: 50000000
Simulation Instructions: 200000000
Number of CPUs: 1
LLC sets: 2048
LLC ways: 16
L0D sets: 16
L0D ways: 2
ROB size: 352
LQ size: 128
SQ size: 72
Secure Berti: ON
Berti: ON
Berti Fill: ON
On commit prefetching: OFF
Hit-based filter: ON
Time-guarding: ON
Free-slotting: ON
Leap-frogging: ON
Train prefetcher on L0D bypass: OFF
No translation penalty for prefetchers: OFF
Prefetch to L0D only: OFF
Prefetch to L1D only: OFF
Clean evictions: ON
Commit loads: ON
Commit write: ON
Fill commit loads to L2C, LLC: ON
DRAM IO FREQUENCY: 6400
ROB SIZE: 352
Off-chip DRAM Size: 4096 MB Channels: 1 Width: 64-bit Data Rate: 6400 MT/s
CPU 0 runs /home/sumon/secure_berti/GhostMinion/../../traces/spec/619.lbm_s-3766B.champsimtrace.xz
.xz
BTB has LRU replacement policy
ITLB has LRU replacement policy
DTLB has LRU replacement policy
STLB has LRU replacement policy
L1I has LRU replacement policy
L0D has LRU replacement policy
Berti version on_commit
History Sets: 8
History Ways: 16
BERTI Size: 16
BERTI Stride Size: 16
L1D has LRU replacement policy
L2C has LRU replacement policy
LLC has LRU replacement policy
Heartbeat CPU 0 instructions: 10000000 cycles: 2863213 heartbeat IPC: 3.49258 cumulative IPC: 3.49258 (Simulation time: 0 hr 0 min 33 sec) 
Heartbeat CPU 0 instructions: 20000002 cycles: 5729411 heartbeat IPC: 3.48894 cumulative IPC: 3.49076 (Simulation time: 0 hr 1 min 4 sec) 
Heartbeat CPU 0 instructions: 30000000 cycles: 8592689 heartbeat IPC: 3.4925 cumulative IPC: 3.49134 (Simulation time: 0 hr 1 min 35 sec) 
Heartbeat CPU 0 instructions: 40000003 cycles: 11459503 heartbeat IPC: 3.48819 cumulative IPC: 3.49055 (Simulation time: 0 hr 2 min 6 sec) 
Heartbeat CPU 0 instructions: 50000000 cycles: 14326088 heartbeat IPC: 3.48847 cumulative IPC: 3.49014 (Simulation time: 0 hr 2 min 38 sec) 

Warmup complete CPU 0 instructions: 50000004 cycles: 14326089 (Simulation time: 0 hr 2 min 38 sec) 

Heartbeat CPU 0 instructions: 60000000 cycles: 24785807 heartbeat IPC: 0.956049 cumulative IPC: 0.956048 (Simulation time: 0 hr 3 min 19 sec) 
Heartbeat CPU 0 instructions: 70000001 cycles: 35501373 heartbeat IPC: 0.933222 cumulative IPC: 0.944497 (Simulation time: 0 hr 4 min 1 sec) 
Heartbeat CPU 0 instructions: 80000001 cycles: 46020261 heartbeat IPC: 0.950671 cumulative IPC: 0.946546 (Simulation time: 0 hr 4 min 43 sec) 
Heartbeat CPU 0 instructions: 90000001 cycles: 56730254 heartbeat IPC: 0.933707 cumulative IPC: 0.943303 (Simulation time: 0 hr 5 min 26 sec) 
Heartbeat CPU 0 instructions: 100000000 cycles: 67214358 heartbeat IPC: 0.953825 cumulative IPC: 0.945389 (Simulation time: 0 hr 6 min 8 sec) 
Heartbeat CPU 0 instructions: 110000000 cycles: 78254662 heartbeat IPC: 0.905772 cumulative IPC: 0.938547 (Simulation time: 0 hr 6 min 53 sec) 
Heartbeat CPU 0 instructions: 120000003 cycles: 89478491 heartbeat IPC: 0.890962 cumulative IPC: 0.931441 (Simulation time: 0 hr 7 min 39 sec) 
Heartbeat CPU 0 instructions: 130000000 cycles: 103298577 heartbeat IPC: 0.723584 cumulative IPC: 0.899154 (Simulation time: 0 hr 8 min 32 sec) 
Heartbeat CPU 0 instructions: 140000002 cycles: 119201348 heartbeat IPC: 0.628821 cumulative IPC: 0.858162 (Simulation time: 0 hr 9 min 27 sec) 
Heartbeat CPU 0 instructions: 150000002 cycles: 138168237 heartbeat IPC: 0.527235 cumulative IPC: 0.80748 (Simulation time: 0 hr 10 min 29 sec) 
Heartbeat CPU 0 instructions: 160000003 cycles: 162280139 heartbeat IPC: 0.414733 cumulative IPC: 0.743474 (Simulation time: 0 hr 11 min 41 sec) 
Heartbeat CPU 0 instructions: 170000000 cycles: 192359352 heartbeat IPC: 0.332455 cumulative IPC: 0.674031 (Simulation time: 0 hr 13 min 6 sec) 
Heartbeat CPU 0 instructions: 180000003 cycles: 225396500 heartbeat IPC: 0.30269 cumulative IPC: 0.615908 (Simulation time: 0 hr 14 min 33 sec) 
Heartbeat CPU 0 instructions: 190000001 cycles: 260090289 heartbeat IPC: 0.288236 cumulative IPC: 0.569652 (Simulation time: 0 hr 16 min 0 sec) 
Heartbeat CPU 0 instructions: 200000003 cycles: 291382235 heartbeat IPC: 0.319571 cumulative IPC: 0.541407 (Simulation time: 0 hr 17 min 15 sec) 
Heartbeat CPU 0 instructions: 210000003 cycles: 320181847 heartbeat IPC: 0.347227 cumulative IPC: 0.523122 (Simulation time: 0 hr 18 min 22 sec) 
Heartbeat CPU 0 instructions: 220000000 cycles: 346446443 heartbeat IPC: 0.380741 cumulative IPC: 0.511863 (Simulation time: 0 hr 19 min 24 sec) 
Heartbeat CPU 0 instructions: 230000000 cycles: 372045696 heartbeat IPC: 0.390636 cumulative IPC: 0.503187 (Simulation time: 0 hr 20 min 24 sec) 
Heartbeat CPU 0 instructions: 240000002 cycles: 396430707 heartbeat IPC: 0.410088 cumulative IPC: 0.497246 (Simulation time: 0 hr 21 min 22 sec) 
Heartbeat CPU 0 instructions: 250000002 cycles: 420820352 heartbeat IPC: 0.41001 cumulative IPC: 0.492012 (Simulation time: 0 hr 22 min 19 sec) 
Finished CPU 0 instructions: 200000001 cycles: 406494264 cumulative IPC: 0.492012 (Simulation time: 0 hr 22 min 19 sec) 
 Instruction ID: 250000037

ChampSim completed all CPUs

Region of Interest Statistics

CPU 0 cumulative IPC: 0.492012 instructions: 200000001 cycles: 406494264
ITLB SPEC fills:          0  NON-SPEC fills:          0
ITLB Test counter :          0
ITLB Leapfrog:          0
ITLB MSHR merge:          0
ITLB TOTAL     ACCESS:   26492644  HIT:   26492644  MISS:          0  HIT %:        100  MISS %:          0   MPKI: 0
ITLB LOAD TRANSLATION NON_SPEC    ACCESS:   26492644  HIT:   26492644  MISS:          0  HIT %:        100  MISS %:          0   MPKI: 0
ITLB PREFETCH  REQUESTED:          0  ISSUED:          0  USEFUL:          0  USELESS:          0
ITLB USEFUL LOAD PREFETCHES:          0 PREFETCH ISSUED TO LOWER LEVEL:          0  ACCURACY: -nan
ITLB TIMELY PREFETCHES:          0 LATE PREFETCHES: 0 DROPPED PREFETCHES: 0
ITLB COMMIT LATE PREFETCHES: 0 MISSED OPPORTUNITY: 0 LATE IN PQ: 0 UNCOVERED: 0
ITLB COMMIT LATE MSHR PREFETCHES: 0
ITLB MPKI TOTAL: 0 MSHR LATE: 0 PQ LATE: 0 COMMIT LATE: 0 MISSED OPPORTUNITY: 0 UNCOVERED: 0
ITLB PREFETCHES SAME FILL-ORIGIN LEVEL: 0 DIFFERENT FILL-ORIGIN LEVEL: 0
ITLB AVERAGE MISS LATENCY: -nan cycles
ITLB AVERAGE MISS LATENCY LOAD: -nan cycles
ITLB AVERAGE MISS LATENCY PREFETCH: -nan cycles
ITLB AVERAGE MSHR OCCUPANCY: 0
ITLB MSHR FULL: 0
ITLB RQ	ACCESS:   34376448	FORWARD:          0	MERGED:    7883804	TO_CACHE:   26492644

DTLB SPEC fills:          0  NON-SPEC fills:          0
DTLB Test counter :          0
DTLB Leapfrog:          0
DTLB MSHR merge:          0
DTLB TOTAL     ACCESS:   45568598  HIT:   45342885  MISS:     225713  HIT %:    99.5047  MISS %:   0.495326   MPKI: 1.12856
DTLB LOAD TRANSLATION NON_SPEC    ACCESS:   45568598  HIT:   45342885  MISS:     225713  HIT %:    99.5047  MISS %:   0.495326   MPKI: 1.12856
DTLB PREFETCH  REQUESTED:          0  ISSUED:          0  USEFUL:          0  USELESS:          0
DTLB USEFUL LOAD PREFETCHES:          0 PREFETCH ISSUED TO LOWER LEVEL:          0  ACCURACY: -nan
DTLB TIMELY PREFETCHES:          0 LATE PREFETCHES: 0 DROPPED PREFETCHES: 0
DTLB COMMIT LATE PREFETCHES: 0 MISSED OPPORTUNITY: 0 LATE IN PQ: 0 UNCOVERED: 0
DTLB COMMIT LATE MSHR PREFETCHES: 0
DTLB MPKI TOTAL: 0 MSHR LATE: 0 PQ LATE: 0 COMMIT LATE: 0 MISSED OPPORTUNITY: 0 UNCOVERED: 0
DTLB PREFETCHES SAME FILL-ORIGIN LEVEL: 0 DIFFERENT FILL-ORIGIN LEVEL: 0
DTLB AVERAGE MISS LATENCY: 132.081 cycles
DTLB AVERAGE MISS LATENCY LOAD: -nan cycles
DTLB AVERAGE MISS LATENCY PREFETCH: -nan cycles
DTLB AVERAGE MSHR OCCUPANCY: 0.0895671
DTLB MSHR FULL: 0
DTLB RQ	ACCESS:   66366554	FORWARD:          0	MERGED:   20667931	TO_CACHE:   45698623

STLB SPEC fills:          0  NON-SPEC fills:          0
STLB Test counter :          0
STLB Leapfrog:          0
STLB MSHR merge:          0
STLB TOTAL     ACCESS:    1554371  HIT:    1431920  MISS:     122451  HIT %:    92.1222  MISS %:    7.87785   MPKI: 0.612255
STLB LOAD TRANSLATION NON_SPEC    ACCESS:     225713  HIT:     103262  MISS:     122451  HIT %:    45.7492  MISS %:    54.2508   MPKI: 0.612255
STLB TRANSLATION FROM L1D PREFETCHER NON_SPEC    ACCESS:    1328658  HIT:    1328658  MISS:          0  HIT %:        100  MISS %:          0   MPKI: 0
STLB PREFETCH  REQUESTED:          0  ISSUED:          0  USEFUL:          0  USELESS:          0
STLB USEFUL LOAD PREFETCHES:          0 PREFETCH ISSUED TO LOWER LEVEL:          0  ACCURACY: -nan
STLB TIMELY PREFETCHES:          0 LATE PREFETCHES: 10341 DROPPED PREFETCHES: 769504
STLB COMMIT LATE PREFETCHES: 0 MISSED OPPORTUNITY: 0 LATE IN PQ: 0 UNCOVERED: 0
STLB COMMIT LATE MSHR PREFETCHES: 0
STLB MPKI TOTAL: 0 MSHR LATE: 0.051705 PQ LATE: 0 COMMIT LATE: 0 MISSED OPPORTUNITY: 0 UNCOVERED: 0
STLB PREFETCHES SAME FILL-ORIGIN LEVEL: 0 DIFFERENT FILL-ORIGIN LEVEL: 0
STLB AVERAGE MISS LATENCY: 226.343 cycles
STLB AVERAGE MISS LATENCY LOAD: -nan cycles
STLB AVERAGE MISS LATENCY PREFETCH: -nan cycles
STLB AVERAGE MSHR OCCUPANCY: 0.305481
STLB MSHR FULL: 0
STLB RQ	ACCESS:   13598609	FORWARD:          0	MERGED:   11088301	TO_CACHE:    2510308

STLB Hit, L1D data hit: 0
STLB Hit, L2C data hit: 0
STLB Hit, LLC data hit: 0
STLB Hit, LLC data miss: 0
STLB STLB hints to L2: 0
L0D SPEC fills:   19981616  NON-SPEC fills:          0
L0D TimeGuard Request with older TS:      31092 Restricted eviction:       4639 read:     590364
L0D Test counter :          0
L0D Leapfrog:          0
L0D MSHR merge:    2613947
L0D TOTAL     ACCESS:   29188748  HIT:    7165135  MISS:   22023613  HIT %:    24.5476  MISS %:    75.4524   MPKI: 110.118
L0D LOAD      TOTAL       ACCESS:   29188748  HIT:    7165135  MISS:   22023613  HIT %:    24.5476  MISS %:    75.4524   MPKI: 110.118
L0D LOAD      NON_SPEC    ACCESS:    3092004  HIT:    1054646  MISS:    2037358  HIT %:    34.1088  MISS %:    65.8912   MPKI: 10.1868
L0D LOAD      SPEC        ACCESS:   26096744  HIT:    6110489  MISS:   19986255  HIT %:    23.4148  MISS %:    76.5852   MPKI: 99.9313
L0D PREFETCH  REQUESTED:          0  ISSUED:          0  USEFUL:          0  USELESS:          0
L0D USEFUL LOAD PREFETCHES:          0 PREFETCH ISSUED TO LOWER LEVEL:          0  ACCURACY: -nan
L0D TIMELY PREFETCHES:          0 LATE PREFETCHES: 0 DROPPED PREFETCHES: 0
L0D COMMIT LATE PREFETCHES: 0 MISSED OPPORTUNITY: 0 LATE IN PQ: 0 UNCOVERED: 0
L0D COMMIT LATE MSHR PREFETCHES: 0
L0D MPKI TOTAL: 123.188 MSHR LATE: 0 PQ LATE: 0 COMMIT LATE: 0 MISSED OPPORTUNITY: 0 UNCOVERED: 0
L0D PREFETCHES SAME FILL-ORIGIN LEVEL: 0 DIFFERENT FILL-ORIGIN LEVEL: 0
L0D AVERAGE MISS LATENCY: 34.8193 cycles
L0D AVERAGE MISS LATENCY LOAD: 34.8193 cycles
L0D AVERAGE MISS LATENCY PREFETCH: -nan cycles
L0D AVERAGE MSHR OCCUPANCY: 1.53801
L0D MSHR FULL: 0.0985887
L0D RQ	ACCESS:   48583909	FORWARD:          0	MERGED:   16781215	TO_CACHE:   31802694
L0D WQ	ACCESS:   34563860	FORWARD:          0	MERGED:          0	TO_CACHE:   34563860

L1D SPEC fills:          0  NON-SPEC fills:      76263
L1D Test counter :     348431
L1D Leapfrog:          0
L1D MSHR merge:      66936
L1D TOTAL     ACCESS:   63716274  HIT:   49772956  MISS:   13943318  HIT %:    78.1166  MISS %:    21.8834   MPKI: 69.7166
L1D LOAD      TOTAL       ACCESS:   22009770  HIT:   20979129  MISS:    1030641  HIT %:    95.3173  MISS %:    4.68265   MPKI: 5.1532
L1D LOAD      NON_SPEC    ACCESS:    2033274  HIT:    1957011  MISS:      76263  HIT %:    96.2493  MISS %:    3.75075   MPKI: 0.381315
L1D LOAD      SPEC        ACCESS:   19976496  HIT:   19022118  MISS:     954378  HIT %:    95.2225  MISS %:     4.7775   MPKI: 4.77189
L1D RFO       NON_SPEC    ACCESS:   33843737  HIT:   22944161  MISS:   10899576  HIT %:    67.7944  MISS %:    32.2056   MPKI: 54.4979
L1D PREFETCH  NON_SPEC    ACCESS:    5808118  HIT:    4792513  MISS:    1015605  HIT %:     82.514  MISS %:     17.486   MPKI: 5.07802
L1D COMMIT LOAD NON_SPEC    ACCESS:    1082225  HIT:     915661  MISS:     166564  HIT %:    84.6091  MISS %:    15.3909   MPKI: 0.83282
L1D COMMIT WRITE NON_SPEC    ACCESS:     972424  HIT:     141492  MISS:     830932  HIT %:    14.5504  MISS %:    85.4496   MPKI: 4.15466
L1D PREFETCH  REQUESTED:   30309836  ISSUED:   15567103  USEFUL:    1004759  USELESS:      10845
L1D USEFUL LOAD PREFETCHES:    1004759 PREFETCH ISSUED TO LOWER LEVEL:    5184579  ACCURACY: 19.3798
L1D TIMELY PREFETCHES:    1004759 LATE PREFETCHES: 64978 DROPPED PREFETCHES: 3143764
L1D COMMIT LATE PREFETCHES: 0 MISSED OPPORTUNITY: 0 LATE IN PQ: 0 UNCOVERED: 0
L1D COMMIT LATE MSHR PREFETCHES: 0
L1D MPKI TOTAL: 5.22242 MSHR LATE: 0.32489 PQ LATE: 0 COMMIT LATE: 0 MISSED OPPORTUNITY: 0 UNCOVERED: 0
L1D PREFETCHES SAME FILL-ORIGIN LEVEL: 1080708 DIFFERENT FILL-ORIGIN LEVEL: 4103871
L1D AVERAGE MISS LATENCY: 273.801 cycles
L1D AVERAGE MISS LATENCY LOAD: 276.544 cycles
L1D AVERAGE MISS LATENCY PREFETCH: 192.565 cycles
L1D AVERAGE MSHR OCCUPANCY: 15.1988
L1D MSHR FULL: 0.896376
L1D RQ	ACCESS:   27729325	FORWARD:          0	MERGED:    4620026	TO_CACHE:   23109284
L1D WQ	ACCESS:   35366272	FORWARD:         15	MERGED:     383981	TO_CACHE:   34982291
L1D PQ	ACCESS:   15567103	FORWARD:          0	MERGED:    2194207	TO_CACHE:   13372896

L1D UNIQUE REGIONS ACCESSED: 0
L1D REGIONS CONFLICTS: 0
L1D Cross Page Prefetch Requests: 4957092
L1D Same Page Prefetch Requests: 15039565
L1D ROI Sum of L1D PQ occupancy: 2192042674
L1D PREFETCHES PUSHED FROM L2C: 0
L1I SPEC fills:          0  NON-SPEC fills:          0
L1I Test counter :          0
L1I Leapfrog:          0
L1I MSHR merge:          0
L1I TOTAL     ACCESS:   34376446  HIT:   34376446  MISS:          0  HIT %:        100  MISS %:          0   MPKI: 0
L1I LOAD      TOTAL       ACCESS:   34376446  HIT:   34376446  MISS:          0  HIT %:        100  MISS %:          0   MPKI: 0
L1I LOAD      NON_SPEC    ACCESS:   34376446  HIT:   34376446  MISS:          0  HIT %:        100  MISS %:          0   MPKI: 0
L1I PREFETCH  REQUESTED:          0  ISSUED:          0  USEFUL:          0  USELESS:          0
L1I USEFUL LOAD PREFETCHES:          0 PREFETCH ISSUED TO LOWER LEVEL:          0  ACCURACY: -nan
L1I TIMELY PREFETCHES:          0 LATE PREFETCHES: 0 DROPPED PREFETCHES: 0
L1I COMMIT LATE PREFETCHES: 0 MISSED OPPORTUNITY: 0 LATE IN PQ: 0 UNCOVERED: 0
L1I COMMIT LATE MSHR PREFETCHES: 0
L1I MPKI TOTAL: 0 MSHR LATE: 0 PQ LATE: 0 COMMIT LATE: 0 MISSED OPPORTUNITY: 0 UNCOVERED: 0
L1I PREFETCHES SAME FILL-ORIGIN LEVEL: 0 DIFFERENT FILL-ORIGIN LEVEL: 0
L1I AVERAGE MISS LATENCY: -nan cycles
L1I AVERAGE MISS LATENCY LOAD: -nan cycles
L1I AVERAGE MISS LATENCY PREFETCH: -nan cycles
L1I AVERAGE MSHR OCCUPANCY: 0
L1I MSHR FULL: 0
L1I RQ	ACCESS:   49150872	FORWARD:          0	MERGED:   14774424	TO_CACHE:   34376448

BTB SPEC fills:          0  NON-SPEC fills:          0
BTB Test counter :          0
BTB Leapfrog:          0
BTB MSHR merge:          0
BTB TOTAL     ACCESS:    3122104  HIT:    3122098  MISS:          6  HIT %:    99.9998  MISS %: 0.000192178   MPKI: 3e-05
BTB BRANCH_DIRECT_JUMP	ACCESS:     397756  HIT:     397755  MISS:          1
BTB BRANCH_INDIRECT	ACCESS:          0  HIT:          0  MISS:          0
BTB BRANCH_CONDITIONAL	ACCESS:    2724348  HIT:    2724343  MISS:          5
BTB BRANCH_DIRECT_CALL	ACCESS:          0  HIT:          0  MISS:          0
BTB BRANCH_INDIRECT_CALL	ACCESS:          0  HIT:          0  MISS:          0
BTB BRANCH_RETURN	ACCESS:          0  HIT:          0  MISS:          0
BTB BRANCH_OTHER ACCESS:          0  HIT:          0  MISS:          0

L2C SPEC fills:          0  NON-SPEC fills:      13725
L2C Test counter :     344438
L2C Leapfrog:          0
L2C MSHR merge:      36505
L2C TOTAL     ACCESS:   32686662  HIT:   24495662  MISS:    8191000  HIT %:    74.9408  MISS %:    25.0592   MPKI: 40.955
L2C LOAD      TOTAL       ACCESS:     977462  HIT:     688114  MISS:     289348  HIT %:     70.398  MISS %:     29.602   MPKI: 1.44674
L2C LOAD      NON_SPEC    ACCESS:      75460  HIT:      61735  MISS:      13725  HIT %:    81.8116  MISS %:    18.1884   MPKI: 0.068625
L2C LOAD      SPEC        ACCESS:     902002  HIT:     626379  MISS:     275623  HIT %:    69.4432  MISS %:    30.5568   MPKI: 1.37811
L2C RFO       NON_SPEC    ACCESS:   10899562  HIT:    4962118  MISS:    5937444  HIT %:    45.5258  MISS %:    54.4742   MPKI: 29.6872
L2C PREFETCH  NON_SPEC    ACCESS:    4896381  HIT:    3182417  MISS:    1713964  HIT %:    64.9953  MISS %:    35.0047   MPKI: 8.56982
L2C WRITEBACK NON_SPEC    ACCESS:   10899587  HIT:   10899068  MISS:        519  HIT %:    99.9952  MISS %: 0.00476165   MPKI: 0.002595
L2C CLEAN_EVICTION NON_SPEC    ACCESS:     348429  HIT:     142560  MISS:     205869  HIT %:    40.9151  MISS %:    59.0849   MPKI: 1.02934
L2C COMMIT LOAD NON_SPEC    ACCESS:     154679  HIT:     126227  MISS:      28452  HIT %:    81.6058  MISS %:    18.3942   MPKI: 0.14226
L2C LOAD TRANSLATION NON_SPEC    ACCESS:     612134  HIT:     600572  MISS:      11562  HIT %:    98.1112  MISS %:     1.8888   MPKI: 0.05781
L2C TRANSLATION FROM L1D PREFETCHER NON_SPEC    ACCESS:    3898428  HIT:    3894586  MISS:       3842  HIT %:    99.9014  MISS %:  0.0985525   MPKI: 0.01921
L2C PREFETCH  REQUESTED:          0  ISSUED:          0  USEFUL:     649283  USELESS:    1070050
L2C USEFUL LOAD PREFETCHES:     649283 PREFETCH ISSUED TO LOWER LEVEL:    1751363  ACCURACY: 37.073
L2C TIMELY PREFETCHES:     649283 LATE PREFETCHES: 37399 DROPPED PREFETCHES: 0
L2C COMMIT LATE PREFETCHES: 0 MISSED OPPORTUNITY: 0 LATE IN PQ: 0 UNCOVERED: 0
L2C COMMIT LATE MSHR PREFETCHES: 0
L2C MPKI TOTAL: 1.44674 MSHR LATE: 0.186995 PQ LATE: 0 COMMIT LATE: 0 MISSED OPPORTUNITY: 0 UNCOVERED: 0
L2C PREFETCHES SAME FILL-ORIGIN LEVEL: 1261562 DIFFERENT FILL-ORIGIN LEVEL: 0
L2C AVERAGE MISS LATENCY: 507.811 cycles
L2C AVERAGE MISS LATENCY LOAD: 458.474 cycles
L2C AVERAGE MISS LATENCY PREFETCH: 496.653 cycles
L2C AVERAGE MSHR OCCUPANCY: 11.8614
L2C MSHR FULL: 0.0178439
L2C RQ	ACCESS:   16542378	FORWARD:          0	MERGED:          0	TO_CACHE:   16542278
L2C WQ	ACCESS:   11248018	FORWARD:        100	MERGED:          2	TO_CACHE:   11248016
L2C PQ	ACCESS:    5182054	FORWARD:          0	MERGED:       1338	TO_CACHE:    5180716

L2C Instructions Evicting Data 0
L2C Translations Evicting Data 15342
L2C Data Evicting Data 7678690
L2C Instructions Evicting Instructions 0
L2C Translations Evicting Instructions 0
L2C Data Evicting Instructions 0
L2C Instructions Evicting Translations 0
L2C Translations Evicting Translations 62
L2C Data Evicting Translations 14895
L2C Dense regions hint from L2: 0
PSCL5 SPEC fills:          0  NON-SPEC fills:          0
PSCL5 Test counter :          0
PSCL5 Leapfrog:          0
PSCL5 MSHR merge:          0
PSCL5 TOTAL     ACCESS:          0  HIT:          0  MISS:          0  HIT %:       -nan  MISS %:       -nan   MPKI: 0
PSCL5 PREFETCH  REQUESTED:          0  ISSUED:          0  USEFUL:          0  USELESS:          0
PSCL5 USEFUL LOAD PREFETCHES:          0 PREFETCH ISSUED TO LOWER LEVEL:          0  ACCURACY: -nan
PSCL5 TIMELY PREFETCHES:          0 LATE PREFETCHES: 0 DROPPED PREFETCHES: 0
PSCL5 COMMIT LATE PREFETCHES: 0 MISSED OPPORTUNITY: 0 LATE IN PQ: 0 UNCOVERED: 0
PSCL5 COMMIT LATE MSHR PREFETCHES: 0
PSCL5 MPKI TOTAL: 0 MSHR LATE: 0 PQ LATE: 0 COMMIT LATE: 0 MISSED OPPORTUNITY: 0 UNCOVERED: 0
PSCL5 PREFETCHES SAME FILL-ORIGIN LEVEL: 0 DIFFERENT FILL-ORIGIN LEVEL: 0

PSCL4 SPEC fills:          0  NON-SPEC fills:          0
PSCL4 Test counter :          0
PSCL4 Leapfrog:          0
PSCL4 MSHR merge:          0
PSCL4 TOTAL     ACCESS:          0  HIT:          0  MISS:          0  HIT %:       -nan  MISS %:       -nan   MPKI: 0
PSCL4 PREFETCH  REQUESTED:          0  ISSUED:          0  USEFUL:          0  USELESS:          0
PSCL4 USEFUL LOAD PREFETCHES:          0 PREFETCH ISSUED TO LOWER LEVEL:          0  ACCURACY: -nan
PSCL4 TIMELY PREFETCHES:          0 LATE PREFETCHES: 0 DROPPED PREFETCHES: 0
PSCL4 COMMIT LATE PREFETCHES: 0 MISSED OPPORTUNITY: 0 LATE IN PQ: 0 UNCOVERED: 0
PSCL4 COMMIT LATE MSHR PREFETCHES: 0
PSCL4 MPKI TOTAL: 0 MSHR LATE: 0 PQ LATE: 0 COMMIT LATE: 0 MISSED OPPORTUNITY: 0 UNCOVERED: 0
PSCL4 PREFETCHES SAME FILL-ORIGIN LEVEL: 0 DIFFERENT FILL-ORIGIN LEVEL: 0

PSCL3 SPEC fills:          0  NON-SPEC fills:          0
PSCL3 Test counter :          0
PSCL3 Leapfrog:          0
PSCL3 MSHR merge:          0
PSCL3 TOTAL     ACCESS:          0  HIT:          0  MISS:          0  HIT %:       -nan  MISS %:       -nan   MPKI: 0
PSCL3 PREFETCH  REQUESTED:          0  ISSUED:          0  USEFUL:          0  USELESS:          0
PSCL3 USEFUL LOAD PREFETCHES:          0 PREFETCH ISSUED TO LOWER LEVEL:          0  ACCURACY: -nan
PSCL3 TIMELY PREFETCHES:          0 LATE PREFETCHES: 0 DROPPED PREFETCHES: 0
PSCL3 COMMIT LATE PREFETCHES: 0 MISSED OPPORTUNITY: 0 LATE IN PQ: 0 UNCOVERED: 0
PSCL3 COMMIT LATE MSHR PREFETCHES: 0
PSCL3 MPKI TOTAL: 0 MSHR LATE: 0 PQ LATE: 0 COMMIT LATE: 0 MISSED OPPORTUNITY: 0 UNCOVERED: 0
PSCL3 PREFETCHES SAME FILL-ORIGIN LEVEL: 0 DIFFERENT FILL-ORIGIN LEVEL: 0

PSCL2 SPEC fills:          0  NON-SPEC fills:          0
PSCL2 Test counter :          0
PSCL2 Leapfrog:          0
PSCL2 MSHR merge:          0
PSCL2 TOTAL     ACCESS:          0  HIT:          0  MISS:          0  HIT %:       -nan  MISS %:       -nan   MPKI: 0
PSCL2 PREFETCH  REQUESTED:          0  ISSUED:          0  USEFUL:          0  USELESS:          0
PSCL2 USEFUL LOAD PREFETCHES:          0 PREFETCH ISSUED TO LOWER LEVEL:          0  ACCURACY: -nan
PSCL2 TIMELY PREFETCHES:          0 LATE PREFETCHES: 0 DROPPED PREFETCHES: 0
PSCL2 COMMIT LATE PREFETCHES: 0 MISSED OPPORTUNITY: 0 LATE IN PQ: 0 UNCOVERED: 0
PSCL2 COMMIT LATE MSHR PREFETCHES: 0
PSCL2 MPKI TOTAL: 0 MSHR LATE: 0 PQ LATE: 0 COMMIT LATE: 0 MISSED OPPORTUNITY: 0 UNCOVERED: 0
PSCL2 PREFETCHES SAME FILL-ORIGIN LEVEL: 0 DIFFERENT FILL-ORIGIN LEVEL: 0

LLC SPEC fills:          0  NON-SPEC fills:      12933
LLC Test counter :     341399
LLC Leapfrog:          0
LLC MSHR merge:          0
LLC TOTAL     ACCESS:   14266308  HIT:    6194398  MISS:    8071910  HIT %:    43.4198  MISS %:    56.5802   MPKI: 40.3595
LLC LOAD      TOTAL       ACCESS:     252841  HIT:       2274  MISS:     250567  HIT %:   0.899379  MISS %:    99.1006   MPKI: 1.25283
LLC LOAD      NON_SPEC    ACCESS:      12970  HIT:         37  MISS:      12933  HIT %:   0.285274  MISS %:    99.7147   MPKI: 0.064665
LLC LOAD      SPEC        ACCESS:     239871  HIT:       2237  MISS:     237634  HIT %:   0.932585  MISS %:    99.0674   MPKI: 1.18817
LLC RFO       NON_SPEC    ACCESS:    5937430  HIT:      78353  MISS:    5859077  HIT %:    1.31965  MISS %:    98.6804   MPKI: 29.2954
LLC PREFETCH  NON_SPEC    ACCESS:    1751363  HIT:       4488  MISS:    1746875  HIT %:   0.256258  MISS %:    99.7437   MPKI: 8.73437
LLC WRITEBACK NON_SPEC    ACCESS:    5937274  HIT:    5936925  MISS:        349  HIT %:    99.9941  MISS %: 0.00587812   MPKI: 0.001745
LLC CLEAN_EVICTION NON_SPEC    ACCESS:     344438  HIT:     168747  MISS:     175691  HIT %:     48.992  MISS %:     51.008   MPKI: 0.878455
LLC COMMIT LOAD NON_SPEC    ACCESS:      27558  HIT:       3611  MISS:      23947  HIT %:    13.1033  MISS %:    86.8967   MPKI: 0.119735
LLC LOAD TRANSLATION NON_SPEC    ACCESS:      11562  HIT:          0  MISS:      11562  HIT %:          0  MISS %:        100   MPKI: 0.05781
LLC TRANSLATION FROM L1D PREFETCHER NON_SPEC    ACCESS:       3842  HIT:          0  MISS:       3842  HIT %:          0  MISS %:        100   MPKI: 0.01921
LLC PREFETCH  REQUESTED:          0  ISSUED:          0  USEFUL:       3806  USELESS:    1750922
LLC USEFUL LOAD PREFETCHES:       3806 PREFETCH ISSUED TO LOWER LEVEL:    1746875  ACCURACY: 0.217875
LLC TIMELY PREFETCHES:       3806 LATE PREFETCHES: 0 DROPPED PREFETCHES: 0
LLC COMMIT LATE PREFETCHES: 0 MISSED OPPORTUNITY: 0 LATE IN PQ: 0 UNCOVERED: 0
LLC COMMIT LATE MSHR PREFETCHES: 0
LLC MPKI TOTAL: 1.25283 MSHR LATE: 0 PQ LATE: 0 COMMIT LATE: 0 MISSED OPPORTUNITY: 0 UNCOVERED: 0
LLC PREFETCHES SAME FILL-ORIGIN LEVEL: 0 DIFFERENT FILL-ORIGIN LEVEL: 0
LLC AVERAGE MISS LATENCY: 486.78 cycles
LLC AVERAGE MISS LATENCY LOAD: 459.211 cycles
LLC AVERAGE MISS LATENCY PREFETCH: 472.527 cycles
LLC AVERAGE MSHR OCCUPANCY: 11.0408
LLC MSHR FULL: 0
LLC RQ	ACCESS:    6233261	FORWARD:          0	MERGED:          0	TO_CACHE:    6233240
LLC WQ	ACCESS:    6281712	FORWARD:         21	MERGED:          0	TO_CACHE:    6281712
LLC PQ	ACCESS:    1751363	FORWARD:          0	MERGED:          0	TO_CACHE:    1751363

LLC Dense regions hint to LLC: 0

RAW hits: 1809971
Loads Generated: 50393882
Loads sent to L1D: 48583909
Stores Generated: 34563853
Stores sent to L1D: 34563860
Major fault: 0 Minor fault: 72955
Allocated PAGES: 72955
Total Load insts: 58556893
Total Non-spec loads: 3986919
Percentage of speculative loads: 93.1914

LeapFrogging counter: 17820047
Commit hits: 19950540 miss: 25061262
Commit hit %: 44.3229 miss %: 55.6771
Commits not translated: 0
Loads retired: 1030641
Stores retired: 34563860
Cache fills: 1030641
L1D response latency: 276.544 cycles
Load retirement latency: 911.077 cycles
OOO test counter: 0
Discarded buffer inserts: 19950540 hits: 203187 hit %: 1.01845
Filter prediction accuracy: 0.996622
ALL MISSES SIZE: 44894
LATENCY_FILL: 184.164 1028849
LATENCY_FILL_ROB: 362.242 1002877
test counter pref: 9884832
Max ROB Extended: 9

DRAM Statistics
 CHANNEL 0
 RQ ROW_BUFFER_HIT:     925547  ROW_BUFFER_MISS:    6970323
 DBUS_CONGESTED:         53
 WQ ROW_BUFFER_HIT:    1352458  ROW_BUFFER_MISS:    4844810  FULL:       1106

 AVG_CONGESTED_CYCLE: 3
 All warmup complete: 2
Channel 0 Bank busy for read cycles: 0
Channel 0 Bank busy for write cycles: 0
Channel 0
Rank 0
0banks busy for read cycles: 50906799
0banks busy for write cycles: 30933
1banks busy for read cycles: 8738750
1banks busy for write cycles: 3311451
2banks busy for read cycles: 11147614
2banks busy for write cycles: 2593706
3banks busy for read cycles: 18704186
3banks busy for write cycles: 2371777
4banks busy for read cycles: 21818211
4banks busy for write cycles: 2334311
5banks busy for read cycles: 37368283
5banks busy for write cycles: 2416628
6banks busy for read cycles: 41407148
6banks busy for write cycles: 2804784
7banks busy for read cycles: 43709759
7banks busy for write cycles: 9266461
8banks busy for read cycles: 37595706
8banks busy for write cycles: 109967758

CPU 0 Branch Prediction Accuracy: 97.6561% MPKI: 0.365925 Average ROB Occupancy at Mispredict: 157.607
Branch types
NOT_BRANCH: 196877353 98.4387%
BRANCH_DIRECT_JUMP: 397756 0.198878%
BRANCH_INDIRECT: 0 0%
BRANCH_CONDITIONAL: 2724542 1.36227%
BRANCH_DIRECT_CALL: 0 0%
BRANCH_INDIRECT_CALL: 0 0%
BRANCH_RETURN: 0 0%
BRANCH_OTHER: 0 0%

DRAM PAGES: 1048576
Allocated PAGES: 72955
