
*** ChampSim Multicore Out-of-Order Simulator ***

Warmup Instructions: 50000000
Simulation Instructions: 200000000
Number of CPUs: 1
LLC sets: 2048
LLC ways: 16
L0D sets: 16
L0D ways: 2
ROB size: 352
LQ size: 128
SQ size: 72
Secure Berti: ON
Berti: ON
Berti Fill: ON
On commit prefetching: OFF
Hit-based filter: ON
Time-guarding: ON
Free-slotting: ON
Leap-frogging: ON
Train prefetcher on L0D bypass: OFF
No translation penalty for prefetchers: OFF
Prefetch to L0D only: OFF
Prefetch to L1D only: OFF
Clean evictions: ON
Commit loads: ON
Commit write: ON
Fill commit loads to L2C, LLC: ON
DRAM IO FREQUENCY: 6400
ROB SIZE: 352
Off-chip DRAM Size: 4096 MB Channels: 1 Width: 64-bit Data Rate: 6400 MT/s
CPU 0 runs /home/sumon/secure_berti/GhostMinion/../../traces/spec/619.lbm_s-4268B.champsimtrace.xz
.xz
BTB has LRU replacement policy
ITLB has LRU replacement policy
DTLB has LRU replacement policy
STLB has LRU replacement policy
L1I has LRU replacement policy
L0D has LRU replacement policy
Berti version on_commit
History Sets: 8
History Ways: 16
BERTI Size: 16
BERTI Stride Size: 16
L1D has LRU replacement policy
L2C has LRU replacement policy
LLC has LRU replacement policy
Heartbeat CPU 0 instructions: 10000000 cycles: 3103974 heartbeat IPC: 3.22168 cumulative IPC: 3.22168 (Simulation time: 0 hr 0 min 36 sec) 
Heartbeat CPU 0 instructions: 20000003 cycles: 6204535 heartbeat IPC: 3.22522 cumulative IPC: 3.22345 (Simulation time: 0 hr 1 min 11 sec) 
Heartbeat CPU 0 instructions: 30000000 cycles: 9299417 heartbeat IPC: 3.23114 cumulative IPC: 3.22601 (Simulation time: 0 hr 1 min 47 sec) 
Heartbeat CPU 0 instructions: 40000000 cycles: 12403888 heartbeat IPC: 3.22116 cumulative IPC: 3.2248 (Simulation time: 0 hr 2 min 23 sec) 
Heartbeat CPU 0 instructions: 50000002 cycles: 15512654 heartbeat IPC: 3.21671 cumulative IPC: 3.22318 (Simulation time: 0 hr 2 min 59 sec) 

Warmup complete CPU 0 instructions: 50000002 cycles: 15512654 (Simulation time: 0 hr 2 min 59 sec) 

Heartbeat CPU 0 instructions: 60000000 cycles: 40979115 heartbeat IPC: 0.392673 cumulative IPC: 0.392673 (Simulation time: 0 hr 4 min 17 sec) 
Heartbeat CPU 0 instructions: 70000000 cycles: 65995379 heartbeat IPC: 0.39974 cumulative IPC: 0.396175 (Simulation time: 0 hr 5 min 34 sec) 
Heartbeat CPU 0 instructions: 80000001 cycles: 90714850 heartbeat IPC: 0.404539 cumulative IPC: 0.398924 (Simulation time: 0 hr 6 min 50 sec) 
Heartbeat CPU 0 instructions: 90000001 cycles: 115744679 heartbeat IPC: 0.399523 cumulative IPC: 0.399074 (Simulation time: 0 hr 8 min 8 sec) 
Heartbeat CPU 0 instructions: 100000003 cycles: 140432450 heartbeat IPC: 0.405059 cumulative IPC: 0.400257 (Simulation time: 0 hr 9 min 26 sec) 
Heartbeat CPU 0 instructions: 110000000 cycles: 165402828 heartbeat IPC: 0.400474 cumulative IPC: 0.400293 (Simulation time: 0 hr 10 min 43 sec) 
Heartbeat CPU 0 instructions: 120000001 cycles: 190833274 heartbeat IPC: 0.393229 cumulative IPC: 0.399268 (Simulation time: 0 hr 12 min 0 sec) 
Heartbeat CPU 0 instructions: 130000001 cycles: 215186069 heartbeat IPC: 0.41063 cumulative IPC: 0.400654 (Simulation time: 0 hr 13 min 16 sec) 
Heartbeat CPU 0 instructions: 140000003 cycles: 239998607 heartbeat IPC: 0.403022 cumulative IPC: 0.400916 (Simulation time: 0 hr 14 min 29 sec) 
Heartbeat CPU 0 instructions: 150000001 cycles: 265024179 heartbeat IPC: 0.399591 cumulative IPC: 0.400783 (Simulation time: 0 hr 15 min 41 sec) 
Heartbeat CPU 0 instructions: 160000003 cycles: 290621865 heartbeat IPC: 0.39066 cumulative IPC: 0.399841 (Simulation time: 0 hr 16 min 46 sec) 
Heartbeat CPU 0 instructions: 170000003 cycles: 315867860 heartbeat IPC: 0.396102 cumulative IPC: 0.399527 (Simulation time: 0 hr 17 min 46 sec) 
Heartbeat CPU 0 instructions: 180000003 cycles: 341470365 heartbeat IPC: 0.390587 cumulative IPC: 0.398825 (Simulation time: 0 hr 18 min 46 sec) 
Heartbeat CPU 0 instructions: 190000003 cycles: 367040931 heartbeat IPC: 0.391075 cumulative IPC: 0.398261 (Simulation time: 0 hr 19 min 45 sec) 
Heartbeat CPU 0 instructions: 200000002 cycles: 392445798 heartbeat IPC: 0.393625 cumulative IPC: 0.397949 (Simulation time: 0 hr 20 min 46 sec) 
Heartbeat CPU 0 instructions: 210000003 cycles: 418401520 heartbeat IPC: 0.385272 cumulative IPC: 0.397132 (Simulation time: 0 hr 21 min 45 sec) 
Heartbeat CPU 0 instructions: 220000000 cycles: 444183164 heartbeat IPC: 0.387873 cumulative IPC: 0.396575 (Simulation time: 0 hr 22 min 44 sec) 
Heartbeat CPU 0 instructions: 230000000 cycles: 469598315 heartbeat IPC: 0.393466 cumulative IPC: 0.396401 (Simulation time: 0 hr 23 min 41 sec) 
Heartbeat CPU 0 instructions: 240000001 cycles: 495271741 heartbeat IPC: 0.389508 cumulative IPC: 0.396032 (Simulation time: 0 hr 24 min 38 sec) 
Heartbeat CPU 0 instructions: 250000000 cycles: 519828687 heartbeat IPC: 0.407217 cumulative IPC: 0.396577 (Simulation time: 0 hr 25 min 34 sec) 
Finished CPU 0 instructions: 200000002 cycles: 504316038 cumulative IPC: 0.396577 (Simulation time: 0 hr 25 min 34 sec) 
 Instruction ID: 250000041

ChampSim completed all CPUs

Region of Interest Statistics

CPU 0 cumulative IPC: 0.396577 instructions: 200000002 cycles: 504316038
ITLB SPEC fills:          0  NON-SPEC fills:          0
ITLB Test counter :          0
ITLB Leapfrog:          0
ITLB MSHR merge:          0
ITLB TOTAL     ACCESS:   26784554  HIT:   26784554  MISS:          0  HIT %:        100  MISS %:          0   MPKI: 0
ITLB LOAD TRANSLATION NON_SPEC    ACCESS:   26784554  HIT:   26784554  MISS:          0  HIT %:        100  MISS %:          0   MPKI: 0
ITLB PREFETCH  REQUESTED:          0  ISSUED:          0  USEFUL:          0  USELESS:          0
ITLB USEFUL LOAD PREFETCHES:          0 PREFETCH ISSUED TO LOWER LEVEL:          0  ACCURACY: -nan
ITLB TIMELY PREFETCHES:          0 LATE PREFETCHES: 0 DROPPED PREFETCHES: 0
ITLB COMMIT LATE PREFETCHES: 0 MISSED OPPORTUNITY: 0 LATE IN PQ: 0 UNCOVERED: 0
ITLB COMMIT LATE MSHR PREFETCHES: 0
ITLB MPKI TOTAL: 0 MSHR LATE: 0 PQ LATE: 0 COMMIT LATE: 0 MISSED OPPORTUNITY: 0 UNCOVERED: 0
ITLB PREFETCHES SAME FILL-ORIGIN LEVEL: 0 DIFFERENT FILL-ORIGIN LEVEL: 0
ITLB AVERAGE MISS LATENCY: -nan cycles
ITLB AVERAGE MISS LATENCY LOAD: -nan cycles
ITLB AVERAGE MISS LATENCY PREFETCH: -nan cycles
ITLB AVERAGE MSHR OCCUPANCY: 0
ITLB MSHR FULL: 0
ITLB RQ	ACCESS:   34562110	FORWARD:          0	MERGED:    7777556	TO_CACHE:   26784554

DTLB SPEC fills:          0  NON-SPEC fills:          0
DTLB Test counter :          0
DTLB Leapfrog:          0
DTLB MSHR merge:          0
DTLB TOTAL     ACCESS:   46562155  HIT:   46285628  MISS:     276527  HIT %:    99.4061  MISS %:   0.593888   MPKI: 1.38263
DTLB LOAD TRANSLATION NON_SPEC    ACCESS:   46562155  HIT:   46285628  MISS:     276527  HIT %:    99.4061  MISS %:   0.593888   MPKI: 1.38263
DTLB PREFETCH  REQUESTED:          0  ISSUED:          0  USEFUL:          0  USELESS:          0
DTLB USEFUL LOAD PREFETCHES:          0 PREFETCH ISSUED TO LOWER LEVEL:          0  ACCURACY: -nan
DTLB TIMELY PREFETCHES:          0 LATE PREFETCHES: 0 DROPPED PREFETCHES: 0
DTLB COMMIT LATE PREFETCHES: 0 MISSED OPPORTUNITY: 0 LATE IN PQ: 0 UNCOVERED: 0
DTLB COMMIT LATE MSHR PREFETCHES: 0
DTLB MPKI TOTAL: 0 MSHR LATE: 0 PQ LATE: 0 COMMIT LATE: 0 MISSED OPPORTUNITY: 0 UNCOVERED: 0
DTLB PREFETCHES SAME FILL-ORIGIN LEVEL: 0 DIFFERENT FILL-ORIGIN LEVEL: 0
DTLB AVERAGE MISS LATENCY: 135.345 cycles
DTLB AVERAGE MISS LATENCY LOAD: -nan cycles
DTLB AVERAGE MISS LATENCY PREFETCH: -nan cycles
DTLB AVERAGE MSHR OCCUPANCY: 0.10503
DTLB MSHR FULL: 0
DTLB RQ	ACCESS:   67032651	FORWARD:          0	MERGED:   20271511	TO_CACHE:   46761140

STLB SPEC fills:          0  NON-SPEC fills:          0
STLB Test counter :          0
STLB Leapfrog:          0
STLB MSHR merge:          0
STLB TOTAL     ACCESS:    1696182  HIT:    1546158  MISS:     150024  HIT %:    91.1552  MISS %:    8.84481   MPKI: 0.75012
STLB LOAD TRANSLATION NON_SPEC    ACCESS:     276527  HIT:     126503  MISS:     150024  HIT %:    45.7471  MISS %:    54.2529   MPKI: 0.75012
STLB TRANSLATION FROM L1D PREFETCHER NON_SPEC    ACCESS:    1419655  HIT:    1419655  MISS:          0  HIT %:        100  MISS %:          0   MPKI: 0
STLB PREFETCH  REQUESTED:          0  ISSUED:          0  USEFUL:          0  USELESS:          0
STLB USEFUL LOAD PREFETCHES:          0 PREFETCH ISSUED TO LOWER LEVEL:          0  ACCURACY: -nan
STLB TIMELY PREFETCHES:          0 LATE PREFETCHES: 15473 DROPPED PREFETCHES: 574466
STLB COMMIT LATE PREFETCHES: 0 MISSED OPPORTUNITY: 0 LATE IN PQ: 0 UNCOVERED: 0
STLB COMMIT LATE MSHR PREFETCHES: 0
STLB MPKI TOTAL: 0 MSHR LATE: 0.077365 PQ LATE: 0 COMMIT LATE: 0 MISSED OPPORTUNITY: 0 UNCOVERED: 0
STLB PREFETCHES SAME FILL-ORIGIN LEVEL: 0 DIFFERENT FILL-ORIGIN LEVEL: 0
STLB AVERAGE MISS LATENCY: 232.232 cycles
STLB AVERAGE MISS LATENCY LOAD: -nan cycles
STLB AVERAGE MISS LATENCY PREFETCH: -nan cycles
STLB AVERAGE MSHR OCCUPANCY: 0.358477
STLB MSHR FULL: 0
STLB RQ	ACCESS:   14195152	FORWARD:          0	MERGED:   11727054	TO_CACHE:    2468098

STLB Hit, L1D data hit: 0
STLB Hit, L2C data hit: 0
STLB Hit, LLC data hit: 0
STLB Hit, LLC data miss: 0
STLB STLB hints to L2: 0
L0D SPEC fills:   18730145  NON-SPEC fills:          0
L0D TimeGuard Request with older TS:     200904 Restricted eviction:      19988 read:    1009401
L0D Test counter :          0
L0D Leapfrog:          0
L0D MSHR merge:    3000094
L0D TOTAL     ACCESS:   27064656  HIT:    6412736  MISS:   20651920  HIT %:    23.6941  MISS %:    76.3059   MPKI: 103.26
L0D LOAD      TOTAL       ACCESS:   27064656  HIT:    6412736  MISS:   20651920  HIT %:    23.6941  MISS %:    76.3059   MPKI: 103.26
L0D LOAD      NON_SPEC    ACCESS:    2890656  HIT:     988869  MISS:    1901787  HIT %:    34.2092  MISS %:    65.7908   MPKI: 9.50893
L0D LOAD      SPEC        ACCESS:   24174000  HIT:    5423867  MISS:   18750133  HIT %:    22.4368  MISS %:    77.5632   MPKI: 93.7507
L0D PREFETCH  REQUESTED:          0  ISSUED:          0  USEFUL:          0  USELESS:          0
L0D USEFUL LOAD PREFETCHES:          0 PREFETCH ISSUED TO LOWER LEVEL:          0  ACCURACY: -nan
L0D TIMELY PREFETCHES:          0 LATE PREFETCHES: 0 DROPPED PREFETCHES: 0
L0D COMMIT LATE PREFETCHES: 0 MISSED OPPORTUNITY: 0 LATE IN PQ: 0 UNCOVERED: 0
L0D COMMIT LATE MSHR PREFETCHES: 0
L0D MPKI TOTAL: 118.26 MSHR LATE: 0 PQ LATE: 0 COMMIT LATE: 0 MISSED OPPORTUNITY: 0 UNCOVERED: 0
L0D PREFETCHES SAME FILL-ORIGIN LEVEL: 0 DIFFERENT FILL-ORIGIN LEVEL: 0
L0D AVERAGE MISS LATENCY: 52.2785 cycles
L0D AVERAGE MISS LATENCY LOAD: 52.2785 cycles
L0D AVERAGE MISS LATENCY PREFETCH: -nan cycles
L0D AVERAGE MSHR OCCUPANCY: 2.07125
L0D MSHR FULL: 0.155934
L0D RQ	ACCESS:   50147345	FORWARD:          0	MERGED:   20082598	TO_CACHE:   30064747
L0D WQ	ACCESS:   36967904	FORWARD:          0	MERGED:          0	TO_CACHE:   36967904

L1D SPEC fills:          0  NON-SPEC fills:      87470
L1D Test counter :     487333
L1D Leapfrog:          0
L1D MSHR merge:      90390
L1D TOTAL     ACCESS:   64799258  HIT:   47447613  MISS:   17351645  HIT %:    73.2225  MISS %:    26.7775   MPKI: 86.7582
L1D LOAD      TOTAL       ACCESS:   20631963  HIT:   19140444  MISS:    1491519  HIT %:    92.7708  MISS %:    7.22917   MPKI: 7.45759
L1D LOAD      NON_SPEC    ACCESS:    1895591  HIT:    1808121  MISS:      87470  HIT %:    95.3856  MISS %:    4.61439   MPKI: 0.43735
L1D LOAD      SPEC        ACCESS:   18736372  HIT:   17332323  MISS:    1404049  HIT %:    92.5063  MISS %:    7.49371   MPKI: 7.02024
L1D RFO       NON_SPEC    ACCESS:   36094709  HIT:   22742468  MISS:   13352241  HIT %:    63.0078  MISS %:    36.9922   MPKI: 66.7612
L1D PREFETCH  NON_SPEC    ACCESS:    5093007  HIT:    4056498  MISS:    1036509  HIT %:    79.6484  MISS %:    20.3516   MPKI: 5.18254
L1D COMMIT LOAD NON_SPEC    ACCESS:    1550095  HIT:    1298302  MISS:     251793  HIT %:    83.7563  MISS %:    16.2437   MPKI: 1.25896
L1D COMMIT WRITE NON_SPEC    ACCESS:    1429484  HIT:     209901  MISS:    1219583  HIT %:    14.6837  MISS %:    85.3163   MPKI: 6.09791
L1D PREFETCH  REQUESTED:   36919830  ISSUED:   16744207  USEFUL:    1018725  USELESS:      17807
L1D USEFUL LOAD PREFETCHES:    1018725 PREFETCH ISSUED TO LOWER LEVEL:    7028571  ACCURACY: 14.4941
L1D TIMELY PREFETCHES:    1018725 LATE PREFETCHES: 88699 DROPPED PREFETCHES: 2484795
L1D COMMIT LATE PREFETCHES: 0 MISSED OPPORTUNITY: 0 LATE IN PQ: 0 UNCOVERED: 0
L1D COMMIT LATE MSHR PREFETCHES: 0
L1D MPKI TOTAL: 7.55737 MSHR LATE: 0.443495 PQ LATE: 0 COMMIT LATE: 0 MISSED OPPORTUNITY: 0 UNCOVERED: 0
L1D PREFETCHES SAME FILL-ORIGIN LEVEL: 1125447 DIFFERENT FILL-ORIGIN LEVEL: 5903124
L1D AVERAGE MISS LATENCY: 276.646 cycles
L1D AVERAGE MISS LATENCY LOAD: 274.737 cycles
L1D AVERAGE MISS LATENCY PREFETCH: 164.471 cycles
L1D AVERAGE MSHR OCCUPANCY: 15.4922
L1D MSHR FULL: 0.93245
L1D RQ	ACCESS:   29027743	FORWARD:          0	MERGED:    6821135	TO_CACHE:   22206586
L1D WQ	ACCESS:   38193170	FORWARD:         22	MERGED:     424323	TO_CACHE:   37768847
L1D PQ	ACCESS:   16744207	FORWARD:          0	MERGED:    2825582	TO_CACHE:   13918625

L1D UNIQUE REGIONS ACCESSED: 0
L1D REGIONS CONFLICTS: 0
L1D Cross Page Prefetch Requests: 5012866
L1D Same Page Prefetch Requests: 17878109
L1D ROI Sum of L1D PQ occupancy: 2903922056
L1D PREFETCHES PUSHED FROM L2C: 0
L1I SPEC fills:          0  NON-SPEC fills:          0
L1I Test counter :          0
L1I Leapfrog:          0
L1I MSHR merge:          0
L1I TOTAL     ACCESS:   34562108  HIT:   34562108  MISS:          0  HIT %:        100  MISS %:          0   MPKI: 0
L1I LOAD      TOTAL       ACCESS:   34562108  HIT:   34562108  MISS:          0  HIT %:        100  MISS %:          0   MPKI: 0
L1I LOAD      NON_SPEC    ACCESS:   34562108  HIT:   34562108  MISS:          0  HIT %:        100  MISS %:          0   MPKI: 0
L1I PREFETCH  REQUESTED:          0  ISSUED:          0  USEFUL:          0  USELESS:          0
L1I USEFUL LOAD PREFETCHES:          0 PREFETCH ISSUED TO LOWER LEVEL:          0  ACCURACY: -nan
L1I TIMELY PREFETCHES:          0 LATE PREFETCHES: 0 DROPPED PREFETCHES: 0
L1I COMMIT LATE PREFETCHES: 0 MISSED OPPORTUNITY: 0 LATE IN PQ: 0 UNCOVERED: 0
L1I COMMIT LATE MSHR PREFETCHES: 0
L1I MPKI TOTAL: 0 MSHR LATE: 0 PQ LATE: 0 COMMIT LATE: 0 MISSED OPPORTUNITY: 0 UNCOVERED: 0
L1I PREFETCHES SAME FILL-ORIGIN LEVEL: 0 DIFFERENT FILL-ORIGIN LEVEL: 0
L1I AVERAGE MISS LATENCY: -nan cycles
L1I AVERAGE MISS LATENCY LOAD: -nan cycles
L1I AVERAGE MISS LATENCY PREFETCH: -nan cycles
L1I AVERAGE MSHR OCCUPANCY: 0
L1I MSHR FULL: 0
L1I RQ	ACCESS:   49861966	FORWARD:          0	MERGED:   15299856	TO_CACHE:   34562110

BTB SPEC fills:          0  NON-SPEC fills:          0
BTB Test counter :          0
BTB Leapfrog:          0
BTB MSHR merge:          0
BTB TOTAL     ACCESS:    3614432  HIT:    3614426  MISS:          6  HIT %:    99.9998  MISS %: 0.000166001   MPKI: 3e-05
BTB BRANCH_DIRECT_JUMP	ACCESS:     592790  HIT:     592789  MISS:          1
BTB BRANCH_INDIRECT	ACCESS:          0  HIT:          0  MISS:          0
BTB BRANCH_CONDITIONAL	ACCESS:    3021642  HIT:    3021637  MISS:          5
BTB BRANCH_DIRECT_CALL	ACCESS:          0  HIT:          0  MISS:          0
BTB BRANCH_INDIRECT_CALL	ACCESS:          0  HIT:          0  MISS:          0
BTB BRANCH_RETURN	ACCESS:          0  HIT:          0  MISS:          0
BTB BRANCH_OTHER ACCESS:          0  HIT:          0  MISS:          0

L2C SPEC fills:          0  NON-SPEC fills:      13565
L2C Test counter :     480296
L2C Leapfrog:          0
L2C MSHR merge:      49621
L2C TOTAL     ACCESS:   39200415  HIT:   29104686  MISS:   10095729  HIT %:    74.2459  MISS %:    25.7541   MPKI: 50.4786
L2C LOAD      TOTAL       ACCESS:    1420961  HIT:    1018941  MISS:     402020  HIT %:    71.7079  MISS %:    28.2921   MPKI: 2.0101
L2C LOAD      NON_SPEC    ACCESS:      86279  HIT:      72714  MISS:      13565  HIT %:    84.2778  MISS %:    15.7222   MPKI: 0.067825
L2C LOAD      SPEC        ACCESS:    1334682  HIT:     946227  MISS:     388455  HIT %:    70.8953  MISS %:    29.1047   MPKI: 1.94227
L2C RFO       NON_SPEC    ACCESS:   13352206  HIT:    6068418  MISS:    7283788  HIT %:    45.4488  MISS %:    54.5512   MPKI: 36.4189
L2C PREFETCH  NON_SPEC    ACCESS:    6655599  HIT:    4592410  MISS:    2063189  HIT %:    69.0007  MISS %:    30.9993   MPKI: 10.3159
L2C WRITEBACK NON_SPEC    ACCESS:   13352237  HIT:   13351713  MISS:        524  HIT %:    99.9961  MISS %: 0.00392444   MPKI: 0.00262
L2C CLEAN_EVICTION NON_SPEC    ACCESS:     487329  HIT:     201583  MISS:     285746  HIT %:    41.3649  MISS %:    58.6351   MPKI: 1.42873
L2C COMMIT LOAD NON_SPEC    ACCESS:     233528  HIT:     192208  MISS:      41320  HIT %:    82.3062  MISS %:    17.6938   MPKI: 0.2066
L2C LOAD TRANSLATION NON_SPEC    ACCESS:     749974  HIT:     735807  MISS:      14167  HIT %:     98.111  MISS %:      1.889   MPKI: 0.070835
L2C TRANSLATION FROM L1D PREFETCHER NON_SPEC    ACCESS:    2948581  HIT:    2943606  MISS:       4975  HIT %:    99.8313  MISS %:   0.168725   MPKI: 0.024875
L2C PREFETCH  REQUESTED:          0  ISSUED:          0  USEFUL:     963302  USELESS:    1105232
L2C USEFUL LOAD PREFETCHES:     963302 PREFETCH ISSUED TO LOWER LEVEL:    2114241  ACCURACY: 45.5625
L2C TIMELY PREFETCHES:     963302 LATE PREFETCHES: 51052 DROPPED PREFETCHES: 0
L2C COMMIT LATE PREFETCHES: 0 MISSED OPPORTUNITY: 0 LATE IN PQ: 0 UNCOVERED: 0
L2C COMMIT LATE MSHR PREFETCHES: 0
L2C MPKI TOTAL: 2.0101 MSHR LATE: 0.25526 PQ LATE: 0 COMMIT LATE: 0 MISSED OPPORTUNITY: 0 UNCOVERED: 0
L2C PREFETCHES SAME FILL-ORIGIN LEVEL: 1667877 DIFFERENT FILL-ORIGIN LEVEL: 0
L2C AVERAGE MISS LATENCY: 518.619 cycles
L2C AVERAGE MISS LATENCY LOAD: 466.894 cycles
L2C AVERAGE MISS LATENCY PREFETCH: 497.7 cycles
L2C AVERAGE MSHR OCCUPANCY: 12.8044
L2C MSHR FULL: 0.0245268
L2C RQ	ACCESS:   18705420	FORWARD:          0	MERGED:          0	TO_CACHE:   18705261
L2C WQ	ACCESS:   13839570	FORWARD:        159	MERGED:          4	TO_CACHE:   13839566
L2C PQ	ACCESS:    7020703	FORWARD:          0	MERGED:       2063	TO_CACHE:    7018640

L2C Instructions Evicting Data 0
L2C Translations Evicting Data 19078
L2C Data Evicting Data 9383424
L2C Instructions Evicting Instructions 0
L2C Translations Evicting Instructions 0
L2C Data Evicting Instructions 0
L2C Instructions Evicting Translations 0
L2C Translations Evicting Translations 64
L2C Data Evicting Translations 18438
L2C Dense regions hint from L2: 0
PSCL5 SPEC fills:          0  NON-SPEC fills:          0
PSCL5 Test counter :          0
PSCL5 Leapfrog:          0
PSCL5 MSHR merge:          0
PSCL5 TOTAL     ACCESS:          0  HIT:          0  MISS:          0  HIT %:       -nan  MISS %:       -nan   MPKI: 0
PSCL5 PREFETCH  REQUESTED:          0  ISSUED:          0  USEFUL:          0  USELESS:          0
PSCL5 USEFUL LOAD PREFETCHES:          0 PREFETCH ISSUED TO LOWER LEVEL:          0  ACCURACY: -nan
PSCL5 TIMELY PREFETCHES:          0 LATE PREFETCHES: 0 DROPPED PREFETCHES: 0
PSCL5 COMMIT LATE PREFETCHES: 0 MISSED OPPORTUNITY: 0 LATE IN PQ: 0 UNCOVERED: 0
PSCL5 COMMIT LATE MSHR PREFETCHES: 0
PSCL5 MPKI TOTAL: 0 MSHR LATE: 0 PQ LATE: 0 COMMIT LATE: 0 MISSED OPPORTUNITY: 0 UNCOVERED: 0
PSCL5 PREFETCHES SAME FILL-ORIGIN LEVEL: 0 DIFFERENT FILL-ORIGIN LEVEL: 0

PSCL4 SPEC fills:          0  NON-SPEC fills:          0
PSCL4 Test counter :          0
PSCL4 Leapfrog:          0
PSCL4 MSHR merge:          0
PSCL4 TOTAL     ACCESS:          0  HIT:          0  MISS:          0  HIT %:       -nan  MISS %:       -nan   MPKI: 0
PSCL4 PREFETCH  REQUESTED:          0  ISSUED:          0  USEFUL:          0  USELESS:          0
PSCL4 USEFUL LOAD PREFETCHES:          0 PREFETCH ISSUED TO LOWER LEVEL:          0  ACCURACY: -nan
PSCL4 TIMELY PREFETCHES:          0 LATE PREFETCHES: 0 DROPPED PREFETCHES: 0
PSCL4 COMMIT LATE PREFETCHES: 0 MISSED OPPORTUNITY: 0 LATE IN PQ: 0 UNCOVERED: 0
PSCL4 COMMIT LATE MSHR PREFETCHES: 0
PSCL4 MPKI TOTAL: 0 MSHR LATE: 0 PQ LATE: 0 COMMIT LATE: 0 MISSED OPPORTUNITY: 0 UNCOVERED: 0
PSCL4 PREFETCHES SAME FILL-ORIGIN LEVEL: 0 DIFFERENT FILL-ORIGIN LEVEL: 0

PSCL3 SPEC fills:          0  NON-SPEC fills:          0
PSCL3 Test counter :          0
PSCL3 Leapfrog:          0
PSCL3 MSHR merge:          0
PSCL3 TOTAL     ACCESS:          0  HIT:          0  MISS:          0  HIT %:       -nan  MISS %:       -nan   MPKI: 0
PSCL3 PREFETCH  REQUESTED:          0  ISSUED:          0  USEFUL:          0  USELESS:          0
PSCL3 USEFUL LOAD PREFETCHES:          0 PREFETCH ISSUED TO LOWER LEVEL:          0  ACCURACY: -nan
PSCL3 TIMELY PREFETCHES:          0 LATE PREFETCHES: 0 DROPPED PREFETCHES: 0
PSCL3 COMMIT LATE PREFETCHES: 0 MISSED OPPORTUNITY: 0 LATE IN PQ: 0 UNCOVERED: 0
PSCL3 COMMIT LATE MSHR PREFETCHES: 0
PSCL3 MPKI TOTAL: 0 MSHR LATE: 0 PQ LATE: 0 COMMIT LATE: 0 MISSED OPPORTUNITY: 0 UNCOVERED: 0
PSCL3 PREFETCHES SAME FILL-ORIGIN LEVEL: 0 DIFFERENT FILL-ORIGIN LEVEL: 0

PSCL2 SPEC fills:          0  NON-SPEC fills:          0
PSCL2 Test counter :          0
PSCL2 Leapfrog:          0
PSCL2 MSHR merge:          0
PSCL2 TOTAL     ACCESS:          0  HIT:          0  MISS:          0  HIT %:       -nan  MISS %:       -nan   MPKI: 0
PSCL2 PREFETCH  REQUESTED:          0  ISSUED:          0  USEFUL:          0  USELESS:          0
PSCL2 USEFUL LOAD PREFETCHES:          0 PREFETCH ISSUED TO LOWER LEVEL:          0  ACCURACY: -nan
PSCL2 TIMELY PREFETCHES:          0 LATE PREFETCHES: 0 DROPPED PREFETCHES: 0
PSCL2 COMMIT LATE PREFETCHES: 0 MISSED OPPORTUNITY: 0 LATE IN PQ: 0 UNCOVERED: 0
PSCL2 COMMIT LATE MSHR PREFETCHES: 0
PSCL2 MPKI TOTAL: 0 MSHR LATE: 0 PQ LATE: 0 COMMIT LATE: 0 MISSED OPPORTUNITY: 0 UNCOVERED: 0
PSCL2 PREFETCHES SAME FILL-ORIGIN LEVEL: 0 DIFFERENT FILL-ORIGIN LEVEL: 0

LLC SPEC fills:          0  NON-SPEC fills:      12383
LLC Test counter :     476807
LLC Leapfrog:          0
LLC MSHR merge:          0
LLC TOTAL     ACCESS:   17575504  HIT:    7639657  MISS:    9935847  HIT %:    43.4676  MISS %:    56.5324   MPKI: 49.6792
LLC LOAD      TOTAL       ACCESS:     352395  HIT:       2500  MISS:     349895  HIT %:   0.709431  MISS %:    99.2906   MPKI: 1.74947
LLC LOAD      NON_SPEC    ACCESS:      12431  HIT:         48  MISS:      12383  HIT %:   0.386131  MISS %:    99.6139   MPKI: 0.061915
LLC LOAD      SPEC        ACCESS:     339964  HIT:       2452  MISS:     337512  HIT %:   0.721253  MISS %:    99.2787   MPKI: 1.68756
LLC RFO       NON_SPEC    ACCESS:    7283760  HIT:     105690  MISS:    7178070  HIT %:    1.45104  MISS %:     98.549   MPKI: 35.8903
LLC PREFETCH  NON_SPEC    ACCESS:    2114241  HIT:       6760  MISS:    2107481  HIT %:   0.319736  MISS %:    99.6803   MPKI: 10.5374
LLC WRITEBACK NON_SPEC    ACCESS:    7285781  HIT:    7285364  MISS:        417  HIT %:    99.9943  MISS %: 0.00572348   MPKI: 0.002085
LLC CLEAN_EVICTION NON_SPEC    ACCESS:     480296  HIT:     234254  MISS:     246042  HIT %:    48.7728  MISS %:    51.2272   MPKI: 1.23021
LLC COMMIT LOAD NON_SPEC    ACCESS:      39889  HIT:       5006  MISS:      34883  HIT %:    12.5498  MISS %:    87.4502   MPKI: 0.174415
LLC LOAD TRANSLATION NON_SPEC    ACCESS:      14167  HIT:          0  MISS:      14167  HIT %:          0  MISS %:        100   MPKI: 0.070835
LLC TRANSLATION FROM L1D PREFETCHER NON_SPEC    ACCESS:       4975  HIT:         83  MISS:       4892  HIT %:    1.66834  MISS %:    98.3317   MPKI: 0.02446
LLC PREFETCH  REQUESTED:          0  ISSUED:          0  USEFUL:       5320  USELESS:    2102917
LLC USEFUL LOAD PREFETCHES:       5320 PREFETCH ISSUED TO LOWER LEVEL:    2107481  ACCURACY: 0.252434
LLC TIMELY PREFETCHES:       5320 LATE PREFETCHES: 0 DROPPED PREFETCHES: 0
LLC COMMIT LATE PREFETCHES: 0 MISSED OPPORTUNITY: 0 LATE IN PQ: 0 UNCOVERED: 0
LLC COMMIT LATE MSHR PREFETCHES: 0
LLC MPKI TOTAL: 1.74947 MSHR LATE: 0 PQ LATE: 0 COMMIT LATE: 0 MISSED OPPORTUNITY: 0 UNCOVERED: 0
LLC PREFETCHES SAME FILL-ORIGIN LEVEL: 0 DIFFERENT FILL-ORIGIN LEVEL: 0
LLC AVERAGE MISS LATENCY: 498.623 cycles
LLC AVERAGE MISS LATENCY LOAD: 464.941 cycles
LLC AVERAGE MISS LATENCY PREFETCH: 474.707 cycles
LLC AVERAGE MSHR OCCUPANCY: 11.6461
LLC MSHR FULL: 0
LLC RQ	ACCESS:    7695228	FORWARD:          0	MERGED:          0	TO_CACHE:    7695196
LLC WQ	ACCESS:    7766078	FORWARD:         32	MERGED:          0	TO_CACHE:    7766078
LLC PQ	ACCESS:    2114241	FORWARD:          0	MERGED:          0	TO_CACHE:    2114241

LLC Dense regions hint to LLC: 0

RAW hits: 2101850
Loads Generated: 52249195
Loads sent to L1D: 50147345
Stores Generated: 36967891
Stores sent to L1D: 36967904
Major fault: 0 Minor fault: 96698
Allocated PAGES: 96698
Total Load insts: 61671942
Total Non-spec loads: 3775713
Percentage of speculative loads: 93.8777

LeapFrogging counter: 26316285
Commit hits: 18529287 miss: 28238785
Commit hit %: 39.6195 miss %: 60.3805
Commits not translated: 0
Loads retired: 1491519
Stores retired: 36967904
Cache fills: 1491519
L1D response latency: 274.737 cycles
Load retirement latency: 949.385 cycles
OOO test counter: 0
Discarded buffer inserts: 18529287 hits: 303559 hit %: 1.63827
Filter prediction accuracy: 0.994608
ALL MISSES SIZE: 66237
LATENCY_FILL: 180.385 1488505
LATENCY_FILL_ROB: 369.67 1449564
test counter pref: 15463872
Max ROB Extended: 9

DRAM Statistics
 CHANNEL 0
 RQ ROW_BUFFER_HIT:    1187661  ROW_BUFFER_MISS:    8501727
 DBUS_CONGESTED:         42
 WQ ROW_BUFFER_HIT:    1704602  ROW_BUFFER_MISS:    5955856  FULL:       2844

 AVG_CONGESTED_CYCLE: 4
 All warmup complete: 2
Channel 0 Bank busy for read cycles: 0
Channel 0 Bank busy for write cycles: 0
Channel 0
Rank 0
0banks busy for read cycles: 76307375
0banks busy for write cycles: 46200
1banks busy for read cycles: 10256225
1banks busy for write cycles: 4753273
2banks busy for read cycles: 11498933
2banks busy for write cycles: 3708841
3banks busy for read cycles: 17636695
3banks busy for write cycles: 3347301
4banks busy for read cycles: 23240478
4banks busy for write cycles: 3253959
5banks busy for read cycles: 40949965
5banks busy for write cycles: 3403847
6banks busy for read cycles: 50467326
6banks busy for write cycles: 3960960
7banks busy for read cycles: 57058197
7banks busy for write cycles: 11986694
8banks busy for read cycles: 50333241
8banks busy for write cycles: 132106529

CPU 0 Branch Prediction Accuracy: 97.0917% MPKI: 0.525585 Average ROB Occupancy at Mispredict: 166.798
Branch types
NOT_BRANCH: 196385227 98.1926%
BRANCH_DIRECT_JUMP: 592790 0.296395%
BRANCH_INDIRECT: 0 0%
BRANCH_CONDITIONAL: 3021642 1.51082%
BRANCH_DIRECT_CALL: 0 0%
BRANCH_INDIRECT_CALL: 0 0%
BRANCH_RETURN: 0 0%
BRANCH_OTHER: 0 0%

DRAM PAGES: 1048576
Allocated PAGES: 96698
