
*** ChampSim Multicore Out-of-Order Simulator ***

Warmup Instructions: 50000000
Simulation Instructions: 200000000
Number of CPUs: 1
LLC sets: 2048
LLC ways: 16
L0D sets: 16
L0D ways: 2
ROB size: 352
LQ size: 128
SQ size: 72
Secure Berti: ON
Berti: ON
Berti Fill: ON
On commit prefetching: OFF
Hit-based filter: ON
Time-guarding: ON
Free-slotting: ON
Leap-frogging: ON
Train prefetcher on L0D bypass: OFF
No translation penalty for prefetchers: OFF
Prefetch to L0D only: OFF
Prefetch to L1D only: OFF
Clean evictions: ON
Commit loads: ON
Commit write: ON
Fill commit loads to L2C, LLC: ON
DRAM IO FREQUENCY: 6400
ROB SIZE: 352
Off-chip DRAM Size: 4096 MB Channels: 1 Width: 64-bit Data Rate: 6400 MT/s
CPU 0 runs /home/sumon/secure_berti/GhostMinion/../../traces/spec/620.omnetpp_s-141B.champsimtrace.xz
.xz
BTB has LRU replacement policy
ITLB has LRU replacement policy
DTLB has LRU replacement policy
STLB has LRU replacement policy
L1I has LRU replacement policy
L0D has LRU replacement policy
Berti version on_commit
History Sets: 8
History Ways: 16
BERTI Size: 16
BERTI Stride Size: 16
L1D has LRU replacement policy
L2C has LRU replacement policy
LLC has LRU replacement policy
Heartbeat CPU 0 instructions: 10000000 cycles: 7997887 heartbeat IPC: 1.25033 cumulative IPC: 1.25033 (Simulation time: 0 hr 0 min 51 sec) 
Heartbeat CPU 0 instructions: 20000001 cycles: 16041981 heartbeat IPC: 1.24315 cumulative IPC: 1.24673 (Simulation time: 0 hr 1 min 40 sec) 
Heartbeat CPU 0 instructions: 30000000 cycles: 24102784 heartbeat IPC: 1.24057 cumulative IPC: 1.24467 (Simulation time: 0 hr 2 min 30 sec) 
Heartbeat CPU 0 instructions: 40000000 cycles: 32131584 heartbeat IPC: 1.24552 cumulative IPC: 1.24488 (Simulation time: 0 hr 3 min 21 sec) 
Heartbeat CPU 0 instructions: 50000003 cycles: 40207369 heartbeat IPC: 1.23827 cumulative IPC: 1.24355 (Simulation time: 0 hr 4 min 13 sec) 

Warmup complete CPU 0 instructions: 50000003 cycles: 40207369 (Simulation time: 0 hr 4 min 13 sec) 

Heartbeat CPU 0 instructions: 60000001 cycles: 82419319 heartbeat IPC: 0.2369 cumulative IPC: 0.2369 (Simulation time: 0 hr 5 min 14 sec) 
Heartbeat CPU 0 instructions: 70000000 cycles: 125089530 heartbeat IPC: 0.234356 cumulative IPC: 0.235621 (Simulation time: 0 hr 6 min 16 sec) 
Heartbeat CPU 0 instructions: 80000003 cycles: 167463546 heartbeat IPC: 0.235994 cumulative IPC: 0.235745 (Simulation time: 0 hr 7 min 18 sec) 
Heartbeat CPU 0 instructions: 90000003 cycles: 209941973 heartbeat IPC: 0.235414 cumulative IPC: 0.235662 (Simulation time: 0 hr 8 min 21 sec) 
Heartbeat CPU 0 instructions: 100000003 cycles: 252015954 heartbeat IPC: 0.237677 cumulative IPC: 0.236062 (Simulation time: 0 hr 9 min 23 sec) 
Heartbeat CPU 0 instructions: 110000000 cycles: 294348403 heartbeat IPC: 0.236225 cumulative IPC: 0.236089 (Simulation time: 0 hr 10 min 25 sec) 
Heartbeat CPU 0 instructions: 120000000 cycles: 336465491 heartbeat IPC: 0.237433 cumulative IPC: 0.23628 (Simulation time: 0 hr 11 min 26 sec) 
Heartbeat CPU 0 instructions: 130000000 cycles: 378819676 heartbeat IPC: 0.236104 cumulative IPC: 0.236258 (Simulation time: 0 hr 12 min 29 sec) 
Heartbeat CPU 0 instructions: 140000000 cycles: 421069875 heartbeat IPC: 0.236685 cumulative IPC: 0.236306 (Simulation time: 0 hr 13 min 31 sec) 
Heartbeat CPU 0 instructions: 150000003 cycles: 463739164 heartbeat IPC: 0.234361 cumulative IPC: 0.23611 (Simulation time: 0 hr 14 min 32 sec) 
Heartbeat CPU 0 instructions: 160000001 cycles: 506071454 heartbeat IPC: 0.236226 cumulative IPC: 0.23612 (Simulation time: 0 hr 15 min 31 sec) 
Heartbeat CPU 0 instructions: 170000000 cycles: 548113393 heartbeat IPC: 0.237858 cumulative IPC: 0.236264 (Simulation time: 0 hr 16 min 27 sec) 
Heartbeat CPU 0 instructions: 180000000 cycles: 590215416 heartbeat IPC: 0.237518 cumulative IPC: 0.23636 (Simulation time: 0 hr 17 min 19 sec) 
Heartbeat CPU 0 instructions: 190000000 cycles: 632152759 heartbeat IPC: 0.238451 cumulative IPC: 0.236508 (Simulation time: 0 hr 18 min 9 sec) 
Heartbeat CPU 0 instructions: 200000000 cycles: 675049642 heartbeat IPC: 0.233117 cumulative IPC: 0.236279 (Simulation time: 0 hr 18 min 58 sec) 
Heartbeat CPU 0 instructions: 210000000 cycles: 717488619 heartbeat IPC: 0.235632 cumulative IPC: 0.236239 (Simulation time: 0 hr 19 min 46 sec) 
Heartbeat CPU 0 instructions: 220000000 cycles: 760172626 heartbeat IPC: 0.23428 cumulative IPC: 0.236123 (Simulation time: 0 hr 20 min 34 sec) 
Heartbeat CPU 0 instructions: 230000001 cycles: 802564381 heartbeat IPC: 0.235895 cumulative IPC: 0.23611 (Simulation time: 0 hr 21 min 21 sec) 
Heartbeat CPU 0 instructions: 240000001 cycles: 845000822 heartbeat IPC: 0.235647 cumulative IPC: 0.236085 (Simulation time: 0 hr 22 min 8 sec) 
Heartbeat CPU 0 instructions: 250000000 cycles: 886617241 heartbeat IPC: 0.24029 cumulative IPC: 0.236292 (Simulation time: 0 hr 22 min 53 sec) 
Finished CPU 0 instructions: 200000001 cycles: 846409873 cumulative IPC: 0.236292 (Simulation time: 0 hr 22 min 53 sec) 
 Instruction ID: 250000041

ChampSim completed all CPUs

Region of Interest Statistics

CPU 0 cumulative IPC: 0.236292 instructions: 200000001 cycles: 846409873
ITLB SPEC fills:          0  NON-SPEC fills:          0
ITLB Test counter :          0
ITLB Leapfrog:          0
ITLB MSHR merge:          0
ITLB TOTAL     ACCESS:   33302217  HIT:   32990113  MISS:     312104  HIT %:    99.0628  MISS %:   0.937187   MPKI: 1.56052
ITLB LOAD TRANSLATION NON_SPEC    ACCESS:   33302217  HIT:   32990113  MISS:     312104  HIT %:    99.0628  MISS %:   0.937187   MPKI: 1.56052
ITLB PREFETCH  REQUESTED:          0  ISSUED:          0  USEFUL:          0  USELESS:          0
ITLB USEFUL LOAD PREFETCHES:          0 PREFETCH ISSUED TO LOWER LEVEL:          0  ACCURACY: -nan
ITLB TIMELY PREFETCHES:          0 LATE PREFETCHES: 0 DROPPED PREFETCHES: 0
ITLB COMMIT LATE PREFETCHES: 0 MISSED OPPORTUNITY: 0 LATE IN PQ: 0 UNCOVERED: 0
ITLB COMMIT LATE MSHR PREFETCHES: 0
ITLB MPKI TOTAL: 0 MSHR LATE: 0 PQ LATE: 0 COMMIT LATE: 0 MISSED OPPORTUNITY: 0 UNCOVERED: 0
ITLB PREFETCHES SAME FILL-ORIGIN LEVEL: 0 DIFFERENT FILL-ORIGIN LEVEL: 0
ITLB AVERAGE MISS LATENCY: 10.2035 cycles
ITLB AVERAGE MISS LATENCY LOAD: -nan cycles
ITLB AVERAGE MISS LATENCY PREFETCH: -nan cycles
ITLB AVERAGE MSHR OCCUPANCY: 0.009227
ITLB MSHR FULL: 0
ITLB RQ	ACCESS:   37446132	FORWARD:          0	MERGED:    4061381	TO_CACHE:   33384751

DTLB SPEC fills:          0  NON-SPEC fills:          0
DTLB Test counter :          0
DTLB Leapfrog:          0
DTLB MSHR merge:          0
DTLB TOTAL     ACCESS:   81629942  HIT:   77465662  MISS:    4164280  HIT %:    94.8986  MISS %:    5.10141   MPKI: 20.8214
DTLB LOAD TRANSLATION NON_SPEC    ACCESS:   81629942  HIT:   77465662  MISS:    4164280  HIT %:    94.8986  MISS %:    5.10141   MPKI: 20.8214
DTLB PREFETCH  REQUESTED:          0  ISSUED:          0  USEFUL:          0  USELESS:          0
DTLB USEFUL LOAD PREFETCHES:          0 PREFETCH ISSUED TO LOWER LEVEL:          0  ACCURACY: -nan
DTLB TIMELY PREFETCHES:          0 LATE PREFETCHES: 0 DROPPED PREFETCHES: 0
DTLB COMMIT LATE PREFETCHES: 0 MISSED OPPORTUNITY: 0 LATE IN PQ: 0 UNCOVERED: 0
DTLB COMMIT LATE MSHR PREFETCHES: 0
DTLB MPKI TOTAL: 0 MSHR LATE: 0 PQ LATE: 0 COMMIT LATE: 0 MISSED OPPORTUNITY: 0 UNCOVERED: 0
DTLB PREFETCHES SAME FILL-ORIGIN LEVEL: 0 DIFFERENT FILL-ORIGIN LEVEL: 0
DTLB AVERAGE MISS LATENCY: 39.6923 cycles
DTLB AVERAGE MISS LATENCY LOAD: -nan cycles
DTLB AVERAGE MISS LATENCY PREFETCH: -nan cycles
DTLB AVERAGE MSHR OCCUPANCY: 0.131258
DTLB MSHR FULL: 4.15958e-05
DTLB RQ	ACCESS:   92557259	FORWARD:          0	MERGED:   10821537	TO_CACHE:   81735722

STLB SPEC fills:          0  NON-SPEC fills:          0
STLB Test counter :          0
STLB Leapfrog:          0
STLB MSHR merge:          0
STLB TOTAL     ACCESS:    4630490  HIT:    3644150  MISS:     986340  HIT %:     78.699  MISS %:     21.301   MPKI: 4.9317
STLB LOAD TRANSLATION NON_SPEC    ACCESS:    4476384  HIT:    3512630  MISS:     963754  HIT %:    78.4703  MISS %:    21.5297   MPKI: 4.81877
STLB TRANSLATION FROM L1D PREFETCHER NON_SPEC    ACCESS:     154106  HIT:     131520  MISS:      22586  HIT %:    85.3439  MISS %:    14.6561   MPKI: 0.11293
STLB PREFETCH  REQUESTED:          0  ISSUED:          0  USEFUL:      15318  USELESS:       7277
STLB USEFUL LOAD PREFETCHES:      15318 PREFETCH ISSUED TO LOWER LEVEL:          0  ACCURACY: inf
STLB TIMELY PREFETCHES:      15318 LATE PREFETCHES: 9 DROPPED PREFETCHES: 50561
STLB COMMIT LATE PREFETCHES: 0 MISSED OPPORTUNITY: 0 LATE IN PQ: 0 UNCOVERED: 0
STLB COMMIT LATE MSHR PREFETCHES: 0
STLB MPKI TOTAL: 0 MSHR LATE: 4.5e-05 PQ LATE: 0 COMMIT LATE: 0 MISSED OPPORTUNITY: 0 UNCOVERED: 0
STLB PREFETCHES SAME FILL-ORIGIN LEVEL: 0 DIFFERENT FILL-ORIGIN LEVEL: 0
STLB AVERAGE MISS LATENCY: 132.582 cycles
STLB AVERAGE MISS LATENCY LOAD: -nan cycles
STLB AVERAGE MISS LATENCY PREFETCH: -nan cycles
STLB AVERAGE MSHR OCCUPANCY: 0.126283
STLB MSHR FULL: 0
STLB RQ	ACCESS:    4766192	FORWARD:          0	MERGED:      84490	TO_CACHE:    4681702

STLB Hit, L1D data hit: 0
STLB Hit, L2C data hit: 0
STLB Hit, LLC data hit: 0
STLB Hit, LLC data miss: 0
STLB STLB hints to L2: 0
L0D SPEC fills:   23206623  NON-SPEC fills:          0
L0D TimeGuard Request with older TS:     267301 Restricted eviction:     141042 read:     303408
L0D Test counter :          0
L0D Leapfrog:          0
L0D MSHR merge:    1012828
L0D TOTAL     ACCESS:   54399330  HIT:    6924315  MISS:   47475015  HIT %:    12.7287  MISS %:    87.2713   MPKI: 237.375
L0D LOAD      TOTAL       ACCESS:   54399330  HIT:    6924315  MISS:   47475015  HIT %:    12.7287  MISS %:    87.2713   MPKI: 237.375
L0D LOAD      NON_SPEC    ACCESS:   24338413  HIT:     211054  MISS:   24127359  HIT %:   0.867164  MISS %:    99.1328   MPKI: 120.637
L0D LOAD      SPEC        ACCESS:   30060917  HIT:    6713261  MISS:   23347656  HIT %:    22.3322  MISS %:    77.6678   MPKI: 116.738
L0D PREFETCH  REQUESTED:          0  ISSUED:          0  USEFUL:          0  USELESS:          0
L0D USEFUL LOAD PREFETCHES:          0 PREFETCH ISSUED TO LOWER LEVEL:          0  ACCURACY: -nan
L0D TIMELY PREFETCHES:          0 LATE PREFETCHES: 0 DROPPED PREFETCHES: 0
L0D COMMIT LATE PREFETCHES: 0 MISSED OPPORTUNITY: 0 LATE IN PQ: 0 UNCOVERED: 0
L0D COMMIT LATE MSHR PREFETCHES: 0
L0D MPKI TOTAL: 242.439 MSHR LATE: 0 PQ LATE: 0 COMMIT LATE: 0 MISSED OPPORTUNITY: 0 UNCOVERED: 0
L0D PREFETCHES SAME FILL-ORIGIN LEVEL: 0 DIFFERENT FILL-ORIGIN LEVEL: 0
L0D AVERAGE MISS LATENCY: 12.8561 cycles
L0D AVERAGE MISS LATENCY LOAD: 12.8561 cycles
L0D AVERAGE MISS LATENCY PREFETCH: -nan cycles
L0D AVERAGE MSHR OCCUPANCY: 0.548397
L0D MSHR FULL: 3.20317e-05
L0D RQ	ACCESS:   63413720	FORWARD:          0	MERGED:    8001568	TO_CACHE:   55412152
L0D WQ	ACCESS:   37145107	FORWARD:          0	MERGED:          0	TO_CACHE:   37145107

L1D SPEC fills:          0  NON-SPEC fills:     640171
L1D Test counter :    2342955
L1D Leapfrog:          0
L1D MSHR merge:      25636
L1D TOTAL     ACCESS:   87684440  HIT:   81121836  MISS:    6562604  HIT %:    92.5157  MISS %:    7.48434   MPKI: 32.813
L1D LOAD      TOTAL       ACCESS:   47449379  HIT:   44066785  MISS:    3382594  HIT %:    92.8712  MISS %:    7.12885   MPKI: 16.913
L1D LOAD      NON_SPEC    ACCESS:   24119162  HIT:   23478991  MISS:     640171  HIT %:    97.3458  MISS %:     2.6542   MPKI: 3.20085
L1D LOAD      SPEC        ACCESS:   23330217  HIT:   20587794  MISS:    2742423  HIT %:    88.2452  MISS %:    11.7548   MPKI: 13.7121
L1D RFO       NON_SPEC    ACCESS:   35849020  HIT:   35386858  MISS:     462162  HIT %:    98.7108  MISS %:    1.28919   MPKI: 2.31081
L1D PREFETCH  NON_SPEC    ACCESS:      69298  HIT:      61237  MISS:       8061  HIT %:    88.3676  MISS %:    11.6324   MPKI: 0.040305
L1D COMMIT LOAD NON_SPEC    ACCESS:    1556971  HIT:    1544139  MISS:      12832  HIT %:    99.1758  MISS %:   0.824164   MPKI: 0.06416
L1D COMMIT WRITE NON_SPEC    ACCESS:    2759772  HIT:      62817  MISS:    2696955  HIT %:    2.27617  MISS %:    97.7238   MPKI: 13.4848
L1D PREFETCH  REQUESTED:     333090  ISSUED:     333086  USEFUL:       5069  USELESS:       2993
L1D USEFUL LOAD PREFETCHES:       5069 PREFETCH ISSUED TO LOWER LEVEL:     170795  ACCURACY: 2.96789
L1D TIMELY PREFETCHES:       5069 LATE PREFETCHES: 0 DROPPED PREFETCHES: 57679
L1D COMMIT LATE PREFETCHES: 0 MISSED OPPORTUNITY: 0 LATE IN PQ: 0 UNCOVERED: 0
L1D COMMIT LATE MSHR PREFETCHES: 0
L1D MPKI TOTAL: 17.0411 MSHR LATE: 0 PQ LATE: 0 COMMIT LATE: 0 MISSED OPPORTUNITY: 0 UNCOVERED: 0
L1D PREFETCHES SAME FILL-ORIGIN LEVEL: 8061 DIFFERENT FILL-ORIGIN LEVEL: 162734
L1D AVERAGE MISS LATENCY: 65.4181 cycles
L1D AVERAGE MISS LATENCY LOAD: 108.854 cycles
L1D AVERAGE MISS LATENCY PREFETCH: 93.0375 cycles
L1D AVERAGE MSHR OCCUPANCY: 0.252824
L1D MSHR FULL: 0
L1D RQ	ACCESS:   49390318	FORWARD:          0	MERGED:     307139	TO_CACHE:   49032812
L1D WQ	ACCESS:   39907752	FORWARD:      50367	MERGED:     362094	TO_CACHE:   39545658
L1D PQ	ACCESS:     333086	FORWARD:          0	MERGED:      43278	TO_CACHE:     289808

L1D UNIQUE REGIONS ACCESSED: 0
L1D REGIONS CONFLICTS: 0
L1D Cross Page Prefetch Requests: 187369
L1D Same Page Prefetch Requests: 231675
L1D ROI Sum of L1D PQ occupancy: 14019194
L1D PREFETCHES PUSHED FROM L2C: 0
L1I SPEC fills:          0  NON-SPEC fills:          0
L1I Test counter :          0
L1I Leapfrog:          0
L1I MSHR merge:      37655
L1I TOTAL     ACCESS:   37408478  HIT:   37287540  MISS:     120938  HIT %:    99.6767  MISS %:    0.32329   MPKI: 0.60469
L1I LOAD      TOTAL       ACCESS:   37408478  HIT:   37287540  MISS:     120938  HIT %:    99.6767  MISS %:    0.32329   MPKI: 0.60469
L1I LOAD      NON_SPEC    ACCESS:   37408478  HIT:   37287540  MISS:     120938  HIT %:    99.6767  MISS %:    0.32329   MPKI: 0.60469
L1I PREFETCH  REQUESTED:          0  ISSUED:          0  USEFUL:          0  USELESS:          0
L1I USEFUL LOAD PREFETCHES:          0 PREFETCH ISSUED TO LOWER LEVEL:          0  ACCURACY: -nan
L1I TIMELY PREFETCHES:          0 LATE PREFETCHES: 0 DROPPED PREFETCHES: 0
L1I COMMIT LATE PREFETCHES: 0 MISSED OPPORTUNITY: 0 LATE IN PQ: 0 UNCOVERED: 0
L1I COMMIT LATE MSHR PREFETCHES: 0
L1I MPKI TOTAL: 0.792965 MSHR LATE: 0 PQ LATE: 0 COMMIT LATE: 0 MISSED OPPORTUNITY: 0 UNCOVERED: 0
L1I PREFETCHES SAME FILL-ORIGIN LEVEL: 0 DIFFERENT FILL-ORIGIN LEVEL: 0
L1I AVERAGE MISS LATENCY: 27.14 cycles
L1I AVERAGE MISS LATENCY LOAD: 27.14 cycles
L1I AVERAGE MISS LATENCY PREFETCH: -nan cycles
L1I AVERAGE MSHR OCCUPANCY: 0.00491087
L1I MSHR FULL: 0
L1I RQ	ACCESS:   56566427	FORWARD:          0	MERGED:   19120295	TO_CACHE:   37446132

BTB SPEC fills:          0  NON-SPEC fills:          0
BTB Test counter :          0
BTB Leapfrog:          0
BTB MSHR merge:          0
BTB TOTAL     ACCESS:   32873214  HIT:   30947951  MISS:    1925263  HIT %:    94.1434  MISS %:    5.85663   MPKI: 9.62631
BTB BRANCH_DIRECT_JUMP	ACCESS:    2330259  HIT:    2330115  MISS:        144
BTB BRANCH_INDIRECT	ACCESS:     674228  HIT:     571149  MISS:     103079
BTB BRANCH_CONDITIONAL	ACCESS:   17721648  HIT:   17721119  MISS:        529
BTB BRANCH_DIRECT_CALL	ACCESS:    3701835  HIT:    3701543  MISS:        292
BTB BRANCH_INDIRECT_CALL	ACCESS:    2371706  HIT:    2363088  MISS:       8618
BTB BRANCH_RETURN	ACCESS:    6073538  HIT:    4260937  MISS:    1812601
BTB BRANCH_OTHER ACCESS:          0  HIT:          0  MISS:          0

L2C SPEC fills:          0  NON-SPEC fills:     425225
L2C Test counter :    2039633
L2C Leapfrog:          0
L2C MSHR merge:        322
L2C TOTAL     ACCESS:   12339112  HIT:    6766689  MISS:    5572423  HIT %:    54.8394  MISS %:    45.1606   MPKI: 27.8621
L2C LOAD      TOTAL       ACCESS:    3503431  HIT:    1036537  MISS:    2466894  HIT %:    29.5863  MISS %:    70.4137   MPKI: 12.3345
L2C LOAD      NON_SPEC    ACCESS:     761084  HIT:     316168  MISS:     444916  HIT %:    41.5418  MISS %:    58.4582   MPKI: 2.22458
L2C LOAD      SPEC        ACCESS:    2742347  HIT:     720369  MISS:    2021978  HIT %:    26.2683  MISS %:    73.7317   MPKI: 10.1099
L2C RFO       NON_SPEC    ACCESS:     462050  HIT:      80326  MISS:     381724  HIT %:    17.3847  MISS %:    82.6153   MPKI: 1.90862
L2C PREFETCH  NON_SPEC    ACCESS:     169365  HIT:      39787  MISS:     129578  HIT %:    23.4919  MISS %:    76.5081   MPKI: 0.64789
L2C WRITEBACK NON_SPEC    ACCESS:     664126  HIT:     662810  MISS:       1316  HIT %:    99.8018  MISS %:   0.198155   MPKI: 0.00658
L2C CLEAN_EVICTION NON_SPEC    ACCESS:    2342955  HIT:     330284  MISS:    2012671  HIT %:    14.0969  MISS %:    85.9031   MPKI: 10.0634
L2C COMMIT LOAD NON_SPEC    ACCESS:      12832  HIT:       7084  MISS:       5748  HIT %:    55.2057  MISS %:    44.7943   MPKI: 0.02874
L2C LOAD TRANSLATION NON_SPEC    ACCESS:    4818725  HIT:    4248809  MISS:     569916  HIT %:    88.1729  MISS %:    11.8271   MPKI: 2.84958
L2C TRANSLATION FROM L1D PREFETCHER NON_SPEC    ACCESS:     365628  HIT:     361052  MISS:       4576  HIT %:    98.7485  MISS %:    1.25155   MPKI: 0.02288
L2C PREFETCH  REQUESTED:          0  ISSUED:          0  USEFUL:      36489  USELESS:      97792
L2C USEFUL LOAD PREFETCHES:      36489 PREFETCH ISSUED TO LOWER LEVEL:     129900  ACCURACY: 28.0901
L2C TIMELY PREFETCHES:      36489 LATE PREFETCHES: 322 DROPPED PREFETCHES: 0
L2C COMMIT LATE PREFETCHES: 0 MISSED OPPORTUNITY: 0 LATE IN PQ: 0 UNCOVERED: 0
L2C COMMIT LATE MSHR PREFETCHES: 0
L2C MPKI TOTAL: 12.3345 MSHR LATE: 0.00161 PQ LATE: 0 COMMIT LATE: 0 MISSED OPPORTUNITY: 0 UNCOVERED: 0
L2C PREFETCHES SAME FILL-ORIGIN LEVEL: 126638 DIFFERENT FILL-ORIGIN LEVEL: 0
L2C AVERAGE MISS LATENCY: 81.7412 cycles
L2C AVERAGE MISS LATENCY LOAD: 133.65 cycles
L2C AVERAGE MISS LATENCY PREFETCH: 183.196 cycles
L2C AVERAGE MSHR OCCUPANCY: 0.399774
L2C MSHR FULL: 0
L2C RQ	ACCESS:    9162879	FORWARD:          0	MERGED:          0	TO_CACHE:    9162666
L2C WQ	ACCESS:    3007082	FORWARD:        215	MERGED:          1	TO_CACHE:    3007081
L2C PQ	ACCESS:     170795	FORWARD:          0	MERGED:          0	TO_CACHE:     170793

L2C Instructions Evicting Data 16182
L2C Translations Evicting Data 481811
L2C Data Evicting Data 783444
L2C Instructions Evicting Instructions 462
L2C Translations Evicting Instructions 3067
L2C Data Evicting Instructions 5239
L2C Instructions Evicting Translations 3047
L2C Translations Evicting Translations 89614
L2C Data Evicting Translations 153592
L2C Dense regions hint from L2: 0
PSCL5 SPEC fills:          0  NON-SPEC fills:          0
PSCL5 Test counter :          0
PSCL5 Leapfrog:          0
PSCL5 MSHR merge:          0
PSCL5 TOTAL     ACCESS:          0  HIT:          0  MISS:          0  HIT %:       -nan  MISS %:       -nan   MPKI: 0
PSCL5 PREFETCH  REQUESTED:          0  ISSUED:          0  USEFUL:          0  USELESS:          0
PSCL5 USEFUL LOAD PREFETCHES:          0 PREFETCH ISSUED TO LOWER LEVEL:          0  ACCURACY: -nan
PSCL5 TIMELY PREFETCHES:          0 LATE PREFETCHES: 0 DROPPED PREFETCHES: 0
PSCL5 COMMIT LATE PREFETCHES: 0 MISSED OPPORTUNITY: 0 LATE IN PQ: 0 UNCOVERED: 0
PSCL5 COMMIT LATE MSHR PREFETCHES: 0
PSCL5 MPKI TOTAL: 0 MSHR LATE: 0 PQ LATE: 0 COMMIT LATE: 0 MISSED OPPORTUNITY: 0 UNCOVERED: 0
PSCL5 PREFETCHES SAME FILL-ORIGIN LEVEL: 0 DIFFERENT FILL-ORIGIN LEVEL: 0

PSCL4 SPEC fills:          0  NON-SPEC fills:          0
PSCL4 Test counter :          0
PSCL4 Leapfrog:          0
PSCL4 MSHR merge:          0
PSCL4 TOTAL     ACCESS:          0  HIT:          0  MISS:          0  HIT %:       -nan  MISS %:       -nan   MPKI: 0
PSCL4 PREFETCH  REQUESTED:          0  ISSUED:          0  USEFUL:          0  USELESS:          0
PSCL4 USEFUL LOAD PREFETCHES:          0 PREFETCH ISSUED TO LOWER LEVEL:          0  ACCURACY: -nan
PSCL4 TIMELY PREFETCHES:          0 LATE PREFETCHES: 0 DROPPED PREFETCHES: 0
PSCL4 COMMIT LATE PREFETCHES: 0 MISSED OPPORTUNITY: 0 LATE IN PQ: 0 UNCOVERED: 0
PSCL4 COMMIT LATE MSHR PREFETCHES: 0
PSCL4 MPKI TOTAL: 0 MSHR LATE: 0 PQ LATE: 0 COMMIT LATE: 0 MISSED OPPORTUNITY: 0 UNCOVERED: 0
PSCL4 PREFETCHES SAME FILL-ORIGIN LEVEL: 0 DIFFERENT FILL-ORIGIN LEVEL: 0

PSCL3 SPEC fills:          0  NON-SPEC fills:          0
PSCL3 Test counter :          0
PSCL3 Leapfrog:          0
PSCL3 MSHR merge:          0
PSCL3 TOTAL     ACCESS:          0  HIT:          0  MISS:          0  HIT %:       -nan  MISS %:       -nan   MPKI: 0
PSCL3 PREFETCH  REQUESTED:          0  ISSUED:          0  USEFUL:          0  USELESS:          0
PSCL3 USEFUL LOAD PREFETCHES:          0 PREFETCH ISSUED TO LOWER LEVEL:          0  ACCURACY: -nan
PSCL3 TIMELY PREFETCHES:          0 LATE PREFETCHES: 0 DROPPED PREFETCHES: 0
PSCL3 COMMIT LATE PREFETCHES: 0 MISSED OPPORTUNITY: 0 LATE IN PQ: 0 UNCOVERED: 0
PSCL3 COMMIT LATE MSHR PREFETCHES: 0
PSCL3 MPKI TOTAL: 0 MSHR LATE: 0 PQ LATE: 0 COMMIT LATE: 0 MISSED OPPORTUNITY: 0 UNCOVERED: 0
PSCL3 PREFETCHES SAME FILL-ORIGIN LEVEL: 0 DIFFERENT FILL-ORIGIN LEVEL: 0

PSCL2 SPEC fills:          0  NON-SPEC fills:          0
PSCL2 Test counter :          0
PSCL2 Leapfrog:          0
PSCL2 MSHR merge:          0
PSCL2 TOTAL     ACCESS:          0  HIT:          0  MISS:          0  HIT %:       -nan  MISS %:       -nan   MPKI: 0
PSCL2 PREFETCH  REQUESTED:          0  ISSUED:          0  USEFUL:          0  USELESS:          0
PSCL2 USEFUL LOAD PREFETCHES:          0 PREFETCH ISSUED TO LOWER LEVEL:          0  ACCURACY: -nan
PSCL2 TIMELY PREFETCHES:          0 LATE PREFETCHES: 0 DROPPED PREFETCHES: 0
PSCL2 COMMIT LATE PREFETCHES: 0 MISSED OPPORTUNITY: 0 LATE IN PQ: 0 UNCOVERED: 0
PSCL2 COMMIT LATE MSHR PREFETCHES: 0
PSCL2 MPKI TOTAL: 0 MSHR LATE: 0 PQ LATE: 0 COMMIT LATE: 0 MISSED OPPORTUNITY: 0 UNCOVERED: 0
PSCL2 PREFETCHES SAME FILL-ORIGIN LEVEL: 0 DIFFERENT FILL-ORIGIN LEVEL: 0

LLC SPEC fills:          0  NON-SPEC fills:     286109
LLC Test counter :    1606062
LLC Leapfrog:          0
LLC MSHR merge:          0
LLC TOTAL     ACCESS:    6115550  HIT:    2145063  MISS:    3970487  HIT %:    35.0756  MISS %:    64.9244   MPKI: 19.8524
LLC LOAD      TOTAL       ACCESS:    2466569  HIT:     616778  MISS:    1849791  HIT %:    25.0055  MISS %:    74.9945   MPKI: 9.24895
LLC LOAD      NON_SPEC    ACCESS:     444912  HIT:     153033  MISS:     291879  HIT %:    34.3962  MISS %:    65.6038   MPKI: 1.45939
LLC LOAD      SPEC        ACCESS:    2021657  HIT:     463745  MISS:    1557912  HIT %:    22.9389  MISS %:    77.0611   MPKI: 7.78956
LLC RFO       NON_SPEC    ACCESS:     381722  HIT:     139189  MISS:     242533  HIT %:    36.4634  MISS %:    63.5366   MPKI: 1.21266
LLC PREFETCH  NON_SPEC    ACCESS:     129900  HIT:       5248  MISS:     124652  HIT %:    4.04003  MISS %:      95.96   MPKI: 0.62326
LLC WRITEBACK NON_SPEC    ACCESS:     517488  HIT:     516598  MISS:        890  HIT %:     99.828  MISS %:   0.171985   MPKI: 0.00445
LLC CLEAN_EVICTION NON_SPEC    ACCESS:    2039633  HIT:     471962  MISS:    1567671  HIT %:    23.1396  MISS %:    76.8604   MPKI: 7.83835
LLC COMMIT LOAD NON_SPEC    ACCESS:       5746  HIT:       2975  MISS:       2771  HIT %:    51.7751  MISS %:    48.2249   MPKI: 0.013855
LLC LOAD TRANSLATION NON_SPEC    ACCESS:     569916  HIT:     390141  MISS:     179775  HIT %:    68.4559  MISS %:    31.5441   MPKI: 0.898875
LLC TRANSLATION FROM L1D PREFETCHER NON_SPEC    ACCESS:       4576  HIT:       2172  MISS:       2404  HIT %:     47.465  MISS %:     52.535   MPKI: 0.01202
LLC PREFETCH  REQUESTED:          0  ISSUED:          0  USEFUL:       4188  USELESS:     122920
LLC USEFUL LOAD PREFETCHES:       4188 PREFETCH ISSUED TO LOWER LEVEL:     124652  ACCURACY: 3.35975
LLC TIMELY PREFETCHES:       4188 LATE PREFETCHES: 0 DROPPED PREFETCHES: 0
LLC COMMIT LATE PREFETCHES: 0 MISSED OPPORTUNITY: 0 LATE IN PQ: 0 UNCOVERED: 0
LLC COMMIT LATE MSHR PREFETCHES: 0
LLC MPKI TOTAL: 9.24895 MSHR LATE: 0 PQ LATE: 0 COMMIT LATE: 0 MISSED OPPORTUNITY: 0 UNCOVERED: 0
LLC PREFETCHES SAME FILL-ORIGIN LEVEL: 0 DIFFERENT FILL-ORIGIN LEVEL: 0
LLC AVERAGE MISS LATENCY: 92.4204 cycles
LLC AVERAGE MISS LATENCY LOAD: 148.041 cycles
LLC AVERAGE MISS LATENCY PREFETCH: 159.794 cycles
LLC AVERAGE MSHR OCCUPANCY: 0.385911
LLC MSHR FULL: 0
LLC RQ	ACCESS:    3428536	FORWARD:          0	MERGED:          0	TO_CACHE:    3428529
LLC WQ	ACCESS:    2557121	FORWARD:          7	MERGED:          0	TO_CACHE:    2557121
LLC PQ	ACCESS:     129900	FORWARD:          0	MERGED:          0	TO_CACHE:     129900

LLC Dense regions hint to LLC: 0

RAW hits: 3458821
Loads Generated: 66872541
Loads sent to L1D: 63413720
Stores Generated: 37145093
Stores sent to L1D: 37145107
Major fault: 0 Minor fault: 53031
Allocated PAGES: 53031
Total Load insts: 78556356
Total Non-spec loads: 27807359
Percentage of speculative loads: 64.602

LeapFrogging counter: 625
Commit hits: 23020034 miss: 16001552
Commit hit %: 58.9931 miss %: 41.0069
Commits not translated: 0
Loads retired: 3382594
Stores retired: 37145107
Cache fills: 3382594
L1D response latency: 108.854 cycles
Load retirement latency: 197.324 cycles
OOO test counter: 0
Discarded buffer inserts: 23020034 hits: 21640 hit %: 0.0940051
Filter prediction accuracy: 0.999793
ALL MISSES SIZE: 28404
LATENCY_FILL: 108.469 3400560
LATENCY_FILL_ROB: 148.456 3400577
test counter pref: 14520636
Max ROB Extended: 19

DRAM Statistics
 CHANNEL 0
 RQ ROW_BUFFER_HIT:     178550  ROW_BUFFER_MISS:    2223367
 DBUS_CONGESTED:       1351
 WQ ROW_BUFFER_HIT:     360630  ROW_BUFFER_MISS:    1575855  FULL:          0

 AVG_CONGESTED_CYCLE: 4
 All warmup complete: 2
Channel 0 Bank busy for read cycles: 0
Channel 0 Bank busy for write cycles: 0
Channel 0
Rank 0
0banks busy for read cycles: 372319123
0banks busy for write cycles: 744132
1banks busy for read cycles: 191913583
1banks busy for write cycles: 121331928
2banks busy for read cycles: 48501719
2banks busy for write cycles: 56060480
3banks busy for read cycles: 11884412
3banks busy for write cycles: 24059835
4banks busy for read cycles: 3919296
4banks busy for write cycles: 9554767
5banks busy for read cycles: 323098
5banks busy for write cycles: 3689283
6banks busy for read cycles: 88211
6banks busy for write cycles: 1388549
7banks busy for read cycles: 6241
7banks busy for write cycles: 475713
8banks busy for read cycles: 788
8banks busy for write cycles: 148716

CPU 0 Branch Prediction Accuracy: 98.172% MPKI: 3.83776 Average ROB Occupancy at Mispredict: 36.8538
Branch types
NOT_BRANCH: 158010836 79.0054%
BRANCH_DIRECT_JUMP: 2330259 1.16513%
BRANCH_INDIRECT: 674228 0.337114%
BRANCH_CONDITIONAL: 26837262 13.4186%
BRANCH_DIRECT_CALL: 3701835 1.85092%
BRANCH_INDIRECT_CALL: 2371706 1.18585%
BRANCH_RETURN: 6073538 3.03677%
BRANCH_OTHER: 0 0%

DRAM PAGES: 1048576
Allocated PAGES: 53031
