
*** ChampSim Multicore Out-of-Order Simulator ***

Warmup Instructions: 50000000
Simulation Instructions: 200000000
Number of CPUs: 1
LLC sets: 2048
LLC ways: 16
L0D sets: 16
L0D ways: 2
ROB size: 352
LQ size: 128
SQ size: 72
Secure Berti: ON
Berti: ON
Berti Fill: ON
On commit prefetching: OFF
Hit-based filter: ON
Time-guarding: ON
Free-slotting: ON
Leap-frogging: ON
Train prefetcher on L0D bypass: OFF
No translation penalty for prefetchers: OFF
Prefetch to L0D only: OFF
Prefetch to L1D only: OFF
Clean evictions: ON
Commit loads: ON
Commit write: ON
Fill commit loads to L2C, LLC: ON
DRAM IO FREQUENCY: 6400
ROB SIZE: 352
Off-chip DRAM Size: 4096 MB Channels: 1 Width: 64-bit Data Rate: 6400 MT/s
CPU 0 runs /home/sumon/secure_berti/GhostMinion/../../traces/spec/621.wrf_s-6673B.champsimtrace.xz
.xz
BTB has LRU replacement policy
ITLB has LRU replacement policy
DTLB has LRU replacement policy
STLB has LRU replacement policy
L1I has LRU replacement policy
L0D has LRU replacement policy
Berti version on_commit
History Sets: 8
History Ways: 16
BERTI Size: 16
BERTI Stride Size: 16
L1D has LRU replacement policy
L2C has LRU replacement policy
LLC has LRU replacement policy
Heartbeat CPU 0 instructions: 10000002 cycles: 5233251 heartbeat IPC: 1.91086 cumulative IPC: 1.91086 (Simulation time: 0 hr 0 min 44 sec) 
Heartbeat CPU 0 instructions: 20000002 cycles: 8425362 heartbeat IPC: 3.13272 cumulative IPC: 2.37379 (Simulation time: 0 hr 1 min 20 sec) 
Heartbeat CPU 0 instructions: 30000001 cycles: 11527592 heartbeat IPC: 3.22349 cumulative IPC: 2.60245 (Simulation time: 0 hr 1 min 54 sec) 
Heartbeat CPU 0 instructions: 40000002 cycles: 14595805 heartbeat IPC: 3.25923 cumulative IPC: 2.74051 (Simulation time: 0 hr 2 min 30 sec) 
Heartbeat CPU 0 instructions: 50000001 cycles: 17685621 heartbeat IPC: 3.23644 cumulative IPC: 2.82716 (Simulation time: 0 hr 3 min 1 sec) 

Warmup complete CPU 0 instructions: 50000001 cycles: 17685621 (Simulation time: 0 hr 3 min 1 sec) 

Heartbeat CPU 0 instructions: 60000001 cycles: 32567873 heartbeat IPC: 0.671941 cumulative IPC: 0.671941 (Simulation time: 0 hr 3 min 47 sec) 
Heartbeat CPU 0 instructions: 70000000 cycles: 48357543 heartbeat IPC: 0.633325 cumulative IPC: 0.652062 (Simulation time: 0 hr 4 min 36 sec) 
Heartbeat CPU 0 instructions: 80000000 cycles: 62036637 heartbeat IPC: 0.731043 cumulative IPC: 0.676422 (Simulation time: 0 hr 5 min 17 sec) 
Heartbeat CPU 0 instructions: 90000000 cycles: 75871397 heartbeat IPC: 0.722817 cumulative IPC: 0.687453 (Simulation time: 0 hr 6 min 1 sec) 
Heartbeat CPU 0 instructions: 100000000 cycles: 93089123 heartbeat IPC: 0.580797 cumulative IPC: 0.663099 (Simulation time: 0 hr 6 min 54 sec) 
Heartbeat CPU 0 instructions: 110000000 cycles: 101450553 heartbeat IPC: 1.19597 cumulative IPC: 0.71629 (Simulation time: 0 hr 7 min 27 sec) 
Heartbeat CPU 0 instructions: 120000003 cycles: 111930749 heartbeat IPC: 0.954181 cumulative IPC: 0.742744 (Simulation time: 0 hr 8 min 4 sec) 
Heartbeat CPU 0 instructions: 130000000 cycles: 121039718 heartbeat IPC: 1.09782 cumulative IPC: 0.774038 (Simulation time: 0 hr 8 min 37 sec) 
Heartbeat CPU 0 instructions: 140000001 cycles: 130537896 heartbeat IPC: 1.05283 cumulative IPC: 0.797503 (Simulation time: 0 hr 9 min 14 sec) 
Heartbeat CPU 0 instructions: 150000001 cycles: 140981500 heartbeat IPC: 0.957524 cumulative IPC: 0.811057 (Simulation time: 0 hr 9 min 48 sec) 
Heartbeat CPU 0 instructions: 160000001 cycles: 149661545 heartbeat IPC: 1.15207 cumulative IPC: 0.833485 (Simulation time: 0 hr 10 min 22 sec) 
Heartbeat CPU 0 instructions: 170000001 cycles: 160101014 heartbeat IPC: 0.957903 cumulative IPC: 0.842606 (Simulation time: 0 hr 11 min 0 sec) 
Heartbeat CPU 0 instructions: 180000000 cycles: 169031742 heartbeat IPC: 1.11973 cumulative IPC: 0.858958 (Simulation time: 0 hr 11 min 33 sec) 
Heartbeat CPU 0 instructions: 190000000 cycles: 181499980 heartbeat IPC: 0.802038 cumulative IPC: 0.854626 (Simulation time: 0 hr 12 min 12 sec) 
Heartbeat CPU 0 instructions: 200000003 cycles: 193520671 heartbeat IPC: 0.831899 cumulative IPC: 0.853072 (Simulation time: 0 hr 12 min 49 sec) 
Heartbeat CPU 0 instructions: 210000000 cycles: 205555866 heartbeat IPC: 0.830896 cumulative IPC: 0.851652 (Simulation time: 0 hr 13 min 26 sec) 
Heartbeat CPU 0 instructions: 220000000 cycles: 217685470 heartbeat IPC: 0.824429 cumulative IPC: 0.850001 (Simulation time: 0 hr 14 min 2 sec) 
Heartbeat CPU 0 instructions: 230000001 cycles: 232193871 heartbeat IPC: 0.689256 cumulative IPC: 0.839129 (Simulation time: 0 hr 14 min 41 sec) 
Heartbeat CPU 0 instructions: 240000000 cycles: 245726286 heartbeat IPC: 0.738966 cumulative IPC: 0.833185 (Simulation time: 0 hr 15 min 24 sec) 
Heartbeat CPU 0 instructions: 250000000 cycles: 254241295 heartbeat IPC: 1.1744 cumulative IPC: 0.845467 (Simulation time: 0 hr 15 min 56 sec) 
Finished CPU 0 instructions: 200000003 cycles: 236555675 cumulative IPC: 0.845467 (Simulation time: 0 hr 15 min 56 sec) 
 Instruction ID: 250000091

ChampSim completed all CPUs

Region of Interest Statistics

CPU 0 cumulative IPC: 0.845467 instructions: 200000003 cycles: 236555675
ITLB SPEC fills:          0  NON-SPEC fills:          0
ITLB Test counter :          0
ITLB Leapfrog:          0
ITLB MSHR merge:          0
ITLB TOTAL     ACCESS:   28996965  HIT:   28996794  MISS:        171  HIT %:    99.9994  MISS %: 0.000589717   MPKI: 0.000855
ITLB LOAD TRANSLATION NON_SPEC    ACCESS:   28996965  HIT:   28996794  MISS:        171  HIT %:    99.9994  MISS %: 0.000589717   MPKI: 0.000855
ITLB PREFETCH  REQUESTED:          0  ISSUED:          0  USEFUL:          0  USELESS:          0
ITLB USEFUL LOAD PREFETCHES:          0 PREFETCH ISSUED TO LOWER LEVEL:          0  ACCURACY: -nan
ITLB TIMELY PREFETCHES:          0 LATE PREFETCHES: 0 DROPPED PREFETCHES: 0
ITLB COMMIT LATE PREFETCHES: 0 MISSED OPPORTUNITY: 0 LATE IN PQ: 0 UNCOVERED: 0
ITLB COMMIT LATE MSHR PREFETCHES: 0
ITLB MPKI TOTAL: 0 MSHR LATE: 0 PQ LATE: 0 COMMIT LATE: 0 MISSED OPPORTUNITY: 0 UNCOVERED: 0
ITLB PREFETCHES SAME FILL-ORIGIN LEVEL: 0 DIFFERENT FILL-ORIGIN LEVEL: 0
ITLB AVERAGE MISS LATENCY: 333.287 cycles
ITLB AVERAGE MISS LATENCY LOAD: -nan cycles
ITLB AVERAGE MISS LATENCY PREFETCH: -nan cycles
ITLB AVERAGE MSHR OCCUPANCY: 2.31058e-06
ITLB MSHR FULL: 0
ITLB RQ	ACCESS:   35161760	FORWARD:          0	MERGED:    6164739	TO_CACHE:   28997021

DTLB SPEC fills:          0  NON-SPEC fills:          0
DTLB Test counter :          0
DTLB Leapfrog:          0
DTLB MSHR merge:          0
DTLB TOTAL     ACCESS:   51395050  HIT:   51195120  MISS:     199930  HIT %:     99.611  MISS %:   0.389006   MPKI: 0.99965
DTLB LOAD TRANSLATION NON_SPEC    ACCESS:   51395050  HIT:   51195120  MISS:     199930  HIT %:     99.611  MISS %:   0.389006   MPKI: 0.99965
DTLB PREFETCH  REQUESTED:          0  ISSUED:          0  USEFUL:          0  USELESS:          0
DTLB USEFUL LOAD PREFETCHES:          0 PREFETCH ISSUED TO LOWER LEVEL:          0  ACCURACY: -nan
DTLB TIMELY PREFETCHES:          0 LATE PREFETCHES: 0 DROPPED PREFETCHES: 0
DTLB COMMIT LATE PREFETCHES: 0 MISSED OPPORTUNITY: 0 LATE IN PQ: 0 UNCOVERED: 0
DTLB COMMIT LATE MSHR PREFETCHES: 0
DTLB MPKI TOTAL: 0 MSHR LATE: 0 PQ LATE: 0 COMMIT LATE: 0 MISSED OPPORTUNITY: 0 UNCOVERED: 0
DTLB PREFETCHES SAME FILL-ORIGIN LEVEL: 0 DIFFERENT FILL-ORIGIN LEVEL: 0
DTLB AVERAGE MISS LATENCY: 23.5938 cycles
DTLB AVERAGE MISS LATENCY LOAD: -nan cycles
DTLB AVERAGE MISS LATENCY PREFETCH: -nan cycles
DTLB AVERAGE MSHR OCCUPANCY: 0.0239293
DTLB MSHR FULL: 0.00112162
DTLB RQ	ACCESS:   59043870	FORWARD:          0	MERGED:    7580101	TO_CACHE:   51463769

STLB SPEC fills:          0  NON-SPEC fills:          0
STLB Test counter :          0
STLB Leapfrog:          0
STLB MSHR merge:          0
STLB TOTAL     ACCESS:   13404803  HIT:   13376812  MISS:      27991  HIT %:    99.7912  MISS %:   0.208813   MPKI: 0.139955
STLB LOAD TRANSLATION NON_SPEC    ACCESS:     200101  HIT:     187719  MISS:      12382  HIT %:    93.8121  MISS %:    6.18788   MPKI: 0.06191
STLB TRANSLATION FROM L1D PREFETCHER NON_SPEC    ACCESS:   13204702  HIT:   13189093  MISS:      15609  HIT %:    99.8818  MISS %:   0.118208   MPKI: 0.078045
STLB PREFETCH  REQUESTED:          0  ISSUED:          0  USEFUL:      15576  USELESS:         33
STLB USEFUL LOAD PREFETCHES:      15576 PREFETCH ISSUED TO LOWER LEVEL:          0  ACCURACY: inf
STLB TIMELY PREFETCHES:      15576 LATE PREFETCHES: 3189 DROPPED PREFETCHES: 49309
STLB COMMIT LATE PREFETCHES: 0 MISSED OPPORTUNITY: 0 LATE IN PQ: 0 UNCOVERED: 0
STLB COMMIT LATE MSHR PREFETCHES: 0
STLB MPKI TOTAL: 0 MSHR LATE: 0.015945 PQ LATE: 0 COMMIT LATE: 0 MISSED OPPORTUNITY: 0 UNCOVERED: 0
STLB PREFETCHES SAME FILL-ORIGIN LEVEL: 0 DIFFERENT FILL-ORIGIN LEVEL: 0
STLB AVERAGE MISS LATENCY: 171.94 cycles
STLB AVERAGE MISS LATENCY LOAD: -nan cycles
STLB AVERAGE MISS LATENCY PREFETCH: -nan cycles
STLB AVERAGE MSHR OCCUPANCY: 0.0371924
STLB MSHR FULL: 3.48973e-06
STLB RQ	ACCESS:   61337693	FORWARD:          0	MERGED:   47869597	TO_CACHE:   13468096

STLB Hit, L1D data hit: 0
STLB Hit, L2C data hit: 0
STLB Hit, LLC data hit: 0
STLB Hit, LLC data miss: 0
STLB STLB hints to L2: 0
L0D SPEC fills:   33431630  NON-SPEC fills:          0
L0D TimeGuard Request with older TS:     593646 Restricted eviction:     529185 read:    1275640
L0D Test counter :          0
L0D Leapfrog:          0
L0D MSHR merge:    1992695
L0D TOTAL     ACCESS:   46195878  HIT:    6319073  MISS:   39876805  HIT %:    13.6789  MISS %:    86.3211   MPKI: 199.384
L0D LOAD      TOTAL       ACCESS:   46195878  HIT:    6319073  MISS:   39876805  HIT %:    13.6789  MISS %:    86.3211   MPKI: 199.384
L0D LOAD      NON_SPEC    ACCESS:    6884420  HIT:     968171  MISS:    5916249  HIT %:    14.0632  MISS %:    85.9368   MPKI: 29.5812
L0D LOAD      SPEC        ACCESS:   39311458  HIT:    5350902  MISS:   33960556  HIT %:    13.6116  MISS %:    86.3884   MPKI: 169.803
L0D PREFETCH  REQUESTED:          0  ISSUED:          0  USEFUL:          0  USELESS:          0
L0D USEFUL LOAD PREFETCHES:          0 PREFETCH ISSUED TO LOWER LEVEL:          0  ACCURACY: -nan
L0D TIMELY PREFETCHES:          0 LATE PREFETCHES: 0 DROPPED PREFETCHES: 0
L0D COMMIT LATE PREFETCHES: 0 MISSED OPPORTUNITY: 0 LATE IN PQ: 0 UNCOVERED: 0
L0D COMMIT LATE MSHR PREFETCHES: 0
L0D MPKI TOTAL: 209.348 MSHR LATE: 0 PQ LATE: 0 COMMIT LATE: 0 MISSED OPPORTUNITY: 0 UNCOVERED: 0
L0D PREFETCHES SAME FILL-ORIGIN LEVEL: 0 DIFFERENT FILL-ORIGIN LEVEL: 0
L0D AVERAGE MISS LATENCY: 7.69808 cycles
L0D AVERAGE MISS LATENCY LOAD: 7.69808 cycles
L0D AVERAGE MISS LATENCY PREFETCH: -nan cycles
L0D AVERAGE MSHR OCCUPANCY: 1.93398
L0D MSHR FULL: 0.0719037
L0D RQ	ACCESS:   58966885	FORWARD:          0	MERGED:   10778310	TO_CACHE:   48188575
L0D WQ	ACCESS:   10855295	FORWARD:          0	MERGED:          0	TO_CACHE:   10855295

L1D SPEC fills:          0  NON-SPEC fills:      24259
L1D Test counter :     413283
L1D Leapfrog:          0
L1D MSHR merge:     168524
L1D TOTAL     ACCESS:   87052291  HIT:   82701635  MISS:    4350656  HIT %:    95.0022  MISS %:    4.99775   MPKI: 21.7533
L1D LOAD      TOTAL       ACCESS:   39869120  HIT:   39085868  MISS:     783252  HIT %:    98.0354  MISS %:    1.96456   MPKI: 3.91626
L1D LOAD      NON_SPEC    ACCESS:    5915869  HIT:    5891610  MISS:      24259  HIT %:    99.5899  MISS %:   0.410067   MPKI: 0.121295
L1D LOAD      SPEC        ACCESS:   33953251  HIT:   33194258  MISS:     758993  HIT %:    97.7646  MISS %:    2.23541   MPKI: 3.79496
L1D RFO       NON_SPEC    ACCESS:    8574409  HIT:    8016761  MISS:     557648  HIT %:    93.4964  MISS %:    6.50363   MPKI: 2.78824
L1D PREFETCH  NON_SPEC    ACCESS:   37251340  HIT:   34944251  MISS:    2307089  HIT %:    93.8067  MISS %:     6.1933   MPKI: 11.5354
L1D COMMIT LOAD NON_SPEC    ACCESS:     617219  HIT:     573629  MISS:      43590  HIT %:    92.9377  MISS %:    7.06232   MPKI: 0.21795
L1D COMMIT WRITE NON_SPEC    ACCESS:     740203  HIT:      81126  MISS:     659077  HIT %:      10.96  MISS %:      89.04   MPKI: 3.29538
L1D PREFETCH  REQUESTED:  122379228  ISSUED:   69520893  USEFUL:    2190536  USELESS:     116508
L1D USEFUL LOAD PREFETCHES:    2190536 PREFETCH ISSUED TO LOWER LEVEL:   24791151  ACCURACY: 8.83596
L1D TIMELY PREFETCHES:    2190536 LATE PREFETCHES: 164071 DROPPED PREFETCHES: 116120
L1D COMMIT LATE PREFETCHES: 0 MISSED OPPORTUNITY: 0 LATE IN PQ: 0 UNCOVERED: 0
L1D COMMIT LATE MSHR PREFETCHES: 0
L1D MPKI TOTAL: 3.95468 MSHR LATE: 0.820355 PQ LATE: 0 COMMIT LATE: 0 MISSED OPPORTUNITY: 0 UNCOVERED: 0
L1D PREFETCHES SAME FILL-ORIGIN LEVEL: 2476658 DIFFERENT FILL-ORIGIN LEVEL: 22314493
L1D AVERAGE MISS LATENCY: 97.8194 cycles
L1D AVERAGE MISS LATENCY LOAD: 116.67 cycles
L1D AVERAGE MISS LATENCY PREFETCH: 79.3931 cycles
L1D AVERAGE MSHR OCCUPANCY: 1.47223
L1D MSHR FULL: 0.0213365
L1D RQ	ACCESS:   40894217	FORWARD:          0	MERGED:     304060	TO_CACHE:   40505813
L1D WQ	ACCESS:   10913038	FORWARD:      84344	MERGED:      86256	TO_CACHE:   10826782
L1D PQ	ACCESS:   69520893	FORWARD:          0	MERGED:    8383301	TO_CACHE:   61137592

L1D UNIQUE REGIONS ACCESSED: 0
L1D REGIONS CONFLICTS: 0
L1D Cross Page Prefetch Requests: 9531388
L1D Same Page Prefetch Requests: 83759256
L1D ROI Sum of L1D PQ occupancy: 1112368431
L1D PREFETCHES PUSHED FROM L2C: 0
L1I SPEC fills:          0  NON-SPEC fills:          0
L1I Test counter :          0
L1I Leapfrog:          0
L1I MSHR merge:       2982
L1I TOTAL     ACCESS:   35158776  HIT:   35152613  MISS:       6163  HIT %:    99.9825  MISS %:  0.0175291   MPKI: 0.030815
L1I LOAD      TOTAL       ACCESS:   35158776  HIT:   35152613  MISS:       6163  HIT %:    99.9825  MISS %:  0.0175291   MPKI: 0.030815
L1I LOAD      NON_SPEC    ACCESS:   35158776  HIT:   35152613  MISS:       6163  HIT %:    99.9825  MISS %:  0.0175291   MPKI: 0.030815
L1I PREFETCH  REQUESTED:          0  ISSUED:          0  USEFUL:          0  USELESS:          0
L1I USEFUL LOAD PREFETCHES:          0 PREFETCH ISSUED TO LOWER LEVEL:          0  ACCURACY: -nan
L1I TIMELY PREFETCHES:          0 LATE PREFETCHES: 0 DROPPED PREFETCHES: 0
L1I COMMIT LATE PREFETCHES: 0 MISSED OPPORTUNITY: 0 LATE IN PQ: 0 UNCOVERED: 0
L1I COMMIT LATE MSHR PREFETCHES: 0
L1I MPKI TOTAL: 0.045725 MSHR LATE: 0 PQ LATE: 0 COMMIT LATE: 0 MISSED OPPORTUNITY: 0 UNCOVERED: 0
L1I PREFETCHES SAME FILL-ORIGIN LEVEL: 0 DIFFERENT FILL-ORIGIN LEVEL: 0
L1I AVERAGE MISS LATENCY: 226.785 cycles
L1I AVERAGE MISS LATENCY LOAD: 226.785 cycles
L1I AVERAGE MISS LATENCY PREFETCH: -nan cycles
L1I AVERAGE MSHR OCCUPANCY: 0.000231302
L1I MSHR FULL: 0
L1I RQ	ACCESS:   51957136	FORWARD:          0	MERGED:   16795376	TO_CACHE:   35161760

BTB SPEC fills:          0  NON-SPEC fills:          0
BTB Test counter :          0
BTB Leapfrog:          0
BTB MSHR merge:          0
BTB TOTAL     ACCESS:    9141034  HIT:    9133637  MISS:       7397  HIT %:    99.9191  MISS %:  0.0809208   MPKI: 0.036985
BTB BRANCH_DIRECT_JUMP	ACCESS:     290387  HIT:     290283  MISS:        104
BTB BRANCH_INDIRECT	ACCESS:         12  HIT:          8  MISS:          4
BTB BRANCH_CONDITIONAL	ACCESS:    8250534  HIT:    8249659  MISS:        875
BTB BRANCH_DIRECT_CALL	ACCESS:     300051  HIT:     299561  MISS:        490
BTB BRANCH_INDIRECT_CALL	ACCESS:          0  HIT:          0  MISS:          0
BTB BRANCH_RETURN	ACCESS:     300050  HIT:     294126  MISS:       5924
BTB BRANCH_OTHER ACCESS:          0  HIT:          0  MISS:          0

L2C SPEC fills:          0  NON-SPEC fills:       6060
L2C Test counter :     380417
L2C Leapfrog:          0
L2C MSHR merge:      56275
L2C TOTAL     ACCESS:   25101003  HIT:   22161790  MISS:    2939213  HIT %:    88.2905  MISS %:    11.7095   MPKI: 14.6961
L2C LOAD      TOTAL       ACCESS:     628242  HIT:     404618  MISS:     223624  HIT %:    64.4048  MISS %:    35.5952   MPKI: 1.11812
L2C LOAD      NON_SPEC    ACCESS:      27329  HIT:      15106  MISS:      12223  HIT %:    55.2746  MISS %:    44.7254   MPKI: 0.061115
L2C LOAD      SPEC        ACCESS:     600913  HIT:     389512  MISS:     211401  HIT %:      64.82  MISS %:      35.18   MPKI: 1.057
L2C RFO       NON_SPEC    ACCESS:     556844  HIT:     149698  MISS:     407146  HIT %:    26.8833  MISS %:    73.1167   MPKI: 2.03573
L2C PREFETCH  NON_SPEC    ACCESS:   21991863  HIT:   19863040  MISS:    2128823  HIT %:      90.32  MISS %:    9.68005   MPKI: 10.6441
L2C WRITEBACK NON_SPEC    ACCESS:    1076373  HIT:    1074583  MISS:       1790  HIT %:    99.8337  MISS %:   0.166299   MPKI: 0.00895
L2C CLEAN_EVICTION NON_SPEC    ACCESS:     413278  HIT:     247220  MISS:     166058  HIT %:    59.8193  MISS %:    40.1807   MPKI: 0.83029
L2C COMMIT LOAD NON_SPEC    ACCESS:      40358  HIT:      33939  MISS:       6419  HIT %:    84.0949  MISS %:    15.9051   MPKI: 0.032095
L2C LOAD TRANSLATION NON_SPEC    ACCESS:      53561  HIT:      51368  MISS:       2193  HIT %:    95.9056  MISS %:     4.0944   MPKI: 0.010965
L2C TRANSLATION FROM L1D PREFETCHER NON_SPEC    ACCESS:     340484  HIT:     337324  MISS:       3160  HIT %:    99.0719  MISS %:   0.928091   MPKI: 0.0158
L2C PREFETCH  REQUESTED:          0  ISSUED:          0  USEFUL:     270257  USELESS:    1858716
L2C USEFUL LOAD PREFETCHES:     270257 PREFETCH ISSUED TO LOWER LEVEL:    2195525  ACCURACY: 12.3094
L2C TIMELY PREFETCHES:     270257 LATE PREFETCHES: 66701 DROPPED PREFETCHES: 0
L2C COMMIT LATE PREFETCHES: 0 MISSED OPPORTUNITY: 0 LATE IN PQ: 0 UNCOVERED: 0
L2C COMMIT LATE MSHR PREFETCHES: 0
L2C MPKI TOTAL: 1.11812 MSHR LATE: 0.333505 PQ LATE: 0 COMMIT LATE: 0 MISSED OPPORTUNITY: 0 UNCOVERED: 0
L2C PREFETCHES SAME FILL-ORIGIN LEVEL: 1590990 DIFFERENT FILL-ORIGIN LEVEL: 0
L2C AVERAGE MISS LATENCY: 259.07 cycles
L2C AVERAGE MISS LATENCY LOAD: 220.431 cycles
L2C AVERAGE MISS LATENCY PREFETCH: 267.643 cycles
L2C AVERAGE MSHR OCCUPANCY: 13.5107
L2C MSHR FULL: 0.270298
L2C RQ	ACCESS:    1619828	FORWARD:          0	MERGED:          0	TO_CACHE:    1619489
L2C WQ	ACCESS:    1489689	FORWARD:        429	MERGED:         38	TO_CACHE:    1489651
L2C PQ	ACCESS:   24697723	FORWARD:          0	MERGED:       5445	TO_CACHE:   24692188

L2C Instructions Evicting Data 6147
L2C Translations Evicting Data 5343
L2C Data Evicting Data 2537665
L2C Instructions Evicting Instructions 6
L2C Translations Evicting Instructions 4
L2C Data Evicting Instructions 5773
L2C Instructions Evicting Translations 10
L2C Translations Evicting Translations 6
L2C Data Evicting Translations 5010
L2C Dense regions hint from L2: 0
PSCL5 SPEC fills:          0  NON-SPEC fills:          0
PSCL5 Test counter :          0
PSCL5 Leapfrog:          0
PSCL5 MSHR merge:          0
PSCL5 TOTAL     ACCESS:          0  HIT:          0  MISS:          0  HIT %:       -nan  MISS %:       -nan   MPKI: 0
PSCL5 PREFETCH  REQUESTED:          0  ISSUED:          0  USEFUL:          0  USELESS:          0
PSCL5 USEFUL LOAD PREFETCHES:          0 PREFETCH ISSUED TO LOWER LEVEL:          0  ACCURACY: -nan
PSCL5 TIMELY PREFETCHES:          0 LATE PREFETCHES: 0 DROPPED PREFETCHES: 0
PSCL5 COMMIT LATE PREFETCHES: 0 MISSED OPPORTUNITY: 0 LATE IN PQ: 0 UNCOVERED: 0
PSCL5 COMMIT LATE MSHR PREFETCHES: 0
PSCL5 MPKI TOTAL: 0 MSHR LATE: 0 PQ LATE: 0 COMMIT LATE: 0 MISSED OPPORTUNITY: 0 UNCOVERED: 0
PSCL5 PREFETCHES SAME FILL-ORIGIN LEVEL: 0 DIFFERENT FILL-ORIGIN LEVEL: 0

PSCL4 SPEC fills:          0  NON-SPEC fills:          0
PSCL4 Test counter :          0
PSCL4 Leapfrog:          0
PSCL4 MSHR merge:          0
PSCL4 TOTAL     ACCESS:          0  HIT:          0  MISS:          0  HIT %:       -nan  MISS %:       -nan   MPKI: 0
PSCL4 PREFETCH  REQUESTED:          0  ISSUED:          0  USEFUL:          0  USELESS:          0
PSCL4 USEFUL LOAD PREFETCHES:          0 PREFETCH ISSUED TO LOWER LEVEL:          0  ACCURACY: -nan
PSCL4 TIMELY PREFETCHES:          0 LATE PREFETCHES: 0 DROPPED PREFETCHES: 0
PSCL4 COMMIT LATE PREFETCHES: 0 MISSED OPPORTUNITY: 0 LATE IN PQ: 0 UNCOVERED: 0
PSCL4 COMMIT LATE MSHR PREFETCHES: 0
PSCL4 MPKI TOTAL: 0 MSHR LATE: 0 PQ LATE: 0 COMMIT LATE: 0 MISSED OPPORTUNITY: 0 UNCOVERED: 0
PSCL4 PREFETCHES SAME FILL-ORIGIN LEVEL: 0 DIFFERENT FILL-ORIGIN LEVEL: 0

PSCL3 SPEC fills:          0  NON-SPEC fills:          0
PSCL3 Test counter :          0
PSCL3 Leapfrog:          0
PSCL3 MSHR merge:          0
PSCL3 TOTAL     ACCESS:          0  HIT:          0  MISS:          0  HIT %:       -nan  MISS %:       -nan   MPKI: 0
PSCL3 PREFETCH  REQUESTED:          0  ISSUED:          0  USEFUL:          0  USELESS:          0
PSCL3 USEFUL LOAD PREFETCHES:          0 PREFETCH ISSUED TO LOWER LEVEL:          0  ACCURACY: -nan
PSCL3 TIMELY PREFETCHES:          0 LATE PREFETCHES: 0 DROPPED PREFETCHES: 0
PSCL3 COMMIT LATE PREFETCHES: 0 MISSED OPPORTUNITY: 0 LATE IN PQ: 0 UNCOVERED: 0
PSCL3 COMMIT LATE MSHR PREFETCHES: 0
PSCL3 MPKI TOTAL: 0 MSHR LATE: 0 PQ LATE: 0 COMMIT LATE: 0 MISSED OPPORTUNITY: 0 UNCOVERED: 0
PSCL3 PREFETCHES SAME FILL-ORIGIN LEVEL: 0 DIFFERENT FILL-ORIGIN LEVEL: 0

PSCL2 SPEC fills:          0  NON-SPEC fills:          0
PSCL2 Test counter :          0
PSCL2 Leapfrog:          0
PSCL2 MSHR merge:          0
PSCL2 TOTAL     ACCESS:          0  HIT:          0  MISS:          0  HIT %:       -nan  MISS %:       -nan   MPKI: 0
PSCL2 PREFETCH  REQUESTED:          0  ISSUED:          0  USEFUL:          0  USELESS:          0
PSCL2 USEFUL LOAD PREFETCHES:          0 PREFETCH ISSUED TO LOWER LEVEL:          0  ACCURACY: -nan
PSCL2 TIMELY PREFETCHES:          0 LATE PREFETCHES: 0 DROPPED PREFETCHES: 0
PSCL2 COMMIT LATE PREFETCHES: 0 MISSED OPPORTUNITY: 0 LATE IN PQ: 0 UNCOVERED: 0
PSCL2 COMMIT LATE MSHR PREFETCHES: 0
PSCL2 MPKI TOTAL: 0 MSHR LATE: 0 PQ LATE: 0 COMMIT LATE: 0 MISSED OPPORTUNITY: 0 UNCOVERED: 0
PSCL2 PREFETCHES SAME FILL-ORIGIN LEVEL: 0 DIFFERENT FILL-ORIGIN LEVEL: 0

LLC SPEC fills:          0  NON-SPEC fills:       4485
LLC Test counter :     368521
LLC Leapfrog:          0
LLC MSHR merge:          0
LLC TOTAL     ACCESS:    4003694  HIT:    1599920  MISS:    2403774  HIT %:    39.9611  MISS %:    60.0389   MPKI: 12.0189
LLC LOAD      TOTAL       ACCESS:     167349  HIT:      15238  MISS:     152111  HIT %:    9.10552  MISS %:    90.8945   MPKI: 0.760555
LLC LOAD      NON_SPEC    ACCESS:      11504  HIT:        856  MISS:      10648  HIT %:    7.44089  MISS %:    92.5591   MPKI: 0.05324
LLC LOAD      SPEC        ACCESS:     155845  HIT:      14382  MISS:     141463  HIT %:     9.2284  MISS %:    90.7716   MPKI: 0.707315
LLC RFO       NON_SPEC    ACCESS:     397969  HIT:      32103  MISS:     365866  HIT %:    8.06671  MISS %:    91.9333   MPKI: 1.82933
LLC PREFETCH  NON_SPEC    ACCESS:    2195519  HIT:     439896  MISS:    1755623  HIT %:    20.0361  MISS %:    79.9639   MPKI: 8.77811
LLC WRITEBACK NON_SPEC    ACCESS:     851918  HIT:     849484  MISS:       2434  HIT %:    99.7143  MISS %:   0.285708   MPKI: 0.01217
LLC CLEAN_EVICTION NON_SPEC    ACCESS:     380417  HIT:     261360  MISS:     119057  HIT %:    68.7036  MISS %:    31.2964   MPKI: 0.595285
LLC COMMIT LOAD NON_SPEC    ACCESS:       5169  HIT:       1413  MISS:       3756  HIT %:     27.336  MISS %:     72.664   MPKI: 0.01878
LLC LOAD TRANSLATION NON_SPEC    ACCESS:       2193  HIT:        275  MISS:       1918  HIT %:    12.5399  MISS %:    87.4601   MPKI: 0.00959
LLC TRANSLATION FROM L1D PREFETCHER NON_SPEC    ACCESS:       3160  HIT:        151  MISS:       3009  HIT %:    4.77848  MISS %:    95.2215   MPKI: 0.015045
LLC PREFETCH  REQUESTED:          0  ISSUED:          0  USEFUL:       9466  USELESS:    1747810
LLC USEFUL LOAD PREFETCHES:       9466 PREFETCH ISSUED TO LOWER LEVEL:    1755624  ACCURACY: 0.539182
LLC TIMELY PREFETCHES:       9466 LATE PREFETCHES: 0 DROPPED PREFETCHES: 0
LLC COMMIT LATE PREFETCHES: 0 MISSED OPPORTUNITY: 0 LATE IN PQ: 0 UNCOVERED: 0
LLC COMMIT LATE MSHR PREFETCHES: 0
LLC MPKI TOTAL: 0.760555 MSHR LATE: 0 PQ LATE: 0 COMMIT LATE: 0 MISSED OPPORTUNITY: 0 UNCOVERED: 0
LLC PREFETCHES SAME FILL-ORIGIN LEVEL: 0 DIFFERENT FILL-ORIGIN LEVEL: 0
LLC AVERAGE MISS LATENCY: 286.197 cycles
LLC AVERAGE MISS LATENCY LOAD: 213.438 cycles
LLC AVERAGE MISS LATENCY PREFETCH: 301.39 cycles
LLC AVERAGE MSHR OCCUPANCY: 7.02912
LLC MSHR FULL: 0
LLC RQ	ACCESS:     575841	FORWARD:          0	MERGED:          0	TO_CACHE:     575840
LLC WQ	ACCESS:    1232336	FORWARD:          6	MERGED:          0	TO_CACHE:    1232336
LLC PQ	ACCESS:    2195525	FORWARD:          0	MERGED:          0	TO_CACHE:    2195520

LLC Dense regions hint to LLC: 0

RAW hits: 148389
Loads Generated: 59115277
Loads sent to L1D: 58966885
Stores Generated: 10855289
Stores sent to L1D: 10855295
Major fault: 0 Minor fault: 10671
Allocated PAGES: 10671
Total Load insts: 73567404
Total Non-spec loads: 8063118
Percentage of speculative loads: 89.0398

LeapFrogging counter: 1333074
Commit hits: 32895700 miss: 18660186
Commit hit %: 63.8059 miss %: 36.1941
Commits not translated: 0
Loads retired: 783252
Stores retired: 10855295
Cache fills: 783252
L1D response latency: 116.67 cycles
Load retirement latency: 321.666 cycles
OOO test counter: 0
Discarded buffer inserts: 32895700 hits: 17131 hit %: 0.0520767
Filter prediction accuracy: 0.999427
ALL MISSES SIZE: 22861
LATENCY_FILL: 114.386 789339
LATENCY_FILL_ROB: 235.81 781112
test counter pref: 6808304
Max ROB Extended: 37

DRAM Statistics
 CHANNEL 0
 RQ ROW_BUFFER_HIT:     599932  ROW_BUFFER_MISS:    1682130
 DBUS_CONGESTED:       1906
 WQ ROW_BUFFER_HIT:     213258  ROW_BUFFER_MISS:     792645  FULL:        274

 AVG_CONGESTED_CYCLE: 5
 All warmup complete: 2
Channel 0 Bank busy for read cycles: 0
Channel 0 Bank busy for write cycles: 0
Channel 0
Rank 0
0banks busy for read cycles: 102384814
0banks busy for write cycles: 74462
1banks busy for read cycles: 34781594
1banks busy for write cycles: 10100569
2banks busy for read cycles: 17484943
2banks busy for write cycles: 3853621
3banks busy for read cycles: 9349169
3banks busy for write cycles: 2074261
4banks busy for read cycles: 7293704
4banks busy for write cycles: 1409497
5banks busy for read cycles: 5912121
5banks busy for write cycles: 1096256
6banks busy for read cycles: 5283942
6banks busy for write cycles: 1025568
7banks busy for read cycles: 5897610
7banks busy for write cycles: 2337492
8banks busy for read cycles: 8377158
8banks busy for write cycles: 17818895

CPU 0 Branch Prediction Accuracy: 99.8685% MPKI: 0.079065 Average ROB Occupancy at Mispredict: 109.143
Branch types
NOT_BRANCH: 187976341 93.9882%
BRANCH_DIRECT_JUMP: 290387 0.145193%
BRANCH_INDIRECT: 12 6e-06%
BRANCH_CONDITIONAL: 11132877 5.56644%
BRANCH_DIRECT_CALL: 300051 0.150025%
BRANCH_INDIRECT_CALL: 0 0%
BRANCH_RETURN: 300050 0.150025%
BRANCH_OTHER: 0 0%

DRAM PAGES: 1048576
Allocated PAGES: 10671
