
*** ChampSim Multicore Out-of-Order Simulator ***

Warmup Instructions: 50000000
Simulation Instructions: 200000000
Number of CPUs: 1
LLC sets: 2048
LLC ways: 16
L0D sets: 16
L0D ways: 2
ROB size: 352
LQ size: 128
SQ size: 72
Secure Berti: ON
Berti: ON
Berti Fill: ON
On commit prefetching: OFF
Hit-based filter: ON
Time-guarding: ON
Free-slotting: ON
Leap-frogging: ON
Train prefetcher on L0D bypass: OFF
No translation penalty for prefetchers: OFF
Prefetch to L0D only: OFF
Prefetch to L1D only: OFF
Clean evictions: ON
Commit loads: ON
Commit write: ON
Fill commit loads to L2C, LLC: ON
DRAM IO FREQUENCY: 6400
ROB SIZE: 352
Off-chip DRAM Size: 4096 MB Channels: 1 Width: 64-bit Data Rate: 6400 MT/s
CPU 0 runs /home/sumon/secure_berti/GhostMinion/../../traces/spec/621.wrf_s-8065B.champsimtrace.xz
.xz
BTB has LRU replacement policy
ITLB has LRU replacement policy
DTLB has LRU replacement policy
STLB has LRU replacement policy
L1I has LRU replacement policy
L0D has LRU replacement policy
Berti version on_commit
History Sets: 8
History Ways: 16
BERTI Size: 16
BERTI Stride Size: 16
L1D has LRU replacement policy
L2C has LRU replacement policy
LLC has LRU replacement policy
Heartbeat CPU 0 instructions: 10000000 cycles: 3214452 heartbeat IPC: 3.11095 cumulative IPC: 3.11095 (Simulation time: 0 hr 0 min 42 sec) 
Heartbeat CPU 0 instructions: 20000000 cycles: 6375354 heartbeat IPC: 3.16365 cumulative IPC: 3.13708 (Simulation time: 0 hr 1 min 16 sec) 
Heartbeat CPU 0 instructions: 30000000 cycles: 9523654 heartbeat IPC: 3.17632 cumulative IPC: 3.15005 (Simulation time: 0 hr 1 min 50 sec) 
Heartbeat CPU 0 instructions: 40000003 cycles: 12736300 heartbeat IPC: 3.1127 cumulative IPC: 3.14063 (Simulation time: 0 hr 2 min 25 sec) 
Heartbeat CPU 0 instructions: 50000002 cycles: 15910063 heartbeat IPC: 3.15083 cumulative IPC: 3.14267 (Simulation time: 0 hr 3 min 0 sec) 

Warmup complete CPU 0 instructions: 50000002 cycles: 15910063 (Simulation time: 0 hr 3 min 0 sec) 

Heartbeat CPU 0 instructions: 60000003 cycles: 24623171 heartbeat IPC: 1.1477 cumulative IPC: 1.1477 (Simulation time: 0 hr 3 min 40 sec) 
Heartbeat CPU 0 instructions: 70000003 cycles: 35578643 heartbeat IPC: 0.912786 cumulative IPC: 1.01685 (Simulation time: 0 hr 4 min 20 sec) 
Heartbeat CPU 0 instructions: 80000001 cycles: 44519915 heartbeat IPC: 1.11841 cumulative IPC: 1.04859 (Simulation time: 0 hr 5 min 1 sec) 
Heartbeat CPU 0 instructions: 90000000 cycles: 55288868 heartbeat IPC: 0.928595 cumulative IPC: 1.01577 (Simulation time: 0 hr 5 min 41 sec) 
Heartbeat CPU 0 instructions: 100000000 cycles: 64416564 heartbeat IPC: 1.09557 cumulative IPC: 1.03079 (Simulation time: 0 hr 6 min 24 sec) 
Heartbeat CPU 0 instructions: 110000000 cycles: 74997256 heartbeat IPC: 0.945118 cumulative IPC: 1.01545 (Simulation time: 0 hr 7 min 3 sec) 
Heartbeat CPU 0 instructions: 120000000 cycles: 87724544 heartbeat IPC: 0.785713 cumulative IPC: 0.974734 (Simulation time: 0 hr 7 min 51 sec) 
Heartbeat CPU 0 instructions: 130000002 cycles: 99742365 heartbeat IPC: 0.832098 cumulative IPC: 0.954286 (Simulation time: 0 hr 8 min 37 sec) 
Heartbeat CPU 0 instructions: 140000001 cycles: 111773420 heartbeat IPC: 0.831182 cumulative IPC: 0.938836 (Simulation time: 0 hr 9 min 22 sec) 
Heartbeat CPU 0 instructions: 150000002 cycles: 125129958 heartbeat IPC: 0.748697 cumulative IPC: 0.915584 (Simulation time: 0 hr 10 min 10 sec) 
Heartbeat CPU 0 instructions: 160000001 cycles: 138702173 heartbeat IPC: 0.736799 cumulative IPC: 0.895823 (Simulation time: 0 hr 10 min 56 sec) 
Heartbeat CPU 0 instructions: 170000003 cycles: 151586737 heartbeat IPC: 0.776123 cumulative IPC: 0.884456 (Simulation time: 0 hr 11 min 48 sec) 
Heartbeat CPU 0 instructions: 180000000 cycles: 160119094 heartbeat IPC: 1.17201 cumulative IPC: 0.901469 (Simulation time: 0 hr 12 min 27 sec) 
Heartbeat CPU 0 instructions: 190000001 cycles: 168239799 heartbeat IPC: 1.23142 cumulative IPC: 0.919059 (Simulation time: 0 hr 13 min 9 sec) 
Heartbeat CPU 0 instructions: 200000003 cycles: 177142592 heartbeat IPC: 1.12324 cumulative IPC: 0.930333 (Simulation time: 0 hr 13 min 50 sec) 
Heartbeat CPU 0 instructions: 210000000 cycles: 185919349 heartbeat IPC: 1.13937 cumulative IPC: 0.941125 (Simulation time: 0 hr 14 min 25 sec) 
Heartbeat CPU 0 instructions: 220000000 cycles: 193948345 heartbeat IPC: 1.24549 cumulative IPC: 0.954851 (Simulation time: 0 hr 15 min 3 sec) 
Heartbeat CPU 0 instructions: 230000000 cycles: 204945018 heartbeat IPC: 0.909366 cumulative IPC: 0.952205 (Simulation time: 0 hr 15 min 44 sec) 
Heartbeat CPU 0 instructions: 240000001 cycles: 218128212 heartbeat IPC: 0.758542 cumulative IPC: 0.939579 (Simulation time: 0 hr 16 min 29 sec) 
Heartbeat CPU 0 instructions: 250000000 cycles: 230746300 heartbeat IPC: 0.792513 cumulative IPC: 0.930942 (Simulation time: 0 hr 17 min 17 sec) 
Finished CPU 0 instructions: 200000000 cycles: 214836240 cumulative IPC: 0.930942 (Simulation time: 0 hr 17 min 17 sec) 
 Instruction ID: 250000036

ChampSim completed all CPUs

Region of Interest Statistics

CPU 0 cumulative IPC: 0.930942 instructions: 200000000 cycles: 214836240
ITLB SPEC fills:          0  NON-SPEC fills:          0
ITLB Test counter :          0
ITLB Leapfrog:          0
ITLB MSHR merge:          0
ITLB TOTAL     ACCESS:   27979058  HIT:   27978923  MISS:        135  HIT %:    99.9995  MISS %: 0.000482504   MPKI: 0.000675
ITLB LOAD TRANSLATION NON_SPEC    ACCESS:   27979058  HIT:   27978923  MISS:        135  HIT %:    99.9995  MISS %: 0.000482504   MPKI: 0.000675
ITLB PREFETCH  REQUESTED:          0  ISSUED:          0  USEFUL:          0  USELESS:          0
ITLB USEFUL LOAD PREFETCHES:          0 PREFETCH ISSUED TO LOWER LEVEL:          0  ACCURACY: -nan
ITLB TIMELY PREFETCHES:          0 LATE PREFETCHES: 0 DROPPED PREFETCHES: 0
ITLB COMMIT LATE PREFETCHES: 0 MISSED OPPORTUNITY: 0 LATE IN PQ: 0 UNCOVERED: 0
ITLB COMMIT LATE MSHR PREFETCHES: 0
ITLB MPKI TOTAL: 0 MSHR LATE: 0 PQ LATE: 0 COMMIT LATE: 0 MISSED OPPORTUNITY: 0 UNCOVERED: 0
ITLB PREFETCHES SAME FILL-ORIGIN LEVEL: 0 DIFFERENT FILL-ORIGIN LEVEL: 0
ITLB AVERAGE MISS LATENCY: 328.519 cycles
ITLB AVERAGE MISS LATENCY LOAD: -nan cycles
ITLB AVERAGE MISS LATENCY PREFETCH: -nan cycles
ITLB AVERAGE MSHR OCCUPANCY: 1.82279e-06
ITLB MSHR FULL: 0
ITLB RQ	ACCESS:   34159147	FORWARD:          0	MERGED:    6180040	TO_CACHE:   27979107

DTLB SPEC fills:          0  NON-SPEC fills:          0
DTLB Test counter :          0
DTLB Leapfrog:          0
DTLB MSHR merge:          0
DTLB TOTAL     ACCESS:   50400859  HIT:   50329473  MISS:      71386  HIT %:    99.8584  MISS %:   0.141636   MPKI: 0.35693
DTLB LOAD TRANSLATION NON_SPEC    ACCESS:   50400859  HIT:   50329473  MISS:      71386  HIT %:    99.8584  MISS %:   0.141636   MPKI: 0.35693
DTLB PREFETCH  REQUESTED:          0  ISSUED:          0  USEFUL:          0  USELESS:          0
DTLB USEFUL LOAD PREFETCHES:          0 PREFETCH ISSUED TO LOWER LEVEL:          0  ACCURACY: -nan
DTLB TIMELY PREFETCHES:          0 LATE PREFETCHES: 0 DROPPED PREFETCHES: 0
DTLB COMMIT LATE PREFETCHES: 0 MISSED OPPORTUNITY: 0 LATE IN PQ: 0 UNCOVERED: 0
DTLB COMMIT LATE MSHR PREFETCHES: 0
DTLB MPKI TOTAL: 0 MSHR LATE: 0 PQ LATE: 0 COMMIT LATE: 0 MISSED OPPORTUNITY: 0 UNCOVERED: 0
DTLB PREFETCHES SAME FILL-ORIGIN LEVEL: 0 DIFFERENT FILL-ORIGIN LEVEL: 0
DTLB AVERAGE MISS LATENCY: 30.1849 cycles
DTLB AVERAGE MISS LATENCY LOAD: -nan cycles
DTLB AVERAGE MISS LATENCY PREFETCH: -nan cycles
DTLB AVERAGE MSHR OCCUPANCY: 0.00613668
DTLB MSHR FULL: 5.5106e-05
DTLB RQ	ACCESS:   57468854	FORWARD:          0	MERGED:    7023273	TO_CACHE:   50445581

STLB SPEC fills:          0  NON-SPEC fills:          0
STLB Test counter :          0
STLB Leapfrog:          0
STLB MSHR merge:          0
STLB TOTAL     ACCESS:   13264312  HIT:   13248737  MISS:      15575  HIT %:    99.8826  MISS %:    0.11742   MPKI: 0.077875
STLB LOAD TRANSLATION NON_SPEC    ACCESS:      71521  HIT:      63569  MISS:       7952  HIT %:    88.8816  MISS %:    11.1184   MPKI: 0.03976
STLB TRANSLATION FROM L1D PREFETCHER NON_SPEC    ACCESS:   13192791  HIT:   13185168  MISS:       7623  HIT %:    99.9422  MISS %:  0.0577816   MPKI: 0.038115
STLB PREFETCH  REQUESTED:          0  ISSUED:          0  USEFUL:       7613  USELESS:          9
STLB USEFUL LOAD PREFETCHES:       7613 PREFETCH ISSUED TO LOWER LEVEL:          0  ACCURACY: inf
STLB TIMELY PREFETCHES:       7613 LATE PREFETCHES: 1664 DROPPED PREFETCHES: 18431
STLB COMMIT LATE PREFETCHES: 0 MISSED OPPORTUNITY: 0 LATE IN PQ: 0 UNCOVERED: 0
STLB COMMIT LATE MSHR PREFETCHES: 0
STLB MPKI TOTAL: 0 MSHR LATE: 0.00832 PQ LATE: 0 COMMIT LATE: 0 MISSED OPPORTUNITY: 0 UNCOVERED: 0
STLB PREFETCHES SAME FILL-ORIGIN LEVEL: 0 DIFFERENT FILL-ORIGIN LEVEL: 0
STLB AVERAGE MISS LATENCY: 151.017 cycles
STLB AVERAGE MISS LATENCY LOAD: -nan cycles
STLB AVERAGE MISS LATENCY PREFETCH: -nan cycles
STLB AVERAGE MSHR OCCUPANCY: 0.0147228
STLB MSHR FULL: 0
STLB RQ	ACCESS:   61132238	FORWARD:          0	MERGED:   47843229	TO_CACHE:   13289009

STLB Hit, L1D data hit: 0
STLB Hit, L2C data hit: 0
STLB Hit, LLC data hit: 0
STLB Hit, LLC data miss: 0
STLB STLB hints to L2: 0
L0D SPEC fills:   33556181  NON-SPEC fills:          0
L0D TimeGuard Request with older TS:     564263 Restricted eviction:     537692 read:    1368235
L0D Test counter :          0
L0D Leapfrog:          0
L0D MSHR merge:    1791190
L0D TOTAL     ACCESS:   47180189  HIT:    6645251  MISS:   40534938  HIT %:    14.0848  MISS %:    85.9152   MPKI: 202.675
L0D LOAD      TOTAL       ACCESS:   47180189  HIT:    6645251  MISS:   40534938  HIT %:    14.0848  MISS %:    85.9152   MPKI: 202.675
L0D LOAD      NON_SPEC    ACCESS:    7728017  HIT:    1286829  MISS:    6441188  HIT %:    16.6515  MISS %:    83.3485   MPKI: 32.2059
L0D LOAD      SPEC        ACCESS:   39452172  HIT:    5358422  MISS:   34093750  HIT %:    13.5821  MISS %:    86.4179   MPKI: 170.469
L0D PREFETCH  REQUESTED:          0  ISSUED:          0  USEFUL:          0  USELESS:          0
L0D USEFUL LOAD PREFETCHES:          0 PREFETCH ISSUED TO LOWER LEVEL:          0  ACCURACY: -nan
L0D TIMELY PREFETCHES:          0 LATE PREFETCHES: 0 DROPPED PREFETCHES: 0
L0D COMMIT LATE PREFETCHES: 0 MISSED OPPORTUNITY: 0 LATE IN PQ: 0 UNCOVERED: 0
L0D COMMIT LATE MSHR PREFETCHES: 0
L0D MPKI TOTAL: 211.631 MSHR LATE: 0 PQ LATE: 0 COMMIT LATE: 0 MISSED OPPORTUNITY: 0 UNCOVERED: 0
L0D PREFETCHES SAME FILL-ORIGIN LEVEL: 0 DIFFERENT FILL-ORIGIN LEVEL: 0
L0D AVERAGE MISS LATENCY: 6.36851 cycles
L0D AVERAGE MISS LATENCY LOAD: 6.36851 cycles
L0D AVERAGE MISS LATENCY PREFETCH: -nan cycles
L0D AVERAGE MSHR OCCUPANCY: 1.67016
L0D MSHR FULL: 0.0343493
L0D RQ	ACCESS:   60841499	FORWARD:          0	MERGED:   11870124	TO_CACHE:   48971375
L0D WQ	ACCESS:    8497479	FORWARD:          0	MERGED:          0	TO_CACHE:    8497479

L1D SPEC fills:          0  NON-SPEC fills:      16584
L1D Test counter :     216640
L1D Leapfrog:          0
L1D MSHR merge:      69573
L1D TOTAL     ACCESS:   88505435  HIT:   85450929  MISS:    3054506  HIT %:    96.5488  MISS %:    3.45121   MPKI: 15.2725
L1D LOAD      TOTAL       ACCESS:   40530569  HIT:   40049704  MISS:     480865  HIT %:    98.8136  MISS %:    1.18643   MPKI: 2.40433
L1D LOAD      NON_SPEC    ACCESS:    6441026  HIT:    6424442  MISS:      16584  HIT %:    99.7425  MISS %:   0.257475   MPKI: 0.08292
L1D LOAD      SPEC        ACCESS:   34089543  HIT:   33625262  MISS:     464281  HIT %:    98.6381  MISS %:    1.36195   MPKI: 2.3214
L1D RFO       NON_SPEC    ACCESS:    7012781  HIT:    6704436  MISS:     308345  HIT %:    95.6031  MISS %:     4.3969   MPKI: 1.54173
L1D PREFETCH  NON_SPEC    ACCESS:   40197972  HIT:   38359381  MISS:    1838591  HIT %:    95.4262  MISS %:    4.57384   MPKI: 9.19295
L1D COMMIT LOAD NON_SPEC    ACCESS:     325211  HIT:     293267  MISS:      31944  HIT %:    90.1775  MISS %:    9.82255   MPKI: 0.15972
L1D COMMIT WRITE NON_SPEC    ACCESS:     438902  HIT:      44141  MISS:     394761  HIT %:    10.0571  MISS %:    89.9429   MPKI: 1.97381
L1D PREFETCH  REQUESTED:  108564354  ISSUED:   65985522  USEFUL:    1769120  USELESS:      69472
L1D USEFUL LOAD PREFETCHES:    1769120 PREFETCH ISSUED TO LOWER LEVEL:   21712773  ACCURACY: 8.14783
L1D TIMELY PREFETCHES:    1769120 LATE PREFETCHES: 66967 DROPPED PREFETCHES: 36276
L1D COMMIT LATE PREFETCHES: 0 MISSED OPPORTUNITY: 0 LATE IN PQ: 0 UNCOVERED: 0
L1D COMMIT LATE MSHR PREFETCHES: 0
L1D MPKI TOTAL: 2.42617 MSHR LATE: 0.334835 PQ LATE: 0 COMMIT LATE: 0 MISSED OPPORTUNITY: 0 UNCOVERED: 0
L1D PREFETCHES SAME FILL-ORIGIN LEVEL: 1906054 DIFFERENT FILL-ORIGIN LEVEL: 19806719
L1D AVERAGE MISS LATENCY: 78.4561 cycles
L1D AVERAGE MISS LATENCY LOAD: 96.1708 cycles
L1D AVERAGE MISS LATENCY PREFETCH: 55.0904 cycles
L1D AVERAGE MSHR OCCUPANCY: 0.878177
L1D MSHR FULL: 0.00889552
L1D RQ	ACCESS:   41110889	FORWARD:          0	MERGED:     178724	TO_CACHE:   40862762
L1D WQ	ACCESS:    8381021	FORWARD:      69403	MERGED:      44822	TO_CACHE:    8336199
L1D PQ	ACCESS:   65985522	FORWARD:          0	MERGED:    4924805	TO_CACHE:   61060717

L1D UNIQUE REGIONS ACCESSED: 0
L1D REGIONS CONFLICTS: 0
L1D Cross Page Prefetch Requests: 9048538
L1D Same Page Prefetch Requests: 77742355
L1D ROI Sum of L1D PQ occupancy: 1047577551
L1D PREFETCHES PUSHED FROM L2C: 0
L1I SPEC fills:          0  NON-SPEC fills:          0
L1I Test counter :          0
L1I Leapfrog:          0
L1I MSHR merge:       2414
L1I TOTAL     ACCESS:   34156732  HIT:   34151934  MISS:       4798  HIT %:     99.986  MISS %:   0.014047   MPKI: 0.02399
L1I LOAD      TOTAL       ACCESS:   34156732  HIT:   34151934  MISS:       4798  HIT %:     99.986  MISS %:   0.014047   MPKI: 0.02399
L1I LOAD      NON_SPEC    ACCESS:   34156732  HIT:   34151934  MISS:       4798  HIT %:     99.986  MISS %:   0.014047   MPKI: 0.02399
L1I PREFETCH  REQUESTED:          0  ISSUED:          0  USEFUL:          0  USELESS:          0
L1I USEFUL LOAD PREFETCHES:          0 PREFETCH ISSUED TO LOWER LEVEL:          0  ACCURACY: -nan
L1I TIMELY PREFETCHES:          0 LATE PREFETCHES: 0 DROPPED PREFETCHES: 0
L1I COMMIT LATE PREFETCHES: 0 MISSED OPPORTUNITY: 0 LATE IN PQ: 0 UNCOVERED: 0
L1I COMMIT LATE MSHR PREFETCHES: 0
L1I MPKI TOTAL: 0.03606 MSHR LATE: 0 PQ LATE: 0 COMMIT LATE: 0 MISSED OPPORTUNITY: 0 UNCOVERED: 0
L1I PREFETCHES SAME FILL-ORIGIN LEVEL: 0 DIFFERENT FILL-ORIGIN LEVEL: 0
L1I AVERAGE MISS LATENCY: 217.735 cycles
L1I AVERAGE MISS LATENCY LOAD: 217.735 cycles
L1I AVERAGE MISS LATENCY PREFETCH: -nan cycles
L1I AVERAGE MSHR OCCUPANCY: 0.000182469
L1I MSHR FULL: 0
L1I RQ	ACCESS:   50930202	FORWARD:          0	MERGED:   16771055	TO_CACHE:   34159147

BTB SPEC fills:          0  NON-SPEC fills:          0
BTB Test counter :          0
BTB Leapfrog:          0
BTB MSHR merge:          0
BTB TOTAL     ACCESS:    8324261  HIT:    8322678  MISS:       1583  HIT %:     99.981  MISS %:  0.0190167   MPKI: 0.007915
BTB BRANCH_DIRECT_JUMP	ACCESS:     290669  HIT:     290546  MISS:        123
BTB BRANCH_INDIRECT	ACCESS:         14  HIT:          6  MISS:          8
BTB BRANCH_CONDITIONAL	ACCESS:    7471641  HIT:    7470905  MISS:        736
BTB BRANCH_DIRECT_CALL	ACCESS:     280969  HIT:     280663  MISS:        306
BTB BRANCH_INDIRECT_CALL	ACCESS:          0  HIT:          0  MISS:          0
BTB BRANCH_RETURN	ACCESS:     280968  HIT:     280558  MISS:        410
BTB BRANCH_OTHER ACCESS:          0  HIT:          0  MISS:          0

L2C SPEC fills:          0  NON-SPEC fills:       4892
L2C Test counter :     197878
L2C Leapfrog:          0
L2C MSHR merge:      36329
L2C TOTAL     ACCESS:   21782861  HIT:   19849454  MISS:    1933407  HIT %:    91.1242  MISS %:    8.87582   MPKI: 9.66704
L2C LOAD      TOTAL       ACCESS:     420272  HIT:     279722  MISS:     140550  HIT %:    66.5574  MISS %:    33.4426   MPKI: 0.70275
L2C LOAD      NON_SPEC    ACCESS:      19850  HIT:      10160  MISS:       9690  HIT %:    51.1839  MISS %:    48.8161   MPKI: 0.04845
L2C LOAD      SPEC        ACCESS:     400422  HIT:     269562  MISS:     130860  HIT %:    67.3195  MISS %:    32.6805   MPKI: 0.6543
L2C RFO       NON_SPEC    ACCESS:     308186  HIT:      67848  MISS:     240338  HIT %:    22.0153  MISS %:    77.9847   MPKI: 1.20169
L2C PREFETCH  NON_SPEC    ACCESS:   19953698  HIT:   18518275  MISS:    1435423  HIT %:    92.8062  MISS %:    7.19377   MPKI: 7.17711
L2C WRITEBACK NON_SPEC    ACCESS:     681039  HIT:     679001  MISS:       2038  HIT %:    99.7008  MISS %:   0.299249   MPKI: 0.01019
L2C CLEAN_EVICTION NON_SPEC    ACCESS:     216640  HIT:     107623  MISS:     109017  HIT %:    49.6783  MISS %:    50.3217   MPKI: 0.545085
L2C COMMIT LOAD NON_SPEC    ACCESS:      30182  HIT:      27114  MISS:       3068  HIT %:     89.835  MISS %:     10.165   MPKI: 0.01534
L2C LOAD TRANSLATION NON_SPEC    ACCESS:      34264  HIT:      32892  MISS:       1372  HIT %:    95.9958  MISS %:     4.0042   MPKI: 0.00686
L2C TRANSLATION FROM L1D PREFETCHER NON_SPEC    ACCESS:     138580  HIT:     136979  MISS:       1601  HIT %:    98.8447  MISS %:    1.15529   MPKI: 0.008005
L2C PREFETCH  REQUESTED:          0  ISSUED:          0  USEFUL:     169951  USELESS:    1264372
L2C USEFUL LOAD PREFETCHES:     169951 PREFETCH ISSUED TO LOWER LEVEL:    1474792  ACCURACY: 11.5237
L2C TIMELY PREFETCHES:     169951 LATE PREFETCHES: 39369 DROPPED PREFETCHES: 0
L2C COMMIT LATE PREFETCHES: 0 MISSED OPPORTUNITY: 0 LATE IN PQ: 0 UNCOVERED: 0
L2C COMMIT LATE MSHR PREFETCHES: 0
L2C MPKI TOTAL: 0.70275 MSHR LATE: 0.196845 PQ LATE: 0 COMMIT LATE: 0 MISSED OPPORTUNITY: 0 UNCOVERED: 0
L2C PREFETCHES SAME FILL-ORIGIN LEVEL: 1044561 DIFFERENT FILL-ORIGIN LEVEL: 0
L2C AVERAGE MISS LATENCY: 202.298 cycles
L2C AVERAGE MISS LATENCY LOAD: 211.279 cycles
L2C AVERAGE MISS LATENCY PREFETCH: 190.518 cycles
L2C AVERAGE MSHR OCCUPANCY: 6.39577
L2C MSHR FULL: 0.0331124
L2C RQ	ACCESS:     931703	FORWARD:          0	MERGED:          0	TO_CACHE:     931484
L2C WQ	ACCESS:     897682	FORWARD:        305	MERGED:          3	TO_CACHE:     897679
L2C PQ	ACCESS:   21707634	FORWARD:          0	MERGED:       1650	TO_CACHE:   21705898

L2C Instructions Evicting Data 4772
L2C Translations Evicting Data 2965
L2C Data Evicting Data 1676369
L2C Instructions Evicting Instructions 10
L2C Translations Evicting Instructions 6
L2C Data Evicting Instructions 4598
L2C Instructions Evicting Translations 16
L2C Translations Evicting Translations 2
L2C Data Evicting Translations 2754
L2C Dense regions hint from L2: 0
PSCL5 SPEC fills:          0  NON-SPEC fills:          0
PSCL5 Test counter :          0
PSCL5 Leapfrog:          0
PSCL5 MSHR merge:          0
PSCL5 TOTAL     ACCESS:          0  HIT:          0  MISS:          0  HIT %:       -nan  MISS %:       -nan   MPKI: 0
PSCL5 PREFETCH  REQUESTED:          0  ISSUED:          0  USEFUL:          0  USELESS:          0
PSCL5 USEFUL LOAD PREFETCHES:          0 PREFETCH ISSUED TO LOWER LEVEL:          0  ACCURACY: -nan
PSCL5 TIMELY PREFETCHES:          0 LATE PREFETCHES: 0 DROPPED PREFETCHES: 0
PSCL5 COMMIT LATE PREFETCHES: 0 MISSED OPPORTUNITY: 0 LATE IN PQ: 0 UNCOVERED: 0
PSCL5 COMMIT LATE MSHR PREFETCHES: 0
PSCL5 MPKI TOTAL: 0 MSHR LATE: 0 PQ LATE: 0 COMMIT LATE: 0 MISSED OPPORTUNITY: 0 UNCOVERED: 0
PSCL5 PREFETCHES SAME FILL-ORIGIN LEVEL: 0 DIFFERENT FILL-ORIGIN LEVEL: 0

PSCL4 SPEC fills:          0  NON-SPEC fills:          0
PSCL4 Test counter :          0
PSCL4 Leapfrog:          0
PSCL4 MSHR merge:          0
PSCL4 TOTAL     ACCESS:          0  HIT:          0  MISS:          0  HIT %:       -nan  MISS %:       -nan   MPKI: 0
PSCL4 PREFETCH  REQUESTED:          0  ISSUED:          0  USEFUL:          0  USELESS:          0
PSCL4 USEFUL LOAD PREFETCHES:          0 PREFETCH ISSUED TO LOWER LEVEL:          0  ACCURACY: -nan
PSCL4 TIMELY PREFETCHES:          0 LATE PREFETCHES: 0 DROPPED PREFETCHES: 0
PSCL4 COMMIT LATE PREFETCHES: 0 MISSED OPPORTUNITY: 0 LATE IN PQ: 0 UNCOVERED: 0
PSCL4 COMMIT LATE MSHR PREFETCHES: 0
PSCL4 MPKI TOTAL: 0 MSHR LATE: 0 PQ LATE: 0 COMMIT LATE: 0 MISSED OPPORTUNITY: 0 UNCOVERED: 0
PSCL4 PREFETCHES SAME FILL-ORIGIN LEVEL: 0 DIFFERENT FILL-ORIGIN LEVEL: 0

PSCL3 SPEC fills:          0  NON-SPEC fills:          0
PSCL3 Test counter :          0
PSCL3 Leapfrog:          0
PSCL3 MSHR merge:          0
PSCL3 TOTAL     ACCESS:          0  HIT:          0  MISS:          0  HIT %:       -nan  MISS %:       -nan   MPKI: 0
PSCL3 PREFETCH  REQUESTED:          0  ISSUED:          0  USEFUL:          0  USELESS:          0
PSCL3 USEFUL LOAD PREFETCHES:          0 PREFETCH ISSUED TO LOWER LEVEL:          0  ACCURACY: -nan
PSCL3 TIMELY PREFETCHES:          0 LATE PREFETCHES: 0 DROPPED PREFETCHES: 0
PSCL3 COMMIT LATE PREFETCHES: 0 MISSED OPPORTUNITY: 0 LATE IN PQ: 0 UNCOVERED: 0
PSCL3 COMMIT LATE MSHR PREFETCHES: 0
PSCL3 MPKI TOTAL: 0 MSHR LATE: 0 PQ LATE: 0 COMMIT LATE: 0 MISSED OPPORTUNITY: 0 UNCOVERED: 0
PSCL3 PREFETCHES SAME FILL-ORIGIN LEVEL: 0 DIFFERENT FILL-ORIGIN LEVEL: 0

PSCL2 SPEC fills:          0  NON-SPEC fills:          0
PSCL2 Test counter :          0
PSCL2 Leapfrog:          0
PSCL2 MSHR merge:          0
PSCL2 TOTAL     ACCESS:          0  HIT:          0  MISS:          0  HIT %:       -nan  MISS %:       -nan   MPKI: 0
PSCL2 PREFETCH  REQUESTED:          0  ISSUED:          0  USEFUL:          0  USELESS:          0
PSCL2 USEFUL LOAD PREFETCHES:          0 PREFETCH ISSUED TO LOWER LEVEL:          0  ACCURACY: -nan
PSCL2 TIMELY PREFETCHES:          0 LATE PREFETCHES: 0 DROPPED PREFETCHES: 0
PSCL2 COMMIT LATE PREFETCHES: 0 MISSED OPPORTUNITY: 0 LATE IN PQ: 0 UNCOVERED: 0
PSCL2 COMMIT LATE MSHR PREFETCHES: 0
PSCL2 MPKI TOTAL: 0 MSHR LATE: 0 PQ LATE: 0 COMMIT LATE: 0 MISSED OPPORTUNITY: 0 UNCOVERED: 0
PSCL2 PREFETCHES SAME FILL-ORIGIN LEVEL: 0 DIFFERENT FILL-ORIGIN LEVEL: 0

LLC SPEC fills:          0  NON-SPEC fills:       3204
LLC Test counter :     190935
LLC Leapfrog:          0
LLC MSHR merge:          0
LLC TOTAL     ACCESS:    2605337  HIT:    1152074  MISS:    1453263  HIT %:    44.2198  MISS %:    55.7802   MPKI: 7.26631
LLC LOAD      TOTAL       ACCESS:     104220  HIT:      13420  MISS:      90800  HIT %:    12.8766  MISS %:    87.1234   MPKI: 0.454
LLC LOAD      NON_SPEC    ACCESS:       9137  HIT:       1135  MISS:       8002  HIT %:     12.422  MISS %:     87.578   MPKI: 0.04001
LLC LOAD      SPEC        ACCESS:      95083  HIT:      12285  MISS:      82798  HIT %:    12.9203  MISS %:    87.0797   MPKI: 0.41399
LLC RFO       NON_SPEC    ACCESS:     237891  HIT:      14098  MISS:     223793  HIT %:    5.92624  MISS %:    94.0738   MPKI: 1.11896
LLC PREFETCH  NON_SPEC    ACCESS:    1474788  HIT:     417333  MISS:    1057455  HIT %:    28.2978  MISS %:    71.7022   MPKI: 5.28728
LLC WRITEBACK NON_SPEC    ACCESS:     585113  HIT:     583710  MISS:       1403  HIT %:    99.7602  MISS %:   0.239783   MPKI: 0.007015
LLC CLEAN_EVICTION NON_SPEC    ACCESS:     197878  HIT:     122179  MISS:      75699  HIT %:    61.7446  MISS %:    38.2554   MPKI: 0.378495
LLC COMMIT LOAD NON_SPEC    ACCESS:       2474  HIT:       1085  MISS:       1389  HIT %:    43.8561  MISS %:    56.1439   MPKI: 0.006945
LLC LOAD TRANSLATION NON_SPEC    ACCESS:       1372  HIT:        166  MISS:       1206  HIT %:    12.0991  MISS %:    87.9009   MPKI: 0.00603
LLC TRANSLATION FROM L1D PREFETCHER NON_SPEC    ACCESS:       1601  HIT:         83  MISS:       1518  HIT %:    5.18426  MISS %:    94.8157   MPKI: 0.00759
LLC PREFETCH  REQUESTED:          0  ISSUED:          0  USEFUL:      14610  USELESS:    1034072
LLC USEFUL LOAD PREFETCHES:      14610 PREFETCH ISSUED TO LOWER LEVEL:    1057455  ACCURACY: 1.38162
LLC TIMELY PREFETCHES:      14610 LATE PREFETCHES: 0 DROPPED PREFETCHES: 0
LLC COMMIT LATE PREFETCHES: 0 MISSED OPPORTUNITY: 0 LATE IN PQ: 0 UNCOVERED: 0
LLC COMMIT LATE MSHR PREFETCHES: 0
LLC MPKI TOTAL: 0.454 MSHR LATE: 0 PQ LATE: 0 COMMIT LATE: 0 MISSED OPPORTUNITY: 0 UNCOVERED: 0
LLC PREFETCHES SAME FILL-ORIGIN LEVEL: 0 DIFFERENT FILL-ORIGIN LEVEL: 0
LLC AVERAGE MISS LATENCY: 234.456 cycles
LLC AVERAGE MISS LATENCY LOAD: 212.212 cycles
LLC AVERAGE MISS LATENCY PREFETCH: 228.534 cycles
LLC AVERAGE MSHR OCCUPANCY: 6.12913
LLC MSHR FULL: 0
LLC RQ	ACCESS:     347560	FORWARD:          0	MERGED:          0	TO_CACHE:     347558
LLC WQ	ACCESS:     782992	FORWARD:          6	MERGED:          0	TO_CACHE:     782992
LLC PQ	ACCESS:    1474792	FORWARD:          0	MERGED:          0	TO_CACHE:    1474788

LLC Dense regions hint to LLC: 0

RAW hits: 207728
Loads Generated: 61049229
Loads sent to L1D: 60841499
Stores Generated: 8497471
Stores sent to L1D: 8497479
Major fault: 0 Minor fault: 8737
Allocated PAGES: 8737
Total Load insts: 77035291
Total Non-spec loads: 8599767
Percentage of speculative loads: 88.8366

LeapFrogging counter: 332963
Commit hits: 33052309 miss: 19614016
Commit hit %: 62.758 miss %: 37.242
Commits not translated: 0
Loads retired: 480865
Stores retired: 8497479
Cache fills: 480865
L1D response latency: 96.1708 cycles
Load retirement latency: 204.522 cycles
OOO test counter: 0
Discarded buffer inserts: 33052309 hits: 10879 hit %: 0.0329145
Filter prediction accuracy: 0.999684
ALL MISSES SIZE: 10789
LATENCY_FILL: 94.6564 484440
LATENCY_FILL_ROB: 179.359 483434
test counter pref: 4266295
Max ROB Extended: 34

DRAM Statistics
 CHANNEL 0
 RQ ROW_BUFFER_HIT:     293939  ROW_BUFFER_MISS:    1082134
 DBUS_CONGESTED:        482
 WQ ROW_BUFFER_HIT:     128332  ROW_BUFFER_MISS:     469143  FULL:        886

 AVG_CONGESTED_CYCLE: 4
 All warmup complete: 2
Channel 0 Bank busy for read cycles: 0
Channel 0 Bank busy for write cycles: 0
Channel 0
Rank 0
0banks busy for read cycles: 109854138
0banks busy for write cycles: 81790
1banks busy for read cycles: 36215611
1banks busy for write cycles: 10531391
2banks busy for read cycles: 15190317
2banks busy for write cycles: 3597564
3banks busy for read cycles: 8537363
3banks busy for write cycles: 1571067
4banks busy for read cycles: 4903468
4banks busy for write cycles: 922440
5banks busy for read cycles: 3377041
5banks busy for write cycles: 676817
6banks busy for read cycles: 2477257
6banks busy for write cycles: 601189
7banks busy for read cycles: 2346757
7banks busy for write cycles: 1256475
8banks busy for read cycles: 2740115
8banks busy for write cycles: 9955441

CPU 0 Branch Prediction Accuracy: 99.8281% MPKI: 0.09468 Average ROB Occupancy at Mispredict: 140.016
Branch types
NOT_BRANCH: 188985980 94.493%
BRANCH_DIRECT_JUMP: 290669 0.145335%
BRANCH_INDIRECT: 14 7e-06%
BRANCH_CONDITIONAL: 10161052 5.08053%
BRANCH_DIRECT_CALL: 280969 0.140485%
BRANCH_INDIRECT_CALL: 0 0%
BRANCH_RETURN: 280968 0.140484%
BRANCH_OTHER: 0 0%

DRAM PAGES: 1048576
Allocated PAGES: 8737
