
*** ChampSim Multicore Out-of-Order Simulator ***

Warmup Instructions: 50000000
Simulation Instructions: 200000000
Number of CPUs: 1
LLC sets: 2048
LLC ways: 16
L0D sets: 16
L0D ways: 2
ROB size: 352
LQ size: 128
SQ size: 72
Secure Berti: ON
Berti: ON
Berti Fill: ON
On commit prefetching: OFF
Hit-based filter: ON
Time-guarding: ON
Free-slotting: ON
Leap-frogging: ON
Train prefetcher on L0D bypass: OFF
No translation penalty for prefetchers: OFF
Prefetch to L0D only: OFF
Prefetch to L1D only: OFF
Clean evictions: ON
Commit loads: ON
Commit write: ON
Fill commit loads to L2C, LLC: ON
DRAM IO FREQUENCY: 6400
ROB SIZE: 352
Off-chip DRAM Size: 4096 MB Channels: 1 Width: 64-bit Data Rate: 6400 MT/s
CPU 0 runs /home/sumon/secure_berti/GhostMinion/../../traces/spec/649.fotonik3d_s-8225B.champsimtrace.xz
.xz
BTB has LRU replacement policy
ITLB has LRU replacement policy
DTLB has LRU replacement policy
STLB has LRU replacement policy
L1I has LRU replacement policy
L0D has LRU replacement policy
Berti version on_commit
History Sets: 8
History Ways: 16
BERTI Size: 16
BERTI Stride Size: 16
L1D has LRU replacement policy
L2C has LRU replacement policy
LLC has LRU replacement policy
Heartbeat CPU 0 instructions: 10000000 cycles: 3138204 heartbeat IPC: 3.18654 cumulative IPC: 3.18654 (Simulation time: 0 hr 0 min 30 sec) 
Heartbeat CPU 0 instructions: 20000001 cycles: 6276317 heartbeat IPC: 3.18663 cumulative IPC: 3.18658 (Simulation time: 0 hr 1 min 0 sec) 
Heartbeat CPU 0 instructions: 30000000 cycles: 9414359 heartbeat IPC: 3.1867 cumulative IPC: 3.18662 (Simulation time: 0 hr 1 min 31 sec) 
Heartbeat CPU 0 instructions: 40000002 cycles: 12552418 heartbeat IPC: 3.18668 cumulative IPC: 3.18664 (Simulation time: 0 hr 2 min 1 sec) 
Heartbeat CPU 0 instructions: 50000001 cycles: 15690453 heartbeat IPC: 3.18671 cumulative IPC: 3.18665 (Simulation time: 0 hr 2 min 31 sec) 

Warmup complete CPU 0 instructions: 50000001 cycles: 15690453 (Simulation time: 0 hr 2 min 31 sec) 

Heartbeat CPU 0 instructions: 60000000 cycles: 25669689 heartbeat IPC: 1.00208 cumulative IPC: 1.00208 (Simulation time: 0 hr 3 min 4 sec) 
Heartbeat CPU 0 instructions: 70000001 cycles: 35654226 heartbeat IPC: 1.00155 cumulative IPC: 1.00181 (Simulation time: 0 hr 3 min 35 sec) 
Heartbeat CPU 0 instructions: 80000002 cycles: 45634578 heartbeat IPC: 1.00197 cumulative IPC: 1.00187 (Simulation time: 0 hr 4 min 6 sec) 
Heartbeat CPU 0 instructions: 90000003 cycles: 55613439 heartbeat IPC: 1.00212 cumulative IPC: 1.00193 (Simulation time: 0 hr 4 min 36 sec) 
Heartbeat CPU 0 instructions: 100000000 cycles: 65596301 heartbeat IPC: 1.00172 cumulative IPC: 1.00189 (Simulation time: 0 hr 5 min 8 sec) 
Heartbeat CPU 0 instructions: 110000000 cycles: 75577046 heartbeat IPC: 1.00193 cumulative IPC: 1.00189 (Simulation time: 0 hr 5 min 40 sec) 
Heartbeat CPU 0 instructions: 120000002 cycles: 85560088 heartbeat IPC: 1.0017 cumulative IPC: 1.00187 (Simulation time: 0 hr 6 min 11 sec) 
Heartbeat CPU 0 instructions: 130000003 cycles: 95554980 heartbeat IPC: 1.00051 cumulative IPC: 1.0017 (Simulation time: 0 hr 6 min 42 sec) 
Heartbeat CPU 0 instructions: 140000002 cycles: 105549607 heartbeat IPC: 1.00054 cumulative IPC: 1.00157 (Simulation time: 0 hr 7 min 14 sec) 
Heartbeat CPU 0 instructions: 150000003 cycles: 115545913 heartbeat IPC: 1.00037 cumulative IPC: 1.00145 (Simulation time: 0 hr 7 min 47 sec) 
Heartbeat CPU 0 instructions: 160000000 cycles: 125543184 heartbeat IPC: 1.00027 cumulative IPC: 1.00134 (Simulation time: 0 hr 8 min 19 sec) 
Heartbeat CPU 0 instructions: 170000001 cycles: 135541771 heartbeat IPC: 1.00014 cumulative IPC: 1.00124 (Simulation time: 0 hr 8 min 51 sec) 
Heartbeat CPU 0 instructions: 180000000 cycles: 145536651 heartbeat IPC: 1.00051 cumulative IPC: 1.00118 (Simulation time: 0 hr 9 min 23 sec) 
Heartbeat CPU 0 instructions: 190000001 cycles: 155533292 heartbeat IPC: 1.00034 cumulative IPC: 1.00112 (Simulation time: 0 hr 9 min 54 sec) 
Heartbeat CPU 0 instructions: 200000003 cycles: 165529950 heartbeat IPC: 1.00033 cumulative IPC: 1.00107 (Simulation time: 0 hr 10 min 26 sec) 
Heartbeat CPU 0 instructions: 210000000 cycles: 175524481 heartbeat IPC: 1.00055 cumulative IPC: 1.00104 (Simulation time: 0 hr 10 min 58 sec) 
Heartbeat CPU 0 instructions: 220000000 cycles: 185520695 heartbeat IPC: 1.00038 cumulative IPC: 1.001 (Simulation time: 0 hr 11 min 30 sec) 
Heartbeat CPU 0 instructions: 230000000 cycles: 195517998 heartbeat IPC: 1.00027 cumulative IPC: 1.00096 (Simulation time: 0 hr 12 min 2 sec) 
Heartbeat CPU 0 instructions: 240000003 cycles: 205515049 heartbeat IPC: 1.0003 cumulative IPC: 1.00092 (Simulation time: 0 hr 12 min 34 sec) 
Heartbeat CPU 0 instructions: 250000000 cycles: 215509684 heartbeat IPC: 1.00054 cumulative IPC: 1.0009 (Simulation time: 0 hr 13 min 6 sec) 
Finished CPU 0 instructions: 200000003 cycles: 199819232 cumulative IPC: 1.0009 (Simulation time: 0 hr 13 min 6 sec) 
 Instruction ID: 250000051

ChampSim completed all CPUs

Region of Interest Statistics

CPU 0 cumulative IPC: 1.0009 instructions: 200000003 cycles: 199819232
ITLB SPEC fills:          0  NON-SPEC fills:          0
ITLB Test counter :          0
ITLB Leapfrog:          0
ITLB MSHR merge:          0
ITLB TOTAL     ACCESS:   28069461  HIT:   28069461  MISS:          0  HIT %:        100  MISS %:          0   MPKI: 0
ITLB LOAD TRANSLATION NON_SPEC    ACCESS:   28069461  HIT:   28069461  MISS:          0  HIT %:        100  MISS %:          0   MPKI: 0
ITLB PREFETCH  REQUESTED:          0  ISSUED:          0  USEFUL:          0  USELESS:          0
ITLB USEFUL LOAD PREFETCHES:          0 PREFETCH ISSUED TO LOWER LEVEL:          0  ACCURACY: -nan
ITLB TIMELY PREFETCHES:          0 LATE PREFETCHES: 0 DROPPED PREFETCHES: 0
ITLB COMMIT LATE PREFETCHES: 0 MISSED OPPORTUNITY: 0 LATE IN PQ: 0 UNCOVERED: 0
ITLB COMMIT LATE MSHR PREFETCHES: 0
ITLB MPKI TOTAL: 0 MSHR LATE: 0 PQ LATE: 0 COMMIT LATE: 0 MISSED OPPORTUNITY: 0 UNCOVERED: 0
ITLB PREFETCHES SAME FILL-ORIGIN LEVEL: 0 DIFFERENT FILL-ORIGIN LEVEL: 0
ITLB AVERAGE MISS LATENCY: -nan cycles
ITLB AVERAGE MISS LATENCY LOAD: -nan cycles
ITLB AVERAGE MISS LATENCY PREFETCH: -nan cycles
ITLB AVERAGE MSHR OCCUPANCY: 0
ITLB MSHR FULL: 0
ITLB RQ	ACCESS:   35089596	FORWARD:          0	MERGED:    7020135	TO_CACHE:   28069461

DTLB SPEC fills:          0  NON-SPEC fills:          0
DTLB Test counter :          0
DTLB Leapfrog:          0
DTLB MSHR merge:          0
DTLB TOTAL     ACCESS:   37058093  HIT:   37011249  MISS:      46844  HIT %:    99.8736  MISS %:   0.126407   MPKI: 0.23422
DTLB LOAD TRANSLATION NON_SPEC    ACCESS:   37058093  HIT:   37011249  MISS:      46844  HIT %:    99.8736  MISS %:   0.126407   MPKI: 0.23422
DTLB PREFETCH  REQUESTED:          0  ISSUED:          0  USEFUL:          0  USELESS:          0
DTLB USEFUL LOAD PREFETCHES:          0 PREFETCH ISSUED TO LOWER LEVEL:          0  ACCURACY: -nan
DTLB TIMELY PREFETCHES:          0 LATE PREFETCHES: 0 DROPPED PREFETCHES: 0
DTLB COMMIT LATE PREFETCHES: 0 MISSED OPPORTUNITY: 0 LATE IN PQ: 0 UNCOVERED: 0
DTLB COMMIT LATE MSHR PREFETCHES: 0
DTLB MPKI TOTAL: 0 MSHR LATE: 0 PQ LATE: 0 COMMIT LATE: 0 MISSED OPPORTUNITY: 0 UNCOVERED: 0
DTLB PREFETCHES SAME FILL-ORIGIN LEVEL: 0 DIFFERENT FILL-ORIGIN LEVEL: 0
DTLB AVERAGE MISS LATENCY: 108.775 cycles
DTLB AVERAGE MISS LATENCY LOAD: -nan cycles
DTLB AVERAGE MISS LATENCY PREFETCH: -nan cycles
DTLB AVERAGE MSHR OCCUPANCY: 0.0075217
DTLB MSHR FULL: 0
DTLB RQ	ACCESS:   57880734	FORWARD:          0	MERGED:   20819708	TO_CACHE:   37061026

STLB SPEC fills:          0  NON-SPEC fills:          0
STLB Test counter :          0
STLB Leapfrog:          0
STLB MSHR merge:          0
STLB TOTAL     ACCESS:    7259907  HIT:    7232451  MISS:      27456  HIT %:    99.6218  MISS %:   0.378187   MPKI: 0.13728
STLB LOAD TRANSLATION NON_SPEC    ACCESS:      46844  HIT:      19389  MISS:      27455  HIT %:    41.3906  MISS %:    58.6094   MPKI: 0.137275
STLB TRANSLATION FROM L1D PREFETCHER NON_SPEC    ACCESS:    7213063  HIT:    7213062  MISS:          1  HIT %:        100  MISS %: 1.38637e-05   MPKI: 5e-06
STLB PREFETCH  REQUESTED:          0  ISSUED:          0  USEFUL:          1  USELESS:          0
STLB USEFUL LOAD PREFETCHES:          1 PREFETCH ISSUED TO LOWER LEVEL:          0  ACCURACY: inf
STLB TIMELY PREFETCHES:          1 LATE PREFETCHES: 12765 DROPPED PREFETCHES: 1140447
STLB COMMIT LATE PREFETCHES: 0 MISSED OPPORTUNITY: 0 LATE IN PQ: 0 UNCOVERED: 0
STLB COMMIT LATE MSHR PREFETCHES: 0
STLB MPKI TOTAL: 0 MSHR LATE: 0.063825 PQ LATE: 0 COMMIT LATE: 0 MISSED OPPORTUNITY: 0 UNCOVERED: 0
STLB PREFETCHES SAME FILL-ORIGIN LEVEL: 0 DIFFERENT FILL-ORIGIN LEVEL: 0
STLB AVERAGE MISS LATENCY: 172.34 cycles
STLB AVERAGE MISS LATENCY LOAD: -nan cycles
STLB AVERAGE MISS LATENCY PREFETCH: -nan cycles
STLB AVERAGE MSHR OCCUPANCY: 0.308294
STLB MSHR FULL: 0
STLB RQ	ACCESS:   48554858	FORWARD:          0	MERGED:   40116559	TO_CACHE:    8438299

STLB Hit, L1D data hit: 0
STLB Hit, L2C data hit: 0
STLB Hit, LLC data hit: 0
STLB Hit, LLC data miss: 0
STLB STLB hints to L2: 0
L0D SPEC fills:   28598269  NON-SPEC fills:          0
L0D TimeGuard Request with older TS:       8773 Restricted eviction:        451 read:     202905
L0D Test counter :          0
L0D Leapfrog:          0
L0D MSHR merge:    5760315
L0D TOTAL     ACCESS:   38079327  HIT:    3436134  MISS:   34643193  HIT %:    9.02362  MISS %:    90.9764   MPKI: 173.216
L0D LOAD      TOTAL       ACCESS:   38079327  HIT:    3436134  MISS:   34643193  HIT %:    9.02362  MISS %:    90.9764   MPKI: 173.216
L0D LOAD      NON_SPEC    ACCESS:    6054766  HIT:      10293  MISS:    6044473  HIT %:   0.169998  MISS %:      99.83   MPKI: 30.2224
L0D LOAD      SPEC        ACCESS:   32024561  HIT:    3425841  MISS:   28598720  HIT %:    10.6975  MISS %:    89.3025   MPKI: 142.994
L0D PREFETCH  REQUESTED:          0  ISSUED:          0  USEFUL:          0  USELESS:          0
L0D USEFUL LOAD PREFETCHES:          0 PREFETCH ISSUED TO LOWER LEVEL:          0  ACCURACY: -nan
L0D TIMELY PREFETCHES:          0 LATE PREFETCHES: 0 DROPPED PREFETCHES: 0
L0D COMMIT LATE PREFETCHES: 0 MISSED OPPORTUNITY: 0 LATE IN PQ: 0 UNCOVERED: 0
L0D COMMIT LATE MSHR PREFETCHES: 0
L0D MPKI TOTAL: 202.018 MSHR LATE: 0 PQ LATE: 0 COMMIT LATE: 0 MISSED OPPORTUNITY: 0 UNCOVERED: 0
L0D PREFETCHES SAME FILL-ORIGIN LEVEL: 0 DIFFERENT FILL-ORIGIN LEVEL: 0
L0D AVERAGE MISS LATENCY: 5.57316 cycles
L0D AVERAGE MISS LATENCY LOAD: 5.57316 cycles
L0D AVERAGE MISS LATENCY PREFETCH: -nan cycles
L0D AVERAGE MSHR OCCUPANCY: 1.24397
L0D MSHR FULL: 6.38691e-07
L0D RQ	ACCESS:   70165737	FORWARD:          0	MERGED:   26326099	TO_CACHE:   43839638
L0D WQ	ACCESS:   14041096	FORWARD:          0	MERGED:          0	TO_CACHE:   14041096

L1D SPEC fills:          0  NON-SPEC fills:      27846
L1D Test counter :      59689
L1D Leapfrog:          0
L1D MSHR merge:      38879
L1D TOTAL     ACCESS:   82201512  HIT:   79476384  MISS:    2725128  HIT %:    96.6848  MISS %:    3.31518   MPKI: 13.6256
L1D LOAD      TOTAL       ACCESS:   34642423  HIT:   34549644  MISS:      92779  HIT %:    99.7322  MISS %:   0.267819   MPKI: 0.463895
L1D LOAD      NON_SPEC    ACCESS:    6044467  HIT:    6016621  MISS:      27846  HIT %:    99.5393  MISS %:   0.460686   MPKI: 0.13923
L1D LOAD      SPEC        ACCESS:   28597956  HIT:   28533023  MISS:      64933  HIT %:    99.7729  MISS %:   0.227055   MPKI: 0.324665
L1D RFO       NON_SPEC    ACCESS:   14003766  HIT:   14000770  MISS:       2996  HIT %:    99.9786  MISS %:  0.0213942   MPKI: 0.01498
L1D PREFETCH  NON_SPEC    ACCESS:   33286639  HIT:   30715979  MISS:    2570660  HIT %:    92.2772  MISS %:     7.7228   MPKI: 12.8533
L1D COMMIT LOAD NON_SPEC    ACCESS:     201337  HIT:     201102  MISS:        235  HIT %:    99.8833  MISS %:    0.11672   MPKI: 0.001175
L1D COMMIT WRITE NON_SPEC    ACCESS:      67347  HIT:       8889  MISS:      58458  HIT %:    13.1988  MISS %:    86.8012   MPKI: 0.29229
L1D PREFETCH  REQUESTED:   66166172  ISSUED:   50263667  USEFUL:    2558033  USELESS:      12619
L1D USEFUL LOAD PREFETCHES:    2558033 PREFETCH ISSUED TO LOWER LEVEL:   13631542  ACCURACY: 18.7655
L1D TIMELY PREFETCHES:    2558033 LATE PREFETCHES: 38122 DROPPED PREFETCHES: 3023468
L1D COMMIT LATE PREFETCHES: 0 MISSED OPPORTUNITY: 0 LATE IN PQ: 0 UNCOVERED: 0
L1D COMMIT LATE MSHR PREFETCHES: 0
L1D MPKI TOTAL: 0.467735 MSHR LATE: 0.19061 PQ LATE: 0 COMMIT LATE: 0 MISSED OPPORTUNITY: 0 UNCOVERED: 0
L1D PREFETCHES SAME FILL-ORIGIN LEVEL: 2608782 DIFFERENT FILL-ORIGIN LEVEL: 11022760
L1D AVERAGE MISS LATENCY: 50.4513 cycles
L1D AVERAGE MISS LATENCY LOAD: 144.635 cycles
L1D AVERAGE MISS LATENCY PREFETCH: 48.2262 cycles
L1D AVERAGE MSHR OCCUPANCY: 0.575684
L1D MSHR FULL: 0
L1D RQ	ACCESS:   34974164	FORWARD:          0	MERGED:     129521	TO_CACHE:   34844618
L1D WQ	ACCESS:   14108445	FORWARD:         25	MERGED:      30277	TO_CACHE:   14078168
L1D PQ	ACCESS:   50263667	FORWARD:          0	MERGED:    1755653	TO_CACHE:   48508014

L1D UNIQUE REGIONS ACCESSED: 0
L1D REGIONS CONFLICTS: 0
L1D Cross Page Prefetch Requests: 7078693
L1D Same Page Prefetch Requests: 66469073
L1D ROI Sum of L1D PQ occupancy: 1493176304
L1D PREFETCHES PUSHED FROM L2C: 0
L1I SPEC fills:          0  NON-SPEC fills:          0
L1I Test counter :          0
L1I Leapfrog:          0
L1I MSHR merge:          0
L1I TOTAL     ACCESS:   35089595  HIT:   35089595  MISS:          0  HIT %:        100  MISS %:          0   MPKI: 0
L1I LOAD      TOTAL       ACCESS:   35089595  HIT:   35089595  MISS:          0  HIT %:        100  MISS %:          0   MPKI: 0
L1I LOAD      NON_SPEC    ACCESS:   35089595  HIT:   35089595  MISS:          0  HIT %:        100  MISS %:          0   MPKI: 0
L1I PREFETCH  REQUESTED:          0  ISSUED:          0  USEFUL:          0  USELESS:          0
L1I USEFUL LOAD PREFETCHES:          0 PREFETCH ISSUED TO LOWER LEVEL:          0  ACCURACY: -nan
L1I TIMELY PREFETCHES:          0 LATE PREFETCHES: 0 DROPPED PREFETCHES: 0
L1I COMMIT LATE PREFETCHES: 0 MISSED OPPORTUNITY: 0 LATE IN PQ: 0 UNCOVERED: 0
L1I COMMIT LATE MSHR PREFETCHES: 0
L1I MPKI TOTAL: 0 MSHR LATE: 0 PQ LATE: 0 COMMIT LATE: 0 MISSED OPPORTUNITY: 0 UNCOVERED: 0
L1I PREFETCHES SAME FILL-ORIGIN LEVEL: 0 DIFFERENT FILL-ORIGIN LEVEL: 0
L1I AVERAGE MISS LATENCY: -nan cycles
L1I AVERAGE MISS LATENCY LOAD: -nan cycles
L1I AVERAGE MISS LATENCY PREFETCH: -nan cycles
L1I AVERAGE MSHR OCCUPANCY: 0
L1I MSHR FULL: 0
L1I RQ	ACCESS:   45647753	FORWARD:          0	MERGED:   10558157	TO_CACHE:   35089596

BTB SPEC fills:          0  NON-SPEC fills:          0
BTB Test counter :          0
BTB Leapfrog:          0
BTB MSHR merge:          0
BTB TOTAL     ACCESS:    3509173  HIT:    3509164  MISS:          9  HIT %:    99.9997  MISS %: 0.000256471   MPKI: 4.5e-05
BTB BRANCH_DIRECT_JUMP	ACCESS:        876  HIT:        874  MISS:          2
BTB BRANCH_INDIRECT	ACCESS:          0  HIT:          0  MISS:          0
BTB BRANCH_CONDITIONAL	ACCESS:    3506545  HIT:    3506542  MISS:          3
BTB BRANCH_DIRECT_CALL	ACCESS:        876  HIT:        874  MISS:          2
BTB BRANCH_INDIRECT_CALL	ACCESS:          0  HIT:          0  MISS:          0
BTB BRANCH_RETURN	ACCESS:        876  HIT:        874  MISS:          2
BTB BRANCH_OTHER ACCESS:          0  HIT:          0  MISS:          0

L2C SPEC fills:          0  NON-SPEC fills:      19791
L2C Test counter :      58335
L2C Leapfrog:          0
L2C MSHR merge:       3799
L2C TOTAL     ACCESS:   19940923  HIT:   18129317  MISS:    1811606  HIT %:    90.9151  MISS %:    9.08487   MPKI: 9.05803
L2C LOAD      TOTAL       ACCESS:      54668  HIT:      10935  MISS:      43733  HIT %:    20.0026  MISS %:    79.9974   MPKI: 0.218665
L2C LOAD      NON_SPEC    ACCESS:      23262  HIT:       3471  MISS:      19791  HIT %:    14.9213  MISS %:    85.0787   MPKI: 0.098955
L2C LOAD      SPEC        ACCESS:      31406  HIT:       7464  MISS:      23942  HIT %:    23.7662  MISS %:    76.2338   MPKI: 0.11971
L2C RFO       NON_SPEC    ACCESS:       2996  HIT:       1509  MISS:       1487  HIT %:    50.3672  MISS %:    49.6328   MPKI: 0.007435
L2C PREFETCH  NON_SPEC    ACCESS:   12219302  HIT:   10469391  MISS:    1749911  HIT %:    85.6791  MISS %:    14.3209   MPKI: 8.74955
L2C WRITEBACK NON_SPEC    ACCESS:    1703088  HIT:    1703088  MISS:          0  HIT %:        100  MISS %:          0   MPKI: 0
L2C CLEAN_EVICTION NON_SPEC    ACCESS:      59689  HIT:      46826  MISS:      12863  HIT %:      78.45  MISS %:      21.55   MPKI: 0.064315
L2C COMMIT LOAD NON_SPEC    ACCESS:        224  HIT:        198  MISS:         26  HIT %:    88.3929  MISS %:    11.6071   MPKI: 0.00013
L2C LOAD TRANSLATION NON_SPEC    ACCESS:     137186  HIT:     137089  MISS:         97  HIT %:    99.9293  MISS %:  0.0707069   MPKI: 0.000485
L2C TRANSLATION FROM L1D PREFETCHER NON_SPEC    ACCESS:    5763770  HIT:    5760281  MISS:       3489  HIT %:    99.9395  MISS %:  0.0605333   MPKI: 0.017445
L2C PREFETCH  REQUESTED:          0  ISSUED:          0  USEFUL:       5577  USELESS:    1747699
L2C USEFUL LOAD PREFETCHES:       5577 PREFETCH ISSUED TO LOWER LEVEL:    1753710  ACCURACY: 0.318012
L2C TIMELY PREFETCHES:       5577 LATE PREFETCHES: 3799 DROPPED PREFETCHES: 0
L2C COMMIT LATE PREFETCHES: 0 MISSED OPPORTUNITY: 0 LATE IN PQ: 0 UNCOVERED: 0
L2C COMMIT LATE MSHR PREFETCHES: 0
L2C MPKI TOTAL: 0.218665 MSHR LATE: 0.018995 PQ LATE: 0 COMMIT LATE: 0 MISSED OPPORTUNITY: 0 UNCOVERED: 0
L2C PREFETCHES SAME FILL-ORIGIN LEVEL: 1434977 DIFFERENT FILL-ORIGIN LEVEL: 0
L2C AVERAGE MISS LATENCY: 183.693 cycles
L2C AVERAGE MISS LATENCY LOAD: 167.214 cycles
L2C AVERAGE MISS LATENCY PREFETCH: 185.489 cycles
L2C AVERAGE MSHR OCCUPANCY: 0.977557
L2C MSHR FULL: 0
L2C RQ	ACCESS:    5958844	FORWARD:          0	MERGED:          0	TO_CACHE:    5958844
L2C WQ	ACCESS:    1762783	FORWARD:          0	MERGED:          6	TO_CACHE:    1762777
L2C PQ	ACCESS:   13631542	FORWARD:          0	MERGED:          0	TO_CACHE:   13631542

L2C Instructions Evicting Data 0
L2C Translations Evicting Data 3585
L2C Data Evicting Data 1767652
L2C Instructions Evicting Instructions 0
L2C Translations Evicting Instructions 0
L2C Data Evicting Instructions 0
L2C Instructions Evicting Translations 0
L2C Translations Evicting Translations 1
L2C Data Evicting Translations 3563
L2C Dense regions hint from L2: 0
PSCL5 SPEC fills:          0  NON-SPEC fills:          0
PSCL5 Test counter :          0
PSCL5 Leapfrog:          0
PSCL5 MSHR merge:          0
PSCL5 TOTAL     ACCESS:          0  HIT:          0  MISS:          0  HIT %:       -nan  MISS %:       -nan   MPKI: 0
PSCL5 PREFETCH  REQUESTED:          0  ISSUED:          0  USEFUL:          0  USELESS:          0
PSCL5 USEFUL LOAD PREFETCHES:          0 PREFETCH ISSUED TO LOWER LEVEL:          0  ACCURACY: -nan
PSCL5 TIMELY PREFETCHES:          0 LATE PREFETCHES: 0 DROPPED PREFETCHES: 0
PSCL5 COMMIT LATE PREFETCHES: 0 MISSED OPPORTUNITY: 0 LATE IN PQ: 0 UNCOVERED: 0
PSCL5 COMMIT LATE MSHR PREFETCHES: 0
PSCL5 MPKI TOTAL: 0 MSHR LATE: 0 PQ LATE: 0 COMMIT LATE: 0 MISSED OPPORTUNITY: 0 UNCOVERED: 0
PSCL5 PREFETCHES SAME FILL-ORIGIN LEVEL: 0 DIFFERENT FILL-ORIGIN LEVEL: 0

PSCL4 SPEC fills:          0  NON-SPEC fills:          0
PSCL4 Test counter :          0
PSCL4 Leapfrog:          0
PSCL4 MSHR merge:          0
PSCL4 TOTAL     ACCESS:          0  HIT:          0  MISS:          0  HIT %:       -nan  MISS %:       -nan   MPKI: 0
PSCL4 PREFETCH  REQUESTED:          0  ISSUED:          0  USEFUL:          0  USELESS:          0
PSCL4 USEFUL LOAD PREFETCHES:          0 PREFETCH ISSUED TO LOWER LEVEL:          0  ACCURACY: -nan
PSCL4 TIMELY PREFETCHES:          0 LATE PREFETCHES: 0 DROPPED PREFETCHES: 0
PSCL4 COMMIT LATE PREFETCHES: 0 MISSED OPPORTUNITY: 0 LATE IN PQ: 0 UNCOVERED: 0
PSCL4 COMMIT LATE MSHR PREFETCHES: 0
PSCL4 MPKI TOTAL: 0 MSHR LATE: 0 PQ LATE: 0 COMMIT LATE: 0 MISSED OPPORTUNITY: 0 UNCOVERED: 0
PSCL4 PREFETCHES SAME FILL-ORIGIN LEVEL: 0 DIFFERENT FILL-ORIGIN LEVEL: 0

PSCL3 SPEC fills:          0  NON-SPEC fills:          0
PSCL3 Test counter :          0
PSCL3 Leapfrog:          0
PSCL3 MSHR merge:          0
PSCL3 TOTAL     ACCESS:          0  HIT:          0  MISS:          0  HIT %:       -nan  MISS %:       -nan   MPKI: 0
PSCL3 PREFETCH  REQUESTED:          0  ISSUED:          0  USEFUL:          0  USELESS:          0
PSCL3 USEFUL LOAD PREFETCHES:          0 PREFETCH ISSUED TO LOWER LEVEL:          0  ACCURACY: -nan
PSCL3 TIMELY PREFETCHES:          0 LATE PREFETCHES: 0 DROPPED PREFETCHES: 0
PSCL3 COMMIT LATE PREFETCHES: 0 MISSED OPPORTUNITY: 0 LATE IN PQ: 0 UNCOVERED: 0
PSCL3 COMMIT LATE MSHR PREFETCHES: 0
PSCL3 MPKI TOTAL: 0 MSHR LATE: 0 PQ LATE: 0 COMMIT LATE: 0 MISSED OPPORTUNITY: 0 UNCOVERED: 0
PSCL3 PREFETCHES SAME FILL-ORIGIN LEVEL: 0 DIFFERENT FILL-ORIGIN LEVEL: 0

PSCL2 SPEC fills:          0  NON-SPEC fills:          0
PSCL2 Test counter :          0
PSCL2 Leapfrog:          0
PSCL2 MSHR merge:          0
PSCL2 TOTAL     ACCESS:          0  HIT:          0  MISS:          0  HIT %:       -nan  MISS %:       -nan   MPKI: 0
PSCL2 PREFETCH  REQUESTED:          0  ISSUED:          0  USEFUL:          0  USELESS:          0
PSCL2 USEFUL LOAD PREFETCHES:          0 PREFETCH ISSUED TO LOWER LEVEL:          0  ACCURACY: -nan
PSCL2 TIMELY PREFETCHES:          0 LATE PREFETCHES: 0 DROPPED PREFETCHES: 0
PSCL2 COMMIT LATE PREFETCHES: 0 MISSED OPPORTUNITY: 0 LATE IN PQ: 0 UNCOVERED: 0
PSCL2 COMMIT LATE MSHR PREFETCHES: 0
PSCL2 MPKI TOTAL: 0 MSHR LATE: 0 PQ LATE: 0 COMMIT LATE: 0 MISSED OPPORTUNITY: 0 UNCOVERED: 0
PSCL2 PREFETCHES SAME FILL-ORIGIN LEVEL: 0 DIFFERENT FILL-ORIGIN LEVEL: 0

LLC SPEC fills:          0  NON-SPEC fills:      18840
LLC Test counter :      54521
LLC Leapfrog:          0
LLC MSHR merge:          0
LLC TOTAL     ACCESS:    3557636  HIT:    1776370  MISS:    1781266  HIT %:    49.9312  MISS %:    50.0688   MPKI: 8.90633
LLC LOAD      TOTAL       ACCESS:      39934  HIT:       4393  MISS:      35541  HIT %:    11.0007  MISS %:    88.9993   MPKI: 0.177705
LLC LOAD      NON_SPEC    ACCESS:      19556  HIT:        716  MISS:      18840  HIT %:    3.66128  MISS %:    96.3387   MPKI: 0.0942
LLC LOAD      SPEC        ACCESS:      20378  HIT:       3677  MISS:      16701  HIT %:     18.044  MISS %:     81.956   MPKI: 0.083505
LLC RFO       NON_SPEC    ACCESS:       1487  HIT:       1486  MISS:          1  HIT %:    99.9328  MISS %:  0.0672495   MPKI: 5e-06
LLC PREFETCH  NON_SPEC    ACCESS:    1753710  HIT:      17519  MISS:    1736191  HIT %:   0.998968  MISS %:     99.001   MPKI: 8.68095
LLC WRITEBACK NON_SPEC    ACCESS:    1700558  HIT:    1700538  MISS:         20  HIT %:    99.9988  MISS %: 0.00117608   MPKI: 0.0001
LLC CLEAN_EVICTION NON_SPEC    ACCESS:      58335  HIT:      52393  MISS:       5942  HIT %:     89.814  MISS %:     10.186   MPKI: 0.02971
LLC COMMIT LOAD NON_SPEC    ACCESS:         26  HIT:         26  MISS:          0  HIT %:        100  MISS %:          0   MPKI: 0
LLC LOAD TRANSLATION NON_SPEC    ACCESS:         97  HIT:          1  MISS:         96  HIT %:    1.03093  MISS %:    98.9691   MPKI: 0.00048
LLC TRANSLATION FROM L1D PREFETCHER NON_SPEC    ACCESS:       3489  HIT:         14  MISS:       3475  HIT %:   0.401261  MISS %:    99.5987   MPKI: 0.017375
LLC PREFETCH  REQUESTED:          0  ISSUED:          0  USEFUL:          8  USELESS:    1739812
LLC USEFUL LOAD PREFETCHES:          8 PREFETCH ISSUED TO LOWER LEVEL:    1736191  ACCURACY: 0.000460779
LLC TIMELY PREFETCHES:          8 LATE PREFETCHES: 0 DROPPED PREFETCHES: 0
LLC COMMIT LATE PREFETCHES: 0 MISSED OPPORTUNITY: 0 LATE IN PQ: 0 UNCOVERED: 0
LLC COMMIT LATE MSHR PREFETCHES: 0
LLC MPKI TOTAL: 0.177705 MSHR LATE: 0 PQ LATE: 0 COMMIT LATE: 0 MISSED OPPORTUNITY: 0 UNCOVERED: 0
LLC PREFETCHES SAME FILL-ORIGIN LEVEL: 0 DIFFERENT FILL-ORIGIN LEVEL: 0
LLC AVERAGE MISS LATENCY: 156.735 cycles
LLC AVERAGE MISS LATENCY LOAD: 161.187 cycles
LLC AVERAGE MISS LATENCY PREFETCH: 157.088 cycles
LLC AVERAGE MSHR OCCUPANCY: 0.79535
LLC MSHR FULL: 0
LLC RQ	ACCESS:      45033	FORWARD:          0	MERGED:          0	TO_CACHE:      45033
LLC WQ	ACCESS:    1758893	FORWARD:          0	MERGED:          0	TO_CACHE:    1758893
LLC PQ	ACCESS:    1753710	FORWARD:          0	MERGED:          0	TO_CACHE:    1753710

LLC Dense regions hint to LLC: 0

RAW hits: 3356
Loads Generated: 70169100
Loads sent to L1D: 70165737
Stores Generated: 14041094
Stores sent to L1D: 14041096
Major fault: 0 Minor fault: 34487
Allocated PAGES: 34487
Total Load insts: 87706901
Total Non-spec loads: 10782652
Percentage of speculative loads: 87.706

LeapFrogging counter: 0
Commit hits: 28590725 miss: 32144621
Commit hit %: 47.0743 miss %: 52.9257
Commits not translated: 0
Loads retired: 92779
Stores retired: 14041096
Cache fills: 92779
L1D response latency: 144.635 cycles
Load retirement latency: 226.509 cycles
OOO test counter: 0
Discarded buffer inserts: 28590725 hits: 125 hit %: 0.000437205
Filter prediction accuracy: 0.999982
ALL MISSES SIZE: 846
LATENCY_FILL: 141.854 93328
LATENCY_FILL_ROB: 163.428 93303
test counter pref: 1223869
Max ROB Extended: 13

DRAM Statistics
 CHANNEL 0
 RQ ROW_BUFFER_HIT:     558294  ROW_BUFFER_MISS:    1217009
 DBUS_CONGESTED:       2046
 WQ ROW_BUFFER_HIT:    1215923  ROW_BUFFER_MISS:     538001  FULL:          0

 AVG_CONGESTED_CYCLE: 5
 All warmup complete: 2
Channel 0 Bank busy for read cycles: 0
Channel 0 Bank busy for write cycles: 0
Channel 0
Rank 0
0banks busy for read cycles: 69204902
0banks busy for write cycles: 34180
1banks busy for read cycles: 45894560
1banks busy for write cycles: 2456235
2banks busy for read cycles: 34341141
2banks busy for write cycles: 1137194
3banks busy for read cycles: 8541351
3banks busy for write cycles: 961298
4banks busy for read cycles: 5389600
4banks busy for write cycles: 885004
5banks busy for read cycles: 1785488
5banks busy for write cycles: 850992
6banks busy for read cycles: 1187473
6banks busy for write cycles: 954973
7banks busy for read cycles: 929267
7banks busy for write cycles: 2416884
8banks busy for read cycles: 3322188
8banks busy for write cycles: 19526503

CPU 0 Branch Prediction Accuracy: 99.9751% MPKI: 0.00438 Average ROB Occupancy at Mispredict: 52.9212
Branch types
NOT_BRANCH: 196487432 98.2437%
BRANCH_DIRECT_JUMP: 876 0.000438%
BRANCH_INDIRECT: 0 0%
BRANCH_CONDITIONAL: 3509611 1.75481%
BRANCH_DIRECT_CALL: 876 0.000438%
BRANCH_INDIRECT_CALL: 0 0%
BRANCH_RETURN: 876 0.000438%
BRANCH_OTHER: 0 0%

DRAM PAGES: 1048576
Allocated PAGES: 34487
