
*** ChampSim Multicore Out-of-Order Simulator ***

Warmup Instructions: 50000000
Simulation Instructions: 200000000
Number of CPUs: 1
LLC sets: 2048
LLC ways: 16
L0D sets: 16
L0D ways: 2
ROB size: 352
LQ size: 128
SQ size: 72
Secure Berti: ON
Berti: ON
Berti Fill: ON
On commit prefetching: OFF
Hit-based filter: ON
Time-guarding: ON
Free-slotting: ON
Leap-frogging: ON
Train prefetcher on L0D bypass: OFF
No translation penalty for prefetchers: OFF
Prefetch to L0D only: OFF
Prefetch to L1D only: OFF
Clean evictions: ON
Commit loads: ON
Commit write: ON
Fill commit loads to L2C, LLC: ON
DRAM IO FREQUENCY: 6400
ROB SIZE: 352
Off-chip DRAM Size: 4096 MB Channels: 1 Width: 64-bit Data Rate: 6400 MT/s
CPU 0 runs /home/sumon/secure_berti/GhostMinion/../../traces/spec/654.roms_s-1007B.champsimtrace.xz
.xz
BTB has LRU replacement policy
ITLB has LRU replacement policy
DTLB has LRU replacement policy
STLB has LRU replacement policy
L1I has LRU replacement policy
L0D has LRU replacement policy
Berti version on_commit
History Sets: 8
History Ways: 16
BERTI Size: 16
BERTI Stride Size: 16
L1D has LRU replacement policy
L2C has LRU replacement policy
LLC has LRU replacement policy
Heartbeat CPU 0 instructions: 10000000 cycles: 5298814 heartbeat IPC: 1.88721 cumulative IPC: 1.88721 (Simulation time: 0 hr 0 min 34 sec) 
Heartbeat CPU 0 instructions: 20000003 cycles: 10596065 heartbeat IPC: 1.88777 cumulative IPC: 1.88749 (Simulation time: 0 hr 1 min 9 sec) 
Heartbeat CPU 0 instructions: 30000000 cycles: 15894567 heartbeat IPC: 1.88733 cumulative IPC: 1.88744 (Simulation time: 0 hr 1 min 43 sec) 
Heartbeat CPU 0 instructions: 40000003 cycles: 21193191 heartbeat IPC: 1.88728 cumulative IPC: 1.8874 (Simulation time: 0 hr 2 min 17 sec) 
Heartbeat CPU 0 instructions: 50000003 cycles: 25367971 heartbeat IPC: 2.39534 cumulative IPC: 1.97099 (Simulation time: 0 hr 2 min 57 sec) 

Warmup complete CPU 0 instructions: 50000003 cycles: 25367971 (Simulation time: 0 hr 2 min 57 sec) 

Heartbeat CPU 0 instructions: 60000002 cycles: 41589415 heartbeat IPC: 0.616468 cumulative IPC: 0.616468 (Simulation time: 0 hr 3 min 40 sec) 
Heartbeat CPU 0 instructions: 70000000 cycles: 58840452 heartbeat IPC: 0.579675 cumulative IPC: 0.597506 (Simulation time: 0 hr 4 min 18 sec) 
Heartbeat CPU 0 instructions: 80000000 cycles: 76093084 heartbeat IPC: 0.579622 cumulative IPC: 0.591423 (Simulation time: 0 hr 4 min 57 sec) 
Heartbeat CPU 0 instructions: 90000000 cycles: 93341742 heartbeat IPC: 0.579755 cumulative IPC: 0.588462 (Simulation time: 0 hr 5 min 35 sec) 
Heartbeat CPU 0 instructions: 100000000 cycles: 110586749 heartbeat IPC: 0.579878 cumulative IPC: 0.586725 (Simulation time: 0 hr 6 min 14 sec) 
Heartbeat CPU 0 instructions: 110000000 cycles: 127835744 heartbeat IPC: 0.579744 cumulative IPC: 0.58555 (Simulation time: 0 hr 6 min 52 sec) 
Heartbeat CPU 0 instructions: 120000001 cycles: 143685918 heartbeat IPC: 0.630908 cumulative IPC: 0.591626 (Simulation time: 0 hr 7 min 33 sec) 
Heartbeat CPU 0 instructions: 130000002 cycles: 157753199 heartbeat IPC: 0.710869 cumulative IPC: 0.604297 (Simulation time: 0 hr 8 min 20 sec) 
Heartbeat CPU 0 instructions: 140000000 cycles: 174928411 heartbeat IPC: 0.582234 cumulative IPC: 0.601763 (Simulation time: 0 hr 8 min 58 sec) 
Heartbeat CPU 0 instructions: 150000000 cycles: 192101685 heartbeat IPC: 0.5823 cumulative IPC: 0.599759 (Simulation time: 0 hr 9 min 36 sec) 
Heartbeat CPU 0 instructions: 160000001 cycles: 209274015 heartbeat IPC: 0.582332 cumulative IPC: 0.598131 (Simulation time: 0 hr 10 min 14 sec) 
Heartbeat CPU 0 instructions: 170000000 cycles: 226442471 heartbeat IPC: 0.582464 cumulative IPC: 0.596794 (Simulation time: 0 hr 10 min 53 sec) 
Heartbeat CPU 0 instructions: 180000002 cycles: 243613535 heartbeat IPC: 0.582375 cumulative IPC: 0.595659 (Simulation time: 0 hr 11 min 31 sec) 
Heartbeat CPU 0 instructions: 190000002 cycles: 260785343 heartbeat IPC: 0.58235 cumulative IPC: 0.594688 (Simulation time: 0 hr 12 min 9 sec) 
Heartbeat CPU 0 instructions: 200000001 cycles: 273311872 heartbeat IPC: 0.798306 cumulative IPC: 0.604976 (Simulation time: 0 hr 12 min 56 sec) 
Heartbeat CPU 0 instructions: 210000001 cycles: 290669347 heartbeat IPC: 0.576121 cumulative IPC: 0.603088 (Simulation time: 0 hr 13 min 35 sec) 
Heartbeat CPU 0 instructions: 220000000 cycles: 307849092 heartbeat IPC: 0.582081 cumulative IPC: 0.60181 (Simulation time: 0 hr 14 min 12 sec) 
Heartbeat CPU 0 instructions: 230000000 cycles: 325032652 heartbeat IPC: 0.581952 cumulative IPC: 0.600671 (Simulation time: 0 hr 14 min 49 sec) 
Heartbeat CPU 0 instructions: 240000001 cycles: 342215392 heartbeat IPC: 0.581979 cumulative IPC: 0.599658 (Simulation time: 0 hr 15 min 25 sec) 
Heartbeat CPU 0 instructions: 250000003 cycles: 359393768 heartbeat IPC: 0.582127 cumulative IPC: 0.598756 (Simulation time: 0 hr 16 min 1 sec) 
Finished CPU 0 instructions: 200000000 cycles: 334025797 cumulative IPC: 0.598756 (Simulation time: 0 hr 16 min 1 sec) 
 Instruction ID: 250000098

ChampSim completed all CPUs

Region of Interest Statistics

CPU 0 cumulative IPC: 0.598756 instructions: 200000000 cycles: 334025797
ITLB SPEC fills:          0  NON-SPEC fills:          0
ITLB Test counter :          0
ITLB Leapfrog:          0
ITLB MSHR merge:          0
ITLB TOTAL     ACCESS:   33756571  HIT:   33756569  MISS:          2  HIT %:        100  MISS %: 5.92477e-06   MPKI: 1e-05
ITLB LOAD TRANSLATION NON_SPEC    ACCESS:   33756571  HIT:   33756569  MISS:          2  HIT %:        100  MISS %: 5.92477e-06   MPKI: 1e-05
ITLB PREFETCH  REQUESTED:          0  ISSUED:          0  USEFUL:          0  USELESS:          0
ITLB USEFUL LOAD PREFETCHES:          0 PREFETCH ISSUED TO LOWER LEVEL:          0  ACCURACY: -nan
ITLB TIMELY PREFETCHES:          0 LATE PREFETCHES: 0 DROPPED PREFETCHES: 0
ITLB COMMIT LATE PREFETCHES: 0 MISSED OPPORTUNITY: 0 LATE IN PQ: 0 UNCOVERED: 0
ITLB COMMIT LATE MSHR PREFETCHES: 0
ITLB MPKI TOTAL: 0 MSHR LATE: 0 PQ LATE: 0 COMMIT LATE: 0 MISSED OPPORTUNITY: 0 UNCOVERED: 0
ITLB PREFETCHES SAME FILL-ORIGIN LEVEL: 0 DIFFERENT FILL-ORIGIN LEVEL: 0
ITLB AVERAGE MISS LATENCY: 791 cycles
ITLB AVERAGE MISS LATENCY LOAD: -nan cycles
ITLB AVERAGE MISS LATENCY PREFETCH: -nan cycles
ITLB AVERAGE MSHR OCCUPANCY: 0
ITLB MSHR FULL: 0
ITLB RQ	ACCESS:   42915609	FORWARD:          0	MERGED:    9159037	TO_CACHE:   33756572

DTLB SPEC fills:          0  NON-SPEC fills:          0
DTLB Test counter :          0
DTLB Leapfrog:          0
DTLB MSHR merge:          0
DTLB TOTAL     ACCESS:   58491097  HIT:   58460359  MISS:      30738  HIT %:    99.9474  MISS %:  0.0525516   MPKI: 0.15369
DTLB LOAD TRANSLATION NON_SPEC    ACCESS:   58491097  HIT:   58460359  MISS:      30738  HIT %:    99.9474  MISS %:  0.0525516   MPKI: 0.15369
DTLB PREFETCH  REQUESTED:          0  ISSUED:          0  USEFUL:          0  USELESS:          0
DTLB USEFUL LOAD PREFETCHES:          0 PREFETCH ISSUED TO LOWER LEVEL:          0  ACCURACY: -nan
DTLB TIMELY PREFETCHES:          0 LATE PREFETCHES: 0 DROPPED PREFETCHES: 0
DTLB COMMIT LATE PREFETCHES: 0 MISSED OPPORTUNITY: 0 LATE IN PQ: 0 UNCOVERED: 0
DTLB COMMIT LATE MSHR PREFETCHES: 0
DTLB MPKI TOTAL: 0 MSHR LATE: 0 PQ LATE: 0 COMMIT LATE: 0 MISSED OPPORTUNITY: 0 UNCOVERED: 0
DTLB PREFETCHES SAME FILL-ORIGIN LEVEL: 0 DIFFERENT FILL-ORIGIN LEVEL: 0
DTLB AVERAGE MISS LATENCY: 160.474 cycles
DTLB AVERAGE MISS LATENCY LOAD: -nan cycles
DTLB AVERAGE MISS LATENCY PREFETCH: -nan cycles
DTLB AVERAGE MSHR OCCUPANCY: 0.0107183
DTLB MSHR FULL: 0
DTLB RQ	ACCESS:   67774574	FORWARD:          0	MERGED:    9215081	TO_CACHE:   58559493

STLB SPEC fills:          0  NON-SPEC fills:          0
STLB Test counter :          0
STLB Leapfrog:          0
STLB MSHR merge:          0
STLB TOTAL     ACCESS:    6093661  HIT:    6064513  MISS:      29148  HIT %:    99.5217  MISS %:   0.478333   MPKI: 0.14574
STLB LOAD TRANSLATION NON_SPEC    ACCESS:      30740  HIT:      13197  MISS:      17543  HIT %:     42.931  MISS %:     57.069   MPKI: 0.087715
STLB TRANSLATION FROM L1D PREFETCHER NON_SPEC    ACCESS:    6062921  HIT:    6051316  MISS:      11605  HIT %:    99.8086  MISS %:   0.191409   MPKI: 0.058025
STLB PREFETCH  REQUESTED:          0  ISSUED:          0  USEFUL:      11602  USELESS:          2
STLB USEFUL LOAD PREFETCHES:      11602 PREFETCH ISSUED TO LOWER LEVEL:          0  ACCURACY: inf
STLB TIMELY PREFETCHES:      11602 LATE PREFETCHES: 1708 DROPPED PREFETCHES: 128468
STLB COMMIT LATE PREFETCHES: 0 MISSED OPPORTUNITY: 0 LATE IN PQ: 0 UNCOVERED: 0
STLB COMMIT LATE MSHR PREFETCHES: 0
STLB MPKI TOTAL: 0 MSHR LATE: 0.00854 PQ LATE: 0 COMMIT LATE: 0 MISSED OPPORTUNITY: 0 UNCOVERED: 0
STLB PREFETCHES SAME FILL-ORIGIN LEVEL: 0 DIFFERENT FILL-ORIGIN LEVEL: 0
STLB AVERAGE MISS LATENCY: 210.595 cycles
STLB AVERAGE MISS LATENCY LOAD: -nan cycles
STLB AVERAGE MISS LATENCY PREFETCH: -nan cycles
STLB AVERAGE MSHR OCCUPANCY: 0.082791
STLB MSHR FULL: 0
STLB RQ	ACCESS:   29218411	FORWARD:          0	MERGED:   22979014	TO_CACHE:    6239397

STLB Hit, L1D data hit: 0
STLB Hit, L2C data hit: 0
STLB Hit, LLC data hit: 0
STLB Hit, LLC data miss: 0
STLB STLB hints to L2: 0
L0D SPEC fills:   21139083  NON-SPEC fills:          0
L0D TimeGuard Request with older TS:     834926 Restricted eviction:     510089 read:    3916137
L0D Test counter :          0
L0D Leapfrog:          0
L0D MSHR merge:     290287
L0D TOTAL     ACCESS:   42431264  HIT:    5140604  MISS:   37290660  HIT %:    12.1151  MISS %:    87.8849   MPKI: 186.453
L0D LOAD      TOTAL       ACCESS:   42431264  HIT:    5140604  MISS:   37290660  HIT %:    12.1151  MISS %:    87.8849   MPKI: 186.453
L0D LOAD      NON_SPEC    ACCESS:   15657443  HIT:      15955  MISS:   15641488  HIT %:     0.1019  MISS %:    99.8981   MPKI: 78.2074
L0D LOAD      SPEC        ACCESS:   26773821  HIT:    5124649  MISS:   21649172  HIT %:    19.1405  MISS %:    80.8595   MPKI: 108.246
L0D PREFETCH  REQUESTED:          0  ISSUED:          0  USEFUL:          0  USELESS:          0
L0D USEFUL LOAD PREFETCHES:          0 PREFETCH ISSUED TO LOWER LEVEL:          0  ACCURACY: -nan
L0D TIMELY PREFETCHES:          0 LATE PREFETCHES: 0 DROPPED PREFETCHES: 0
L0D COMMIT LATE PREFETCHES: 0 MISSED OPPORTUNITY: 0 LATE IN PQ: 0 UNCOVERED: 0
L0D COMMIT LATE MSHR PREFETCHES: 0
L0D MPKI TOTAL: 187.905 MSHR LATE: 0 PQ LATE: 0 COMMIT LATE: 0 MISSED OPPORTUNITY: 0 UNCOVERED: 0
L0D PREFETCHES SAME FILL-ORIGIN LEVEL: 0 DIFFERENT FILL-ORIGIN LEVEL: 0
L0D AVERAGE MISS LATENCY: 5.41843 cycles
L0D AVERAGE MISS LATENCY LOAD: 5.41843 cycles
L0D AVERAGE MISS LATENCY PREFETCH: -nan cycles
L0D AVERAGE MSHR OCCUPANCY: 0.647702
L0D MSHR FULL: 7.4435e-06
L0D RQ	ACCESS:   48653098	FORWARD:          0	MERGED:    5931554	TO_CACHE:   42721544
L0D WQ	ACCESS:   25053030	FORWARD:          0	MERGED:          0	TO_CACHE:   25053030

L1D SPEC fills:          0  NON-SPEC fills:       8846
L1D Test counter :      55456
L1D Leapfrog:          0
L1D MSHR merge:      38690
L1D TOTAL     ACCESS:   82707897  HIT:   81350094  MISS:    1357803  HIT %:    98.3583  MISS %:    1.64168   MPKI: 6.78902
L1D LOAD      TOTAL       ACCESS:   37290589  HIT:   37199966  MISS:      90623  HIT %:     99.757  MISS %:   0.243018   MPKI: 0.453115
L1D LOAD      NON_SPEC    ACCESS:   15641476  HIT:   15632630  MISS:       8846  HIT %:    99.9434  MISS %:  0.0565548   MPKI: 0.04423
L1D LOAD      SPEC        ACCESS:   21649113  HIT:   21567336  MISS:      81777  HIT %:    99.6223  MISS %:   0.377738   MPKI: 0.408885
L1D RFO       NON_SPEC    ACCESS:   21581574  HIT:   21163191  MISS:     418383  HIT %:    98.0614  MISS %:    1.93861   MPKI: 2.09192
L1D PREFETCH  NON_SPEC    ACCESS:   23599509  HIT:   22825818  MISS:     773691  HIT %:    96.7216  MISS %:    3.27842   MPKI: 3.86845
L1D COMMIT LOAD NON_SPEC    ACCESS:     144008  HIT:     143807  MISS:        201  HIT %:    99.8604  MISS %:   0.139576   MPKI: 0.001005
L1D COMMIT WRITE NON_SPEC    ACCESS:      92217  HIT:      17312  MISS:      74905  HIT %:    18.7731  MISS %:    81.2269   MPKI: 0.374525
L1D PREFETCH  REQUESTED:   56624524  ISSUED:   32771554  USEFUL:     715045  USELESS:      58647
L1D USEFUL LOAD PREFETCHES:     715045 PREFETCH ISSUED TO LOWER LEVEL:    4814363  ACCURACY: 14.8523
L1D TIMELY PREFETCHES:     715045 LATE PREFETCHES: 38643 DROPPED PREFETCHES: 277392
L1D COMMIT LATE PREFETCHES: 0 MISSED OPPORTUNITY: 0 LATE IN PQ: 0 UNCOVERED: 0
L1D COMMIT LATE MSHR PREFETCHES: 0
L1D MPKI TOTAL: 0.453465 MSHR LATE: 0.193215 PQ LATE: 0 COMMIT LATE: 0 MISSED OPPORTUNITY: 0 UNCOVERED: 0
L1D PREFETCHES SAME FILL-ORIGIN LEVEL: 812442 DIFFERENT FILL-ORIGIN LEVEL: 4001921
L1D AVERAGE MISS LATENCY: 222.981 cycles
L1D AVERAGE MISS LATENCY LOAD: 145.031 cycles
L1D AVERAGE MISS LATENCY PREFETCH: 191.241 cycles
L1D AVERAGE MSHR OCCUPANCY: 1.27143
L1D MSHR FULL: 0.00473339
L1D RQ	ACCESS:   37588275	FORWARD:          0	MERGED:     153517	TO_CACHE:   37434740
L1D WQ	ACCESS:   25145247	FORWARD:         18	MERGED:    1436826	TO_CACHE:   23708421
L1D PQ	ACCESS:   32771554	FORWARD:          0	MERGED:    3583883	TO_CACHE:   29187671

L1D UNIQUE REGIONS ACCESSED: 0
L1D REGIONS CONFLICTS: 0
L1D Cross Page Prefetch Requests: 3164853
L1D Same Page Prefetch Requests: 37020782
L1D ROI Sum of L1D PQ occupancy: 593638054
L1D PREFETCHES PUSHED FROM L2C: 0
L1I SPEC fills:          0  NON-SPEC fills:          0
L1I Test counter :          0
L1I Leapfrog:          0
L1I MSHR merge:         11
L1I TOTAL     ACCESS:   42915597  HIT:   42915561  MISS:         36  HIT %:    99.9999  MISS %: 8.38856e-05   MPKI: 0.00018
L1I LOAD      TOTAL       ACCESS:   42915597  HIT:   42915561  MISS:         36  HIT %:    99.9999  MISS %: 8.38856e-05   MPKI: 0.00018
L1I LOAD      NON_SPEC    ACCESS:   42915597  HIT:   42915561  MISS:         36  HIT %:    99.9999  MISS %: 8.38856e-05   MPKI: 0.00018
L1I PREFETCH  REQUESTED:          0  ISSUED:          0  USEFUL:          0  USELESS:          0
L1I USEFUL LOAD PREFETCHES:          0 PREFETCH ISSUED TO LOWER LEVEL:          0  ACCURACY: -nan
L1I TIMELY PREFETCHES:          0 LATE PREFETCHES: 0 DROPPED PREFETCHES: 0
L1I COMMIT LATE PREFETCHES: 0 MISSED OPPORTUNITY: 0 LATE IN PQ: 0 UNCOVERED: 0
L1I COMMIT LATE MSHR PREFETCHES: 0
L1I MPKI TOTAL: 0.000235 MSHR LATE: 0 PQ LATE: 0 COMMIT LATE: 0 MISSED OPPORTUNITY: 0 UNCOVERED: 0
L1I PREFETCHES SAME FILL-ORIGIN LEVEL: 0 DIFFERENT FILL-ORIGIN LEVEL: 0
L1I AVERAGE MISS LATENCY: 234.778 cycles
L1I AVERAGE MISS LATENCY LOAD: 234.778 cycles
L1I AVERAGE MISS LATENCY PREFETCH: -nan cycles
L1I AVERAGE MSHR OCCUPANCY: 6.99046e-07
L1I MSHR FULL: 0
L1I RQ	ACCESS:   56417194	FORWARD:          0	MERGED:   13501585	TO_CACHE:   42915609

BTB SPEC fills:          0  NON-SPEC fills:          0
BTB Test counter :          0
BTB Leapfrog:          0
BTB MSHR merge:          0
BTB TOTAL     ACCESS:   12980512  HIT:   11531272  MISS:    1449240  HIT %:    88.8353  MISS %:    11.1647   MPKI: 7.2462
BTB BRANCH_DIRECT_JUMP	ACCESS:    1449216  HIT:    1449208  MISS:          8
BTB BRANCH_INDIRECT	ACCESS:          0  HIT:          0  MISS:          0
BTB BRANCH_CONDITIONAL	ACCESS:    5734548  HIT:    5734517  MISS:         31
BTB BRANCH_DIRECT_CALL	ACCESS:    2898375  HIT:    2898365  MISS:         10
BTB BRANCH_INDIRECT_CALL	ACCESS:          0  HIT:          0  MISS:          0
BTB BRANCH_RETURN	ACCESS:    2898373  HIT:    1449182  MISS:    1449191
BTB BRANCH_OTHER ACCESS:          0  HIT:          0  MISS:          0

L2C SPEC fills:          0  NON-SPEC fills:       4378
L2C Test counter :      55207
L2C Leapfrog:          0
L2C MSHR merge:       4567
L2C TOTAL     ACCESS:    4944776  HIT:    3587003  MISS:    1357773  HIT %:    72.5413  MISS %:    27.4587   MPKI: 6.78887
L2C LOAD      TOTAL       ACCESS:      51965  HIT:      29149  MISS:      22816  HIT %:    56.0935  MISS %:    43.9065   MPKI: 0.11408
L2C LOAD      NON_SPEC    ACCESS:       6328  HIT:       1914  MISS:       4414  HIT %:    30.2465  MISS %:    69.7535   MPKI: 0.02207
L2C LOAD      SPEC        ACCESS:      45637  HIT:      27235  MISS:      18402  HIT %:    59.6775  MISS %:    40.3225   MPKI: 0.09201
L2C RFO       NON_SPEC    ACCESS:     418382  HIT:          6  MISS:     418376  HIT %:  0.0014341  MISS %:    99.9986   MPKI: 2.09188
L2C PREFETCH  NON_SPEC    ACCESS:    3204540  HIT:    2307032  MISS:     897508  HIT %:    71.9926  MISS %:    28.0074   MPKI: 4.48754
L2C WRITEBACK NON_SPEC    ACCESS:     418295  HIT:     417879  MISS:        416  HIT %:    99.9005  MISS %:  0.0994513   MPKI: 0.00208
L2C CLEAN_EVICTION NON_SPEC    ACCESS:      55455  HIT:      42938  MISS:      12517  HIT %:    77.4285  MISS %:    22.5715   MPKI: 0.062585
L2C COMMIT LOAD NON_SPEC    ACCESS:        178  HIT:        155  MISS:         23  HIT %:    87.0787  MISS %:    12.9213   MPKI: 0.000115
L2C LOAD TRANSLATION NON_SPEC    ACCESS:      87413  HIT:      84313  MISS:       3100  HIT %:    96.4536  MISS %:    3.54638   MPKI: 0.0155
L2C TRANSLATION FROM L1D PREFETCHER NON_SPEC    ACCESS:     708548  HIT:     705531  MISS:       3017  HIT %:    99.5742  MISS %:     0.4258   MPKI: 0.015085
L2C PREFETCH  REQUESTED:          0  ISSUED:          0  USEFUL:      25615  USELESS:     875935
L2C USEFUL LOAD PREFETCHES:      25615 PREFETCH ISSUED TO LOWER LEVEL:     902075  ACCURACY: 2.83956
L2C TIMELY PREFETCHES:      25615 LATE PREFETCHES: 4567 DROPPED PREFETCHES: 0
L2C COMMIT LATE PREFETCHES: 0 MISSED OPPORTUNITY: 0 LATE IN PQ: 0 UNCOVERED: 0
L2C COMMIT LATE MSHR PREFETCHES: 0
L2C MPKI TOTAL: 0.11408 MSHR LATE: 0.022835 PQ LATE: 0 COMMIT LATE: 0 MISSED OPPORTUNITY: 0 UNCOVERED: 0
L2C PREFETCHES SAME FILL-ORIGIN LEVEL: 525983 DIFFERENT FILL-ORIGIN LEVEL: 0
L2C AVERAGE MISS LATENCY: 336.931 cycles
L2C AVERAGE MISS LATENCY LOAD: 230.56 cycles
L2C AVERAGE MISS LATENCY PREFETCH: 350.802 cycles
L2C AVERAGE MSHR OCCUPANCY: 10.7093
L2C MSHR FULL: 0.0694992
L2C RQ	ACCESS:    1266560	FORWARD:          0	MERGED:          0	TO_CACHE:    1266486
L2C WQ	ACCESS:     473751	FORWARD:         74	MERGED:          1	TO_CACHE:     473750
L2C PQ	ACCESS:    4779164	FORWARD:          0	MERGED:       7876	TO_CACHE:    4771288

L2C Instructions Evicting Data 36
L2C Translations Evicting Data 6104
L2C Data Evicting Data 1314176
L2C Instructions Evicting Instructions 0
L2C Translations Evicting Instructions 0
L2C Data Evicting Instructions 36
L2C Instructions Evicting Translations 0
L2C Translations Evicting Translations 13
L2C Data Evicting Translations 6073
L2C Dense regions hint from L2: 0
PSCL5 SPEC fills:          0  NON-SPEC fills:          0
PSCL5 Test counter :          0
PSCL5 Leapfrog:          0
PSCL5 MSHR merge:          0
PSCL5 TOTAL     ACCESS:          0  HIT:          0  MISS:          0  HIT %:       -nan  MISS %:       -nan   MPKI: 0
PSCL5 PREFETCH  REQUESTED:          0  ISSUED:          0  USEFUL:          0  USELESS:          0
PSCL5 USEFUL LOAD PREFETCHES:          0 PREFETCH ISSUED TO LOWER LEVEL:          0  ACCURACY: -nan
PSCL5 TIMELY PREFETCHES:          0 LATE PREFETCHES: 0 DROPPED PREFETCHES: 0
PSCL5 COMMIT LATE PREFETCHES: 0 MISSED OPPORTUNITY: 0 LATE IN PQ: 0 UNCOVERED: 0
PSCL5 COMMIT LATE MSHR PREFETCHES: 0
PSCL5 MPKI TOTAL: 0 MSHR LATE: 0 PQ LATE: 0 COMMIT LATE: 0 MISSED OPPORTUNITY: 0 UNCOVERED: 0
PSCL5 PREFETCHES SAME FILL-ORIGIN LEVEL: 0 DIFFERENT FILL-ORIGIN LEVEL: 0

PSCL4 SPEC fills:          0  NON-SPEC fills:          0
PSCL4 Test counter :          0
PSCL4 Leapfrog:          0
PSCL4 MSHR merge:          0
PSCL4 TOTAL     ACCESS:          0  HIT:          0  MISS:          0  HIT %:       -nan  MISS %:       -nan   MPKI: 0
PSCL4 PREFETCH  REQUESTED:          0  ISSUED:          0  USEFUL:          0  USELESS:          0
PSCL4 USEFUL LOAD PREFETCHES:          0 PREFETCH ISSUED TO LOWER LEVEL:          0  ACCURACY: -nan
PSCL4 TIMELY PREFETCHES:          0 LATE PREFETCHES: 0 DROPPED PREFETCHES: 0
PSCL4 COMMIT LATE PREFETCHES: 0 MISSED OPPORTUNITY: 0 LATE IN PQ: 0 UNCOVERED: 0
PSCL4 COMMIT LATE MSHR PREFETCHES: 0
PSCL4 MPKI TOTAL: 0 MSHR LATE: 0 PQ LATE: 0 COMMIT LATE: 0 MISSED OPPORTUNITY: 0 UNCOVERED: 0
PSCL4 PREFETCHES SAME FILL-ORIGIN LEVEL: 0 DIFFERENT FILL-ORIGIN LEVEL: 0

PSCL3 SPEC fills:          0  NON-SPEC fills:          0
PSCL3 Test counter :          0
PSCL3 Leapfrog:          0
PSCL3 MSHR merge:          0
PSCL3 TOTAL     ACCESS:          0  HIT:          0  MISS:          0  HIT %:       -nan  MISS %:       -nan   MPKI: 0
PSCL3 PREFETCH  REQUESTED:          0  ISSUED:          0  USEFUL:          0  USELESS:          0
PSCL3 USEFUL LOAD PREFETCHES:          0 PREFETCH ISSUED TO LOWER LEVEL:          0  ACCURACY: -nan
PSCL3 TIMELY PREFETCHES:          0 LATE PREFETCHES: 0 DROPPED PREFETCHES: 0
PSCL3 COMMIT LATE PREFETCHES: 0 MISSED OPPORTUNITY: 0 LATE IN PQ: 0 UNCOVERED: 0
PSCL3 COMMIT LATE MSHR PREFETCHES: 0
PSCL3 MPKI TOTAL: 0 MSHR LATE: 0 PQ LATE: 0 COMMIT LATE: 0 MISSED OPPORTUNITY: 0 UNCOVERED: 0
PSCL3 PREFETCHES SAME FILL-ORIGIN LEVEL: 0 DIFFERENT FILL-ORIGIN LEVEL: 0

PSCL2 SPEC fills:          0  NON-SPEC fills:          0
PSCL2 Test counter :          0
PSCL2 Leapfrog:          0
PSCL2 MSHR merge:          0
PSCL2 TOTAL     ACCESS:          0  HIT:          0  MISS:          0  HIT %:       -nan  MISS %:       -nan   MPKI: 0
PSCL2 PREFETCH  REQUESTED:          0  ISSUED:          0  USEFUL:          0  USELESS:          0
PSCL2 USEFUL LOAD PREFETCHES:          0 PREFETCH ISSUED TO LOWER LEVEL:          0  ACCURACY: -nan
PSCL2 TIMELY PREFETCHES:          0 LATE PREFETCHES: 0 DROPPED PREFETCHES: 0
PSCL2 COMMIT LATE PREFETCHES: 0 MISSED OPPORTUNITY: 0 LATE IN PQ: 0 UNCOVERED: 0
PSCL2 COMMIT LATE MSHR PREFETCHES: 0
PSCL2 MPKI TOTAL: 0 MSHR LATE: 0 PQ LATE: 0 COMMIT LATE: 0 MISSED OPPORTUNITY: 0 UNCOVERED: 0
PSCL2 PREFETCHES SAME FILL-ORIGIN LEVEL: 0 DIFFERENT FILL-ORIGIN LEVEL: 0

LLC SPEC fills:          0  NON-SPEC fills:       4129
LLC Test counter :      54881
LLC Leapfrog:          0
LLC MSHR merge:          0
LLC TOTAL     ACCESS:    1817185  HIT:     464836  MISS:    1352349  HIT %:      25.58  MISS %:      74.42   MPKI: 6.76175
LLC LOAD      TOTAL       ACCESS:      18249  HIT:        619  MISS:      17630  HIT %:    3.39197  MISS %:     96.608   MPKI: 0.08815
LLC LOAD      NON_SPEC    ACCESS:       4209  HIT:         44  MISS:       4165  HIT %:    1.04538  MISS %:    98.9546   MPKI: 0.020825
LLC LOAD      SPEC        ACCESS:      14040  HIT:        575  MISS:      13465  HIT %:    4.09544  MISS %:    95.9046   MPKI: 0.067325
LLC RFO       NON_SPEC    ACCESS:     418376  HIT:          0  MISS:     418376  HIT %:          0  MISS %:        100   MPKI: 2.09188
LLC PREFETCH  NON_SPEC    ACCESS:     902075  HIT:        661  MISS:     901414  HIT %:  0.0732755  MISS %:    99.9267   MPKI: 4.50707
LLC WRITEBACK NON_SPEC    ACCESS:     417138  HIT:     416725  MISS:        413  HIT %:     99.901  MISS %:   0.099008   MPKI: 0.002065
LLC CLEAN_EVICTION NON_SPEC    ACCESS:      55207  HIT:      46820  MISS:       8387  HIT %:    84.8081  MISS %:    15.1919   MPKI: 0.041935
LLC COMMIT LOAD NON_SPEC    ACCESS:         23  HIT:          3  MISS:         20  HIT %:    13.0435  MISS %:    86.9565   MPKI: 0.0001
LLC LOAD TRANSLATION NON_SPEC    ACCESS:       3100  HIT:          8  MISS:       3092  HIT %:   0.258065  MISS %:    99.7419   MPKI: 0.01546
LLC TRANSLATION FROM L1D PREFETCHER NON_SPEC    ACCESS:       3017  HIT:          0  MISS:       3017  HIT %:          0  MISS %:        100   MPKI: 0.015085
LLC PREFETCH  REQUESTED:          0  ISSUED:          0  USEFUL:         76  USELESS:     906333
LLC USEFUL LOAD PREFETCHES:         76 PREFETCH ISSUED TO LOWER LEVEL:     901414  ACCURACY: 0.0084312
LLC TIMELY PREFETCHES:         76 LATE PREFETCHES: 0 DROPPED PREFETCHES: 0
LLC COMMIT LATE PREFETCHES: 0 MISSED OPPORTUNITY: 0 LATE IN PQ: 0 UNCOVERED: 0
LLC COMMIT LATE MSHR PREFETCHES: 0
LLC MPKI TOTAL: 0.08815 MSHR LATE: 0 PQ LATE: 0 COMMIT LATE: 0 MISSED OPPORTUNITY: 0 UNCOVERED: 0
LLC PREFETCHES SAME FILL-ORIGIN LEVEL: 0 DIFFERENT FILL-ORIGIN LEVEL: 0
LLC AVERAGE MISS LATENCY: 308.176 cycles
LLC AVERAGE MISS LATENCY LOAD: 221.812 cycles
LLC AVERAGE MISS LATENCY PREFETCH: 320.207 cycles
LLC AVERAGE MSHR OCCUPANCY: 8.09792
LLC MSHR FULL: 0
LLC RQ	ACCESS:     442765	FORWARD:          0	MERGED:          0	TO_CACHE:     442765
LLC WQ	ACCESS:     472345	FORWARD:          0	MERGED:          0	TO_CACHE:     472345
LLC PQ	ACCESS:     902075	FORWARD:          0	MERGED:          0	TO_CACHE:     902075

LLC Dense regions hint to LLC: 0

RAW hits: 5911008
Loads Generated: 54564106
Loads sent to L1D: 48653098
Stores Generated: 25053029
Stores sent to L1D: 25053030
Major fault: 0 Minor fault: 17838
Allocated PAGES: 17838
Total Load insts: 59646352
Total Non-spec loads: 17144748
Percentage of speculative loads: 71.256

LeapFrogging counter: 10916
Commit hits: 20893250 miss: 12102132
Commit hit %: 63.3217 miss %: 36.6783
Commits not translated: 0
Loads retired: 90623
Stores retired: 25053030
Cache fills: 90623
L1D response latency: 145.031 cycles
Load retirement latency: 237.55 cycles
OOO test counter: 0
Discarded buffer inserts: 20893250 hits: 2345 hit %: 0.0112237
Filter prediction accuracy: 0.999846
ALL MISSES SIZE: 1734
LATENCY_FILL: 141.668 90489
LATENCY_FILL_ROB: 192.157 90411
test counter pref: 937096
Max ROB Extended: 14

DRAM Statistics
 CHANNEL 0
 RQ ROW_BUFFER_HIT:     418703  ROW_BUFFER_MISS:     924846
 DBUS_CONGESTED:        104
 WQ ROW_BUFFER_HIT:      66121  ROW_BUFFER_MISS:     404873  FULL:          0

 AVG_CONGESTED_CYCLE: 5
 All warmup complete: 2
Channel 0 Bank busy for read cycles: 0
Channel 0 Bank busy for write cycles: 0
Channel 0
Rank 0
0banks busy for read cycles: 259135589
0banks busy for write cycles: 85973
1banks busy for read cycles: 26392747
1banks busy for write cycles: 13441823
2banks busy for read cycles: 1827225
2banks busy for write cycles: 408477
3banks busy for read cycles: 2611016
3banks busy for write cycles: 149566
4banks busy for read cycles: 3335180
4banks busy for write cycles: 113024
5banks busy for read cycles: 3774112
5banks busy for write cycles: 96964
6banks busy for read cycles: 4005910
6banks busy for write cycles: 91017
7banks busy for read cycles: 4511681
7banks busy for write cycles: 539625
8banks busy for read cycles: 5508768
8banks busy for write cycles: 7997101

CPU 0 Branch Prediction Accuracy: 99.9742% MPKI: 0.027965 Average ROB Occupancy at Mispredict: 47.8183
Branch types
NOT_BRANCH: 178321210 89.1606%
BRANCH_DIRECT_JUMP: 1449216 0.724608%
BRANCH_INDIRECT: 0 0%
BRANCH_CONDITIONAL: 14432543 7.21627%
BRANCH_DIRECT_CALL: 2898375 1.44919%
BRANCH_INDIRECT_CALL: 0 0%
BRANCH_RETURN: 2898373 1.44919%
BRANCH_OTHER: 0 0%

DRAM PAGES: 1048576
Allocated PAGES: 17838
