
*** ChampSim Multicore Out-of-Order Simulator ***

Warmup Instructions: 50000000
Simulation Instructions: 200000000
Number of CPUs: 1
LLC sets: 2048
LLC ways: 16
L0D sets: 16
L0D ways: 2
ROB size: 352
LQ size: 128
SQ size: 72
Secure Berti: OFF
Berti: OFF
Berti Fill: OFF
On commit prefetching: OFF
Hit-based filter: OFF
Time-guarding: ON
Free-slotting: ON
Leap-frogging: ON
Train prefetcher on L0D bypass: OFF
No translation penalty for prefetchers: OFF
Prefetch to L0D only: OFF
Prefetch to L1D only: OFF
Clean evictions: ON
Commit loads: ON
Commit write: ON
Fill commit loads to L2C, LLC: ON
DRAM IO FREQUENCY: 6400
ROB SIZE: 352
Off-chip DRAM Size: 4096 MB Channels: 1 Width: 64-bit Data Rate: 6400 MT/s
CPU 0 runs /home/sumon/secure_berti/GhostMinion/../../traces/gap/bc-0.trace.gz
.gz
BTB has LRU replacement policy
ITLB has LRU replacement policy
DTLB has LRU replacement policy
STLB has LRU replacement policy
L1I has LRU replacement policy
L0D has LRU replacement policy
L1D has LRU replacement policy
Bingo PHT WAYS: 16 and PHT_SIZE: 16384
L2C has LRU replacement policy
LLC has LRU replacement policy
Heartbeat CPU 0 instructions: 10000002 cycles: 3791717 heartbeat IPC: 2.63733 cumulative IPC: 2.63733 (Simulation time: 0 hr 2 min 34 sec) 
Heartbeat CPU 0 instructions: 20000000 cycles: 7208244 heartbeat IPC: 2.92695 cumulative IPC: 2.7746 (Simulation time: 0 hr 5 min 28 sec) 
Heartbeat CPU 0 instructions: 30000003 cycles: 10659948 heartbeat IPC: 2.89712 cumulative IPC: 2.81427 (Simulation time: 0 hr 8 min 26 sec) 
Heartbeat CPU 0 instructions: 40000000 cycles: 14093050 heartbeat IPC: 2.91282 cumulative IPC: 2.83828 (Simulation time: 0 hr 11 min 12 sec) 
Heartbeat CPU 0 instructions: 50000002 cycles: 17532141 heartbeat IPC: 2.90775 cumulative IPC: 2.85191 (Simulation time: 0 hr 13 min 53 sec) 

Warmup complete CPU 0 instructions: 50000002 cycles: 17532141 (Simulation time: 0 hr 13 min 53 sec) 

Heartbeat CPU 0 instructions: 60000003 cycles: 85238623 heartbeat IPC: 0.147696 cumulative IPC: 0.147696 (Simulation time: 0 hr 17 min 43 sec) 
Heartbeat CPU 0 instructions: 70000000 cycles: 153368236 heartbeat IPC: 0.146779 cumulative IPC: 0.147236 (Simulation time: 0 hr 21 min 33 sec) 
Heartbeat CPU 0 instructions: 80000000 cycles: 221238005 heartbeat IPC: 0.147341 cumulative IPC: 0.147271 (Simulation time: 0 hr 25 min 32 sec) 
Heartbeat CPU 0 instructions: 90000002 cycles: 290028926 heartbeat IPC: 0.145368 cumulative IPC: 0.146791 (Simulation time: 0 hr 29 min 26 sec) 
Heartbeat CPU 0 instructions: 100000001 cycles: 357266837 heartbeat IPC: 0.148726 cumulative IPC: 0.147174 (Simulation time: 0 hr 33 min 28 sec) 
Heartbeat CPU 0 instructions: 110000000 cycles: 424683703 heartbeat IPC: 0.148331 cumulative IPC: 0.147365 (Simulation time: 0 hr 37 min 37 sec) 
Heartbeat CPU 0 instructions: 120000001 cycles: 490865926 heartbeat IPC: 0.151098 cumulative IPC: 0.147887 (Simulation time: 0 hr 41 min 58 sec) 
Heartbeat CPU 0 instructions: 130000001 cycles: 557511800 heartbeat IPC: 0.150047 cumulative IPC: 0.148154 (Simulation time: 0 hr 46 min 16 sec) 
Heartbeat CPU 0 instructions: 140000000 cycles: 624283486 heartbeat IPC: 0.149764 cumulative IPC: 0.148331 (Simulation time: 0 hr 50 min 35 sec) 
Heartbeat CPU 0 instructions: 150000000 cycles: 690759878 heartbeat IPC: 0.150429 cumulative IPC: 0.148538 (Simulation time: 0 hr 54 min 56 sec) 
Heartbeat CPU 0 instructions: 160000003 cycles: 755773255 heartbeat IPC: 0.153815 cumulative IPC: 0.149003 (Simulation time: 0 hr 59 min 31 sec) 
Heartbeat CPU 0 instructions: 170000001 cycles: 821444012 heartbeat IPC: 0.152275 cumulative IPC: 0.14927 (Simulation time: 1 hr 4 min 2 sec) 
Heartbeat CPU 0 instructions: 180000002 cycles: 887025745 heartbeat IPC: 0.152481 cumulative IPC: 0.149512 (Simulation time: 1 hr 8 min 33 sec) 
Heartbeat CPU 0 instructions: 190000002 cycles: 952315382 heartbeat IPC: 0.153164 cumulative IPC: 0.149767 (Simulation time: 1 hr 13 min 5 sec) 
Heartbeat CPU 0 instructions: 200000000 cycles: 1018245562 heartbeat IPC: 0.151676 cumulative IPC: 0.149893 (Simulation time: 1 hr 17 min 34 sec) 
Heartbeat CPU 0 instructions: 210000000 cycles: 1083900791 heartbeat IPC: 0.152311 cumulative IPC: 0.150042 (Simulation time: 1 hr 22 min 4 sec) 
Heartbeat CPU 0 instructions: 220000000 cycles: 1149747065 heartbeat IPC: 0.151869 cumulative IPC: 0.150148 (Simulation time: 1 hr 26 min 37 sec) 
Heartbeat CPU 0 instructions: 230000000 cycles: 1215293726 heartbeat IPC: 0.152563 cumulative IPC: 0.15028 (Simulation time: 1 hr 31 min 20 sec) 
Heartbeat CPU 0 instructions: 240000003 cycles: 1280983024 heartbeat IPC: 0.152232 cumulative IPC: 0.150382 (Simulation time: 1 hr 36 min 10 sec) 
Heartbeat CPU 0 instructions: 250000003 cycles: 1346689641 heartbeat IPC: 0.152192 cumulative IPC: 0.150471 (Simulation time: 1 hr 41 min 36 sec) 
Finished CPU 0 instructions: 200000001 cycles: 1329157500 cumulative IPC: 0.150471 (Simulation time: 1 hr 41 min 36 sec) 
 Instruction ID: 250000008

ChampSim completed all CPUs

Region of Interest Statistics

CPU 0 cumulative IPC: 0.150471 instructions: 200000001 cycles: 1329157500
ITLB SPEC fills:          0  NON-SPEC fills:          0
ITLB Test counter :          0
ITLB Leapfrog:          0
ITLB MSHR merge:          0
ITLB TOTAL     ACCESS:   40678626  HIT:   40678626  MISS:          0  HIT %:        100  MISS %:          0   MPKI: 0
ITLB LOAD TRANSLATION NON_SPEC    ACCESS:   40678626  HIT:   40678626  MISS:          0  HIT %:        100  MISS %:          0   MPKI: 0
ITLB PREFETCH  REQUESTED:          0  ISSUED:          0  USEFUL:          0  USELESS:          0
ITLB USEFUL LOAD PREFETCHES:          0 PREFETCH ISSUED TO LOWER LEVEL:          0  ACCURACY: -nan
ITLB TIMELY PREFETCHES:          0 LATE PREFETCHES: 0 DROPPED PREFETCHES: 0
ITLB COMMIT LATE PREFETCHES: 0 NORMAL LATE: 0 MISSED OPPORTUNITY: 0 UNCOVERED: 0
ITLB PREFETCHES SAME FILL-ORIGIN LEVEL: 0 DIFFERENT FILL-ORIGIN LEVEL: 0
ITLB AVERAGE MISS LATENCY: -nan cycles
ITLB AVERAGE MISS LATENCY LOAD: -nan cycles
ITLB AVERAGE MISS LATENCY PREFETCH: -nan cycles
ITLB AVERAGE MSHR OCCUPANCY: 0
ITLB MSHR FULL: 0
ITLB RQ	ACCESS:   40943245	FORWARD:          0	MERGED:     264620	TO_CACHE:   40678625

DTLB SPEC fills:          0  NON-SPEC fills:          0
DTLB Test counter :          0
DTLB Leapfrog:          0
DTLB MSHR merge:          0
DTLB TOTAL     ACCESS:   55024555  HIT:   45605134  MISS:    9419421  HIT %:    82.8814  MISS %:    17.1186   MPKI: 47.0971
DTLB LOAD TRANSLATION NON_SPEC    ACCESS:   55024555  HIT:   45605134  MISS:    9419421  HIT %:    82.8814  MISS %:    17.1186   MPKI: 47.0971
DTLB PREFETCH  REQUESTED:          0  ISSUED:          0  USEFUL:          0  USELESS:          0
DTLB USEFUL LOAD PREFETCHES:          0 PREFETCH ISSUED TO LOWER LEVEL:          0  ACCURACY: -nan
DTLB TIMELY PREFETCHES:          0 LATE PREFETCHES: 0 DROPPED PREFETCHES: 0
DTLB COMMIT LATE PREFETCHES: 0 NORMAL LATE: 0 MISSED OPPORTUNITY: 0 UNCOVERED: 0
DTLB PREFETCHES SAME FILL-ORIGIN LEVEL: 0 DIFFERENT FILL-ORIGIN LEVEL: 0
DTLB AVERAGE MISS LATENCY: 35.9096 cycles
DTLB AVERAGE MISS LATENCY LOAD: -nan cycles
DTLB AVERAGE MISS LATENCY PREFETCH: -nan cycles
DTLB AVERAGE MSHR OCCUPANCY: 0.363098
DTLB MSHR FULL: 0.00149001
DTLB RQ	ACCESS:   60553453	FORWARD:          0	MERGED:    4793588	TO_CACHE:   55759865

STLB SPEC fills:          0  NON-SPEC fills:          0
STLB Test counter :          0
STLB Leapfrog:          0
STLB MSHR merge:          0
STLB TOTAL     ACCESS:    9419421  HIT:    6409350  MISS:    3010071  HIT %:     68.044  MISS %:     31.956   MPKI: 15.0504
STLB LOAD TRANSLATION NON_SPEC    ACCESS:    9419421  HIT:    6409350  MISS:    3010071  HIT %:     68.044  MISS %:     31.956   MPKI: 15.0504
STLB PREFETCH  REQUESTED:          0  ISSUED:          0  USEFUL:          0  USELESS:          0
STLB USEFUL LOAD PREFETCHES:          0 PREFETCH ISSUED TO LOWER LEVEL:          0  ACCURACY: -nan
STLB TIMELY PREFETCHES:          0 LATE PREFETCHES: 0 DROPPED PREFETCHES: 0
STLB COMMIT LATE PREFETCHES: 0 NORMAL LATE: 0 MISSED OPPORTUNITY: 0 UNCOVERED: 0
STLB PREFETCHES SAME FILL-ORIGIN LEVEL: 0 DIFFERENT FILL-ORIGIN LEVEL: 0
STLB AVERAGE MISS LATENCY: 84.0413 cycles
STLB AVERAGE MISS LATENCY LOAD: -nan cycles
STLB AVERAGE MISS LATENCY PREFETCH: -nan cycles
STLB AVERAGE MSHR OCCUPANCY: 0.328931
STLB MSHR FULL: 0
STLB RQ	ACCESS:    9419420	FORWARD:          0	MERGED:          0	TO_CACHE:    9419420

STLB Hit, L1D data hit: 0
STLB Hit, L2C data hit: 0
STLB Hit, LLC data hit: 0
STLB Hit, LLC data miss: 0
STLB STLB hints to L2: 0
L0D SPEC fills:   34251717  NON-SPEC fills:          0
L0D TimeGuard Request with older TS:     284168 Restricted eviction:     300899 read:          2
L0D Test counter :          0
L0D Leapfrog:          0
L0D MSHR merge:     440094
L0D TOTAL     ACCESS:   50992305  HIT:   12275820  MISS:   38716485  HIT %:    24.0739  MISS %:    75.9261   MPKI: 193.582
L0D LOAD      TOTAL       ACCESS:   50992305  HIT:   12275820  MISS:   38716485  HIT %:    24.0739  MISS %:    75.9261   MPKI: 193.582
L0D LOAD      NON_SPEC    ACCESS:    4166037  HIT:       2089  MISS:    4163948  HIT %:  0.0501436  MISS %:    99.9499   MPKI: 20.8197
L0D LOAD      SPEC        ACCESS:   46826268  HIT:   12273731  MISS:   34552537  HIT %:    26.2112  MISS %:    73.7888   MPKI: 172.763
L0D PREFETCH  REQUESTED:          0  ISSUED:          0  USEFUL:          0  USELESS:          0
L0D USEFUL LOAD PREFETCHES:          0 PREFETCH ISSUED TO LOWER LEVEL:          0  ACCURACY: -nan
L0D TIMELY PREFETCHES:          0 LATE PREFETCHES: 0 DROPPED PREFETCHES: 0
L0D COMMIT LATE PREFETCHES: 0 NORMAL LATE: 0 MISSED OPPORTUNITY: 0 UNCOVERED: 38716485
L0D PREFETCHES SAME FILL-ORIGIN LEVEL: 0 DIFFERENT FILL-ORIGIN LEVEL: 0
L0D AVERAGE MISS LATENCY: 57.1288 cycles
L0D AVERAGE MISS LATENCY LOAD: 57.1288 cycles
L0D AVERAGE MISS LATENCY PREFETCH: -nan cycles
L0D AVERAGE MSHR OCCUPANCY: 1.23983
L0D MSHR FULL: 0.0193167
L0D RQ	ACCESS:   52229905	FORWARD:          0	MERGED:     797513	TO_CACHE:   51432392
L0D WQ	ACCESS:    9121061	FORWARD:          0	MERGED:          0	TO_CACHE:    9121061

L1D SPEC fills:          0  NON-SPEC fills:     644554
L1D Test counter :          0
L1D Leapfrog:          0
L1D MSHR merge:       4355
L1D TOTAL     ACCESS:   87158467  HIT:   52616384  MISS:   34542083  HIT %:    60.3686  MISS %:    39.6314   MPKI: 172.71
L1D LOAD      TOTAL       ACCESS:   38712130  HIT:   21122328  MISS:   17589802  HIT %:    54.5626  MISS %:    45.4374   MPKI: 87.949
L1D LOAD      NON_SPEC    ACCESS:    4162960  HIT:    3518406  MISS:     644554  HIT %:    84.5169  MISS %:    15.4831   MPKI: 3.22277
L1D LOAD      SPEC        ACCESS:   34549170  HIT:   17603922  MISS:   16945248  HIT %:    50.9532  MISS %:    49.0468   MPKI: 84.7262
L1D RFO       NON_SPEC    ACCESS:    3799885  HIT:    3770549  MISS:      29336  HIT %:     99.228  MISS %:   0.772023   MPKI: 0.14668
L1D COMMIT LOAD NON_SPEC    ACCESS:   10657138  HIT:   10415017  MISS:     242121  HIT %:    97.7281  MISS %:    2.27191   MPKI: 1.2106
L1D COMMIT WRITE NON_SPEC    ACCESS:   33989314  HIT:   17308490  MISS:   16680824  HIT %:    50.9233  MISS %:    49.0767   MPKI: 83.4041
L1D PREFETCH  REQUESTED:          0  ISSUED:          0  USEFUL:          0  USELESS:          0
L1D USEFUL LOAD PREFETCHES:          0 PREFETCH ISSUED TO LOWER LEVEL:          0  ACCURACY: -nan
L1D TIMELY PREFETCHES:          0 LATE PREFETCHES: 0 DROPPED PREFETCHES: 0
L1D COMMIT LATE PREFETCHES: 0 NORMAL LATE: 0 MISSED OPPORTUNITY: 0 UNCOVERED: 17589802
L1D PREFETCHES SAME FILL-ORIGIN LEVEL: 0 DIFFERENT FILL-ORIGIN LEVEL: 0
L1D AVERAGE MISS LATENCY: 59.0544 cycles
L1D AVERAGE MISS LATENCY LOAD: 114.6 cycles
L1D AVERAGE MISS LATENCY PREFETCH: -nan cycles
L1D AVERAGE MSHR OCCUPANCY: 1.02624
L1D MSHR FULL: 0.0129488
L1D RQ	ACCESS:   52790513	FORWARD:          0	MERGED:    3254475	TO_CACHE:   49394047
L1D WQ	ACCESS:   43110920	FORWARD:     141991	MERGED:    5265182	TO_CACHE:   37845738

L1D UNIQUE REGIONS ACCESSED: 0
L1D REGIONS CONFLICTS: 0
L1D Cross Page Prefetch Requests: 0
L1D Same Page Prefetch Requests: 0
L1D ROI Sum of L1D PQ occupancy: 0
L1D PREFETCHES PUSHED FROM L2C: 0
L1I SPEC fills:          0  NON-SPEC fills:          0
L1I Test counter :          0
L1I Leapfrog:          0
L1I MSHR merge:          0
L1I TOTAL     ACCESS:   40943246  HIT:   40943246  MISS:          0  HIT %:        100  MISS %:          0   MPKI: 0
L1I LOAD      TOTAL       ACCESS:   40943246  HIT:   40943246  MISS:          0  HIT %:        100  MISS %:          0   MPKI: 0
L1I LOAD      NON_SPEC    ACCESS:   40943246  HIT:   40943246  MISS:          0  HIT %:        100  MISS %:          0   MPKI: 0
L1I PREFETCH  REQUESTED:          0  ISSUED:          0  USEFUL:          0  USELESS:          0
L1I USEFUL LOAD PREFETCHES:          0 PREFETCH ISSUED TO LOWER LEVEL:          0  ACCURACY: -nan
L1I TIMELY PREFETCHES:          0 LATE PREFETCHES: 0 DROPPED PREFETCHES: 0
L1I COMMIT LATE PREFETCHES: 0 NORMAL LATE: 0 MISSED OPPORTUNITY: 0 UNCOVERED: 0
L1I PREFETCHES SAME FILL-ORIGIN LEVEL: 0 DIFFERENT FILL-ORIGIN LEVEL: 0
L1I AVERAGE MISS LATENCY: -nan cycles
L1I AVERAGE MISS LATENCY LOAD: -nan cycles
L1I AVERAGE MISS LATENCY PREFETCH: -nan cycles
L1I AVERAGE MSHR OCCUPANCY: 0
L1I MSHR FULL: 0
L1I RQ	ACCESS:   52456471	FORWARD:          0	MERGED:   11513226	TO_CACHE:   40943245

BTB SPEC fills:          0  NON-SPEC fills:          0
BTB Test counter :          0
BTB Leapfrog:          0
BTB MSHR merge:          0
BTB TOTAL     ACCESS:   38946633  HIT:   38946619  MISS:         14  HIT %:        100  MISS %: 3.59466e-05   MPKI: 7e-05
BTB BRANCH_DIRECT_JUMP	ACCESS:     251798  HIT:     251794  MISS:          4
BTB BRANCH_INDIRECT	ACCESS:          0  HIT:          0  MISS:          0
BTB BRANCH_CONDITIONAL	ACCESS:   38694807  HIT:   38694799  MISS:          8
BTB BRANCH_DIRECT_CALL	ACCESS:         14  HIT:         13  MISS:          1
BTB BRANCH_INDIRECT_CALL	ACCESS:          0  HIT:          0  MISS:          0
BTB BRANCH_RETURN	ACCESS:         14  HIT:         13  MISS:          1
BTB BRANCH_OTHER ACCESS:          0  HIT:          0  MISS:          0

L2C SPEC fills:          0  NON-SPEC fills:     514919
L2C Test counter :          0
L2C Leapfrog:          0
L2C MSHR merge:      98057
L2C TOTAL     ACCESS:   60835439  HIT:   22826461  MISS:   38008978  HIT %:    37.5217  MISS %:    62.4783   MPKI: 190.045
L2C LOAD      TOTAL       ACCESS:   17589766  HIT:    3683929  MISS:   13905837  HIT %:    20.9436  MISS %:    79.0564   MPKI: 69.5292
L2C LOAD      NON_SPEC    ACCESS:     644553  HIT:     129634  MISS:     514919  HIT %:    20.1122  MISS %:    79.8878   MPKI: 2.57459
L2C LOAD      SPEC        ACCESS:   16945213  HIT:    3554295  MISS:   13390918  HIT %:    20.9752  MISS %:    79.0248   MPKI: 66.9546
L2C RFO       NON_SPEC    ACCESS:      29336  HIT:        725  MISS:      28611  HIT %:    2.47137  MISS %:    97.5286   MPKI: 0.143055
L2C PREFETCH  NON_SPEC    ACCESS:   10922377  HIT:     767443  MISS:   10154934  HIT %:    7.02634  MISS %:    92.9737   MPKI: 50.7747
L2C WRITEBACK NON_SPEC    ACCESS:     247950  HIT:     246728  MISS:       1222  HIT %:    99.5072  MISS %:   0.492841   MPKI: 0.00611
L2C CLEAN_EVICTION NON_SPEC    ACCESS:   16753650  HIT:    3235625  MISS:   13518025  HIT %:     19.313  MISS %:     80.687   MPKI: 67.5901
L2C COMMIT LOAD NON_SPEC    ACCESS:     242021  HIT:     108268  MISS:     133753  HIT %:     44.735  MISS %:     55.265   MPKI: 0.668765
L2C LOAD TRANSLATION NON_SPEC    ACCESS:   15050339  HIT:   14783743  MISS:     266596  HIT %:    98.2286  MISS %:    1.77136   MPKI: 1.33298
L2C PREFETCH  REQUESTED:   11102656  ISSUED:   11102656  USEFUL:    1319776  USELESS:    8834878
L2C USEFUL LOAD PREFETCHES:    1319776 PREFETCH ISSUED TO LOWER LEVEL:   10252994  ACCURACY: 12.8721
L2C TIMELY PREFETCHES:    1319776 LATE PREFETCHES: 98057 DROPPED PREFETCHES: 0
L2C COMMIT LATE PREFETCHES: 0 NORMAL LATE: 98057 MISSED OPPORTUNITY: 0 UNCOVERED: 13807780
L2C PREFETCHES SAME FILL-ORIGIN LEVEL: 10252994 DIFFERENT FILL-ORIGIN LEVEL: 0
L2C AVERAGE MISS LATENCY: 107.19 cycles
L2C AVERAGE MISS LATENCY LOAD: 130.76 cycles
L2C AVERAGE MISS LATENCY PREFETCH: 217.939 cycles
L2C AVERAGE MSHR OCCUPANCY: 2.42458
L2C MSHR FULL: 0.00184471
L2C RQ	ACCESS:   32911597	FORWARD:          0	MERGED:          0	TO_CACHE:   32911461
L2C WQ	ACCESS:   17001605	FORWARD:        139	MERGED:          4	TO_CACHE:   17001601
L2C PQ	ACCESS:   11102656	FORWARD:          0	MERGED:          0	TO_CACHE:   11102653

L2C Instructions Evicting Data 0
L2C Translations Evicting Data 266342
L2C Data Evicting Data 10701599
L2C Instructions Evicting Instructions 0
L2C Translations Evicting Instructions 0
L2C Data Evicting Instructions 0
L2C Instructions Evicting Translations 0
L2C Translations Evicting Translations 254
L2C Data Evicting Translations 130618
L2C Dense regions hint from L2: 0
PSCL5 SPEC fills:          0  NON-SPEC fills:          0
PSCL5 Test counter :          0
PSCL5 Leapfrog:          0
PSCL5 MSHR merge:          0
PSCL5 TOTAL     ACCESS:          0  HIT:          0  MISS:          0  HIT %:       -nan  MISS %:       -nan   MPKI: 0
PSCL5 PREFETCH  REQUESTED:          0  ISSUED:          0  USEFUL:          0  USELESS:          0
PSCL5 USEFUL LOAD PREFETCHES:          0 PREFETCH ISSUED TO LOWER LEVEL:          0  ACCURACY: -nan
PSCL5 TIMELY PREFETCHES:          0 LATE PREFETCHES: 0 DROPPED PREFETCHES: 0
PSCL5 COMMIT LATE PREFETCHES: 0 NORMAL LATE: 0 MISSED OPPORTUNITY: 0 UNCOVERED: 0
PSCL5 PREFETCHES SAME FILL-ORIGIN LEVEL: 0 DIFFERENT FILL-ORIGIN LEVEL: 0

PSCL4 SPEC fills:          0  NON-SPEC fills:          0
PSCL4 Test counter :          0
PSCL4 Leapfrog:          0
PSCL4 MSHR merge:          0
PSCL4 TOTAL     ACCESS:          0  HIT:          0  MISS:          0  HIT %:       -nan  MISS %:       -nan   MPKI: 0
PSCL4 PREFETCH  REQUESTED:          0  ISSUED:          0  USEFUL:          0  USELESS:          0
PSCL4 USEFUL LOAD PREFETCHES:          0 PREFETCH ISSUED TO LOWER LEVEL:          0  ACCURACY: -nan
PSCL4 TIMELY PREFETCHES:          0 LATE PREFETCHES: 0 DROPPED PREFETCHES: 0
PSCL4 COMMIT LATE PREFETCHES: 0 NORMAL LATE: 0 MISSED OPPORTUNITY: 0 UNCOVERED: 0
PSCL4 PREFETCHES SAME FILL-ORIGIN LEVEL: 0 DIFFERENT FILL-ORIGIN LEVEL: 0

PSCL3 SPEC fills:          0  NON-SPEC fills:          0
PSCL3 Test counter :          0
PSCL3 Leapfrog:          0
PSCL3 MSHR merge:          0
PSCL3 TOTAL     ACCESS:          0  HIT:          0  MISS:          0  HIT %:       -nan  MISS %:       -nan   MPKI: 0
PSCL3 PREFETCH  REQUESTED:          0  ISSUED:          0  USEFUL:          0  USELESS:          0
PSCL3 USEFUL LOAD PREFETCHES:          0 PREFETCH ISSUED TO LOWER LEVEL:          0  ACCURACY: -nan
PSCL3 TIMELY PREFETCHES:          0 LATE PREFETCHES: 0 DROPPED PREFETCHES: 0
PSCL3 COMMIT LATE PREFETCHES: 0 NORMAL LATE: 0 MISSED OPPORTUNITY: 0 UNCOVERED: 0
PSCL3 PREFETCHES SAME FILL-ORIGIN LEVEL: 0 DIFFERENT FILL-ORIGIN LEVEL: 0

PSCL2 SPEC fills:          0  NON-SPEC fills:          0
PSCL2 Test counter :          0
PSCL2 Leapfrog:          0
PSCL2 MSHR merge:          0
PSCL2 TOTAL     ACCESS:          0  HIT:          0  MISS:          0  HIT %:       -nan  MISS %:       -nan   MPKI: 0
PSCL2 PREFETCH  REQUESTED:          0  ISSUED:          0  USEFUL:          0  USELESS:          0
PSCL2 USEFUL LOAD PREFETCHES:          0 PREFETCH ISSUED TO LOWER LEVEL:          0  ACCURACY: -nan
PSCL2 TIMELY PREFETCHES:          0 LATE PREFETCHES: 0 DROPPED PREFETCHES: 0
PSCL2 COMMIT LATE PREFETCHES: 0 NORMAL LATE: 0 MISSED OPPORTUNITY: 0 UNCOVERED: 0
PSCL2 PREFETCHES SAME FILL-ORIGIN LEVEL: 0 DIFFERENT FILL-ORIGIN LEVEL: 0

LLC SPEC fills:          0  NON-SPEC fills:     333745
LLC Test counter :          0
LLC Leapfrog:          0
LLC MSHR merge:          0
LLC TOTAL     ACCESS:   39554740  HIT:   14242972  MISS:   25311768  HIT %:    36.0083  MISS %:    63.9917   MPKI: 126.559
LLC LOAD      TOTAL       ACCESS:   13807734  HIT:    5493104  MISS:    8314630  HIT %:    39.7828  MISS %:    60.2172   MPKI: 41.5731
LLC LOAD      NON_SPEC    ACCESS:     513218  HIT:     179473  MISS:     333745  HIT %:    34.9701  MISS %:    65.0299   MPKI: 1.66872
LLC LOAD      SPEC        ACCESS:   13294516  HIT:    5313631  MISS:    7980885  HIT %:    39.9686  MISS %:    60.0314   MPKI: 39.9044
LLC RFO       NON_SPEC    ACCESS:      28611  HIT:        383  MISS:      28228  HIT %:    1.33865  MISS %:    98.6614   MPKI: 0.14114
LLC PREFETCH  NON_SPEC    ACCESS:   10252981  HIT:    2234327  MISS:    8018654  HIT %:     21.792  MISS %:     78.208   MPKI: 40.0933
LLC WRITEBACK NON_SPEC    ACCESS:     241642  HIT:     241626  MISS:         16  HIT %:    99.9934  MISS %: 0.00662137   MPKI: 8e-05
LLC CLEAN_EVICTION NON_SPEC    ACCESS:   14823474  HIT:    5961640  MISS:    8861834  HIT %:    40.2176  MISS %:    59.7824   MPKI: 44.3092
LLC COMMIT LOAD NON_SPEC    ACCESS:     133702  HIT:     110914  MISS:      22788  HIT %:    82.9561  MISS %:    17.0439   MPKI: 0.11394
LLC LOAD TRANSLATION NON_SPEC    ACCESS:     266596  HIT:     200978  MISS:      65618  HIT %:    75.3867  MISS %:    24.6133   MPKI: 0.32809
LLC PREFETCH  REQUESTED:          0  ISSUED:          0  USEFUL:     598118  USELESS:    7421975
LLC USEFUL LOAD PREFETCHES:     598118 PREFETCH ISSUED TO LOWER LEVEL:    8018657  ACCURACY: 7.45908
LLC TIMELY PREFETCHES:     598118 LATE PREFETCHES: 0 DROPPED PREFETCHES: 0
LLC COMMIT LATE PREFETCHES: 0 NORMAL LATE: 0 MISSED OPPORTUNITY: 0 UNCOVERED: 8314630
LLC PREFETCHES SAME FILL-ORIGIN LEVEL: 0 DIFFERENT FILL-ORIGIN LEVEL: 0
LLC AVERAGE MISS LATENCY: 137.119 cycles
LLC AVERAGE MISS LATENCY LOAD: 181.032 cycles
LLC AVERAGE MISS LATENCY PREFETCH: 241.397 cycles
LLC AVERAGE MSHR OCCUPANCY: 1.91404
LLC MSHR FULL: 0
LLC RQ	ACCESS:   14236739	FORWARD:          0	MERGED:          0	TO_CACHE:   14236642
LLC WQ	ACCESS:   15065118	FORWARD:        107	MERGED:          0	TO_CACHE:   15065118
LLC PQ	ACCESS:   10252994	FORWARD:          0	MERGED:          0	TO_CACHE:   10252984

LLC Dense regions hint to LLC: 0

RAW hits: 269041
Loads Generated: 52498946
Loads sent to L1D: 52229905
Stores Generated: 9121059
Stores sent to L1D: 9121061
Major fault: 0 Minor fault: 33138
Allocated PAGES: 33138
Total Load insts: 64360958
Total Non-spec loads: 4457851
Percentage of speculative loads: 93.0737

LeapFrogging counter: 245090
Commit hits: 33989859 miss: 14074031
Commit hit %: 70.7181 miss %: 29.2819
Commits not translated: 0
Loads retired: 17589801
Stores retired: 9121061
Cache fills: 17589802
L1D response latency: 114.6 cycles
Load retirement latency: 236.98 cycles
OOO test counter: 0
Discarded buffer inserts: 33989859 hits: 17070 hit %: 0.0502209
Filter prediction accuracy: -nan
[Bingo] PHT Access: 11407029
[Bingo] PHT Hit PC+Addr: 363039
[Bingo] PHT Hit PC+Offs: 11041710
[Bingo] PHT Miss: 2280
[Bingo] Prefetch PC+Addr: 0
[Bingo] Prefetch PC+Offs: 0
[Bingo] Useful PC+Addr: 0
[Bingo] Useful PC+Offs: 0
[Bingo] Useless PC+Addr: 0
[Bingo] Useless PC+Offs: 0
[Bingo] L1 Prefetch per Region: 0
[Bingo] L2 Prefetch per Region: 1.97822
[Bingo] L3 Prefetch per Region: 0
[Bingo] No Prefetch per Region: 30.0218
[Bingo] Number of Voters Mean: 15.9882
[Bingo] Number of Voters SD: 6.41765
PHT read accesses: 179696175
PHT write accesses: 3022824
AT read accesses: 6904439
AT write accesses: 9205030
FT read accesses: 9379262
FT write accesses: 11407029
PS read accesses: 22888806
PS write accesses: 11404749
PHT tag read accesses: 275287595
PHT tag write accesses: 3385863
AT tag read accesses: 814949853
AT tag write accesses: 9927257
FT tag read accesses: 1012839170
FT tag write accesses: 17762949
PS tag read accesses: 722247617
PS tag write accesses: 34286886

DRAM Statistics
 CHANNEL 0
 RQ ROW_BUFFER_HIT:    2718833  ROW_BUFFER_MISS:   13724113
 DBUS_CONGESTED:       4463
 WQ ROW_BUFFER_HIT:    4495846  ROW_BUFFER_MISS:    6211331  FULL:     282230

 AVG_CONGESTED_CYCLE: 5
 All warmup complete: 2
Channel 0 Bank busy for read cycles: 0
Channel 0 Bank busy for write cycles: 0
Channel 0
Rank 0
0banks busy for read cycles: 4078902
0banks busy for write cycles: 1252
1banks busy for read cycles: 314543955
1banks busy for write cycles: 3626758
2banks busy for read cycles: 252227189
2banks busy for write cycles: 4049811
3banks busy for read cycles: 160767004
3banks busy for write cycles: 5575588
4banks busy for read cycles: 89292207
4banks busy for write cycles: 11053448
5banks busy for read cycles: 42800573
5banks busy for write cycles: 28690041
6banks busy for read cycles: 19287860
6banks busy for write cycles: 72251016
7banks busy for read cycles: 10863760
7banks busy for write cycles: 137541984
8banks busy for read cycles: 19668600
8banks busy for write cycles: 152837553

CPU 0 Branch Prediction Accuracy: 88.9318% MPKI: 21.5679 Average ROB Occupancy at Mispredict: 32.723
Branch types
NOT_BRANCH: 161026980 80.5135%
BRANCH_DIRECT_JUMP: 251798 0.125899%
BRANCH_INDIRECT: 0 0%
BRANCH_CONDITIONAL: 38720835 19.3604%
BRANCH_DIRECT_CALL: 14 7e-06%
BRANCH_INDIRECT_CALL: 0 0%
BRANCH_RETURN: 14 7e-06%
BRANCH_OTHER: 0 0%

DRAM PAGES: 1048576
Allocated PAGES: 33138
