
*** ChampSim Multicore Out-of-Order Simulator ***

Warmup Instructions: 50000000
Simulation Instructions: 200000000
Number of CPUs: 1
LLC sets: 2048
LLC ways: 16
L0D sets: 16
L0D ways: 2
ROB size: 352
LQ size: 128
SQ size: 72
Secure Berti: OFF
Berti: OFF
Berti Fill: OFF
On commit prefetching: OFF
Hit-based filter: OFF
Time-guarding: ON
Free-slotting: ON
Leap-frogging: ON
Train prefetcher on L0D bypass: OFF
No translation penalty for prefetchers: OFF
Prefetch to L0D only: OFF
Prefetch to L1D only: OFF
Clean evictions: ON
Commit loads: ON
Commit write: ON
Fill commit loads to L2C, LLC: ON
DRAM IO FREQUENCY: 6400
ROB SIZE: 352
Off-chip DRAM Size: 4096 MB Channels: 1 Width: 64-bit Data Rate: 6400 MT/s
CPU 0 runs /home/sumon/secure_berti/GhostMinion/../../traces/gap/bfs-3.trace.gz
.gz
BTB has LRU replacement policy
ITLB has LRU replacement policy
DTLB has LRU replacement policy
STLB has LRU replacement policy
L1I has LRU replacement policy
L0D has LRU replacement policy
L1D has LRU replacement policy
Bingo PHT WAYS: 16 and PHT_SIZE: 16384
L2C has LRU replacement policy
LLC has LRU replacement policy
Heartbeat CPU 0 instructions: 10000002 cycles: 2973577 heartbeat IPC: 3.36295 cumulative IPC: 3.36295 (Simulation time: 0 hr 0 min 46 sec) 
Heartbeat CPU 0 instructions: 20000002 cycles: 6113013 heartbeat IPC: 3.18529 cumulative IPC: 3.27171 (Simulation time: 0 hr 2 min 2 sec) 
Heartbeat CPU 0 instructions: 30000002 cycles: 9245324 heartbeat IPC: 3.19253 cumulative IPC: 3.24488 (Simulation time: 0 hr 3 min 20 sec) 
Heartbeat CPU 0 instructions: 40000003 cycles: 12377766 heartbeat IPC: 3.1924 cumulative IPC: 3.2316 (Simulation time: 0 hr 4 min 36 sec) 
Heartbeat CPU 0 instructions: 50000003 cycles: 15541256 heartbeat IPC: 3.16107 cumulative IPC: 3.21724 (Simulation time: 0 hr 5 min 55 sec) 

Warmup complete CPU 0 instructions: 50000003 cycles: 15541256 (Simulation time: 0 hr 5 min 55 sec) 

Heartbeat CPU 0 instructions: 60000000 cycles: 57016880 heartbeat IPC: 0.241105 cumulative IPC: 0.241105 (Simulation time: 0 hr 7 min 46 sec) 
Heartbeat CPU 0 instructions: 70000001 cycles: 83944160 heartbeat IPC: 0.371371 cumulative IPC: 0.292385 (Simulation time: 0 hr 9 min 8 sec) 
Heartbeat CPU 0 instructions: 80000001 cycles: 97941452 heartbeat IPC: 0.714424 cumulative IPC: 0.364077 (Simulation time: 0 hr 10 min 15 sec) 
Heartbeat CPU 0 instructions: 90000000 cycles: 118015159 heartbeat IPC: 0.498164 cumulative IPC: 0.390343 (Simulation time: 0 hr 11 min 31 sec) 
Heartbeat CPU 0 instructions: 100000001 cycles: 151493745 heartbeat IPC: 0.298698 cumulative IPC: 0.367776 (Simulation time: 0 hr 13 min 24 sec) 
Heartbeat CPU 0 instructions: 110000000 cycles: 186549026 heartbeat IPC: 0.285264 cumulative IPC: 0.350861 (Simulation time: 0 hr 15 min 15 sec) 
Heartbeat CPU 0 instructions: 120000001 cycles: 223457062 heartbeat IPC: 0.270944 cumulative IPC: 0.336675 (Simulation time: 0 hr 16 min 52 sec) 
Heartbeat CPU 0 instructions: 130000000 cycles: 258470861 heartbeat IPC: 0.285602 cumulative IPC: 0.329313 (Simulation time: 0 hr 18 min 21 sec) 
Heartbeat CPU 0 instructions: 140000001 cycles: 279996053 heartbeat IPC: 0.464572 cumulative IPC: 0.340323 (Simulation time: 0 hr 19 min 30 sec) 
Heartbeat CPU 0 instructions: 150000000 cycles: 298192916 heartbeat IPC: 0.549545 cumulative IPC: 0.353792 (Simulation time: 0 hr 20 min 49 sec) 
Heartbeat CPU 0 instructions: 160000001 cycles: 322496901 heartbeat IPC: 0.411455 cumulative IPC: 0.358358 (Simulation time: 0 hr 21 min 59 sec) 
Heartbeat CPU 0 instructions: 170000002 cycles: 366743226 heartbeat IPC: 0.226007 cumulative IPC: 0.341684 (Simulation time: 0 hr 24 min 39 sec) 
Heartbeat CPU 0 instructions: 180000000 cycles: 407190358 heartbeat IPC: 0.247236 cumulative IPC: 0.33193 (Simulation time: 0 hr 27 min 48 sec) 
Heartbeat CPU 0 instructions: 190000000 cycles: 438101519 heartbeat IPC: 0.323508 cumulative IPC: 0.331314 (Simulation time: 0 hr 30 min 26 sec) 
Heartbeat CPU 0 instructions: 200000000 cycles: 477379543 heartbeat IPC: 0.254595 cumulative IPC: 0.324789 (Simulation time: 0 hr 32 min 5 sec) 
Heartbeat CPU 0 instructions: 210000002 cycles: 513736172 heartbeat IPC: 0.275053 cumulative IPC: 0.321159 (Simulation time: 0 hr 33 min 38 sec) 
Heartbeat CPU 0 instructions: 220000000 cycles: 538127679 heartbeat IPC: 0.409979 cumulative IPC: 0.325305 (Simulation time: 0 hr 34 min 50 sec) 
Heartbeat CPU 0 instructions: 230000000 cycles: 554037132 heartbeat IPC: 0.628557 cumulative IPC: 0.334264 (Simulation time: 0 hr 35 min 59 sec) 
Heartbeat CPU 0 instructions: 240000000 cycles: 576190100 heartbeat IPC: 0.451407 cumulative IPC: 0.338893 (Simulation time: 0 hr 37 min 9 sec) 
Heartbeat CPU 0 instructions: 250000001 cycles: 609144719 heartbeat IPC: 0.303448 cumulative IPC: 0.336925 (Simulation time: 0 hr 38 min 47 sec) 
Finished CPU 0 instructions: 200000000 cycles: 593603464 cumulative IPC: 0.336925 (Simulation time: 0 hr 38 min 47 sec) 
 Instruction ID: 250000003

ChampSim completed all CPUs

Region of Interest Statistics

CPU 0 cumulative IPC: 0.336925 instructions: 200000000 cycles: 593603464
ITLB SPEC fills:          0  NON-SPEC fills:          0
ITLB Test counter :          0
ITLB Leapfrog:          0
ITLB MSHR merge:          0
ITLB TOTAL     ACCESS:   33868556  HIT:   33868556  MISS:          0  HIT %:        100  MISS %:          0   MPKI: 0
ITLB LOAD TRANSLATION NON_SPEC    ACCESS:   33868556  HIT:   33868556  MISS:          0  HIT %:        100  MISS %:          0   MPKI: 0
ITLB PREFETCH  REQUESTED:          0  ISSUED:          0  USEFUL:          0  USELESS:          0
ITLB USEFUL LOAD PREFETCHES:          0 PREFETCH ISSUED TO LOWER LEVEL:          0  ACCURACY: -nan
ITLB TIMELY PREFETCHES:          0 LATE PREFETCHES: 0 DROPPED PREFETCHES: 0
ITLB COMMIT LATE PREFETCHES: 0 NORMAL LATE: 0 MISSED OPPORTUNITY: 0 UNCOVERED: 0
ITLB PREFETCHES SAME FILL-ORIGIN LEVEL: 0 DIFFERENT FILL-ORIGIN LEVEL: 0
ITLB AVERAGE MISS LATENCY: -nan cycles
ITLB AVERAGE MISS LATENCY LOAD: -nan cycles
ITLB AVERAGE MISS LATENCY PREFETCH: -nan cycles
ITLB AVERAGE MSHR OCCUPANCY: 0
ITLB MSHR FULL: 0
ITLB RQ	ACCESS:   41437900	FORWARD:          0	MERGED:    7569345	TO_CACHE:   33868555

DTLB SPEC fills:          0  NON-SPEC fills:          0
DTLB Test counter :          0
DTLB Leapfrog:          0
DTLB MSHR merge:          0
DTLB TOTAL     ACCESS:   44812156  HIT:   44080112  MISS:     732044  HIT %:    98.3664  MISS %:    1.63358   MPKI: 3.66022
DTLB LOAD TRANSLATION NON_SPEC    ACCESS:   44812156  HIT:   44080112  MISS:     732044  HIT %:    98.3664  MISS %:    1.63358   MPKI: 3.66022
DTLB PREFETCH  REQUESTED:          0  ISSUED:          0  USEFUL:          0  USELESS:          0
DTLB USEFUL LOAD PREFETCHES:          0 PREFETCH ISSUED TO LOWER LEVEL:          0  ACCURACY: -nan
DTLB TIMELY PREFETCHES:          0 LATE PREFETCHES: 0 DROPPED PREFETCHES: 0
DTLB COMMIT LATE PREFETCHES: 0 NORMAL LATE: 0 MISSED OPPORTUNITY: 0 UNCOVERED: 0
DTLB PREFETCHES SAME FILL-ORIGIN LEVEL: 0 DIFFERENT FILL-ORIGIN LEVEL: 0
DTLB AVERAGE MISS LATENCY: 40.95 cycles
DTLB AVERAGE MISS LATENCY LOAD: -nan cycles
DTLB AVERAGE MISS LATENCY PREFETCH: -nan cycles
DTLB AVERAGE MSHR OCCUPANCY: 0.0308449
DTLB MSHR FULL: 0.000177228
DTLB RQ	ACCESS:   47556539	FORWARD:          0	MERGED:    2683886	TO_CACHE:   44872653

STLB SPEC fills:          0  NON-SPEC fills:          0
STLB Test counter :          0
STLB Leapfrog:          0
STLB MSHR merge:          0
STLB TOTAL     ACCESS:     732044  HIT:     585526  MISS:     146518  HIT %:    79.9851  MISS %:    20.0149   MPKI: 0.73259
STLB LOAD TRANSLATION NON_SPEC    ACCESS:     732044  HIT:     585526  MISS:     146518  HIT %:    79.9851  MISS %:    20.0149   MPKI: 0.73259
STLB PREFETCH  REQUESTED:          0  ISSUED:          0  USEFUL:          0  USELESS:          0
STLB USEFUL LOAD PREFETCHES:          0 PREFETCH ISSUED TO LOWER LEVEL:          0  ACCURACY: -nan
STLB TIMELY PREFETCHES:          0 LATE PREFETCHES: 0 DROPPED PREFETCHES: 0
STLB COMMIT LATE PREFETCHES: 0 NORMAL LATE: 0 MISSED OPPORTUNITY: 0 UNCOVERED: 0
STLB PREFETCHES SAME FILL-ORIGIN LEVEL: 0 DIFFERENT FILL-ORIGIN LEVEL: 0
STLB AVERAGE MISS LATENCY: 159.222 cycles
STLB AVERAGE MISS LATENCY LOAD: -nan cycles
STLB AVERAGE MISS LATENCY PREFETCH: -nan cycles
STLB AVERAGE MSHR OCCUPANCY: 0.0651409
STLB MSHR FULL: 0
STLB RQ	ACCESS:     732044	FORWARD:          0	MERGED:          0	TO_CACHE:     732044

STLB Hit, L1D data hit: 0
STLB Hit, L2C data hit: 0
STLB Hit, LLC data hit: 0
STLB Hit, LLC data miss: 0
STLB STLB hints to L2: 0
L0D SPEC fills:   22272284  NON-SPEC fills:          0
L0D TimeGuard Request with older TS:      78713 Restricted eviction:      29519 read:        714
L0D Test counter :          0
L0D Leapfrog:          0
L0D MSHR merge:    1084246
L0D TOTAL     ACCESS:   38835478  HIT:    5674332  MISS:   33161146  HIT %:    14.6112  MISS %:    85.3888   MPKI: 165.806
L0D LOAD      TOTAL       ACCESS:   38835478  HIT:    5674332  MISS:   33161146  HIT %:    14.6112  MISS %:    85.3888   MPKI: 165.806
L0D LOAD      NON_SPEC    ACCESS:   10860068  HIT:        725  MISS:   10859343  HIT %: 0.00667583  MISS %:    99.9933   MPKI: 54.2967
L0D LOAD      SPEC        ACCESS:   27975410  HIT:    5673607  MISS:   22301803  HIT %:    20.2807  MISS %:    79.7193   MPKI: 111.509
L0D PREFETCH  REQUESTED:          0  ISSUED:          0  USEFUL:          0  USELESS:          0
L0D USEFUL LOAD PREFETCHES:          0 PREFETCH ISSUED TO LOWER LEVEL:          0  ACCURACY: -nan
L0D TIMELY PREFETCHES:          0 LATE PREFETCHES: 0 DROPPED PREFETCHES: 0
L0D COMMIT LATE PREFETCHES: 0 NORMAL LATE: 0 MISSED OPPORTUNITY: 0 UNCOVERED: 33161146
L0D PREFETCHES SAME FILL-ORIGIN LEVEL: 0 DIFFERENT FILL-ORIGIN LEVEL: 0
L0D AVERAGE MISS LATENCY: 16.6171 cycles
L0D AVERAGE MISS LATENCY LOAD: 16.6171 cycles
L0D AVERAGE MISS LATENCY PREFETCH: -nan cycles
L0D AVERAGE MSHR OCCUPANCY: 1.24727
L0D MSHR FULL: 0.0688265
L0D RQ	ACCESS:   47473307	FORWARD:          0	MERGED:    7553588	TO_CACHE:   39919719
L0D WQ	ACCESS:    7636820	FORWARD:          0	MERGED:          0	TO_CACHE:    7636820

L1D SPEC fills:          0  NON-SPEC fills:    2187974
L1D Test counter :          0
L1D Leapfrog:          0
L1D MSHR merge:       1171
L1D TOTAL     ACCESS:   70533519  HIT:   60478862  MISS:   10054657  HIT %:    85.7449  MISS %:    14.2551   MPKI: 50.2733
L1D LOAD      TOTAL       ACCESS:   33159974  HIT:   27173739  MISS:    5986235  HIT %:    81.9474  MISS %:    18.0526   MPKI: 29.9312
L1D LOAD      NON_SPEC    ACCESS:   10859173  HIT:    8671199  MISS:    2187974  HIT %:    79.8514  MISS %:    20.1486   MPKI: 10.9399
L1D LOAD      SPEC        ACCESS:   22300801  HIT:   18502540  MISS:    3798261  HIT %:    82.9681  MISS %:    17.0319   MPKI: 18.9913
L1D RFO       NON_SPEC    ACCESS:    4499489  HIT:    4222389  MISS:     277100  HIT %:    93.8415  MISS %:    6.15848   MPKI: 1.3855
L1D COMMIT LOAD NON_SPEC    ACCESS:   10648847  HIT:   10602420  MISS:      46427  HIT %:     99.564  MISS %:   0.435981   MPKI: 0.232135
L1D COMMIT WRITE NON_SPEC    ACCESS:   22225209  HIT:   18480314  MISS:    3744895  HIT %:    83.1502  MISS %:    16.8498   MPKI: 18.7245
L1D PREFETCH  REQUESTED:          0  ISSUED:          0  USEFUL:          0  USELESS:          0
L1D USEFUL LOAD PREFETCHES:          0 PREFETCH ISSUED TO LOWER LEVEL:          0  ACCURACY: -nan
L1D TIMELY PREFETCHES:          0 LATE PREFETCHES: 0 DROPPED PREFETCHES: 0
L1D COMMIT LATE PREFETCHES: 0 NORMAL LATE: 0 MISSED OPPORTUNITY: 0 UNCOVERED: 5986235
L1D PREFETCHES SAME FILL-ORIGIN LEVEL: 0 DIFFERENT FILL-ORIGIN LEVEL: 0
L1D AVERAGE MISS LATENCY: 44.4344 cycles
L1D AVERAGE MISS LATENCY LOAD: 63.2056 cycles
L1D AVERAGE MISS LATENCY PREFETCH: -nan cycles
L1D AVERAGE MSHR OCCUPANCY: 0.753912
L1D MSHR FULL: 0.0238667
L1D RQ	ACCESS:   47548556	FORWARD:          0	MERGED:    2435564	TO_CACHE:   43813579
L1D WQ	ACCESS:   29814170	FORWARD:    1299413	MERGED:    1282650	TO_CACHE:   28531520

L1D UNIQUE REGIONS ACCESSED: 0
L1D REGIONS CONFLICTS: 0
L1D Cross Page Prefetch Requests: 0
L1D Same Page Prefetch Requests: 0
L1D ROI Sum of L1D PQ occupancy: 0
L1D PREFETCHES PUSHED FROM L2C: 0
L1I SPEC fills:          0  NON-SPEC fills:          0
L1I Test counter :          0
L1I Leapfrog:          0
L1I MSHR merge:          2
L1I TOTAL     ACCESS:   41437899  HIT:   41437882  MISS:         17  HIT %:        100  MISS %: 4.10252e-05   MPKI: 8.5e-05
L1I LOAD      TOTAL       ACCESS:   41437899  HIT:   41437882  MISS:         17  HIT %:        100  MISS %: 4.10252e-05   MPKI: 8.5e-05
L1I LOAD      NON_SPEC    ACCESS:   41437899  HIT:   41437882  MISS:         17  HIT %:        100  MISS %: 4.10252e-05   MPKI: 8.5e-05
L1I PREFETCH  REQUESTED:          0  ISSUED:          0  USEFUL:          0  USELESS:          0
L1I USEFUL LOAD PREFETCHES:          0 PREFETCH ISSUED TO LOWER LEVEL:          0  ACCURACY: -nan
L1I TIMELY PREFETCHES:          0 LATE PREFETCHES: 0 DROPPED PREFETCHES: 0
L1I COMMIT LATE PREFETCHES: 0 NORMAL LATE: 0 MISSED OPPORTUNITY: 0 UNCOVERED: 17
L1I PREFETCHES SAME FILL-ORIGIN LEVEL: 0 DIFFERENT FILL-ORIGIN LEVEL: 0
L1I AVERAGE MISS LATENCY: 244.176 cycles
L1I AVERAGE MISS LATENCY LOAD: 244.176 cycles
L1I AVERAGE MISS LATENCY PREFETCH: -nan cycles
L1I AVERAGE MSHR OCCUPANCY: 1.9306e-07
L1I MSHR FULL: 0
L1I RQ	ACCESS:   64757618	FORWARD:          0	MERGED:   23319718	TO_CACHE:   41437900

BTB SPEC fills:          0  NON-SPEC fills:          0
BTB Test counter :          0
BTB Leapfrog:          0
BTB MSHR merge:          0
BTB TOTAL     ACCESS:   40442036  HIT:   40441679  MISS:        357  HIT %:    99.9991  MISS %: 0.000882745   MPKI: 0.001785
BTB BRANCH_DIRECT_JUMP	ACCESS:      22041  HIT:      21996  MISS:         45
BTB BRANCH_INDIRECT	ACCESS:          3  HIT:          2  MISS:          1
BTB BRANCH_CONDITIONAL	ACCESS:   40419252  HIT:   40419148  MISS:        104
BTB BRANCH_DIRECT_CALL	ACCESS:        361  HIT:        318  MISS:         43
BTB BRANCH_INDIRECT_CALL	ACCESS:          9  HIT:          6  MISS:          3
BTB BRANCH_RETURN	ACCESS:        370  HIT:        209  MISS:        161
BTB BRANCH_OTHER ACCESS:          0  HIT:          0  MISS:          0

L2C SPEC fills:          0  NON-SPEC fills:     485027
L2C Test counter :          0
L2C Leapfrog:          0
L2C MSHR merge:     152196
L2C TOTAL     ACCESS:   18281897  HIT:    8453686  MISS:    9828211  HIT %:    46.2407  MISS %:    53.7593   MPKI: 49.1411
L2C LOAD      TOTAL       ACCESS:    5986213  HIT:    3698802  MISS:    2287411  HIT %:    61.7887  MISS %:    38.2113   MPKI: 11.4371
L2C LOAD      NON_SPEC    ACCESS:    2187978  HIT:    1702934  MISS:     485044  HIT %:    77.8314  MISS %:    22.1686   MPKI: 2.42522
L2C LOAD      SPEC        ACCESS:    3798235  HIT:    1995868  MISS:    1802367  HIT %:    52.5472  MISS %:    47.4528   MPKI: 9.01183
L2C RFO       NON_SPEC    ACCESS:     277100  HIT:       8533  MISS:     268567  HIT %:    3.07939  MISS %:    96.9206   MPKI: 1.34284
L2C PREFETCH  NON_SPEC    ACCESS:    6433574  HIT:    1026141  MISS:    5407433  HIT %:    15.9498  MISS %:    84.0502   MPKI: 27.0372
L2C WRITEBACK NON_SPEC    ACCESS:     584321  HIT:     584054  MISS:        267  HIT %:    99.9543  MISS %:  0.0456941   MPKI: 0.001335
L2C CLEAN_EVICTION NON_SPEC    ACCESS:    4221677  HIT:    2415646  MISS:    1806031  HIT %:    57.2201  MISS %:    42.7799   MPKI: 9.03016
L2C COMMIT LOAD NON_SPEC    ACCESS:      46423  HIT:      22566  MISS:      23857  HIT %:    48.6095  MISS %:    51.3905   MPKI: 0.119285
L2C LOAD TRANSLATION NON_SPEC    ACCESS:     732589  HIT:     697944  MISS:      34645  HIT %:    95.2709  MISS %:    4.72912   MPKI: 0.173225
L2C PREFETCH  REQUESTED:    6640861  ISSUED:    6640861  USEFUL:    2513116  USELESS:    2893255
L2C USEFUL LOAD PREFETCHES:    2513116 PREFETCH ISSUED TO LOWER LEVEL:    5559644  ACCURACY: 45.2028
L2C TIMELY PREFETCHES:    2513116 LATE PREFETCHES: 152211 DROPPED PREFETCHES: 0
L2C COMMIT LATE PREFETCHES: 0 NORMAL LATE: 152211 MISSED OPPORTUNITY: 0 UNCOVERED: 2135200
L2C PREFETCHES SAME FILL-ORIGIN LEVEL: 5559644 DIFFERENT FILL-ORIGIN LEVEL: 0
L2C AVERAGE MISS LATENCY: 156.198 cycles
L2C AVERAGE MISS LATENCY LOAD: 132.742 cycles
L2C AVERAGE MISS LATENCY PREFETCH: 214.531 cycles
L2C AVERAGE MSHR OCCUPANCY: 3.12426
L2C MSHR FULL: 0.0187429
L2C RQ	ACCESS:    7042367	FORWARD:          0	MERGED:          0	TO_CACHE:    7042325
L2C WQ	ACCESS:    4805999	FORWARD:         46	MERGED:          0	TO_CACHE:    4805999
L2C PQ	ACCESS:    6640861	FORWARD:          0	MERGED:          0	TO_CACHE:    6640857

L2C Instructions Evicting Data 17
L2C Translations Evicting Data 34067
L2C Data Evicting Data 6156597
L2C Instructions Evicting Instructions 0
L2C Translations Evicting Instructions 1
L2C Data Evicting Instructions 16
L2C Instructions Evicting Translations 0
L2C Translations Evicting Translations 577
L2C Data Evicting Translations 28271
L2C Dense regions hint from L2: 0
PSCL5 SPEC fills:          0  NON-SPEC fills:          0
PSCL5 Test counter :          0
PSCL5 Leapfrog:          0
PSCL5 MSHR merge:          0
PSCL5 TOTAL     ACCESS:          0  HIT:          0  MISS:          0  HIT %:       -nan  MISS %:       -nan   MPKI: 0
PSCL5 PREFETCH  REQUESTED:          0  ISSUED:          0  USEFUL:          0  USELESS:          0
PSCL5 USEFUL LOAD PREFETCHES:          0 PREFETCH ISSUED TO LOWER LEVEL:          0  ACCURACY: -nan
PSCL5 TIMELY PREFETCHES:          0 LATE PREFETCHES: 0 DROPPED PREFETCHES: 0
PSCL5 COMMIT LATE PREFETCHES: 0 NORMAL LATE: 0 MISSED OPPORTUNITY: 0 UNCOVERED: 0
PSCL5 PREFETCHES SAME FILL-ORIGIN LEVEL: 0 DIFFERENT FILL-ORIGIN LEVEL: 0

PSCL4 SPEC fills:          0  NON-SPEC fills:          0
PSCL4 Test counter :          0
PSCL4 Leapfrog:          0
PSCL4 MSHR merge:          0
PSCL4 TOTAL     ACCESS:          0  HIT:          0  MISS:          0  HIT %:       -nan  MISS %:       -nan   MPKI: 0
PSCL4 PREFETCH  REQUESTED:          0  ISSUED:          0  USEFUL:          0  USELESS:          0
PSCL4 USEFUL LOAD PREFETCHES:          0 PREFETCH ISSUED TO LOWER LEVEL:          0  ACCURACY: -nan
PSCL4 TIMELY PREFETCHES:          0 LATE PREFETCHES: 0 DROPPED PREFETCHES: 0
PSCL4 COMMIT LATE PREFETCHES: 0 NORMAL LATE: 0 MISSED OPPORTUNITY: 0 UNCOVERED: 0
PSCL4 PREFETCHES SAME FILL-ORIGIN LEVEL: 0 DIFFERENT FILL-ORIGIN LEVEL: 0

PSCL3 SPEC fills:          0  NON-SPEC fills:          0
PSCL3 Test counter :          0
PSCL3 Leapfrog:          0
PSCL3 MSHR merge:          0
PSCL3 TOTAL     ACCESS:          0  HIT:          0  MISS:          0  HIT %:       -nan  MISS %:       -nan   MPKI: 0
PSCL3 PREFETCH  REQUESTED:          0  ISSUED:          0  USEFUL:          0  USELESS:          0
PSCL3 USEFUL LOAD PREFETCHES:          0 PREFETCH ISSUED TO LOWER LEVEL:          0  ACCURACY: -nan
PSCL3 TIMELY PREFETCHES:          0 LATE PREFETCHES: 0 DROPPED PREFETCHES: 0
PSCL3 COMMIT LATE PREFETCHES: 0 NORMAL LATE: 0 MISSED OPPORTUNITY: 0 UNCOVERED: 0
PSCL3 PREFETCHES SAME FILL-ORIGIN LEVEL: 0 DIFFERENT FILL-ORIGIN LEVEL: 0

PSCL2 SPEC fills:          0  NON-SPEC fills:          0
PSCL2 Test counter :          0
PSCL2 Leapfrog:          0
PSCL2 MSHR merge:          0
PSCL2 TOTAL     ACCESS:          0  HIT:          0  MISS:          0  HIT %:       -nan  MISS %:       -nan   MPKI: 0
PSCL2 PREFETCH  REQUESTED:          0  ISSUED:          0  USEFUL:          0  USELESS:          0
PSCL2 USEFUL LOAD PREFETCHES:          0 PREFETCH ISSUED TO LOWER LEVEL:          0  ACCURACY: -nan
PSCL2 TIMELY PREFETCHES:          0 LATE PREFETCHES: 0 DROPPED PREFETCHES: 0
PSCL2 COMMIT LATE PREFETCHES: 0 NORMAL LATE: 0 MISSED OPPORTUNITY: 0 UNCOVERED: 0
PSCL2 PREFETCHES SAME FILL-ORIGIN LEVEL: 0 DIFFERENT FILL-ORIGIN LEVEL: 0

LLC SPEC fills:          0  NON-SPEC fills:     305374
LLC Test counter :          0
LLC Leapfrog:          0
LLC MSHR merge:          0
LLC TOTAL     ACCESS:   12354309  HIT:    4920671  MISS:    7433638  HIT %:    39.8296  MISS %:    60.1704   MPKI: 37.1682
LLC LOAD      TOTAL       ACCESS:    2135207  HIT:     865695  MISS:    1269512  HIT %:    40.5438  MISS %:    59.4562   MPKI: 6.34756
LLC LOAD      NON_SPEC    ACCESS:     474360  HIT:     168969  MISS:     305391  HIT %:    35.6204  MISS %:    64.3796   MPKI: 1.52696
LLC LOAD      SPEC        ACCESS:    1660847  HIT:     696726  MISS:     964121  HIT %:      41.95  MISS %:      58.05   MPKI: 4.8206
LLC RFO       NON_SPEC    ACCESS:     268551  HIT:      11038  MISS:     257513  HIT %:    4.11021  MISS %:    95.8898   MPKI: 1.28757
LLC PREFETCH  NON_SPEC    ACCESS:    5559638  HIT:     788521  MISS:    4771117  HIT %:     14.183  MISS %:     85.817   MPKI: 23.8556
LLC WRITEBACK NON_SPEC    ACCESS:     477849  HIT:     474349  MISS:       3500  HIT %:    99.2676  MISS %:   0.732449   MPKI: 0.0175
LLC CLEAN_EVICTION NON_SPEC    ACCESS:    3854567  HIT:    2765414  MISS:    1089153  HIT %:    71.7438  MISS %:    28.2562   MPKI: 5.44576
LLC COMMIT LOAD NON_SPEC    ACCESS:      23852  HIT:      14213  MISS:       9639  HIT %:    59.5883  MISS %:    40.4117   MPKI: 0.048195
LLC LOAD TRANSLATION NON_SPEC    ACCESS:      34645  HIT:       1441  MISS:      33204  HIT %:    4.15933  MISS %:    95.8407   MPKI: 0.16602
LLC PREFETCH  REQUESTED:          0  ISSUED:          0  USEFUL:     215864  USELESS:    4552686
LLC USEFUL LOAD PREFETCHES:     215864 PREFETCH ISSUED TO LOWER LEVEL:    4771117  ACCURACY: 4.52439
LLC TIMELY PREFETCHES:     215864 LATE PREFETCHES: 0 DROPPED PREFETCHES: 0
LLC COMMIT LATE PREFETCHES: 0 NORMAL LATE: 0 MISSED OPPORTUNITY: 0 UNCOVERED: 1269512
LLC PREFETCHES SAME FILL-ORIGIN LEVEL: 0 DIFFERENT FILL-ORIGIN LEVEL: 0
LLC AVERAGE MISS LATENCY: 177.981 cycles
LLC AVERAGE MISS LATENCY LOAD: 178.317 cycles
LLC AVERAGE MISS LATENCY PREFETCH: 216.944 cycles
LLC AVERAGE MSHR OCCUPANCY: 2.72954
LLC MSHR FULL: 0
LLC RQ	ACCESS:    2462269	FORWARD:          0	MERGED:          0	TO_CACHE:    2462255
LLC WQ	ACCESS:    4332416	FORWARD:         20	MERGED:          0	TO_CACHE:    4332416
LLC PQ	ACCESS:    5559644	FORWARD:          0	MERGED:          0	TO_CACHE:    5559638

LLC Dense regions hint to LLC: 0

RAW hits: 230241
Loads Generated: 47703547
Loads sent to L1D: 47473307
Stores Generated: 7636817
Stores sent to L1D: 7636820
Major fault: 0 Minor fault: 29015
Allocated PAGES: 29015
Total Load insts: 60231585
Total Non-spec loads: 11124068
Percentage of speculative loads: 81.5312

LeapFrogging counter: 545130
Commit hits: 22225799 miss: 14387415
Commit hit %: 60.7043 miss %: 39.2957
Commits not translated: 0
Loads retired: 5986235
Stores retired: 7636820
Cache fills: 5986235
L1D response latency: 63.2056 cycles
Load retirement latency: 118.834 cycles
OOO test counter: 0
Discarded buffer inserts: 22225799 hits: 46493 hit %: 0.209185
Filter prediction accuracy: -nan
[Bingo] PHT Access: 1128488
[Bingo] PHT Hit PC+Addr: 36391
[Bingo] PHT Hit PC+Offs: 1089802
[Bingo] PHT Miss: 2295
[Bingo] Prefetch PC+Addr: 0
[Bingo] Prefetch PC+Offs: 0
[Bingo] Useful PC+Addr: 0
[Bingo] Useful PC+Offs: 0
[Bingo] Useless PC+Addr: 0
[Bingo] Useless PC+Offs: 0
[Bingo] L1 Prefetch per Region: 0
[Bingo] L2 Prefetch per Region: 7.05092
[Bingo] L3 Prefetch per Region: 0
[Bingo] No Prefetch per Region: 24.9491
[Bingo] Number of Voters Mean: 15.9547
[Bingo] Number of Voters SD: 4.39358
PHT read accesses: 17720979
PHT write accesses: 669011
AT read accesses: 5003110
AT write accesses: 5526467
FT read accesses: 2074959
FT write accesses: 1128488
PS read accesses: 2438588
PS write accesses: 1126193
PHT tag read accesses: 38853304
PHT tag write accesses: 705402
AT tag read accesses: 255207003
AT tag write accesses: 5672119
FT tag read accesses: 196722500
FT tag write accesses: 2534188
PS tag read accesses: 135287375
PS tag write accesses: 3551501

DRAM Statistics
 CHANNEL 0
 RQ ROW_BUFFER_HIT:    2893453  ROW_BUFFER_MISS:    3446361
 DBUS_CONGESTED:       1653
 WQ ROW_BUFFER_HIT:     967756  ROW_BUFFER_MISS:    2754416  FULL:       8108

 AVG_CONGESTED_CYCLE: 5
 All warmup complete: 2
Channel 0 Bank busy for read cycles: 0
Channel 0 Bank busy for write cycles: 0
Channel 0
Rank 0
0banks busy for read cycles: 228062333
0banks busy for write cycles: 366138
1banks busy for read cycles: 93631492
1banks busy for write cycles: 46541503
2banks busy for read cycles: 21131829
2banks busy for write cycles: 14738096
3banks busy for read cycles: 16048143
3banks busy for write cycles: 11408857
4banks busy for read cycles: 13592445
4banks busy for write cycles: 10635774
5banks busy for read cycles: 11668874
5banks busy for write cycles: 10716965
6banks busy for read cycles: 10265745
6banks busy for write cycles: 12546789
7banks busy for read cycles: 11912070
7banks busy for write cycles: 18748463
8banks busy for read cycles: 28345618
8banks busy for write cycles: 33242331

CPU 0 Branch Prediction Accuracy: 88.7511% MPKI: 23.6813 Average ROB Occupancy at Mispredict: 9.98312
Branch types
NOT_BRANCH: 157895415 78.9477%
BRANCH_DIRECT_JUMP: 22041 0.0110205%
BRANCH_INDIRECT: 3 1.5e-06%
BRANCH_CONDITIONAL: 42081441 21.0407%
BRANCH_DIRECT_CALL: 361 0.0001805%
BRANCH_INDIRECT_CALL: 9 4.5e-06%
BRANCH_RETURN: 370 0.000185%
BRANCH_OTHER: 0 0%

DRAM PAGES: 1048576
Allocated PAGES: 29015
