
*** ChampSim Multicore Out-of-Order Simulator ***

Warmup Instructions: 50000000
Simulation Instructions: 200000000
Number of CPUs: 1
LLC sets: 2048
LLC ways: 16
L0D sets: 16
L0D ways: 2
ROB size: 352
LQ size: 128
SQ size: 72
Secure Berti: OFF
Berti: OFF
Berti Fill: OFF
On commit prefetching: OFF
Hit-based filter: OFF
Time-guarding: ON
Free-slotting: ON
Leap-frogging: ON
Train prefetcher on L0D bypass: OFF
No translation penalty for prefetchers: OFF
Prefetch to L0D only: OFF
Prefetch to L1D only: OFF
Clean evictions: ON
Commit loads: ON
Commit write: ON
Fill commit loads to L2C, LLC: ON
DRAM IO FREQUENCY: 6400
ROB SIZE: 352
Off-chip DRAM Size: 4096 MB Channels: 1 Width: 64-bit Data Rate: 6400 MT/s
CPU 0 runs /home/sumon/secure_berti/GhostMinion/../../traces/gap/cc-6.trace.gz
.gz
BTB has LRU replacement policy
ITLB has LRU replacement policy
DTLB has LRU replacement policy
STLB has LRU replacement policy
L1I has LRU replacement policy
L0D has LRU replacement policy
L1D has LRU replacement policy
Bingo PHT WAYS: 16 and PHT_SIZE: 16384
L2C has LRU replacement policy
LLC has LRU replacement policy
Heartbeat CPU 0 instructions: 10000000 cycles: 3247144 heartbeat IPC: 3.07963 cumulative IPC: 3.07963 (Simulation time: 0 hr 2 min 34 sec) 
Heartbeat CPU 0 instructions: 20000002 cycles: 6508738 heartbeat IPC: 3.06599 cumulative IPC: 3.07279 (Simulation time: 0 hr 5 min 42 sec) 
Heartbeat CPU 0 instructions: 30000001 cycles: 9781175 heartbeat IPC: 3.05583 cumulative IPC: 3.06712 (Simulation time: 0 hr 8 min 50 sec) 
Heartbeat CPU 0 instructions: 40000000 cycles: 13056277 heartbeat IPC: 3.05334 cumulative IPC: 3.06366 (Simulation time: 0 hr 11 min 59 sec) 
Heartbeat CPU 0 instructions: 50000003 cycles: 16335024 heartbeat IPC: 3.04995 cumulative IPC: 3.06091 (Simulation time: 0 hr 15 min 3 sec) 

Warmup complete CPU 0 instructions: 50000003 cycles: 16335024 (Simulation time: 0 hr 15 min 3 sec) 

Heartbeat CPU 0 instructions: 60000002 cycles: 66773864 heartbeat IPC: 0.19826 cumulative IPC: 0.19826 (Simulation time: 0 hr 18 min 44 sec) 
Heartbeat CPU 0 instructions: 70000003 cycles: 118873613 heartbeat IPC: 0.19194 cumulative IPC: 0.195049 (Simulation time: 0 hr 22 min 28 sec) 
Heartbeat CPU 0 instructions: 80000000 cycles: 171205632 heartbeat IPC: 0.191088 cumulative IPC: 0.19371 (Simulation time: 0 hr 26 min 9 sec) 
Heartbeat CPU 0 instructions: 90000002 cycles: 222327348 heartbeat IPC: 0.195612 cumulative IPC: 0.194182 (Simulation time: 0 hr 29 min 53 sec) 
Heartbeat CPU 0 instructions: 100000000 cycles: 272609622 heartbeat IPC: 0.198877 cumulative IPC: 0.195103 (Simulation time: 0 hr 33 min 38 sec) 
Heartbeat CPU 0 instructions: 110000000 cycles: 322290018 heartbeat IPC: 0.201287 cumulative IPC: 0.196107 (Simulation time: 0 hr 37 min 24 sec) 
Heartbeat CPU 0 instructions: 120000003 cycles: 374480082 heartbeat IPC: 0.191607 cumulative IPC: 0.195452 (Simulation time: 0 hr 41 min 9 sec) 
Heartbeat CPU 0 instructions: 130000001 cycles: 426751932 heartbeat IPC: 0.191308 cumulative IPC: 0.194924 (Simulation time: 0 hr 44 min 51 sec) 
Heartbeat CPU 0 instructions: 140000002 cycles: 479708759 heartbeat IPC: 0.188833 cumulative IPC: 0.194228 (Simulation time: 0 hr 48 min 33 sec) 
Heartbeat CPU 0 instructions: 150000000 cycles: 529129032 heartbeat IPC: 0.202346 cumulative IPC: 0.19501 (Simulation time: 0 hr 52 min 22 sec) 
Heartbeat CPU 0 instructions: 160000001 cycles: 581336430 heartbeat IPC: 0.191544 cumulative IPC: 0.19469 (Simulation time: 0 hr 56 min 5 sec) 
Heartbeat CPU 0 instructions: 170000002 cycles: 630449011 heartbeat IPC: 0.203614 cumulative IPC: 0.195403 (Simulation time: 0 hr 59 min 49 sec) 
Heartbeat CPU 0 instructions: 180000000 cycles: 682491285 heartbeat IPC: 0.192151 cumulative IPC: 0.195149 (Simulation time: 1 hr 3 min 34 sec) 
Heartbeat CPU 0 instructions: 190000002 cycles: 734473580 heartbeat IPC: 0.192373 cumulative IPC: 0.194948 (Simulation time: 1 hr 7 min 19 sec) 
Heartbeat CPU 0 instructions: 200000001 cycles: 784968268 heartbeat IPC: 0.198041 cumulative IPC: 0.195152 (Simulation time: 1 hr 10 min 59 sec) 
Heartbeat CPU 0 instructions: 210000000 cycles: 835635826 heartbeat IPC: 0.197365 cumulative IPC: 0.195288 (Simulation time: 1 hr 14 min 46 sec) 
Heartbeat CPU 0 instructions: 220000000 cycles: 886852229 heartbeat IPC: 0.19525 cumulative IPC: 0.195286 (Simulation time: 1 hr 18 min 33 sec) 
Heartbeat CPU 0 instructions: 230000000 cycles: 938245155 heartbeat IPC: 0.194579 cumulative IPC: 0.195247 (Simulation time: 1 hr 22 min 19 sec) 
Heartbeat CPU 0 instructions: 240000001 cycles: 990347048 heartbeat IPC: 0.191932 cumulative IPC: 0.195069 (Simulation time: 1 hr 25 min 53 sec) 
Heartbeat CPU 0 instructions: 250000003 cycles: 1043185780 heartbeat IPC: 0.189255 cumulative IPC: 0.19477 (Simulation time: 1 hr 29 min 30 sec) 
Finished CPU 0 instructions: 200000000 cycles: 1026850756 cumulative IPC: 0.19477 (Simulation time: 1 hr 29 min 30 sec) 
 Instruction ID: 250000031

ChampSim completed all CPUs

Region of Interest Statistics

CPU 0 cumulative IPC: 0.19477 instructions: 200000000 cycles: 1026850756
ITLB SPEC fills:          0  NON-SPEC fills:          0
ITLB Test counter :          0
ITLB Leapfrog:          0
ITLB MSHR merge:          0
ITLB TOTAL     ACCESS:   36453535  HIT:   36453535  MISS:          0  HIT %:        100  MISS %:          0   MPKI: 0
ITLB LOAD TRANSLATION NON_SPEC    ACCESS:   36453535  HIT:   36453535  MISS:          0  HIT %:        100  MISS %:          0   MPKI: 0
ITLB PREFETCH  REQUESTED:          0  ISSUED:          0  USEFUL:          0  USELESS:          0
ITLB USEFUL LOAD PREFETCHES:          0 PREFETCH ISSUED TO LOWER LEVEL:          0  ACCURACY: -nan
ITLB TIMELY PREFETCHES:          0 LATE PREFETCHES: 0 DROPPED PREFETCHES: 0
ITLB COMMIT LATE PREFETCHES: 0 NORMAL LATE: 0 MISSED OPPORTUNITY: 0 UNCOVERED: 0
ITLB PREFETCHES SAME FILL-ORIGIN LEVEL: 0 DIFFERENT FILL-ORIGIN LEVEL: 0
ITLB AVERAGE MISS LATENCY: -nan cycles
ITLB AVERAGE MISS LATENCY LOAD: -nan cycles
ITLB AVERAGE MISS LATENCY PREFETCH: -nan cycles
ITLB AVERAGE MSHR OCCUPANCY: 0
ITLB MSHR FULL: 0
ITLB RQ	ACCESS:   37073137	FORWARD:          0	MERGED:     619603	TO_CACHE:   36453534

DTLB SPEC fills:          0  NON-SPEC fills:          0
DTLB Test counter :          0
DTLB Leapfrog:          0
DTLB MSHR merge:          0
DTLB TOTAL     ACCESS:   51459348  HIT:   40883466  MISS:   10575882  HIT %:    79.4481  MISS %:    20.5519   MPKI: 52.8794
DTLB LOAD TRANSLATION NON_SPEC    ACCESS:   51459348  HIT:   40883466  MISS:   10575882  HIT %:    79.4481  MISS %:    20.5519   MPKI: 52.8794
DTLB PREFETCH  REQUESTED:          0  ISSUED:          0  USEFUL:          0  USELESS:          0
DTLB USEFUL LOAD PREFETCHES:          0 PREFETCH ISSUED TO LOWER LEVEL:          0  ACCURACY: -nan
DTLB TIMELY PREFETCHES:          0 LATE PREFETCHES: 0 DROPPED PREFETCHES: 0
DTLB COMMIT LATE PREFETCHES: 0 NORMAL LATE: 0 MISSED OPPORTUNITY: 0 UNCOVERED: 0
DTLB PREFETCHES SAME FILL-ORIGIN LEVEL: 0 DIFFERENT FILL-ORIGIN LEVEL: 0
DTLB AVERAGE MISS LATENCY: 9.50692 cycles
DTLB AVERAGE MISS LATENCY LOAD: -nan cycles
DTLB AVERAGE MISS LATENCY PREFETCH: -nan cycles
DTLB AVERAGE MSHR OCCUPANCY: 0.316088
DTLB MSHR FULL: 0.00193557
DTLB RQ	ACCESS:   53262665	FORWARD:          0	MERGED:    1173798	TO_CACHE:   52088867

STLB SPEC fills:          0  NON-SPEC fills:          0
STLB Test counter :          0
STLB Leapfrog:          0
STLB MSHR merge:          0
STLB TOTAL     ACCESS:   10575881  HIT:   10559757  MISS:      16124  HIT %:    99.8475  MISS %:    0.15246   MPKI: 0.08062
STLB LOAD TRANSLATION NON_SPEC    ACCESS:   10575881  HIT:   10559757  MISS:      16124  HIT %:    99.8475  MISS %:    0.15246   MPKI: 0.08062
STLB PREFETCH  REQUESTED:          0  ISSUED:          0  USEFUL:          0  USELESS:          0
STLB USEFUL LOAD PREFETCHES:          0 PREFETCH ISSUED TO LOWER LEVEL:          0  ACCURACY: -nan
STLB TIMELY PREFETCHES:          0 LATE PREFETCHES: 0 DROPPED PREFETCHES: 0
STLB COMMIT LATE PREFETCHES: 0 NORMAL LATE: 0 MISSED OPPORTUNITY: 0 UNCOVERED: 0
STLB PREFETCHES SAME FILL-ORIGIN LEVEL: 0 DIFFERENT FILL-ORIGIN LEVEL: 0
STLB AVERAGE MISS LATENCY: 193.596 cycles
STLB AVERAGE MISS LATENCY LOAD: -nan cycles
STLB AVERAGE MISS LATENCY PREFETCH: -nan cycles
STLB AVERAGE MSHR OCCUPANCY: 0.00109145
STLB MSHR FULL: 0
STLB RQ	ACCESS:   10575881	FORWARD:          0	MERGED:          0	TO_CACHE:   10575881

STLB Hit, L1D data hit: 0
STLB Hit, L2C data hit: 0
STLB Hit, LLC data hit: 0
STLB Hit, LLC data miss: 0
STLB STLB hints to L2: 0
L0D SPEC fills:   31556258  NON-SPEC fills:          0
L0D TimeGuard Request with older TS:     477252 Restricted eviction:     178530 read:     489887
L0D Test counter :          0
L0D Leapfrog:          0
L0D MSHR merge:    1382920
L0D TOTAL     ACCESS:   51633035  HIT:   11915458  MISS:   39717577  HIT %:    23.0772  MISS %:    76.9228   MPKI: 198.588
L0D LOAD      TOTAL       ACCESS:   51633035  HIT:   11915458  MISS:   39717577  HIT %:    23.0772  MISS %:    76.9228   MPKI: 198.588
L0D LOAD      NON_SPEC    ACCESS:    8657545  HIT:     674756  MISS:    7982789  HIT %:    7.79385  MISS %:    92.2062   MPKI: 39.9139
L0D LOAD      SPEC        ACCESS:   42975490  HIT:   11240702  MISS:   31734788  HIT %:    26.1561  MISS %:    73.8439   MPKI: 158.674
L0D PREFETCH  REQUESTED:          0  ISSUED:          0  USEFUL:          0  USELESS:          0
L0D USEFUL LOAD PREFETCHES:          0 PREFETCH ISSUED TO LOWER LEVEL:          0  ACCURACY: -nan
L0D TIMELY PREFETCHES:          0 LATE PREFETCHES: 0 DROPPED PREFETCHES: 0
L0D COMMIT LATE PREFETCHES: 0 NORMAL LATE: 0 MISSED OPPORTUNITY: 0 UNCOVERED: 39717577
L0D PREFETCHES SAME FILL-ORIGIN LEVEL: 0 DIFFERENT FILL-ORIGIN LEVEL: 0
L0D AVERAGE MISS LATENCY: 33.2727 cycles
L0D AVERAGE MISS LATENCY LOAD: 33.2727 cycles
L0D AVERAGE MISS LATENCY PREFETCH: -nan cycles
L0D AVERAGE MSHR OCCUPANCY: 1.67924
L0D MSHR FULL: 0.0280972
L0D RQ	ACCESS:   57742009	FORWARD:          0	MERGED:    4726061	TO_CACHE:   53015948
L0D WQ	ACCESS:     246717	FORWARD:          0	MERGED:          0	TO_CACHE:     246717

L1D SPEC fills:          0  NON-SPEC fills:    4496442
L1D Test counter :          0
L1D Leapfrog:          0
L1D MSHR merge:       5442
L1D TOTAL     ACCESS:   81942085  HIT:   53557502  MISS:   28384583  HIT %:    65.3602  MISS %:    34.6398   MPKI: 141.923
L1D LOAD      TOTAL       ACCESS:   39712134  HIT:   23241777  MISS:   16470357  HIT %:    58.5256  MISS %:    41.4744   MPKI: 82.3518
L1D LOAD      NON_SPEC    ACCESS:    7982617  HIT:    3486175  MISS:    4496442  HIT %:    43.6721  MISS %:    56.3279   MPKI: 22.4822
L1D LOAD      SPEC        ACCESS:   31729517  HIT:   19755602  MISS:   11973915  HIT %:    62.2625  MISS %:    37.7375   MPKI: 59.8696
L1D RFO       NON_SPEC    ACCESS:     245965  HIT:     245965  MISS:          0  HIT %:        100  MISS %:          0   MPKI: 0
L1D COMMIT LOAD NON_SPEC    ACCESS:   11024521  HIT:   10839699  MISS:     184822  HIT %:    98.3235  MISS %:    1.67646   MPKI: 0.92411
L1D COMMIT WRITE NON_SPEC    ACCESS:   30959465  HIT:   19230061  MISS:   11729404  HIT %:    62.1137  MISS %:    37.8863   MPKI: 58.647
L1D PREFETCH  REQUESTED:          0  ISSUED:          0  USEFUL:          0  USELESS:          0
L1D USEFUL LOAD PREFETCHES:          0 PREFETCH ISSUED TO LOWER LEVEL:          0  ACCURACY: -nan
L1D TIMELY PREFETCHES:          0 LATE PREFETCHES: 0 DROPPED PREFETCHES: 0
L1D COMMIT LATE PREFETCHES: 0 NORMAL LATE: 0 MISSED OPPORTUNITY: 0 UNCOVERED: 16470357
L1D PREFETCHES SAME FILL-ORIGIN LEVEL: 0 DIFFERENT FILL-ORIGIN LEVEL: 0
L1D AVERAGE MISS LATENCY: 39.7135 cycles
L1D AVERAGE MISS LATENCY LOAD: 68.004 cycles
L1D AVERAGE MISS LATENCY PREFETCH: -nan cycles
L1D AVERAGE MSHR OCCUPANCY: 0.937096
L1D MSHR FULL: 0
L1D RQ	ACCESS:   57565311	FORWARD:          0	MERGED:    4560358	TO_CACHE:   50755561
L1D WQ	ACCESS:   31398802	FORWARD:    2249392	MERGED:     192655	TO_CACHE:   31206147

L1D UNIQUE REGIONS ACCESSED: 0
L1D REGIONS CONFLICTS: 0
L1D Cross Page Prefetch Requests: 0
L1D Same Page Prefetch Requests: 0
L1D ROI Sum of L1D PQ occupancy: 0
L1D PREFETCHES PUSHED FROM L2C: 0
L1I SPEC fills:          0  NON-SPEC fills:          0
L1I Test counter :          0
L1I Leapfrog:          0
L1I MSHR merge:          0
L1I TOTAL     ACCESS:   37073138  HIT:   37073138  MISS:          0  HIT %:        100  MISS %:          0   MPKI: 0
L1I LOAD      TOTAL       ACCESS:   37073138  HIT:   37073138  MISS:          0  HIT %:        100  MISS %:          0   MPKI: 0
L1I LOAD      NON_SPEC    ACCESS:   37073138  HIT:   37073138  MISS:          0  HIT %:        100  MISS %:          0   MPKI: 0
L1I PREFETCH  REQUESTED:          0  ISSUED:          0  USEFUL:          0  USELESS:          0
L1I USEFUL LOAD PREFETCHES:          0 PREFETCH ISSUED TO LOWER LEVEL:          0  ACCURACY: -nan
L1I TIMELY PREFETCHES:          0 LATE PREFETCHES: 0 DROPPED PREFETCHES: 0
L1I COMMIT LATE PREFETCHES: 0 NORMAL LATE: 0 MISSED OPPORTUNITY: 0 UNCOVERED: 0
L1I PREFETCHES SAME FILL-ORIGIN LEVEL: 0 DIFFERENT FILL-ORIGIN LEVEL: 0
L1I AVERAGE MISS LATENCY: -nan cycles
L1I AVERAGE MISS LATENCY LOAD: -nan cycles
L1I AVERAGE MISS LATENCY PREFETCH: -nan cycles
L1I AVERAGE MSHR OCCUPANCY: 0
L1I MSHR FULL: 0
L1I RQ	ACCESS:   60760792	FORWARD:          0	MERGED:   23687655	TO_CACHE:   37073137

BTB SPEC fills:          0  NON-SPEC fills:          0
BTB Test counter :          0
BTB Leapfrog:          0
BTB MSHR merge:          0
BTB TOTAL     ACCESS:   41566926  HIT:   41566921  MISS:          5  HIT %:        100  MISS %: 1.20288e-05   MPKI: 2.5e-05
BTB BRANCH_DIRECT_JUMP	ACCESS:          0  HIT:          0  MISS:          0
BTB BRANCH_INDIRECT	ACCESS:          0  HIT:          0  MISS:          0
BTB BRANCH_CONDITIONAL	ACCESS:   41566926  HIT:   41566921  MISS:          5
BTB BRANCH_DIRECT_CALL	ACCESS:          0  HIT:          0  MISS:          0
BTB BRANCH_INDIRECT_CALL	ACCESS:          0  HIT:          0  MISS:          0
BTB BRANCH_RETURN	ACCESS:          0  HIT:          0  MISS:          0
BTB BRANCH_OTHER ACCESS:          0  HIT:          0  MISS:          0

L2C SPEC fills:          0  NON-SPEC fills:    3023311
L2C Test counter :          0
L2C Leapfrog:          0
L2C MSHR merge:      53534
L2C TOTAL     ACCESS:   39440035  HIT:   12623257  MISS:   26816778  HIT %:    32.0062  MISS %:    67.9938   MPKI: 134.084
L2C LOAD      TOTAL       ACCESS:   16470206  HIT:    5903793  MISS:   10566413  HIT %:    35.8453  MISS %:    64.1547   MPKI: 52.8321
L2C LOAD      NON_SPEC    ACCESS:    4496427  HIT:    1473116  MISS:    3023311  HIT %:    32.7619  MISS %:    67.2381   MPKI: 15.1166
L2C LOAD      SPEC        ACCESS:   11973779  HIT:    4430677  MISS:    7543102  HIT %:    37.0032  MISS %:    62.9968   MPKI: 37.7155
L2C PREFETCH  NON_SPEC    ACCESS:   10700079  HIT:    2229476  MISS:    8470603  HIT %:    20.8361  MISS %:    79.1639   MPKI: 42.353
L2C WRITEBACK NON_SPEC    ACCESS:      12134  HIT:      12120  MISS:         14  HIT %:    99.8846  MISS %:   0.115378   MPKI: 7e-05
L2C CLEAN_EVICTION NON_SPEC    ACCESS:   11992330  HIT:    4317335  MISS:    7674995  HIT %:    36.0008  MISS %:    63.9992   MPKI: 38.375
L2C COMMIT LOAD NON_SPEC    ACCESS:     184697  HIT:      85724  MISS:      98973  HIT %:    46.4133  MISS %:    53.5867   MPKI: 0.494865
L2C LOAD TRANSLATION NON_SPEC    ACCESS:      80589  HIT:      74809  MISS:       5780  HIT %:    92.8278  MISS %:    7.17219   MPKI: 0.0289
L2C PREFETCH  REQUESTED:   10817391  ISSUED:   10817391  USEFUL:    1677631  USELESS:    6792442
L2C USEFUL LOAD PREFETCHES:    1677631 PREFETCH ISSUED TO LOWER LEVEL:    8524139  ACCURACY: 19.6809
L2C TIMELY PREFETCHES:    1677631 LATE PREFETCHES: 53534 DROPPED PREFETCHES: 0
L2C COMMIT LATE PREFETCHES: 0 NORMAL LATE: 53534 MISSED OPPORTUNITY: 0 UNCOVERED: 10512879
L2C PREFETCHES SAME FILL-ORIGIN LEVEL: 8524139 DIFFERENT FILL-ORIGIN LEVEL: 0
L2C AVERAGE MISS LATENCY: 83.2767 cycles
L2C AVERAGE MISS LATENCY LOAD: 87.005 cycles
L2C AVERAGE MISS LATENCY PREFETCH: 154.516 cycles
L2C AVERAGE MSHR OCCUPANCY: 2.28866
L2C MSHR FULL: 0.000710383
L2C RQ	ACCESS:   16735768	FORWARD:          0	MERGED:          0	TO_CACHE:   16735492
L2C WQ	ACCESS:   12004484	FORWARD:        317	MERGED:         17	TO_CACHE:   12004467
L2C PQ	ACCESS:   10817391	FORWARD:          0	MERGED:          1	TO_CACHE:   10817349

L2C Instructions Evicting Data 0
L2C Translations Evicting Data 5780
L2C Data Evicting Data 11589847
L2C Instructions Evicting Instructions 0
L2C Translations Evicting Instructions 0
L2C Data Evicting Instructions 0
L2C Instructions Evicting Translations 0
L2C Translations Evicting Translations 0
L2C Data Evicting Translations 3040
L2C Dense regions hint from L2: 0
PSCL5 SPEC fills:          0  NON-SPEC fills:          0
PSCL5 Test counter :          0
PSCL5 Leapfrog:          0
PSCL5 MSHR merge:          0
PSCL5 TOTAL     ACCESS:          0  HIT:          0  MISS:          0  HIT %:       -nan  MISS %:       -nan   MPKI: 0
PSCL5 PREFETCH  REQUESTED:          0  ISSUED:          0  USEFUL:          0  USELESS:          0
PSCL5 USEFUL LOAD PREFETCHES:          0 PREFETCH ISSUED TO LOWER LEVEL:          0  ACCURACY: -nan
PSCL5 TIMELY PREFETCHES:          0 LATE PREFETCHES: 0 DROPPED PREFETCHES: 0
PSCL5 COMMIT LATE PREFETCHES: 0 NORMAL LATE: 0 MISSED OPPORTUNITY: 0 UNCOVERED: 0
PSCL5 PREFETCHES SAME FILL-ORIGIN LEVEL: 0 DIFFERENT FILL-ORIGIN LEVEL: 0

PSCL4 SPEC fills:          0  NON-SPEC fills:          0
PSCL4 Test counter :          0
PSCL4 Leapfrog:          0
PSCL4 MSHR merge:          0
PSCL4 TOTAL     ACCESS:          0  HIT:          0  MISS:          0  HIT %:       -nan  MISS %:       -nan   MPKI: 0
PSCL4 PREFETCH  REQUESTED:          0  ISSUED:          0  USEFUL:          0  USELESS:          0
PSCL4 USEFUL LOAD PREFETCHES:          0 PREFETCH ISSUED TO LOWER LEVEL:          0  ACCURACY: -nan
PSCL4 TIMELY PREFETCHES:          0 LATE PREFETCHES: 0 DROPPED PREFETCHES: 0
PSCL4 COMMIT LATE PREFETCHES: 0 NORMAL LATE: 0 MISSED OPPORTUNITY: 0 UNCOVERED: 0
PSCL4 PREFETCHES SAME FILL-ORIGIN LEVEL: 0 DIFFERENT FILL-ORIGIN LEVEL: 0

PSCL3 SPEC fills:          0  NON-SPEC fills:          0
PSCL3 Test counter :          0
PSCL3 Leapfrog:          0
PSCL3 MSHR merge:          0
PSCL3 TOTAL     ACCESS:          0  HIT:          0  MISS:          0  HIT %:       -nan  MISS %:       -nan   MPKI: 0
PSCL3 PREFETCH  REQUESTED:          0  ISSUED:          0  USEFUL:          0  USELESS:          0
PSCL3 USEFUL LOAD PREFETCHES:          0 PREFETCH ISSUED TO LOWER LEVEL:          0  ACCURACY: -nan
PSCL3 TIMELY PREFETCHES:          0 LATE PREFETCHES: 0 DROPPED PREFETCHES: 0
PSCL3 COMMIT LATE PREFETCHES: 0 NORMAL LATE: 0 MISSED OPPORTUNITY: 0 UNCOVERED: 0
PSCL3 PREFETCHES SAME FILL-ORIGIN LEVEL: 0 DIFFERENT FILL-ORIGIN LEVEL: 0

PSCL2 SPEC fills:          0  NON-SPEC fills:          0
PSCL2 Test counter :          0
PSCL2 Leapfrog:          0
PSCL2 MSHR merge:          0
PSCL2 TOTAL     ACCESS:          0  HIT:          0  MISS:          0  HIT %:       -nan  MISS %:       -nan   MPKI: 0
PSCL2 PREFETCH  REQUESTED:          0  ISSUED:          0  USEFUL:          0  USELESS:          0
PSCL2 USEFUL LOAD PREFETCHES:          0 PREFETCH ISSUED TO LOWER LEVEL:          0  ACCURACY: -nan
PSCL2 TIMELY PREFETCHES:          0 LATE PREFETCHES: 0 DROPPED PREFETCHES: 0
PSCL2 COMMIT LATE PREFETCHES: 0 NORMAL LATE: 0 MISSED OPPORTUNITY: 0 UNCOVERED: 0
PSCL2 PREFETCHES SAME FILL-ORIGIN LEVEL: 0 DIFFERENT FILL-ORIGIN LEVEL: 0

LLC SPEC fills:          0  NON-SPEC fills:    1174630
LLC Test counter :          0
LLC Leapfrog:          0
LLC MSHR merge:          0
LLC TOTAL     ACCESS:   28638438  HIT:   15741649  MISS:   12896789  HIT %:    54.9669  MISS %:    45.0331   MPKI: 64.4839
LLC LOAD      TOTAL       ACCESS:   10512804  HIT:    6422623  MISS:    4090181  HIT %:    61.0933  MISS %:    38.9067   MPKI: 20.4509
LLC LOAD      NON_SPEC    ACCESS:    3009206  HIT:    1834576  MISS:    1174630  HIT %:    60.9655  MISS %:    39.0345   MPKI: 5.87315
LLC LOAD      SPEC        ACCESS:    7503598  HIT:    4588047  MISS:    2915551  HIT %:    61.1446  MISS %:    38.8554   MPKI: 14.5778
LLC PREFETCH  NON_SPEC    ACCESS:    8524095  HIT:    3203130  MISS:    5320965  HIT %:    37.5774  MISS %:    62.4226   MPKI: 26.6048
LLC WRITEBACK NON_SPEC    ACCESS:      11320  HIT:      11319  MISS:          1  HIT %:    99.9912  MISS %: 0.00883392   MPKI: 5e-06
LLC CLEAN_EVICTION NON_SPEC    ACCESS:    9485498  HIT:    6012389  MISS:    3473109  HIT %:    63.3851  MISS %:    36.6149   MPKI: 17.3655
LLC COMMIT LOAD NON_SPEC    ACCESS:      98941  HIT:      88807  MISS:      10134  HIT %:    89.7575  MISS %:    10.2425   MPKI: 0.05067
LLC LOAD TRANSLATION NON_SPEC    ACCESS:       5780  HIT:       3381  MISS:       2399  HIT %:    58.4948  MISS %:    41.5052   MPKI: 0.011995
LLC PREFETCH  REQUESTED:          0  ISSUED:          0  USEFUL:     749270  USELESS:    4571611
LLC USEFUL LOAD PREFETCHES:     749270 PREFETCH ISSUED TO LOWER LEVEL:    5320966  ACCURACY: 14.0815
LLC TIMELY PREFETCHES:     749270 LATE PREFETCHES: 0 DROPPED PREFETCHES: 0
LLC COMMIT LATE PREFETCHES: 0 NORMAL LATE: 0 MISSED OPPORTUNITY: 0 UNCOVERED: 4090181
LLC PREFETCHES SAME FILL-ORIGIN LEVEL: 0 DIFFERENT FILL-ORIGIN LEVEL: 0
LLC AVERAGE MISS LATENCY: 134.14 cycles
LLC AVERAGE MISS LATENCY LOAD: 162.784 cycles
LLC AVERAGE MISS LATENCY PREFETCH: 199.638 cycles
LLC AVERAGE MSHR OCCUPANCY: 1.45104
LLC MSHR FULL: 0
LLC RQ	ACCESS:   10617632	FORWARD:          0	MERGED:          0	TO_CACHE:   10617525
LLC WQ	ACCESS:    9496818	FORWARD:        150	MERGED:          0	TO_CACHE:    9496818
LLC PQ	ACCESS:    8524139	FORWARD:          0	MERGED:          0	TO_CACHE:    8524096

LLC Dense regions hint to LLC: 0

RAW hits: 22191
Loads Generated: 57764199
Loads sent to L1D: 57742009
Stores Generated: 246717
Stores sent to L1D: 246717
Major fault: 0 Minor fault: 20918
Allocated PAGES: 20918
Total Load insts: 70972898
Total Non-spec loads: 9081113
Percentage of speculative loads: 87.2048

LeapFrogging counter: 427962
Commit hits: 31152085 miss: 17847737
Commit hit %: 63.5759 miss %: 36.4241
Commits not translated: 0
Loads retired: 16470356
Stores retired: 246717
Cache fills: 16470357
L1D response latency: 68.004 cycles
Load retirement latency: 138.728 cycles
OOO test counter: 0
Discarded buffer inserts: 31152085 hits: 46247 hit %: 0.148456
Filter prediction accuracy: -nan
[Bingo] PHT Access: 11236419
[Bingo] PHT Hit PC+Addr: 705409
[Bingo] PHT Hit PC+Offs: 10526288
[Bingo] PHT Miss: 4722
[Bingo] Prefetch PC+Addr: 0
[Bingo] Prefetch PC+Offs: 0
[Bingo] Useful PC+Addr: 0
[Bingo] Useful PC+Offs: 0
[Bingo] Useless PC+Addr: 0
[Bingo] Useless PC+Offs: 0
[Bingo] L1 Prefetch per Region: 0
[Bingo] L2 Prefetch per Region: 1.9777
[Bingo] L3 Prefetch per Region: 0
[Bingo] No Prefetch per Region: 30.0223
[Bingo] Number of Voters Mean: 15.9999
[Bingo] Number of Voters SD: 7.68945
PHT read accesses: 173905467
PHT write accesses: 2000493
AT read accesses: 6082221
AT write accesses: 7230626
FT read accesses: 6484978
FT write accesses: 11236419
PS read accesses: 22537560
PS write accesses: 11231697
PHT tag read accesses: 235819899
PHT tag write accesses: 2705902
AT tag read accesses: 661149302
AT tag write accesses: 8082662
FT tag read accesses: 892230275
FT tag write accesses: 15717353
PS tag read accesses: 636354522
PS tag write accesses: 33746705

DRAM Statistics
 CHANNEL 0
 RQ ROW_BUFFER_HIT:    2294460  ROW_BUFFER_MISS:    7125253
 DBUS_CONGESTED:       4139
 WQ ROW_BUFFER_HIT:    1986441  ROW_BUFFER_MISS:    3538037  FULL:       3372

 AVG_CONGESTED_CYCLE: 5
 All warmup complete: 2
Channel 0 Bank busy for read cycles: 0
Channel 0 Bank busy for write cycles: 0
Channel 0
Rank 0
0banks busy for read cycles: 93796648
0banks busy for write cycles: 623108
1banks busy for read cycles: 274491500
1banks busy for write cycles: 107918649
2banks busy for read cycles: 134282142
2banks busy for write cycles: 78343207
3banks busy for read cycles: 68141981
3banks busy for write cycles: 51275355
4banks busy for read cycles: 35404168
4banks busy for write cycles: 34380189
5banks busy for read cycles: 17485928
5banks busy for write cycles: 25910039
6banks busy for read cycles: 8418738
6banks busy for write cycles: 23253580
7banks busy for read cycles: 6275670
7banks busy for write cycles: 24931134
8banks busy for read cycles: 14579893
8banks busy for write cycles: 27338828

CPU 0 Branch Prediction Accuracy: 88.1493% MPKI: 24.7463 Average ROB Occupancy at Mispredict: 17.5876
Branch types
NOT_BRANCH: 158236160 79.1181%
BRANCH_DIRECT_JUMP: 0 0%
BRANCH_INDIRECT: 0 0%
BRANCH_CONDITIONAL: 41763493 20.8817%
BRANCH_DIRECT_CALL: 0 0%
BRANCH_INDIRECT_CALL: 0 0%
BRANCH_RETURN: 0 0%
BRANCH_OTHER: 0 0%

DRAM PAGES: 1048576
Allocated PAGES: 20918
