
*** ChampSim Multicore Out-of-Order Simulator ***

Warmup Instructions: 50000000
Simulation Instructions: 200000000
Number of CPUs: 1
LLC sets: 2048
LLC ways: 16
L0D sets: 16
L0D ways: 2
ROB size: 352
LQ size: 128
SQ size: 72
Secure Berti: OFF
Berti: OFF
Berti Fill: OFF
On commit prefetching: OFF
Hit-based filter: OFF
Time-guarding: ON
Free-slotting: ON
Leap-frogging: ON
Train prefetcher on L0D bypass: OFF
No translation penalty for prefetchers: OFF
Prefetch to L0D only: OFF
Prefetch to L1D only: OFF
Clean evictions: ON
Commit loads: ON
Commit write: ON
Fill commit loads to L2C, LLC: ON
DRAM IO FREQUENCY: 6400
ROB SIZE: 352
Off-chip DRAM Size: 4096 MB Channels: 1 Width: 64-bit Data Rate: 6400 MT/s
CPU 0 runs /home/sumon/secure_berti/GhostMinion/../../traces/gap/sssp-10.trace.gz
.gz
BTB has LRU replacement policy
ITLB has LRU replacement policy
DTLB has LRU replacement policy
STLB has LRU replacement policy
L1I has LRU replacement policy
L0D has LRU replacement policy
L1D has LRU replacement policy
Bingo PHT WAYS: 16 and PHT_SIZE: 16384
L2C has LRU replacement policy
LLC has LRU replacement policy
Heartbeat CPU 0 instructions: 10000000 cycles: 3966919 heartbeat IPC: 2.52085 cumulative IPC: 2.52085 (Simulation time: 0 hr 1 min 28 sec) 
Heartbeat CPU 0 instructions: 20000001 cycles: 7816602 heartbeat IPC: 2.59762 cumulative IPC: 2.55866 (Simulation time: 0 hr 3 min 7 sec) 
Heartbeat CPU 0 instructions: 30000003 cycles: 11623129 heartbeat IPC: 2.62707 cumulative IPC: 2.58106 (Simulation time: 0 hr 4 min 50 sec) 
Heartbeat CPU 0 instructions: 40000002 cycles: 15402525 heartbeat IPC: 2.64593 cumulative IPC: 2.59698 (Simulation time: 0 hr 6 min 37 sec) 
Heartbeat CPU 0 instructions: 50000001 cycles: 19160936 heartbeat IPC: 2.6607 cumulative IPC: 2.60948 (Simulation time: 0 hr 8 min 23 sec) 

Warmup complete CPU 0 instructions: 50000001 cycles: 19160936 (Simulation time: 0 hr 8 min 23 sec) 

Heartbeat CPU 0 instructions: 60000000 cycles: 46922401 heartbeat IPC: 0.360211 cumulative IPC: 0.360211 (Simulation time: 0 hr 10 min 50 sec) 
Heartbeat CPU 0 instructions: 70000000 cycles: 74297203 heartbeat IPC: 0.365299 cumulative IPC: 0.362738 (Simulation time: 0 hr 13 min 20 sec) 
Heartbeat CPU 0 instructions: 80000001 cycles: 100781995 heartbeat IPC: 0.377575 cumulative IPC: 0.367552 (Simulation time: 0 hr 15 min 57 sec) 
Heartbeat CPU 0 instructions: 90000000 cycles: 125987574 heartbeat IPC: 0.396738 cumulative IPC: 0.374438 (Simulation time: 0 hr 18 min 23 sec) 
Heartbeat CPU 0 instructions: 100000000 cycles: 152096214 heartbeat IPC: 0.383015 cumulative IPC: 0.376123 (Simulation time: 0 hr 21 min 2 sec) 
Heartbeat CPU 0 instructions: 110000000 cycles: 177682923 heartbeat IPC: 0.390828 cumulative IPC: 0.378496 (Simulation time: 0 hr 23 min 42 sec) 
Heartbeat CPU 0 instructions: 120000003 cycles: 203983089 heartbeat IPC: 0.380226 cumulative IPC: 0.378742 (Simulation time: 0 hr 26 min 18 sec) 
Heartbeat CPU 0 instructions: 130000002 cycles: 228911784 heartbeat IPC: 0.401144 cumulative IPC: 0.381405 (Simulation time: 0 hr 29 min 2 sec) 
Heartbeat CPU 0 instructions: 140000002 cycles: 254022253 heartbeat IPC: 0.39824 cumulative IPC: 0.383205 (Simulation time: 0 hr 31 min 46 sec) 
Heartbeat CPU 0 instructions: 150000000 cycles: 279192182 heartbeat IPC: 0.397299 cumulative IPC: 0.384569 (Simulation time: 0 hr 34 min 25 sec) 
Heartbeat CPU 0 instructions: 160000001 cycles: 304239400 heartbeat IPC: 0.399246 cumulative IPC: 0.385859 (Simulation time: 0 hr 37 min 11 sec) 
Heartbeat CPU 0 instructions: 170000002 cycles: 329627944 heartbeat IPC: 0.393878 cumulative IPC: 0.386515 (Simulation time: 0 hr 39 min 56 sec) 
Heartbeat CPU 0 instructions: 180000001 cycles: 354862212 heartbeat IPC: 0.396286 cumulative IPC: 0.387249 (Simulation time: 0 hr 42 min 38 sec) 
Heartbeat CPU 0 instructions: 190000002 cycles: 379708016 heartbeat IPC: 0.402482 cumulative IPC: 0.388299 (Simulation time: 0 hr 45 min 19 sec) 
Heartbeat CPU 0 instructions: 200000003 cycles: 403967194 heartbeat IPC: 0.412215 cumulative IPC: 0.389807 (Simulation time: 0 hr 48 min 10 sec) 
Heartbeat CPU 0 instructions: 210000003 cycles: 428512830 heartbeat IPC: 0.407404 cumulative IPC: 0.390862 (Simulation time: 0 hr 51 min 2 sec) 
Heartbeat CPU 0 instructions: 220000000 cycles: 453358140 heartbeat IPC: 0.40249 cumulative IPC: 0.391527 (Simulation time: 0 hr 53 min 55 sec) 
Heartbeat CPU 0 instructions: 230000002 cycles: 477655760 heartbeat IPC: 0.411563 cumulative IPC: 0.392589 (Simulation time: 0 hr 56 min 46 sec) 
Heartbeat CPU 0 instructions: 240000001 cycles: 501956593 heartbeat IPC: 0.411509 cumulative IPC: 0.393541 (Simulation time: 0 hr 59 min 39 sec) 
Heartbeat CPU 0 instructions: 250000000 cycles: 526292756 heartbeat IPC: 0.410911 cumulative IPC: 0.394375 (Simulation time: 1 hr 2 min 34 sec) 
Finished CPU 0 instructions: 200000003 cycles: 507131821 cumulative IPC: 0.394375 (Simulation time: 1 hr 2 min 34 sec) 
 Instruction ID: 250000054

ChampSim completed all CPUs

Region of Interest Statistics

CPU 0 cumulative IPC: 0.394375 instructions: 200000003 cycles: 507131821
ITLB SPEC fills:          0  NON-SPEC fills:          0
ITLB Test counter :          0
ITLB Leapfrog:          0
ITLB MSHR merge:          0
ITLB TOTAL     ACCESS:   24208039  HIT:   24208039  MISS:          0  HIT %:        100  MISS %:          0   MPKI: 0
ITLB LOAD TRANSLATION NON_SPEC    ACCESS:   24208039  HIT:   24208039  MISS:          0  HIT %:        100  MISS %:          0   MPKI: 0
ITLB PREFETCH  REQUESTED:          0  ISSUED:          0  USEFUL:          0  USELESS:          0
ITLB USEFUL LOAD PREFETCHES:          0 PREFETCH ISSUED TO LOWER LEVEL:          0  ACCURACY: -nan
ITLB TIMELY PREFETCHES:          0 LATE PREFETCHES: 0 DROPPED PREFETCHES: 0
ITLB COMMIT LATE PREFETCHES: 0 NORMAL LATE: 0 MISSED OPPORTUNITY: 0 UNCOVERED: 0
ITLB PREFETCHES SAME FILL-ORIGIN LEVEL: 0 DIFFERENT FILL-ORIGIN LEVEL: 0
ITLB AVERAGE MISS LATENCY: -nan cycles
ITLB AVERAGE MISS LATENCY LOAD: -nan cycles
ITLB AVERAGE MISS LATENCY PREFETCH: -nan cycles
ITLB AVERAGE MSHR OCCUPANCY: 0
ITLB MSHR FULL: 0
ITLB RQ	ACCESS:   24872416	FORWARD:          0	MERGED:     664377	TO_CACHE:   24208039

DTLB SPEC fills:          0  NON-SPEC fills:          0
DTLB Test counter :          0
DTLB Leapfrog:          0
DTLB MSHR merge:          0
DTLB TOTAL     ACCESS:   48603490  HIT:   43928551  MISS:    4674939  HIT %:    90.3815  MISS %:    9.61853   MPKI: 23.3747
DTLB LOAD TRANSLATION NON_SPEC    ACCESS:   48603490  HIT:   43928551  MISS:    4674939  HIT %:    90.3815  MISS %:    9.61853   MPKI: 23.3747
DTLB PREFETCH  REQUESTED:          0  ISSUED:          0  USEFUL:          0  USELESS:          0
DTLB USEFUL LOAD PREFETCHES:          0 PREFETCH ISSUED TO LOWER LEVEL:          0  ACCURACY: -nan
DTLB TIMELY PREFETCHES:          0 LATE PREFETCHES: 0 DROPPED PREFETCHES: 0
DTLB COMMIT LATE PREFETCHES: 0 NORMAL LATE: 0 MISSED OPPORTUNITY: 0 UNCOVERED: 0
DTLB PREFETCHES SAME FILL-ORIGIN LEVEL: 0 DIFFERENT FILL-ORIGIN LEVEL: 0
DTLB AVERAGE MISS LATENCY: 12.5154 cycles
DTLB AVERAGE MISS LATENCY LOAD: -nan cycles
DTLB AVERAGE MISS LATENCY PREFETCH: -nan cycles
DTLB AVERAGE MSHR OCCUPANCY: 0.235598
DTLB MSHR FULL: 2.44898e-07
DTLB RQ	ACCESS:   53011754	FORWARD:          0	MERGED:    4011746	TO_CACHE:   49000008

STLB SPEC fills:          0  NON-SPEC fills:          0
STLB Test counter :          0
STLB Leapfrog:          0
STLB MSHR merge:          0
STLB TOTAL     ACCESS:    4674939  HIT:    4614403  MISS:      60536  HIT %:    98.7051  MISS %:     1.2949   MPKI: 0.30268
STLB LOAD TRANSLATION NON_SPEC    ACCESS:    4674939  HIT:    4614403  MISS:      60536  HIT %:    98.7051  MISS %:     1.2949   MPKI: 0.30268
STLB PREFETCH  REQUESTED:          0  ISSUED:          0  USEFUL:          0  USELESS:          0
STLB USEFUL LOAD PREFETCHES:          0 PREFETCH ISSUED TO LOWER LEVEL:          0  ACCURACY: -nan
STLB TIMELY PREFETCHES:          0 LATE PREFETCHES: 0 DROPPED PREFETCHES: 0
STLB COMMIT LATE PREFETCHES: 0 NORMAL LATE: 0 MISSED OPPORTUNITY: 0 UNCOVERED: 0
STLB PREFETCHES SAME FILL-ORIGIN LEVEL: 0 DIFFERENT FILL-ORIGIN LEVEL: 0
STLB AVERAGE MISS LATENCY: 254.04 cycles
STLB AVERAGE MISS LATENCY LOAD: -nan cycles
STLB AVERAGE MISS LATENCY PREFETCH: -nan cycles
STLB AVERAGE MSHR OCCUPANCY: 0.0108981
STLB MSHR FULL: 0
STLB RQ	ACCESS:    4674939	FORWARD:          0	MERGED:          0	TO_CACHE:    4674939

STLB Hit, L1D data hit: 0
STLB Hit, L2C data hit: 0
STLB Hit, LLC data hit: 0
STLB Hit, LLC data miss: 0
STLB STLB hints to L2: 0
L0D SPEC fills:   25913859  NON-SPEC fills:          0
L0D TimeGuard Request with older TS:    1995648 Restricted eviction:     197365 read:    4065165
L0D Test counter :          0
L0D Leapfrog:          0
L0D MSHR merge:    3008476
L0D TOTAL     ACCESS:   47786508  HIT:   16637486  MISS:   31149022  HIT %:    34.8163  MISS %:    65.1837   MPKI: 155.745
L0D LOAD      TOTAL       ACCESS:   47786508  HIT:   16637486  MISS:   31149022  HIT %:    34.8163  MISS %:    65.1837   MPKI: 155.745
L0D LOAD      NON_SPEC    ACCESS:    5115221  HIT:      77423  MISS:    5037798  HIT %:    1.51358  MISS %:    98.4864   MPKI: 25.189
L0D LOAD      SPEC        ACCESS:   42671287  HIT:   16560063  MISS:   26111224  HIT %:    38.8084  MISS %:    61.1916   MPKI: 130.556
L0D PREFETCH  REQUESTED:          0  ISSUED:          0  USEFUL:          0  USELESS:          0
L0D USEFUL LOAD PREFETCHES:          0 PREFETCH ISSUED TO LOWER LEVEL:          0  ACCURACY: -nan
L0D TIMELY PREFETCHES:          0 LATE PREFETCHES: 0 DROPPED PREFETCHES: 0
L0D COMMIT LATE PREFETCHES: 0 NORMAL LATE: 0 MISSED OPPORTUNITY: 0 UNCOVERED: 31149022
L0D PREFETCHES SAME FILL-ORIGIN LEVEL: 0 DIFFERENT FILL-ORIGIN LEVEL: 0
L0D AVERAGE MISS LATENCY: 31.9039 cycles
L0D AVERAGE MISS LATENCY LOAD: 31.9039 cycles
L0D AVERAGE MISS LATENCY PREFETCH: -nan cycles
L0D AVERAGE MSHR OCCUPANCY: 2.14835
L0D MSHR FULL: 0.0350176
L0D RQ	ACCESS:   76741497	FORWARD:          0	MERGED:   25946515	TO_CACHE:   50794982
L0D WQ	ACCESS:    2216772	FORWARD:          0	MERGED:          0	TO_CACHE:    2216772

L1D SPEC fills:          0  NON-SPEC fills:    1773312
L1D Test counter :          0
L1D Leapfrog:          0
L1D MSHR merge:      13365
L1D TOTAL     ACCESS:   75786427  HIT:   55508849  MISS:   20277578  HIT %:    73.2438  MISS %:    26.7562   MPKI: 101.388
L1D LOAD      TOTAL       ACCESS:   31135657  HIT:   20147368  MISS:   10988289  HIT %:    64.7083  MISS %:    35.2917   MPKI: 54.9414
L1D LOAD      NON_SPEC    ACCESS:    5036799  HIT:    3263487  MISS:    1773312  HIT %:    64.7929  MISS %:    35.2071   MPKI: 8.86656
L1D LOAD      SPEC        ACCESS:   26098858  HIT:   16883881  MISS:    9214977  HIT %:     64.692  MISS %:     35.308   MPKI: 46.0749
L1D RFO       NON_SPEC    ACCESS:    2023410  HIT:    1551567  MISS:     471843  HIT %:    76.6808  MISS %:    23.3192   MPKI: 2.35921
L1D COMMIT LOAD NON_SPEC    ACCESS:   18605506  HIT:   18291881  MISS:     313625  HIT %:    98.3143  MISS %:    1.68566   MPKI: 1.56812
L1D COMMIT WRITE NON_SPEC    ACCESS:   24021854  HIT:   15518033  MISS:    8503821  HIT %:    64.5996  MISS %:    35.4004   MPKI: 42.5191
L1D PREFETCH  REQUESTED:          0  ISSUED:          0  USEFUL:          0  USELESS:          0
L1D USEFUL LOAD PREFETCHES:          0 PREFETCH ISSUED TO LOWER LEVEL:          0  ACCURACY: -nan
L1D TIMELY PREFETCHES:          0 LATE PREFETCHES: 0 DROPPED PREFETCHES: 0
L1D COMMIT LATE PREFETCHES: 0 NORMAL LATE: 0 MISSED OPPORTUNITY: 0 UNCOVERED: 10988289
L1D PREFETCHES SAME FILL-ORIGIN LEVEL: 0 DIFFERENT FILL-ORIGIN LEVEL: 0
L1D AVERAGE MISS LATENCY: 43.8637 cycles
L1D AVERAGE MISS LATENCY LOAD: 75.6431 cycles
L1D AVERAGE MISS LATENCY PREFETCH: -nan cycles
L1D AVERAGE MSHR OCCUPANCY: 1.80664
L1D MSHR FULL: 0.04081
L1D RQ	ACCESS:   78609719	FORWARD:          0	MERGED:   23603740	TO_CACHE:   49787199
L1D WQ	ACCESS:   26267522	FORWARD:    5218780	MERGED:      30652	TO_CACHE:   26236870

L1D UNIQUE REGIONS ACCESSED: 0
L1D REGIONS CONFLICTS: 0
L1D Cross Page Prefetch Requests: 0
L1D Same Page Prefetch Requests: 0
L1D ROI Sum of L1D PQ occupancy: 0
L1D PREFETCHES PUSHED FROM L2C: 0
L1I SPEC fills:          0  NON-SPEC fills:          0
L1I Test counter :          0
L1I Leapfrog:          0
L1I MSHR merge:          0
L1I TOTAL     ACCESS:   24872416  HIT:   24872416  MISS:          0  HIT %:        100  MISS %:          0   MPKI: 0
L1I LOAD      TOTAL       ACCESS:   24872416  HIT:   24872416  MISS:          0  HIT %:        100  MISS %:          0   MPKI: 0
L1I LOAD      NON_SPEC    ACCESS:   24872416  HIT:   24872416  MISS:          0  HIT %:        100  MISS %:          0   MPKI: 0
L1I PREFETCH  REQUESTED:          0  ISSUED:          0  USEFUL:          0  USELESS:          0
L1I USEFUL LOAD PREFETCHES:          0 PREFETCH ISSUED TO LOWER LEVEL:          0  ACCURACY: -nan
L1I TIMELY PREFETCHES:          0 LATE PREFETCHES: 0 DROPPED PREFETCHES: 0
L1I COMMIT LATE PREFETCHES: 0 NORMAL LATE: 0 MISSED OPPORTUNITY: 0 UNCOVERED: 0
L1I PREFETCHES SAME FILL-ORIGIN LEVEL: 0 DIFFERENT FILL-ORIGIN LEVEL: 0
L1I AVERAGE MISS LATENCY: -nan cycles
L1I AVERAGE MISS LATENCY LOAD: -nan cycles
L1I AVERAGE MISS LATENCY PREFETCH: -nan cycles
L1I AVERAGE MSHR OCCUPANCY: 0
L1I MSHR FULL: 0
L1I RQ	ACCESS:   38861589	FORWARD:          0	MERGED:   13989173	TO_CACHE:   24872416

BTB SPEC fills:          0  NON-SPEC fills:          0
BTB Test counter :          0
BTB Leapfrog:          0
BTB MSHR merge:          0
BTB TOTAL     ACCESS:   29056031  HIT:   29055886  MISS:        145  HIT %:    99.9995  MISS %: 0.000499036   MPKI: 0.000725
BTB BRANCH_DIRECT_JUMP	ACCESS:    9225403  HIT:    9225362  MISS:         41
BTB BRANCH_INDIRECT	ACCESS:          0  HIT:          0  MISS:          0
BTB BRANCH_CONDITIONAL	ACCESS:   19828000  HIT:   19827919  MISS:         81
BTB BRANCH_DIRECT_CALL	ACCESS:       1314  HIT:       1305  MISS:          9
BTB BRANCH_INDIRECT_CALL	ACCESS:          0  HIT:          0  MISS:          0
BTB BRANCH_RETURN	ACCESS:       1314  HIT:       1300  MISS:         14
BTB BRANCH_OTHER ACCESS:          0  HIT:          0  MISS:          0

L2C SPEC fills:          0  NON-SPEC fills:    1126237
L2C Test counter :          0
L2C Leapfrog:          0
L2C MSHR merge:     121438
L2C TOTAL     ACCESS:   27935660  HIT:    9210597  MISS:   18725063  HIT %:    32.9708  MISS %:    67.0292   MPKI: 93.6253
L2C LOAD      TOTAL       ACCESS:   10988254  HIT:    4113450  MISS:    6874804  HIT %:     37.435  MISS %:     62.565   MPKI: 34.374
L2C LOAD      NON_SPEC    ACCESS:    1773309  HIT:     647072  MISS:    1126237  HIT %:    36.4895  MISS %:    63.5105   MPKI: 5.63118
L2C LOAD      SPEC        ACCESS:    9214945  HIT:    3466378  MISS:    5748567  HIT %:    37.6169  MISS %:    62.3831   MPKI: 28.7428
L2C RFO       NON_SPEC    ACCESS:     471829  HIT:     267832  MISS:     203997  HIT %:    56.7646  MISS %:    43.2354   MPKI: 1.01998
L2C PREFETCH  NON_SPEC    ACCESS:    6403262  HIT:     695264  MISS:    5707998  HIT %:     10.858  MISS %:     89.142   MPKI: 28.54
L2C WRITEBACK NON_SPEC    ACCESS:     821863  HIT:     819113  MISS:       2750  HIT %:    99.6654  MISS %:   0.334606   MPKI: 0.01375
L2C CLEAN_EVICTION NON_SPEC    ACCESS:    8634170  HIT:    2818462  MISS:    5815708  HIT %:    32.6431  MISS %:    67.3569   MPKI: 29.0785
L2C COMMIT LOAD NON_SPEC    ACCESS:     313606  HIT:     240153  MISS:      73453  HIT %:    76.5779  MISS %:    23.4221   MPKI: 0.367265
L2C LOAD TRANSLATION NON_SPEC    ACCESS:     302676  HIT:     256323  MISS:      46353  HIT %:    84.6856  MISS %:    15.3144   MPKI: 0.231765
L2C PREFETCH  REQUESTED:    6626061  ISSUED:    6626061  USEFUL:    1531127  USELESS:    4177327
L2C USEFUL LOAD PREFETCHES:    1531127 PREFETCH ISSUED TO LOWER LEVEL:    5829437  ACCURACY: 26.2654
L2C TIMELY PREFETCHES:    1531127 LATE PREFETCHES: 121438 DROPPED PREFETCHES: 0
L2C COMMIT LATE PREFETCHES: 0 NORMAL LATE: 121438 MISSED OPPORTUNITY: 0 UNCOVERED: 6753366
L2C PREFETCHES SAME FILL-ORIGIN LEVEL: 5829437 DIFFERENT FILL-ORIGIN LEVEL: 0
L2C AVERAGE MISS LATENCY: 103.561 cycles
L2C AVERAGE MISS LATENCY LOAD: 101.539 cycles
L2C AVERAGE MISS LATENCY PREFETCH: 207.809 cycles
L2C AVERAGE MSHR OCCUPANCY: 3.5401
L2C MSHR FULL: 0.0132078
L2C RQ	ACCESS:   12076435	FORWARD:          0	MERGED:          0	TO_CACHE:   12076367
L2C WQ	ACCESS:    9456728	FORWARD:         71	MERGED:        693	TO_CACHE:    9456035
L2C PQ	ACCESS:    6626061	FORWARD:          0	MERGED:          1	TO_CACHE:    6626057

L2C Instructions Evicting Data 0
L2C Translations Evicting Data 46131
L2C Data Evicting Data 7089382
L2C Instructions Evicting Instructions 0
L2C Translations Evicting Instructions 0
L2C Data Evicting Instructions 0
L2C Instructions Evicting Translations 0
L2C Translations Evicting Translations 222
L2C Data Evicting Translations 22303
L2C Dense regions hint from L2: 0
PSCL5 SPEC fills:          0  NON-SPEC fills:          0
PSCL5 Test counter :          0
PSCL5 Leapfrog:          0
PSCL5 MSHR merge:          0
PSCL5 TOTAL     ACCESS:          0  HIT:          0  MISS:          0  HIT %:       -nan  MISS %:       -nan   MPKI: 0
PSCL5 PREFETCH  REQUESTED:          0  ISSUED:          0  USEFUL:          0  USELESS:          0
PSCL5 USEFUL LOAD PREFETCHES:          0 PREFETCH ISSUED TO LOWER LEVEL:          0  ACCURACY: -nan
PSCL5 TIMELY PREFETCHES:          0 LATE PREFETCHES: 0 DROPPED PREFETCHES: 0
PSCL5 COMMIT LATE PREFETCHES: 0 NORMAL LATE: 0 MISSED OPPORTUNITY: 0 UNCOVERED: 0
PSCL5 PREFETCHES SAME FILL-ORIGIN LEVEL: 0 DIFFERENT FILL-ORIGIN LEVEL: 0

PSCL4 SPEC fills:          0  NON-SPEC fills:          0
PSCL4 Test counter :          0
PSCL4 Leapfrog:          0
PSCL4 MSHR merge:          0
PSCL4 TOTAL     ACCESS:          0  HIT:          0  MISS:          0  HIT %:       -nan  MISS %:       -nan   MPKI: 0
PSCL4 PREFETCH  REQUESTED:          0  ISSUED:          0  USEFUL:          0  USELESS:          0
PSCL4 USEFUL LOAD PREFETCHES:          0 PREFETCH ISSUED TO LOWER LEVEL:          0  ACCURACY: -nan
PSCL4 TIMELY PREFETCHES:          0 LATE PREFETCHES: 0 DROPPED PREFETCHES: 0
PSCL4 COMMIT LATE PREFETCHES: 0 NORMAL LATE: 0 MISSED OPPORTUNITY: 0 UNCOVERED: 0
PSCL4 PREFETCHES SAME FILL-ORIGIN LEVEL: 0 DIFFERENT FILL-ORIGIN LEVEL: 0

PSCL3 SPEC fills:          0  NON-SPEC fills:          0
PSCL3 Test counter :          0
PSCL3 Leapfrog:          0
PSCL3 MSHR merge:          0
PSCL3 TOTAL     ACCESS:          0  HIT:          0  MISS:          0  HIT %:       -nan  MISS %:       -nan   MPKI: 0
PSCL3 PREFETCH  REQUESTED:          0  ISSUED:          0  USEFUL:          0  USELESS:          0
PSCL3 USEFUL LOAD PREFETCHES:          0 PREFETCH ISSUED TO LOWER LEVEL:          0  ACCURACY: -nan
PSCL3 TIMELY PREFETCHES:          0 LATE PREFETCHES: 0 DROPPED PREFETCHES: 0
PSCL3 COMMIT LATE PREFETCHES: 0 NORMAL LATE: 0 MISSED OPPORTUNITY: 0 UNCOVERED: 0
PSCL3 PREFETCHES SAME FILL-ORIGIN LEVEL: 0 DIFFERENT FILL-ORIGIN LEVEL: 0

PSCL2 SPEC fills:          0  NON-SPEC fills:          0
PSCL2 Test counter :          0
PSCL2 Leapfrog:          0
PSCL2 MSHR merge:          0
PSCL2 TOTAL     ACCESS:          0  HIT:          0  MISS:          0  HIT %:       -nan  MISS %:       -nan   MPKI: 0
PSCL2 PREFETCH  REQUESTED:          0  ISSUED:          0  USEFUL:          0  USELESS:          0
PSCL2 USEFUL LOAD PREFETCHES:          0 PREFETCH ISSUED TO LOWER LEVEL:          0  ACCURACY: -nan
PSCL2 TIMELY PREFETCHES:          0 LATE PREFETCHES: 0 DROPPED PREFETCHES: 0
PSCL2 COMMIT LATE PREFETCHES: 0 NORMAL LATE: 0 MISSED OPPORTUNITY: 0 UNCOVERED: 0
PSCL2 PREFETCHES SAME FILL-ORIGIN LEVEL: 0 DIFFERENT FILL-ORIGIN LEVEL: 0

LLC SPEC fills:          0  NON-SPEC fills:     483634
LLC Test counter :          0
LLC Leapfrog:          0
LLC MSHR merge:          0
LLC TOTAL     ACCESS:   20588244  HIT:   10227011  MISS:   10361233  HIT %:     49.674  MISS %:     50.326   MPKI: 51.8062
LLC LOAD      TOTAL       ACCESS:    6753314  HIT:    3772221  MISS:    2981093  HIT %:    55.8573  MISS %:    44.1427   MPKI: 14.9055
LLC LOAD      NON_SPEC    ACCESS:    1117594  HIT:     633960  MISS:     483634  HIT %:    56.7254  MISS %:    43.2746   MPKI: 2.41817
LLC LOAD      SPEC        ACCESS:    5635720  HIT:    3138261  MISS:    2497459  HIT %:    55.6852  MISS %:    44.3148   MPKI: 12.4873
LLC RFO       NON_SPEC    ACCESS:     203991  HIT:      90627  MISS:     113364  HIT %:     44.427  MISS %:     55.573   MPKI: 0.56682
LLC PREFETCH  NON_SPEC    ACCESS:    5829422  HIT:    1559265  MISS:    4270157  HIT %:    26.7482  MISS %:    73.2518   MPKI: 21.3508
LLC WRITEBACK NON_SPEC    ACCESS:     341921  HIT:     333157  MISS:       8764  HIT %:    97.4368  MISS %:    2.56317   MPKI: 0.04382
LLC CLEAN_EVICTION NON_SPEC    ACCESS:    7339800  HIT:    4404029  MISS:    2935771  HIT %:     60.002  MISS %:     39.998   MPKI: 14.6789
LLC COMMIT LOAD NON_SPEC    ACCESS:      73443  HIT:      58630  MISS:      14813  HIT %:    79.8306  MISS %:    20.1694   MPKI: 0.074065
LLC LOAD TRANSLATION NON_SPEC    ACCESS:      46353  HIT:       9082  MISS:      37271  HIT %:    19.5931  MISS %:    80.4069   MPKI: 0.186355
LLC PREFETCH  REQUESTED:          0  ISSUED:          0  USEFUL:     454669  USELESS:    3816064
LLC USEFUL LOAD PREFETCHES:     454669 PREFETCH ISSUED TO LOWER LEVEL:    4270158  ACCURACY: 10.6476
LLC TIMELY PREFETCHES:     454669 LATE PREFETCHES: 0 DROPPED PREFETCHES: 0
LLC COMMIT LATE PREFETCHES: 0 NORMAL LATE: 0 MISSED OPPORTUNITY: 0 UNCOVERED: 2981093
LLC PREFETCHES SAME FILL-ORIGIN LEVEL: 0 DIFFERENT FILL-ORIGIN LEVEL: 0
LLC AVERAGE MISS LATENCY: 155.842 cycles
LLC AVERAGE MISS LATENCY LOAD: 175.089 cycles
LLC AVERAGE MISS LATENCY PREFETCH: 245.325 cycles
LLC AVERAGE MSHR OCCUPANCY: 2.34702
LLC MSHR FULL: 0
LLC RQ	ACCESS:    7077171	FORWARD:          0	MERGED:          0	TO_CACHE:    7077103
LLC WQ	ACCESS:    7681722	FORWARD:         82	MERGED:          0	TO_CACHE:    7681722
LLC PQ	ACCESS:    5829437	FORWARD:          0	MERGED:          0	TO_CACHE:    5829423

LLC Dense regions hint to LLC: 0

RAW hits: 64220
Loads Generated: 76805717
Loads sent to L1D: 76741497
Stores Generated: 2216772
Stores sent to L1D: 2216772
Major fault: 0 Minor fault: 37080
Allocated PAGES: 37080
Total Load insts: 93562233
Total Non-spec loads: 6292990
Percentage of speculative loads: 93.274

LeapFrogging counter: 490297
Commit hits: 24050786 miss: 47460699
Commit hit %: 33.6321 miss %: 66.3679
Commits not translated: 0
Loads retired: 10988288
Stores retired: 2216772
Cache fills: 10988289
L1D response latency: 75.6431 cycles
Load retirement latency: 171.833 cycles
OOO test counter: 0
Discarded buffer inserts: 24050786 hits: 322730 hit %: 1.34187
Filter prediction accuracy: -nan
[Bingo] PHT Access: 5296002
[Bingo] PHT Hit PC+Addr: 203343
[Bingo] PHT Hit PC+Offs: 5088536
[Bingo] PHT Miss: 4123
[Bingo] Prefetch PC+Addr: 0
[Bingo] Prefetch PC+Offs: 0
[Bingo] Useful PC+Addr: 0
[Bingo] Useful PC+Offs: 0
[Bingo] Useless PC+Addr: 0
[Bingo] Useless PC+Offs: 0
[Bingo] L1 Prefetch per Region: 0
[Bingo] L2 Prefetch per Region: 2.27609
[Bingo] L3 Prefetch per Region: 0
[Bingo] No Prefetch per Region: 29.7239
[Bingo] Number of Voters Mean: 15.9691
[Bingo] Number of Voters SD: 6.02966
PHT read accesses: 82832726
PHT write accesses: 1889596
AT read accesses: 6191831
AT write accesses: 7579930
FT read accesses: 5918592
FT write accesses: 5296002
PS read accesses: 10698174
PS write accesses: 5291879
PHT tag read accesses: 142363914
PHT tag write accesses: 2092939
AT tag read accesses: 470347197
AT tag write accesses: 8081429
FT tag read accesses: 504847424
FT tag write accesses: 9323074
PS tag read accesses: 361119411
PS tag write accesses: 15975108

DRAM Statistics
 CHANNEL 0
 RQ ROW_BUFFER_HIT:    2407002  ROW_BUFFER_MISS:    5006526
 DBUS_CONGESTED:       5304
 WQ ROW_BUFFER_HIT:    1694045  ROW_BUFFER_MISS:    3221680  FULL:      39459

 AVG_CONGESTED_CYCLE: 5
 All warmup complete: 2
Channel 0 Bank busy for read cycles: 0
Channel 0 Bank busy for write cycles: 0
Channel 0
Rank 0
0banks busy for read cycles: 5337146
0banks busy for write cycles: 37470
1banks busy for read cycles: 103885866
1banks busy for write cycles: 7418810
2banks busy for read cycles: 74187934
2banks busy for write cycles: 9982264
3banks busy for read cycles: 50446699
3banks busy for write cycles: 12643856
4banks busy for read cycles: 30866193
4banks busy for write cycles: 15942251
5banks busy for read cycles: 16837838
5banks busy for write cycles: 20750172
6banks busy for read cycles: 9301255
6banks busy for write cycles: 28346081
7banks busy for read cycles: 7761787
7banks busy for write cycles: 39534813
8banks busy for read cycles: 20155202
8banks busy for write cycles: 53696185

CPU 0 Branch Prediction Accuracy: 97.7909% MPKI: 3.2859 Average ROB Occupancy at Mispredict: 162.673
Branch types
NOT_BRANCH: 170250761 85.1254%
BRANCH_DIRECT_JUMP: 9225403 4.6127%
BRANCH_INDIRECT: 0 0%
BRANCH_CONDITIONAL: 20520883 10.2604%
BRANCH_DIRECT_CALL: 1314 0.000657%
BRANCH_INDIRECT_CALL: 0 0%
BRANCH_RETURN: 1314 0.000657%
BRANCH_OTHER: 0 0%

DRAM PAGES: 1048576
Allocated PAGES: 37080
