
*** ChampSim Multicore Out-of-Order Simulator ***

Warmup Instructions: 50000000
Simulation Instructions: 200000000
Number of CPUs: 1
LLC sets: 2048
LLC ways: 16
L0D sets: 16
L0D ways: 2
ROB size: 352
LQ size: 128
SQ size: 72
Secure Berti: ON
Berti: ON
Berti Fill: ON
On commit prefetching: OFF
Hit-based filter: ON
Time-guarding: ON
Free-slotting: ON
Leap-frogging: ON
Train prefetcher on L0D bypass: OFF
No translation penalty for prefetchers: OFF
Prefetch to L0D only: OFF
Prefetch to L1D only: OFF
Clean evictions: ON
Commit loads: ON
Commit write: ON
Fill commit loads to L2C, LLC: ON
DRAM IO FREQUENCY: 6400
ROB SIZE: 352
Off-chip DRAM Size: 4096 MB Channels: 1 Width: 64-bit Data Rate: 6400 MT/s
CPU 0 runs /home/sumon/secure_berti/GhostMinion/../../traces/gap/bc-5.trace.gz
.gz
BTB has LRU replacement policy
ITLB has LRU replacement policy
DTLB has LRU replacement policy
STLB has LRU replacement policy
L1I has LRU replacement policy
L0D has LRU replacement policy
Berti version on_commit
History Sets: 8
History Ways: 16
BERTI Size: 16
BERTI Stride Size: 16
L1D has LRU replacement policy
L2C has LRU replacement policy
LLC has LRU replacement policy
Heartbeat CPU 0 instructions: 10000002 cycles: 3933891 heartbeat IPC: 2.54201 cumulative IPC: 2.54201 (Simulation time: 0 hr 0 min 42 sec) 
Heartbeat CPU 0 instructions: 20000001 cycles: 7460290 heartbeat IPC: 2.83575 cumulative IPC: 2.68086 (Simulation time: 0 hr 1 min 24 sec) 
Heartbeat CPU 0 instructions: 30000001 cycles: 11039912 heartbeat IPC: 2.79359 cumulative IPC: 2.71741 (Simulation time: 0 hr 2 min 7 sec) 
Heartbeat CPU 0 instructions: 40000003 cycles: 14547764 heartbeat IPC: 2.85075 cumulative IPC: 2.74956 (Simulation time: 0 hr 2 min 49 sec) 
Heartbeat CPU 0 instructions: 50000000 cycles: 18161014 heartbeat IPC: 2.76759 cumulative IPC: 2.75315 (Simulation time: 0 hr 3 min 30 sec) 

Warmup complete CPU 0 instructions: 50000004 cycles: 18161015 (Simulation time: 0 hr 3 min 30 sec) 

Heartbeat CPU 0 instructions: 60000000 cycles: 66829384 heartbeat IPC: 0.205472 cumulative IPC: 0.205472 (Simulation time: 0 hr 4 min 36 sec) 
Heartbeat CPU 0 instructions: 70000001 cycles: 114209627 heartbeat IPC: 0.211058 cumulative IPC: 0.208228 (Simulation time: 0 hr 5 min 41 sec) 
Heartbeat CPU 0 instructions: 80000000 cycles: 162491725 heartbeat IPC: 0.207116 cumulative IPC: 0.207856 (Simulation time: 0 hr 6 min 46 sec) 
Heartbeat CPU 0 instructions: 90000000 cycles: 210631552 heartbeat IPC: 0.207728 cumulative IPC: 0.207824 (Simulation time: 0 hr 7 min 51 sec) 
Heartbeat CPU 0 instructions: 100000000 cycles: 259804808 heartbeat IPC: 0.203363 cumulative IPC: 0.206916 (Simulation time: 0 hr 9 min 1 sec) 
Heartbeat CPU 0 instructions: 110000000 cycles: 307535580 heartbeat IPC: 0.209508 cumulative IPC: 0.207344 (Simulation time: 0 hr 10 min 7 sec) 
Heartbeat CPU 0 instructions: 120000000 cycles: 354482213 heartbeat IPC: 0.213008 cumulative IPC: 0.208134 (Simulation time: 0 hr 11 min 13 sec) 
Heartbeat CPU 0 instructions: 130000001 cycles: 401606963 heartbeat IPC: 0.212203 cumulative IPC: 0.208634 (Simulation time: 0 hr 12 min 17 sec) 
Heartbeat CPU 0 instructions: 140000002 cycles: 438192560 heartbeat IPC: 0.273332 cumulative IPC: 0.21427 (Simulation time: 0 hr 13 min 17 sec) 
Heartbeat CPU 0 instructions: 150000002 cycles: 466317568 heartbeat IPC: 0.355555 cumulative IPC: 0.223136 (Simulation time: 0 hr 14 min 15 sec) 
Heartbeat CPU 0 instructions: 160000001 cycles: 494758447 heartbeat IPC: 0.351607 cumulative IPC: 0.230803 (Simulation time: 0 hr 15 min 12 sec) 
Heartbeat CPU 0 instructions: 170000001 cycles: 522885341 heartbeat IPC: 0.355532 cumulative IPC: 0.237754 (Simulation time: 0 hr 16 min 9 sec) 
Heartbeat CPU 0 instructions: 180000003 cycles: 551226541 heartbeat IPC: 0.352843 cumulative IPC: 0.243872 (Simulation time: 0 hr 17 min 6 sec) 
Heartbeat CPU 0 instructions: 190000002 cycles: 579394266 heartbeat IPC: 0.355016 cumulative IPC: 0.249451 (Simulation time: 0 hr 18 min 8 sec) 
Heartbeat CPU 0 instructions: 200000002 cycles: 607641245 heartbeat IPC: 0.35402 cumulative IPC: 0.254461 (Simulation time: 0 hr 19 min 7 sec) 
Heartbeat CPU 0 instructions: 210000003 cycles: 635811626 heartbeat IPC: 0.354983 cumulative IPC: 0.259046 (Simulation time: 0 hr 20 min 1 sec) 
Heartbeat CPU 0 instructions: 220000000 cycles: 664660584 heartbeat IPC: 0.346633 cumulative IPC: 0.262955 (Simulation time: 0 hr 20 min 55 sec) 
Heartbeat CPU 0 instructions: 230000002 cycles: 694182837 heartbeat IPC: 0.338728 cumulative IPC: 0.266264 (Simulation time: 0 hr 21 min 48 sec) 
Heartbeat CPU 0 instructions: 240000002 cycles: 723982846 heartbeat IPC: 0.33557 cumulative IPC: 0.26919 (Simulation time: 0 hr 22 min 42 sec) 
Heartbeat CPU 0 instructions: 250000002 cycles: 753952085 heartbeat IPC: 0.333675 cumulative IPC: 0.271816 (Simulation time: 0 hr 23 min 36 sec) 
Finished CPU 0 instructions: 200000002 cycles: 735791071 cumulative IPC: 0.271816 (Simulation time: 0 hr 23 min 36 sec) 
 Instruction ID: 250000258

ChampSim completed all CPUs

Region of Interest Statistics

CPU 0 cumulative IPC: 0.271816 instructions: 200000002 cycles: 735791071
ITLB SPEC fills:          0  NON-SPEC fills:          0
ITLB Test counter :          0
ITLB Leapfrog:          0
ITLB MSHR merge:          0
ITLB TOTAL     ACCESS:   33818179  HIT:   33818179  MISS:          0  HIT %:        100  MISS %:          0   MPKI: 0
ITLB LOAD TRANSLATION NON_SPEC    ACCESS:   33818179  HIT:   33818179  MISS:          0  HIT %:        100  MISS %:          0   MPKI: 0
ITLB PREFETCH  REQUESTED:          0  ISSUED:          0  USEFUL:          0  USELESS:          0
ITLB USEFUL LOAD PREFETCHES:          0 PREFETCH ISSUED TO LOWER LEVEL:          0  ACCURACY: -nan
ITLB TIMELY PREFETCHES:          0 LATE PREFETCHES: 0 DROPPED PREFETCHES: 0
ITLB COMMIT LATE PREFETCHES: 0 MISSED OPPORTUNITY: 0 LATE IN PQ: 0 UNCOVERED: 0
ITLB COMMIT LATE MSHR PREFETCHES: 0
ITLB MPKI TOTAL: 0 MSHR LATE: 0 PQ LATE: 0 COMMIT LATE: 0 MISSED OPPORTUNITY: 0 UNCOVERED: 0
ITLB PREFETCHES SAME FILL-ORIGIN LEVEL: 0 DIFFERENT FILL-ORIGIN LEVEL: 0
ITLB AVERAGE MISS LATENCY: -nan cycles
ITLB AVERAGE MISS LATENCY LOAD: -nan cycles
ITLB AVERAGE MISS LATENCY PREFETCH: -nan cycles
ITLB AVERAGE MSHR OCCUPANCY: 0
ITLB MSHR FULL: 0
ITLB RQ	ACCESS:   34127161	FORWARD:          0	MERGED:     308982	TO_CACHE:   33818179

DTLB SPEC fills:          0  NON-SPEC fills:          0
DTLB Test counter :          0
DTLB Leapfrog:          0
DTLB MSHR merge:          0
DTLB TOTAL     ACCESS:   42070328  HIT:   33882213  MISS:    8188115  HIT %:    80.5371  MISS %:    19.4629   MPKI: 40.9406
DTLB LOAD TRANSLATION NON_SPEC    ACCESS:   42070328  HIT:   33882213  MISS:    8188115  HIT %:    80.5371  MISS %:    19.4629   MPKI: 40.9406
DTLB PREFETCH  REQUESTED:          0  ISSUED:          0  USEFUL:          0  USELESS:          0
DTLB USEFUL LOAD PREFETCHES:          0 PREFETCH ISSUED TO LOWER LEVEL:          0  ACCURACY: -nan
DTLB TIMELY PREFETCHES:          0 LATE PREFETCHES: 0 DROPPED PREFETCHES: 0
DTLB COMMIT LATE PREFETCHES: 0 MISSED OPPORTUNITY: 0 LATE IN PQ: 0 UNCOVERED: 0
DTLB COMMIT LATE MSHR PREFETCHES: 0
DTLB MPKI TOTAL: 0 MSHR LATE: 0 PQ LATE: 0 COMMIT LATE: 0 MISSED OPPORTUNITY: 0 UNCOVERED: 0
DTLB PREFETCHES SAME FILL-ORIGIN LEVEL: 0 DIFFERENT FILL-ORIGIN LEVEL: 0
DTLB AVERAGE MISS LATENCY: 28.9051 cycles
DTLB AVERAGE MISS LATENCY LOAD: -nan cycles
DTLB AVERAGE MISS LATENCY PREFETCH: -nan cycles
DTLB AVERAGE MSHR OCCUPANCY: 0.783046
DTLB MSHR FULL: 0.0238167
DTLB RQ	ACCESS:   47787792	FORWARD:          0	MERGED:    4314160	TO_CACHE:   43473632

STLB SPEC fills:          0  NON-SPEC fills:          0
STLB Test counter :          0
STLB Leapfrog:          0
STLB MSHR merge:          0
STLB TOTAL     ACCESS:   17309472  HIT:   15899568  MISS:    1409904  HIT %:    91.8547  MISS %:    8.14527   MPKI: 7.04952
STLB LOAD TRANSLATION NON_SPEC    ACCESS:    8188115  HIT:    6879983  MISS:    1308132  HIT %:     84.024  MISS %:     15.976   MPKI: 6.54066
STLB TRANSLATION FROM L1D PREFETCHER NON_SPEC    ACCESS:    9121357  HIT:    9019585  MISS:     101772  HIT %:    98.8842  MISS %:    1.11576   MPKI: 0.50886
STLB PREFETCH  REQUESTED:          0  ISSUED:          0  USEFUL:      99867  USELESS:       1908
STLB USEFUL LOAD PREFETCHES:      99867 PREFETCH ISSUED TO LOWER LEVEL:          0  ACCURACY: inf
STLB TIMELY PREFETCHES:      99867 LATE PREFETCHES: 40663 DROPPED PREFETCHES: 608170
STLB COMMIT LATE PREFETCHES: 0 MISSED OPPORTUNITY: 0 LATE IN PQ: 0 UNCOVERED: 0
STLB COMMIT LATE MSHR PREFETCHES: 0
STLB MPKI TOTAL: 0 MSHR LATE: 0.203315 PQ LATE: 0 COMMIT LATE: 0 MISSED OPPORTUNITY: 0 UNCOVERED: 0
STLB PREFETCHES SAME FILL-ORIGIN LEVEL: 0 DIFFERENT FILL-ORIGIN LEVEL: 0
STLB AVERAGE MISS LATENCY: 120.907 cycles
STLB AVERAGE MISS LATENCY LOAD: -nan cycles
STLB AVERAGE MISS LATENCY PREFETCH: -nan cycles
STLB AVERAGE MSHR OCCUPANCY: 0.315654
STLB MSHR FULL: 0
STLB RQ	ACCESS:   40262177	FORWARD:          0	MERGED:   22188182	TO_CACHE:   18073995

STLB Hit, L1D data hit: 0
STLB Hit, L2C data hit: 0
STLB Hit, LLC data hit: 0
STLB Hit, LLC data miss: 0
STLB STLB hints to L2: 0
L0D SPEC fills:   25278998  NON-SPEC fills:          0
L0D TimeGuard Request with older TS:     493970 Restricted eviction:     372533 read:       1067
L0D Test counter :          0
L0D Leapfrog:          0
L0D MSHR merge:    1127372
L0D TOTAL     ACCESS:   39155244  HIT:   11422934  MISS:   27732310  HIT %:    29.1734  MISS %:    70.8266   MPKI: 138.662
L0D LOAD      TOTAL       ACCESS:   39155244  HIT:   11422934  MISS:   27732310  HIT %:    29.1734  MISS %:    70.8266   MPKI: 138.662
L0D LOAD      NON_SPEC    ACCESS:    2082949  HIT:       2104  MISS:    2080845  HIT %:   0.101011  MISS %:     99.899   MPKI: 10.4042
L0D LOAD      SPEC        ACCESS:   37072295  HIT:   11420830  MISS:   25651465  HIT %:    30.8069  MISS %:    69.1931   MPKI: 128.257
L0D PREFETCH  REQUESTED:          0  ISSUED:          0  USEFUL:          0  USELESS:          0
L0D USEFUL LOAD PREFETCHES:          0 PREFETCH ISSUED TO LOWER LEVEL:          0  ACCURACY: -nan
L0D TIMELY PREFETCHES:          0 LATE PREFETCHES: 0 DROPPED PREFETCHES: 0
L0D COMMIT LATE PREFETCHES: 0 MISSED OPPORTUNITY: 0 LATE IN PQ: 0 UNCOVERED: 0
L0D COMMIT LATE MSHR PREFETCHES: 0
L0D MPKI TOTAL: 144.298 MSHR LATE: 0 PQ LATE: 0 COMMIT LATE: 0 MISSED OPPORTUNITY: 0 UNCOVERED: 0
L0D PREFETCHES SAME FILL-ORIGIN LEVEL: 0 DIFFERENT FILL-ORIGIN LEVEL: 0
L0D AVERAGE MISS LATENCY: 73.005 cycles
L0D AVERAGE MISS LATENCY LOAD: 73.005 cycles
L0D AVERAGE MISS LATENCY PREFETCH: -nan cycles
L0D AVERAGE MSHR OCCUPANCY: 5.21061
L0D MSHR FULL: 0.474422
L0D RQ	ACCESS:   47035420	FORWARD:          0	MERGED:    6752810	TO_CACHE:   40282610
L0D WQ	ACCESS:    7505182	FORWARD:          0	MERGED:          0	TO_CACHE:    7505182

L1D SPEC fills:          0  NON-SPEC fills:     984849
L1D Test counter :          0
L1D Leapfrog:          0
L1D MSHR merge:      29355
L1D TOTAL     ACCESS:   61457924  HIT:   28030067  MISS:   33427857  HIT %:    45.6085  MISS %:    54.3915   MPKI: 167.139
L1D LOAD      TOTAL       ACCESS:   27726677  HIT:   10972307  MISS:   16754370  HIT %:    39.5731  MISS %:    60.4269   MPKI: 83.7718
L1D LOAD      NON_SPEC    ACCESS:    2077505  HIT:    1092656  MISS:     984849  HIT %:    52.5946  MISS %:    47.4054   MPKI: 4.92424
L1D LOAD      SPEC        ACCESS:   25649172  HIT:    9879651  MISS:   15769521  HIT %:    38.5184  MISS %:    61.4816   MPKI: 78.8476
L1D RFO       NON_SPEC    ACCESS:    3932224  HIT:    3898145  MISS:      34079  HIT %:    99.1333  MISS %:    0.86666   MPKI: 0.170395
L1D PREFETCH  NON_SPEC    ACCESS:   13318776  HIT:   12429404  MISS:     889372  HIT %:    93.3224  MISS %:    6.67758   MPKI: 4.44686
L1D COMMIT LOAD NON_SPEC    ACCESS:    1047531  HIT:     655081  MISS:     392450  HIT %:    62.5357  MISS %:    37.4643   MPKI: 1.96225
L1D COMMIT WRITE NON_SPEC    ACCESS:   15432716  HIT:      75130  MISS:   15357586  HIT %:   0.486823  MISS %:    99.5132   MPKI: 76.7879
L1D PREFETCH  REQUESTED:   80239359  ISSUED:   77393605  USEFUL:     823594  USELESS:      65784
L1D USEFUL LOAD PREFETCHES:     823594 PREFETCH ISSUED TO LOWER LEVEL:   17881734  ACCURACY: 4.60578
L1D TIMELY PREFETCHES:     823594 LATE PREFETCHES: 25135 DROPPED PREFETCHES: 1342437
L1D COMMIT LATE PREFETCHES: 0 MISSED OPPORTUNITY: 0 LATE IN PQ: 0 UNCOVERED: 0
L1D COMMIT LATE MSHR PREFETCHES: 0
L1D MPKI TOTAL: 83.8 MSHR LATE: 0.125675 PQ LATE: 0 COMMIT LATE: 0 MISSED OPPORTUNITY: 0 UNCOVERED: 0
L1D PREFETCHES SAME FILL-ORIGIN LEVEL: 914508 DIFFERENT FILL-ORIGIN LEVEL: 16967226
L1D AVERAGE MISS LATENCY: 56.1544 cycles
L1D AVERAGE MISS LATENCY LOAD: 107.253 cycles
L1D AVERAGE MISS LATENCY PREFETCH: 49.2021 cycles
L1D AVERAGE MSHR OCCUPANCY: 2.79824
L1D MSHR FULL: 0.0224253
L1D RQ	ACCESS:   28934739	FORWARD:          0	MERGED:     149806	TO_CACHE:   28784894
L1D WQ	ACCESS:   22937897	FORWARD:         39	MERGED:    3489775	TO_CACHE:   19448122
L1D PQ	ACCESS:   77393605	FORWARD:          0	MERGED:   45319542	TO_CACHE:   32074063

L1D UNIQUE REGIONS ACCESSED: 0
L1D REGIONS CONFLICTS: 0
L1D Cross Page Prefetch Requests: 10953351
L1D Same Page Prefetch Requests: 85917150
L1D ROI Sum of L1D PQ occupancy: 784921262
L1D PREFETCHES PUSHED FROM L2C: 0
L1I SPEC fills:          0  NON-SPEC fills:          0
L1I Test counter :          0
L1I Leapfrog:          0
L1I MSHR merge:          0
L1I TOTAL     ACCESS:   34127159  HIT:   34127159  MISS:          0  HIT %:        100  MISS %:          0   MPKI: 0
L1I LOAD      TOTAL       ACCESS:   34127159  HIT:   34127159  MISS:          0  HIT %:        100  MISS %:          0   MPKI: 0
L1I LOAD      NON_SPEC    ACCESS:   34127159  HIT:   34127159  MISS:          0  HIT %:        100  MISS %:          0   MPKI: 0
L1I PREFETCH  REQUESTED:          0  ISSUED:          0  USEFUL:          0  USELESS:          0
L1I USEFUL LOAD PREFETCHES:          0 PREFETCH ISSUED TO LOWER LEVEL:          0  ACCURACY: -nan
L1I TIMELY PREFETCHES:          0 LATE PREFETCHES: 0 DROPPED PREFETCHES: 0
L1I COMMIT LATE PREFETCHES: 0 MISSED OPPORTUNITY: 0 LATE IN PQ: 0 UNCOVERED: 0
L1I COMMIT LATE MSHR PREFETCHES: 0
L1I MPKI TOTAL: 0 MSHR LATE: 0 PQ LATE: 0 COMMIT LATE: 0 MISSED OPPORTUNITY: 0 UNCOVERED: 0
L1I PREFETCHES SAME FILL-ORIGIN LEVEL: 0 DIFFERENT FILL-ORIGIN LEVEL: 0
L1I AVERAGE MISS LATENCY: -nan cycles
L1I AVERAGE MISS LATENCY LOAD: -nan cycles
L1I AVERAGE MISS LATENCY PREFETCH: -nan cycles
L1I AVERAGE MSHR OCCUPANCY: 0
L1I MSHR FULL: 0
L1I RQ	ACCESS:   54131626	FORWARD:          0	MERGED:   20004465	TO_CACHE:   34127161

BTB SPEC fills:          0  NON-SPEC fills:          0
BTB Test counter :          0
BTB Leapfrog:          0
BTB MSHR merge:          0
BTB TOTAL     ACCESS:   41913137  HIT:   41913095  MISS:         42  HIT %:    99.9999  MISS %: 0.000100207   MPKI: 0.00021
BTB BRANCH_DIRECT_JUMP	ACCESS:     294369  HIT:     294357  MISS:         12
BTB BRANCH_INDIRECT	ACCESS:          0  HIT:          0  MISS:          0
BTB BRANCH_CONDITIONAL	ACCESS:   41618724  HIT:   41618709  MISS:         15
BTB BRANCH_DIRECT_CALL	ACCESS:         22  HIT:         15  MISS:          7
BTB BRANCH_INDIRECT_CALL	ACCESS:          0  HIT:          0  MISS:          0
BTB BRANCH_RETURN	ACCESS:         22  HIT:         14  MISS:          8
BTB BRANCH_OTHER ACCESS:          0  HIT:          0  MISS:          0

L2C SPEC fills:          0  NON-SPEC fills:     797944
L2C Test counter :          0
L2C Leapfrog:          0
L2C MSHR merge:     176161
L2C TOTAL     ACCESS:   55431859  HIT:   26458518  MISS:   28973341  HIT %:    47.7316  MISS %:    52.2684   MPKI: 144.867
L2C LOAD      TOTAL       ACCESS:   16730276  HIT:    3509933  MISS:   13220343  HIT %:    20.9795  MISS %:    79.0205   MPKI: 66.1017
L2C LOAD      NON_SPEC    ACCESS:     984569  HIT:     186625  MISS:     797944  HIT %:     18.955  MISS %:     81.045   MPKI: 3.98972
L2C LOAD      SPEC        ACCESS:   15745707  HIT:    3323308  MISS:   12422399  HIT %:    21.1061  MISS %:    78.8939   MPKI: 62.112
L2C RFO       NON_SPEC    ACCESS:      34071  HIT:        452  MISS:      33619  HIT %:    1.32664  MISS %:    98.6734   MPKI: 0.168095
L2C PREFETCH  NON_SPEC    ACCESS:   15647185  HIT:   12441808  MISS:    3205377  HIT %:    79.5147  MISS %:    20.4853   MPKI: 16.0269
L2C WRITEBACK NON_SPEC    ACCESS:     273844  HIT:     273685  MISS:        159  HIT %:    99.9419  MISS %:  0.0580623   MPKI: 0.000795
L2C CLEAN_EVICTION NON_SPEC    ACCESS:   12234554  HIT:     144997  MISS:   12089557  HIT %:    1.18514  MISS %:    98.8149   MPKI: 60.4478
L2C COMMIT LOAD NON_SPEC    ACCESS:     391038  HIT:     129530  MISS:     261508  HIT %:    33.1247  MISS %:    66.8753   MPKI: 1.30754
L2C LOAD TRANSLATION NON_SPEC    ACCESS:    6370907  HIT:    6227041  MISS:     143866  HIT %:    97.7418  MISS %:    2.25817   MPKI: 0.71933
L2C TRANSLATION FROM L1D PREFETCHER NON_SPEC    ACCESS:    3749984  HIT:    3731072  MISS:      18912  HIT %:    99.4957  MISS %:   0.504322   MPKI: 0.09456
L2C PREFETCH  REQUESTED:          0  ISSUED:          0  USEFUL:     330869  USELESS:    2893732
L2C USEFUL LOAD PREFETCHES:     330869 PREFETCH ISSUED TO LOWER LEVEL:    3382628  ACCURACY: 9.78142
L2C TIMELY PREFETCHES:     330869 LATE PREFETCHES: 177251 DROPPED PREFETCHES: 0
L2C COMMIT LATE PREFETCHES: 0 MISSED OPPORTUNITY: 0 LATE IN PQ: 0 UNCOVERED: 0
L2C COMMIT LATE MSHR PREFETCHES: 0
L2C MPKI TOTAL: 66.1017 MSHR LATE: 0.886255 PQ LATE: 0 COMMIT LATE: 0 MISSED OPPORTUNITY: 0 UNCOVERED: 0
L2C PREFETCHES SAME FILL-ORIGIN LEVEL: 3251558 DIFFERENT FILL-ORIGIN LEVEL: 0
L2C AVERAGE MISS LATENCY: 88.2413 cycles
L2C AVERAGE MISS LATENCY LOAD: 120.957 cycles
L2C AVERAGE MISS LATENCY PREFETCH: 284.534 cycles
L2C AVERAGE MSHR OCCUPANCY: 3.46276
L2C MSHR FULL: 0.000450999
L2C RQ	ACCESS:   27276655	FORWARD:          0	MERGED:          0	TO_CACHE:   27276276
L2C WQ	ACCESS:   12508402	FORWARD:        379	MERGED:          4	TO_CACHE:   12508398
L2C PQ	ACCESS:   17881020	FORWARD:          0	MERGED:      11191	TO_CACHE:   17869829

L2C Instructions Evicting Data 0
L2C Translations Evicting Data 161402
L2C Data Evicting Data 4257296
L2C Instructions Evicting Instructions 0
L2C Translations Evicting Instructions 0
L2C Data Evicting Instructions 0
L2C Instructions Evicting Translations 0
L2C Translations Evicting Translations 1376
L2C Data Evicting Translations 41152
L2C Dense regions hint from L2: 0
PSCL5 SPEC fills:          0  NON-SPEC fills:          0
PSCL5 Test counter :          0
PSCL5 Leapfrog:          0
PSCL5 MSHR merge:          0
PSCL5 TOTAL     ACCESS:          0  HIT:          0  MISS:          0  HIT %:       -nan  MISS %:       -nan   MPKI: 0
PSCL5 PREFETCH  REQUESTED:          0  ISSUED:          0  USEFUL:          0  USELESS:          0
PSCL5 USEFUL LOAD PREFETCHES:          0 PREFETCH ISSUED TO LOWER LEVEL:          0  ACCURACY: -nan
PSCL5 TIMELY PREFETCHES:          0 LATE PREFETCHES: 0 DROPPED PREFETCHES: 0
PSCL5 COMMIT LATE PREFETCHES: 0 MISSED OPPORTUNITY: 0 LATE IN PQ: 0 UNCOVERED: 0
PSCL5 COMMIT LATE MSHR PREFETCHES: 0
PSCL5 MPKI TOTAL: 0 MSHR LATE: 0 PQ LATE: 0 COMMIT LATE: 0 MISSED OPPORTUNITY: 0 UNCOVERED: 0
PSCL5 PREFETCHES SAME FILL-ORIGIN LEVEL: 0 DIFFERENT FILL-ORIGIN LEVEL: 0

PSCL4 SPEC fills:          0  NON-SPEC fills:          0
PSCL4 Test counter :          0
PSCL4 Leapfrog:          0
PSCL4 MSHR merge:          0
PSCL4 TOTAL     ACCESS:          0  HIT:          0  MISS:          0  HIT %:       -nan  MISS %:       -nan   MPKI: 0
PSCL4 PREFETCH  REQUESTED:          0  ISSUED:          0  USEFUL:          0  USELESS:          0
PSCL4 USEFUL LOAD PREFETCHES:          0 PREFETCH ISSUED TO LOWER LEVEL:          0  ACCURACY: -nan
PSCL4 TIMELY PREFETCHES:          0 LATE PREFETCHES: 0 DROPPED PREFETCHES: 0
PSCL4 COMMIT LATE PREFETCHES: 0 MISSED OPPORTUNITY: 0 LATE IN PQ: 0 UNCOVERED: 0
PSCL4 COMMIT LATE MSHR PREFETCHES: 0
PSCL4 MPKI TOTAL: 0 MSHR LATE: 0 PQ LATE: 0 COMMIT LATE: 0 MISSED OPPORTUNITY: 0 UNCOVERED: 0
PSCL4 PREFETCHES SAME FILL-ORIGIN LEVEL: 0 DIFFERENT FILL-ORIGIN LEVEL: 0

PSCL3 SPEC fills:          0  NON-SPEC fills:          0
PSCL3 Test counter :          0
PSCL3 Leapfrog:          0
PSCL3 MSHR merge:          0
PSCL3 TOTAL     ACCESS:          0  HIT:          0  MISS:          0  HIT %:       -nan  MISS %:       -nan   MPKI: 0
PSCL3 PREFETCH  REQUESTED:          0  ISSUED:          0  USEFUL:          0  USELESS:          0
PSCL3 USEFUL LOAD PREFETCHES:          0 PREFETCH ISSUED TO LOWER LEVEL:          0  ACCURACY: -nan
PSCL3 TIMELY PREFETCHES:          0 LATE PREFETCHES: 0 DROPPED PREFETCHES: 0
PSCL3 COMMIT LATE PREFETCHES: 0 MISSED OPPORTUNITY: 0 LATE IN PQ: 0 UNCOVERED: 0
PSCL3 COMMIT LATE MSHR PREFETCHES: 0
PSCL3 MPKI TOTAL: 0 MSHR LATE: 0 PQ LATE: 0 COMMIT LATE: 0 MISSED OPPORTUNITY: 0 UNCOVERED: 0
PSCL3 PREFETCHES SAME FILL-ORIGIN LEVEL: 0 DIFFERENT FILL-ORIGIN LEVEL: 0

PSCL2 SPEC fills:          0  NON-SPEC fills:          0
PSCL2 Test counter :          0
PSCL2 Leapfrog:          0
PSCL2 MSHR merge:          0
PSCL2 TOTAL     ACCESS:          0  HIT:          0  MISS:          0  HIT %:       -nan  MISS %:       -nan   MPKI: 0
PSCL2 PREFETCH  REQUESTED:          0  ISSUED:          0  USEFUL:          0  USELESS:          0
PSCL2 USEFUL LOAD PREFETCHES:          0 PREFETCH ISSUED TO LOWER LEVEL:          0  ACCURACY: -nan
PSCL2 TIMELY PREFETCHES:          0 LATE PREFETCHES: 0 DROPPED PREFETCHES: 0
PSCL2 COMMIT LATE PREFETCHES: 0 MISSED OPPORTUNITY: 0 LATE IN PQ: 0 UNCOVERED: 0
PSCL2 COMMIT LATE MSHR PREFETCHES: 0
PSCL2 MPKI TOTAL: 0 MSHR LATE: 0 PQ LATE: 0 COMMIT LATE: 0 MISSED OPPORTUNITY: 0 UNCOVERED: 0
PSCL2 PREFETCHES SAME FILL-ORIGIN LEVEL: 0 DIFFERENT FILL-ORIGIN LEVEL: 0

LLC SPEC fills:          0  NON-SPEC fills:     448808
LLC Test counter :          0
LLC Leapfrog:          0
LLC MSHR merge:          0
LLC TOTAL     ACCESS:   29364621  HIT:   13312751  MISS:   16051870  HIT %:     45.336  MISS %:     54.664   MPKI: 80.2593
LLC LOAD      TOTAL       ACCESS:   13043938  HIT:    6711971  MISS:    6331967  HIT %:    51.4566  MISS %:    48.5434   MPKI: 31.6598
LLC LOAD      NON_SPEC    ACCESS:     789988  HIT:     341180  MISS:     448808  HIT %:     43.188  MISS %:     56.812   MPKI: 2.24404
LLC LOAD      SPEC        ACCESS:   12253950  HIT:    6370791  MISS:    5883159  HIT %:    51.9897  MISS %:    48.0103   MPKI: 29.4158
LLC RFO       NON_SPEC    ACCESS:      33619  HIT:        761  MISS:      32858  HIT %:     2.2636  MISS %:    97.7364   MPKI: 0.16429
LLC PREFETCH  NON_SPEC    ACCESS:    3382615  HIT:     319137  MISS:    3063478  HIT %:    9.43462  MISS %:    90.5654   MPKI: 15.3174
LLC WRITEBACK NON_SPEC    ACCESS:     263631  HIT:     263613  MISS:         18  HIT %:    99.9932  MISS %: 0.00682773   MPKI: 9e-05
LLC CLEAN_EVICTION NON_SPEC    ACCESS:   12217730  HIT:    5688495  MISS:    6529235  HIT %:    46.5593  MISS %:    53.4407   MPKI: 32.6462
LLC COMMIT LOAD NON_SPEC    ACCESS:     260310  HIT:     213708  MISS:      46602  HIT %:    82.0975  MISS %:    17.9025   MPKI: 0.23301
LLC LOAD TRANSLATION NON_SPEC    ACCESS:     143866  HIT:     106387  MISS:      37479  HIT %:    73.9487  MISS %:    26.0513   MPKI: 0.187395
LLC TRANSLATION FROM L1D PREFETCHER NON_SPEC    ACCESS:      18912  HIT:       8679  MISS:      10233  HIT %:    45.8915  MISS %:    54.1085   MPKI: 0.051165
LLC PREFETCH  REQUESTED:          0  ISSUED:          0  USEFUL:     163373  USELESS:    2915726
LLC USEFUL LOAD PREFETCHES:     163373 PREFETCH ISSUED TO LOWER LEVEL:    3063478  ACCURACY: 5.33293
LLC TIMELY PREFETCHES:     163373 LATE PREFETCHES: 0 DROPPED PREFETCHES: 0
LLC COMMIT LATE PREFETCHES: 0 MISSED OPPORTUNITY: 0 LATE IN PQ: 0 UNCOVERED: 0
LLC COMMIT LATE MSHR PREFETCHES: 0
LLC MPKI TOTAL: 31.6598 MSHR LATE: 0 PQ LATE: 0 COMMIT LATE: 0 MISSED OPPORTUNITY: 0 UNCOVERED: 0
LLC PREFETCHES SAME FILL-ORIGIN LEVEL: 0 DIFFERENT FILL-ORIGIN LEVEL: 0
LLC AVERAGE MISS LATENCY: 135.854 cycles
LLC AVERAGE MISS LATENCY LOAD: 200.942 cycles
LLC AVERAGE MISS LATENCY PREFETCH: 286.193 cycles
LLC AVERAGE MSHR OCCUPANCY: 2.68223
LLC MSHR FULL: 0
LLC RQ	ACCESS:   13500997	FORWARD:          0	MERGED:          0	TO_CACHE:   13500645
LLC WQ	ACCESS:   12481361	FORWARD:        365	MERGED:          0	TO_CACHE:   12481361
LLC PQ	ACCESS:    3382628	FORWARD:          0	MERGED:          0	TO_CACHE:    3382615

LLC Dense regions hint to LLC: 0

RAW hits: 2441510
Loads Generated: 49476931
Loads sent to L1D: 47035420
Stores Generated: 7505174
Stores sent to L1D: 7505182
Major fault: 0 Minor fault: 33326
Allocated PAGES: 33326
Total Load insts: 60844812
Total Non-spec loads: 2470402
Percentage of speculative loads: 95.9398

LeapFrogging counter: 11689377
Commit hits: 24835318 miss: 20117156
Commit hit %: 55.2479 miss %: 44.7521
Commits not translated: 0
Loads retired: 16754362
Stores retired: 7505182
Cache fills: 16754370
L1D response latency: 107.253 cycles
Load retirement latency: 279.589 cycles
OOO test counter: 0
Discarded buffer inserts: 24835318 hits: 21808 hit %: 0.0878104
Filter prediction accuracy: 99.882
ALL MISSES SIZE: 61132
LATENCY_FILL: 106.914 16732275
LATENCY_FILL_ROB: 244.603 16681644
test counter pref: 272289580
Max ROB Extended: 19

DRAM Statistics
 CHANNEL 0
 RQ ROW_BUFFER_HIT:    1734622  ROW_BUFFER_MISS:    7782128
 DBUS_CONGESTED:       2949
 WQ ROW_BUFFER_HIT:    2068191  ROW_BUFFER_MISS:    5067241  FULL:      10386

 AVG_CONGESTED_CYCLE: 5
 All warmup complete: 2
Channel 0 Bank busy for read cycles: 0
Channel 0 Bank busy for write cycles: 0
Channel 0
Rank 0
0banks busy for read cycles: 20644573
0banks busy for write cycles: 38821
1banks busy for read cycles: 146415043
1banks busy for write cycles: 6682200
2banks busy for read cycles: 123845383
2banks busy for write cycles: 5964581
3banks busy for read cycles: 90142677
3banks busy for write cycles: 6216733
4banks busy for read cycles: 57078175
4banks busy for write cycles: 6822726
5banks busy for read cycles: 31571402
5banks busy for write cycles: 8511304
6banks busy for read cycles: 17086127
6banks busy for write cycles: 14229344
7banks busy for read cycles: 10726177
7banks busy for write cycles: 44200969
8banks busy for read cycles: 7018329
8banks busy for write cycles: 138596508

CPU 0 Branch Prediction Accuracy: 97.9623% MPKI: 4.27319 Average ROB Occupancy at Mispredict: 138.684
Branch types
NOT_BRANCH: 158057977 79.029%
BRANCH_DIRECT_JUMP: 294369 0.147184%
BRANCH_INDIRECT: 0 0%
BRANCH_CONDITIONAL: 41647482 20.8237%
BRANCH_DIRECT_CALL: 22 1.1e-05%
BRANCH_INDIRECT_CALL: 0 0%
BRANCH_RETURN: 22 1.1e-05%
BRANCH_OTHER: 0 0%

DRAM PAGES: 1048576
Allocated PAGES: 33326
