
*** ChampSim Multicore Out-of-Order Simulator ***

Warmup Instructions: 50000000
Simulation Instructions: 200000000
Number of CPUs: 1
LLC sets: 2048
LLC ways: 16
L0D sets: 16
L0D ways: 2
ROB size: 352
LQ size: 128
SQ size: 72
Secure Berti: ON
Berti: ON
Berti Fill: ON
On commit prefetching: OFF
Hit-based filter: ON
Time-guarding: ON
Free-slotting: ON
Leap-frogging: ON
Train prefetcher on L0D bypass: OFF
No translation penalty for prefetchers: OFF
Prefetch to L0D only: OFF
Prefetch to L1D only: OFF
Clean evictions: ON
Commit loads: ON
Commit write: ON
Fill commit loads to L2C, LLC: ON
DRAM IO FREQUENCY: 6400
ROB SIZE: 352
Off-chip DRAM Size: 4096 MB Channels: 1 Width: 64-bit Data Rate: 6400 MT/s
CPU 0 runs /home/sumon/secure_berti/GhostMinion/../../traces/gap/bfs-10.trace.gz
.gz
BTB has LRU replacement policy
ITLB has LRU replacement policy
DTLB has LRU replacement policy
STLB has LRU replacement policy
L1I has LRU replacement policy
L0D has LRU replacement policy
Berti version on_commit
History Sets: 8
History Ways: 16
BERTI Size: 16
BERTI Stride Size: 16
L1D has LRU replacement policy
L2C has LRU replacement policy
LLC has LRU replacement policy
Heartbeat CPU 0 instructions: 10000002 cycles: 2972907 heartbeat IPC: 3.36371 cumulative IPC: 3.36371 (Simulation time: 0 hr 0 min 28 sec) 
Heartbeat CPU 0 instructions: 20000001 cycles: 6065514 heartbeat IPC: 3.23352 cumulative IPC: 3.29733 (Simulation time: 0 hr 1 min 4 sec) 
Heartbeat CPU 0 instructions: 30000003 cycles: 9148667 heartbeat IPC: 3.24343 cumulative IPC: 3.27917 (Simulation time: 0 hr 1 min 39 sec) 
Heartbeat CPU 0 instructions: 40000001 cycles: 12230929 heartbeat IPC: 3.24437 cumulative IPC: 3.2704 (Simulation time: 0 hr 2 min 14 sec) 
Heartbeat CPU 0 instructions: 50000000 cycles: 15312899 heartbeat IPC: 3.24468 cumulative IPC: 3.26522 (Simulation time: 0 hr 2 min 49 sec) 

Warmup complete CPU 0 instructions: 50000004 cycles: 15312900 (Simulation time: 0 hr 2 min 49 sec) 

Heartbeat CPU 0 instructions: 60000001 cycles: 51655906 heartbeat IPC: 0.275156 cumulative IPC: 0.275156 (Simulation time: 0 hr 3 min 36 sec) 
Heartbeat CPU 0 instructions: 70000003 cycles: 94077915 heartbeat IPC: 0.235727 cumulative IPC: 0.25392 (Simulation time: 0 hr 4 min 25 sec) 
Heartbeat CPU 0 instructions: 80000002 cycles: 123441454 heartbeat IPC: 0.340558 cumulative IPC: 0.277448 (Simulation time: 0 hr 5 min 8 sec) 
Heartbeat CPU 0 instructions: 90000000 cycles: 137600356 heartbeat IPC: 0.706269 cumulative IPC: 0.327098 (Simulation time: 0 hr 5 min 37 sec) 
Heartbeat CPU 0 instructions: 100000000 cycles: 155518619 heartbeat IPC: 0.55809 cumulative IPC: 0.356619 (Simulation time: 0 hr 6 min 15 sec) 
Heartbeat CPU 0 instructions: 110000000 cycles: 182017554 heartbeat IPC: 0.377374 cumulative IPC: 0.359918 (Simulation time: 0 hr 6 min 58 sec) 
Heartbeat CPU 0 instructions: 120000000 cycles: 220061152 heartbeat IPC: 0.262856 cumulative IPC: 0.341883 (Simulation time: 0 hr 7 min 45 sec) 
Heartbeat CPU 0 instructions: 130000002 cycles: 258044205 heartbeat IPC: 0.263275 cumulative IPC: 0.329583 (Simulation time: 0 hr 8 min 32 sec) 
Heartbeat CPU 0 instructions: 140000001 cycles: 299543609 heartbeat IPC: 0.240967 cumulative IPC: 0.316644 (Simulation time: 0 hr 9 min 18 sec) 
Heartbeat CPU 0 instructions: 150000003 cycles: 343347015 heartbeat IPC: 0.228293 cumulative IPC: 0.304846 (Simulation time: 0 hr 10 min 6 sec) 
Heartbeat CPU 0 instructions: 160000001 cycles: 366861888 heartbeat IPC: 0.425263 cumulative IPC: 0.312901 (Simulation time: 0 hr 10 min 45 sec) 
Heartbeat CPU 0 instructions: 170000001 cycles: 380533100 heartbeat IPC: 0.731464 cumulative IPC: 0.328569 (Simulation time: 0 hr 11 min 13 sec) 
Heartbeat CPU 0 instructions: 180000000 cycles: 400189114 heartbeat IPC: 0.50875 cumulative IPC: 0.337771 (Simulation time: 0 hr 11 min 55 sec) 
Heartbeat CPU 0 instructions: 190000000 cycles: 430453577 heartbeat IPC: 0.330421 cumulative IPC: 0.337235 (Simulation time: 0 hr 12 min 42 sec) 
Heartbeat CPU 0 instructions: 200000000 cycles: 468400236 heartbeat IPC: 0.263528 cumulative IPC: 0.331062 (Simulation time: 0 hr 13 min 31 sec) 
Heartbeat CPU 0 instructions: 210000002 cycles: 506228951 heartbeat IPC: 0.264349 cumulative IPC: 0.325921 (Simulation time: 0 hr 14 min 20 sec) 
Heartbeat CPU 0 instructions: 220000000 cycles: 549911927 heartbeat IPC: 0.228922 cumulative IPC: 0.317995 (Simulation time: 0 hr 15 min 12 sec) 
Heartbeat CPU 0 instructions: 230000000 cycles: 588223547 heartbeat IPC: 0.261017 cumulative IPC: 0.314185 (Simulation time: 0 hr 16 min 1 sec) 
Heartbeat CPU 0 instructions: 240000002 cycles: 608499440 heartbeat IPC: 0.493197 cumulative IPC: 0.320304 (Simulation time: 0 hr 16 min 38 sec) 
Heartbeat CPU 0 instructions: 250000001 cycles: 622599571 heartbeat IPC: 0.709213 cumulative IPC: 0.329334 (Simulation time: 0 hr 17 min 10 sec) 
Finished CPU 0 instructions: 200000002 cycles: 607286673 cumulative IPC: 0.329334 (Simulation time: 0 hr 17 min 10 sec) 
 Instruction ID: 250000030

ChampSim completed all CPUs

Region of Interest Statistics

CPU 0 cumulative IPC: 0.329334 instructions: 200000002 cycles: 607286673
ITLB SPEC fills:          0  NON-SPEC fills:          0
ITLB Test counter :          0
ITLB Leapfrog:          0
ITLB MSHR merge:          0
ITLB TOTAL     ACCESS:   33483598  HIT:   33483598  MISS:          0  HIT %:        100  MISS %:          0   MPKI: 0
ITLB LOAD TRANSLATION NON_SPEC    ACCESS:   33483598  HIT:   33483598  MISS:          0  HIT %:        100  MISS %:          0   MPKI: 0
ITLB PREFETCH  REQUESTED:          0  ISSUED:          0  USEFUL:          0  USELESS:          0
ITLB USEFUL LOAD PREFETCHES:          0 PREFETCH ISSUED TO LOWER LEVEL:          0  ACCURACY: -nan
ITLB TIMELY PREFETCHES:          0 LATE PREFETCHES: 0 DROPPED PREFETCHES: 0
ITLB COMMIT LATE PREFETCHES: 0 MISSED OPPORTUNITY: 0 LATE IN PQ: 0 UNCOVERED: 0
ITLB COMMIT LATE MSHR PREFETCHES: 0
ITLB MPKI TOTAL: 0 MSHR LATE: 0 PQ LATE: 0 COMMIT LATE: 0 MISSED OPPORTUNITY: 0 UNCOVERED: 0
ITLB PREFETCHES SAME FILL-ORIGIN LEVEL: 0 DIFFERENT FILL-ORIGIN LEVEL: 0
ITLB AVERAGE MISS LATENCY: -nan cycles
ITLB AVERAGE MISS LATENCY LOAD: -nan cycles
ITLB AVERAGE MISS LATENCY PREFETCH: -nan cycles
ITLB AVERAGE MSHR OCCUPANCY: 0
ITLB MSHR FULL: 0
ITLB RQ	ACCESS:   42010982	FORWARD:          0	MERGED:    8527385	TO_CACHE:   33483597

DTLB SPEC fills:          0  NON-SPEC fills:          0
DTLB Test counter :          0
DTLB Leapfrog:          0
DTLB MSHR merge:          0
DTLB TOTAL     ACCESS:   43852511  HIT:   43662371  MISS:     190140  HIT %:    99.5664  MISS %:    0.43359   MPKI: 0.9507
DTLB LOAD TRANSLATION NON_SPEC    ACCESS:   43852511  HIT:   43662371  MISS:     190140  HIT %:    99.5664  MISS %:    0.43359   MPKI: 0.9507
DTLB PREFETCH  REQUESTED:          0  ISSUED:          0  USEFUL:          0  USELESS:          0
DTLB USEFUL LOAD PREFETCHES:          0 PREFETCH ISSUED TO LOWER LEVEL:          0  ACCURACY: -nan
DTLB TIMELY PREFETCHES:          0 LATE PREFETCHES: 0 DROPPED PREFETCHES: 0
DTLB COMMIT LATE PREFETCHES: 0 MISSED OPPORTUNITY: 0 LATE IN PQ: 0 UNCOVERED: 0
DTLB COMMIT LATE MSHR PREFETCHES: 0
DTLB MPKI TOTAL: 0 MSHR LATE: 0 PQ LATE: 0 COMMIT LATE: 0 MISSED OPPORTUNITY: 0 UNCOVERED: 0
DTLB PREFETCHES SAME FILL-ORIGIN LEVEL: 0 DIFFERENT FILL-ORIGIN LEVEL: 0
DTLB AVERAGE MISS LATENCY: 82.4692 cycles
DTLB AVERAGE MISS LATENCY LOAD: -nan cycles
DTLB AVERAGE MISS LATENCY PREFETCH: -nan cycles
DTLB AVERAGE MSHR OCCUPANCY: 0.00803443
DTLB MSHR FULL: 0
DTLB RQ	ACCESS:   46760219	FORWARD:          0	MERGED:    2896360	TO_CACHE:   43863859

STLB SPEC fills:          0  NON-SPEC fills:          0
STLB Test counter :          0
STLB Leapfrog:          0
STLB MSHR merge:          0
STLB TOTAL     ACCESS:   21379081  HIT:   21211180  MISS:     167901  HIT %:    99.2146  MISS %:   0.785352   MPKI: 0.839505
STLB LOAD TRANSLATION NON_SPEC    ACCESS:     190140  HIT:      88164  MISS:     101976  HIT %:    46.3679  MISS %:    53.6321   MPKI: 0.50988
STLB TRANSLATION FROM L1D PREFETCHER NON_SPEC    ACCESS:   21188941  HIT:   21123016  MISS:      65925  HIT %:    99.6889  MISS %:   0.311129   MPKI: 0.329625
STLB PREFETCH  REQUESTED:          0  ISSUED:          0  USEFUL:      65467  USELESS:        459
STLB USEFUL LOAD PREFETCHES:      65467 PREFETCH ISSUED TO LOWER LEVEL:          0  ACCURACY: inf
STLB TIMELY PREFETCHES:      65467 LATE PREFETCHES: 1286 DROPPED PREFETCHES: 24974
STLB COMMIT LATE PREFETCHES: 0 MISSED OPPORTUNITY: 0 LATE IN PQ: 0 UNCOVERED: 0
STLB COMMIT LATE MSHR PREFETCHES: 0
STLB MPKI TOTAL: 0 MSHR LATE: 0.00643 PQ LATE: 0 COMMIT LATE: 0 MISSED OPPORTUNITY: 0 UNCOVERED: 0
STLB PREFETCHES SAME FILL-ORIGIN LEVEL: 0 DIFFERENT FILL-ORIGIN LEVEL: 0
STLB AVERAGE MISS LATENCY: 118.1 cycles
STLB AVERAGE MISS LATENCY LOAD: -nan cycles
STLB AVERAGE MISS LATENCY PREFETCH: -nan cycles
STLB AVERAGE MSHR OCCUPANCY: 0.00716634
STLB MSHR FULL: 0
STLB RQ	ACCESS:   79224626	FORWARD:          0	MERGED:   57814106	TO_CACHE:   21410520

STLB Hit, L1D data hit: 0
STLB Hit, L2C data hit: 0
STLB Hit, LLC data hit: 0
STLB Hit, LLC data miss: 0
STLB STLB hints to L2: 0
L0D SPEC fills:   21294869  NON-SPEC fills:          0
L0D TimeGuard Request with older TS:      33623 Restricted eviction:       3737 read:        153
L0D Test counter :          0
L0D Leapfrog:          0
L0D MSHR merge:     255303
L0D TOTAL     ACCESS:   40962342  HIT:    3380598  MISS:   37581744  HIT %:    8.25294  MISS %:    91.7471   MPKI: 187.909
L0D LOAD      TOTAL       ACCESS:   40962342  HIT:    3380598  MISS:   37581744  HIT %:    8.25294  MISS %:    91.7471   MPKI: 187.909
L0D LOAD      NON_SPEC    ACCESS:   16283363  HIT:        225  MISS:   16283138  HIT %: 0.00138178  MISS %:    99.9986   MPKI: 81.4157
L0D LOAD      SPEC        ACCESS:   24678979  HIT:    3380373  MISS:   21298606  HIT %:    13.6974  MISS %:    86.3026   MPKI: 106.493
L0D PREFETCH  REQUESTED:          0  ISSUED:          0  USEFUL:          0  USELESS:          0
L0D USEFUL LOAD PREFETCHES:          0 PREFETCH ISSUED TO LOWER LEVEL:          0  ACCURACY: -nan
L0D TIMELY PREFETCHES:          0 LATE PREFETCHES: 0 DROPPED PREFETCHES: 0
L0D COMMIT LATE PREFETCHES: 0 MISSED OPPORTUNITY: 0 LATE IN PQ: 0 UNCOVERED: 0
L0D COMMIT LATE MSHR PREFETCHES: 0
L0D MPKI TOTAL: 189.185 MSHR LATE: 0 PQ LATE: 0 COMMIT LATE: 0 MISSED OPPORTUNITY: 0 UNCOVERED: 0
L0D PREFETCHES SAME FILL-ORIGIN LEVEL: 0 DIFFERENT FILL-ORIGIN LEVEL: 0
L0D AVERAGE MISS LATENCY: 9.14158 cycles
L0D AVERAGE MISS LATENCY LOAD: 9.14158 cycles
L0D AVERAGE MISS LATENCY PREFETCH: -nan cycles
L0D AVERAGE MSHR OCCUPANCY: 0.433834
L0D MSHR FULL: 0.000788633
L0D RQ	ACCESS:   49165978	FORWARD:          0	MERGED:    7948334	TO_CACHE:   41217644
L0D WQ	ACCESS:    5542575	FORWARD:          0	MERGED:          0	TO_CACHE:    5542575

L1D SPEC fills:          0  NON-SPEC fills:    1891715
L1D Test counter :          0
L1D Leapfrog:          0
L1D MSHR merge:       3855
L1D TOTAL     ACCESS:   85919754  HIT:   79411174  MISS:    6508580  HIT %:    92.4248  MISS %:    7.57518   MPKI: 32.5429
L1D LOAD      TOTAL       ACCESS:   37581685  HIT:   34529400  MISS:    3052285  HIT %:    91.8783  MISS %:    8.12174   MPKI: 15.2614
L1D LOAD      NON_SPEC    ACCESS:   16283129  HIT:   14391414  MISS:    1891715  HIT %:    88.3824  MISS %:    11.6176   MPKI: 9.45857
L1D LOAD      SPEC        ACCESS:   21298556  HIT:   20137986  MISS:    1160570  HIT %:    94.5509  MISS %:    5.44905   MPKI: 5.80285
L1D RFO       NON_SPEC    ACCESS:    4409313  HIT:    4253908  MISS:     155405  HIT %:    96.4755  MISS %:    3.52447   MPKI: 0.777025
L1D PREFETCH  NON_SPEC    ACCESS:   42365815  HIT:   40224173  MISS:    2141642  HIT %:    94.9449  MISS %:    5.05512   MPKI: 10.7082
L1D COMMIT LOAD NON_SPEC    ACCESS:     381663  HIT:     379421  MISS:       2242  HIT %:    99.4126  MISS %:   0.587429   MPKI: 0.01121
L1D COMMIT WRITE NON_SPEC    ACCESS:    1181278  HIT:      24272  MISS:    1157006  HIT %:    2.05472  MISS %:    97.9453   MPKI: 5.78503
L1D PREFETCH  REQUESTED:  115148301  ISSUED:  112402705  USEFUL:    2084277  USELESS:      57366
L1D USEFUL LOAD PREFETCHES:    2084277 PREFETCH ISSUED TO LOWER LEVEL:   37500208  ACCURACY: 5.55804
L1D TIMELY PREFETCHES:    2084277 LATE PREFETCHES: 3901 DROPPED PREFETCHES: 49254
L1D COMMIT LATE PREFETCHES: 0 MISSED OPPORTUNITY: 0 LATE IN PQ: 0 UNCOVERED: 0
L1D COMMIT LATE MSHR PREFETCHES: 0
L1D MPKI TOTAL: 15.2617 MSHR LATE: 0.019505 PQ LATE: 0 COMMIT LATE: 0 MISSED OPPORTUNITY: 0 UNCOVERED: 0
L1D PREFETCHES SAME FILL-ORIGIN LEVEL: 2145547 DIFFERENT FILL-ORIGIN LEVEL: 35354661
L1D AVERAGE MISS LATENCY: 50.1948 cycles
L1D AVERAGE MISS LATENCY LOAD: 50.0873 cycles
L1D AVERAGE MISS LATENCY PREFETCH: 68.0717 cycles
L1D AVERAGE MSHR OCCUPANCY: 0.354465
L1D MSHR FULL: 0.000826177
L1D RQ	ACCESS:   38138142	FORWARD:          0	MERGED:     174250	TO_CACHE:   37963520
L1D WQ	ACCESS:    6711550	FORWARD:        372	MERGED:      30863	TO_CACHE:    6680687
L1D PQ	ACCESS:  112402705	FORWARD:          0	MERGED:   33368219	TO_CACHE:   79034486

L1D UNIQUE REGIONS ACCESSED: 0
L1D REGIONS CONFLICTS: 0
L1D Cross Page Prefetch Requests: 7711561
L1D Same Page Prefetch Requests: 121326749
L1D ROI Sum of L1D PQ occupancy: 1240827835
L1D PREFETCHES PUSHED FROM L2C: 0
L1I SPEC fills:          0  NON-SPEC fills:          0
L1I Test counter :          0
L1I Leapfrog:          0
L1I MSHR merge:          1
L1I TOTAL     ACCESS:   42010981  HIT:   42010966  MISS:         15  HIT %:        100  MISS %: 3.5705e-05   MPKI: 7.5e-05
L1I LOAD      TOTAL       ACCESS:   42010981  HIT:   42010966  MISS:         15  HIT %:        100  MISS %: 3.5705e-05   MPKI: 7.5e-05
L1I LOAD      NON_SPEC    ACCESS:   42010981  HIT:   42010966  MISS:         15  HIT %:        100  MISS %: 3.5705e-05   MPKI: 7.5e-05
L1I PREFETCH  REQUESTED:          0  ISSUED:          0  USEFUL:          0  USELESS:          0
L1I USEFUL LOAD PREFETCHES:          0 PREFETCH ISSUED TO LOWER LEVEL:          0  ACCURACY: -nan
L1I TIMELY PREFETCHES:          0 LATE PREFETCHES: 0 DROPPED PREFETCHES: 0
L1I COMMIT LATE PREFETCHES: 0 MISSED OPPORTUNITY: 0 LATE IN PQ: 0 UNCOVERED: 0
L1I COMMIT LATE MSHR PREFETCHES: 0
L1I MPKI TOTAL: 8e-05 MSHR LATE: 0 PQ LATE: 0 COMMIT LATE: 0 MISSED OPPORTUNITY: 0 UNCOVERED: 0
L1I PREFETCHES SAME FILL-ORIGIN LEVEL: 0 DIFFERENT FILL-ORIGIN LEVEL: 0
L1I AVERAGE MISS LATENCY: 204.733 cycles
L1I AVERAGE MISS LATENCY LOAD: 204.733 cycles
L1I AVERAGE MISS LATENCY PREFETCH: -nan cycles
L1I AVERAGE MSHR OCCUPANCY: 1.90426e-07
L1I MSHR FULL: 0
L1I RQ	ACCESS:   65236005	FORWARD:          0	MERGED:   23225023	TO_CACHE:   42010982

BTB SPEC fills:          0  NON-SPEC fills:          0
BTB Test counter :          0
BTB Leapfrog:          0
BTB MSHR merge:          0
BTB TOTAL     ACCESS:   42321273  HIT:   42320954  MISS:        319  HIT %:    99.9992  MISS %: 0.000753758   MPKI: 0.001595
BTB BRANCH_DIRECT_JUMP	ACCESS:       5431  HIT:       5387  MISS:         44
BTB BRANCH_INDIRECT	ACCESS:          2  HIT:          1  MISS:          1
BTB BRANCH_CONDITIONAL	ACCESS:   42315328  HIT:   42315225  MISS:        103
BTB BRANCH_DIRECT_CALL	ACCESS:        250  HIT:        208  MISS:         42
BTB BRANCH_INDIRECT_CALL	ACCESS:          6  HIT:          3  MISS:          3
BTB BRANCH_RETURN	ACCESS:        256  HIT:        130  MISS:        126
BTB BRANCH_OTHER ACCESS:          0  HIT:          0  MISS:          0

L2C SPEC fills:          0  NON-SPEC fills:     611490
L2C Test counter :          0
L2C Leapfrog:          0
L2C MSHR merge:      82225
L2C TOTAL     ACCESS:   37566787  HIT:   32519894  MISS:    5046893  HIT %:    86.5655  MISS %:    13.4345   MPKI: 25.2345
L2C LOAD      TOTAL       ACCESS:    3048477  HIT:    2067230  MISS:     981247  HIT %:    67.8119  MISS %:    32.1881   MPKI: 4.90623
L2C LOAD      NON_SPEC    ACCESS:    1888888  HIT:    1277383  MISS:     611505  HIT %:    67.6262  MISS %:    32.3738   MPKI: 3.05752
L2C LOAD      SPEC        ACCESS:    1159589  HIT:     789847  MISS:     369742  HIT %:    68.1144  MISS %:    31.8856   MPKI: 1.84871
L2C RFO       NON_SPEC    ACCESS:     155401  HIT:       8597  MISS:     146804  HIT %:    5.53214  MISS %:    94.4679   MPKI: 0.73402
L2C PREFETCH  NON_SPEC    ACCESS:   32519536  HIT:   28997539  MISS:    3521997  HIT %:    89.1696  MISS %:    10.8304   MPKI: 17.61
L2C WRITEBACK NON_SPEC    ACCESS:     497510  HIT:     497500  MISS:         10  HIT %:     99.998  MISS %: 0.00201001   MPKI: 5e-05
L2C CLEAN_EVICTION NON_SPEC    ACCESS:     378643  HIT:      15321  MISS:     363322  HIT %:    4.04629  MISS %:    95.9537   MPKI: 1.81661
L2C COMMIT LOAD NON_SPEC    ACCESS:       2138  HIT:       1529  MISS:        609  HIT %:    71.5154  MISS %:    28.4846   MPKI: 0.003045
L2C LOAD TRANSLATION NON_SPEC    ACCESS:     504173  HIT:     480718  MISS:      23455  HIT %:    95.3478  MISS %:    4.65217   MPKI: 0.117275
L2C TRANSLATION FROM L1D PREFETCHER NON_SPEC    ACCESS:     460909  HIT:     451460  MISS:       9449  HIT %:    97.9499  MISS %:    2.05008   MPKI: 0.047245
L2C PREFETCH  REQUESTED:          0  ISSUED:          0  USEFUL:     421638  USELESS:    3105573
L2C USEFUL LOAD PREFETCHES:     421638 PREFETCH ISSUED TO LOWER LEVEL:    3604252  ACCURACY: 11.6983
L2C TIMELY PREFETCHES:     421638 LATE PREFETCHES: 82254 DROPPED PREFETCHES: 0
L2C COMMIT LATE PREFETCHES: 0 MISSED OPPORTUNITY: 0 LATE IN PQ: 0 UNCOVERED: 0
L2C COMMIT LATE MSHR PREFETCHES: 0
L2C MPKI TOTAL: 4.90623 MSHR LATE: 0.41127 PQ LATE: 0 COMMIT LATE: 0 MISSED OPPORTUNITY: 0 UNCOVERED: 0
L2C PREFETCHES SAME FILL-ORIGIN LEVEL: 2946367 DIFFERENT FILL-ORIGIN LEVEL: 0
L2C AVERAGE MISS LATENCY: 140.6 cycles
L2C AVERAGE MISS LATENCY LOAD: 114.345 cycles
L2C AVERAGE MISS LATENCY PREFETCH: 160.451 cycles
L2C AVERAGE MSHR OCCUPANCY: 1.0793
L2C MSHR FULL: 0
L2C RQ	ACCESS:    4171124	FORWARD:          0	MERGED:          0	TO_CACHE:    4171098
L2C WQ	ACCESS:     876153	FORWARD:         26	MERGED:          0	TO_CACHE:     876153
L2C PQ	ACCESS:   37500208	FORWARD:          0	MERGED:        401	TO_CACHE:   37499807

L2C Instructions Evicting Data 14
L2C Translations Evicting Data 32420
L2C Data Evicting Data 4251894
L2C Instructions Evicting Instructions 0
L2C Translations Evicting Instructions 1
L2C Data Evicting Instructions 11
L2C Instructions Evicting Translations 1
L2C Translations Evicting Translations 483
L2C Data Evicting Translations 28995
L2C Dense regions hint from L2: 0
PSCL5 SPEC fills:          0  NON-SPEC fills:          0
PSCL5 Test counter :          0
PSCL5 Leapfrog:          0
PSCL5 MSHR merge:          0
PSCL5 TOTAL     ACCESS:          0  HIT:          0  MISS:          0  HIT %:       -nan  MISS %:       -nan   MPKI: 0
PSCL5 PREFETCH  REQUESTED:          0  ISSUED:          0  USEFUL:          0  USELESS:          0
PSCL5 USEFUL LOAD PREFETCHES:          0 PREFETCH ISSUED TO LOWER LEVEL:          0  ACCURACY: -nan
PSCL5 TIMELY PREFETCHES:          0 LATE PREFETCHES: 0 DROPPED PREFETCHES: 0
PSCL5 COMMIT LATE PREFETCHES: 0 MISSED OPPORTUNITY: 0 LATE IN PQ: 0 UNCOVERED: 0
PSCL5 COMMIT LATE MSHR PREFETCHES: 0
PSCL5 MPKI TOTAL: 0 MSHR LATE: 0 PQ LATE: 0 COMMIT LATE: 0 MISSED OPPORTUNITY: 0 UNCOVERED: 0
PSCL5 PREFETCHES SAME FILL-ORIGIN LEVEL: 0 DIFFERENT FILL-ORIGIN LEVEL: 0

PSCL4 SPEC fills:          0  NON-SPEC fills:          0
PSCL4 Test counter :          0
PSCL4 Leapfrog:          0
PSCL4 MSHR merge:          0
PSCL4 TOTAL     ACCESS:          0  HIT:          0  MISS:          0  HIT %:       -nan  MISS %:       -nan   MPKI: 0
PSCL4 PREFETCH  REQUESTED:          0  ISSUED:          0  USEFUL:          0  USELESS:          0
PSCL4 USEFUL LOAD PREFETCHES:          0 PREFETCH ISSUED TO LOWER LEVEL:          0  ACCURACY: -nan
PSCL4 TIMELY PREFETCHES:          0 LATE PREFETCHES: 0 DROPPED PREFETCHES: 0
PSCL4 COMMIT LATE PREFETCHES: 0 MISSED OPPORTUNITY: 0 LATE IN PQ: 0 UNCOVERED: 0
PSCL4 COMMIT LATE MSHR PREFETCHES: 0
PSCL4 MPKI TOTAL: 0 MSHR LATE: 0 PQ LATE: 0 COMMIT LATE: 0 MISSED OPPORTUNITY: 0 UNCOVERED: 0
PSCL4 PREFETCHES SAME FILL-ORIGIN LEVEL: 0 DIFFERENT FILL-ORIGIN LEVEL: 0

PSCL3 SPEC fills:          0  NON-SPEC fills:          0
PSCL3 Test counter :          0
PSCL3 Leapfrog:          0
PSCL3 MSHR merge:          0
PSCL3 TOTAL     ACCESS:          0  HIT:          0  MISS:          0  HIT %:       -nan  MISS %:       -nan   MPKI: 0
PSCL3 PREFETCH  REQUESTED:          0  ISSUED:          0  USEFUL:          0  USELESS:          0
PSCL3 USEFUL LOAD PREFETCHES:          0 PREFETCH ISSUED TO LOWER LEVEL:          0  ACCURACY: -nan
PSCL3 TIMELY PREFETCHES:          0 LATE PREFETCHES: 0 DROPPED PREFETCHES: 0
PSCL3 COMMIT LATE PREFETCHES: 0 MISSED OPPORTUNITY: 0 LATE IN PQ: 0 UNCOVERED: 0
PSCL3 COMMIT LATE MSHR PREFETCHES: 0
PSCL3 MPKI TOTAL: 0 MSHR LATE: 0 PQ LATE: 0 COMMIT LATE: 0 MISSED OPPORTUNITY: 0 UNCOVERED: 0
PSCL3 PREFETCHES SAME FILL-ORIGIN LEVEL: 0 DIFFERENT FILL-ORIGIN LEVEL: 0

PSCL2 SPEC fills:          0  NON-SPEC fills:          0
PSCL2 Test counter :          0
PSCL2 Leapfrog:          0
PSCL2 MSHR merge:          0
PSCL2 TOTAL     ACCESS:          0  HIT:          0  MISS:          0  HIT %:       -nan  MISS %:       -nan   MPKI: 0
PSCL2 PREFETCH  REQUESTED:          0  ISSUED:          0  USEFUL:          0  USELESS:          0
PSCL2 USEFUL LOAD PREFETCHES:          0 PREFETCH ISSUED TO LOWER LEVEL:          0  ACCURACY: -nan
PSCL2 TIMELY PREFETCHES:          0 LATE PREFETCHES: 0 DROPPED PREFETCHES: 0
PSCL2 COMMIT LATE PREFETCHES: 0 MISSED OPPORTUNITY: 0 LATE IN PQ: 0 UNCOVERED: 0
PSCL2 COMMIT LATE MSHR PREFETCHES: 0
PSCL2 MPKI TOTAL: 0 MSHR LATE: 0 PQ LATE: 0 COMMIT LATE: 0 MISSED OPPORTUNITY: 0 UNCOVERED: 0
PSCL2 PREFETCHES SAME FILL-ORIGIN LEVEL: 0 DIFFERENT FILL-ORIGIN LEVEL: 0

LLC SPEC fills:          0  NON-SPEC fills:     360740
LLC Test counter :          0
LLC Leapfrog:          0
LLC MSHR merge:          0
LLC TOTAL     ACCESS:    5558978  HIT:     958396  MISS:    4600582  HIT %:    17.2405  MISS %:    82.7595   MPKI: 23.0029
LLC LOAD      TOTAL       ACCESS:     899016  HIT:     310910  MISS:     588106  HIT %:    34.5834  MISS %:    65.4166   MPKI: 2.94053
LLC LOAD      NON_SPEC    ACCESS:     547765  HIT:     187010  MISS:     360755  HIT %:    34.1406  MISS %:    65.8594   MPKI: 1.80377
LLC LOAD      SPEC        ACCESS:     351251  HIT:     123900  MISS:     227351  HIT %:    35.2739  MISS %:    64.7261   MPKI: 1.13675
LLC RFO       NON_SPEC    ACCESS:     146799  HIT:       5317  MISS:     141482  HIT %:    3.62196  MISS %:     96.378   MPKI: 0.70741
LLC PREFETCH  NON_SPEC    ACCESS:    3604251  HIT:       9310  MISS:    3594941  HIT %:   0.258306  MISS %:    99.7417   MPKI: 17.9747
LLC WRITEBACK NON_SPEC    ACCESS:     494322  HIT:     492730  MISS:       1592  HIT %:    99.6779  MISS %:   0.322057   MPKI: 0.00796
LLC CLEAN_EVICTION NON_SPEC    ACCESS:     381101  HIT:     138961  MISS:     242140  HIT %:     36.463  MISS %:     63.537   MPKI: 1.2107
LLC COMMIT LOAD NON_SPEC    ACCESS:        585  HIT:        205  MISS:        380  HIT %:    35.0427  MISS %:    64.9573   MPKI: 0.0019
LLC LOAD TRANSLATION NON_SPEC    ACCESS:      23455  HIT:        658  MISS:      22797  HIT %:    2.80537  MISS %:    97.1946   MPKI: 0.113985
LLC TRANSLATION FROM L1D PREFETCHER NON_SPEC    ACCESS:       9449  HIT:        305  MISS:       9144  HIT %:    3.22785  MISS %:    96.7721   MPKI: 0.04572
LLC PREFETCH  REQUESTED:          0  ISSUED:          0  USEFUL:       3041  USELESS:    3595654
LLC USEFUL LOAD PREFETCHES:       3041 PREFETCH ISSUED TO LOWER LEVEL:    3594942  ACCURACY: 0.0845911
LLC TIMELY PREFETCHES:       3041 LATE PREFETCHES: 0 DROPPED PREFETCHES: 0
LLC COMMIT LATE PREFETCHES: 0 MISSED OPPORTUNITY: 0 LATE IN PQ: 0 UNCOVERED: 0
LLC COMMIT LATE MSHR PREFETCHES: 0
LLC MPKI TOTAL: 2.94053 MSHR LATE: 0 PQ LATE: 0 COMMIT LATE: 0 MISSED OPPORTUNITY: 0 UNCOVERED: 0
LLC PREFETCHES SAME FILL-ORIGIN LEVEL: 0 DIFFERENT FILL-ORIGIN LEVEL: 0
LLC AVERAGE MISS LATENCY: 126.109 cycles
LLC AVERAGE MISS LATENCY LOAD: 139.143 cycles
LLC AVERAGE MISS LATENCY PREFETCH: 131.149 cycles
LLC AVERAGE MSHR OCCUPANCY: 0.877515
LLC MSHR FULL: 0
LLC RQ	ACCESS:    1079310	FORWARD:          0	MERGED:          0	TO_CACHE:    1079304
LLC WQ	ACCESS:     875423	FORWARD:          6	MERGED:          0	TO_CACHE:     875423
LLC PQ	ACCESS:    3604252	FORWARD:          0	MERGED:          0	TO_CACHE:    3604252

LLC Dense regions hint to LLC: 0

RAW hits: 15524
Loads Generated: 49181502
Loads sent to L1D: 49165978
Stores Generated: 5542573
Stores sent to L1D: 5542575
Major fault: 0 Minor fault: 27212
Allocated PAGES: 27212
Total Load insts: 61472999
Total Non-spec loads: 16502126
Percentage of speculative loads: 73.1555

LeapFrogging counter: 12433
Commit hits: 21283026 miss: 11599555
Commit hit %: 64.7243 miss %: 35.2757
Commits not translated: 0
Loads retired: 3052285
Stores retired: 5542575
Cache fills: 3052285
L1D response latency: 50.0873 cycles
Load retirement latency: 68.9613 cycles
OOO test counter: 0
Discarded buffer inserts: 21283026 hits: 16173 hit %: 0.0759901
Filter prediction accuracy: 99.9897
ALL MISSES SIZE: 1504
LATENCY_FILL: 49.995 3050022
LATENCY_FILL_ROB: 57.3308 3049629
test counter pref: 47193176
Max ROB Extended: 17

DRAM Statistics
 CHANNEL 0
 RQ ROW_BUFFER_HIT:    1850333  ROW_BUFFER_MISS:    2506491
 DBUS_CONGESTED:       9736
 WQ ROW_BUFFER_HIT:     294437  ROW_BUFFER_MISS:     477488  FULL:          0

 AVG_CONGESTED_CYCLE: 4
 All warmup complete: 2
Channel 0 Bank busy for read cycles: 0
Channel 0 Bank busy for write cycles: 0
Channel 0
Rank 0
0banks busy for read cycles: 186422370
0banks busy for write cycles: 230112
1banks busy for read cycles: 227629765
1banks busy for write cycles: 40866375
2banks busy for read cycles: 79306053
2banks busy for write cycles: 17737450
3banks busy for read cycles: 15753159
3banks busy for write cycles: 8725045
4banks busy for read cycles: 4273311
4banks busy for write cycles: 5106732
5banks busy for read cycles: 1643720
5banks busy for write cycles: 3488256
6banks busy for read cycles: 781422
6banks busy for write cycles: 2736696
7banks busy for read cycles: 405471
7banks busy for write cycles: 2661651
8banks busy for read cycles: 283290
8banks busy for write cycles: 9235796

CPU 0 Branch Prediction Accuracy: 85.7266% MPKI: 31.0332 Average ROB Occupancy at Mispredict: 6.71283
Branch types
NOT_BRANCH: 156515655 78.2578%
BRANCH_DIRECT_JUMP: 5431 0.0027155%
BRANCH_INDIRECT: 2 1e-06%
BRANCH_CONDITIONAL: 43478066 21.739%
BRANCH_DIRECT_CALL: 250 0.000125%
BRANCH_INDIRECT_CALL: 6 3e-06%
BRANCH_RETURN: 256 0.000128%
BRANCH_OTHER: 0 0%

DRAM PAGES: 1048576
Allocated PAGES: 27212
