
*** ChampSim Multicore Out-of-Order Simulator ***

Warmup Instructions: 50000000
Simulation Instructions: 200000000
Number of CPUs: 1
LLC sets: 2048
LLC ways: 16
L0D sets: 16
L0D ways: 2
ROB size: 352
LQ size: 128
SQ size: 72
Secure Berti: ON
Berti: ON
Berti Fill: ON
On commit prefetching: OFF
Hit-based filter: ON
Time-guarding: ON
Free-slotting: ON
Leap-frogging: ON
Train prefetcher on L0D bypass: OFF
No translation penalty for prefetchers: OFF
Prefetch to L0D only: OFF
Prefetch to L1D only: OFF
Clean evictions: ON
Commit loads: ON
Commit write: ON
Fill commit loads to L2C, LLC: ON
DRAM IO FREQUENCY: 6400
ROB SIZE: 352
Off-chip DRAM Size: 4096 MB Channels: 1 Width: 64-bit Data Rate: 6400 MT/s
CPU 0 runs /home/sumon/secure_berti/GhostMinion/../../traces/gap/cc-6.trace.gz
.gz
BTB has LRU replacement policy
ITLB has LRU replacement policy
DTLB has LRU replacement policy
STLB has LRU replacement policy
L1I has LRU replacement policy
L0D has LRU replacement policy
Berti version on_commit
History Sets: 8
History Ways: 16
BERTI Size: 16
BERTI Stride Size: 16
L1D has LRU replacement policy
L2C has LRU replacement policy
LLC has LRU replacement policy
Heartbeat CPU 0 instructions: 10000000 cycles: 3256157 heartbeat IPC: 3.07111 cumulative IPC: 3.07111 (Simulation time: 0 hr 0 min 39 sec) 
Heartbeat CPU 0 instructions: 20000002 cycles: 6525437 heartbeat IPC: 3.05878 cumulative IPC: 3.06493 (Simulation time: 0 hr 1 min 21 sec) 
Heartbeat CPU 0 instructions: 30000001 cycles: 9806241 heartbeat IPC: 3.04803 cumulative IPC: 3.05928 (Simulation time: 0 hr 2 min 3 sec) 
Heartbeat CPU 0 instructions: 40000000 cycles: 13089776 heartbeat IPC: 3.0455 cumulative IPC: 3.05582 (Simulation time: 0 hr 2 min 44 sec) 
Heartbeat CPU 0 instructions: 50000003 cycles: 16377855 heartbeat IPC: 3.04129 cumulative IPC: 3.0529 (Simulation time: 0 hr 3 min 28 sec) 

Warmup complete CPU 0 instructions: 50000003 cycles: 16377855 (Simulation time: 0 hr 3 min 28 sec) 

Heartbeat CPU 0 instructions: 60000002 cycles: 63920284 heartbeat IPC: 0.210338 cumulative IPC: 0.210338 (Simulation time: 0 hr 4 min 26 sec) 
Heartbeat CPU 0 instructions: 70000002 cycles: 113229375 heartbeat IPC: 0.202802 cumulative IPC: 0.206502 (Simulation time: 0 hr 5 min 24 sec) 
Heartbeat CPU 0 instructions: 80000000 cycles: 163332502 heartbeat IPC: 0.199588 cumulative IPC: 0.204145 (Simulation time: 0 hr 6 min 22 sec) 
Heartbeat CPU 0 instructions: 90000002 cycles: 211479448 heartbeat IPC: 0.207698 cumulative IPC: 0.205021 (Simulation time: 0 hr 7 min 21 sec) 
Heartbeat CPU 0 instructions: 100000000 cycles: 259077370 heartbeat IPC: 0.210093 cumulative IPC: 0.206016 (Simulation time: 0 hr 8 min 23 sec) 
Heartbeat CPU 0 instructions: 110000000 cycles: 306074427 heartbeat IPC: 0.212779 cumulative IPC: 0.207113 (Simulation time: 0 hr 9 min 24 sec) 
Heartbeat CPU 0 instructions: 120000003 cycles: 355260518 heartbeat IPC: 0.20331 cumulative IPC: 0.206561 (Simulation time: 0 hr 10 min 26 sec) 
Heartbeat CPU 0 instructions: 130000001 cycles: 405837738 heartbeat IPC: 0.197717 cumulative IPC: 0.205413 (Simulation time: 0 hr 11 min 32 sec) 
Heartbeat CPU 0 instructions: 140000002 cycles: 456477642 heartbeat IPC: 0.197473 cumulative IPC: 0.204499 (Simulation time: 0 hr 12 min 38 sec) 
Heartbeat CPU 0 instructions: 150000000 cycles: 503236568 heartbeat IPC: 0.213863 cumulative IPC: 0.205398 (Simulation time: 0 hr 13 min 42 sec) 
Heartbeat CPU 0 instructions: 160000001 cycles: 552940178 heartbeat IPC: 0.201193 cumulative IPC: 0.205009 (Simulation time: 0 hr 14 min 46 sec) 
Heartbeat CPU 0 instructions: 170000002 cycles: 599287530 heartbeat IPC: 0.215762 cumulative IPC: 0.205864 (Simulation time: 0 hr 15 min 49 sec) 
Heartbeat CPU 0 instructions: 180000000 cycles: 648528480 heartbeat IPC: 0.203083 cumulative IPC: 0.205647 (Simulation time: 0 hr 16 min 50 sec) 
Heartbeat CPU 0 instructions: 190000002 cycles: 698281168 heartbeat IPC: 0.200994 cumulative IPC: 0.205308 (Simulation time: 0 hr 17 min 49 sec) 
Heartbeat CPU 0 instructions: 200000003 cycles: 746816619 heartbeat IPC: 0.206035 cumulative IPC: 0.205356 (Simulation time: 0 hr 18 min 46 sec) 
Heartbeat CPU 0 instructions: 210000002 cycles: 794713296 heartbeat IPC: 0.208783 cumulative IPC: 0.205567 (Simulation time: 0 hr 19 min 38 sec) 
Heartbeat CPU 0 instructions: 220000000 cycles: 843200426 heartbeat IPC: 0.20624 cumulative IPC: 0.205606 (Simulation time: 0 hr 20 min 29 sec) 
Heartbeat CPU 0 instructions: 230000000 cycles: 891885844 heartbeat IPC: 0.2054 cumulative IPC: 0.205595 (Simulation time: 0 hr 21 min 20 sec) 
Heartbeat CPU 0 instructions: 240000001 cycles: 941563795 heartbeat IPC: 0.201297 cumulative IPC: 0.205364 (Simulation time: 0 hr 22 min 11 sec) 
Heartbeat CPU 0 instructions: 250000003 cycles: 993472151 heartbeat IPC: 0.192647 cumulative IPC: 0.204689 (Simulation time: 0 hr 23 min 3 sec) 
Finished CPU 0 instructions: 200000000 cycles: 977094296 cumulative IPC: 0.204689 (Simulation time: 0 hr 23 min 3 sec) 
 Instruction ID: 250000031

ChampSim completed all CPUs

Region of Interest Statistics

CPU 0 cumulative IPC: 0.204689 instructions: 200000000 cycles: 977094296
ITLB SPEC fills:          0  NON-SPEC fills:          0
ITLB Test counter :          0
ITLB Leapfrog:          0
ITLB MSHR merge:          0
ITLB TOTAL     ACCESS:   36364455  HIT:   36364455  MISS:          0  HIT %:        100  MISS %:          0   MPKI: 0
ITLB LOAD TRANSLATION NON_SPEC    ACCESS:   36364455  HIT:   36364455  MISS:          0  HIT %:        100  MISS %:          0   MPKI: 0
ITLB PREFETCH  REQUESTED:          0  ISSUED:          0  USEFUL:          0  USELESS:          0
ITLB USEFUL LOAD PREFETCHES:          0 PREFETCH ISSUED TO LOWER LEVEL:          0  ACCURACY: -nan
ITLB TIMELY PREFETCHES:          0 LATE PREFETCHES: 0 DROPPED PREFETCHES: 0
ITLB COMMIT LATE PREFETCHES: 0 MISSED OPPORTUNITY: 0 LATE IN PQ: 0 UNCOVERED: 0
ITLB COMMIT LATE MSHR PREFETCHES: 0
ITLB MPKI TOTAL: 0 MSHR LATE: 0 PQ LATE: 0 COMMIT LATE: 0 MISSED OPPORTUNITY: 0 UNCOVERED: 0
ITLB PREFETCHES SAME FILL-ORIGIN LEVEL: 0 DIFFERENT FILL-ORIGIN LEVEL: 0
ITLB AVERAGE MISS LATENCY: -nan cycles
ITLB AVERAGE MISS LATENCY LOAD: -nan cycles
ITLB AVERAGE MISS LATENCY PREFETCH: -nan cycles
ITLB AVERAGE MSHR OCCUPANCY: 0
ITLB MSHR FULL: 0
ITLB RQ	ACCESS:   36969811	FORWARD:          0	MERGED:     605357	TO_CACHE:   36364454

DTLB SPEC fills:          0  NON-SPEC fills:          0
DTLB Test counter :          0
DTLB Leapfrog:          0
DTLB MSHR merge:          0
DTLB TOTAL     ACCESS:   51524141  HIT:   40948397  MISS:   10575744  HIT %:    79.4742  MISS %:    20.5258   MPKI: 52.8787
DTLB LOAD TRANSLATION NON_SPEC    ACCESS:   51524141  HIT:   40948397  MISS:   10575744  HIT %:    79.4742  MISS %:    20.5258   MPKI: 52.8787
DTLB PREFETCH  REQUESTED:          0  ISSUED:          0  USEFUL:          0  USELESS:          0
DTLB USEFUL LOAD PREFETCHES:          0 PREFETCH ISSUED TO LOWER LEVEL:          0  ACCURACY: -nan
DTLB TIMELY PREFETCHES:          0 LATE PREFETCHES: 0 DROPPED PREFETCHES: 0
DTLB COMMIT LATE PREFETCHES: 0 MISSED OPPORTUNITY: 0 LATE IN PQ: 0 UNCOVERED: 0
DTLB COMMIT LATE MSHR PREFETCHES: 0
DTLB MPKI TOTAL: 0 MSHR LATE: 0 PQ LATE: 0 COMMIT LATE: 0 MISSED OPPORTUNITY: 0 UNCOVERED: 0
DTLB PREFETCHES SAME FILL-ORIGIN LEVEL: 0 DIFFERENT FILL-ORIGIN LEVEL: 0
DTLB AVERAGE MISS LATENCY: 9.479 cycles
DTLB AVERAGE MISS LATENCY LOAD: -nan cycles
DTLB AVERAGE MISS LATENCY PREFETCH: -nan cycles
DTLB AVERAGE MSHR OCCUPANCY: 0.344608
DTLB MSHR FULL: 0.00317852
DTLB RQ	ACCESS:   53260179	FORWARD:          0	MERGED:    1029370	TO_CACHE:   52230809

STLB SPEC fills:          0  NON-SPEC fills:          0
STLB Test counter :          0
STLB Leapfrog:          0
STLB MSHR merge:          0
STLB TOTAL     ACCESS:   31030433  HIT:   31014296  MISS:      16137  HIT %:     99.948  MISS %:  0.0520038   MPKI: 0.080685
STLB LOAD TRANSLATION NON_SPEC    ACCESS:   10575743  HIT:   10559619  MISS:      16124  HIT %:    99.8475  MISS %:   0.152462   MPKI: 0.08062
STLB TRANSLATION FROM L1D PREFETCHER NON_SPEC    ACCESS:   20454690  HIT:   20454677  MISS:         13  HIT %:    99.9999  MISS %: 6.35551e-05   MPKI: 6.5e-05
STLB PREFETCH  REQUESTED:          0  ISSUED:          0  USEFUL:         11  USELESS:          2
STLB USEFUL LOAD PREFETCHES:         11 PREFETCH ISSUED TO LOWER LEVEL:          0  ACCURACY: inf
STLB TIMELY PREFETCHES:         11 LATE PREFETCHES: 7786 DROPPED PREFETCHES: 1200731
STLB COMMIT LATE PREFETCHES: 0 MISSED OPPORTUNITY: 0 LATE IN PQ: 0 UNCOVERED: 0
STLB COMMIT LATE MSHR PREFETCHES: 0
STLB MPKI TOTAL: 0 MSHR LATE: 0.03893 PQ LATE: 0 COMMIT LATE: 0 MISSED OPPORTUNITY: 0 UNCOVERED: 0
STLB PREFETCHES SAME FILL-ORIGIN LEVEL: 0 DIFFERENT FILL-ORIGIN LEVEL: 0
STLB AVERAGE MISS LATENCY: 173.166 cycles
STLB AVERAGE MISS LATENCY LOAD: -nan cycles
STLB AVERAGE MISS LATENCY PREFETCH: -nan cycles
STLB AVERAGE MSHR OCCUPANCY: 0.112541
STLB MSHR FULL: 0
STLB RQ	ACCESS:  106332724	FORWARD:          0	MERGED:   74019030	TO_CACHE:   32313694

STLB Hit, L1D data hit: 0
STLB Hit, L2C data hit: 0
STLB Hit, LLC data hit: 0
STLB Hit, LLC data miss: 0
STLB STLB hints to L2: 0
L0D SPEC fills:   29259137  NON-SPEC fills:          0
L0D TimeGuard Request with older TS:     473954 Restricted eviction:     187745 read:     484181
L0D Test counter :          0
L0D Leapfrog:          0
L0D MSHR merge:     711529
L0D TOTAL     ACCESS:   52301939  HIT:   12487836  MISS:   39814103  HIT %:    23.8764  MISS %:    76.1236   MPKI: 199.071
L0D LOAD      TOTAL       ACCESS:   52301939  HIT:   12487836  MISS:   39814103  HIT %:    23.8764  MISS %:    76.1236   MPKI: 199.071
L0D LOAD      NON_SPEC    ACCESS:   11010697  HIT:     643476  MISS:   10367221  HIT %:     5.8441  MISS %:    94.1559   MPKI: 51.8361
L0D LOAD      SPEC        ACCESS:   41291242  HIT:   11844360  MISS:   29446882  HIT %:    28.6849  MISS %:    71.3151   MPKI: 147.234
L0D PREFETCH  REQUESTED:          0  ISSUED:          0  USEFUL:          0  USELESS:          0
L0D USEFUL LOAD PREFETCHES:          0 PREFETCH ISSUED TO LOWER LEVEL:          0  ACCURACY: -nan
L0D TIMELY PREFETCHES:          0 LATE PREFETCHES: 0 DROPPED PREFETCHES: 0
L0D COMMIT LATE PREFETCHES: 0 MISSED OPPORTUNITY: 0 LATE IN PQ: 0 UNCOVERED: 0
L0D COMMIT LATE MSHR PREFETCHES: 0
L0D MPKI TOTAL: 202.628 MSHR LATE: 0 PQ LATE: 0 COMMIT LATE: 0 MISSED OPPORTUNITY: 0 UNCOVERED: 0
L0D PREFETCHES SAME FILL-ORIGIN LEVEL: 0 DIFFERENT FILL-ORIGIN LEVEL: 0
L0D AVERAGE MISS LATENCY: 30.5229 cycles
L0D AVERAGE MISS LATENCY LOAD: 30.5229 cycles
L0D AVERAGE MISS LATENCY PREFETCH: -nan cycles
L0D AVERAGE MSHR OCCUPANCY: 1.67619
L0D MSHR FULL: 0.0313814
L0D RQ	ACCESS:   57742015	FORWARD:          0	MERGED:    4728553	TO_CACHE:   53013462
L0D WQ	ACCESS:     246717	FORWARD:          0	MERGED:          0	TO_CACHE:     246717

L1D SPEC fills:          0  NON-SPEC fills:    4672313
L1D Test counter :          0
L1D Leapfrog:          0
L1D MSHR merge:      17617
L1D TOTAL     ACCESS:  115918767  HIT:   88596799  MISS:   27321968  HIT %:    76.4301  MISS %:    23.5699   MPKI: 136.61
L1D LOAD      TOTAL       ACCESS:   39813720  HIT:   24367498  MISS:   15446222  HIT %:    61.2038  MISS %:    38.7962   MPKI: 77.2311
L1D LOAD      NON_SPEC    ACCESS:   10367036  HIT:    5694723  MISS:    4672313  HIT %:    54.9311  MISS %:    45.0689   MPKI: 23.3616
L1D LOAD      SPEC        ACCESS:   29446684  HIT:   18672775  MISS:   10773909  HIT %:    63.4121  MISS %:    36.5879   MPKI: 53.8695
L1D RFO       NON_SPEC    ACCESS:     245994  HIT:     245993  MISS:          1  HIT %:    99.9996  MISS %: 0.000406514   MPKI: 5e-06
L1D PREFETCH  NON_SPEC    ACCESS:   64907722  HIT:   63799955  MISS:    1107767  HIT %:    98.2933  MISS %:    1.70668   MPKI: 5.53883
L1D COMMIT LOAD NON_SPEC    ACCESS:     342166  HIT:     172457  MISS:     169709  HIT %:    50.4016  MISS %:    49.5984   MPKI: 0.848545
L1D COMMIT WRITE NON_SPEC    ACCESS:   10609165  HIT:      10896  MISS:   10598269  HIT %:   0.102704  MISS %:    99.8973   MPKI: 52.9913
L1D PREFETCH  REQUESTED:  151147024  ISSUED:  149534843  USEFUL:    1074430  USELESS:      33343
L1D USEFUL LOAD PREFETCHES:    1074430 PREFETCH ISSUED TO LOWER LEVEL:   27689132  ACCURACY: 3.88033
L1D TIMELY PREFETCHES:    1074430 LATE PREFETCHES: 17235 DROPPED PREFETCHES: 3789507
L1D COMMIT LATE PREFETCHES: 0 MISSED OPPORTUNITY: 0 LATE IN PQ: 0 UNCOVERED: 0
L1D COMMIT LATE MSHR PREFETCHES: 0
L1D MPKI TOTAL: 77.233 MSHR LATE: 0.086175 PQ LATE: 0 COMMIT LATE: 0 MISSED OPPORTUNITY: 0 UNCOVERED: 0
L1D PREFETCHES SAME FILL-ORIGIN LEVEL: 1125029 DIFFERENT FILL-ORIGIN LEVEL: 26564103
L1D AVERAGE MISS LATENCY: 39.8247 cycles
L1D AVERAGE MISS LATENCY LOAD: 65.6367 cycles
L1D AVERAGE MISS LATENCY PREFETCH: 61.1333 cycles
L1D AVERAGE MSHR OCCUPANCY: 1.0083
L1D MSHR FULL: 0
L1D RQ	ACCESS:   40185601	FORWARD:          0	MERGED:      23345	TO_CACHE:   40156995
L1D WQ	ACCESS:   10857113	FORWARD:       5261	MERGED:       1229	TO_CACHE:   10855884
L1D PQ	ACCESS:  149534843	FORWARD:          0	MERGED:   53777862	TO_CACHE:   95756981

L1D UNIQUE REGIONS ACCESSED: 0
L1D REGIONS CONFLICTS: 0
L1D Cross Page Prefetch Requests: 13723085
L1D Same Page Prefetch Requests: 171058528
L1D ROI Sum of L1D PQ occupancy: 1973565095
L1D PREFETCHES PUSHED FROM L2C: 0
L1I SPEC fills:          0  NON-SPEC fills:          0
L1I Test counter :          0
L1I Leapfrog:          0
L1I MSHR merge:          0
L1I TOTAL     ACCESS:   36969812  HIT:   36969812  MISS:          0  HIT %:        100  MISS %:          0   MPKI: 0
L1I LOAD      TOTAL       ACCESS:   36969812  HIT:   36969812  MISS:          0  HIT %:        100  MISS %:          0   MPKI: 0
L1I LOAD      NON_SPEC    ACCESS:   36969812  HIT:   36969812  MISS:          0  HIT %:        100  MISS %:          0   MPKI: 0
L1I PREFETCH  REQUESTED:          0  ISSUED:          0  USEFUL:          0  USELESS:          0
L1I USEFUL LOAD PREFETCHES:          0 PREFETCH ISSUED TO LOWER LEVEL:          0  ACCURACY: -nan
L1I TIMELY PREFETCHES:          0 LATE PREFETCHES: 0 DROPPED PREFETCHES: 0
L1I COMMIT LATE PREFETCHES: 0 MISSED OPPORTUNITY: 0 LATE IN PQ: 0 UNCOVERED: 0
L1I COMMIT LATE MSHR PREFETCHES: 0
L1I MPKI TOTAL: 0 MSHR LATE: 0 PQ LATE: 0 COMMIT LATE: 0 MISSED OPPORTUNITY: 0 UNCOVERED: 0
L1I PREFETCHES SAME FILL-ORIGIN LEVEL: 0 DIFFERENT FILL-ORIGIN LEVEL: 0
L1I AVERAGE MISS LATENCY: -nan cycles
L1I AVERAGE MISS LATENCY LOAD: -nan cycles
L1I AVERAGE MISS LATENCY PREFETCH: -nan cycles
L1I AVERAGE MSHR OCCUPANCY: 0
L1I MSHR FULL: 0
L1I RQ	ACCESS:   60551702	FORWARD:          0	MERGED:   23581891	TO_CACHE:   36969811

BTB SPEC fills:          0  NON-SPEC fills:          0
BTB Test counter :          0
BTB Leapfrog:          0
BTB MSHR merge:          0
BTB TOTAL     ACCESS:   41566926  HIT:   41566921  MISS:          5  HIT %:        100  MISS %: 1.20288e-05   MPKI: 2.5e-05
BTB BRANCH_DIRECT_JUMP	ACCESS:          0  HIT:          0  MISS:          0
BTB BRANCH_INDIRECT	ACCESS:          0  HIT:          0  MISS:          0
BTB BRANCH_CONDITIONAL	ACCESS:   41566926  HIT:   41566921  MISS:          5
BTB BRANCH_DIRECT_CALL	ACCESS:          0  HIT:          0  MISS:          0
BTB BRANCH_INDIRECT_CALL	ACCESS:          0  HIT:          0  MISS:          0
BTB BRANCH_RETURN	ACCESS:          0  HIT:          0  MISS:          0
BTB BRANCH_OTHER ACCESS:          0  HIT:          0  MISS:          0

L2C SPEC fills:          0  NON-SPEC fills:    3070360
L2C Test counter :          0
L2C Leapfrog:          0
L2C MSHR merge:      60740
L2C TOTAL     ACCESS:   54880452  HIT:   34653390  MISS:   20227062  HIT %:    63.1434  MISS %:    36.8566   MPKI: 101.135
L2C LOAD      TOTAL       ACCESS:   15428809  HIT:    4938897  MISS:   10489912  HIT %:    32.0109  MISS %:    67.9891   MPKI: 52.4496
L2C LOAD      NON_SPEC    ACCESS:    4670311  HIT:    1599951  MISS:    3070360  HIT %:    34.2579  MISS %:    65.7421   MPKI: 15.3518
L2C LOAD      SPEC        ACCESS:   10758498  HIT:    3338946  MISS:    7419552  HIT %:    31.0354  MISS %:    68.9646   MPKI: 37.0978
L2C RFO       NON_SPEC    ACCESS:          1  HIT:          1  MISS:          0  HIT %:        100  MISS %:          0   MPKI: 0
L2C PREFETCH  NON_SPEC    ACCESS:   25734034  HIT:   23414184  MISS:    2319850  HIT %:    90.9853  MISS %:    9.01472   MPKI: 11.5992
L2C WRITEBACK NON_SPEC    ACCESS:      74931  HIT:      74775  MISS:        156  HIT %:    99.7918  MISS %:   0.208192   MPKI: 0.00078
L2C CLEAN_EVICTION NON_SPEC    ACCESS:    7352263  HIT:      38690  MISS:    7313573  HIT %:   0.526233  MISS %:    99.4738   MPKI: 36.5679
L2C COMMIT LOAD NON_SPEC    ACCESS:     169707  HIT:      71278  MISS:      98429  HIT %:    42.0006  MISS %:    57.9994   MPKI: 0.492145
L2C LOAD TRANSLATION NON_SPEC    ACCESS:      80589  HIT:      80586  MISS:          3  HIT %:    99.9963  MISS %: 0.00372259   MPKI: 1.5e-05
L2C TRANSLATION FROM L1D PREFETCHER NON_SPEC    ACCESS:    6040118  HIT:    6034979  MISS:       5139  HIT %:    99.9149  MISS %:  0.0850811   MPKI: 0.025695
L2C PREFETCH  REQUESTED:          0  ISSUED:          0  USEFUL:     258101  USELESS:    2066921
L2C USEFUL LOAD PREFETCHES:     258101 PREFETCH ISSUED TO LOWER LEVEL:    2380636  ACCURACY: 10.8417
L2C TIMELY PREFETCHES:     258101 LATE PREFETCHES: 60786 DROPPED PREFETCHES: 0
L2C COMMIT LATE PREFETCHES: 0 MISSED OPPORTUNITY: 0 LATE IN PQ: 0 UNCOVERED: 0
L2C COMMIT LATE MSHR PREFETCHES: 0
L2C MPKI TOTAL: 52.4496 MSHR LATE: 0.30393 PQ LATE: 0 COMMIT LATE: 0 MISSED OPPORTUNITY: 0 UNCOVERED: 0
L2C PREFETCHES SAME FILL-ORIGIN LEVEL: 2119408 DIFFERENT FILL-ORIGIN LEVEL: 0
L2C AVERAGE MISS LATENCY: 61.6799 cycles
L2C AVERAGE MISS LATENCY LOAD: 78.2289 cycles
L2C AVERAGE MISS LATENCY PREFETCH: 182.087 cycles
L2C AVERAGE MSHR OCCUPANCY: 1.36967
L2C MSHR FULL: 8.24149e-06
L2C RQ	ACCESS:   21719402	FORWARD:          0	MERGED:          0	TO_CACHE:   21719223
L2C WQ	ACCESS:    7427195	FORWARD:        179	MERGED:          0	TO_CACHE:    7427195
L2C PQ	ACCESS:   27688647	FORWARD:          0	MERGED:       1425	TO_CACHE:   27687222

L2C Instructions Evicting Data 0
L2C Translations Evicting Data 5141
L2C Data Evicting Data 5486528
L2C Instructions Evicting Instructions 0
L2C Translations Evicting Instructions 0
L2C Data Evicting Instructions 0
L2C Instructions Evicting Translations 0
L2C Translations Evicting Translations 1
L2C Data Evicting Translations 2111
L2C Dense regions hint from L2: 0
PSCL5 SPEC fills:          0  NON-SPEC fills:          0
PSCL5 Test counter :          0
PSCL5 Leapfrog:          0
PSCL5 MSHR merge:          0
PSCL5 TOTAL     ACCESS:          0  HIT:          0  MISS:          0  HIT %:       -nan  MISS %:       -nan   MPKI: 0
PSCL5 PREFETCH  REQUESTED:          0  ISSUED:          0  USEFUL:          0  USELESS:          0
PSCL5 USEFUL LOAD PREFETCHES:          0 PREFETCH ISSUED TO LOWER LEVEL:          0  ACCURACY: -nan
PSCL5 TIMELY PREFETCHES:          0 LATE PREFETCHES: 0 DROPPED PREFETCHES: 0
PSCL5 COMMIT LATE PREFETCHES: 0 MISSED OPPORTUNITY: 0 LATE IN PQ: 0 UNCOVERED: 0
PSCL5 COMMIT LATE MSHR PREFETCHES: 0
PSCL5 MPKI TOTAL: 0 MSHR LATE: 0 PQ LATE: 0 COMMIT LATE: 0 MISSED OPPORTUNITY: 0 UNCOVERED: 0
PSCL5 PREFETCHES SAME FILL-ORIGIN LEVEL: 0 DIFFERENT FILL-ORIGIN LEVEL: 0

PSCL4 SPEC fills:          0  NON-SPEC fills:          0
PSCL4 Test counter :          0
PSCL4 Leapfrog:          0
PSCL4 MSHR merge:          0
PSCL4 TOTAL     ACCESS:          0  HIT:          0  MISS:          0  HIT %:       -nan  MISS %:       -nan   MPKI: 0
PSCL4 PREFETCH  REQUESTED:          0  ISSUED:          0  USEFUL:          0  USELESS:          0
PSCL4 USEFUL LOAD PREFETCHES:          0 PREFETCH ISSUED TO LOWER LEVEL:          0  ACCURACY: -nan
PSCL4 TIMELY PREFETCHES:          0 LATE PREFETCHES: 0 DROPPED PREFETCHES: 0
PSCL4 COMMIT LATE PREFETCHES: 0 MISSED OPPORTUNITY: 0 LATE IN PQ: 0 UNCOVERED: 0
PSCL4 COMMIT LATE MSHR PREFETCHES: 0
PSCL4 MPKI TOTAL: 0 MSHR LATE: 0 PQ LATE: 0 COMMIT LATE: 0 MISSED OPPORTUNITY: 0 UNCOVERED: 0
PSCL4 PREFETCHES SAME FILL-ORIGIN LEVEL: 0 DIFFERENT FILL-ORIGIN LEVEL: 0

PSCL3 SPEC fills:          0  NON-SPEC fills:          0
PSCL3 Test counter :          0
PSCL3 Leapfrog:          0
PSCL3 MSHR merge:          0
PSCL3 TOTAL     ACCESS:          0  HIT:          0  MISS:          0  HIT %:       -nan  MISS %:       -nan   MPKI: 0
PSCL3 PREFETCH  REQUESTED:          0  ISSUED:          0  USEFUL:          0  USELESS:          0
PSCL3 USEFUL LOAD PREFETCHES:          0 PREFETCH ISSUED TO LOWER LEVEL:          0  ACCURACY: -nan
PSCL3 TIMELY PREFETCHES:          0 LATE PREFETCHES: 0 DROPPED PREFETCHES: 0
PSCL3 COMMIT LATE PREFETCHES: 0 MISSED OPPORTUNITY: 0 LATE IN PQ: 0 UNCOVERED: 0
PSCL3 COMMIT LATE MSHR PREFETCHES: 0
PSCL3 MPKI TOTAL: 0 MSHR LATE: 0 PQ LATE: 0 COMMIT LATE: 0 MISSED OPPORTUNITY: 0 UNCOVERED: 0
PSCL3 PREFETCHES SAME FILL-ORIGIN LEVEL: 0 DIFFERENT FILL-ORIGIN LEVEL: 0

PSCL2 SPEC fills:          0  NON-SPEC fills:          0
PSCL2 Test counter :          0
PSCL2 Leapfrog:          0
PSCL2 MSHR merge:          0
PSCL2 TOTAL     ACCESS:          0  HIT:          0  MISS:          0  HIT %:       -nan  MISS %:       -nan   MPKI: 0
PSCL2 PREFETCH  REQUESTED:          0  ISSUED:          0  USEFUL:          0  USELESS:          0
PSCL2 USEFUL LOAD PREFETCHES:          0 PREFETCH ISSUED TO LOWER LEVEL:          0  ACCURACY: -nan
PSCL2 TIMELY PREFETCHES:          0 LATE PREFETCHES: 0 DROPPED PREFETCHES: 0
PSCL2 COMMIT LATE PREFETCHES: 0 MISSED OPPORTUNITY: 0 LATE IN PQ: 0 UNCOVERED: 0
PSCL2 COMMIT LATE MSHR PREFETCHES: 0
PSCL2 MPKI TOTAL: 0 MSHR LATE: 0 PQ LATE: 0 COMMIT LATE: 0 MISSED OPPORTUNITY: 0 UNCOVERED: 0
PSCL2 PREFETCHES SAME FILL-ORIGIN LEVEL: 0 DIFFERENT FILL-ORIGIN LEVEL: 0

LLC SPEC fills:          0  NON-SPEC fills:    1057207
LLC Test counter :          0
LLC Leapfrog:          0
LLC MSHR merge:          0
LLC TOTAL     ACCESS:   20327528  HIT:   11710967  MISS:    8616561  HIT %:    57.6114  MISS %:    42.3886   MPKI: 43.0828
LLC LOAD      TOTAL       ACCESS:   10429106  HIT:    6809123  MISS:    3619983  HIT %:    65.2896  MISS %:    34.7104   MPKI: 18.0999
LLC LOAD      NON_SPEC    ACCESS:    3048004  HIT:    1990797  MISS:    1057207  HIT %:    65.3148  MISS %:    34.6852   MPKI: 5.28604
LLC LOAD      SPEC        ACCESS:    7381102  HIT:    4818326  MISS:    2562776  HIT %:    65.2792  MISS %:    34.7208   MPKI: 12.8139
LLC PREFETCH  NON_SPEC    ACCESS:    2380634  HIT:     369105  MISS:    2011529  HIT %:    15.5045  MISS %:    84.4955   MPKI: 10.0576
LLC WRITEBACK NON_SPEC    ACCESS:      70067  HIT:      70046  MISS:         21  HIT %:      99.97  MISS %:  0.0299713   MPKI: 0.000105
LLC CLEAN_EVICTION NON_SPEC    ACCESS:    7344224  HIT:    4369889  MISS:    2974335  HIT %:     59.501  MISS %:     40.499   MPKI: 14.8717
LLC COMMIT LOAD NON_SPEC    ACCESS:      98355  HIT:      90168  MISS:       8187  HIT %:    91.6761  MISS %:    8.32393   MPKI: 0.040935
LLC LOAD TRANSLATION NON_SPEC    ACCESS:          3  HIT:          3  MISS:          0  HIT %:        100  MISS %:          0   MPKI: 0
LLC TRANSLATION FROM L1D PREFETCHER NON_SPEC    ACCESS:       5139  HIT:       2633  MISS:       2506  HIT %:    51.2356  MISS %:    48.7644   MPKI: 0.01253
LLC PREFETCH  REQUESTED:          0  ISSUED:          0  USEFUL:     201132  USELESS:    1812924
LLC USEFUL LOAD PREFETCHES:     201132 PREFETCH ISSUED TO LOWER LEVEL:    2011529  ACCURACY: 9.99896
LLC TIMELY PREFETCHES:     201132 LATE PREFETCHES: 0 DROPPED PREFETCHES: 0
LLC COMMIT LATE PREFETCHES: 0 MISSED OPPORTUNITY: 0 LATE IN PQ: 0 UNCOVERED: 0
LLC COMMIT LATE MSHR PREFETCHES: 0
LLC MPKI TOTAL: 18.0999 MSHR LATE: 0 PQ LATE: 0 COMMIT LATE: 0 MISSED OPPORTUNITY: 0 UNCOVERED: 0
LLC PREFETCHES SAME FILL-ORIGIN LEVEL: 0 DIFFERENT FILL-ORIGIN LEVEL: 0
LLC AVERAGE MISS LATENCY: 108.238 cycles
LLC AVERAGE MISS LATENCY LOAD: 156.072 cycles
LLC AVERAGE MISS LATENCY PREFETCH: 182.053 cycles
LLC AVERAGE MSHR OCCUPANCY: 0.87514
LLC MSHR FULL: 0
LLC RQ	ACCESS:   10532696	FORWARD:          0	MERGED:          0	TO_CACHE:   10532603
LLC WQ	ACCESS:    7414291	FORWARD:         95	MERGED:          0	TO_CACHE:    7414291
LLC PQ	ACCESS:    2380636	FORWARD:          0	MERGED:          0	TO_CACHE:    2380634

LLC Dense regions hint to LLC: 0

RAW hits: 22189
Loads Generated: 57764200
Loads sent to L1D: 57742015
Stores Generated: 246717
Stores sent to L1D: 246717
Major fault: 0 Minor fault: 20918
Allocated PAGES: 20918
Total Load insts: 70972890
Total Non-spec loads: 11443870
Percentage of speculative loads: 83.8757

LeapFrogging counter: 359621
Commit hits: 28862154 miss: 17775131
Commit hit %: 61.8864 miss %: 38.1136
Commits not translated: 0
Loads retired: 15446220
Stores retired: 246717
Cache fills: 15446222
L1D response latency: 65.6367 cycles
Load retirement latency: 130.131 cycles
OOO test counter: 0
Discarded buffer inserts: 28862154 hits: 27706 hit %: 0.0959942
Filter prediction accuracy: 99.8803
ALL MISSES SIZE: 13272
LATENCY_FILL: 65.5446 15430975
LATENCY_FILL_ROB: 117.331 15419003
test counter pref: 277840636
Max ROB Extended: 18

DRAM Statistics
 CHANNEL 0
 RQ ROW_BUFFER_HIT:     868416  ROW_BUFFER_MISS:    4773175
 DBUS_CONGESTED:       4020
 WQ ROW_BUFFER_HIT:    1134743  ROW_BUFFER_MISS:    2359445  FULL:          0

 AVG_CONGESTED_CYCLE: 5
 All warmup complete: 2
Channel 0 Bank busy for read cycles: 0
Channel 0 Bank busy for write cycles: 0
Channel 0
Rank 0
0banks busy for read cycles: 172127004
0banks busy for write cycles: 903022
1banks busy for read cycles: 313278869
1banks busy for write cycles: 153986838
2banks busy for read cycles: 108250374
2banks busy for write cycles: 74867077
3banks busy for read cycles: 36221486
3banks busy for write cycles: 32143915
4banks busy for read cycles: 12464021
4banks busy for write cycles: 16085078
5banks busy for read cycles: 4735614
5banks busy for write cycles: 10463720
6banks busy for read cycles: 2527621
6banks busy for write cycles: 8505319
7banks busy for read cycles: 3096897
7banks busy for write cycles: 8673713
8banks busy for read cycles: 1489355
8banks busy for write cycles: 17274374

CPU 0 Branch Prediction Accuracy: 88.1493% MPKI: 24.7463 Average ROB Occupancy at Mispredict: 17.4801
Branch types
NOT_BRANCH: 158236160 79.1181%
BRANCH_DIRECT_JUMP: 0 0%
BRANCH_INDIRECT: 0 0%
BRANCH_CONDITIONAL: 41763493 20.8817%
BRANCH_DIRECT_CALL: 0 0%
BRANCH_INDIRECT_CALL: 0 0%
BRANCH_RETURN: 0 0%
BRANCH_OTHER: 0 0%

DRAM PAGES: 1048576
Allocated PAGES: 20918
