
*** ChampSim Multicore Out-of-Order Simulator ***

Warmup Instructions: 50000000
Simulation Instructions: 200000000
Number of CPUs: 1
LLC sets: 2048
LLC ways: 16
L0D sets: 16
L0D ways: 2
ROB size: 352
LQ size: 128
SQ size: 72
Secure Berti: ON
Berti: ON
Berti Fill: ON
On commit prefetching: OFF
Hit-based filter: ON
Time-guarding: ON
Free-slotting: ON
Leap-frogging: ON
Train prefetcher on L0D bypass: OFF
No translation penalty for prefetchers: OFF
Prefetch to L0D only: OFF
Prefetch to L1D only: OFF
Clean evictions: ON
Commit loads: ON
Commit write: ON
Fill commit loads to L2C, LLC: ON
DRAM IO FREQUENCY: 6400
ROB SIZE: 352
Off-chip DRAM Size: 4096 MB Channels: 1 Width: 64-bit Data Rate: 6400 MT/s
CPU 0 runs /home/sumon/secure_berti/GhostMinion/../../traces/gap/pr-10.trace.gz
.gz
BTB has LRU replacement policy
ITLB has LRU replacement policy
DTLB has LRU replacement policy
STLB has LRU replacement policy
L1I has LRU replacement policy
L0D has LRU replacement policy
Berti version on_commit
History Sets: 8
History Ways: 16
BERTI Size: 16
BERTI Stride Size: 16
L1D has LRU replacement policy
L2C has LRU replacement policy
LLC has LRU replacement policy
Heartbeat CPU 0 instructions: 10000002 cycles: 3333821 heartbeat IPC: 2.99956 cumulative IPC: 2.99956 (Simulation time: 0 hr 0 min 32 sec) 
Heartbeat CPU 0 instructions: 20000000 cycles: 19126007 heartbeat IPC: 0.633224 cumulative IPC: 1.0457 (Simulation time: 0 hr 1 min 36 sec) 
Heartbeat CPU 0 instructions: 30000003 cycles: 37188721 heartbeat IPC: 0.553627 cumulative IPC: 0.806696 (Simulation time: 0 hr 2 min 46 sec) 
Heartbeat CPU 0 instructions: 40000001 cycles: 55231062 heartbeat IPC: 0.554252 cumulative IPC: 0.72423 (Simulation time: 0 hr 3 min 56 sec) 
Heartbeat CPU 0 instructions: 50000001 cycles: 73105426 heartbeat IPC: 0.55946 cumulative IPC: 0.683944 (Simulation time: 0 hr 5 min 6 sec) 

Warmup complete CPU 0 instructions: 50000001 cycles: 73105426 (Simulation time: 0 hr 5 min 6 sec) 

Heartbeat CPU 0 instructions: 60000000 cycles: 261229631 heartbeat IPC: 0.0531564 cumulative IPC: 0.0531564 (Simulation time: 0 hr 7 min 41 sec) 
Heartbeat CPU 0 instructions: 70000000 cycles: 447316208 heartbeat IPC: 0.0537384 cumulative IPC: 0.0534458 (Simulation time: 0 hr 10 min 16 sec) 
Heartbeat CPU 0 instructions: 80000000 cycles: 632320768 heartbeat IPC: 0.0540527 cumulative IPC: 0.0536466 (Simulation time: 0 hr 13 min 11 sec) 
Heartbeat CPU 0 instructions: 90000000 cycles: 819771476 heartbeat IPC: 0.0533474 cumulative IPC: 0.0535715 (Simulation time: 0 hr 16 min 0 sec) 
Heartbeat CPU 0 instructions: 100000002 cycles: 1008285483 heartbeat IPC: 0.0530465 cumulative IPC: 0.0534656 (Simulation time: 0 hr 18 min 32 sec) 
Heartbeat CPU 0 instructions: 110000000 cycles: 1195663717 heartbeat IPC: 0.053368 cumulative IPC: 0.0534493 (Simulation time: 0 hr 20 min 49 sec) 
Heartbeat CPU 0 instructions: 120000000 cycles: 1382330756 heartbeat IPC: 0.0535713 cumulative IPC: 0.0534667 (Simulation time: 0 hr 23 min 3 sec) 
Heartbeat CPU 0 instructions: 130000001 cycles: 1567030743 heartbeat IPC: 0.0541419 cumulative IPC: 0.0535502 (Simulation time: 0 hr 25 min 17 sec) 
Heartbeat CPU 0 instructions: 140000000 cycles: 1750480351 heartbeat IPC: 0.0545109 cumulative IPC: 0.0536553 (Simulation time: 0 hr 27 min 26 sec) 
Heartbeat CPU 0 instructions: 150000000 cycles: 1938432825 heartbeat IPC: 0.0532049 cumulative IPC: 0.0536099 (Simulation time: 0 hr 29 min 36 sec) 
Heartbeat CPU 0 instructions: 160000000 cycles: 2125427037 heartbeat IPC: 0.0534776 cumulative IPC: 0.0535978 (Simulation time: 0 hr 31 min 45 sec) 
Heartbeat CPU 0 instructions: 170000001 cycles: 2312526883 heartbeat IPC: 0.0534474 cumulative IPC: 0.0535853 (Simulation time: 0 hr 33 min 55 sec) 
Heartbeat CPU 0 instructions: 180000001 cycles: 2500750700 heartbeat IPC: 0.0531282 cumulative IPC: 0.0535498 (Simulation time: 0 hr 36 min 6 sec) 
Heartbeat CPU 0 instructions: 190000001 cycles: 2637034230 heartbeat IPC: 0.0733764 cumulative IPC: 0.0546037 (Simulation time: 0 hr 37 min 50 sec) 
Heartbeat CPU 0 instructions: 200000003 cycles: 2678818789 heartbeat IPC: 0.239323 cumulative IPC: 0.0575658 (Simulation time: 0 hr 38 min 39 sec) 
Heartbeat CPU 0 instructions: 210000000 cycles: 2865985104 heartbeat IPC: 0.0534284 cumulative IPC: 0.0572885 (Simulation time: 0 hr 40 min 47 sec) 
Heartbeat CPU 0 instructions: 220000000 cycles: 3051920634 heartbeat IPC: 0.0537821 cumulative IPC: 0.0570697 (Simulation time: 0 hr 42 min 56 sec) 
Heartbeat CPU 0 instructions: 230000001 cycles: 3239425450 heartbeat IPC: 0.053332 cumulative IPC: 0.0568483 (Simulation time: 0 hr 45 min 5 sec) 
Heartbeat CPU 0 instructions: 240000001 cycles: 3423614686 heartbeat IPC: 0.054292 cumulative IPC: 0.0567078 (Simulation time: 0 hr 47 min 14 sec) 
Heartbeat CPU 0 instructions: 250000001 cycles: 3610564435 heartbeat IPC: 0.0534903 cumulative IPC: 0.0565378 (Simulation time: 0 hr 49 min 24 sec) 
Finished CPU 0 instructions: 200000000 cycles: 3537459009 cumulative IPC: 0.0565378 (Simulation time: 0 hr 49 min 24 sec) 
 Instruction ID: 250000130

ChampSim completed all CPUs

Region of Interest Statistics

CPU 0 cumulative IPC: 0.0565378 instructions: 200000000 cycles: 3537459009
ITLB SPEC fills:          0  NON-SPEC fills:          0
ITLB Test counter :          0
ITLB Leapfrog:          0
ITLB MSHR merge:          0
ITLB TOTAL     ACCESS:   58863193  HIT:   58863193  MISS:          0  HIT %:        100  MISS %:          0   MPKI: 0
ITLB LOAD TRANSLATION NON_SPEC    ACCESS:   58863193  HIT:   58863193  MISS:          0  HIT %:        100  MISS %:          0   MPKI: 0
ITLB PREFETCH  REQUESTED:          0  ISSUED:          0  USEFUL:          0  USELESS:          0
ITLB USEFUL LOAD PREFETCHES:          0 PREFETCH ISSUED TO LOWER LEVEL:          0  ACCURACY: -nan
ITLB TIMELY PREFETCHES:          0 LATE PREFETCHES: 0 DROPPED PREFETCHES: 0
ITLB COMMIT LATE PREFETCHES: 0 MISSED OPPORTUNITY: 0 LATE IN PQ: 0 UNCOVERED: 0
ITLB COMMIT LATE MSHR PREFETCHES: 0
ITLB MPKI TOTAL: 0 MSHR LATE: 0 PQ LATE: 0 COMMIT LATE: 0 MISSED OPPORTUNITY: 0 UNCOVERED: 0
ITLB PREFETCHES SAME FILL-ORIGIN LEVEL: 0 DIFFERENT FILL-ORIGIN LEVEL: 0
ITLB AVERAGE MISS LATENCY: -nan cycles
ITLB AVERAGE MISS LATENCY LOAD: -nan cycles
ITLB AVERAGE MISS LATENCY PREFETCH: -nan cycles
ITLB AVERAGE MSHR OCCUPANCY: 0
ITLB MSHR FULL: 0
ITLB RQ	ACCESS:   59988125	FORWARD:          0	MERGED:    1124932	TO_CACHE:   58863193

DTLB SPEC fills:          0  NON-SPEC fills:          0
DTLB Test counter :          0
DTLB Leapfrog:          0
DTLB MSHR merge:          0
DTLB TOTAL     ACCESS:   71499811  HIT:   48545149  MISS:   22954662  HIT %:    67.8955  MISS %:    32.1045   MPKI: 114.773
DTLB LOAD TRANSLATION NON_SPEC    ACCESS:   71499811  HIT:   48545149  MISS:   22954662  HIT %:    67.8955  MISS %:    32.1045   MPKI: 114.773
DTLB PREFETCH  REQUESTED:          0  ISSUED:          0  USEFUL:          0  USELESS:          0
DTLB USEFUL LOAD PREFETCHES:          0 PREFETCH ISSUED TO LOWER LEVEL:          0  ACCURACY: -nan
DTLB TIMELY PREFETCHES:          0 LATE PREFETCHES: 0 DROPPED PREFETCHES: 0
DTLB COMMIT LATE PREFETCHES: 0 MISSED OPPORTUNITY: 0 LATE IN PQ: 0 UNCOVERED: 0
DTLB COMMIT LATE MSHR PREFETCHES: 0
DTLB MPKI TOTAL: 0 MSHR LATE: 0 PQ LATE: 0 COMMIT LATE: 0 MISSED OPPORTUNITY: 0 UNCOVERED: 0
DTLB PREFETCHES SAME FILL-ORIGIN LEVEL: 0 DIFFERENT FILL-ORIGIN LEVEL: 0
DTLB AVERAGE MISS LATENCY: 9.18581 cycles
DTLB AVERAGE MISS LATENCY LOAD: -nan cycles
DTLB AVERAGE MISS LATENCY PREFETCH: -nan cycles
DTLB AVERAGE MSHR OCCUPANCY: 0.193815
DTLB MSHR FULL: 0
DTLB RQ	ACCESS:   72339340	FORWARD:          0	MERGED:     830145	TO_CACHE:   71509195

STLB SPEC fills:          0  NON-SPEC fills:          0
STLB Test counter :          0
STLB Leapfrog:          0
STLB MSHR merge:          0
STLB TOTAL     ACCESS:   65046885  HIT:   65006057  MISS:      40828  HIT %:    99.9372  MISS %:   0.062767   MPKI: 0.20414
STLB LOAD TRANSLATION NON_SPEC    ACCESS:   22954662  HIT:   22929214  MISS:      25448  HIT %:    99.8891  MISS %:   0.110862   MPKI: 0.12724
STLB TRANSLATION FROM L1D PREFETCHER NON_SPEC    ACCESS:   42092223  HIT:   42076843  MISS:      15380  HIT %:    99.9635  MISS %:  0.0365388   MPKI: 0.0769
STLB PREFETCH  REQUESTED:          0  ISSUED:          0  USEFUL:      15380  USELESS:          0
STLB USEFUL LOAD PREFETCHES:      15380 PREFETCH ISSUED TO LOWER LEVEL:          0  ACCURACY: inf
STLB TIMELY PREFETCHES:      15380 LATE PREFETCHES: 14829 DROPPED PREFETCHES: 2642580
STLB COMMIT LATE PREFETCHES: 0 MISSED OPPORTUNITY: 0 LATE IN PQ: 0 UNCOVERED: 0
STLB COMMIT LATE MSHR PREFETCHES: 0
STLB MPKI TOTAL: 0 MSHR LATE: 0.074145 PQ LATE: 0 COMMIT LATE: 0 MISSED OPPORTUNITY: 0 UNCOVERED: 0
STLB PREFETCHES SAME FILL-ORIGIN LEVEL: 0 DIFFERENT FILL-ORIGIN LEVEL: 0
STLB AVERAGE MISS LATENCY: 154.178 cycles
STLB AVERAGE MISS LATENCY LOAD: -nan cycles
STLB AVERAGE MISS LATENCY PREFETCH: -nan cycles
STLB AVERAGE MSHR OCCUPANCY: 0.0566817
STLB MSHR FULL: 0
STLB RQ	ACCESS:  299837624	FORWARD:          0	MERGED:  232037024	TO_CACHE:   67800600

STLB Hit, L1D data hit: 0
STLB Hit, L2C data hit: 0
STLB Hit, LLC data hit: 0
STLB Hit, LLC data miss: 0
STLB STLB hints to L2: 0
L0D SPEC fills:    5845447  NON-SPEC fills:          0
L0D TimeGuard Request with older TS:      69778 Restricted eviction:      12895 read:          2
L0D Test counter :          0
L0D Leapfrog:          0
L0D MSHR merge:    1073846
L0D TOTAL     ACCESS:   67965815  HIT:   24408254  MISS:   43557561  HIT %:    35.9125  MISS %:    64.0875   MPKI: 217.788
L0D LOAD      TOTAL       ACCESS:   67965815  HIT:   24408254  MISS:   43557561  HIT %:    35.9125  MISS %:    64.0875   MPKI: 217.788
L0D LOAD      NON_SPEC    ACCESS:   37699223  HIT:          4  MISS:   37699219  HIT %: 1.06103e-05  MISS %:        100   MPKI: 188.496
L0D LOAD      SPEC        ACCESS:   30266592  HIT:   24408250  MISS:    5858342  HIT %:    80.6442  MISS %:    19.3558   MPKI: 29.2917
L0D PREFETCH  REQUESTED:          0  ISSUED:          0  USEFUL:          0  USELESS:          0
L0D USEFUL LOAD PREFETCHES:          0 PREFETCH ISSUED TO LOWER LEVEL:          0  ACCURACY: -nan
L0D TIMELY PREFETCHES:          0 LATE PREFETCHES: 0 DROPPED PREFETCHES: 0
L0D COMMIT LATE PREFETCHES: 0 MISSED OPPORTUNITY: 0 LATE IN PQ: 0 UNCOVERED: 0
L0D COMMIT LATE MSHR PREFETCHES: 0
L0D MPKI TOTAL: 223.157 MSHR LATE: 0 PQ LATE: 0 COMMIT LATE: 0 MISSED OPPORTUNITY: 0 UNCOVERED: 0
L0D PREFETCHES SAME FILL-ORIGIN LEVEL: 0 DIFFERENT FILL-ORIGIN LEVEL: 0
L0D AVERAGE MISS LATENCY: 69.1143 cycles
L0D AVERAGE MISS LATENCY LOAD: 69.1143 cycles
L0D AVERAGE MISS LATENCY PREFETCH: -nan cycles
L0D AVERAGE MSHR OCCUPANCY: 0.220201
L0D MSHR FULL: 0
L0D RQ	ACCESS:   77353834	FORWARD:          0	MERGED:    8314174	TO_CACHE:   69039660
L0D WQ	ACCESS:    3299680	FORWARD:          0	MERGED:          0	TO_CACHE:    3299680

L1D SPEC fills:          0  NON-SPEC fills:   31922211
L1D Test counter :          0
L1D Leapfrog:          0
L1D MSHR merge:      35026
L1D TOTAL     ACCESS:  239908637  HIT:  205217059  MISS:   34691578  HIT %:    85.5397  MISS %:    14.4603   MPKI: 173.458
L1D LOAD      TOTAL       ACCESS:   43557556  HIT:   11575319  MISS:   31982237  HIT %:    26.5748  MISS %:    73.4252   MPKI: 159.911
L1D LOAD      NON_SPEC    ACCESS:   37699218  HIT:    5777007  MISS:   31922211  HIT %:    15.3239  MISS %:    84.6761   MPKI: 159.611
L1D LOAD      SPEC        ACCESS:    5858338  HIT:    5798312  MISS:      60026  HIT %:    98.9754  MISS %:    1.02463   MPKI: 0.30013
L1D RFO       NON_SPEC    ACCESS:    2583229  HIT:    2517403  MISS:      65826  HIT %:    97.4518  MISS %:    2.54821   MPKI: 0.32913
L1D PREFETCH  NON_SPEC    ACCESS:  193516031  HIT:  190902925  MISS:    2613106  HIT %:    98.6497  MISS %:    1.35033   MPKI: 13.0655
L1D COMMIT LOAD NON_SPEC    ACCESS:     189801  HIT:     189705  MISS:         96  HIT %:    99.9494  MISS %:  0.0505793   MPKI: 0.00048
L1D COMMIT WRITE NON_SPEC    ACCESS:      62020  HIT:      31707  MISS:      30313  HIT %:    51.1238  MISS %:    48.8762   MPKI: 0.151565
L1D PREFETCH  REQUESTED:  292788940  ISSUED:  290826636  USEFUL:    2536466  USELESS:      76648
L1D USEFUL LOAD PREFETCHES:    2536466 PREFETCH ISSUED TO LOWER LEVEL:   77778575  ACCURACY: 3.26114
L1D TIMELY PREFETCHES:    2536466 LATE PREFETCHES: 35021 DROPPED PREFETCHES: 6533311
L1D COMMIT LATE PREFETCHES: 0 MISSED OPPORTUNITY: 0 LATE IN PQ: 0 UNCOVERED: 0
L1D COMMIT LATE MSHR PREFETCHES: 0
L1D MPKI TOTAL: 159.911 MSHR LATE: 0.175105 PQ LATE: 0 COMMIT LATE: 0 MISSED OPPORTUNITY: 0 UNCOVERED: 0
L1D PREFETCHES SAME FILL-ORIGIN LEVEL: 2648127 DIFFERENT FILL-ORIGIN LEVEL: 75130448
L1D AVERAGE MISS LATENCY: 84.4513 cycles
L1D AVERAGE MISS LATENCY LOAD: 87.3139 cycles
L1D AVERAGE MISS LATENCY PREFETCH: 47.5226 cycles
L1D AVERAGE MSHR OCCUPANCY: 0.214194
L1D MSHR FULL: 0
L1D RQ	ACCESS:   43747547	FORWARD:          0	MERGED:        186	TO_CACHE:   43747361
L1D WQ	ACCESS:    3361700	FORWARD:          0	MERGED:        345	TO_CACHE:    3361355
L1D PQ	ACCESS:  290826636	FORWARD:          0	MERGED:   13943674	TO_CACHE:  276882962

L1D UNIQUE REGIONS ACCESSED: 0
L1D REGIONS CONFLICTS: 0
L1D Cross Page Prefetch Requests: 30871984
L1D Same Page Prefetch Requests: 330764906
L1D ROI Sum of L1D PQ occupancy: 4914918022
L1D PREFETCHES PUSHED FROM L2C: 0
L1I SPEC fills:          0  NON-SPEC fills:          0
L1I Test counter :          0
L1I Leapfrog:          0
L1I MSHR merge:          1
L1I TOTAL     ACCESS:   59988124  HIT:   59988101  MISS:         23  HIT %:        100  MISS %: 3.83409e-05   MPKI: 0.000115
L1I LOAD      TOTAL       ACCESS:   59988124  HIT:   59988101  MISS:         23  HIT %:        100  MISS %: 3.83409e-05   MPKI: 0.000115
L1I LOAD      NON_SPEC    ACCESS:   59988124  HIT:   59988101  MISS:         23  HIT %:        100  MISS %: 3.83409e-05   MPKI: 0.000115
L1I PREFETCH  REQUESTED:          0  ISSUED:          0  USEFUL:          0  USELESS:          0
L1I USEFUL LOAD PREFETCHES:          0 PREFETCH ISSUED TO LOWER LEVEL:          0  ACCURACY: -nan
L1I TIMELY PREFETCHES:          0 LATE PREFETCHES: 0 DROPPED PREFETCHES: 0
L1I COMMIT LATE PREFETCHES: 0 MISSED OPPORTUNITY: 0 LATE IN PQ: 0 UNCOVERED: 0
L1I COMMIT LATE MSHR PREFETCHES: 0
L1I MPKI TOTAL: 0.00012 MSHR LATE: 0 PQ LATE: 0 COMMIT LATE: 0 MISSED OPPORTUNITY: 0 UNCOVERED: 0
L1I PREFETCHES SAME FILL-ORIGIN LEVEL: 0 DIFFERENT FILL-ORIGIN LEVEL: 0
L1I AVERAGE MISS LATENCY: 174.87 cycles
L1I AVERAGE MISS LATENCY LOAD: 174.87 cycles
L1I AVERAGE MISS LATENCY PREFETCH: -nan cycles
L1I AVERAGE MSHR OCCUPANCY: 1.3336e-07
L1I MSHR FULL: 0
L1I RQ	ACCESS:   71090136	FORWARD:          0	MERGED:   11102011	TO_CACHE:   59988125

BTB SPEC fills:          0  NON-SPEC fills:          0
BTB Test counter :          0
BTB Leapfrog:          0
BTB MSHR merge:          0
BTB TOTAL     ACCESS:   37027234  HIT:   37027062  MISS:        172  HIT %:    99.9995  MISS %: 0.000464523   MPKI: 0.00086
BTB BRANCH_DIRECT_JUMP	ACCESS:         67  HIT:         33  MISS:         34
BTB BRANCH_INDIRECT	ACCESS:          4  HIT:          0  MISS:          4
BTB BRANCH_CONDITIONAL	ACCESS:   37027097  HIT:   37027009  MISS:         88
BTB BRANCH_DIRECT_CALL	ACCESS:         28  HIT:         10  MISS:         18
BTB BRANCH_INDIRECT_CALL	ACCESS:          5  HIT:          1  MISS:          4
BTB BRANCH_RETURN	ACCESS:         33  HIT:          9  MISS:         24
BTB BRANCH_OTHER ACCESS:          0  HIT:          0  MISS:          0

L2C SPEC fills:          0  NON-SPEC fills:   22641159
L2C Test counter :          0
L2C Leapfrog:          0
L2C MSHR merge:     120995
L2C TOTAL     ACCESS:  118620017  HIT:   90320657  MISS:   28299360  HIT %:    76.1428  MISS %:    23.8572   MPKI: 141.497
L2C LOAD      TOTAL       ACCESS:   31947239  HIT:    9301283  MISS:   22645956  HIT %:    29.1145  MISS %:    70.8855   MPKI: 113.23
L2C LOAD      NON_SPEC    ACCESS:   31912341  HIT:    9271159  MISS:   22641182  HIT %:     29.052  MISS %:     70.948   MPKI: 113.206
L2C LOAD      SPEC        ACCESS:      34898  HIT:      30124  MISS:       4774  HIT %:    86.3201  MISS %:    13.6799   MPKI: 0.02387
L2C RFO       NON_SPEC    ACCESS:      65826  HIT:        343  MISS:      65483  HIT %:   0.521071  MISS %:    99.4789   MPKI: 0.327415
L2C PREFETCH  NON_SPEC    ACCESS:   72942501  HIT:   67370761  MISS:    5571740  HIT %:    92.3615  MISS %:    7.63854   MPKI: 27.8587
L2C WRITEBACK NON_SPEC    ACCESS:     133148  HIT:     132857  MISS:        291  HIT %:    99.7814  MISS %:   0.218554   MPKI: 0.001455
L2C CLEAN_EVICTION NON_SPEC    ACCESS:      46261  HIT:      44406  MISS:       1855  HIT %:    95.9901  MISS %:    4.00986   MPKI: 0.009275
L2C COMMIT LOAD NON_SPEC    ACCESS:         96  HIT:         96  MISS:          0  HIT %:        100  MISS %:          0   MPKI: 0
L2C LOAD TRANSLATION NON_SPEC    ACCESS:     127193  HIT:     126935  MISS:        258  HIT %:    99.7972  MISS %:   0.202841   MPKI: 0.00129
L2C TRANSLATION FROM L1D PREFETCHER NON_SPEC    ACCESS:   13357753  HIT:   13343976  MISS:      13777  HIT %:    99.8969  MISS %:   0.103139   MPKI: 0.068885
L2C PREFETCH  REQUESTED:          0  ISSUED:          0  USEFUL:     562609  USELESS:    5022954
L2C USEFUL LOAD PREFETCHES:     562609 PREFETCH ISSUED TO LOWER LEVEL:    5692735  ACCURACY: 9.88293
L2C TIMELY PREFETCHES:     562609 LATE PREFETCHES: 120995 DROPPED PREFETCHES: 0
L2C COMMIT LATE PREFETCHES: 0 MISSED OPPORTUNITY: 0 LATE IN PQ: 0 UNCOVERED: 0
L2C COMMIT LATE MSHR PREFETCHES: 0
L2C MPKI TOTAL: 113.23 MSHR LATE: 0.604975 PQ LATE: 0 COMMIT LATE: 0 MISSED OPPORTUNITY: 0 UNCOVERED: 0
L2C PREFETCHES SAME FILL-ORIGIN LEVEL: 5234129 DIFFERENT FILL-ORIGIN LEVEL: 0
L2C AVERAGE MISS LATENCY: 111.958 cycles
L2C AVERAGE MISS LATENCY LOAD: 101.93 cycles
L2C AVERAGE MISS LATENCY PREFETCH: 151.914 cycles
L2C AVERAGE MSHR OCCUPANCY: 0.363739
L2C MSHR FULL: 0
L2C RQ	ACCESS:   45498107	FORWARD:          0	MERGED:          0	TO_CACHE:   45498107
L2C WQ	ACCESS:     179409	FORWARD:          0	MERGED:          0	TO_CACHE:     179409
L2C PQ	ACCESS:   77778575	FORWARD:          0	MERGED:         17	TO_CACHE:   77778558

L2C Instructions Evicting Data 23
L2C Translations Evicting Data 14028
L2C Data Evicting Data 28264331
L2C Instructions Evicting Instructions 0
L2C Translations Evicting Instructions 0
L2C Data Evicting Instructions 23
L2C Instructions Evicting Translations 0
L2C Translations Evicting Translations 7
L2C Data Evicting Translations 14028
L2C Dense regions hint from L2: 0
PSCL5 SPEC fills:          0  NON-SPEC fills:          0
PSCL5 Test counter :          0
PSCL5 Leapfrog:          0
PSCL5 MSHR merge:          0
PSCL5 TOTAL     ACCESS:          0  HIT:          0  MISS:          0  HIT %:       -nan  MISS %:       -nan   MPKI: 0
PSCL5 PREFETCH  REQUESTED:          0  ISSUED:          0  USEFUL:          0  USELESS:          0
PSCL5 USEFUL LOAD PREFETCHES:          0 PREFETCH ISSUED TO LOWER LEVEL:          0  ACCURACY: -nan
PSCL5 TIMELY PREFETCHES:          0 LATE PREFETCHES: 0 DROPPED PREFETCHES: 0
PSCL5 COMMIT LATE PREFETCHES: 0 MISSED OPPORTUNITY: 0 LATE IN PQ: 0 UNCOVERED: 0
PSCL5 COMMIT LATE MSHR PREFETCHES: 0
PSCL5 MPKI TOTAL: 0 MSHR LATE: 0 PQ LATE: 0 COMMIT LATE: 0 MISSED OPPORTUNITY: 0 UNCOVERED: 0
PSCL5 PREFETCHES SAME FILL-ORIGIN LEVEL: 0 DIFFERENT FILL-ORIGIN LEVEL: 0

PSCL4 SPEC fills:          0  NON-SPEC fills:          0
PSCL4 Test counter :          0
PSCL4 Leapfrog:          0
PSCL4 MSHR merge:          0
PSCL4 TOTAL     ACCESS:          0  HIT:          0  MISS:          0  HIT %:       -nan  MISS %:       -nan   MPKI: 0
PSCL4 PREFETCH  REQUESTED:          0  ISSUED:          0  USEFUL:          0  USELESS:          0
PSCL4 USEFUL LOAD PREFETCHES:          0 PREFETCH ISSUED TO LOWER LEVEL:          0  ACCURACY: -nan
PSCL4 TIMELY PREFETCHES:          0 LATE PREFETCHES: 0 DROPPED PREFETCHES: 0
PSCL4 COMMIT LATE PREFETCHES: 0 MISSED OPPORTUNITY: 0 LATE IN PQ: 0 UNCOVERED: 0
PSCL4 COMMIT LATE MSHR PREFETCHES: 0
PSCL4 MPKI TOTAL: 0 MSHR LATE: 0 PQ LATE: 0 COMMIT LATE: 0 MISSED OPPORTUNITY: 0 UNCOVERED: 0
PSCL4 PREFETCHES SAME FILL-ORIGIN LEVEL: 0 DIFFERENT FILL-ORIGIN LEVEL: 0

PSCL3 SPEC fills:          0  NON-SPEC fills:          0
PSCL3 Test counter :          0
PSCL3 Leapfrog:          0
PSCL3 MSHR merge:          0
PSCL3 TOTAL     ACCESS:          0  HIT:          0  MISS:          0  HIT %:       -nan  MISS %:       -nan   MPKI: 0
PSCL3 PREFETCH  REQUESTED:          0  ISSUED:          0  USEFUL:          0  USELESS:          0
PSCL3 USEFUL LOAD PREFETCHES:          0 PREFETCH ISSUED TO LOWER LEVEL:          0  ACCURACY: -nan
PSCL3 TIMELY PREFETCHES:          0 LATE PREFETCHES: 0 DROPPED PREFETCHES: 0
PSCL3 COMMIT LATE PREFETCHES: 0 MISSED OPPORTUNITY: 0 LATE IN PQ: 0 UNCOVERED: 0
PSCL3 COMMIT LATE MSHR PREFETCHES: 0
PSCL3 MPKI TOTAL: 0 MSHR LATE: 0 PQ LATE: 0 COMMIT LATE: 0 MISSED OPPORTUNITY: 0 UNCOVERED: 0
PSCL3 PREFETCHES SAME FILL-ORIGIN LEVEL: 0 DIFFERENT FILL-ORIGIN LEVEL: 0

PSCL2 SPEC fills:          0  NON-SPEC fills:          0
PSCL2 Test counter :          0
PSCL2 Leapfrog:          0
PSCL2 MSHR merge:          0
PSCL2 TOTAL     ACCESS:          0  HIT:          0  MISS:          0  HIT %:       -nan  MISS %:       -nan   MPKI: 0
PSCL2 PREFETCH  REQUESTED:          0  ISSUED:          0  USEFUL:          0  USELESS:          0
PSCL2 USEFUL LOAD PREFETCHES:          0 PREFETCH ISSUED TO LOWER LEVEL:          0  ACCURACY: -nan
PSCL2 TIMELY PREFETCHES:          0 LATE PREFETCHES: 0 DROPPED PREFETCHES: 0
PSCL2 COMMIT LATE PREFETCHES: 0 MISSED OPPORTUNITY: 0 LATE IN PQ: 0 UNCOVERED: 0
PSCL2 COMMIT LATE MSHR PREFETCHES: 0
PSCL2 MPKI TOTAL: 0 MSHR LATE: 0 PQ LATE: 0 COMMIT LATE: 0 MISSED OPPORTUNITY: 0 UNCOVERED: 0
PSCL2 PREFETCHES SAME FILL-ORIGIN LEVEL: 0 DIFFERENT FILL-ORIGIN LEVEL: 0

LLC SPEC fills:          0  NON-SPEC fills:   10309104
LLC Test counter :          0
LLC Leapfrog:          0
LLC MSHR merge:          0
LLC TOTAL     ACCESS:   28463229  HIT:   13192946  MISS:   15270283  HIT %:    46.3508  MISS %:    53.6492   MPKI: 76.3514
LLC LOAD      TOTAL       ACCESS:   22524960  HIT:   12212040  MISS:   10312920  HIT %:    54.2156  MISS %:    45.7844   MPKI: 51.5646
LLC LOAD      NON_SPEC    ACCESS:   22520187  HIT:   12211060  MISS:   10309127  HIT %:    54.2227  MISS %:    45.7773   MPKI: 51.5456
LLC LOAD      SPEC        ACCESS:       4773  HIT:        980  MISS:       3793  HIT %:    20.5322  MISS %:    79.4678   MPKI: 0.018965
LLC RFO       NON_SPEC    ACCESS:      65483  HIT:       1586  MISS:      63897  HIT %:      2.422  MISS %:     97.578   MPKI: 0.319485
LLC PREFETCH  NON_SPEC    ACCESS:    5692735  HIT:     806561  MISS:    4886174  HIT %:    14.1683  MISS %:    85.8317   MPKI: 24.4309
LLC WRITEBACK NON_SPEC    ACCESS:     126098  HIT:     125881  MISS:        217  HIT %:    99.8279  MISS %:   0.172088   MPKI: 0.001085
LLC CLEAN_EVICTION NON_SPEC    ACCESS:      39918  HIT:      39066  MISS:        852  HIT %:    97.8656  MISS %:    2.13438   MPKI: 0.00426
LLC LOAD TRANSLATION NON_SPEC    ACCESS:        258  HIT:          8  MISS:        250  HIT %:    3.10078  MISS %:    96.8992   MPKI: 0.00125
LLC TRANSLATION FROM L1D PREFETCHER NON_SPEC    ACCESS:      13777  HIT:       7804  MISS:       5973  HIT %:    56.6451  MISS %:    43.3549   MPKI: 0.029865
LLC PREFETCH  REQUESTED:          0  ISSUED:          0  USEFUL:     390138  USELESS:    4502173
LLC USEFUL LOAD PREFETCHES:     390138 PREFETCH ISSUED TO LOWER LEVEL:    4886174  ACCURACY: 7.98453
LLC TIMELY PREFETCHES:     390138 LATE PREFETCHES: 0 DROPPED PREFETCHES: 0
LLC COMMIT LATE PREFETCHES: 0 MISSED OPPORTUNITY: 0 LATE IN PQ: 0 UNCOVERED: 0
LLC COMMIT LATE MSHR PREFETCHES: 0
LLC MPKI TOTAL: 51.5646 MSHR LATE: 0 PQ LATE: 0 COMMIT LATE: 0 MISSED OPPORTUNITY: 0 UNCOVERED: 0
LLC PREFETCHES SAME FILL-ORIGIN LEVEL: 0 DIFFERENT FILL-ORIGIN LEVEL: 0
LLC AVERAGE MISS LATENCY: 152.374 cycles
LLC AVERAGE MISS LATENCY LOAD: 157.375 cycles
LLC AVERAGE MISS LATENCY PREFETCH: 141.745 cycles
LLC AVERAGE MSHR OCCUPANCY: 0.20065
LLC MSHR FULL: 0
LLC RQ	ACCESS:   22604479	FORWARD:          0	MERGED:          0	TO_CACHE:   22604478
LLC WQ	ACCESS:     166016	FORWARD:          1	MERGED:          0	TO_CACHE:     166016
LLC PQ	ACCESS:    5692735	FORWARD:          0	MERGED:          0	TO_CACHE:    5692735

LLC Dense regions hint to LLC: 0

RAW hits: 21
Loads Generated: 77353857
Loads sent to L1D: 77353834
Stores Generated: 3299680
Stores sent to L1D: 3299680
Major fault: 0 Minor fault: 34900
Allocated PAGES: 34900
Total Load insts: 95651032
Total Non-spec loads: 45041237
Percentage of speculative loads: 52.9109

LeapFrogging counter: 0
Commit hits: 5845425 miss: 33766278
Commit hit %: 14.7568 miss %: 85.2432
Commits not translated: 0
Loads retired: 31982236
Stores retired: 3299680
Cache fills: 31982237
L1D response latency: 87.3139 cycles
Load retirement latency: 104.893 cycles
OOO test counter: 0
Discarded buffer inserts: 5845425 hits: 20528 hit %: 0.351181
Filter prediction accuracy: 99.9912
ALL MISSES SIZE: 2759
LATENCY_FILL: 87.203 31939585
LATENCY_FILL_ROB: 92.441 31936870
test counter pref: 607570200
Max ROB Extended: 10

DRAM Statistics
 CHANNEL 0
 RQ ROW_BUFFER_HIT:    3450123  ROW_BUFFER_MISS:   11819089
 DBUS_CONGESTED:      10838
 WQ ROW_BUFFER_HIT:      47494  ROW_BUFFER_MISS:     118850  FULL:          0

 AVG_CONGESTED_CYCLE: 3
 All warmup complete: 2
Channel 0 Bank busy for read cycles: 0
Channel 0 Bank busy for write cycles: 0
Channel 0
Rank 0
0banks busy for read cycles: 1843072578
0banks busy for write cycles: 92288
1banks busy for read cycles: 1467461432
1banks busy for write cycles: 21767905
2banks busy for read cycles: 156730757
2banks busy for write cycles: 2051534
3banks busy for read cycles: 22456244
3banks busy for write cycles: 724581
4banks busy for read cycles: 8469847
4banks busy for write cycles: 463768
5banks busy for read cycles: 4237493
5banks busy for write cycles: 349004
6banks busy for read cycles: 3825510
6banks busy for write cycles: 275104
7banks busy for read cycles: 2151860
7banks busy for write cycles: 414412
8banks busy for read cycles: 517156
8banks busy for write cycles: 2397537

CPU 0 Branch Prediction Accuracy: 96.9594% MPKI: 5.62926 Average ROB Occupancy at Mispredict: 138.015
Branch types
NOT_BRANCH: 162972286 81.4861%
BRANCH_DIRECT_JUMP: 67 3.35e-05%
BRANCH_INDIRECT: 4 2e-06%
BRANCH_CONDITIONAL: 37027324 18.5137%
BRANCH_DIRECT_CALL: 28 1.4e-05%
BRANCH_INDIRECT_CALL: 5 2.5e-06%
BRANCH_RETURN: 33 1.65e-05%
BRANCH_OTHER: 0 0%

DRAM PAGES: 1048576
Allocated PAGES: 34900
