
*** ChampSim Multicore Out-of-Order Simulator ***

Warmup Instructions: 50000000
Simulation Instructions: 200000000
Number of CPUs: 1
LLC sets: 2048
LLC ways: 16
L0D sets: 16
L0D ways: 2
ROB size: 352
LQ size: 128
SQ size: 72
Secure Berti: ON
Berti: ON
Berti Fill: ON
On commit prefetching: OFF
Hit-based filter: ON
Time-guarding: ON
Free-slotting: ON
Leap-frogging: ON
Train prefetcher on L0D bypass: OFF
No translation penalty for prefetchers: OFF
Prefetch to L0D only: OFF
Prefetch to L1D only: OFF
Clean evictions: ON
Commit loads: ON
Commit write: ON
Fill commit loads to L2C, LLC: ON
DRAM IO FREQUENCY: 6400
ROB SIZE: 352
Off-chip DRAM Size: 4096 MB Channels: 1 Width: 64-bit Data Rate: 6400 MT/s
CPU 0 runs /home/sumon/secure_berti/GhostMinion/../../traces/gap/pr-3.trace.gz
.gz
BTB has LRU replacement policy
ITLB has LRU replacement policy
DTLB has LRU replacement policy
STLB has LRU replacement policy
L1I has LRU replacement policy
L0D has LRU replacement policy
Berti version on_commit
History Sets: 8
History Ways: 16
BERTI Size: 16
BERTI Stride Size: 16
L1D has LRU replacement policy
L2C has LRU replacement policy
LLC has LRU replacement policy
Heartbeat CPU 0 instructions: 10000002 cycles: 3333770 heartbeat IPC: 2.99961 cumulative IPC: 2.99961 (Simulation time: 0 hr 0 min 28 sec) 
Heartbeat CPU 0 instructions: 20000002 cycles: 19171782 heartbeat IPC: 0.631392 cumulative IPC: 1.0432 (Simulation time: 0 hr 1 min 29 sec) 
Heartbeat CPU 0 instructions: 30000001 cycles: 37159577 heartbeat IPC: 0.555932 cumulative IPC: 0.807329 (Simulation time: 0 hr 2 min 35 sec) 
Heartbeat CPU 0 instructions: 40000000 cycles: 55242219 heartbeat IPC: 0.553016 cumulative IPC: 0.724084 (Simulation time: 0 hr 3 min 40 sec) 
Heartbeat CPU 0 instructions: 50000000 cycles: 73366684 heartbeat IPC: 0.55174 cumulative IPC: 0.681508 (Simulation time: 0 hr 4 min 43 sec) 

Warmup complete CPU 0 instructions: 50000001 cycles: 73366685 (Simulation time: 0 hr 4 min 43 sec) 

Heartbeat CPU 0 instructions: 60000003 cycles: 256635182 heartbeat IPC: 0.0545648 cumulative IPC: 0.0545648 (Simulation time: 0 hr 7 min 4 sec) 
Heartbeat CPU 0 instructions: 70000001 cycles: 442939337 heartbeat IPC: 0.0536757 cumulative IPC: 0.0541166 (Simulation time: 0 hr 9 min 25 sec) 
Heartbeat CPU 0 instructions: 80000003 cycles: 630244474 heartbeat IPC: 0.0533888 cumulative IPC: 0.0538718 (Simulation time: 0 hr 11 min 46 sec) 
Heartbeat CPU 0 instructions: 90000000 cycles: 817350397 heartbeat IPC: 0.0534456 cumulative IPC: 0.0537646 (Simulation time: 0 hr 14 min 7 sec) 
Heartbeat CPU 0 instructions: 100000002 cycles: 1005371907 heartbeat IPC: 0.0531854 cumulative IPC: 0.0536478 (Simulation time: 0 hr 16 min 30 sec) 
Heartbeat CPU 0 instructions: 110000000 cycles: 1191896325 heartbeat IPC: 0.0536123 cumulative IPC: 0.0536418 (Simulation time: 0 hr 18 min 48 sec) 
Heartbeat CPU 0 instructions: 120000001 cycles: 1379028520 heartbeat IPC: 0.0534382 cumulative IPC: 0.0536127 (Simulation time: 0 hr 21 min 3 sec) 
Heartbeat CPU 0 instructions: 130000001 cycles: 1565915414 heartbeat IPC: 0.0535083 cumulative IPC: 0.0535996 (Simulation time: 0 hr 23 min 17 sec) 
Heartbeat CPU 0 instructions: 140000002 cycles: 1753317212 heartbeat IPC: 0.0533613 cumulative IPC: 0.053573 (Simulation time: 0 hr 25 min 29 sec) 
Heartbeat CPU 0 instructions: 150000000 cycles: 1940563880 heartbeat IPC: 0.0534055 cumulative IPC: 0.0535562 (Simulation time: 0 hr 27 min 39 sec) 
Heartbeat CPU 0 instructions: 160000002 cycles: 2127307375 heartbeat IPC: 0.0535494 cumulative IPC: 0.0535556 (Simulation time: 0 hr 29 min 48 sec) 
Heartbeat CPU 0 instructions: 170000003 cycles: 2314422990 heartbeat IPC: 0.0534429 cumulative IPC: 0.0535462 (Simulation time: 0 hr 31 min 58 sec) 
Heartbeat CPU 0 instructions: 180000002 cycles: 2502376298 heartbeat IPC: 0.0532047 cumulative IPC: 0.0535198 (Simulation time: 0 hr 34 min 7 sec) 
Heartbeat CPU 0 instructions: 190000000 cycles: 2638627578 heartbeat IPC: 0.0733938 cumulative IPC: 0.0545753 (Simulation time: 0 hr 35 min 51 sec) 
Heartbeat CPU 0 instructions: 200000001 cycles: 2680137735 heartbeat IPC: 0.240905 cumulative IPC: 0.0575425 (Simulation time: 0 hr 36 min 40 sec) 
Heartbeat CPU 0 instructions: 210000003 cycles: 2866639630 heartbeat IPC: 0.0536188 cumulative IPC: 0.0572805 (Simulation time: 0 hr 38 min 49 sec) 
Heartbeat CPU 0 instructions: 220000000 cycles: 3051375000 heartbeat IPC: 0.0541315 cumulative IPC: 0.0570851 (Simulation time: 0 hr 40 min 57 sec) 
Heartbeat CPU 0 instructions: 230000000 cycles: 3238907376 heartbeat IPC: 0.0533241 cumulative IPC: 0.0568623 (Simulation time: 0 hr 43 min 6 sec) 
Heartbeat CPU 0 instructions: 240000003 cycles: 3427650540 heartbeat IPC: 0.0529821 cumulative IPC: 0.056644 (Simulation time: 0 hr 45 min 16 sec) 
Heartbeat CPU 0 instructions: 250000001 cycles: 3610405444 heartbeat IPC: 0.0547181 cumulative IPC: 0.0565445 (Simulation time: 0 hr 47 min 25 sec) 
Finished CPU 0 instructions: 200000000 cycles: 3537038759 cumulative IPC: 0.0565445 (Simulation time: 0 hr 47 min 25 sec) 
 Instruction ID: 250000383

ChampSim completed all CPUs

Region of Interest Statistics

CPU 0 cumulative IPC: 0.0565445 instructions: 200000000 cycles: 3537038759
ITLB SPEC fills:          0  NON-SPEC fills:          0
ITLB Test counter :          0
ITLB Leapfrog:          0
ITLB MSHR merge:          0
ITLB TOTAL     ACCESS:   58806382  HIT:   58806382  MISS:          0  HIT %:        100  MISS %:          0   MPKI: 0
ITLB LOAD TRANSLATION NON_SPEC    ACCESS:   58806382  HIT:   58806382  MISS:          0  HIT %:        100  MISS %:          0   MPKI: 0
ITLB PREFETCH  REQUESTED:          0  ISSUED:          0  USEFUL:          0  USELESS:          0
ITLB USEFUL LOAD PREFETCHES:          0 PREFETCH ISSUED TO LOWER LEVEL:          0  ACCURACY: -nan
ITLB TIMELY PREFETCHES:          0 LATE PREFETCHES: 0 DROPPED PREFETCHES: 0
ITLB COMMIT LATE PREFETCHES: 0 MISSED OPPORTUNITY: 0 LATE IN PQ: 0 UNCOVERED: 0
ITLB COMMIT LATE MSHR PREFETCHES: 0
ITLB MPKI TOTAL: 0 MSHR LATE: 0 PQ LATE: 0 COMMIT LATE: 0 MISSED OPPORTUNITY: 0 UNCOVERED: 0
ITLB PREFETCHES SAME FILL-ORIGIN LEVEL: 0 DIFFERENT FILL-ORIGIN LEVEL: 0
ITLB AVERAGE MISS LATENCY: -nan cycles
ITLB AVERAGE MISS LATENCY LOAD: -nan cycles
ITLB AVERAGE MISS LATENCY PREFETCH: -nan cycles
ITLB AVERAGE MSHR OCCUPANCY: 0
ITLB MSHR FULL: 0
ITLB RQ	ACCESS:   59931703	FORWARD:          0	MERGED:    1125322	TO_CACHE:   58806381

DTLB SPEC fills:          0  NON-SPEC fills:          0
DTLB Test counter :          0
DTLB Leapfrog:          0
DTLB MSHR merge:          0
DTLB TOTAL     ACCESS:   71592188  HIT:   48706573  MISS:   22885615  HIT %:    68.0334  MISS %:    31.9666   MPKI: 114.428
DTLB LOAD TRANSLATION NON_SPEC    ACCESS:   71592188  HIT:   48706573  MISS:   22885615  HIT %:    68.0334  MISS %:    31.9666   MPKI: 114.428
DTLB PREFETCH  REQUESTED:          0  ISSUED:          0  USEFUL:          0  USELESS:          0
DTLB USEFUL LOAD PREFETCHES:          0 PREFETCH ISSUED TO LOWER LEVEL:          0  ACCURACY: -nan
DTLB TIMELY PREFETCHES:          0 LATE PREFETCHES: 0 DROPPED PREFETCHES: 0
DTLB COMMIT LATE PREFETCHES: 0 MISSED OPPORTUNITY: 0 LATE IN PQ: 0 UNCOVERED: 0
DTLB COMMIT LATE MSHR PREFETCHES: 0
DTLB MPKI TOTAL: 0 MSHR LATE: 0 PQ LATE: 0 COMMIT LATE: 0 MISSED OPPORTUNITY: 0 UNCOVERED: 0
DTLB PREFETCHES SAME FILL-ORIGIN LEVEL: 0 DIFFERENT FILL-ORIGIN LEVEL: 0
DTLB AVERAGE MISS LATENCY: 9.18638 cycles
DTLB AVERAGE MISS LATENCY LOAD: -nan cycles
DTLB AVERAGE MISS LATENCY PREFETCH: -nan cycles
DTLB AVERAGE MSHR OCCUPANCY: 0.19303
DTLB MSHR FULL: 0
DTLB RQ	ACCESS:   72432772	FORWARD:          0	MERGED:     831220	TO_CACHE:   71601552

STLB SPEC fills:          0  NON-SPEC fills:          0
STLB Test counter :          0
STLB Leapfrog:          0
STLB MSHR merge:          0
STLB TOTAL     ACCESS:   64989411  HIT:   64948546  MISS:      40865  HIT %:    99.9371  MISS %:  0.0628795   MPKI: 0.204325
STLB LOAD TRANSLATION NON_SPEC    ACCESS:   22885614  HIT:   22860104  MISS:      25510  HIT %:    99.8885  MISS %:   0.111467   MPKI: 0.12755
STLB TRANSLATION FROM L1D PREFETCHER NON_SPEC    ACCESS:   42103797  HIT:   42088442  MISS:      15355  HIT %:    99.9635  MISS %:  0.0364694   MPKI: 0.076775
STLB PREFETCH  REQUESTED:          0  ISSUED:          0  USEFUL:      15355  USELESS:          0
STLB USEFUL LOAD PREFETCHES:      15355 PREFETCH ISSUED TO LOWER LEVEL:          0  ACCURACY: inf
STLB TIMELY PREFETCHES:      15355 LATE PREFETCHES: 14758 DROPPED PREFETCHES: 2562532
STLB COMMIT LATE PREFETCHES: 0 MISSED OPPORTUNITY: 0 LATE IN PQ: 0 UNCOVERED: 0
STLB COMMIT LATE MSHR PREFETCHES: 0
STLB MPKI TOTAL: 0 MSHR LATE: 0.07379 PQ LATE: 0 COMMIT LATE: 0 MISSED OPPORTUNITY: 0 UNCOVERED: 0
STLB PREFETCHES SAME FILL-ORIGIN LEVEL: 0 DIFFERENT FILL-ORIGIN LEVEL: 0
STLB AVERAGE MISS LATENCY: 153.793 cycles
STLB AVERAGE MISS LATENCY LOAD: -nan cycles
STLB AVERAGE MISS LATENCY PREFETCH: -nan cycles
STLB AVERAGE MSHR OCCUPANCY: 0.0553296
STLB MSHR FULL: 0
STLB RQ	ACCESS:  299004853	FORWARD:          0	MERGED:  231343247	TO_CACHE:   67661606

STLB Hit, L1D data hit: 0
STLB Hit, L2C data hit: 0
STLB Hit, LLC data hit: 0
STLB Hit, LLC data miss: 0
STLB STLB hints to L2: 0
L0D SPEC fills:    5874646  NON-SPEC fills:          0
L0D TimeGuard Request with older TS:      70149 Restricted eviction:      12574 read:          3
L0D Test counter :          0
L0D Leapfrog:          0
L0D MSHR merge:    1109951
L0D TOTAL     ACCESS:   68022219  HIT:   24468258  MISS:   43553961  HIT %:     35.971  MISS %:     64.029   MPKI: 217.77
L0D LOAD      TOTAL       ACCESS:   68022219  HIT:   24468258  MISS:   43553961  HIT %:     35.971  MISS %:     64.029   MPKI: 217.77
L0D LOAD      NON_SPEC    ACCESS:   37666746  HIT:          5  MISS:   37666741  HIT %: 1.32743e-05  MISS %:        100   MPKI: 188.334
L0D LOAD      SPEC        ACCESS:   30355473  HIT:   24468253  MISS:    5887220  HIT %:    80.6057  MISS %:    19.3943   MPKI: 29.4361
L0D PREFETCH  REQUESTED:          0  ISSUED:          0  USEFUL:          0  USELESS:          0
L0D USEFUL LOAD PREFETCHES:          0 PREFETCH ISSUED TO LOWER LEVEL:          0  ACCURACY: -nan
L0D TIMELY PREFETCHES:          0 LATE PREFETCHES: 0 DROPPED PREFETCHES: 0
L0D COMMIT LATE PREFETCHES: 0 MISSED OPPORTUNITY: 0 LATE IN PQ: 0 UNCOVERED: 0
L0D COMMIT LATE MSHR PREFETCHES: 0
L0D MPKI TOTAL: 223.32 MSHR LATE: 0 PQ LATE: 0 COMMIT LATE: 0 MISSED OPPORTUNITY: 0 UNCOVERED: 0
L0D PREFETCHES SAME FILL-ORIGIN LEVEL: 0 DIFFERENT FILL-ORIGIN LEVEL: 0
L0D AVERAGE MISS LATENCY: 69.1242 cycles
L0D AVERAGE MISS LATENCY LOAD: 69.1242 cycles
L0D AVERAGE MISS LATENCY PREFETCH: -nan cycles
L0D AVERAGE MSHR OCCUPANCY: 0.220672
L0D MSHR FULL: 0
L0D RQ	ACCESS:   77353315	FORWARD:          0	MERGED:    8221146	TO_CACHE:   69132169
L0D WQ	ACCESS:    3300603	FORWARD:          0	MERGED:          0	TO_CACHE:    3300603

L1D SPEC fills:          0  NON-SPEC fills:   31866329
L1D Test counter :          0
L1D Leapfrog:          0
L1D MSHR merge:      41178
L1D TOTAL     ACCESS:  231346802  HIT:  196663019  MISS:   34683783  HIT %:    85.0079  MISS %:    14.9921   MPKI: 173.419
L1D LOAD      TOTAL       ACCESS:   43553950  HIT:   11628271  MISS:   31925679  HIT %:    26.6985  MISS %:    73.3015   MPKI: 159.628
L1D LOAD      NON_SPEC    ACCESS:   37666737  HIT:    5800408  MISS:   31866329  HIT %:    15.3993  MISS %:    84.6007   MPKI: 159.332
L1D LOAD      SPEC        ACCESS:    5887213  HIT:    5827863  MISS:      59350  HIT %:    98.9919  MISS %:    1.00812   MPKI: 0.29675
L1D RFO       NON_SPEC    ACCESS:    2580878  HIT:    2515058  MISS:      65820  HIT %:    97.4497  MISS %:    2.55029   MPKI: 0.3291
L1D PREFETCH  NON_SPEC    ACCESS:  184961711  HIT:  182299120  MISS:    2662591  HIT %:    98.5605  MISS %:    1.43954   MPKI: 13.313
L1D COMMIT LOAD NON_SPEC    ACCESS:     188885  HIT:     188767  MISS:        118  HIT %:    99.9375  MISS %:  0.0624719   MPKI: 0.00059
L1D COMMIT WRITE NON_SPEC    ACCESS:      61378  HIT:      31803  MISS:      29575  HIT %:     51.815  MISS %:     48.185   MPKI: 0.147875
L1D PREFETCH  REQUESTED:  292333267  ISSUED:  289915107  USEFUL:    2565911  USELESS:      96683
L1D USEFUL LOAD PREFETCHES:    2565911 PREFETCH ISSUED TO LOWER LEVEL:   85702339  ACCURACY: 2.99398
L1D TIMELY PREFETCHES:    2565911 LATE PREFETCHES: 41167 DROPPED PREFETCHES: 6394431
L1D COMMIT LATE PREFETCHES: 0 MISSED OPPORTUNITY: 0 LATE IN PQ: 0 UNCOVERED: 0
L1D COMMIT LATE MSHR PREFETCHES: 0
L1D MPKI TOTAL: 159.628 MSHR LATE: 0.205835 PQ LATE: 0 COMMIT LATE: 0 MISSED OPPORTUNITY: 0 UNCOVERED: 0
L1D PREFETCHES SAME FILL-ORIGIN LEVEL: 2703758 DIFFERENT FILL-ORIGIN LEVEL: 82998581
L1D AVERAGE MISS LATENCY: 84.5187 cycles
L1D AVERAGE MISS LATENCY LOAD: 87.4755 cycles
L1D AVERAGE MISS LATENCY PREFETCH: 47.2483 cycles
L1D AVERAGE MSHR OCCUPANCY: 0.216886
L1D MSHR FULL: 0
L1D RQ	ACCESS:   43743027	FORWARD:          0	MERGED:        180	TO_CACHE:   43742846
L1D WQ	ACCESS:    3361981	FORWARD:          1	MERGED:        350	TO_CACHE:    3361631
L1D PQ	ACCESS:  289915107	FORWARD:          0	MERGED:   13795868	TO_CACHE:  276119239

L1D UNIQUE REGIONS ACCESSED: 0
L1D REGIONS CONFLICTS: 0
L1D Cross Page Prefetch Requests: 30289652
L1D Same Page Prefetch Requests: 328949045
L1D ROI Sum of L1D PQ occupancy: 4883802585
L1D PREFETCHES PUSHED FROM L2C: 0
L1I SPEC fills:          0  NON-SPEC fills:          0
L1I Test counter :          0
L1I Leapfrog:          0
L1I MSHR merge:          1
L1I TOTAL     ACCESS:   59931703  HIT:   59931680  MISS:         23  HIT %:        100  MISS %: 3.8377e-05   MPKI: 0.000115
L1I LOAD      TOTAL       ACCESS:   59931703  HIT:   59931680  MISS:         23  HIT %:        100  MISS %: 3.8377e-05   MPKI: 0.000115
L1I LOAD      NON_SPEC    ACCESS:   59931703  HIT:   59931680  MISS:         23  HIT %:        100  MISS %: 3.8377e-05   MPKI: 0.000115
L1I PREFETCH  REQUESTED:          0  ISSUED:          0  USEFUL:          0  USELESS:          0
L1I USEFUL LOAD PREFETCHES:          0 PREFETCH ISSUED TO LOWER LEVEL:          0  ACCURACY: -nan
L1I TIMELY PREFETCHES:          0 LATE PREFETCHES: 0 DROPPED PREFETCHES: 0
L1I COMMIT LATE PREFETCHES: 0 MISSED OPPORTUNITY: 0 LATE IN PQ: 0 UNCOVERED: 0
L1I COMMIT LATE MSHR PREFETCHES: 0
L1I MPKI TOTAL: 0.00012 MSHR LATE: 0 PQ LATE: 0 COMMIT LATE: 0 MISSED OPPORTUNITY: 0 UNCOVERED: 0
L1I PREFETCHES SAME FILL-ORIGIN LEVEL: 0 DIFFERENT FILL-ORIGIN LEVEL: 0
L1I AVERAGE MISS LATENCY: 170.522 cycles
L1I AVERAGE MISS LATENCY LOAD: 170.522 cycles
L1I AVERAGE MISS LATENCY PREFETCH: -nan cycles
L1I AVERAGE MSHR OCCUPANCY: 1.50171e-07
L1I MSHR FULL: 0
L1I RQ	ACCESS:   71036255	FORWARD:          0	MERGED:   11104552	TO_CACHE:   59931703

BTB SPEC fills:          0  NON-SPEC fills:          0
BTB Test counter :          0
BTB Leapfrog:          0
BTB MSHR merge:          0
BTB TOTAL     ACCESS:   37026577  HIT:   37026405  MISS:        172  HIT %:    99.9995  MISS %: 0.000464531   MPKI: 0.00086
BTB BRANCH_DIRECT_JUMP	ACCESS:         66  HIT:         33  MISS:         33
BTB BRANCH_INDIRECT	ACCESS:          4  HIT:          0  MISS:          4
BTB BRANCH_CONDITIONAL	ACCESS:   37026441  HIT:   37026352  MISS:         89
BTB BRANCH_DIRECT_CALL	ACCESS:         28  HIT:         10  MISS:         18
BTB BRANCH_INDIRECT_CALL	ACCESS:          5  HIT:          1  MISS:          4
BTB BRANCH_RETURN	ACCESS:         33  HIT:          9  MISS:         24
BTB BRANCH_OTHER ACCESS:          0  HIT:          0  MISS:          0

L2C SPEC fills:          0  NON-SPEC fills:   22658285
L2C Test counter :          0
L2C Leapfrog:          0
L2C MSHR merge:     125344
L2C TOTAL     ACCESS:  126060585  HIT:   97677636  MISS:   28382949  HIT %:    77.4847  MISS %:    22.5153   MPKI: 141.915
L2C LOAD      TOTAL       ACCESS:   31884520  HIT:    9221463  MISS:   22663057  HIT %:    28.9214  MISS %:    71.0786   MPKI: 113.315
L2C LOAD      NON_SPEC    ACCESS:   31850239  HIT:    9191931  MISS:   22658308  HIT %:    28.8598  MISS %:    71.1402   MPKI: 113.292
L2C LOAD      SPEC        ACCESS:      34281  HIT:      29532  MISS:       4749  HIT %:    86.1468  MISS %:    13.8532   MPKI: 0.023745
L2C RFO       NON_SPEC    ACCESS:      65820  HIT:        397  MISS:      65423  HIT %:    0.60316  MISS %:    99.3968   MPKI: 0.327115
L2C PREFETCH  NON_SPEC    ACCESS:   80846645  HIT:   75207592  MISS:    5639053  HIT %:     93.025  MISS %:      6.975   MPKI: 28.1953
L2C WRITEBACK NON_SPEC    ACCESS:     133293  HIT:     132813  MISS:        480  HIT %:    99.6399  MISS %:   0.360109   MPKI: 0.0024
L2C CLEAN_EVICTION NON_SPEC    ACCESS:      45835  HIT:      44036  MISS:       1799  HIT %:    96.0751  MISS %:    3.92495   MPKI: 0.008995
L2C COMMIT LOAD NON_SPEC    ACCESS:        118  HIT:        115  MISS:          3  HIT %:    97.4576  MISS %:    2.54237   MPKI: 1.5e-05
L2C LOAD TRANSLATION NON_SPEC    ACCESS:     127503  HIT:     127251  MISS:        252  HIT %:    99.8024  MISS %:   0.197642   MPKI: 0.00126
L2C TRANSLATION FROM L1D PREFETCHER NON_SPEC    ACCESS:   12956851  HIT:   12943969  MISS:      12882  HIT %:    99.9006  MISS %:  0.0994223   MPKI: 0.06441
L2C PREFETCH  REQUESTED:          0  ISSUED:          0  USEFUL:     562592  USELESS:    5089535
L2C USEFUL LOAD PREFETCHES:     562592 PREFETCH ISSUED TO LOWER LEVEL:    5764397  ACCURACY: 9.75977
L2C TIMELY PREFETCHES:     562592 LATE PREFETCHES: 125344 DROPPED PREFETCHES: 0
L2C COMMIT LATE PREFETCHES: 0 MISSED OPPORTUNITY: 0 LATE IN PQ: 0 UNCOVERED: 0
L2C COMMIT LATE MSHR PREFETCHES: 0
L2C MPKI TOTAL: 113.315 MSHR LATE: 0.62672 PQ LATE: 0 COMMIT LATE: 0 MISSED OPPORTUNITY: 0 UNCOVERED: 0
L2C PREFETCHES SAME FILL-ORIGIN LEVEL: 5299862 DIFFERENT FILL-ORIGIN LEVEL: 0
L2C AVERAGE MISS LATENCY: 111.968 cycles
L2C AVERAGE MISS LATENCY LOAD: 101.892 cycles
L2C AVERAGE MISS LATENCY PREFETCH: 151.687 cycles
L2C AVERAGE MSHR OCCUPANCY: 0.367564
L2C MSHR FULL: 0
L2C RQ	ACCESS:   45034827	FORWARD:          0	MERGED:          0	TO_CACHE:   45034812
L2C WQ	ACCESS:     179128	FORWARD:         15	MERGED:          0	TO_CACHE:     179128
L2C PQ	ACCESS:   85702339	FORWARD:          0	MERGED:         16	TO_CACHE:   85702323

L2C Instructions Evicting Data 23
L2C Translations Evicting Data 13131
L2C Data Evicting Data 28349607
L2C Instructions Evicting Instructions 0
L2C Translations Evicting Instructions 0
L2C Data Evicting Instructions 23
L2C Instructions Evicting Translations 0
L2C Translations Evicting Translations 3
L2C Data Evicting Translations 13134
L2C Dense regions hint from L2: 0
PSCL5 SPEC fills:          0  NON-SPEC fills:          0
PSCL5 Test counter :          0
PSCL5 Leapfrog:          0
PSCL5 MSHR merge:          0
PSCL5 TOTAL     ACCESS:          0  HIT:          0  MISS:          0  HIT %:       -nan  MISS %:       -nan   MPKI: 0
PSCL5 PREFETCH  REQUESTED:          0  ISSUED:          0  USEFUL:          0  USELESS:          0
PSCL5 USEFUL LOAD PREFETCHES:          0 PREFETCH ISSUED TO LOWER LEVEL:          0  ACCURACY: -nan
PSCL5 TIMELY PREFETCHES:          0 LATE PREFETCHES: 0 DROPPED PREFETCHES: 0
PSCL5 COMMIT LATE PREFETCHES: 0 MISSED OPPORTUNITY: 0 LATE IN PQ: 0 UNCOVERED: 0
PSCL5 COMMIT LATE MSHR PREFETCHES: 0
PSCL5 MPKI TOTAL: 0 MSHR LATE: 0 PQ LATE: 0 COMMIT LATE: 0 MISSED OPPORTUNITY: 0 UNCOVERED: 0
PSCL5 PREFETCHES SAME FILL-ORIGIN LEVEL: 0 DIFFERENT FILL-ORIGIN LEVEL: 0

PSCL4 SPEC fills:          0  NON-SPEC fills:          0
PSCL4 Test counter :          0
PSCL4 Leapfrog:          0
PSCL4 MSHR merge:          0
PSCL4 TOTAL     ACCESS:          0  HIT:          0  MISS:          0  HIT %:       -nan  MISS %:       -nan   MPKI: 0
PSCL4 PREFETCH  REQUESTED:          0  ISSUED:          0  USEFUL:          0  USELESS:          0
PSCL4 USEFUL LOAD PREFETCHES:          0 PREFETCH ISSUED TO LOWER LEVEL:          0  ACCURACY: -nan
PSCL4 TIMELY PREFETCHES:          0 LATE PREFETCHES: 0 DROPPED PREFETCHES: 0
PSCL4 COMMIT LATE PREFETCHES: 0 MISSED OPPORTUNITY: 0 LATE IN PQ: 0 UNCOVERED: 0
PSCL4 COMMIT LATE MSHR PREFETCHES: 0
PSCL4 MPKI TOTAL: 0 MSHR LATE: 0 PQ LATE: 0 COMMIT LATE: 0 MISSED OPPORTUNITY: 0 UNCOVERED: 0
PSCL4 PREFETCHES SAME FILL-ORIGIN LEVEL: 0 DIFFERENT FILL-ORIGIN LEVEL: 0

PSCL3 SPEC fills:          0  NON-SPEC fills:          0
PSCL3 Test counter :          0
PSCL3 Leapfrog:          0
PSCL3 MSHR merge:          0
PSCL3 TOTAL     ACCESS:          0  HIT:          0  MISS:          0  HIT %:       -nan  MISS %:       -nan   MPKI: 0
PSCL3 PREFETCH  REQUESTED:          0  ISSUED:          0  USEFUL:          0  USELESS:          0
PSCL3 USEFUL LOAD PREFETCHES:          0 PREFETCH ISSUED TO LOWER LEVEL:          0  ACCURACY: -nan
PSCL3 TIMELY PREFETCHES:          0 LATE PREFETCHES: 0 DROPPED PREFETCHES: 0
PSCL3 COMMIT LATE PREFETCHES: 0 MISSED OPPORTUNITY: 0 LATE IN PQ: 0 UNCOVERED: 0
PSCL3 COMMIT LATE MSHR PREFETCHES: 0
PSCL3 MPKI TOTAL: 0 MSHR LATE: 0 PQ LATE: 0 COMMIT LATE: 0 MISSED OPPORTUNITY: 0 UNCOVERED: 0
PSCL3 PREFETCHES SAME FILL-ORIGIN LEVEL: 0 DIFFERENT FILL-ORIGIN LEVEL: 0

PSCL2 SPEC fills:          0  NON-SPEC fills:          0
PSCL2 Test counter :          0
PSCL2 Leapfrog:          0
PSCL2 MSHR merge:          0
PSCL2 TOTAL     ACCESS:          0  HIT:          0  MISS:          0  HIT %:       -nan  MISS %:       -nan   MPKI: 0
PSCL2 PREFETCH  REQUESTED:          0  ISSUED:          0  USEFUL:          0  USELESS:          0
PSCL2 USEFUL LOAD PREFETCHES:          0 PREFETCH ISSUED TO LOWER LEVEL:          0  ACCURACY: -nan
PSCL2 TIMELY PREFETCHES:          0 LATE PREFETCHES: 0 DROPPED PREFETCHES: 0
PSCL2 COMMIT LATE PREFETCHES: 0 MISSED OPPORTUNITY: 0 LATE IN PQ: 0 UNCOVERED: 0
PSCL2 COMMIT LATE MSHR PREFETCHES: 0
PSCL2 MPKI TOTAL: 0 MSHR LATE: 0 PQ LATE: 0 COMMIT LATE: 0 MISSED OPPORTUNITY: 0 UNCOVERED: 0
PSCL2 PREFETCHES SAME FILL-ORIGIN LEVEL: 0 DIFFERENT FILL-ORIGIN LEVEL: 0

LLC SPEC fills:          0  NON-SPEC fills:   10272562
LLC Test counter :          0
LLC Leapfrog:          0
LLC MSHR merge:          0
LLC TOTAL     ACCESS:   28546972  HIT:   13186737  MISS:   15360235  HIT %:    46.1931  MISS %:    53.8069   MPKI: 76.8012
LLC LOAD      TOTAL       ACCESS:   22537713  HIT:   12261347  MISS:   10276366  HIT %:    54.4037  MISS %:    45.5963   MPKI: 51.3818
LLC LOAD      NON_SPEC    ACCESS:   22532964  HIT:   12260379  MISS:   10272585  HIT %:    54.4109  MISS %:    45.5891   MPKI: 51.3629
LLC LOAD      SPEC        ACCESS:       4749  HIT:        968  MISS:       3781  HIT %:    20.3832  MISS %:    79.6168   MPKI: 0.018905
LLC RFO       NON_SPEC    ACCESS:      65423  HIT:       1444  MISS:      63979  HIT %:    2.20717  MISS %:    97.7928   MPKI: 0.319895
LLC PREFETCH  NON_SPEC    ACCESS:    5764397  HIT:     751908  MISS:    5012489  HIT %:     13.044  MISS %:     86.956   MPKI: 25.0624
LLC WRITEBACK NON_SPEC    ACCESS:     126719  HIT:     126474  MISS:        245  HIT %:    99.8067  MISS %:   0.193341   MPKI: 0.001225
LLC CLEAN_EVICTION NON_SPEC    ACCESS:      39583  HIT:      38687  MISS:        896  HIT %:    97.7364  MISS %:     2.2636   MPKI: 0.00448
LLC COMMIT LOAD NON_SPEC    ACCESS:          3  HIT:          2  MISS:          1  HIT %:    66.6667  MISS %:    33.3333   MPKI: 5e-06
LLC LOAD TRANSLATION NON_SPEC    ACCESS:        252  HIT:          2  MISS:        250  HIT %:   0.793651  MISS %:    99.2063   MPKI: 0.00125
LLC TRANSLATION FROM L1D PREFETCHER NON_SPEC    ACCESS:      12882  HIT:       6873  MISS:       6009  HIT %:    53.3535  MISS %:    46.6465   MPKI: 0.030045
LLC PREFETCH  REQUESTED:          0  ISSUED:          0  USEFUL:     391785  USELESS:    4629136
LLC USEFUL LOAD PREFETCHES:     391785 PREFETCH ISSUED TO LOWER LEVEL:    5012489  ACCURACY: 7.81618
LLC TIMELY PREFETCHES:     391785 LATE PREFETCHES: 0 DROPPED PREFETCHES: 0
LLC COMMIT LATE PREFETCHES: 0 MISSED OPPORTUNITY: 0 LATE IN PQ: 0 UNCOVERED: 0
LLC COMMIT LATE MSHR PREFETCHES: 0
LLC MPKI TOTAL: 51.3818 MSHR LATE: 0 PQ LATE: 0 COMMIT LATE: 0 MISSED OPPORTUNITY: 0 UNCOVERED: 0
LLC PREFETCHES SAME FILL-ORIGIN LEVEL: 0 DIFFERENT FILL-ORIGIN LEVEL: 0
LLC AVERAGE MISS LATENCY: 151.96 cycles
LLC AVERAGE MISS LATENCY LOAD: 157.971 cycles
LLC AVERAGE MISS LATENCY PREFETCH: 139.594 cycles
LLC AVERAGE MSHR OCCUPANCY: 0.201756
LLC MSHR FULL: 0
LLC RQ	ACCESS:   22616273	FORWARD:          0	MERGED:          0	TO_CACHE:   22616273
LLC WQ	ACCESS:     166302	FORWARD:          0	MERGED:          0	TO_CACHE:     166302
LLC PQ	ACCESS:    5764397	FORWARD:          0	MERGED:          0	TO_CACHE:    5764397

LLC Dense regions hint to LLC: 0

RAW hits: 20
Loads Generated: 77353336
Loads sent to L1D: 77353315
Stores Generated: 3300603
Stores sent to L1D: 3300603
Major fault: 0 Minor fault: 34900
Allocated PAGES: 34900
Total Load insts: 95642811
Total Non-spec loads: 45001099
Percentage of speculative loads: 52.9488

LeapFrogging counter: 0
Commit hits: 5874633 miss: 33758085
Commit hit %: 14.8227 miss %: 85.1773
Commits not translated: 0
Loads retired: 31925679
Stores retired: 3300603
Cache fills: 31925679
L1D response latency: 87.4755 cycles
Load retirement latency: 104.783 cycles
OOO test counter: 0
Discarded buffer inserts: 5874633 hits: 20406 hit %: 0.347358
Filter prediction accuracy: 99.9915
ALL MISSES SIZE: 2667
LATENCY_FILL: 87.3635 31882994
LATENCY_FILL_ROB: 92.3573 31880374
test counter pref: 606393733
Max ROB Extended: 12

DRAM Statistics
 CHANNEL 0
 RQ ROW_BUFFER_HIT:    3533200  ROW_BUFFER_MISS:   11825888
 DBUS_CONGESTED:      12828
 WQ ROW_BUFFER_HIT:      47610  ROW_BUFFER_MISS:     118581  FULL:          0

 AVG_CONGESTED_CYCLE: 3
 All warmup complete: 2
Channel 0 Bank busy for read cycles: 0
Channel 0 Bank busy for write cycles: 0
Channel 0
Rank 0
0banks busy for read cycles: 1840414392
0banks busy for write cycles: 95755
1banks busy for read cycles: 1466143811
1banks busy for write cycles: 22896926
2banks busy for read cycles: 159711093
2banks busy for write cycles: 2114848
3banks busy for read cycles: 22448192
3banks busy for write cycles: 679306
4banks busy for read cycles: 8563982
4banks busy for write cycles: 309219
5banks busy for read cycles: 4379205
5banks busy for write cycles: 296001
6banks busy for read cycles: 3853100
6banks busy for write cycles: 219987
7banks busy for read cycles: 2140194
7banks busy for write cycles: 304178
8banks busy for read cycles: 439983
8banks busy for write cycles: 2028588

CPU 0 Branch Prediction Accuracy: 96.9582% MPKI: 5.63138 Average ROB Occupancy at Mispredict: 137.601
Branch types
NOT_BRANCH: 162973200 81.4866%
BRANCH_DIRECT_JUMP: 66 3.3e-05%
BRANCH_INDIRECT: 4 2e-06%
BRANCH_CONDITIONAL: 37026665 18.5133%
BRANCH_DIRECT_CALL: 28 1.4e-05%
BRANCH_INDIRECT_CALL: 5 2.5e-06%
BRANCH_RETURN: 33 1.65e-05%
BRANCH_OTHER: 0 0%

DRAM PAGES: 1048576
Allocated PAGES: 34900
