
*** ChampSim Multicore Out-of-Order Simulator ***

Warmup Instructions: 50000000
Simulation Instructions: 200000000
Number of CPUs: 1
LLC sets: 2048
LLC ways: 16
L0D sets: 16
L0D ways: 2
ROB size: 352
LQ size: 128
SQ size: 72
Secure Berti: OFF
Berti: OFF
Berti Fill: OFF
On commit prefetching: ON
Hit-based filter: OFF
Time-guarding: ON
Free-slotting: ON
Leap-frogging: ON
Train prefetcher on L0D bypass: OFF
No translation penalty for prefetchers: OFF
Prefetch to L0D only: OFF
Prefetch to L1D only: OFF
Clean evictions: ON
Commit loads: ON
Commit write: ON
Fill commit loads to L2C, LLC: ON
DRAM IO FREQUENCY: 6400
ROB SIZE: 352
Off-chip DRAM Size: 4096 MB Channels: 1 Width: 64-bit Data Rate: 6400 MT/s
CPU 0 runs /home/sumon/secure_berti/GhostMinion/../../traces/gap/bc-12.trace.gz
.gz
BTB has LRU replacement policy
ITLB has LRU replacement policy
DTLB has LRU replacement policy
STLB has LRU replacement policy
L1I has LRU replacement policy
L0D has LRU replacement policy
CPU 0 L1D IP-based stride prefetcher
CPU 0 L1D IP-based stride prefetcher
L1D has LRU replacement policy
L2C has LRU replacement policy
LLC has LRU replacement policy
Heartbeat CPU 0 instructions: 10000001 cycles: 3885560 heartbeat IPC: 2.57363 cumulative IPC: 2.57363 (Simulation time: 0 hr 1 min 29 sec) 
Heartbeat CPU 0 instructions: 20000000 cycles: 7407170 heartbeat IPC: 2.83961 cumulative IPC: 2.70009 (Simulation time: 0 hr 2 min 54 sec) 
Heartbeat CPU 0 instructions: 30000002 cycles: 10951674 heartbeat IPC: 2.82127 cumulative IPC: 2.73931 (Simulation time: 0 hr 4 min 22 sec) 
Heartbeat CPU 0 instructions: 40000000 cycles: 14487692 heartbeat IPC: 2.82804 cumulative IPC: 2.76096 (Simulation time: 0 hr 5 min 49 sec) 
Heartbeat CPU 0 instructions: 50000001 cycles: 17997022 heartbeat IPC: 2.84955 cumulative IPC: 2.77824 (Simulation time: 0 hr 7 min 14 sec) 

Warmup complete CPU 0 instructions: 50000001 cycles: 17997022 (Simulation time: 0 hr 7 min 14 sec) 

Heartbeat CPU 0 instructions: 60000000 cycles: 85786193 heartbeat IPC: 0.147516 cumulative IPC: 0.147516 (Simulation time: 0 hr 9 min 32 sec) 
Heartbeat CPU 0 instructions: 70000002 cycles: 153832448 heartbeat IPC: 0.146959 cumulative IPC: 0.147237 (Simulation time: 0 hr 12 min 6 sec) 
Heartbeat CPU 0 instructions: 80000002 cycles: 221573652 heartbeat IPC: 0.147621 cumulative IPC: 0.147365 (Simulation time: 0 hr 14 min 41 sec) 
Heartbeat CPU 0 instructions: 90000002 cycles: 289872760 heartbeat IPC: 0.146415 cumulative IPC: 0.147126 (Simulation time: 0 hr 17 min 15 sec) 
Heartbeat CPU 0 instructions: 100000001 cycles: 357697031 heartbeat IPC: 0.14744 cumulative IPC: 0.147189 (Simulation time: 0 hr 19 min 17 sec) 
Heartbeat CPU 0 instructions: 110000000 cycles: 425937690 heartbeat IPC: 0.14654 cumulative IPC: 0.14708 (Simulation time: 0 hr 20 min 40 sec) 
Heartbeat CPU 0 instructions: 120000001 cycles: 494070231 heartbeat IPC: 0.146773 cumulative IPC: 0.147036 (Simulation time: 0 hr 21 min 48 sec) 
Heartbeat CPU 0 instructions: 130000000 cycles: 562271209 heartbeat IPC: 0.146625 cumulative IPC: 0.146985 (Simulation time: 0 hr 22 min 55 sec) 
Heartbeat CPU 0 instructions: 140000000 cycles: 630276868 heartbeat IPC: 0.147047 cumulative IPC: 0.146992 (Simulation time: 0 hr 24 min 1 sec) 
Heartbeat CPU 0 instructions: 150000001 cycles: 698603988 heartbeat IPC: 0.146355 cumulative IPC: 0.146928 (Simulation time: 0 hr 25 min 8 sec) 
Heartbeat CPU 0 instructions: 160000001 cycles: 766934439 heartbeat IPC: 0.146348 cumulative IPC: 0.146875 (Simulation time: 0 hr 26 min 13 sec) 
Heartbeat CPU 0 instructions: 170000003 cycles: 834980597 heartbeat IPC: 0.146959 cumulative IPC: 0.146882 (Simulation time: 0 hr 27 min 17 sec) 
Heartbeat CPU 0 instructions: 180000001 cycles: 903126761 heartbeat IPC: 0.146743 cumulative IPC: 0.146871 (Simulation time: 0 hr 28 min 19 sec) 
Heartbeat CPU 0 instructions: 190000000 cycles: 969176495 heartbeat IPC: 0.151401 cumulative IPC: 0.147186 (Simulation time: 0 hr 29 min 20 sec) 
Heartbeat CPU 0 instructions: 200000000 cycles: 1037343192 heartbeat IPC: 0.146699 cumulative IPC: 0.147153 (Simulation time: 0 hr 30 min 19 sec) 
Heartbeat CPU 0 instructions: 210000002 cycles: 1105303269 heartbeat IPC: 0.147145 cumulative IPC: 0.147153 (Simulation time: 0 hr 31 min 17 sec) 
Heartbeat CPU 0 instructions: 220000000 cycles: 1173302248 heartbeat IPC: 0.147061 cumulative IPC: 0.147147 (Simulation time: 0 hr 32 min 14 sec) 
Heartbeat CPU 0 instructions: 230000001 cycles: 1241110822 heartbeat IPC: 0.147474 cumulative IPC: 0.147165 (Simulation time: 0 hr 33 min 10 sec) 
Heartbeat CPU 0 instructions: 240000001 cycles: 1309401747 heartbeat IPC: 0.146432 cumulative IPC: 0.147127 (Simulation time: 0 hr 34 min 6 sec) 
Heartbeat CPU 0 instructions: 250000003 cycles: 1376853708 heartbeat IPC: 0.148254 cumulative IPC: 0.147183 (Simulation time: 0 hr 35 min 1 sec) 
Finished CPU 0 instructions: 200000002 cycles: 1358856686 cumulative IPC: 0.147183 (Simulation time: 0 hr 35 min 1 sec) 
 Instruction ID: 250000045

ChampSim completed all CPUs

Region of Interest Statistics

CPU 0 cumulative IPC: 0.147183 instructions: 200000002 cycles: 1358856686
ITLB SPEC fills:          0  NON-SPEC fills:          0
ITLB Test counter :          0
ITLB Leapfrog:          0
ITLB MSHR merge:          0
ITLB TOTAL     ACCESS:   36670073  HIT:   36670073  MISS:          0  HIT %:        100  MISS %:          0   MPKI: 0
ITLB LOAD TRANSLATION NON_SPEC    ACCESS:   36670073  HIT:   36670073  MISS:          0  HIT %:        100  MISS %:          0   MPKI: 0
ITLB PREFETCH  REQUESTED:          0  ISSUED:          0  USEFUL:          0  USELESS:          0
ITLB USEFUL LOAD PREFETCHES:          0 PREFETCH ISSUED TO LOWER LEVEL:          0  ACCURACY: -nan
ITLB TIMELY PREFETCHES:          0 LATE PREFETCHES: 0 DROPPED PREFETCHES: 0
ITLB COMMIT LATE PREFETCHES: 0 NORMAL LATE: 0 MISSED OPPORTUNITY: 0 UNCOVERED: 0
ITLB PREFETCHES SAME FILL-ORIGIN LEVEL: 0 DIFFERENT FILL-ORIGIN LEVEL: 0
ITLB AVERAGE MISS LATENCY: -nan cycles
ITLB AVERAGE MISS LATENCY LOAD: -nan cycles
ITLB AVERAGE MISS LATENCY PREFETCH: -nan cycles
ITLB AVERAGE MSHR OCCUPANCY: 0
ITLB MSHR FULL: 0
ITLB RQ	ACCESS:   36968406	FORWARD:          0	MERGED:     298333	TO_CACHE:   36670073

DTLB SPEC fills:          0  NON-SPEC fills:          0
DTLB Test counter :          0
DTLB Leapfrog:          0
DTLB MSHR merge:          0
DTLB TOTAL     ACCESS:   60155192  HIT:   51648891  MISS:    8506301  HIT %:    85.8594  MISS %:    14.1406   MPKI: 42.5315
DTLB LOAD TRANSLATION NON_SPEC    ACCESS:   60155192  HIT:   51648891  MISS:    8506301  HIT %:    85.8594  MISS %:    14.1406   MPKI: 42.5315
DTLB PREFETCH  REQUESTED:          0  ISSUED:          0  USEFUL:          0  USELESS:          0
DTLB USEFUL LOAD PREFETCHES:          0 PREFETCH ISSUED TO LOWER LEVEL:          0  ACCURACY: -nan
DTLB TIMELY PREFETCHES:          0 LATE PREFETCHES: 0 DROPPED PREFETCHES: 0
DTLB COMMIT LATE PREFETCHES: 0 NORMAL LATE: 0 MISSED OPPORTUNITY: 0 UNCOVERED: 0
DTLB PREFETCHES SAME FILL-ORIGIN LEVEL: 0 DIFFERENT FILL-ORIGIN LEVEL: 0
DTLB AVERAGE MISS LATENCY: 40.4505 cycles
DTLB AVERAGE MISS LATENCY LOAD: -nan cycles
DTLB AVERAGE MISS LATENCY PREFETCH: -nan cycles
DTLB AVERAGE MSHR OCCUPANCY: 0.254569
DTLB MSHR FULL: 0.000383507
DTLB RQ	ACCESS:   66132409	FORWARD:          0	MERGED:    5230852	TO_CACHE:   60901557

STLB SPEC fills:          0  NON-SPEC fills:          0
STLB Test counter :          0
STLB Leapfrog:          0
STLB MSHR merge:          0
STLB TOTAL     ACCESS:    9669980  HIT:    6320021  MISS:    3349959  HIT %:    65.3571  MISS %:    34.6429   MPKI: 16.7498
STLB LOAD TRANSLATION NON_SPEC    ACCESS:    8506301  HIT:    5156769  MISS:    3349532  HIT %:    60.6229  MISS %:    39.3771   MPKI: 16.7477
STLB TRANSLATION FROM L1D PREFETCHER NON_SPEC    ACCESS:    1163679  HIT:    1163252  MISS:        427  HIT %:    99.9633  MISS %:   0.036694   MPKI: 0.002135
STLB PREFETCH  REQUESTED:          0  ISSUED:          0  USEFUL:        204  USELESS:        223
STLB USEFUL LOAD PREFETCHES:        204 PREFETCH ISSUED TO LOWER LEVEL:          0  ACCURACY: inf
STLB TIMELY PREFETCHES:        204 LATE PREFETCHES: 0 DROPPED PREFETCHES: 0
STLB COMMIT LATE PREFETCHES: 0 NORMAL LATE: 0 MISSED OPPORTUNITY: 0 UNCOVERED: 0
STLB PREFETCHES SAME FILL-ORIGIN LEVEL: 0 DIFFERENT FILL-ORIGIN LEVEL: 0
STLB AVERAGE MISS LATENCY: 79.8026 cycles
STLB AVERAGE MISS LATENCY LOAD: -nan cycles
STLB AVERAGE MISS LATENCY PREFETCH: -nan cycles
STLB AVERAGE MSHR OCCUPANCY: 0.261674
STLB MSHR FULL: 0
STLB RQ	ACCESS:   11855561	FORWARD:          0	MERGED:    2185545	TO_CACHE:    9670016

STLB Hit, L1D data hit: 0
STLB Hit, L2C data hit: 0
STLB Hit, LLC data hit: 0
STLB Hit, LLC data miss: 0
STLB STLB hints to L2: 0
L0D SPEC fills:   36633403  NON-SPEC fills:          0
L0D TimeGuard Request with older TS:     395183 Restricted eviction:     366417 read:          4
L0D Test counter :          0
L0D Leapfrog:          0
L0D MSHR merge:     278715
L0D TOTAL     ACCESS:   54608757  HIT:    8774372  MISS:   45834385  HIT %:    16.0677  MISS %:    83.9323   MPKI: 229.172
L0D LOAD      TOTAL       ACCESS:   54608757  HIT:    8774372  MISS:   45834385  HIT %:    16.0677  MISS %:    83.9323   MPKI: 229.172
L0D LOAD      NON_SPEC    ACCESS:    8837942  HIT:       3290  MISS:    8834652  HIT %:  0.0372259  MISS %:    99.9628   MPKI: 44.1733
L0D LOAD      SPEC        ACCESS:   45770815  HIT:    8771082  MISS:   36999733  HIT %:     19.163  MISS %:     80.837   MPKI: 184.999
L0D PREFETCH  REQUESTED:          0  ISSUED:          0  USEFUL:          0  USELESS:          0
L0D USEFUL LOAD PREFETCHES:          0 PREFETCH ISSUED TO LOWER LEVEL:          0  ACCURACY: -nan
L0D TIMELY PREFETCHES:          0 LATE PREFETCHES: 0 DROPPED PREFETCHES: 0
L0D COMMIT LATE PREFETCHES: 0 NORMAL LATE: 0 MISSED OPPORTUNITY: 0 UNCOVERED: 0
L0D PREFETCHES SAME FILL-ORIGIN LEVEL: 0 DIFFERENT FILL-ORIGIN LEVEL: 0
L0D AVERAGE MISS LATENCY: 47.2107 cycles
L0D AVERAGE MISS LATENCY LOAD: 47.2107 cycles
L0D AVERAGE MISS LATENCY PREFETCH: -nan cycles
L0D AVERAGE MSHR OCCUPANCY: 1.56514
L0D MSHR FULL: 0.0624055
L0D RQ	ACCESS:   55571027	FORWARD:          0	MERGED:     683556	TO_CACHE:   54887471
L0D WQ	ACCESS:   11244938	FORWARD:          0	MERGED:          0	TO_CACHE:   11244938

L1D SPEC fills:          0  NON-SPEC fills:    3719682
L1D Test counter :          0
L1D Leapfrog:          0
L1D MSHR merge:      62830
L1D TOTAL     ACCESS:   99886166  HIT:   68972128  MISS:   30914038  HIT %:    69.0507  MISS %:    30.9493   MPKI: 154.57
L1D LOAD      TOTAL       ACCESS:   45832554  HIT:   29355414  MISS:   16477140  HIT %:    64.0493  MISS %:    35.9507   MPKI: 82.3857
L1D LOAD      NON_SPEC    ACCESS:    8833259  HIT:    5113577  MISS:    3719682  HIT %:      57.89  MISS %:      42.11   MPKI: 18.5984
L1D LOAD      SPEC        ACCESS:   36999295  HIT:   24241837  MISS:   12757458  HIT %:    65.5197  MISS %:    34.4803   MPKI: 63.7873
L1D RFO       NON_SPEC    ACCESS:    6941125  HIT:    6916144  MISS:      24981  HIT %:    99.6401  MISS %:   0.359898   MPKI: 0.124905
L1D PREFETCH  NON_SPEC    ACCESS:    3180796  HIT:    1525538  MISS:    1655258  HIT %:    47.9609  MISS %:    52.0391   MPKI: 8.27629
L1D COMMIT LOAD NON_SPEC    ACCESS:    7522408  HIT:    7345666  MISS:     176742  HIT %:    97.6505  MISS %:    2.34954   MPKI: 0.88371
L1D COMMIT WRITE NON_SPEC    ACCESS:   36409283  HIT:   23829366  MISS:   12579917  HIT %:    65.4486  MISS %:    34.5514   MPKI: 62.8996
L1D PREFETCH  REQUESTED:    3771237  ISSUED:    3769307  USEFUL:     731830  USELESS:     923444
L1D USEFUL LOAD PREFETCHES:     731830 PREFETCH ISSUED TO LOWER LEVEL:    1740231  ACCURACY: 42.0536
L1D TIMELY PREFETCHES:     731830 LATE PREFETCHES: 63768 DROPPED PREFETCHES: 0
L1D COMMIT LATE PREFETCHES: 87181 NORMAL LATE: 58136 MISSED OPPORTUNITY: 388 UNCOVERED: 16334597
L1D PREFETCHES SAME FILL-ORIGIN LEVEL: 1723068 DIFFERENT FILL-ORIGIN LEVEL: 17163
L1D AVERAGE MISS LATENCY: 73.4444 cycles
L1D AVERAGE MISS LATENCY LOAD: 116.427 cycles
L1D AVERAGE MISS LATENCY PREFETCH: 203.267 cycles
L1D AVERAGE MSHR OCCUPANCY: 1.2051
L1D MSHR FULL: 0.0126116
L1D RQ	ACCESS:   56155132	FORWARD:          0	MERGED:    2173410	TO_CACHE:   53357883
L1D WQ	ACCESS:   47657288	FORWARD:     623839	MERGED:    4238393	TO_CACHE:   43418895
L1D PQ	ACCESS:    3769307	FORWARD:          0	MERGED:     420047	TO_CACHE:    3349260

L1D UNIQUE REGIONS ACCESSED: 0
L1D REGIONS CONFLICTS: 0
L1D Cross Page Prefetch Requests: 0
L1D Same Page Prefetch Requests: 8354781
L1D ROI Sum of L1D PQ occupancy: 51514560
L1D PREFETCHES PUSHED FROM L2C: 0
L1I SPEC fills:          0  NON-SPEC fills:          0
L1I Test counter :          0
L1I Leapfrog:          0
L1I MSHR merge:          0
L1I TOTAL     ACCESS:   36968406  HIT:   36968406  MISS:          0  HIT %:        100  MISS %:          0   MPKI: 0
L1I LOAD      TOTAL       ACCESS:   36968406  HIT:   36968406  MISS:          0  HIT %:        100  MISS %:          0   MPKI: 0
L1I LOAD      NON_SPEC    ACCESS:   36968406  HIT:   36968406  MISS:          0  HIT %:        100  MISS %:          0   MPKI: 0
L1I PREFETCH  REQUESTED:          0  ISSUED:          0  USEFUL:          0  USELESS:          0
L1I USEFUL LOAD PREFETCHES:          0 PREFETCH ISSUED TO LOWER LEVEL:          0  ACCURACY: -nan
L1I TIMELY PREFETCHES:          0 LATE PREFETCHES: 0 DROPPED PREFETCHES: 0
L1I COMMIT LATE PREFETCHES: 0 NORMAL LATE: 0 MISSED OPPORTUNITY: 0 UNCOVERED: 0
L1I PREFETCHES SAME FILL-ORIGIN LEVEL: 0 DIFFERENT FILL-ORIGIN LEVEL: 0
L1I AVERAGE MISS LATENCY: -nan cycles
L1I AVERAGE MISS LATENCY LOAD: -nan cycles
L1I AVERAGE MISS LATENCY PREFETCH: -nan cycles
L1I AVERAGE MSHR OCCUPANCY: 0
L1I MSHR FULL: 0
L1I RQ	ACCESS:   48283703	FORWARD:          0	MERGED:   11315297	TO_CACHE:   36968406

BTB SPEC fills:          0  NON-SPEC fills:          0
BTB Test counter :          0
BTB Leapfrog:          0
BTB MSHR merge:          0
BTB TOTAL     ACCESS:   35189020  HIT:   35189006  MISS:         14  HIT %:        100  MISS %: 3.97851e-05   MPKI: 7e-05
BTB BRANCH_DIRECT_JUMP	ACCESS:     253973  HIT:     253969  MISS:          4
BTB BRANCH_INDIRECT	ACCESS:          0  HIT:          0  MISS:          0
BTB BRANCH_CONDITIONAL	ACCESS:   34935019  HIT:   34935011  MISS:          8
BTB BRANCH_DIRECT_CALL	ACCESS:         14  HIT:         13  MISS:          1
BTB BRANCH_INDIRECT_CALL	ACCESS:          0  HIT:          0  MISS:          0
BTB BRANCH_RETURN	ACCESS:         14  HIT:         13  MISS:          1
BTB BRANCH_OTHER ACCESS:          0  HIT:          0  MISS:          0

L2C SPEC fills:          0  NON-SPEC fills:    3511184
L2C Test counter :          0
L2C Leapfrog:          0
L2C MSHR merge:        642
L2C TOTAL     ACCESS:   51417028  HIT:   25005694  MISS:   26411334  HIT %:    48.6331  MISS %:    51.3669   MPKI: 132.057
L2C LOAD      TOTAL       ACCESS:   16416106  HIT:    2425376  MISS:   13990730  HIT %:    14.7744  MISS %:    85.2256   MPKI: 69.9536
L2C LOAD      NON_SPEC    ACCESS:    3693968  HIT:     182784  MISS:    3511184  HIT %:    4.94817  MISS %:    95.0518   MPKI: 17.5559
L2C LOAD      SPEC        ACCESS:   12722138  HIT:    2242592  MISS:   10479546  HIT %:    17.6275  MISS %:    82.3725   MPKI: 52.3977
L2C RFO       NON_SPEC    ACCESS:      20940  HIT:      12035  MISS:       8905  HIT %:    57.4737  MISS %:    42.5263   MPKI: 0.044525
L2C PREFETCH  NON_SPEC    ACCESS:    1730508  HIT:      62919  MISS:    1667589  HIT %:    3.63587  MISS %:    96.3641   MPKI: 8.33794
L2C WRITEBACK NON_SPEC    ACCESS:    3001068  HIT:    3001013  MISS:         55  HIT %:    99.9982  MISS %: 0.00183268   MPKI: 0.000275
L2C CLEAN_EVICTION NON_SPEC    ACCESS:   13324727  HIT:    2824682  MISS:   10500045  HIT %:    21.1988  MISS %:    78.8012   MPKI: 52.5002
L2C COMMIT LOAD NON_SPEC    ACCESS:     173921  HIT:      55593  MISS:     118328  HIT %:    31.9645  MISS %:    68.0355   MPKI: 0.59164
L2C LOAD TRANSLATION NON_SPEC    ACCESS:   16747623  HIT:   16621982  MISS:     125641  HIT %:    99.2498  MISS %:   0.750202   MPKI: 0.628205
L2C TRANSLATION FROM L1D PREFETCHER NON_SPEC    ACCESS:       2135  HIT:       2094  MISS:         41  HIT %:    98.0796  MISS %:    1.92037   MPKI: 0.000205
L2C PREFETCH  REQUESTED:          0  ISSUED:          0  USEFUL:      36334  USELESS:    1631505
L2C USEFUL LOAD PREFETCHES:      36334 PREFETCH ISSUED TO LOWER LEVEL:    1674117  ACCURACY: 2.17034
L2C TIMELY PREFETCHES:      36334 LATE PREFETCHES: 6527 DROPPED PREFETCHES: 0
L2C COMMIT LATE PREFETCHES: 0 NORMAL LATE: 6529 MISSED OPPORTUNITY: 0 UNCOVERED: 13990088
L2C PREFETCHES SAME FILL-ORIGIN LEVEL: 14745 DIFFERENT FILL-ORIGIN LEVEL: 0
L2C AVERAGE MISS LATENCY: 78.2569 cycles
L2C AVERAGE MISS LATENCY LOAD: 122.294 cycles
L2C AVERAGE MISS LATENCY PREFETCH: 198.12 cycles
L2C AVERAGE MSHR OCCUPANCY: 1.29476
L2C MSHR FULL: 0
L2C RQ	ACCESS:   33360814	FORWARD:          0	MERGED:          0	TO_CACHE:   33360727
L2C WQ	ACCESS:   16325798	FORWARD:         87	MERGED:          3	TO_CACHE:   16325795
L2C PQ	ACCESS:    1740231	FORWARD:          0	MERGED:         10	TO_CACHE:    1740221

L2C Instructions Evicting Data 0
L2C Translations Evicting Data 125588
L2C Data Evicting Data 5262288
L2C Instructions Evicting Instructions 0
L2C Translations Evicting Instructions 0
L2C Data Evicting Instructions 0
L2C Instructions Evicting Translations 0
L2C Translations Evicting Translations 94
L2C Data Evicting Translations 43718
L2C Dense regions hint from L2: 0
PSCL5 SPEC fills:          0  NON-SPEC fills:          0
PSCL5 Test counter :          0
PSCL5 Leapfrog:          0
PSCL5 MSHR merge:          0
PSCL5 TOTAL     ACCESS:          0  HIT:          0  MISS:          0  HIT %:       -nan  MISS %:       -nan   MPKI: 0
PSCL5 PREFETCH  REQUESTED:          0  ISSUED:          0  USEFUL:          0  USELESS:          0
PSCL5 USEFUL LOAD PREFETCHES:          0 PREFETCH ISSUED TO LOWER LEVEL:          0  ACCURACY: -nan
PSCL5 TIMELY PREFETCHES:          0 LATE PREFETCHES: 0 DROPPED PREFETCHES: 0
PSCL5 COMMIT LATE PREFETCHES: 0 NORMAL LATE: 0 MISSED OPPORTUNITY: 0 UNCOVERED: 0
PSCL5 PREFETCHES SAME FILL-ORIGIN LEVEL: 0 DIFFERENT FILL-ORIGIN LEVEL: 0

PSCL4 SPEC fills:          0  NON-SPEC fills:          0
PSCL4 Test counter :          0
PSCL4 Leapfrog:          0
PSCL4 MSHR merge:          0
PSCL4 TOTAL     ACCESS:          0  HIT:          0  MISS:          0  HIT %:       -nan  MISS %:       -nan   MPKI: 0
PSCL4 PREFETCH  REQUESTED:          0  ISSUED:          0  USEFUL:          0  USELESS:          0
PSCL4 USEFUL LOAD PREFETCHES:          0 PREFETCH ISSUED TO LOWER LEVEL:          0  ACCURACY: -nan
PSCL4 TIMELY PREFETCHES:          0 LATE PREFETCHES: 0 DROPPED PREFETCHES: 0
PSCL4 COMMIT LATE PREFETCHES: 0 NORMAL LATE: 0 MISSED OPPORTUNITY: 0 UNCOVERED: 0
PSCL4 PREFETCHES SAME FILL-ORIGIN LEVEL: 0 DIFFERENT FILL-ORIGIN LEVEL: 0

PSCL3 SPEC fills:          0  NON-SPEC fills:          0
PSCL3 Test counter :          0
PSCL3 Leapfrog:          0
PSCL3 MSHR merge:          0
PSCL3 TOTAL     ACCESS:          0  HIT:          0  MISS:          0  HIT %:       -nan  MISS %:       -nan   MPKI: 0
PSCL3 PREFETCH  REQUESTED:          0  ISSUED:          0  USEFUL:          0  USELESS:          0
PSCL3 USEFUL LOAD PREFETCHES:          0 PREFETCH ISSUED TO LOWER LEVEL:          0  ACCURACY: -nan
PSCL3 TIMELY PREFETCHES:          0 LATE PREFETCHES: 0 DROPPED PREFETCHES: 0
PSCL3 COMMIT LATE PREFETCHES: 0 NORMAL LATE: 0 MISSED OPPORTUNITY: 0 UNCOVERED: 0
PSCL3 PREFETCHES SAME FILL-ORIGIN LEVEL: 0 DIFFERENT FILL-ORIGIN LEVEL: 0

PSCL2 SPEC fills:          0  NON-SPEC fills:          0
PSCL2 Test counter :          0
PSCL2 Leapfrog:          0
PSCL2 MSHR merge:          0
PSCL2 TOTAL     ACCESS:          0  HIT:          0  MISS:          0  HIT %:       -nan  MISS %:       -nan   MPKI: 0
PSCL2 PREFETCH  REQUESTED:          0  ISSUED:          0  USEFUL:          0  USELESS:          0
PSCL2 USEFUL LOAD PREFETCHES:          0 PREFETCH ISSUED TO LOWER LEVEL:          0  ACCURACY: -nan
PSCL2 TIMELY PREFETCHES:          0 LATE PREFETCHES: 0 DROPPED PREFETCHES: 0
PSCL2 COMMIT LATE PREFETCHES: 0 NORMAL LATE: 0 MISSED OPPORTUNITY: 0 UNCOVERED: 0
PSCL2 PREFETCHES SAME FILL-ORIGIN LEVEL: 0 DIFFERENT FILL-ORIGIN LEVEL: 0

LLC SPEC fills:          0  NON-SPEC fills:    2692472
LLC Test counter :          0
LLC Leapfrog:          0
LLC MSHR merge:          0
LLC TOTAL     ACCESS:   30178742  HIT:   13805463  MISS:   16373279  HIT %:    45.7457  MISS %:    54.2543   MPKI: 81.8664
LLC LOAD      TOTAL       ACCESS:   13990054  HIT:    5571804  MISS:    8418250  HIT %:    39.8269  MISS %:    60.1731   MPKI: 42.0912
LLC LOAD      NON_SPEC    ACCESS:    3511147  HIT:     818675  MISS:    2692472  HIT %:    23.3165  MISS %:    76.6835   MPKI: 13.4624
LLC LOAD      SPEC        ACCESS:   10478907  HIT:    4753129  MISS:    5725778  HIT %:     45.359  MISS %:     54.641   MPKI: 28.6289
LLC RFO       NON_SPEC    ACCESS:       4095  HIT:         36  MISS:       4059  HIT %:   0.879121  MISS %:    99.1209   MPKI: 0.020295
LLC PREFETCH  NON_SPEC    ACCESS:    1674113  HIT:     181391  MISS:    1492722  HIT %:    10.8351  MISS %:    89.1649   MPKI: 7.46361
LLC WRITEBACK NON_SPEC    ACCESS:    2893484  HIT:    2893467  MISS:         17  HIT %:    99.9994  MISS %: 0.000587527   MPKI: 8.5e-05
LLC CLEAN_EVICTION NON_SPEC    ACCESS:   11374085  HIT:    4984211  MISS:    6389874  HIT %:    43.8208  MISS %:    56.1792   MPKI: 31.9494
LLC COMMIT LOAD NON_SPEC    ACCESS:     117229  HIT:      97382  MISS:      19847  HIT %:    83.0699  MISS %:    16.9301   MPKI: 0.099235
LLC LOAD TRANSLATION NON_SPEC    ACCESS:     125641  HIT:      77134  MISS:      48507  HIT %:    61.3924  MISS %:    38.6076   MPKI: 0.242535
LLC TRANSLATION FROM L1D PREFETCHER NON_SPEC    ACCESS:         41  HIT:         38  MISS:          3  HIT %:    92.6829  MISS %:    7.31707   MPKI: 1.5e-05
LLC PREFETCH  REQUESTED:          0  ISSUED:          0  USEFUL:      90414  USELESS:    1404246
LLC USEFUL LOAD PREFETCHES:      90414 PREFETCH ISSUED TO LOWER LEVEL:    1492723  ACCURACY: 6.05698
LLC TIMELY PREFETCHES:      90414 LATE PREFETCHES: 0 DROPPED PREFETCHES: 0
LLC COMMIT LATE PREFETCHES: 0 NORMAL LATE: 0 MISSED OPPORTUNITY: 0 UNCOVERED: 0
LLC PREFETCHES SAME FILL-ORIGIN LEVEL: 0 DIFFERENT FILL-ORIGIN LEVEL: 0
LLC AVERAGE MISS LATENCY: 102.879 cycles
LLC AVERAGE MISS LATENCY LOAD: 164.526 cycles
LLC AVERAGE MISS LATENCY PREFETCH: 190.649 cycles
LLC AVERAGE MSHR OCCUPANCY: 1.0385
LLC MSHR FULL: 0
LLC RQ	ACCESS:   14237120	FORWARD:          0	MERGED:          0	TO_CACHE:   14237062
LLC WQ	ACCESS:   14267569	FORWARD:         61	MERGED:          0	TO_CACHE:   14267569
LLC PQ	ACCESS:    1674117	FORWARD:          0	MERGED:          0	TO_CACHE:    1674114

LLC Dense regions hint to LLC: 0

RAW hits: 765756
Loads Generated: 56336782
Loads sent to L1D: 55571027
Stores Generated: 11244939
Stores sent to L1D: 11244938
Major fault: 0 Minor fault: 31004
Allocated PAGES: 31004
Total Load insts: 68104327
Total Non-spec loads: 9223682
Percentage of speculative loads: 86.4565

LeapFrogging counter: 1423953
Commit hits: 36412348 miss: 10320748
Commit hit %: 77.9155 miss %: 22.0845
Commits not translated: 0
Loads retired: 16477138
Stores retired: 11244938
Cache fills: 16477140
L1D response latency: 116.427 cycles
Load retirement latency: 221.499 cycles
OOO test counter: 0
Discarded buffer inserts: 36412348 hits: 8648 hit %: 0.0237502
Filter prediction accuracy: -nan
Speculative prefetch buffer size: 0
CPU 0 L1D PC-based stride prefetcher final stats
Degree: 3
CPU 0 L1D PC-based stride prefetcher final stats
Degree: 3

DRAM Statistics
 CHANNEL 0
 RQ ROW_BUFFER_HIT:     630498  ROW_BUFFER_MISS:    9351201
 DBUS_CONGESTED:       5277
 WQ ROW_BUFFER_HIT:    4726841  ROW_BUFFER_MISS:    4940087  FULL:       3488

 AVG_CONGESTED_CYCLE: 4
 All warmup complete: 2
Channel 0 Bank busy for read cycles: 0
Channel 0 Bank busy for write cycles: 0
Channel 0
Rank 0
0banks busy for read cycles: 7355033
0banks busy for write cycles: 36409
1banks busy for read cycles: 512647489
1banks busy for write cycles: 10868037
2banks busy for read cycles: 277217675
2banks busy for write cycles: 20463310
3banks busy for read cycles: 71094721
3banks busy for write cycles: 35630195
4banks busy for read cycles: 21656529
4banks busy for write cycles: 54568522
5banks busy for read cycles: 8093833
5banks busy for write cycles: 72318802
6banks busy for read cycles: 3111498
6banks busy for write cycles: 85974977
7banks busy for read cycles: 967656
7banks busy for write cycles: 94266645
8banks busy for read cycles: 562143
8banks busy for write cycles: 82023213

CPU 0 Branch Prediction Accuracy: 85.1853% MPKI: 26.0899 Average ROB Occupancy at Mispredict: 27.8888
Branch types
NOT_BRANCH: 164778075 82.389%
BRANCH_DIRECT_JUMP: 253973 0.126986%
BRANCH_INDIRECT: 0 0%
BRANCH_CONDITIONAL: 34967586 17.4838%
BRANCH_DIRECT_CALL: 14 7e-06%
BRANCH_INDIRECT_CALL: 0 0%
BRANCH_RETURN: 14 7e-06%
BRANCH_OTHER: 0 0%

DRAM PAGES: 1048576
Allocated PAGES: 31004
