
*** ChampSim Multicore Out-of-Order Simulator ***

Warmup Instructions: 50000000
Simulation Instructions: 200000000
Number of CPUs: 1
LLC sets: 2048
LLC ways: 16
L0D sets: 16
L0D ways: 2
ROB size: 352
LQ size: 128
SQ size: 72
Secure Berti: OFF
Berti: OFF
Berti Fill: OFF
On commit prefetching: ON
Hit-based filter: OFF
Time-guarding: ON
Free-slotting: ON
Leap-frogging: ON
Train prefetcher on L0D bypass: OFF
No translation penalty for prefetchers: OFF
Prefetch to L0D only: OFF
Prefetch to L1D only: OFF
Clean evictions: ON
Commit loads: ON
Commit write: ON
Fill commit loads to L2C, LLC: ON
DRAM IO FREQUENCY: 6400
ROB SIZE: 352
Off-chip DRAM Size: 4096 MB Channels: 1 Width: 64-bit Data Rate: 6400 MT/s
CPU 0 runs /home/sumon/secure_berti/GhostMinion/../../traces/gap/cc-13.trace.gz
.gz
BTB has LRU replacement policy
ITLB has LRU replacement policy
DTLB has LRU replacement policy
STLB has LRU replacement policy
L1I has LRU replacement policy
L0D has LRU replacement policy
CPU 0 L1D IP-based stride prefetcher
CPU 0 L1D IP-based stride prefetcher
L1D has LRU replacement policy
L2C has LRU replacement policy
LLC has LRU replacement policy
Heartbeat CPU 0 instructions: 10000003 cycles: 3233094 heartbeat IPC: 3.09301 cumulative IPC: 3.09301 (Simulation time: 0 hr 1 min 4 sec) 
Heartbeat CPU 0 instructions: 20000000 cycles: 6470915 heartbeat IPC: 3.0885 cumulative IPC: 3.09075 (Simulation time: 0 hr 2 min 17 sec) 
Heartbeat CPU 0 instructions: 30000003 cycles: 9710846 heartbeat IPC: 3.08649 cumulative IPC: 3.08933 (Simulation time: 0 hr 3 min 31 sec) 
Heartbeat CPU 0 instructions: 40000002 cycles: 12949095 heartbeat IPC: 3.08809 cumulative IPC: 3.08902 (Simulation time: 0 hr 4 min 44 sec) 
Heartbeat CPU 0 instructions: 50000001 cycles: 16192882 heartbeat IPC: 3.08282 cumulative IPC: 3.08778 (Simulation time: 0 hr 5 min 57 sec) 

Warmup complete CPU 0 instructions: 50000001 cycles: 16192882 (Simulation time: 0 hr 5 min 57 sec) 

Heartbeat CPU 0 instructions: 60000000 cycles: 62615367 heartbeat IPC: 0.215413 cumulative IPC: 0.215413 (Simulation time: 0 hr 7 min 35 sec) 
Heartbeat CPU 0 instructions: 70000000 cycles: 106963404 heartbeat IPC: 0.225489 cumulative IPC: 0.220336 (Simulation time: 0 hr 9 min 9 sec) 
Heartbeat CPU 0 instructions: 80000000 cycles: 151133529 heartbeat IPC: 0.226397 cumulative IPC: 0.22232 (Simulation time: 0 hr 10 min 43 sec) 
Heartbeat CPU 0 instructions: 90000000 cycles: 195878409 heartbeat IPC: 0.223489 cumulative IPC: 0.222611 (Simulation time: 0 hr 12 min 17 sec) 
Heartbeat CPU 0 instructions: 100000003 cycles: 239306638 heartbeat IPC: 0.230265 cumulative IPC: 0.224101 (Simulation time: 0 hr 13 min 53 sec) 
Heartbeat CPU 0 instructions: 110000000 cycles: 282057127 heartbeat IPC: 0.233915 cumulative IPC: 0.225679 (Simulation time: 0 hr 15 min 34 sec) 
Heartbeat CPU 0 instructions: 120000000 cycles: 324596058 heartbeat IPC: 0.235079 cumulative IPC: 0.226976 (Simulation time: 0 hr 17 min 32 sec) 
Heartbeat CPU 0 instructions: 130000000 cycles: 368729266 heartbeat IPC: 0.226587 cumulative IPC: 0.226927 (Simulation time: 0 hr 19 min 29 sec) 
Heartbeat CPU 0 instructions: 140000002 cycles: 412718943 heartbeat IPC: 0.227326 cumulative IPC: 0.226971 (Simulation time: 0 hr 21 min 26 sec) 
Heartbeat CPU 0 instructions: 150000000 cycles: 454506177 heartbeat IPC: 0.239307 cumulative IPC: 0.228147 (Simulation time: 0 hr 23 min 24 sec) 
Heartbeat CPU 0 instructions: 160000002 cycles: 497520454 heartbeat IPC: 0.232481 cumulative IPC: 0.228535 (Simulation time: 0 hr 25 min 20 sec) 
Heartbeat CPU 0 instructions: 170000000 cycles: 540743317 heartbeat IPC: 0.231359 cumulative IPC: 0.228767 (Simulation time: 0 hr 27 min 3 sec) 
Heartbeat CPU 0 instructions: 180000003 cycles: 583855095 heartbeat IPC: 0.231955 cumulative IPC: 0.229009 (Simulation time: 0 hr 28 min 4 sec) 
Heartbeat CPU 0 instructions: 190000001 cycles: 626732689 heartbeat IPC: 0.233222 cumulative IPC: 0.229305 (Simulation time: 0 hr 29 min 3 sec) 
Heartbeat CPU 0 instructions: 200000000 cycles: 669779848 heartbeat IPC: 0.232303 cumulative IPC: 0.229503 (Simulation time: 0 hr 30 min 0 sec) 
Heartbeat CPU 0 instructions: 210000000 cycles: 711498192 heartbeat IPC: 0.239703 cumulative IPC: 0.230115 (Simulation time: 0 hr 30 min 55 sec) 
Heartbeat CPU 0 instructions: 220000000 cycles: 755601381 heartbeat IPC: 0.226741 cumulative IPC: 0.229914 (Simulation time: 0 hr 31 min 46 sec) 
Heartbeat CPU 0 instructions: 230000000 cycles: 797761444 heartbeat IPC: 0.237191 cumulative IPC: 0.230306 (Simulation time: 0 hr 32 min 34 sec) 
Heartbeat CPU 0 instructions: 240000000 cycles: 841133730 heartbeat IPC: 0.230562 cumulative IPC: 0.23032 (Simulation time: 0 hr 33 min 19 sec) 
Heartbeat CPU 0 instructions: 250000000 cycles: 884076419 heartbeat IPC: 0.232869 cumulative IPC: 0.230446 (Simulation time: 0 hr 34 min 5 sec) 
Finished CPU 0 instructions: 200000003 cycles: 867883538 cumulative IPC: 0.230446 (Simulation time: 0 hr 34 min 5 sec) 
 Instruction ID: 250000047

ChampSim completed all CPUs

Region of Interest Statistics

CPU 0 cumulative IPC: 0.230446 instructions: 200000003 cycles: 867883538
ITLB SPEC fills:          0  NON-SPEC fills:          0
ITLB Test counter :          0
ITLB Leapfrog:          0
ITLB MSHR merge:          0
ITLB TOTAL     ACCESS:   31044599  HIT:   31044599  MISS:          0  HIT %:        100  MISS %:          0   MPKI: 0
ITLB LOAD TRANSLATION NON_SPEC    ACCESS:   31044599  HIT:   31044599  MISS:          0  HIT %:        100  MISS %:          0   MPKI: 0
ITLB PREFETCH  REQUESTED:          0  ISSUED:          0  USEFUL:          0  USELESS:          0
ITLB USEFUL LOAD PREFETCHES:          0 PREFETCH ISSUED TO LOWER LEVEL:          0  ACCURACY: -nan
ITLB TIMELY PREFETCHES:          0 LATE PREFETCHES: 0 DROPPED PREFETCHES: 0
ITLB COMMIT LATE PREFETCHES: 0 NORMAL LATE: 0 MISSED OPPORTUNITY: 0 UNCOVERED: 0
ITLB PREFETCHES SAME FILL-ORIGIN LEVEL: 0 DIFFERENT FILL-ORIGIN LEVEL: 0
ITLB AVERAGE MISS LATENCY: -nan cycles
ITLB AVERAGE MISS LATENCY LOAD: -nan cycles
ITLB AVERAGE MISS LATENCY PREFETCH: -nan cycles
ITLB AVERAGE MSHR OCCUPANCY: 0
ITLB MSHR FULL: 0
ITLB RQ	ACCESS:   31622135	FORWARD:          0	MERGED:     577537	TO_CACHE:   31044598

DTLB SPEC fills:          0  NON-SPEC fills:          0
DTLB Test counter :          0
DTLB Leapfrog:          0
DTLB MSHR merge:          0
DTLB TOTAL     ACCESS:   49244799  HIT:   39203793  MISS:   10041006  HIT %:      79.61  MISS %:      20.39   MPKI: 50.205
DTLB LOAD TRANSLATION NON_SPEC    ACCESS:   49244799  HIT:   39203793  MISS:   10041006  HIT %:      79.61  MISS %:      20.39   MPKI: 50.205
DTLB PREFETCH  REQUESTED:          0  ISSUED:          0  USEFUL:          0  USELESS:          0
DTLB USEFUL LOAD PREFETCHES:          0 PREFETCH ISSUED TO LOWER LEVEL:          0  ACCURACY: -nan
DTLB TIMELY PREFETCHES:          0 LATE PREFETCHES: 0 DROPPED PREFETCHES: 0
DTLB COMMIT LATE PREFETCHES: 0 NORMAL LATE: 0 MISSED OPPORTUNITY: 0 UNCOVERED: 0
DTLB PREFETCHES SAME FILL-ORIGIN LEVEL: 0 DIFFERENT FILL-ORIGIN LEVEL: 0
DTLB AVERAGE MISS LATENCY: 9.44142 cycles
DTLB AVERAGE MISS LATENCY LOAD: -nan cycles
DTLB AVERAGE MISS LATENCY PREFETCH: -nan cycles
DTLB AVERAGE MSHR OCCUPANCY: 0.322587
DTLB MSHR FULL: 0.00229918
DTLB RQ	ACCESS:   51123915	FORWARD:          0	MERGED:    1576252	TO_CACHE:   49547663

STLB SPEC fills:          0  NON-SPEC fills:          0
STLB Test counter :          0
STLB Leapfrog:          0
STLB MSHR merge:          0
STLB TOTAL     ACCESS:   11271258  HIT:   11256238  MISS:      15020  HIT %:    99.8667  MISS %:   0.133259   MPKI: 0.0751
STLB LOAD TRANSLATION NON_SPEC    ACCESS:   10041006  HIT:   10025986  MISS:      15020  HIT %:    99.8504  MISS %:   0.149587   MPKI: 0.0751
STLB TRANSLATION FROM L1D PREFETCHER NON_SPEC    ACCESS:    1230252  HIT:    1230252  MISS:          0  HIT %:        100  MISS %:          0   MPKI: 0
STLB PREFETCH  REQUESTED:          0  ISSUED:          0  USEFUL:          0  USELESS:          0
STLB USEFUL LOAD PREFETCHES:          0 PREFETCH ISSUED TO LOWER LEVEL:          0  ACCURACY: -nan
STLB TIMELY PREFETCHES:          0 LATE PREFETCHES: 0 DROPPED PREFETCHES: 0
STLB COMMIT LATE PREFETCHES: 0 NORMAL LATE: 0 MISSED OPPORTUNITY: 0 UNCOVERED: 0
STLB PREFETCHES SAME FILL-ORIGIN LEVEL: 0 DIFFERENT FILL-ORIGIN LEVEL: 0
STLB AVERAGE MISS LATENCY: 187.871 cycles
STLB AVERAGE MISS LATENCY LOAD: -nan cycles
STLB AVERAGE MISS LATENCY PREFETCH: -nan cycles
STLB AVERAGE MSHR OCCUPANCY: 0.000968126
STLB MSHR FULL: 0
STLB RQ	ACCESS:   13633848	FORWARD:          0	MERGED:    2362590	TO_CACHE:   11271258

STLB Hit, L1D data hit: 0
STLB Hit, L2C data hit: 0
STLB Hit, LLC data hit: 0
STLB Hit, LLC data miss: 0
STLB STLB hints to L2: 0
L0D SPEC fills:   24871066  NON-SPEC fills:          0
L0D TimeGuard Request with older TS:     538678 Restricted eviction:     197012 read:     543388
L0D Test counter :          0
L0D Leapfrog:          0
L0D MSHR merge:     722267
L0D TOTAL     ACCESS:   50154606  HIT:   13032815  MISS:   37121791  HIT %:    25.9853  MISS %:    74.0147   MPKI: 185.609
L0D LOAD      TOTAL       ACCESS:   50154606  HIT:   13032815  MISS:   37121791  HIT %:    25.9853  MISS %:    74.0147   MPKI: 185.609
L0D LOAD      NON_SPEC    ACCESS:   13071828  HIT:    1018115  MISS:   12053713  HIT %:    7.78862  MISS %:    92.2114   MPKI: 60.2686
L0D LOAD      SPEC        ACCESS:   37082778  HIT:   12014700  MISS:   25068078  HIT %:    32.3997  MISS %:    67.6003   MPKI: 125.34
L0D PREFETCH  REQUESTED:          0  ISSUED:          0  USEFUL:          0  USELESS:          0
L0D USEFUL LOAD PREFETCHES:          0 PREFETCH ISSUED TO LOWER LEVEL:          0  ACCURACY: -nan
L0D TIMELY PREFETCHES:          0 LATE PREFETCHES: 0 DROPPED PREFETCHES: 0
L0D COMMIT LATE PREFETCHES: 0 NORMAL LATE: 0 MISSED OPPORTUNITY: 0 UNCOVERED: 0
L0D PREFETCHES SAME FILL-ORIGIN LEVEL: 0 DIFFERENT FILL-ORIGIN LEVEL: 0
L0D AVERAGE MISS LATENCY: 30.8218 cycles
L0D AVERAGE MISS LATENCY LOAD: 30.8218 cycles
L0D AVERAGE MISS LATENCY PREFETCH: -nan cycles
L0D AVERAGE MSHR OCCUPANCY: 1.68214
L0D MSHR FULL: 0.0277789
L0D RQ	ACCESS:   55706386	FORWARD:          0	MERGED:    4829516	TO_CACHE:   50876870
L0D WQ	ACCESS:     247045	FORWARD:          0	MERGED:          0	TO_CACHE:     247045

L1D SPEC fills:          0  NON-SPEC fills:    4112907
L1D Test counter :          0
L1D Leapfrog:          0
L1D MSHR merge:      17215
L1D TOTAL     ACCESS:   76683525  HIT:   50780781  MISS:   25902744  HIT %:    66.2212  MISS %:    33.7788   MPKI: 129.514
L1D LOAD      TOTAL       ACCESS:   37121361  HIT:   22813394  MISS:   14307967  HIT %:    61.4562  MISS %:    38.5438   MPKI: 71.5398
L1D LOAD      NON_SPEC    ACCESS:   12053316  HIT:    7940409  MISS:    4112907  HIT %:    65.8774  MISS %:    34.1226   MPKI: 20.5645
L1D LOAD      SPEC        ACCESS:   25068045  HIT:   14872985  MISS:   10195060  HIT %:    59.3305  MISS %:    40.6695   MPKI: 50.9753
L1D RFO       NON_SPEC    ACCESS:     246107  HIT:     246107  MISS:          0  HIT %:        100  MISS %:          0   MPKI: 0
L1D PREFETCH  NON_SPEC    ACCESS:    3494974  HIT:    2087554  MISS:    1407420  HIT %:    59.7302  MISS %:    40.2698   MPKI: 7.0371
L1D COMMIT LOAD NON_SPEC    ACCESS:   11603677  HIT:   11412362  MISS:     191315  HIT %:    98.3513  MISS %:    1.64874   MPKI: 0.956575
L1D COMMIT WRITE NON_SPEC    ACCESS:   24217406  HIT:   14221364  MISS:    9996042  HIT %:    58.7237  MISS %:    41.2763   MPKI: 49.9802
L1D PREFETCH  REQUESTED:    3617356  ISSUED:    3617356  USEFUL:     982505  USELESS:     424909
L1D USEFUL LOAD PREFETCHES:     982505 PREFETCH ISSUED TO LOWER LEVEL:    1429537  ACCURACY: 68.7289
L1D TIMELY PREFETCHES:     982505 LATE PREFETCHES: 17046 DROPPED PREFETCHES: 0
L1D COMMIT LATE PREFETCHES: 48548 NORMAL LATE: 15840 MISSED OPPORTUNITY: 755 UNCOVERED: 14243847
L1D PREFETCHES SAME FILL-ORIGIN LEVEL: 1424466 DIFFERENT FILL-ORIGIN LEVEL: 5071
L1D AVERAGE MISS LATENCY: 47.7445 cycles
L1D AVERAGE MISS LATENCY LOAD: 66.8062 cycles
L1D AVERAGE MISS LATENCY PREFETCH: 194.084 cycles
L1D AVERAGE MSHR OCCUPANCY: 1.37967
L1D MSHR FULL: 1.51868e-06
L1D RQ	ACCESS:   55122739	FORWARD:          0	MERGED:    4513048	TO_CACHE:   48726557
L1D WQ	ACCESS:   24685519	FORWARD:    1883134	MERGED:     221074	TO_CACHE:   24464445
L1D PQ	ACCESS:    3617356	FORWARD:          0	MERGED:      24514	TO_CACHE:    3592842

L1D UNIQUE REGIONS ACCESSED: 0
L1D REGIONS CONFLICTS: 0
L1D Cross Page Prefetch Requests: 0
L1D Same Page Prefetch Requests: 4637074
L1D ROI Sum of L1D PQ occupancy: 51755344
L1D PREFETCHES PUSHED FROM L2C: 0
L1I SPEC fills:          0  NON-SPEC fills:          0
L1I Test counter :          0
L1I Leapfrog:          0
L1I MSHR merge:          0
L1I TOTAL     ACCESS:   31622136  HIT:   31622136  MISS:          0  HIT %:        100  MISS %:          0   MPKI: 0
L1I LOAD      TOTAL       ACCESS:   31622136  HIT:   31622136  MISS:          0  HIT %:        100  MISS %:          0   MPKI: 0
L1I LOAD      NON_SPEC    ACCESS:   31622136  HIT:   31622136  MISS:          0  HIT %:        100  MISS %:          0   MPKI: 0
L1I PREFETCH  REQUESTED:          0  ISSUED:          0  USEFUL:          0  USELESS:          0
L1I USEFUL LOAD PREFETCHES:          0 PREFETCH ISSUED TO LOWER LEVEL:          0  ACCURACY: -nan
L1I TIMELY PREFETCHES:          0 LATE PREFETCHES: 0 DROPPED PREFETCHES: 0
L1I COMMIT LATE PREFETCHES: 0 NORMAL LATE: 0 MISSED OPPORTUNITY: 0 UNCOVERED: 0
L1I PREFETCHES SAME FILL-ORIGIN LEVEL: 0 DIFFERENT FILL-ORIGIN LEVEL: 0
L1I AVERAGE MISS LATENCY: -nan cycles
L1I AVERAGE MISS LATENCY LOAD: -nan cycles
L1I AVERAGE MISS LATENCY PREFETCH: -nan cycles
L1I AVERAGE MSHR OCCUPANCY: 0
L1I MSHR FULL: 0
L1I RQ	ACCESS:   56833104	FORWARD:          0	MERGED:   25210969	TO_CACHE:   31622135

BTB SPEC fills:          0  NON-SPEC fills:          0
BTB Test counter :          0
BTB Leapfrog:          0
BTB MSHR merge:          0
BTB TOTAL     ACCESS:   40650073  HIT:   40650068  MISS:          5  HIT %:        100  MISS %: 1.23001e-05   MPKI: 2.5e-05
BTB BRANCH_DIRECT_JUMP	ACCESS:          0  HIT:          0  MISS:          0
BTB BRANCH_INDIRECT	ACCESS:          0  HIT:          0  MISS:          0
BTB BRANCH_CONDITIONAL	ACCESS:   40650073  HIT:   40650068  MISS:          5
BTB BRANCH_DIRECT_CALL	ACCESS:          0  HIT:          0  MISS:          0
BTB BRANCH_INDIRECT_CALL	ACCESS:          0  HIT:          0  MISS:          0
BTB BRANCH_RETURN	ACCESS:          0  HIT:          0  MISS:          0
BTB BRANCH_OTHER ACCESS:          0  HIT:          0  MISS:          0

L2C SPEC fills:          0  NON-SPEC fills:    2656358
L2C Test counter :          0
L2C Leapfrog:          0
L2C MSHR merge:         38
L2C TOTAL     ACCESS:   27179353  HIT:    9220078  MISS:   17959275  HIT %:    33.9231  MISS %:    66.0769   MPKI: 89.7964
L2C LOAD      TOTAL       ACCESS:   14291001  HIT:    4735465  MISS:    9555536  HIT %:     33.136  MISS %:     66.864   MPKI: 47.7777
L2C LOAD      NON_SPEC    ACCESS:    4104490  HIT:    1448132  MISS:    2656358  HIT %:    35.2817  MISS %:    64.7183   MPKI: 13.2818
L2C LOAD      SPEC        ACCESS:   10186511  HIT:    3287333  MISS:    6899178  HIT %:    32.2714  MISS %:    67.7286   MPKI: 34.4959
L2C PREFETCH  NON_SPEC    ACCESS:    1429058  HIT:      69847  MISS:    1359211  HIT %:    4.88763  MISS %:    95.1124   MPKI: 6.79605
L2C WRITEBACK NON_SPEC    ACCESS:      45023  HIT:      45023  MISS:          0  HIT %:        100  MISS %:          0   MPKI: 0
L2C CLEAN_EVICTION NON_SPEC    ACCESS:   11148251  HIT:    4216177  MISS:    6932074  HIT %:    37.8192  MISS %:    62.1808   MPKI: 34.6604
L2C COMMIT LOAD NON_SPEC    ACCESS:     190950  HIT:      83540  MISS:     107410  HIT %:    43.7497  MISS %:    56.2503   MPKI: 0.53705
L2C LOAD TRANSLATION NON_SPEC    ACCESS:      75070  HIT:      70026  MISS:       5044  HIT %:    93.2809  MISS %:    6.71906   MPKI: 0.02522
L2C PREFETCH  REQUESTED:          0  ISSUED:          0  USEFUL:      31719  USELESS:    1327470
L2C USEFUL LOAD PREFETCHES:      31719 PREFETCH ISSUED TO LOWER LEVEL:    1359251  ACCURACY: 2.33356
L2C TIMELY PREFETCHES:      31719 LATE PREFETCHES: 40 DROPPED PREFETCHES: 0
L2C COMMIT LATE PREFETCHES: 0 NORMAL LATE: 40 MISSED OPPORTUNITY: 0 UNCOVERED: 9555499
L2C PREFETCHES SAME FILL-ORIGIN LEVEL: 4709 DIFFERENT FILL-ORIGIN LEVEL: 0
L2C AVERAGE MISS LATENCY: 57.8457 cycles
L2C AVERAGE MISS LATENCY LOAD: 81.4149 cycles
L2C AVERAGE MISS LATENCY PREFETCH: 188.043 cycles
L2C AVERAGE MSHR OCCUPANCY: 1.56589
L2C MSHR FULL: 0
L2C RQ	ACCESS:   14557308	FORWARD:          0	MERGED:          0	TO_CACHE:   14557022
L2C WQ	ACCESS:   11193274	FORWARD:        298	MERGED:          0	TO_CACHE:   11193274
L2C PQ	ACCESS:    1429537	FORWARD:          0	MERGED:          0	TO_CACHE:    1429525

L2C Instructions Evicting Data 0
L2C Translations Evicting Data 5044
L2C Data Evicting Data 4121070
L2C Instructions Evicting Instructions 0
L2C Translations Evicting Instructions 0
L2C Data Evicting Instructions 0
L2C Instructions Evicting Translations 0
L2C Translations Evicting Translations 0
L2C Data Evicting Translations 1909
L2C Dense regions hint from L2: 0
PSCL5 SPEC fills:          0  NON-SPEC fills:          0
PSCL5 Test counter :          0
PSCL5 Leapfrog:          0
PSCL5 MSHR merge:          0
PSCL5 TOTAL     ACCESS:          0  HIT:          0  MISS:          0  HIT %:       -nan  MISS %:       -nan   MPKI: 0
PSCL5 PREFETCH  REQUESTED:          0  ISSUED:          0  USEFUL:          0  USELESS:          0
PSCL5 USEFUL LOAD PREFETCHES:          0 PREFETCH ISSUED TO LOWER LEVEL:          0  ACCURACY: -nan
PSCL5 TIMELY PREFETCHES:          0 LATE PREFETCHES: 0 DROPPED PREFETCHES: 0
PSCL5 COMMIT LATE PREFETCHES: 0 NORMAL LATE: 0 MISSED OPPORTUNITY: 0 UNCOVERED: 0
PSCL5 PREFETCHES SAME FILL-ORIGIN LEVEL: 0 DIFFERENT FILL-ORIGIN LEVEL: 0

PSCL4 SPEC fills:          0  NON-SPEC fills:          0
PSCL4 Test counter :          0
PSCL4 Leapfrog:          0
PSCL4 MSHR merge:          0
PSCL4 TOTAL     ACCESS:          0  HIT:          0  MISS:          0  HIT %:       -nan  MISS %:       -nan   MPKI: 0
PSCL4 PREFETCH  REQUESTED:          0  ISSUED:          0  USEFUL:          0  USELESS:          0
PSCL4 USEFUL LOAD PREFETCHES:          0 PREFETCH ISSUED TO LOWER LEVEL:          0  ACCURACY: -nan
PSCL4 TIMELY PREFETCHES:          0 LATE PREFETCHES: 0 DROPPED PREFETCHES: 0
PSCL4 COMMIT LATE PREFETCHES: 0 NORMAL LATE: 0 MISSED OPPORTUNITY: 0 UNCOVERED: 0
PSCL4 PREFETCHES SAME FILL-ORIGIN LEVEL: 0 DIFFERENT FILL-ORIGIN LEVEL: 0

PSCL3 SPEC fills:          0  NON-SPEC fills:          0
PSCL3 Test counter :          0
PSCL3 Leapfrog:          0
PSCL3 MSHR merge:          0
PSCL3 TOTAL     ACCESS:          0  HIT:          0  MISS:          0  HIT %:       -nan  MISS %:       -nan   MPKI: 0
PSCL3 PREFETCH  REQUESTED:          0  ISSUED:          0  USEFUL:          0  USELESS:          0
PSCL3 USEFUL LOAD PREFETCHES:          0 PREFETCH ISSUED TO LOWER LEVEL:          0  ACCURACY: -nan
PSCL3 TIMELY PREFETCHES:          0 LATE PREFETCHES: 0 DROPPED PREFETCHES: 0
PSCL3 COMMIT LATE PREFETCHES: 0 NORMAL LATE: 0 MISSED OPPORTUNITY: 0 UNCOVERED: 0
PSCL3 PREFETCHES SAME FILL-ORIGIN LEVEL: 0 DIFFERENT FILL-ORIGIN LEVEL: 0

PSCL2 SPEC fills:          0  NON-SPEC fills:          0
PSCL2 Test counter :          0
PSCL2 Leapfrog:          0
PSCL2 MSHR merge:          0
PSCL2 TOTAL     ACCESS:          0  HIT:          0  MISS:          0  HIT %:       -nan  MISS %:       -nan   MPKI: 0
PSCL2 PREFETCH  REQUESTED:          0  ISSUED:          0  USEFUL:          0  USELESS:          0
PSCL2 USEFUL LOAD PREFETCHES:          0 PREFETCH ISSUED TO LOWER LEVEL:          0  ACCURACY: -nan
PSCL2 TIMELY PREFETCHES:          0 LATE PREFETCHES: 0 DROPPED PREFETCHES: 0
PSCL2 COMMIT LATE PREFETCHES: 0 NORMAL LATE: 0 MISSED OPPORTUNITY: 0 UNCOVERED: 0
PSCL2 PREFETCHES SAME FILL-ORIGIN LEVEL: 0 DIFFERENT FILL-ORIGIN LEVEL: 0

LLC SPEC fills:          0  NON-SPEC fills:     939232
LLC Test counter :          0
LLC Leapfrog:          0
LLC MSHR merge:          0
LLC TOTAL     ACCESS:   19455932  HIT:   11890582  MISS:    7565350  HIT %:    61.1155  MISS %:    38.8845   MPKI: 37.8267
LLC LOAD      TOTAL       ACCESS:    9555442  HIT:    6116847  MISS:    3438595  HIT %:    64.0143  MISS %:    35.9857   MPKI: 17.193
LLC LOAD      NON_SPEC    ACCESS:    2656344  HIT:    1717112  MISS:     939232  HIT %:    64.6419  MISS %:    35.3581   MPKI: 4.69616
LLC LOAD      SPEC        ACCESS:    6899098  HIT:    4399735  MISS:    2499363  HIT %:    63.7726  MISS %:    36.2274   MPKI: 12.4968
LLC PREFETCH  NON_SPEC    ACCESS:    1359251  HIT:     155462  MISS:    1203789  HIT %:    11.4373  MISS %:    88.5627   MPKI: 6.01894
LLC WRITEBACK NON_SPEC    ACCESS:      41482  HIT:      41473  MISS:          9  HIT %:    99.9783  MISS %:  0.0216962   MPKI: 4.5e-05
LLC CLEAN_EVICTION NON_SPEC    ACCESS:    8387333  HIT:    5478134  MISS:    2909199  HIT %:    65.3144  MISS %:    34.6856   MPKI: 14.546
LLC COMMIT LOAD NON_SPEC    ACCESS:     107380  HIT:      95551  MISS:      11829  HIT %:     88.984  MISS %:     11.016   MPKI: 0.059145
LLC LOAD TRANSLATION NON_SPEC    ACCESS:       5044  HIT:       3115  MISS:       1929  HIT %:    61.7565  MISS %:    38.2435   MPKI: 0.009645
LLC PREFETCH  REQUESTED:          0  ISSUED:          0  USEFUL:      61772  USELESS:    1141525
LLC USEFUL LOAD PREFETCHES:      61772 PREFETCH ISSUED TO LOWER LEVEL:    1203789  ACCURACY: 5.13146
LLC TIMELY PREFETCHES:      61772 LATE PREFETCHES: 0 DROPPED PREFETCHES: 0
LLC COMMIT LATE PREFETCHES: 0 NORMAL LATE: 0 MISSED OPPORTUNITY: 0 UNCOVERED: 0
LLC PREFETCHES SAME FILL-ORIGIN LEVEL: 0 DIFFERENT FILL-ORIGIN LEVEL: 0
LLC AVERAGE MISS LATENCY: 101.774 cycles
LLC AVERAGE MISS LATENCY LOAD: 160.894 cycles
LLC AVERAGE MISS LATENCY PREFETCH: 178.417 cycles
LLC AVERAGE MSHR OCCUPANCY: 0.944655
LLC MSHR FULL: 0
LLC RQ	ACCESS:    9667951	FORWARD:          0	MERGED:          0	TO_CACHE:    9667867
LLC WQ	ACCESS:    8428815	FORWARD:         84	MERGED:          0	TO_CACHE:    8428815
LLC PQ	ACCESS:    1359251	FORWARD:          0	MERGED:          0	TO_CACHE:    1359251

LLC Dense regions hint to LLC: 0

RAW hits: 26178
Loads Generated: 55732564
Loads sent to L1D: 55706386
Stores Generated: 247045
Stores sent to L1D: 247045
Major fault: 0 Minor fault: 19633
Allocated PAGES: 19633
Total Load insts: 68639298
Total Non-spec loads: 13606435
Percentage of speculative loads: 80.1769

LeapFrogging counter: 346103
Commit hits: 24438474 miss: 18000949
Commit hit %: 57.5844 miss %: 42.4156
Commits not translated: 0
Loads retired: 14307966
Stores retired: 247045
Cache fills: 14307967
L1D response latency: 66.8062 cycles
Load retirement latency: 141.487 cycles
OOO test counter: 0
Discarded buffer inserts: 24438474 hits: 1543 hit %: 0.00631381
Filter prediction accuracy: -nan
Speculative prefetch buffer size: 2
CPU 0 L1D PC-based stride prefetcher final stats
Degree: 3
CPU 0 L1D PC-based stride prefetcher final stats
Degree: 3

DRAM Statistics
 CHANNEL 0
 RQ ROW_BUFFER_HIT:     410048  ROW_BUFFER_MISS:    4245378
 DBUS_CONGESTED:       2039
 WQ ROW_BUFFER_HIT:    1449429  ROW_BUFFER_MISS:    2821754  FULL:        139

 AVG_CONGESTED_CYCLE: 5
 All warmup complete: 2
Channel 0 Bank busy for read cycles: 0
Channel 0 Bank busy for write cycles: 0
Channel 0
Rank 0
0banks busy for read cycles: 77616214
0banks busy for write cycles: 749207
1banks busy for read cycles: 286620275
1banks busy for write cycles: 125654168
2banks busy for read cycles: 102163277
2banks busy for write cycles: 98518519
3banks busy for read cycles: 34429566
3banks busy for write cycles: 53914129
4banks busy for read cycles: 10572494
4banks busy for write cycles: 26077544
5banks busy for read cycles: 2887738
5banks busy for write cycles: 13574281
6banks busy for read cycles: 830030
6banks busy for write cycles: 8927409
7banks busy for read cycles: 242643
7banks busy for write cycles: 9605520
8banks busy for read cycles: 47893
8banks busy for write cycles: 15452632

CPU 0 Branch Prediction Accuracy: 90.5062% MPKI: 19.3845 Average ROB Occupancy at Mispredict: 25.2814
Branch types
NOT_BRANCH: 159163481 79.5817%
BRANCH_DIRECT_JUMP: 0 0%
BRANCH_INDIRECT: 0 0%
BRANCH_CONDITIONAL: 40836226 20.4181%
BRANCH_DIRECT_CALL: 0 0%
BRANCH_INDIRECT_CALL: 0 0%
BRANCH_RETURN: 0 0%
BRANCH_OTHER: 0 0%

DRAM PAGES: 1048576
Allocated PAGES: 19633
