
*** ChampSim Multicore Out-of-Order Simulator ***

Warmup Instructions: 50000000
Simulation Instructions: 200000000
Number of CPUs: 1
LLC sets: 2048
LLC ways: 16
L0D sets: 16
L0D ways: 2
ROB size: 352
LQ size: 128
SQ size: 72
Secure Berti: OFF
Berti: OFF
Berti Fill: OFF
On commit prefetching: ON
Hit-based filter: OFF
Time-guarding: ON
Free-slotting: ON
Leap-frogging: ON
Train prefetcher on L0D bypass: OFF
No translation penalty for prefetchers: OFF
Prefetch to L0D only: OFF
Prefetch to L1D only: OFF
Clean evictions: ON
Commit loads: ON
Commit write: ON
Fill commit loads to L2C, LLC: ON
DRAM IO FREQUENCY: 6400
ROB SIZE: 352
Off-chip DRAM Size: 4096 MB Channels: 1 Width: 64-bit Data Rate: 6400 MT/s
CPU 0 runs /home/sumon/secure_berti/GhostMinion/../../traces/gap/cc-14.trace.gz
.gz
BTB has LRU replacement policy
ITLB has LRU replacement policy
DTLB has LRU replacement policy
STLB has LRU replacement policy
L1I has LRU replacement policy
L0D has LRU replacement policy
CPU 0 L1D IP-based stride prefetcher
CPU 0 L1D IP-based stride prefetcher
L1D has LRU replacement policy
L2C has LRU replacement policy
LLC has LRU replacement policy
Heartbeat CPU 0 instructions: 10000003 cycles: 3224570 heartbeat IPC: 3.10119 cumulative IPC: 3.10119 (Simulation time: 0 hr 1 min 4 sec) 
Heartbeat CPU 0 instructions: 20000001 cycles: 6451509 heartbeat IPC: 3.09891 cumulative IPC: 3.10005 (Simulation time: 0 hr 2 min 16 sec) 
Heartbeat CPU 0 instructions: 30000002 cycles: 9686480 heartbeat IPC: 3.09122 cumulative IPC: 3.0971 (Simulation time: 0 hr 3 min 29 sec) 
Heartbeat CPU 0 instructions: 40000001 cycles: 12916351 heartbeat IPC: 3.0961 cumulative IPC: 3.09685 (Simulation time: 0 hr 4 min 40 sec) 
Heartbeat CPU 0 instructions: 50000003 cycles: 16148909 heartbeat IPC: 3.09353 cumulative IPC: 3.09618 (Simulation time: 0 hr 5 min 50 sec) 

Warmup complete CPU 0 instructions: 50000003 cycles: 16148909 (Simulation time: 0 hr 5 min 50 sec) 

Heartbeat CPU 0 instructions: 60000002 cycles: 55072794 heartbeat IPC: 0.256912 cumulative IPC: 0.256912 (Simulation time: 0 hr 7 min 27 sec) 
Heartbeat CPU 0 instructions: 70000000 cycles: 93403104 heartbeat IPC: 0.26089 cumulative IPC: 0.258886 (Simulation time: 0 hr 9 min 1 sec) 
Heartbeat CPU 0 instructions: 80000001 cycles: 132185479 heartbeat IPC: 0.257849 cumulative IPC: 0.258539 (Simulation time: 0 hr 10 min 36 sec) 
Heartbeat CPU 0 instructions: 90000000 cycles: 169837708 heartbeat IPC: 0.265588 cumulative IPC: 0.260266 (Simulation time: 0 hr 12 min 12 sec) 
Heartbeat CPU 0 instructions: 100000001 cycles: 207542624 heartbeat IPC: 0.265217 cumulative IPC: 0.261242 (Simulation time: 0 hr 13 min 48 sec) 
Heartbeat CPU 0 instructions: 110000000 cycles: 246022282 heartbeat IPC: 0.259878 cumulative IPC: 0.261013 (Simulation time: 0 hr 15 min 25 sec) 
Heartbeat CPU 0 instructions: 120000000 cycles: 284772657 heartbeat IPC: 0.258062 cumulative IPC: 0.260588 (Simulation time: 0 hr 16 min 48 sec) 
Heartbeat CPU 0 instructions: 130000003 cycles: 323690344 heartbeat IPC: 0.256953 cumulative IPC: 0.260128 (Simulation time: 0 hr 17 min 45 sec) 
Heartbeat CPU 0 instructions: 140000001 cycles: 361644352 heartbeat IPC: 0.263477 cumulative IPC: 0.260495 (Simulation time: 0 hr 19 min 6 sec) 
Heartbeat CPU 0 instructions: 150000001 cycles: 399156869 heartbeat IPC: 0.266578 cumulative IPC: 0.261091 (Simulation time: 0 hr 20 min 30 sec) 
Heartbeat CPU 0 instructions: 160000003 cycles: 436809560 heartbeat IPC: 0.265585 cumulative IPC: 0.261493 (Simulation time: 0 hr 22 min 2 sec) 
Heartbeat CPU 0 instructions: 170000000 cycles: 475580560 heartbeat IPC: 0.257925 cumulative IPC: 0.261192 (Simulation time: 0 hr 23 min 33 sec) 
Heartbeat CPU 0 instructions: 180000000 cycles: 513797454 heartbeat IPC: 0.261664 cumulative IPC: 0.261229 (Simulation time: 0 hr 25 min 3 sec) 
Heartbeat CPU 0 instructions: 190000000 cycles: 551028611 heartbeat IPC: 0.268592 cumulative IPC: 0.261741 (Simulation time: 0 hr 26 min 33 sec) 
Heartbeat CPU 0 instructions: 200000001 cycles: 589209961 heartbeat IPC: 0.261908 cumulative IPC: 0.261752 (Simulation time: 0 hr 27 min 38 sec) 
Heartbeat CPU 0 instructions: 210000000 cycles: 627434783 heartbeat IPC: 0.26161 cumulative IPC: 0.261743 (Simulation time: 0 hr 28 min 28 sec) 
Heartbeat CPU 0 instructions: 220000000 cycles: 665540522 heartbeat IPC: 0.262428 cumulative IPC: 0.261783 (Simulation time: 0 hr 29 min 18 sec) 
Heartbeat CPU 0 instructions: 230000000 cycles: 704561856 heartbeat IPC: 0.25627 cumulative IPC: 0.261471 (Simulation time: 0 hr 30 min 6 sec) 
Heartbeat CPU 0 instructions: 240000000 cycles: 742238960 heartbeat IPC: 0.265413 cumulative IPC: 0.261676 (Simulation time: 0 hr 30 min 54 sec) 
Heartbeat CPU 0 instructions: 250000002 cycles: 779708073 heartbeat IPC: 0.266887 cumulative IPC: 0.261931 (Simulation time: 0 hr 31 min 41 sec) 
Finished CPU 0 instructions: 200000000 cycles: 763559165 cumulative IPC: 0.261931 (Simulation time: 0 hr 31 min 41 sec) 
 Instruction ID: 250000145

ChampSim completed all CPUs

Region of Interest Statistics

CPU 0 cumulative IPC: 0.261931 instructions: 200000000 cycles: 763559165
ITLB SPEC fills:          0  NON-SPEC fills:          0
ITLB Test counter :          0
ITLB Leapfrog:          0
ITLB MSHR merge:          0
ITLB TOTAL     ACCESS:   30409983  HIT:   30409983  MISS:          0  HIT %:        100  MISS %:          0   MPKI: 0
ITLB LOAD TRANSLATION NON_SPEC    ACCESS:   30409983  HIT:   30409983  MISS:          0  HIT %:        100  MISS %:          0   MPKI: 0
ITLB PREFETCH  REQUESTED:          0  ISSUED:          0  USEFUL:          0  USELESS:          0
ITLB USEFUL LOAD PREFETCHES:          0 PREFETCH ISSUED TO LOWER LEVEL:          0  ACCURACY: -nan
ITLB TIMELY PREFETCHES:          0 LATE PREFETCHES: 0 DROPPED PREFETCHES: 0
ITLB COMMIT LATE PREFETCHES: 0 NORMAL LATE: 0 MISSED OPPORTUNITY: 0 UNCOVERED: 0
ITLB PREFETCHES SAME FILL-ORIGIN LEVEL: 0 DIFFERENT FILL-ORIGIN LEVEL: 0
ITLB AVERAGE MISS LATENCY: -nan cycles
ITLB AVERAGE MISS LATENCY LOAD: -nan cycles
ITLB AVERAGE MISS LATENCY PREFETCH: -nan cycles
ITLB AVERAGE MSHR OCCUPANCY: 0
ITLB MSHR FULL: 0
ITLB RQ	ACCESS:   30994071	FORWARD:          0	MERGED:     584089	TO_CACHE:   30409982

DTLB SPEC fills:          0  NON-SPEC fills:          0
DTLB Test counter :          0
DTLB Leapfrog:          0
DTLB MSHR merge:          0
DTLB TOTAL     ACCESS:   47527142  HIT:   37826801  MISS:    9700341  HIT %:    79.5899  MISS %:    20.4101   MPKI: 48.5017
DTLB LOAD TRANSLATION NON_SPEC    ACCESS:   47527142  HIT:   37826801  MISS:    9700341  HIT %:    79.5899  MISS %:    20.4101   MPKI: 48.5017
DTLB PREFETCH  REQUESTED:          0  ISSUED:          0  USEFUL:          0  USELESS:          0
DTLB USEFUL LOAD PREFETCHES:          0 PREFETCH ISSUED TO LOWER LEVEL:          0  ACCURACY: -nan
DTLB TIMELY PREFETCHES:          0 LATE PREFETCHES: 0 DROPPED PREFETCHES: 0
DTLB COMMIT LATE PREFETCHES: 0 NORMAL LATE: 0 MISSED OPPORTUNITY: 0 UNCOVERED: 0
DTLB PREFETCHES SAME FILL-ORIGIN LEVEL: 0 DIFFERENT FILL-ORIGIN LEVEL: 0
DTLB AVERAGE MISS LATENCY: 9.48929 cycles
DTLB AVERAGE MISS LATENCY LOAD: -nan cycles
DTLB AVERAGE MISS LATENCY PREFETCH: -nan cycles
DTLB AVERAGE MSHR OCCUPANCY: 0.36898
DTLB MSHR FULL: 0.00324724
DTLB RQ	ACCESS:   49680570	FORWARD:          0	MERGED:    1809065	TO_CACHE:   47871505

STLB SPEC fills:          0  NON-SPEC fills:          0
STLB Test counter :          0
STLB Leapfrog:          0
STLB MSHR merge:          0
STLB TOTAL     ACCESS:   10997939  HIT:   10983295  MISS:      14644  HIT %:    99.8668  MISS %:   0.133152   MPKI: 0.07322
STLB LOAD TRANSLATION NON_SPEC    ACCESS:    9700341  HIT:    9685697  MISS:      14644  HIT %:     99.849  MISS %:   0.150964   MPKI: 0.07322
STLB TRANSLATION FROM L1D PREFETCHER NON_SPEC    ACCESS:    1297598  HIT:    1297598  MISS:          0  HIT %:        100  MISS %:          0   MPKI: 0
STLB PREFETCH  REQUESTED:          0  ISSUED:          0  USEFUL:          0  USELESS:          0
STLB USEFUL LOAD PREFETCHES:          0 PREFETCH ISSUED TO LOWER LEVEL:          0  ACCURACY: -nan
STLB TIMELY PREFETCHES:          0 LATE PREFETCHES: 0 DROPPED PREFETCHES: 0
STLB COMMIT LATE PREFETCHES: 0 NORMAL LATE: 0 MISSED OPPORTUNITY: 0 UNCOVERED: 0
STLB PREFETCHES SAME FILL-ORIGIN LEVEL: 0 DIFFERENT FILL-ORIGIN LEVEL: 0
STLB AVERAGE MISS LATENCY: 187.138 cycles
STLB AVERAGE MISS LATENCY LOAD: -nan cycles
STLB AVERAGE MISS LATENCY PREFETCH: -nan cycles
STLB AVERAGE MSHR OCCUPANCY: 0.00110093
STLB MSHR FULL: 0
STLB RQ	ACCESS:   13471411	FORWARD:          0	MERGED:    2473471	TO_CACHE:   10997940

STLB Hit, L1D data hit: 0
STLB Hit, L2C data hit: 0
STLB Hit, LLC data hit: 0
STLB Hit, LLC data miss: 0
STLB STLB hints to L2: 0
L0D SPEC fills:   24926532  NON-SPEC fills:          0
L0D TimeGuard Request with older TS:     649919 Restricted eviction:     272459 read:     585987
L0D Test counter :          0
L0D Leapfrog:          0
L0D MSHR merge:     859078
L0D TOTAL     ACCESS:   48573985  HIT:   12981491  MISS:   35592494  HIT %:    26.7252  MISS %:    73.2748   MPKI: 177.962
L0D LOAD      TOTAL       ACCESS:   48573985  HIT:   12981491  MISS:   35592494  HIT %:    26.7252  MISS %:    73.2748   MPKI: 177.962
L0D LOAD      NON_SPEC    ACCESS:   11307245  HIT:     913742  MISS:   10393503  HIT %:    8.08103  MISS %:     91.919   MPKI: 51.9675
L0D LOAD      SPEC        ACCESS:   37266740  HIT:   12067749  MISS:   25198991  HIT %:    32.3821  MISS %:    67.6179   MPKI: 125.995
L0D PREFETCH  REQUESTED:          0  ISSUED:          0  USEFUL:          0  USELESS:          0
L0D USEFUL LOAD PREFETCHES:          0 PREFETCH ISSUED TO LOWER LEVEL:          0  ACCURACY: -nan
L0D TIMELY PREFETCHES:          0 LATE PREFETCHES: 0 DROPPED PREFETCHES: 0
L0D COMMIT LATE PREFETCHES: 0 NORMAL LATE: 0 MISSED OPPORTUNITY: 0 UNCOVERED: 0
L0D PREFETCHES SAME FILL-ORIGIN LEVEL: 0 DIFFERENT FILL-ORIGIN LEVEL: 0
L0D AVERAGE MISS LATENCY: 31.2954 cycles
L0D AVERAGE MISS LATENCY LOAD: 31.2954 cycles
L0D AVERAGE MISS LATENCY PREFETCH: -nan cycles
L0D AVERAGE MSHR OCCUPANCY: 1.97744
L0D MSHR FULL: 0.0384977
L0D RQ	ACCESS:   55035494	FORWARD:          0	MERGED:    5602430	TO_CACHE:   49433064
L0D WQ	ACCESS:     247506	FORWARD:          0	MERGED:          0	TO_CACHE:     247506

L1D SPEC fills:          0  NON-SPEC fills:    3352020
L1D Test counter :          0
L1D Leapfrog:          0
L1D MSHR merge:      12414
L1D TOTAL     ACCESS:   75872756  HIT:   49931471  MISS:   25941285  HIT %:    65.8095  MISS %:    34.1905   MPKI: 129.706
L1D LOAD      TOTAL       ACCESS:   35592016  HIT:   21655656  MISS:   13936360  HIT %:    60.8441  MISS %:    39.1559   MPKI: 69.6818
L1D LOAD      NON_SPEC    ACCESS:   10393067  HIT:    7041047  MISS:    3352020  HIT %:    67.7475  MISS %:    32.2525   MPKI: 16.7601
L1D LOAD      SPEC        ACCESS:   25198949  HIT:   14614609  MISS:   10584340  HIT %:    57.9969  MISS %:    42.0031   MPKI: 52.9217
L1D RFO       NON_SPEC    ACCESS:     246261  HIT:     246261  MISS:          0  HIT %:        100  MISS %:          0   MPKI: 0
L1D PREFETCH  NON_SPEC    ACCESS:    3684078  HIT:    2256859  MISS:    1427219  HIT %:    61.2598  MISS %:    38.7402   MPKI: 7.1361
L1D COMMIT LOAD NON_SPEC    ACCESS:   12171705  HIT:   11931420  MISS:     240285  HIT %:    98.0259  MISS %:    1.97413   MPKI: 1.20142
L1D COMMIT WRITE NON_SPEC    ACCESS:   24178696  HIT:   13841275  MISS:   10337421  HIT %:    57.2457  MISS %:    42.7543   MPKI: 51.6871
L1D PREFETCH  REQUESTED:    3793367  ISSUED:    3793367  USEFUL:     963041  USELESS:     464178
L1D USEFUL LOAD PREFETCHES:     963041 PREFETCH ISSUED TO LOWER LEVEL:    1445715  ACCURACY: 66.6135
L1D TIMELY PREFETCHES:     963041 LATE PREFETCHES: 12170 DROPPED PREFETCHES: 0
L1D COMMIT LATE PREFETCHES: 42805 NORMAL LATE: 12422 MISSED OPPORTUNITY: 980 UNCOVERED: 13881291
L1D PREFETCHES SAME FILL-ORIGIN LEVEL: 1439389 DIFFERENT FILL-ORIGIN LEVEL: 6326
L1D AVERAGE MISS LATENCY: 46.7775 cycles
L1D AVERAGE MISS LATENCY LOAD: 66.8967 cycles
L1D AVERAGE MISS LATENCY PREFETCH: 190.187 cycles
L1D AVERAGE MSHR OCCUPANCY: 1.60879
L1D MSHR FULL: 7.53677e-06
L1D RQ	ACCESS:   54776594	FORWARD:          0	MERGED:    5082538	TO_CACHE:   47765470
L1D WQ	ACCESS:   24648995	FORWARD:    1928586	MERGED:     222801	TO_CACHE:   24426194
L1D PQ	ACCESS:    3793367	FORWARD:          0	MERGED:      22298	TO_CACHE:    3771069

L1D UNIQUE REGIONS ACCESSED: 0
L1D REGIONS CONFLICTS: 0
L1D Cross Page Prefetch Requests: 0
L1D Same Page Prefetch Requests: 4822805
L1D ROI Sum of L1D PQ occupancy: 54351124
L1D PREFETCHES PUSHED FROM L2C: 0
L1I SPEC fills:          0  NON-SPEC fills:          0
L1I Test counter :          0
L1I Leapfrog:          0
L1I MSHR merge:          0
L1I TOTAL     ACCESS:   30994072  HIT:   30994072  MISS:          0  HIT %:        100  MISS %:          0   MPKI: 0
L1I LOAD      TOTAL       ACCESS:   30994072  HIT:   30994072  MISS:          0  HIT %:        100  MISS %:          0   MPKI: 0
L1I LOAD      NON_SPEC    ACCESS:   30994072  HIT:   30994072  MISS:          0  HIT %:        100  MISS %:          0   MPKI: 0
L1I PREFETCH  REQUESTED:          0  ISSUED:          0  USEFUL:          0  USELESS:          0
L1I USEFUL LOAD PREFETCHES:          0 PREFETCH ISSUED TO LOWER LEVEL:          0  ACCURACY: -nan
L1I TIMELY PREFETCHES:          0 LATE PREFETCHES: 0 DROPPED PREFETCHES: 0
L1I COMMIT LATE PREFETCHES: 0 NORMAL LATE: 0 MISSED OPPORTUNITY: 0 UNCOVERED: 0
L1I PREFETCHES SAME FILL-ORIGIN LEVEL: 0 DIFFERENT FILL-ORIGIN LEVEL: 0
L1I AVERAGE MISS LATENCY: -nan cycles
L1I AVERAGE MISS LATENCY LOAD: -nan cycles
L1I AVERAGE MISS LATENCY PREFETCH: -nan cycles
L1I AVERAGE MSHR OCCUPANCY: 0
L1I MSHR FULL: 0
L1I RQ	ACCESS:   55560578	FORWARD:          0	MERGED:   24566507	TO_CACHE:   30994071

BTB SPEC fills:          0  NON-SPEC fills:          0
BTB Test counter :          0
BTB Leapfrog:          0
BTB MSHR merge:          0
BTB TOTAL     ACCESS:   40353859  HIT:   40353854  MISS:          5  HIT %:        100  MISS %: 1.23904e-05   MPKI: 2.5e-05
BTB BRANCH_DIRECT_JUMP	ACCESS:          0  HIT:          0  MISS:          0
BTB BRANCH_INDIRECT	ACCESS:          0  HIT:          0  MISS:          0
BTB BRANCH_CONDITIONAL	ACCESS:   40353859  HIT:   40353854  MISS:          5
BTB BRANCH_DIRECT_CALL	ACCESS:          0  HIT:          0  MISS:          0
BTB BRANCH_INDIRECT_CALL	ACCESS:          0  HIT:          0  MISS:          0
BTB BRANCH_RETURN	ACCESS:          0  HIT:          0  MISS:          0
BTB BRANCH_OTHER ACCESS:          0  HIT:          0  MISS:          0

L2C SPEC fills:          0  NON-SPEC fills:    2170769
L2C Test counter :          0
L2C Leapfrog:          0
L2C MSHR merge:         27
L2C TOTAL     ACCESS:   27161766  HIT:    9132351  MISS:   18029415  HIT %:    33.6221  MISS %:    66.3779   MPKI: 90.1471
L2C LOAD      TOTAL       ACCESS:   13924228  HIT:    4569108  MISS:    9355120  HIT %:    32.8141  MISS %:    67.1859   MPKI: 46.7756
L2C LOAD      NON_SPEC    ACCESS:    3345549  HIT:    1174780  MISS:    2170769  HIT %:    35.1147  MISS %:    64.8853   MPKI: 10.8538
L2C LOAD      SPEC        ACCESS:   10578679  HIT:    3394328  MISS:    7184351  HIT %:    32.0865  MISS %:    67.9135   MPKI: 35.9218
L2C PREFETCH  NON_SPEC    ACCESS:    1445244  HIT:     109243  MISS:    1336001  HIT %:    7.55879  MISS %:    92.4412   MPKI: 6.68001
L2C WRITEBACK NON_SPEC    ACCESS:      37791  HIT:      37790  MISS:          1  HIT %:    99.9974  MISS %: 0.00264613   MPKI: 5e-06
L2C CLEAN_EVICTION NON_SPEC    ACCESS:   11441384  HIT:    4243319  MISS:    7198065  HIT %:    37.0875  MISS %:    62.9125   MPKI: 35.9903
L2C COMMIT LOAD NON_SPEC    ACCESS:     239928  HIT:     104107  MISS:     135821  HIT %:    43.3909  MISS %:    56.6091   MPKI: 0.679105
L2C LOAD TRANSLATION NON_SPEC    ACCESS:      73191  HIT:      68784  MISS:       4407  HIT %:    93.9788  MISS %:    6.02123   MPKI: 0.022035
L2C PREFETCH  REQUESTED:          0  ISSUED:          0  USEFUL:      31748  USELESS:    1304270
L2C USEFUL LOAD PREFETCHES:      31748 PREFETCH ISSUED TO LOWER LEVEL:    1336029  ACCURACY: 2.3763
L2C TIMELY PREFETCHES:      31748 LATE PREFETCHES: 28 DROPPED PREFETCHES: 0
L2C COMMIT LATE PREFETCHES: 0 NORMAL LATE: 29 MISSED OPPORTUNITY: 0 UNCOVERED: 9355093
L2C PREFETCHES SAME FILL-ORIGIN LEVEL: 5872 DIFFERENT FILL-ORIGIN LEVEL: 0
L2C AVERAGE MISS LATENCY: 56.6544 cycles
L2C AVERAGE MISS LATENCY LOAD: 81.458 cycles
L2C AVERAGE MISS LATENCY PREFETCH: 189.226 cycles
L2C AVERAGE MSHR OCCUPANCY: 1.79641
L2C MSHR FULL: 0
L2C RQ	ACCESS:   14237669	FORWARD:          0	MERGED:          0	TO_CACHE:   14237350
L2C WQ	ACCESS:   11479177	FORWARD:        368	MERGED:          1	TO_CACHE:   11479176
L2C PQ	ACCESS:    1445715	FORWARD:          0	MERGED:          0	TO_CACHE:    1445666

L2C Instructions Evicting Data 0
L2C Translations Evicting Data 4404
L2C Data Evicting Data 3641110
L2C Instructions Evicting Instructions 0
L2C Translations Evicting Instructions 0
L2C Data Evicting Instructions 0
L2C Instructions Evicting Translations 0
L2C Translations Evicting Translations 3
L2C Data Evicting Translations 1481
L2C Dense regions hint from L2: 0
PSCL5 SPEC fills:          0  NON-SPEC fills:          0
PSCL5 Test counter :          0
PSCL5 Leapfrog:          0
PSCL5 MSHR merge:          0
PSCL5 TOTAL     ACCESS:          0  HIT:          0  MISS:          0  HIT %:       -nan  MISS %:       -nan   MPKI: 0
PSCL5 PREFETCH  REQUESTED:          0  ISSUED:          0  USEFUL:          0  USELESS:          0
PSCL5 USEFUL LOAD PREFETCHES:          0 PREFETCH ISSUED TO LOWER LEVEL:          0  ACCURACY: -nan
PSCL5 TIMELY PREFETCHES:          0 LATE PREFETCHES: 0 DROPPED PREFETCHES: 0
PSCL5 COMMIT LATE PREFETCHES: 0 NORMAL LATE: 0 MISSED OPPORTUNITY: 0 UNCOVERED: 0
PSCL5 PREFETCHES SAME FILL-ORIGIN LEVEL: 0 DIFFERENT FILL-ORIGIN LEVEL: 0

PSCL4 SPEC fills:          0  NON-SPEC fills:          0
PSCL4 Test counter :          0
PSCL4 Leapfrog:          0
PSCL4 MSHR merge:          0
PSCL4 TOTAL     ACCESS:          0  HIT:          0  MISS:          0  HIT %:       -nan  MISS %:       -nan   MPKI: 0
PSCL4 PREFETCH  REQUESTED:          0  ISSUED:          0  USEFUL:          0  USELESS:          0
PSCL4 USEFUL LOAD PREFETCHES:          0 PREFETCH ISSUED TO LOWER LEVEL:          0  ACCURACY: -nan
PSCL4 TIMELY PREFETCHES:          0 LATE PREFETCHES: 0 DROPPED PREFETCHES: 0
PSCL4 COMMIT LATE PREFETCHES: 0 NORMAL LATE: 0 MISSED OPPORTUNITY: 0 UNCOVERED: 0
PSCL4 PREFETCHES SAME FILL-ORIGIN LEVEL: 0 DIFFERENT FILL-ORIGIN LEVEL: 0

PSCL3 SPEC fills:          0  NON-SPEC fills:          0
PSCL3 Test counter :          0
PSCL3 Leapfrog:          0
PSCL3 MSHR merge:          0
PSCL3 TOTAL     ACCESS:          0  HIT:          0  MISS:          0  HIT %:       -nan  MISS %:       -nan   MPKI: 0
PSCL3 PREFETCH  REQUESTED:          0  ISSUED:          0  USEFUL:          0  USELESS:          0
PSCL3 USEFUL LOAD PREFETCHES:          0 PREFETCH ISSUED TO LOWER LEVEL:          0  ACCURACY: -nan
PSCL3 TIMELY PREFETCHES:          0 LATE PREFETCHES: 0 DROPPED PREFETCHES: 0
PSCL3 COMMIT LATE PREFETCHES: 0 NORMAL LATE: 0 MISSED OPPORTUNITY: 0 UNCOVERED: 0
PSCL3 PREFETCHES SAME FILL-ORIGIN LEVEL: 0 DIFFERENT FILL-ORIGIN LEVEL: 0

PSCL2 SPEC fills:          0  NON-SPEC fills:          0
PSCL2 Test counter :          0
PSCL2 Leapfrog:          0
PSCL2 MSHR merge:          0
PSCL2 TOTAL     ACCESS:          0  HIT:          0  MISS:          0  HIT %:       -nan  MISS %:       -nan   MPKI: 0
PSCL2 PREFETCH  REQUESTED:          0  ISSUED:          0  USEFUL:          0  USELESS:          0
PSCL2 USEFUL LOAD PREFETCHES:          0 PREFETCH ISSUED TO LOWER LEVEL:          0  ACCURACY: -nan
PSCL2 TIMELY PREFETCHES:          0 LATE PREFETCHES: 0 DROPPED PREFETCHES: 0
PSCL2 COMMIT LATE PREFETCHES: 0 NORMAL LATE: 0 MISSED OPPORTUNITY: 0 UNCOVERED: 0
PSCL2 PREFETCHES SAME FILL-ORIGIN LEVEL: 0 DIFFERENT FILL-ORIGIN LEVEL: 0

LLC SPEC fills:          0  NON-SPEC fills:     763881
LLC Test counter :          0
LLC Leapfrog:          0
LLC MSHR merge:          0
LLC TOTAL     ACCESS:   19428061  HIT:   11882283  MISS:    7545778  HIT %:    61.1604  MISS %:    38.8396   MPKI: 37.7289
LLC LOAD      TOTAL       ACCESS:    9355004  HIT:    6008318  MISS:    3346686  HIT %:    64.2257  MISS %:    35.7743   MPKI: 16.7334
LLC LOAD      NON_SPEC    ACCESS:    2170760  HIT:    1406879  MISS:     763881  HIT %:    64.8104  MISS %:    35.1896   MPKI: 3.81941
LLC LOAD      SPEC        ACCESS:    7184244  HIT:    4601439  MISS:    2582805  HIT %:     64.049  MISS %:     35.951   MPKI: 12.914
LLC PREFETCH  NON_SPEC    ACCESS:    1336029  HIT:     160951  MISS:    1175078  HIT %:     12.047  MISS %:     87.953   MPKI: 5.87539
LLC WRITEBACK NON_SPEC    ACCESS:      34617  HIT:      34607  MISS:         10  HIT %:    99.9711  MISS %:  0.0288875   MPKI: 5e-05
LLC CLEAN_EVICTION NON_SPEC    ACCESS:    8562211  HIT:    5554307  MISS:    3007904  HIT %:      64.87  MISS %:      35.13   MPKI: 15.0395
LLC COMMIT LOAD NON_SPEC    ACCESS:     135793  HIT:     121570  MISS:      14223  HIT %:     89.526  MISS %:     10.474   MPKI: 0.071115
LLC LOAD TRANSLATION NON_SPEC    ACCESS:       4407  HIT:       2530  MISS:       1877  HIT %:    57.4087  MISS %:    42.5913   MPKI: 0.009385
LLC PREFETCH  REQUESTED:          0  ISSUED:          0  USEFUL:      61981  USELESS:    1113517
LLC USEFUL LOAD PREFETCHES:      61981 PREFETCH ISSUED TO LOWER LEVEL:    1175078  ACCURACY: 5.27463
LLC TIMELY PREFETCHES:      61981 LATE PREFETCHES: 0 DROPPED PREFETCHES: 0
LLC COMMIT LATE PREFETCHES: 0 NORMAL LATE: 0 MISSED OPPORTUNITY: 0 UNCOVERED: 0
LLC PREFETCHES SAME FILL-ORIGIN LEVEL: 0 DIFFERENT FILL-ORIGIN LEVEL: 0
LLC AVERAGE MISS LATENCY: 100.845 cycles
LLC AVERAGE MISS LATENCY LOAD: 163.117 cycles
LLC AVERAGE MISS LATENCY PREFETCH: 180.989 cycles
LLC AVERAGE MSHR OCCUPANCY: 1.0912
LLC MSHR FULL: 0
LLC RQ	ACCESS:    9495321	FORWARD:          0	MERGED:          0	TO_CACHE:    9495205
LLC WQ	ACCESS:    8596829	FORWARD:        116	MERGED:          0	TO_CACHE:    8596829
LLC PQ	ACCESS:    1336029	FORWARD:          0	MERGED:          0	TO_CACHE:    1336029

LLC Dense regions hint to LLC: 0

RAW hits: 26536
Loads Generated: 55062032
Loads sent to L1D: 55035494
Stores Generated: 247506
Stores sent to L1D: 247506
Major fault: 0 Minor fault: 19168
Allocated PAGES: 19168
Total Load insts: 67812891
Total Non-spec loads: 11789184
Percentage of speculative loads: 82.6151

LeapFrogging counter: 475303
Commit hits: 24401489 miss: 19184098
Commit hit %: 55.9852 miss %: 44.0148
Commits not translated: 0
Loads retired: 13936358
Stores retired: 247506
Cache fills: 13936360
L1D response latency: 66.8967 cycles
Load retirement latency: 149.583 cycles
OOO test counter: 0
Discarded buffer inserts: 24401489 hits: 1461 hit %: 0.00598734
Filter prediction accuracy: -nan
Speculative prefetch buffer size: 0
CPU 0 L1D PC-based stride prefetcher final stats
Degree: 3
CPU 0 L1D PC-based stride prefetcher final stats
Degree: 3

DRAM Statistics
 CHANNEL 0
 RQ ROW_BUFFER_HIT:     389069  ROW_BUFFER_MISS:    4147767
 DBUS_CONGESTED:       1929
 WQ ROW_BUFFER_HIT:    1539916  ROW_BUFFER_MISS:    2743029  FULL:        145

 AVG_CONGESTED_CYCLE: 5
 All warmup complete: 2
Channel 0 Bank busy for read cycles: 0
Channel 0 Bank busy for write cycles: 0
Channel 0
Rank 0
0banks busy for read cycles: 50444321
0banks busy for write cycles: 523577
1banks busy for read cycles: 249163276
1banks busy for write cycles: 87818788
2banks busy for read cycles: 100766904
2banks busy for write cycles: 75275365
3banks busy for read cycles: 38622107
3banks busy for write cycles: 47357340
4banks busy for read cycles: 12855863
4banks busy for write cycles: 28161174
5banks busy for read cycles: 3527842
5banks busy for write cycles: 18095724
6banks busy for read cycles: 880584
6banks busy for write cycles: 13565056
7banks busy for read cycles: 194381
7banks busy for write cycles: 14529804
8banks busy for read cycles: 25550
8banks busy for write cycles: 21751510

CPU 0 Branch Prediction Accuracy: 92.3859% MPKI: 15.4313 Average ROB Occupancy at Mispredict: 33.9427
Branch types
NOT_BRANCH: 159466168 79.7331%
BRANCH_DIRECT_JUMP: 0 0%
BRANCH_INDIRECT: 0 0%
BRANCH_CONDITIONAL: 40533593 20.2668%
BRANCH_DIRECT_CALL: 0 0%
BRANCH_INDIRECT_CALL: 0 0%
BRANCH_RETURN: 0 0%
BRANCH_OTHER: 0 0%

DRAM PAGES: 1048576
Allocated PAGES: 19168
