
*** ChampSim Multicore Out-of-Order Simulator ***

Warmup Instructions: 50000000
Simulation Instructions: 200000000
Number of CPUs: 1
LLC sets: 2048
LLC ways: 16
L0D sets: 16
L0D ways: 2
ROB size: 352
LQ size: 128
SQ size: 72
Secure Berti: OFF
Berti: OFF
Berti Fill: OFF
On commit prefetching: ON
Hit-based filter: OFF
Time-guarding: ON
Free-slotting: ON
Leap-frogging: ON
Train prefetcher on L0D bypass: OFF
No translation penalty for prefetchers: OFF
Prefetch to L0D only: OFF
Prefetch to L1D only: OFF
Clean evictions: ON
Commit loads: ON
Commit write: ON
Fill commit loads to L2C, LLC: ON
DRAM IO FREQUENCY: 6400
ROB SIZE: 352
Off-chip DRAM Size: 4096 MB Channels: 1 Width: 64-bit Data Rate: 6400 MT/s
CPU 0 runs /home/sumon/secure_berti/GhostMinion/../../traces/gap/sssp-5.trace.gz
.gz
BTB has LRU replacement policy
ITLB has LRU replacement policy
DTLB has LRU replacement policy
STLB has LRU replacement policy
L1I has LRU replacement policy
L0D has LRU replacement policy
CPU 0 L1D IP-based stride prefetcher
CPU 0 L1D IP-based stride prefetcher
L1D has LRU replacement policy
L2C has LRU replacement policy
LLC has LRU replacement policy
Heartbeat CPU 0 instructions: 10000001 cycles: 3955802 heartbeat IPC: 2.52793 cumulative IPC: 2.52793 (Simulation time: 0 hr 1 min 7 sec) 
Heartbeat CPU 0 instructions: 20000000 cycles: 7786343 heartbeat IPC: 2.6106 cumulative IPC: 2.5686 (Simulation time: 0 hr 2 min 19 sec) 
Heartbeat CPU 0 instructions: 30000003 cycles: 11574330 heartbeat IPC: 2.63993 cumulative IPC: 2.59194 (Simulation time: 0 hr 3 min 39 sec) 
Heartbeat CPU 0 instructions: 40000000 cycles: 15336141 heartbeat IPC: 2.65829 cumulative IPC: 2.60822 (Simulation time: 0 hr 5 min 0 sec) 
Heartbeat CPU 0 instructions: 50000003 cycles: 19080224 heartbeat IPC: 2.67088 cumulative IPC: 2.62051 (Simulation time: 0 hr 6 min 18 sec) 

Warmup complete CPU 0 instructions: 50000003 cycles: 19080224 (Simulation time: 0 hr 6 min 18 sec) 

Heartbeat CPU 0 instructions: 60000002 cycles: 46931836 heartbeat IPC: 0.359046 cumulative IPC: 0.359046 (Simulation time: 0 hr 7 min 21 sec) 
Heartbeat CPU 0 instructions: 70000001 cycles: 74417181 heartbeat IPC: 0.36383 cumulative IPC: 0.361422 (Simulation time: 0 hr 8 min 26 sec) 
Heartbeat CPU 0 instructions: 80000000 cycles: 101988427 heartbeat IPC: 0.362697 cumulative IPC: 0.361846 (Simulation time: 0 hr 9 min 30 sec) 
Heartbeat CPU 0 instructions: 90000001 cycles: 128433094 heartbeat IPC: 0.378148 cumulative IPC: 0.365788 (Simulation time: 0 hr 10 min 35 sec) 
Heartbeat CPU 0 instructions: 100000000 cycles: 154477688 heartbeat IPC: 0.383957 cumulative IPC: 0.369283 (Simulation time: 0 hr 11 min 40 sec) 
Heartbeat CPU 0 instructions: 110000000 cycles: 179709803 heartbeat IPC: 0.39632 cumulative IPC: 0.37353 (Simulation time: 0 hr 12 min 45 sec) 
Heartbeat CPU 0 instructions: 120000000 cycles: 204407991 heartbeat IPC: 0.404888 cumulative IPC: 0.377709 (Simulation time: 0 hr 13 min 50 sec) 
Heartbeat CPU 0 instructions: 130000000 cycles: 229892625 heartbeat IPC: 0.392393 cumulative IPC: 0.379484 (Simulation time: 0 hr 14 min 56 sec) 
Heartbeat CPU 0 instructions: 140000000 cycles: 254650141 heartbeat IPC: 0.403918 cumulative IPC: 0.382052 (Simulation time: 0 hr 16 min 2 sec) 
Heartbeat CPU 0 instructions: 150000000 cycles: 278949067 heartbeat IPC: 0.411541 cumulative IPC: 0.384809 (Simulation time: 0 hr 17 min 8 sec) 
Heartbeat CPU 0 instructions: 160000000 cycles: 302998467 heartbeat IPC: 0.415811 cumulative IPC: 0.387435 (Simulation time: 0 hr 18 min 13 sec) 
Heartbeat CPU 0 instructions: 170000002 cycles: 327034785 heartbeat IPC: 0.416037 cumulative IPC: 0.389668 (Simulation time: 0 hr 19 min 18 sec) 
Heartbeat CPU 0 instructions: 180000000 cycles: 351171230 heartbeat IPC: 0.414311 cumulative IPC: 0.391459 (Simulation time: 0 hr 20 min 26 sec) 
Heartbeat CPU 0 instructions: 190000001 cycles: 375563035 heartbeat IPC: 0.409974 cumulative IPC: 0.392726 (Simulation time: 0 hr 21 min 34 sec) 
Heartbeat CPU 0 instructions: 200000001 cycles: 399454834 heartbeat IPC: 0.418554 cumulative IPC: 0.394348 (Simulation time: 0 hr 22 min 41 sec) 
Heartbeat CPU 0 instructions: 210000000 cycles: 422938335 heartbeat IPC: 0.425831 cumulative IPC: 0.396179 (Simulation time: 0 hr 23 min 46 sec) 
Heartbeat CPU 0 instructions: 220000000 cycles: 446789754 heartbeat IPC: 0.419262 cumulative IPC: 0.397466 (Simulation time: 0 hr 24 min 52 sec) 
Heartbeat CPU 0 instructions: 230000002 cycles: 470139083 heartbeat IPC: 0.428278 cumulative IPC: 0.399061 (Simulation time: 0 hr 25 min 55 sec) 
Heartbeat CPU 0 instructions: 240000002 cycles: 493593711 heartbeat IPC: 0.426355 cumulative IPC: 0.40041 (Simulation time: 0 hr 26 min 59 sec) 
Heartbeat CPU 0 instructions: 250000000 cycles: 516803194 heartbeat IPC: 0.430858 cumulative IPC: 0.40183 (Simulation time: 0 hr 28 min 2 sec) 
Finished CPU 0 instructions: 200000001 cycles: 497722971 cumulative IPC: 0.40183 (Simulation time: 0 hr 28 min 2 sec) 
 Instruction ID: 250000379

ChampSim completed all CPUs

Region of Interest Statistics

CPU 0 cumulative IPC: 0.40183 instructions: 200000001 cycles: 497722971
ITLB SPEC fills:          0  NON-SPEC fills:          0
ITLB Test counter :          0
ITLB Leapfrog:          0
ITLB MSHR merge:          0
ITLB TOTAL     ACCESS:   24193281  HIT:   24193281  MISS:          0  HIT %:        100  MISS %:          0   MPKI: 0
ITLB LOAD TRANSLATION NON_SPEC    ACCESS:   24193281  HIT:   24193281  MISS:          0  HIT %:        100  MISS %:          0   MPKI: 0
ITLB PREFETCH  REQUESTED:          0  ISSUED:          0  USEFUL:          0  USELESS:          0
ITLB USEFUL LOAD PREFETCHES:          0 PREFETCH ISSUED TO LOWER LEVEL:          0  ACCURACY: -nan
ITLB TIMELY PREFETCHES:          0 LATE PREFETCHES: 0 DROPPED PREFETCHES: 0
ITLB COMMIT LATE PREFETCHES: 0 NORMAL LATE: 0 MISSED OPPORTUNITY: 0 UNCOVERED: 0
ITLB PREFETCHES SAME FILL-ORIGIN LEVEL: 0 DIFFERENT FILL-ORIGIN LEVEL: 0
ITLB AVERAGE MISS LATENCY: -nan cycles
ITLB AVERAGE MISS LATENCY LOAD: -nan cycles
ITLB AVERAGE MISS LATENCY PREFETCH: -nan cycles
ITLB AVERAGE MSHR OCCUPANCY: 0
ITLB MSHR FULL: 0
ITLB RQ	ACCESS:   24865807	FORWARD:          0	MERGED:     672526	TO_CACHE:   24193281

DTLB SPEC fills:          0  NON-SPEC fills:          0
DTLB Test counter :          0
DTLB Leapfrog:          0
DTLB MSHR merge:          0
DTLB TOTAL     ACCESS:   48526146  HIT:   44004316  MISS:    4521830  HIT %:    90.6817  MISS %:    9.31834   MPKI: 22.6091
DTLB LOAD TRANSLATION NON_SPEC    ACCESS:   48526146  HIT:   44004316  MISS:    4521830  HIT %:    90.6817  MISS %:    9.31834   MPKI: 22.6091
DTLB PREFETCH  REQUESTED:          0  ISSUED:          0  USEFUL:          0  USELESS:          0
DTLB USEFUL LOAD PREFETCHES:          0 PREFETCH ISSUED TO LOWER LEVEL:          0  ACCURACY: -nan
DTLB TIMELY PREFETCHES:          0 LATE PREFETCHES: 0 DROPPED PREFETCHES: 0
DTLB COMMIT LATE PREFETCHES: 0 NORMAL LATE: 0 MISSED OPPORTUNITY: 0 UNCOVERED: 0
DTLB PREFETCHES SAME FILL-ORIGIN LEVEL: 0 DIFFERENT FILL-ORIGIN LEVEL: 0
DTLB AVERAGE MISS LATENCY: 12.29 cycles
DTLB AVERAGE MISS LATENCY LOAD: -nan cycles
DTLB AVERAGE MISS LATENCY PREFETCH: -nan cycles
DTLB AVERAGE MSHR OCCUPANCY: 0.228313
DTLB MSHR FULL: 1.2265e-07
DTLB RQ	ACCESS:   52978386	FORWARD:          0	MERGED:    4058613	TO_CACHE:   48919773

STLB SPEC fills:          0  NON-SPEC fills:          0
STLB Test counter :          0
STLB Leapfrog:          0
STLB MSHR merge:          0
STLB TOTAL     ACCESS:    6062263  HIT:    6003523  MISS:      58740  HIT %:    99.0311  MISS %:   0.968945   MPKI: 0.2937
STLB LOAD TRANSLATION NON_SPEC    ACCESS:    4521830  HIT:    4463090  MISS:      58740  HIT %:     98.701  MISS %:    1.29903   MPKI: 0.2937
STLB TRANSLATION FROM L1D PREFETCHER NON_SPEC    ACCESS:    1540433  HIT:    1540433  MISS:          0  HIT %:        100  MISS %:          0   MPKI: 0
STLB PREFETCH  REQUESTED:          0  ISSUED:          0  USEFUL:          0  USELESS:          0
STLB USEFUL LOAD PREFETCHES:          0 PREFETCH ISSUED TO LOWER LEVEL:          0  ACCURACY: -nan
STLB TIMELY PREFETCHES:          0 LATE PREFETCHES: 0 DROPPED PREFETCHES: 0
STLB COMMIT LATE PREFETCHES: 0 NORMAL LATE: 0 MISSED OPPORTUNITY: 0 UNCOVERED: 0
STLB PREFETCHES SAME FILL-ORIGIN LEVEL: 0 DIFFERENT FILL-ORIGIN LEVEL: 0
STLB AVERAGE MISS LATENCY: 235.975 cycles
STLB AVERAGE MISS LATENCY LOAD: -nan cycles
STLB AVERAGE MISS LATENCY PREFETCH: -nan cycles
STLB AVERAGE MSHR OCCUPANCY: 0.00914901
STLB MSHR FULL: 0
STLB RQ	ACCESS:    8922894	FORWARD:          0	MERGED:    2860377	TO_CACHE:    6062517

STLB Hit, L1D data hit: 0
STLB Hit, L2C data hit: 0
STLB Hit, LLC data hit: 0
STLB Hit, LLC data miss: 0
STLB STLB hints to L2: 0
L0D SPEC fills:   26328320  NON-SPEC fills:          0
L0D TimeGuard Request with older TS:    2290618 Restricted eviction:     234152 read:    4334541
L0D Test counter :          0
L0D Leapfrog:          0
L0D MSHR merge:    2163618
L0D TOTAL     ACCESS:   48573417  HIT:   16927436  MISS:   31645981  HIT %:    34.8492  MISS %:    65.1508   MPKI: 158.23
L0D LOAD      TOTAL       ACCESS:   48573417  HIT:   16927436  MISS:   31645981  HIT %:    34.8492  MISS %:    65.1508   MPKI: 158.23
L0D LOAD      NON_SPEC    ACCESS:    5164381  HIT:      80872  MISS:    5083509  HIT %:    1.56596  MISS %:     98.434   MPKI: 25.4175
L0D LOAD      SPEC        ACCESS:   43409036  HIT:   16846564  MISS:   26562472  HIT %:    38.8089  MISS %:    61.1911   MPKI: 132.812
L0D PREFETCH  REQUESTED:          0  ISSUED:          0  USEFUL:          0  USELESS:          0
L0D USEFUL LOAD PREFETCHES:          0 PREFETCH ISSUED TO LOWER LEVEL:          0  ACCURACY: -nan
L0D TIMELY PREFETCHES:          0 LATE PREFETCHES: 0 DROPPED PREFETCHES: 0
L0D COMMIT LATE PREFETCHES: 0 NORMAL LATE: 0 MISSED OPPORTUNITY: 0 UNCOVERED: 0
L0D PREFETCHES SAME FILL-ORIGIN LEVEL: 0 DIFFERENT FILL-ORIGIN LEVEL: 0
L0D AVERAGE MISS LATENCY: 29.8387 cycles
L0D AVERAGE MISS LATENCY LOAD: 29.8387 cycles
L0D AVERAGE MISS LATENCY PREFETCH: -nan cycles
L0D AVERAGE MSHR OCCUPANCY: 2.28608
L0D MSHR FULL: 0.075117
L0D RQ	ACCESS:   76702590	FORWARD:          0	MERGED:   25965556	TO_CACHE:   50737034
L0D WQ	ACCESS:    2241352	FORWARD:          0	MERGED:          0	TO_CACHE:    2241352

L1D SPEC fills:          0  NON-SPEC fills:    1750233
L1D Test counter :          0
L1D Leapfrog:          0
L1D MSHR merge:      43144
L1D TOTAL     ACCESS:   80370410  HIT:   61403931  MISS:   18966479  HIT %:    76.4012  MISS %:    23.5988   MPKI: 94.8324
L1D LOAD      TOTAL       ACCESS:   31645033  HIT:   22404290  MISS:    9240743  HIT %:    70.7988  MISS %:    29.2012   MPKI: 46.2037
L1D LOAD      NON_SPEC    ACCESS:    5082797  HIT:    3332564  MISS:    1750233  HIT %:    65.5656  MISS %:    34.4344   MPKI: 8.75116
L1D LOAD      SPEC        ACCESS:   26562236  HIT:   19071726  MISS:    7490510  HIT %:    71.8002  MISS %:    28.1998   MPKI: 37.4525
L1D RFO       NON_SPEC    ACCESS:    2062186  HIT:    1583392  MISS:     478794  HIT %:    76.7822  MISS %:    23.2178   MPKI: 2.39397
L1D PREFETCH  NON_SPEC    ACCESS:    3971607  HIT:    2230482  MISS:    1741125  HIT %:    56.1607  MISS %:    43.8393   MPKI: 8.70562
L1D COMMIT LOAD NON_SPEC    ACCESS:   18543547  HIT:   18420759  MISS:     122788  HIT %:    99.3378  MISS %:    0.66216   MPKI: 0.61394
L1D COMMIT WRITE NON_SPEC    ACCESS:   24148037  HIT:   16765008  MISS:    7383029  HIT %:     69.426  MISS %:     30.574   MPKI: 36.9151
L1D PREFETCH  REQUESTED:    8802419  ISSUED:    8798475  USEFUL:    1126462  USELESS:     614828
L1D USEFUL LOAD PREFETCHES:    1126462 PREFETCH ISSUED TO LOWER LEVEL:    1884048  ACCURACY: 59.7895
L1D TIMELY PREFETCHES:    1126462 LATE PREFETCHES: 52272 DROPPED PREFETCHES: 0
L1D COMMIT LATE PREFETCHES: 118077 NORMAL LATE: 48084 MISSED OPPORTUNITY: 960 UNCOVERED: 9084806
L1D PREFETCHES SAME FILL-ORIGIN LEVEL: 1814194 DIFFERENT FILL-ORIGIN LEVEL: 69854
L1D AVERAGE MISS LATENCY: 62.8889 cycles
L1D AVERAGE MISS LATENCY LOAD: 84.551 cycles
L1D AVERAGE MISS LATENCY PREFETCH: 209.628 cycles
L1D AVERAGE MSHR OCCUPANCY: 2.43089
L1D MSHR FULL: 0.040166
L1D RQ	ACCESS:   78897384	FORWARD:          0	MERGED:   23506350	TO_CACHE:   50190883
L1D WQ	ACCESS:   26419495	FORWARD:    5200151	MERGED:      31782	TO_CACHE:   26387713
L1D PQ	ACCESS:    8798475	FORWARD:          0	MERGED:    4397411	TO_CACHE:    4401064

L1D UNIQUE REGIONS ACCESSED: 0
L1D REGIONS CONFLICTS: 0
L1D Cross Page Prefetch Requests: 0
L1D Same Page Prefetch Requests: 11501679
L1D ROI Sum of L1D PQ occupancy: 73252556
L1D PREFETCHES PUSHED FROM L2C: 0
L1I SPEC fills:          0  NON-SPEC fills:          0
L1I Test counter :          0
L1I Leapfrog:          0
L1I MSHR merge:          0
L1I TOTAL     ACCESS:   24865805  HIT:   24865805  MISS:          0  HIT %:        100  MISS %:          0   MPKI: 0
L1I LOAD      TOTAL       ACCESS:   24865805  HIT:   24865805  MISS:          0  HIT %:        100  MISS %:          0   MPKI: 0
L1I LOAD      NON_SPEC    ACCESS:   24865805  HIT:   24865805  MISS:          0  HIT %:        100  MISS %:          0   MPKI: 0
L1I PREFETCH  REQUESTED:          0  ISSUED:          0  USEFUL:          0  USELESS:          0
L1I USEFUL LOAD PREFETCHES:          0 PREFETCH ISSUED TO LOWER LEVEL:          0  ACCURACY: -nan
L1I TIMELY PREFETCHES:          0 LATE PREFETCHES: 0 DROPPED PREFETCHES: 0
L1I COMMIT LATE PREFETCHES: 0 NORMAL LATE: 0 MISSED OPPORTUNITY: 0 UNCOVERED: 0
L1I PREFETCHES SAME FILL-ORIGIN LEVEL: 0 DIFFERENT FILL-ORIGIN LEVEL: 0
L1I AVERAGE MISS LATENCY: -nan cycles
L1I AVERAGE MISS LATENCY LOAD: -nan cycles
L1I AVERAGE MISS LATENCY PREFETCH: -nan cycles
L1I AVERAGE MSHR OCCUPANCY: 0
L1I MSHR FULL: 0
L1I RQ	ACCESS:   38847253	FORWARD:          0	MERGED:   13981446	TO_CACHE:   24865807

BTB SPEC fills:          0  NON-SPEC fills:          0
BTB Test counter :          0
BTB Leapfrog:          0
BTB MSHR merge:          0
BTB TOTAL     ACCESS:   29044147  HIT:   29044001  MISS:        146  HIT %:    99.9995  MISS %: 0.000502683   MPKI: 0.00073
BTB BRANCH_DIRECT_JUMP	ACCESS:    9217196  HIT:    9217156  MISS:         40
BTB BRANCH_INDIRECT	ACCESS:          0  HIT:          0  MISS:          0
BTB BRANCH_CONDITIONAL	ACCESS:   19824303  HIT:   19824221  MISS:         82
BTB BRANCH_DIRECT_CALL	ACCESS:       1324  HIT:       1315  MISS:          9
BTB BRANCH_INDIRECT_CALL	ACCESS:          0  HIT:          0  MISS:          0
BTB BRANCH_RETURN	ACCESS:       1324  HIT:       1309  MISS:         15
BTB BRANCH_OTHER ACCESS:          0  HIT:          0  MISS:          0

L2C SPEC fills:          0  NON-SPEC fills:    1154252
L2C Test counter :          0
L2C Leapfrog:          0
L2C MSHR merge:       2322
L2C TOTAL     ACCESS:   21253383  HIT:    6638174  MISS:   14615209  HIT %:    31.2335  MISS %:    68.7665   MPKI: 73.076
L2C LOAD      TOTAL       ACCESS:    9198504  HIT:    2339210  MISS:    6859294  HIT %:    25.4303  MISS %:    74.5697   MPKI: 34.2965
L2C LOAD      NON_SPEC    ACCESS:    1735527  HIT:     581275  MISS:    1154252  HIT %:    33.4927  MISS %:    66.5073   MPKI: 5.77126
L2C LOAD      SPEC        ACCESS:    7462977  HIT:    1757935  MISS:    5705042  HIT %:    23.5554  MISS %:    76.4446   MPKI: 28.5252
L2C RFO       NON_SPEC    ACCESS:     457992  HIT:     309504  MISS:     148488  HIT %:    67.5785  MISS %:    32.4215   MPKI: 0.74244
L2C PREFETCH  NON_SPEC    ACCESS:    1836826  HIT:      45924  MISS:    1790902  HIT %:    2.50018  MISS %:    97.4998   MPKI: 8.95451
L2C WRITEBACK NON_SPEC    ACCESS:     840902  HIT:     839188  MISS:       1714  HIT %:    99.7962  MISS %:   0.203829   MPKI: 0.00857
L2C CLEAN_EVICTION NON_SPEC    ACCESS:    8512773  HIT:    2816598  MISS:    5696175  HIT %:    33.0867  MISS %:    66.9133   MPKI: 28.4809
L2C COMMIT LOAD NON_SPEC    ACCESS:     112688  HIT:      38280  MISS:      74408  HIT %:    33.9699  MISS %:    66.0301   MPKI: 0.37204
L2C LOAD TRANSLATION NON_SPEC    ACCESS:     293698  HIT:     249470  MISS:      44228  HIT %:     84.941  MISS %:     15.059   MPKI: 0.22114
L2C PREFETCH  REQUESTED:          0  ISSUED:          0  USEFUL:      28258  USELESS:    1764964
L2C USEFUL LOAD PREFETCHES:      28258 PREFETCH ISSUED TO LOWER LEVEL:    1819491  ACCURACY: 1.55307
L2C TIMELY PREFETCHES:      28258 LATE PREFETCHES: 28589 DROPPED PREFETCHES: 0
L2C COMMIT LATE PREFETCHES: 0 NORMAL LATE: 28595 MISSED OPPORTUNITY: 0 UNCOVERED: 6856966
L2C PREFETCHES SAME FILL-ORIGIN LEVEL: 54077 DIFFERENT FILL-ORIGIN LEVEL: 0
L2C AVERAGE MISS LATENCY: 73.7624 cycles
L2C AVERAGE MISS LATENCY LOAD: 96.5159 cycles
L2C AVERAGE MISS LATENCY PREFETCH: 206.897 cycles
L2C AVERAGE MSHR OCCUPANCY: 2.38343
L2C MSHR FULL: 0
L2C RQ	ACCESS:   10062954	FORWARD:          0	MERGED:          0	TO_CACHE:   10062882
L2C WQ	ACCESS:    9353683	FORWARD:         72	MERGED:          8	TO_CACHE:    9353675
L2C PQ	ACCESS:    1884048	FORWARD:          0	MERGED:        109	TO_CACHE:    1883939

L2C Instructions Evicting Data 0
L2C Translations Evicting Data 44002
L2C Data Evicting Data 3153038
L2C Instructions Evicting Instructions 0
L2C Translations Evicting Instructions 0
L2C Data Evicting Instructions 0
L2C Instructions Evicting Translations 0
L2C Translations Evicting Translations 226
L2C Data Evicting Translations 15012
L2C Dense regions hint from L2: 0
PSCL5 SPEC fills:          0  NON-SPEC fills:          0
PSCL5 Test counter :          0
PSCL5 Leapfrog:          0
PSCL5 MSHR merge:          0
PSCL5 TOTAL     ACCESS:          0  HIT:          0  MISS:          0  HIT %:       -nan  MISS %:       -nan   MPKI: 0
PSCL5 PREFETCH  REQUESTED:          0  ISSUED:          0  USEFUL:          0  USELESS:          0
PSCL5 USEFUL LOAD PREFETCHES:          0 PREFETCH ISSUED TO LOWER LEVEL:          0  ACCURACY: -nan
PSCL5 TIMELY PREFETCHES:          0 LATE PREFETCHES: 0 DROPPED PREFETCHES: 0
PSCL5 COMMIT LATE PREFETCHES: 0 NORMAL LATE: 0 MISSED OPPORTUNITY: 0 UNCOVERED: 0
PSCL5 PREFETCHES SAME FILL-ORIGIN LEVEL: 0 DIFFERENT FILL-ORIGIN LEVEL: 0

PSCL4 SPEC fills:          0  NON-SPEC fills:          0
PSCL4 Test counter :          0
PSCL4 Leapfrog:          0
PSCL4 MSHR merge:          0
PSCL4 TOTAL     ACCESS:          0  HIT:          0  MISS:          0  HIT %:       -nan  MISS %:       -nan   MPKI: 0
PSCL4 PREFETCH  REQUESTED:          0  ISSUED:          0  USEFUL:          0  USELESS:          0
PSCL4 USEFUL LOAD PREFETCHES:          0 PREFETCH ISSUED TO LOWER LEVEL:          0  ACCURACY: -nan
PSCL4 TIMELY PREFETCHES:          0 LATE PREFETCHES: 0 DROPPED PREFETCHES: 0
PSCL4 COMMIT LATE PREFETCHES: 0 NORMAL LATE: 0 MISSED OPPORTUNITY: 0 UNCOVERED: 0
PSCL4 PREFETCHES SAME FILL-ORIGIN LEVEL: 0 DIFFERENT FILL-ORIGIN LEVEL: 0

PSCL3 SPEC fills:          0  NON-SPEC fills:          0
PSCL3 Test counter :          0
PSCL3 Leapfrog:          0
PSCL3 MSHR merge:          0
PSCL3 TOTAL     ACCESS:          0  HIT:          0  MISS:          0  HIT %:       -nan  MISS %:       -nan   MPKI: 0
PSCL3 PREFETCH  REQUESTED:          0  ISSUED:          0  USEFUL:          0  USELESS:          0
PSCL3 USEFUL LOAD PREFETCHES:          0 PREFETCH ISSUED TO LOWER LEVEL:          0  ACCURACY: -nan
PSCL3 TIMELY PREFETCHES:          0 LATE PREFETCHES: 0 DROPPED PREFETCHES: 0
PSCL3 COMMIT LATE PREFETCHES: 0 NORMAL LATE: 0 MISSED OPPORTUNITY: 0 UNCOVERED: 0
PSCL3 PREFETCHES SAME FILL-ORIGIN LEVEL: 0 DIFFERENT FILL-ORIGIN LEVEL: 0

PSCL2 SPEC fills:          0  NON-SPEC fills:          0
PSCL2 Test counter :          0
PSCL2 Leapfrog:          0
PSCL2 MSHR merge:          0
PSCL2 TOTAL     ACCESS:          0  HIT:          0  MISS:          0  HIT %:       -nan  MISS %:       -nan   MPKI: 0
PSCL2 PREFETCH  REQUESTED:          0  ISSUED:          0  USEFUL:          0  USELESS:          0
PSCL2 USEFUL LOAD PREFETCHES:          0 PREFETCH ISSUED TO LOWER LEVEL:          0  ACCURACY: -nan
PSCL2 TIMELY PREFETCHES:          0 LATE PREFETCHES: 0 DROPPED PREFETCHES: 0
PSCL2 COMMIT LATE PREFETCHES: 0 NORMAL LATE: 0 MISSED OPPORTUNITY: 0 UNCOVERED: 0
PSCL2 PREFETCHES SAME FILL-ORIGIN LEVEL: 0 DIFFERENT FILL-ORIGIN LEVEL: 0

LLC SPEC fills:          0  NON-SPEC fills:     474808
LLC Test counter :          0
LLC Leapfrog:          0
LLC MSHR merge:          0
LLC TOTAL     ACCESS:   16270661  HIT:    8841035  MISS:    7429626  HIT %:    54.3373  MISS %:    45.6627   MPKI: 37.1481
LLC LOAD      TOTAL       ACCESS:    6856920  HIT:    3938448  MISS:    2918472  HIT %:    57.4376  MISS %:    42.5624   MPKI: 14.5924
LLC LOAD      NON_SPEC    ACCESS:    1154181  HIT:     679373  MISS:     474808  HIT %:    58.8619  MISS %:    41.1381   MPKI: 2.37404
LLC LOAD      SPEC        ACCESS:    5702739  HIT:    3259075  MISS:    2443664  HIT %:    57.1493  MISS %:    42.8507   MPKI: 12.2183
LLC RFO       NON_SPEC    ACCESS:     126791  HIT:      66537  MISS:      60254  HIT %:    52.4777  MISS %:    47.5223   MPKI: 0.30127
LLC PREFETCH  NON_SPEC    ACCESS:    1819491  HIT:     201883  MISS:    1617608  HIT %:    11.0956  MISS %:    88.9044   MPKI: 8.08804
LLC WRITEBACK NON_SPEC    ACCESS:     310001  HIT:     304001  MISS:       6000  HIT %:    98.0645  MISS %:    1.93548   MPKI: 0.03
LLC CLEAN_EVICTION NON_SPEC    ACCESS:    7043404  HIT:    4264372  MISS:    2779032  HIT %:    60.5442  MISS %:    39.4558   MPKI: 13.8952
LLC COMMIT LOAD NON_SPEC    ACCESS:      69826  HIT:      54793  MISS:      15033  HIT %:    78.4708  MISS %:    21.5292   MPKI: 0.075165
LLC LOAD TRANSLATION NON_SPEC    ACCESS:      44228  HIT:      11001  MISS:      33227  HIT %:    24.8734  MISS %:    75.1266   MPKI: 0.166135
LLC PREFETCH  REQUESTED:          0  ISSUED:          0  USEFUL:      77970  USELESS:    1542778
LLC USEFUL LOAD PREFETCHES:      77970 PREFETCH ISSUED TO LOWER LEVEL:    1617608  ACCURACY: 4.82008
LLC TIMELY PREFETCHES:      77970 LATE PREFETCHES: 0 DROPPED PREFETCHES: 0
LLC COMMIT LATE PREFETCHES: 0 NORMAL LATE: 0 MISSED OPPORTUNITY: 0 UNCOVERED: 0
LLC PREFETCHES SAME FILL-ORIGIN LEVEL: 0 DIFFERENT FILL-ORIGIN LEVEL: 0
LLC AVERAGE MISS LATENCY: 116.372 cycles
LLC AVERAGE MISS LATENCY LOAD: 173.242 cycles
LLC AVERAGE MISS LATENCY PREFETCH: 206.6 cycles
LLC AVERAGE MSHR OCCUPANCY: 1.71712
LLC MSHR FULL: 0
LLC RQ	ACCESS:    7097829	FORWARD:          0	MERGED:          0	TO_CACHE:    7097765
LLC WQ	ACCESS:    7353404	FORWARD:         64	MERGED:          0	TO_CACHE:    7353404
LLC PQ	ACCESS:    1819491	FORWARD:          0	MERGED:          0	TO_CACHE:    1819491

LLC Dense regions hint to LLC: 0

RAW hits: 62345
Loads Generated: 76764937
Loads sent to L1D: 76702590
Stores Generated: 2241351
Stores sent to L1D: 2241352
Major fault: 0 Minor fault: 36864
Allocated PAGES: 36864
Total Load insts: 93558631
Total Non-spec loads: 6323714
Percentage of speculative loads: 93.2409

LeapFrogging counter: 216513
Commit hits: 24178141 miss: 47251404
Commit hit %: 33.8489 miss %: 66.1511
Commits not translated: 0
Loads retired: 9240738
Stores retired: 2241352
Cache fills: 9240743
L1D response latency: 84.551 cycles
Load retirement latency: 167.221 cycles
OOO test counter: 0
Discarded buffer inserts: 24178141 hits: 26320 hit %: 0.108859
Filter prediction accuracy: -nan
Speculative prefetch buffer size: 1
CPU 0 L1D PC-based stride prefetcher final stats
Degree: 3
CPU 0 L1D PC-based stride prefetcher final stats
Degree: 3

DRAM Statistics
 CHANNEL 0
 RQ ROW_BUFFER_HIT:     485866  ROW_BUFFER_MISS:    4156880
 DBUS_CONGESTED:       2536
 WQ ROW_BUFFER_HIT:    1759558  ROW_BUFFER_MISS:    2559261  FULL:       5397

 AVG_CONGESTED_CYCLE: 5
 All warmup complete: 2
Channel 0 Bank busy for read cycles: 0
Channel 0 Bank busy for write cycles: 0
Channel 0
Rank 0
0banks busy for read cycles: 2215333
0banks busy for write cycles: 5857
1banks busy for read cycles: 154474290
1banks busy for write cycles: 2368801
2banks busy for read cycles: 100726467
2banks busy for write cycles: 3317150
3banks busy for read cycles: 52502425
3banks busy for write cycles: 4548720
4banks busy for read cycles: 20510394
4banks busy for write cycles: 6380211
5banks busy for read cycles: 5838057
5banks busy for write cycles: 9476311
6banks busy for read cycles: 1490762
6banks busy for write cycles: 16745033
7banks busy for read cycles: 651107
7banks busy for write cycles: 37743452
8banks busy for read cycles: 1746145
8banks busy for write cycles: 76982457

CPU 0 Branch Prediction Accuracy: 97.7638% MPKI: 3.32603 Average ROB Occupancy at Mispredict: 160.704
Branch types
NOT_BRANCH: 170252779 85.1264%
BRANCH_DIRECT_JUMP: 9217196 4.6086%
BRANCH_INDIRECT: 0 0%
BRANCH_CONDITIONAL: 20527371 10.2637%
BRANCH_DIRECT_CALL: 1324 0.000662%
BRANCH_INDIRECT_CALL: 0 0%
BRANCH_RETURN: 1324 0.000662%
BRANCH_OTHER: 0 0%

DRAM PAGES: 1048576
Allocated PAGES: 36864
