
*** ChampSim Multicore Out-of-Order Simulator ***

Warmup Instructions: 50000000
Simulation Instructions: 200000000
Number of CPUs: 1
LLC sets: 2048
LLC ways: 16
L0D sets: 16
L0D ways: 2
ROB size: 352
LQ size: 128
SQ size: 72
Secure Berti: OFF
Berti: OFF
Berti Fill: OFF
On commit prefetching: ON
Hit-based filter: ON
Time-guarding: ON
Free-slotting: ON
Leap-frogging: ON
Train prefetcher on L0D bypass: OFF
No translation penalty for prefetchers: OFF
Prefetch to L0D only: OFF
Prefetch to L1D only: OFF
Clean evictions: ON
Commit loads: ON
Commit write: ON
Fill commit loads to L2C, LLC: ON
DRAM IO FREQUENCY: 6400
ROB SIZE: 352
Off-chip DRAM Size: 4096 MB Channels: 1 Width: 64-bit Data Rate: 6400 MT/s
CPU 0 runs /home/sumon/secure_berti/GhostMinion/../../traces/spec/600.perlbench_s-570B.champsimtrace.xz
.xz
BTB has LRU replacement policy
ITLB has LRU replacement policy
DTLB has LRU replacement policy
STLB has LRU replacement policy
L1I has LRU replacement policy
L0D has LRU replacement policy
IP Table Entries: 1024
CSPT Entries: 128
RR_ENTRIES: 32
RST_ENTRIES: 8
L1D has LRU replacement policy
L2C has LRU replacement policy
LLC has LRU replacement policy
Heartbeat CPU 0 instructions: 10000003 cycles: 3770361 heartbeat IPC: 2.65227 cumulative IPC: 2.65227 (Simulation time: 0 hr 1 min 22 sec) 
Heartbeat CPU 0 instructions: 20000000 cycles: 7476839 heartbeat IPC: 2.69798 cumulative IPC: 2.67493 (Simulation time: 0 hr 2 min 18 sec) 
Heartbeat CPU 0 instructions: 30000000 cycles: 11408263 heartbeat IPC: 2.54361 cumulative IPC: 2.62967 (Simulation time: 0 hr 3 min 10 sec) 
Heartbeat CPU 0 instructions: 40000002 cycles: 15305012 heartbeat IPC: 2.56624 cumulative IPC: 2.61352 (Simulation time: 0 hr 3 min 58 sec) 
Heartbeat CPU 0 instructions: 50000002 cycles: 18983671 heartbeat IPC: 2.71838 cumulative IPC: 2.63384 (Simulation time: 0 hr 4 min 48 sec) 

Warmup complete CPU 0 instructions: 50000002 cycles: 18983671 (Simulation time: 0 hr 4 min 48 sec) 

Heartbeat CPU 0 instructions: 60000000 cycles: 31925692 heartbeat IPC: 0.772677 cumulative IPC: 0.772677 (Simulation time: 0 hr 5 min 26 sec) 
Heartbeat CPU 0 instructions: 70000000 cycles: 52080783 heartbeat IPC: 0.496153 cumulative IPC: 0.604282 (Simulation time: 0 hr 6 min 7 sec) 
Heartbeat CPU 0 instructions: 80000003 cycles: 73338845 heartbeat IPC: 0.47041 cumulative IPC: 0.551925 (Simulation time: 0 hr 6 min 49 sec) 
Heartbeat CPU 0 instructions: 90000003 cycles: 98631519 heartbeat IPC: 0.395371 cumulative IPC: 0.502211 (Simulation time: 0 hr 7 min 35 sec) 
Heartbeat CPU 0 instructions: 100000002 cycles: 112512890 heartbeat IPC: 0.72039 cumulative IPC: 0.534592 (Simulation time: 0 hr 8 min 13 sec) 
Heartbeat CPU 0 instructions: 110000000 cycles: 126288396 heartbeat IPC: 0.725926 cumulative IPC: 0.559155 (Simulation time: 0 hr 8 min 51 sec) 
Heartbeat CPU 0 instructions: 120000003 cycles: 140741948 heartbeat IPC: 0.691872 cumulative IPC: 0.57491 (Simulation time: 0 hr 9 min 30 sec) 
Heartbeat CPU 0 instructions: 130000000 cycles: 155052723 heartbeat IPC: 0.698774 cumulative IPC: 0.587937 (Simulation time: 0 hr 10 min 8 sec) 
Heartbeat CPU 0 instructions: 140000003 cycles: 180637350 heartbeat IPC: 0.39086 cumulative IPC: 0.556746 (Simulation time: 0 hr 10 min 53 sec) 
Heartbeat CPU 0 instructions: 150000001 cycles: 204541067 heartbeat IPC: 0.418345 cumulative IPC: 0.538917 (Simulation time: 0 hr 11 min 39 sec) 
Heartbeat CPU 0 instructions: 160000001 cycles: 224321586 heartbeat IPC: 0.505548 cumulative IPC: 0.535702 (Simulation time: 0 hr 12 min 21 sec) 
Heartbeat CPU 0 instructions: 170000001 cycles: 239400902 heartbeat IPC: 0.66316 cumulative IPC: 0.544422 (Simulation time: 0 hr 13 min 0 sec) 
Heartbeat CPU 0 instructions: 180000000 cycles: 258129881 heartbeat IPC: 0.533932 cumulative IPC: 0.5436 (Simulation time: 0 hr 13 min 41 sec) 
Heartbeat CPU 0 instructions: 190000001 cycles: 283711329 heartbeat IPC: 0.390908 cumulative IPC: 0.528845 (Simulation time: 0 hr 14 min 26 sec) 
Heartbeat CPU 0 instructions: 200000001 cycles: 308105497 heartbeat IPC: 0.409934 cumulative IPC: 0.518812 (Simulation time: 0 hr 15 min 10 sec) 
Heartbeat CPU 0 instructions: 210000000 cycles: 326921163 heartbeat IPC: 0.531472 cumulative IPC: 0.519586 (Simulation time: 0 hr 15 min 50 sec) 
Heartbeat CPU 0 instructions: 220000000 cycles: 341526743 heartbeat IPC: 0.68467 cumulative IPC: 0.527061 (Simulation time: 0 hr 16 min 26 sec) 
Heartbeat CPU 0 instructions: 230000000 cycles: 355018544 heartbeat IPC: 0.741191 cumulative IPC: 0.535659 (Simulation time: 0 hr 17 min 2 sec) 
Heartbeat CPU 0 instructions: 240000002 cycles: 369338818 heartbeat IPC: 0.698311 cumulative IPC: 0.542307 (Simulation time: 0 hr 17 min 37 sec) 
Heartbeat CPU 0 instructions: 250000003 cycles: 384186094 heartbeat IPC: 0.673524 cumulative IPC: 0.547642 (Simulation time: 0 hr 18 min 13 sec) 
Finished CPU 0 instructions: 200000001 cycles: 365202423 cumulative IPC: 0.547641 (Simulation time: 0 hr 18 min 13 sec) 
 Instruction ID: 250000017

ChampSim completed all CPUs

Region of Interest Statistics

CPU 0 cumulative IPC: 0.547641 instructions: 200000001 cycles: 365202423
ITLB SPEC fills:          0  NON-SPEC fills:          0
ITLB Test counter :          0
ITLB Leapfrog:          0
ITLB MSHR merge:          0
ITLB TOTAL     ACCESS:   31175989  HIT:   31117118  MISS:      58871  HIT %:    99.8112  MISS %:   0.188834   MPKI: 0.294355
ITLB LOAD TRANSLATION NON_SPEC    ACCESS:   31175989  HIT:   31117118  MISS:      58871  HIT %:    99.8112  MISS %:   0.188834   MPKI: 0.294355
ITLB PREFETCH  REQUESTED:          0  ISSUED:          0  USEFUL:          0  USELESS:          0
ITLB USEFUL LOAD PREFETCHES:          0 PREFETCH ISSUED TO LOWER LEVEL:          0  ACCURACY: -nan
ITLB TIMELY PREFETCHES:          0 LATE PREFETCHES: 0 DROPPED PREFETCHES: 0
ITLB COMMIT LATE PREFETCHES: 0 MISSED OPPORTUNITY: 0 LATE IN PQ: 0 UNCOVERED: 0
ITLB COMMIT LATE MSHR PREFETCHES: 0
ITLB MPKI TOTAL: 0 MSHR LATE: 0 PQ LATE: 0 COMMIT LATE: 0 MISSED OPPORTUNITY: 0 UNCOVERED: 0
ITLB PREFETCHES SAME FILL-ORIGIN LEVEL: 0 DIFFERENT FILL-ORIGIN LEVEL: 0
ITLB AVERAGE MISS LATENCY: 11.0859 cycles
ITLB AVERAGE MISS LATENCY LOAD: -nan cycles
ITLB AVERAGE MISS LATENCY PREFETCH: -nan cycles
ITLB AVERAGE MSHR OCCUPANCY: 0.00103986
ITLB MSHR FULL: 0
ITLB RQ	ACCESS:   35143000	FORWARD:          0	MERGED:    3945464	TO_CACHE:   31197536

DTLB SPEC fills:          0  NON-SPEC fills:          0
DTLB Test counter :          0
DTLB Leapfrog:          0
DTLB MSHR merge:          0
DTLB TOTAL     ACCESS:   57168374  HIT:   56630605  MISS:     537769  HIT %:    99.0593  MISS %:   0.940676   MPKI: 2.68884
DTLB LOAD TRANSLATION NON_SPEC    ACCESS:   57168374  HIT:   56630605  MISS:     537769  HIT %:    99.0593  MISS %:   0.940676   MPKI: 2.68884
DTLB PREFETCH  REQUESTED:          0  ISSUED:          0  USEFUL:          0  USELESS:          0
DTLB USEFUL LOAD PREFETCHES:          0 PREFETCH ISSUED TO LOWER LEVEL:          0  ACCURACY: -nan
DTLB TIMELY PREFETCHES:          0 LATE PREFETCHES: 0 DROPPED PREFETCHES: 0
DTLB COMMIT LATE PREFETCHES: 0 MISSED OPPORTUNITY: 0 LATE IN PQ: 0 UNCOVERED: 0
DTLB COMMIT LATE MSHR PREFETCHES: 0
DTLB MPKI TOTAL: 0 MSHR LATE: 0 PQ LATE: 0 COMMIT LATE: 0 MISSED OPPORTUNITY: 0 UNCOVERED: 0
DTLB PREFETCHES SAME FILL-ORIGIN LEVEL: 0 DIFFERENT FILL-ORIGIN LEVEL: 0
DTLB AVERAGE MISS LATENCY: 15.5517 cycles
DTLB AVERAGE MISS LATENCY LOAD: -nan cycles
DTLB AVERAGE MISS LATENCY PREFETCH: -nan cycles
DTLB AVERAGE MSHR OCCUPANCY: 0.0137008
DTLB MSHR FULL: 1.71371e-06
DTLB RQ	ACCESS:   79029596	FORWARD:          0	MERGED:   21843833	TO_CACHE:   57185763

STLB SPEC fills:          0  NON-SPEC fills:          0
STLB Test counter :          0
STLB Leapfrog:          0
STLB MSHR merge:          0
STLB TOTAL     ACCESS:    2877839  HIT:    2854141  MISS:      23698  HIT %:    99.1765  MISS %:   0.823465   MPKI: 0.11849
STLB LOAD TRANSLATION NON_SPEC    ACCESS:     596640  HIT:     572942  MISS:      23698  HIT %:    96.0281  MISS %:    3.97191   MPKI: 0.11849
STLB TRANSLATION FROM L1D PREFETCHER NON_SPEC    ACCESS:    2281199  HIT:    2281199  MISS:          0  HIT %:        100  MISS %:          0   MPKI: 0
STLB PREFETCH  REQUESTED:          0  ISSUED:          0  USEFUL:          0  USELESS:          0
STLB USEFUL LOAD PREFETCHES:          0 PREFETCH ISSUED TO LOWER LEVEL:          0  ACCURACY: -nan
STLB TIMELY PREFETCHES:          0 LATE PREFETCHES: 0 DROPPED PREFETCHES: 0
STLB COMMIT LATE PREFETCHES: 0 MISSED OPPORTUNITY: 0 LATE IN PQ: 0 UNCOVERED: 0
STLB COMMIT LATE MSHR PREFETCHES: 0
STLB MPKI TOTAL: 0 MSHR LATE: 0 PQ LATE: 0 COMMIT LATE: 0 MISSED OPPORTUNITY: 0 UNCOVERED: 0
STLB PREFETCHES SAME FILL-ORIGIN LEVEL: 0 DIFFERENT FILL-ORIGIN LEVEL: 0
STLB AVERAGE MISS LATENCY: 153.319 cycles
STLB AVERAGE MISS LATENCY LOAD: -nan cycles
STLB AVERAGE MISS LATENCY PREFETCH: -nan cycles
STLB AVERAGE MSHR OCCUPANCY: 0.00418994
STLB MSHR FULL: 0
STLB RQ	ACCESS:    3652470	FORWARD:          0	MERGED:     774385	TO_CACHE:    2878085

STLB Hit, L1D data hit: 0
STLB Hit, L2C data hit: 0
STLB Hit, LLC data hit: 0
STLB Hit, LLC data miss: 0
STLB STLB hints to L2: 0
L0D SPEC fills:   22335591  NON-SPEC fills:          0
L0D TimeGuard Request with older TS:      57718 Restricted eviction:      52845 read:      36878
L0D Test counter :          0
L0D Leapfrog:          0
L0D MSHR merge:     625068
L0D TOTAL     ACCESS:   38663895  HIT:    3364813  MISS:   35299082  HIT %:    8.70273  MISS %:    91.2973   MPKI: 176.495
L0D LOAD      TOTAL       ACCESS:   38663895  HIT:    3364813  MISS:   35299082  HIT %:    8.70273  MISS %:    91.2973   MPKI: 176.495
L0D LOAD      NON_SPEC    ACCESS:   13058919  HIT:     148263  MISS:   12910656  HIT %:    1.13534  MISS %:    98.8647   MPKI: 64.5533
L0D LOAD      SPEC        ACCESS:   25604976  HIT:    3216550  MISS:   22388426  HIT %:    12.5622  MISS %:    87.4378   MPKI: 111.942
L0D PREFETCH  REQUESTED:          0  ISSUED:          0  USEFUL:          0  USELESS:          0
L0D USEFUL LOAD PREFETCHES:          0 PREFETCH ISSUED TO LOWER LEVEL:          0  ACCURACY: -nan
L0D TIMELY PREFETCHES:          0 LATE PREFETCHES: 0 DROPPED PREFETCHES: 0
L0D COMMIT LATE PREFETCHES: 0 MISSED OPPORTUNITY: 0 LATE IN PQ: 0 UNCOVERED: 0
L0D COMMIT LATE MSHR PREFETCHES: 0
L0D MPKI TOTAL: 179.621 MSHR LATE: 0 PQ LATE: 0 COMMIT LATE: 0 MISSED OPPORTUNITY: 0 UNCOVERED: 0
L0D PREFETCHES SAME FILL-ORIGIN LEVEL: 0 DIFFERENT FILL-ORIGIN LEVEL: 0
L0D AVERAGE MISS LATENCY: 6.05469 cycles
L0D AVERAGE MISS LATENCY LOAD: 6.05469 cycles
L0D AVERAGE MISS LATENCY PREFETCH: -nan cycles
L0D AVERAGE MSHR OCCUPANCY: 0.583683
L0D MSHR FULL: 9.85e-06
L0D RQ	ACCESS:   46803217	FORWARD:          0	MERGED:    7514259	TO_CACHE:   39288958
L0D WQ	ACCESS:   39740638	FORWARD:          0	MERGED:          0	TO_CACHE:   39740638

L1D SPEC fills:          0  NON-SPEC fills:     232164
L1D Test counter :     174054
L1D Leapfrog:          0
L1D MSHR merge:      17354
L1D TOTAL     ACCESS:   78152712  HIT:   76359492  MISS:    1793220  HIT %:    97.7055  MISS %:    2.29451   MPKI: 8.9661
L1D LOAD      TOTAL       ACCESS:   35296148  HIT:   34728615  MISS:     567533  HIT %:    98.3921  MISS %:    1.60792   MPKI: 2.83766
L1D LOAD      NON_SPEC    ACCESS:   12908429  HIT:   12676265  MISS:     232164  HIT %:    98.2015  MISS %:    1.79855   MPKI: 1.16082
L1D LOAD      SPEC        ACCESS:   22387719  HIT:   22052350  MISS:     335369  HIT %:     98.502  MISS %:      1.498   MPKI: 1.67684
L1D RFO       NON_SPEC    ACCESS:   39279948  HIT:   39239882  MISS:      40066  HIT %:     99.898  MISS %:   0.102001   MPKI: 0.20033
L1D PREFETCH  NON_SPEC    ACCESS:    3026101  HIT:    2170462  MISS:     855639  HIT %:    71.7247  MISS %:    28.2753   MPKI: 4.27819
L1D COMMIT LOAD NON_SPEC    ACCESS:     207335  HIT:     205542  MISS:       1793  HIT %:    99.1352  MISS %:   0.864784   MPKI: 0.008965
L1D COMMIT WRITE NON_SPEC    ACCESS:     343180  HIT:      14991  MISS:     328189  HIT %:    4.36826  MISS %:    95.6317   MPKI: 1.64094
L1D PREFETCH  REQUESTED:    3056137  ISSUED:    3055830  USEFUL:     185582  USELESS:     669986
L1D USEFUL LOAD PREFETCHES:     185582 PREFETCH ISSUED TO LOWER LEVEL:     875377  ACCURACY: 21.2002
L1D TIMELY PREFETCHES:     185582 LATE PREFETCHES: 14487 DROPPED PREFETCHES: 0
L1D COMMIT LATE PREFETCHES: 0 MISSED OPPORTUNITY: 0 LATE IN PQ: 0 UNCOVERED: 0
L1D COMMIT LATE MSHR PREFETCHES: 0
L1D MPKI TOTAL: 2.85233 MSHR LATE: 0.072435 PQ LATE: 0 COMMIT LATE: 0 MISSED OPPORTUNITY: 0 UNCOVERED: 0
L1D PREFETCHES SAME FILL-ORIGIN LEVEL: 875377 DIFFERENT FILL-ORIGIN LEVEL: 0
L1D AVERAGE MISS LATENCY: 51.4796 cycles
L1D AVERAGE MISS LATENCY LOAD: 56.0345 cycles
L1D AVERAGE MISS LATENCY PREFETCH: 68.9118 cycles
L1D AVERAGE MSHR OCCUPANCY: 0.134195
L1D MSHR FULL: 5.78184e-05
L1D RQ	ACCESS:   35575160	FORWARD:          0	MERGED:      57418	TO_CACHE:   35506507
L1D WQ	ACCESS:   40083857	FORWARD:      11235	MERGED:     396772	TO_CACHE:   39687085
L1D PQ	ACCESS:    3055830	FORWARD:          0	MERGED:          0	TO_CACHE:    3055830

L1D UNIQUE REGIONS ACCESSED: 0
L1D REGIONS CONFLICTS: 0
L1D Cross Page Prefetch Requests: 0
L1D Same Page Prefetch Requests: 3254658
L1D ROI Sum of L1D PQ occupancy: 43373853
L1D PREFETCHES PUSHED FROM L2C: 0
L1I SPEC fills:          0  NON-SPEC fills:          0
L1I Test counter :          0
L1I Leapfrog:          0
L1I MSHR merge:     221210
L1I TOTAL     ACCESS:   34921790  HIT:   34047439  MISS:     874351  HIT %:    97.4963  MISS %:    2.50374   MPKI: 4.37175
L1I LOAD      TOTAL       ACCESS:   34921790  HIT:   34047439  MISS:     874351  HIT %:    97.4963  MISS %:    2.50374   MPKI: 4.37175
L1I LOAD      NON_SPEC    ACCESS:   34921790  HIT:   34047439  MISS:     874351  HIT %:    97.4963  MISS %:    2.50374   MPKI: 4.37175
L1I PREFETCH  REQUESTED:          0  ISSUED:          0  USEFUL:          0  USELESS:          0
L1I USEFUL LOAD PREFETCHES:          0 PREFETCH ISSUED TO LOWER LEVEL:          0  ACCURACY: -nan
L1I TIMELY PREFETCHES:          0 LATE PREFETCHES: 0 DROPPED PREFETCHES: 0
L1I COMMIT LATE PREFETCHES: 0 MISSED OPPORTUNITY: 0 LATE IN PQ: 0 UNCOVERED: 0
L1I COMMIT LATE MSHR PREFETCHES: 0
L1I MPKI TOTAL: 5.4778 MSHR LATE: 0 PQ LATE: 0 COMMIT LATE: 0 MISSED OPPORTUNITY: 0 UNCOVERED: 0
L1I PREFETCHES SAME FILL-ORIGIN LEVEL: 0 DIFFERENT FILL-ORIGIN LEVEL: 0
L1I AVERAGE MISS LATENCY: 19.1241 cycles
L1I AVERAGE MISS LATENCY LOAD: 19.1241 cycles
L1I AVERAGE MISS LATENCY PREFETCH: -nan cycles
L1I AVERAGE MSHR OCCUPANCY: 0.0331666
L1I MSHR FULL: 0
L1I RQ	ACCESS:   55984264	FORWARD:          0	MERGED:   20841264	TO_CACHE:   35143000

BTB SPEC fills:          0  NON-SPEC fills:          0
BTB Test counter :          0
BTB Leapfrog:          0
BTB MSHR merge:          0
BTB TOTAL     ACCESS:   25984963  HIT:   24489037  MISS:    1495926  HIT %:    94.2431  MISS %:    5.75689   MPKI: 7.47963
BTB BRANCH_DIRECT_JUMP	ACCESS:    4141047  HIT:    4130444  MISS:      10603
BTB BRANCH_INDIRECT	ACCESS:    1274734  HIT:     405661  MISS:     869073
BTB BRANCH_CONDITIONAL	ACCESS:   16683297  HIT:   16654181  MISS:      29116
BTB BRANCH_DIRECT_CALL	ACCESS:    1551808  HIT:    1544398  MISS:       7410
BTB BRANCH_INDIRECT_CALL	ACCESS:     391135  HIT:      53393  MISS:     337742
BTB BRANCH_RETURN	ACCESS:    1942942  HIT:    1700960  MISS:     241982
BTB BRANCH_OTHER ACCESS:          0  HIT:          0  MISS:          0

L2C SPEC fills:          0  NON-SPEC fills:      85674
L2C Test counter :     109929
L2C Leapfrog:          0
L2C MSHR merge:          0
L2C TOTAL     ACCESS:    2752918  HIT:    2036118  MISS:     716800  HIT %:    73.9622  MISS %:    26.0378   MPKI: 3.584
L2C LOAD      TOTAL       ACCESS:    1427436  HIT:    1183273  MISS:     244163  HIT %:     82.895  MISS %:     17.105   MPKI: 1.22081
L2C LOAD      NON_SPEC    ACCESS:    1099840  HIT:     953748  MISS:     146092  HIT %:     86.717  MISS %:     13.283   MPKI: 0.73046
L2C LOAD      SPEC        ACCESS:     327596  HIT:     229525  MISS:      98071  HIT %:    70.0634  MISS %:    29.9366   MPKI: 0.490355
L2C RFO       NON_SPEC    ACCESS:      34785  HIT:      26785  MISS:       8000  HIT %:    77.0016  MISS %:    22.9984   MPKI: 0.04
L2C PREFETCH  NON_SPEC    ACCESS:     875373  HIT:     523040  MISS:     352333  HIT %:    59.7505  MISS %:    40.2495   MPKI: 1.76166
L2C WRITEBACK NON_SPEC    ACCESS:     121108  HIT:     120265  MISS:        843  HIT %:    99.3039  MISS %:   0.696073   MPKI: 0.004215
L2C CLEAN_EVICTION NON_SPEC    ACCESS:     174054  HIT:      76307  MISS:      97747  HIT %:     43.841  MISS %:     56.159   MPKI: 0.488735
L2C COMMIT LOAD NON_SPEC    ACCESS:       1726  HIT:       1498  MISS:        228  HIT %:    86.7903  MISS %:    13.2097   MPKI: 0.00114
L2C LOAD TRANSLATION NON_SPEC    ACCESS:     118436  HIT:     104950  MISS:      13486  HIT %:    88.6133  MISS %:    11.3867   MPKI: 0.06743
L2C PREFETCH  REQUESTED:          0  ISSUED:          0  USEFUL:      19119  USELESS:     332592
L2C USEFUL LOAD PREFETCHES:      19119 PREFETCH ISSUED TO LOWER LEVEL:     352333  ACCURACY: 5.4264
L2C TIMELY PREFETCHES:      19119 LATE PREFETCHES: 0 DROPPED PREFETCHES: 0
L2C COMMIT LATE PREFETCHES: 0 MISSED OPPORTUNITY: 0 LATE IN PQ: 0 UNCOVERED: 0
L2C COMMIT LATE MSHR PREFETCHES: 0
L2C MPKI TOTAL: 1.22081 MSHR LATE: 0 PQ LATE: 0 COMMIT LATE: 0 MISSED OPPORTUNITY: 0 UNCOVERED: 0
L2C PREFETCHES SAME FILL-ORIGIN LEVEL: 0 DIFFERENT FILL-ORIGIN LEVEL: 0
L2C AVERAGE MISS LATENCY: 110.058 cycles
L2C AVERAGE MISS LATENCY LOAD: 113.597 cycles
L2C AVERAGE MISS LATENCY PREFETCH: 137.869 cycles
L2C AVERAGE MSHR OCCUPANCY: 0.341743
L2C MSHR FULL: 0
L2C RQ	ACCESS:    1582441	FORWARD:          0	MERGED:          0	TO_CACHE:    1582383
L2C WQ	ACCESS:     295163	FORWARD:         62	MERGED:          1	TO_CACHE:     295162
L2C PQ	ACCESS:     875377	FORWARD:          0	MERGED:          0	TO_CACHE:     875373

L2C Instructions Evicting Data 52512
L2C Translations Evicting Data 11867
L2C Data Evicting Data 392797
L2C Instructions Evicting Instructions 6417
L2C Translations Evicting Instructions 1318
L2C Data Evicting Instructions 43432
L2C Instructions Evicting Translations 1431
L2C Translations Evicting Translations 279
L2C Data Evicting Translations 9686
L2C Dense regions hint from L2: 0
PSCL5 SPEC fills:          0  NON-SPEC fills:          0
PSCL5 Test counter :          0
PSCL5 Leapfrog:          0
PSCL5 MSHR merge:          0
PSCL5 TOTAL     ACCESS:          0  HIT:          0  MISS:          0  HIT %:       -nan  MISS %:       -nan   MPKI: 0
PSCL5 PREFETCH  REQUESTED:          0  ISSUED:          0  USEFUL:          0  USELESS:          0
PSCL5 USEFUL LOAD PREFETCHES:          0 PREFETCH ISSUED TO LOWER LEVEL:          0  ACCURACY: -nan
PSCL5 TIMELY PREFETCHES:          0 LATE PREFETCHES: 0 DROPPED PREFETCHES: 0
PSCL5 COMMIT LATE PREFETCHES: 0 MISSED OPPORTUNITY: 0 LATE IN PQ: 0 UNCOVERED: 0
PSCL5 COMMIT LATE MSHR PREFETCHES: 0
PSCL5 MPKI TOTAL: 0 MSHR LATE: 0 PQ LATE: 0 COMMIT LATE: 0 MISSED OPPORTUNITY: 0 UNCOVERED: 0
PSCL5 PREFETCHES SAME FILL-ORIGIN LEVEL: 0 DIFFERENT FILL-ORIGIN LEVEL: 0

PSCL4 SPEC fills:          0  NON-SPEC fills:          0
PSCL4 Test counter :          0
PSCL4 Leapfrog:          0
PSCL4 MSHR merge:          0
PSCL4 TOTAL     ACCESS:          0  HIT:          0  MISS:          0  HIT %:       -nan  MISS %:       -nan   MPKI: 0
PSCL4 PREFETCH  REQUESTED:          0  ISSUED:          0  USEFUL:          0  USELESS:          0
PSCL4 USEFUL LOAD PREFETCHES:          0 PREFETCH ISSUED TO LOWER LEVEL:          0  ACCURACY: -nan
PSCL4 TIMELY PREFETCHES:          0 LATE PREFETCHES: 0 DROPPED PREFETCHES: 0
PSCL4 COMMIT LATE PREFETCHES: 0 MISSED OPPORTUNITY: 0 LATE IN PQ: 0 UNCOVERED: 0
PSCL4 COMMIT LATE MSHR PREFETCHES: 0
PSCL4 MPKI TOTAL: 0 MSHR LATE: 0 PQ LATE: 0 COMMIT LATE: 0 MISSED OPPORTUNITY: 0 UNCOVERED: 0
PSCL4 PREFETCHES SAME FILL-ORIGIN LEVEL: 0 DIFFERENT FILL-ORIGIN LEVEL: 0

PSCL3 SPEC fills:          0  NON-SPEC fills:          0
PSCL3 Test counter :          0
PSCL3 Leapfrog:          0
PSCL3 MSHR merge:          0
PSCL3 TOTAL     ACCESS:          0  HIT:          0  MISS:          0  HIT %:       -nan  MISS %:       -nan   MPKI: 0
PSCL3 PREFETCH  REQUESTED:          0  ISSUED:          0  USEFUL:          0  USELESS:          0
PSCL3 USEFUL LOAD PREFETCHES:          0 PREFETCH ISSUED TO LOWER LEVEL:          0  ACCURACY: -nan
PSCL3 TIMELY PREFETCHES:          0 LATE PREFETCHES: 0 DROPPED PREFETCHES: 0
PSCL3 COMMIT LATE PREFETCHES: 0 MISSED OPPORTUNITY: 0 LATE IN PQ: 0 UNCOVERED: 0
PSCL3 COMMIT LATE MSHR PREFETCHES: 0
PSCL3 MPKI TOTAL: 0 MSHR LATE: 0 PQ LATE: 0 COMMIT LATE: 0 MISSED OPPORTUNITY: 0 UNCOVERED: 0
PSCL3 PREFETCHES SAME FILL-ORIGIN LEVEL: 0 DIFFERENT FILL-ORIGIN LEVEL: 0

PSCL2 SPEC fills:          0  NON-SPEC fills:          0
PSCL2 Test counter :          0
PSCL2 Leapfrog:          0
PSCL2 MSHR merge:          0
PSCL2 TOTAL     ACCESS:          0  HIT:          0  MISS:          0  HIT %:       -nan  MISS %:       -nan   MPKI: 0
PSCL2 PREFETCH  REQUESTED:          0  ISSUED:          0  USEFUL:          0  USELESS:          0
PSCL2 USEFUL LOAD PREFETCHES:          0 PREFETCH ISSUED TO LOWER LEVEL:          0  ACCURACY: -nan
PSCL2 TIMELY PREFETCHES:          0 LATE PREFETCHES: 0 DROPPED PREFETCHES: 0
PSCL2 COMMIT LATE PREFETCHES: 0 MISSED OPPORTUNITY: 0 LATE IN PQ: 0 UNCOVERED: 0
PSCL2 COMMIT LATE MSHR PREFETCHES: 0
PSCL2 MPKI TOTAL: 0 MSHR LATE: 0 PQ LATE: 0 COMMIT LATE: 0 MISSED OPPORTUNITY: 0 UNCOVERED: 0
PSCL2 PREFETCHES SAME FILL-ORIGIN LEVEL: 0 DIFFERENT FILL-ORIGIN LEVEL: 0

LLC SPEC fills:          0  NON-SPEC fills:      66099
LLC Test counter :      74553
LLC Leapfrog:          0
LLC MSHR merge:          0
LLC TOTAL     ACCESS:     765452  HIT:     296236  MISS:     469216  HIT %:    38.7008  MISS %:    61.2992   MPKI: 2.34608
LLC LOAD      TOTAL       ACCESS:     244163  HIT:      97391  MISS:     146772  HIT %:    39.8877  MISS %:    60.1123   MPKI: 0.73386
LLC LOAD      NON_SPEC    ACCESS:     146092  HIT:      62911  MISS:      83181  HIT %:    43.0626  MISS %:    56.9374   MPKI: 0.415905
LLC LOAD      SPEC        ACCESS:      98071  HIT:      34480  MISS:      63591  HIT %:    35.1582  MISS %:    64.8418   MPKI: 0.317955
LLC RFO       NON_SPEC    ACCESS:       8000  HIT:       3288  MISS:       4712  HIT %:       41.1  MISS %:       58.9   MPKI: 0.02356
LLC PREFETCH  NON_SPEC    ACCESS:     352333  HIT:     108819  MISS:     243514  HIT %:    30.8853  MISS %:    69.1147   MPKI: 1.21757
LLC WRITEBACK NON_SPEC    ACCESS:      37313  HIT:      36503  MISS:        810  HIT %:    97.8292  MISS %:    2.17083   MPKI: 0.00405
LLC CLEAN_EVICTION NON_SPEC    ACCESS:     109929  HIT:      43315  MISS:      66614  HIT %:    39.4027  MISS %:    60.5973   MPKI: 0.33307
LLC COMMIT LOAD NON_SPEC    ACCESS:        228  HIT:        167  MISS:         61  HIT %:    73.2456  MISS %:    26.7544   MPKI: 0.000305
LLC LOAD TRANSLATION NON_SPEC    ACCESS:      13486  HIT:       6753  MISS:       6733  HIT %:    50.0742  MISS %:    49.9258   MPKI: 0.033665
LLC PREFETCH  REQUESTED:          0  ISSUED:          0  USEFUL:       8180  USELESS:     221537
LLC USEFUL LOAD PREFETCHES:       8180 PREFETCH ISSUED TO LOWER LEVEL:     243514  ACCURACY: 3.35915
LLC TIMELY PREFETCHES:       8180 LATE PREFETCHES: 0 DROPPED PREFETCHES: 0
LLC COMMIT LATE PREFETCHES: 0 MISSED OPPORTUNITY: 0 LATE IN PQ: 0 UNCOVERED: 0
LLC COMMIT LATE MSHR PREFETCHES: 0
LLC MPKI TOTAL: 0.73386 MSHR LATE: 0 PQ LATE: 0 COMMIT LATE: 0 MISSED OPPORTUNITY: 0 UNCOVERED: 0
LLC PREFETCHES SAME FILL-ORIGIN LEVEL: 0 DIFFERENT FILL-ORIGIN LEVEL: 0
LLC AVERAGE MISS LATENCY: 130.355 cycles
LLC AVERAGE MISS LATENCY LOAD: 145 cycles
LLC AVERAGE MISS LATENCY PREFETCH: 155.873 cycles
LLC AVERAGE MSHR OCCUPANCY: 0.514629
LLC MSHR FULL: 0
LLC RQ	ACCESS:     265877	FORWARD:          0	MERGED:          0	TO_CACHE:     265877
LLC WQ	ACCESS:     147242	FORWARD:          0	MERGED:          0	TO_CACHE:     147242
LLC PQ	ACCESS:     352333	FORWARD:          0	MERGED:          0	TO_CACHE:     352333

LLC Dense regions hint to LLC: 0

RAW hits: 3028018
Loads Generated: 49831234
Loads sent to L1D: 46803217
Stores Generated: 39740622
Stores sent to L1D: 39740638
Major fault: 0 Minor fault: 5924
Allocated PAGES: 5924
Total Load insts: 55959691
Total Non-spec loads: 13977276
Percentage of speculative loads: 75.0226

LeapFrogging counter: 249
Commit hits: 22308842 miss: 11408081
Commit hit %: 66.1651 miss %: 33.8349
Commits not translated: 0
Loads retired: 567533
Stores retired: 39740638
Cache fills: 567533
L1D response latency: 56.0345 cycles
Load retirement latency: 90.1982 cycles
OOO test counter: 0
Discarded buffer inserts: 22308842 hits: 7823 hit %: 0.0350668

stream: 
stream:times selected: 8920053
stream:pref_filled: 384066
stream:pref_useful: 112031
stream:pref_late: 5714
stream:misses: 40539
stream:misses_by_poll: 0

CS: 
CS:times selected: 408995
CS:pref_filled: 54559
CS:pref_useful: 33699
CS:pref_late: 52
CS:misses: 20042
CS:misses_by_poll: 1224

CPLX: 
CPLX:times selected: 8473169
CPLX:pref_filled: 422025
CPLX:pref_useful: 41168
CPLX:pref_late: 706
CPLX:misses: 193697
CPLX:misses_by_poll: 12979

NL_L1: 
NL:times selected: 38705
NL:pref_filled: 4067
NL:pref_useful: 1205
NL:pref_late: 59
NL:misses: 2243
NL:misses_by_poll: 126

total selections: 17840922
total_filled: 855639
total_useful: 185582
total_late: 6737
total_polluted: 14329
total_misses_after_warmup: 559701
conflicts: 4221920
Degree Incremented Times: 264045
Degree Decremented Times: 1172476

L1 IP Table Write Accesses: 79176812
L1 IP Table Read Accesses: 74954892
L1 RST Write Accesses: 8145095
L1 RST Read Accesses: 16290190
L1 CSPT Write Accesses: 8145095
L1 CSPT Read Accesses: 15861519
L1 RR Filter Tag Write Accesses: 3056137
L1 RR Filter Tag Read Accesses: 314775439
L1 IP Table Tag Write Accesses: 89570353
L1 IP Table Tag Read Accesses: 89570353
L1 RST Tag Write Accesses: 0
L1 RST Tag Read Accesses: 73271717
L1 RR Filter Write Accesses: 0
L1 RR Filter Read Accesses: 13050045
test: 2535889

DRAM Statistics
 CHANNEL 0
 RQ ROW_BUFFER_HIT:      81715  ROW_BUFFER_MISS:     320076
 DBUS_CONGESTED:        417
 WQ ROW_BUFFER_HIT:      18905  ROW_BUFFER_MISS:      78735  FULL:          0

 AVG_CONGESTED_CYCLE: 4
 All warmup complete: 2
Channel 0 Bank busy for read cycles: 0
Channel 0 Bank busy for write cycles: 0
Channel 0
Rank 0
0banks busy for read cycles: 311889510
0banks busy for write cycles: 53014
1banks busy for read cycles: 29532008
1banks busy for write cycles: 8933347
2banks busy for read cycles: 7336233
2banks busy for write cycles: 2879362
3banks busy for read cycles: 1775587
3banks busy for write cycles: 1280026
4banks busy for read cycles: 407424
4banks busy for write cycles: 569116
5banks busy for read cycles: 95478
5banks busy for write cycles: 237883
6banks busy for read cycles: 31203
6banks busy for write cycles: 94038
7banks busy for read cycles: 20780
7banks busy for write cycles: 31283
8banks busy for read cycles: 16017
8banks busy for write cycles: 20115

CPU 0 Branch Prediction Accuracy: 99.0693% MPKI: 1.53431 Average ROB Occupancy at Mispredict: 50.1091
Branch types
NOT_BRANCH: 167028092 83.514%
BRANCH_DIRECT_JUMP: 4141047 2.07052%
BRANCH_INDIRECT: 1274734 0.637367%
BRANCH_CONDITIONAL: 23669876 11.8349%
BRANCH_DIRECT_CALL: 1551808 0.775904%
BRANCH_INDIRECT_CALL: 391135 0.195567%
BRANCH_RETURN: 1942942 0.971471%
BRANCH_OTHER: 0 0%

DRAM PAGES: 1048576
Allocated PAGES: 5924
