
*** ChampSim Multicore Out-of-Order Simulator ***

Warmup Instructions: 50000000
Simulation Instructions: 200000000
Number of CPUs: 1
LLC sets: 2048
LLC ways: 16
L0D sets: 16
L0D ways: 2
ROB size: 352
LQ size: 128
SQ size: 72
Secure Berti: OFF
Berti: OFF
Berti Fill: OFF
On commit prefetching: ON
Hit-based filter: ON
Time-guarding: ON
Free-slotting: ON
Leap-frogging: ON
Train prefetcher on L0D bypass: OFF
No translation penalty for prefetchers: OFF
Prefetch to L0D only: OFF
Prefetch to L1D only: OFF
Clean evictions: ON
Commit loads: ON
Commit write: ON
Fill commit loads to L2C, LLC: ON
DRAM IO FREQUENCY: 6400
ROB SIZE: 352
Off-chip DRAM Size: 4096 MB Channels: 1 Width: 64-bit Data Rate: 6400 MT/s
CPU 0 runs /home/sumon/secure_berti/GhostMinion/../../traces/spec/602.gcc_s-734B.champsimtrace.xz
.xz
BTB has LRU replacement policy
ITLB has LRU replacement policy
DTLB has LRU replacement policy
STLB has LRU replacement policy
L1I has LRU replacement policy
L0D has LRU replacement policy
IP Table Entries: 1024
CSPT Entries: 128
RR_ENTRIES: 32
RST_ENTRIES: 8
L1D has LRU replacement policy
L2C has LRU replacement policy
LLC has LRU replacement policy
Heartbeat CPU 0 instructions: 10000002 cycles: 6636009 heartbeat IPC: 1.50693 cumulative IPC: 1.50693 (Simulation time: 0 hr 1 min 9 sec) 
Heartbeat CPU 0 instructions: 20000000 cycles: 13253791 heartbeat IPC: 1.51108 cumulative IPC: 1.509 (Simulation time: 0 hr 2 min 25 sec) 
Heartbeat CPU 0 instructions: 30000000 cycles: 19887350 heartbeat IPC: 1.50749 cumulative IPC: 1.5085 (Simulation time: 0 hr 3 min 12 sec) 
Heartbeat CPU 0 instructions: 40000002 cycles: 26547710 heartbeat IPC: 1.50142 cumulative IPC: 1.50672 (Simulation time: 0 hr 3 min 58 sec) 
Heartbeat CPU 0 instructions: 50000000 cycles: 33183078 heartbeat IPC: 1.50708 cumulative IPC: 1.50679 (Simulation time: 0 hr 4 min 46 sec) 

Warmup complete CPU 0 instructions: 50000001 cycles: 33183079 (Simulation time: 0 hr 4 min 46 sec) 

Heartbeat CPU 0 instructions: 60000000 cycles: 53995409 heartbeat IPC: 0.480484 cumulative IPC: 0.480484 (Simulation time: 0 hr 5 min 39 sec) 
Heartbeat CPU 0 instructions: 70000002 cycles: 75700892 heartbeat IPC: 0.460713 cumulative IPC: 0.470391 (Simulation time: 0 hr 6 min 32 sec) 
Heartbeat CPU 0 instructions: 80000000 cycles: 96476925 heartbeat IPC: 0.481324 cumulative IPC: 0.47398 (Simulation time: 0 hr 7 min 26 sec) 
Heartbeat CPU 0 instructions: 90000000 cycles: 117415005 heartbeat IPC: 0.477599 cumulative IPC: 0.474879 (Simulation time: 0 hr 8 min 18 sec) 
Heartbeat CPU 0 instructions: 100000000 cycles: 143876113 heartbeat IPC: 0.377913 cumulative IPC: 0.4517 (Simulation time: 0 hr 9 min 10 sec) 
Heartbeat CPU 0 instructions: 110000000 cycles: 164607252 heartbeat IPC: 0.482366 cumulative IPC: 0.456537 (Simulation time: 0 hr 10 min 4 sec) 
Heartbeat CPU 0 instructions: 120000000 cycles: 185551366 heartbeat IPC: 0.477461 cumulative IPC: 0.459413 (Simulation time: 0 hr 10 min 57 sec) 
Heartbeat CPU 0 instructions: 130000001 cycles: 210217340 heartbeat IPC: 0.405417 cumulative IPC: 0.45189 (Simulation time: 0 hr 11 min 53 sec) 
Heartbeat CPU 0 instructions: 140000001 cycles: 231056057 heartbeat IPC: 0.479876 cumulative IPC: 0.454837 (Simulation time: 0 hr 12 min 48 sec) 
Heartbeat CPU 0 instructions: 150000000 cycles: 252047972 heartbeat IPC: 0.476374 cumulative IPC: 0.456903 (Simulation time: 0 hr 13 min 41 sec) 
Heartbeat CPU 0 instructions: 160000003 cycles: 273271251 heartbeat IPC: 0.471181 cumulative IPC: 0.458165 (Simulation time: 0 hr 14 min 34 sec) 
Heartbeat CPU 0 instructions: 170000000 cycles: 294009375 heartbeat IPC: 0.482204 cumulative IPC: 0.460076 (Simulation time: 0 hr 15 min 27 sec) 
Heartbeat CPU 0 instructions: 180000000 cycles: 315032857 heartbeat IPC: 0.475659 cumulative IPC: 0.461239 (Simulation time: 0 hr 16 min 19 sec) 
Heartbeat CPU 0 instructions: 190000002 cycles: 335762137 heartbeat IPC: 0.48241 cumulative IPC: 0.462689 (Simulation time: 0 hr 17 min 11 sec) 
Heartbeat CPU 0 instructions: 200000001 cycles: 356387532 heartbeat IPC: 0.484839 cumulative IPC: 0.464103 (Simulation time: 0 hr 18 min 2 sec) 
Heartbeat CPU 0 instructions: 210000000 cycles: 377151998 heartbeat IPC: 0.481592 cumulative IPC: 0.465158 (Simulation time: 0 hr 18 min 52 sec) 
Heartbeat CPU 0 instructions: 220000000 cycles: 398246224 heartbeat IPC: 0.474063 cumulative IPC: 0.465673 (Simulation time: 0 hr 19 min 41 sec) 
Heartbeat CPU 0 instructions: 230000002 cycles: 419028015 heartbeat IPC: 0.481191 cumulative IPC: 0.466509 (Simulation time: 0 hr 20 min 29 sec) 
Heartbeat CPU 0 instructions: 240000001 cycles: 439899074 heartbeat IPC: 0.479132 cumulative IPC: 0.467156 (Simulation time: 0 hr 21 min 17 sec) 
Heartbeat CPU 0 instructions: 250000002 cycles: 461510424 heartbeat IPC: 0.46272 cumulative IPC: 0.466933 (Simulation time: 0 hr 22 min 4 sec) 
Finished CPU 0 instructions: 200000001 cycles: 428327345 cumulative IPC: 0.466933 (Simulation time: 0 hr 22 min 4 sec) 
 Instruction ID: 250000360

ChampSim completed all CPUs

Region of Interest Statistics

CPU 0 cumulative IPC: 0.466933 instructions: 200000001 cycles: 428327345
ITLB SPEC fills:          0  NON-SPEC fills:          0
ITLB Test counter :          0
ITLB Leapfrog:          0
ITLB MSHR merge:          0
ITLB TOTAL     ACCESS:   44853455  HIT:   44853445  MISS:         10  HIT %:        100  MISS %: 2.22948e-05   MPKI: 5e-05
ITLB LOAD TRANSLATION NON_SPEC    ACCESS:   44853455  HIT:   44853445  MISS:         10  HIT %:        100  MISS %: 2.22948e-05   MPKI: 5e-05
ITLB PREFETCH  REQUESTED:          0  ISSUED:          0  USEFUL:          0  USELESS:          0
ITLB USEFUL LOAD PREFETCHES:          0 PREFETCH ISSUED TO LOWER LEVEL:          0  ACCURACY: -nan
ITLB TIMELY PREFETCHES:          0 LATE PREFETCHES: 0 DROPPED PREFETCHES: 0
ITLB COMMIT LATE PREFETCHES: 0 MISSED OPPORTUNITY: 0 LATE IN PQ: 0 UNCOVERED: 0
ITLB COMMIT LATE MSHR PREFETCHES: 0
ITLB MPKI TOTAL: 0 MSHR LATE: 0 PQ LATE: 0 COMMIT LATE: 0 MISSED OPPORTUNITY: 0 UNCOVERED: 0
ITLB PREFETCHES SAME FILL-ORIGIN LEVEL: 0 DIFFERENT FILL-ORIGIN LEVEL: 0
ITLB AVERAGE MISS LATENCY: 362.9 cycles
ITLB AVERAGE MISS LATENCY LOAD: -nan cycles
ITLB AVERAGE MISS LATENCY PREFETCH: -nan cycles
ITLB AVERAGE MSHR OCCUPANCY: 8.91793e-08
ITLB MSHR FULL: 0
ITLB RQ	ACCESS:   49656951	FORWARD:          0	MERGED:    4803491	TO_CACHE:   44853460

DTLB SPEC fills:          0  NON-SPEC fills:          0
DTLB Test counter :          0
DTLB Leapfrog:          0
DTLB MSHR merge:          0
DTLB TOTAL     ACCESS:   60361547  HIT:   60153217  MISS:     208330  HIT %:    99.6549  MISS %:   0.345137   MPKI: 1.04165
DTLB LOAD TRANSLATION NON_SPEC    ACCESS:   60361547  HIT:   60153217  MISS:     208330  HIT %:    99.6549  MISS %:   0.345137   MPKI: 1.04165
DTLB PREFETCH  REQUESTED:          0  ISSUED:          0  USEFUL:          0  USELESS:          0
DTLB USEFUL LOAD PREFETCHES:          0 PREFETCH ISSUED TO LOWER LEVEL:          0  ACCURACY: -nan
DTLB TIMELY PREFETCHES:          0 LATE PREFETCHES: 0 DROPPED PREFETCHES: 0
DTLB COMMIT LATE PREFETCHES: 0 MISSED OPPORTUNITY: 0 LATE IN PQ: 0 UNCOVERED: 0
DTLB COMMIT LATE MSHR PREFETCHES: 0
DTLB MPKI TOTAL: 0 MSHR LATE: 0 PQ LATE: 0 COMMIT LATE: 0 MISSED OPPORTUNITY: 0 UNCOVERED: 0
DTLB PREFETCHES SAME FILL-ORIGIN LEVEL: 0 DIFFERENT FILL-ORIGIN LEVEL: 0
DTLB AVERAGE MISS LATENCY: 47.4194 cycles
DTLB AVERAGE MISS LATENCY LOAD: -nan cycles
DTLB AVERAGE MISS LATENCY PREFETCH: -nan cycles
DTLB AVERAGE MSHR OCCUPANCY: 0.00418723
DTLB MSHR FULL: 0
DTLB RQ	ACCESS:   63380579	FORWARD:          0	MERGED:    3016031	TO_CACHE:   60364548

STLB SPEC fills:          0  NON-SPEC fills:          0
STLB Test counter :          0
STLB Leapfrog:          0
STLB MSHR merge:          0
STLB TOTAL     ACCESS:    3874288  HIT:    3821728  MISS:      52560  HIT %:    98.6434  MISS %:    1.35664   MPKI: 0.2628
STLB LOAD TRANSLATION NON_SPEC    ACCESS:     208340  HIT:     155786  MISS:      52554  HIT %:    74.7749  MISS %:    25.2251   MPKI: 0.26277
STLB TRANSLATION FROM L1D PREFETCHER NON_SPEC    ACCESS:    3665948  HIT:    3665942  MISS:          6  HIT %:    99.9998  MISS %: 0.000163668   MPKI: 3e-05
STLB PREFETCH  REQUESTED:          0  ISSUED:          0  USEFUL:          6  USELESS:          0
STLB USEFUL LOAD PREFETCHES:          6 PREFETCH ISSUED TO LOWER LEVEL:          0  ACCURACY: inf
STLB TIMELY PREFETCHES:          6 LATE PREFETCHES: 0 DROPPED PREFETCHES: 0
STLB COMMIT LATE PREFETCHES: 0 MISSED OPPORTUNITY: 0 LATE IN PQ: 0 UNCOVERED: 0
STLB COMMIT LATE MSHR PREFETCHES: 0
STLB MPKI TOTAL: 0 MSHR LATE: 0 PQ LATE: 0 COMMIT LATE: 0 MISSED OPPORTUNITY: 0 UNCOVERED: 0
STLB PREFETCHES SAME FILL-ORIGIN LEVEL: 0 DIFFERENT FILL-ORIGIN LEVEL: 0
STLB AVERAGE MISS LATENCY: 152.371 cycles
STLB AVERAGE MISS LATENCY LOAD: -nan cycles
STLB AVERAGE MISS LATENCY PREFETCH: -nan cycles
STLB AVERAGE MSHR OCCUPANCY: 0.00371036
STLB MSHR FULL: 0
STLB RQ	ACCESS:    6596976	FORWARD:          0	MERGED:    2722685	TO_CACHE:    3874291

STLB Hit, L1D data hit: 0
STLB Hit, L2C data hit: 0
STLB Hit, LLC data hit: 0
STLB Hit, LLC data miss: 0
STLB STLB hints to L2: 0
L0D SPEC fills:   17680378  NON-SPEC fills:          0
L0D TimeGuard Request with older TS:     468651 Restricted eviction:      20277 read:    1865929
L0D Test counter :          0
L0D Leapfrog:          0
L0D MSHR merge:    1602675
L0D TOTAL     ACCESS:   39838107  HIT:    6750059  MISS:   33088048  HIT %:    16.9437  MISS %:    83.0563   MPKI: 165.44
L0D LOAD      TOTAL       ACCESS:   39838107  HIT:    6750059  MISS:   33088048  HIT %:    16.9437  MISS %:    83.0563   MPKI: 165.44
L0D LOAD      NON_SPEC    ACCESS:   15543723  HIT:     156330  MISS:   15387393  HIT %:    1.00574  MISS %:    98.9943   MPKI: 76.937
L0D LOAD      SPEC        ACCESS:   24294384  HIT:    6593729  MISS:   17700655  HIT %:     27.141  MISS %:     72.859   MPKI: 88.5033
L0D PREFETCH  REQUESTED:          0  ISSUED:          0  USEFUL:          0  USELESS:          0
L0D USEFUL LOAD PREFETCHES:          0 PREFETCH ISSUED TO LOWER LEVEL:          0  ACCURACY: -nan
L0D TIMELY PREFETCHES:          0 LATE PREFETCHES: 0 DROPPED PREFETCHES: 0
L0D COMMIT LATE PREFETCHES: 0 MISSED OPPORTUNITY: 0 LATE IN PQ: 0 UNCOVERED: 0
L0D COMMIT LATE MSHR PREFETCHES: 0
L0D MPKI TOTAL: 173.454 MSHR LATE: 0 PQ LATE: 0 COMMIT LATE: 0 MISSED OPPORTUNITY: 0 UNCOVERED: 0
L0D PREFETCHES SAME FILL-ORIGIN LEVEL: 0 DIFFERENT FILL-ORIGIN LEVEL: 0
L0D AVERAGE MISS LATENCY: 5.59018 cycles
L0D AVERAGE MISS LATENCY LOAD: 5.59018 cycles
L0D AVERAGE MISS LATENCY PREFETCH: -nan cycles
L0D AVERAGE MSHR OCCUPANCY: 0.64999
L0D MSHR FULL: 0
L0D RQ	ACCESS:   52875945	FORWARD:          0	MERGED:   11435163	TO_CACHE:   41440782
L0D WQ	ACCESS:   21939797	FORWARD:          0	MERGED:          0	TO_CACHE:   21939797

L1D SPEC fills:          0  NON-SPEC fills:     222044
L1D Test counter :     111601
L1D Leapfrog:          0
L1D MSHR merge:      61584
L1D TOTAL     ACCESS:   61966663  HIT:   56351371  MISS:    5615292  HIT %:    90.9382  MISS %:     9.0618   MPKI: 28.0765
L1D LOAD      TOTAL       ACCESS:   33087722  HIT:   32583335  MISS:     504387  HIT %:    98.4756  MISS %:    1.52439   MPKI: 2.52193
L1D LOAD      NON_SPEC    ACCESS:   15387374  HIT:   15165330  MISS:     222044  HIT %:     98.557  MISS %:    1.44303   MPKI: 1.11022
L1D LOAD      SPEC        ACCESS:   17700348  HIT:   17418005  MISS:     282343  HIT %:    98.4049  MISS %:    1.59513   MPKI: 1.41171
L1D RFO       NON_SPEC    ACCESS:   21915635  HIT:   21913959  MISS:       1676  HIT %:    99.9924  MISS %: 0.00764751   MPKI: 0.00838
L1D PREFETCH  NON_SPEC    ACCESS:    6316027  HIT:    1469033  MISS:    4846994  HIT %:    23.2588  MISS %:    76.7412   MPKI: 24.235
L1D COMMIT LOAD NON_SPEC    ACCESS:     328875  HIT:     328131  MISS:        744  HIT %:    99.7738  MISS %:   0.226226   MPKI: 0.00372
L1D COMMIT WRITE NON_SPEC    ACCESS:     318404  HIT:      56913  MISS:     261491  HIT %:    17.8745  MISS %:    82.1255   MPKI: 1.30745
L1D PREFETCH  REQUESTED:    6403502  ISSUED:    6388636  USEFUL:    3227809  USELESS:    1619078
L1D USEFUL LOAD PREFETCHES:    3227809 PREFETCH ISSUED TO LOWER LEVEL:    4908402  ACCURACY: 65.7609
L1D TIMELY PREFETCHES:    3227809 LATE PREFETCHES: 61264 DROPPED PREFETCHES: 0
L1D COMMIT LATE PREFETCHES: 0 MISSED OPPORTUNITY: 0 LATE IN PQ: 0 UNCOVERED: 0
L1D COMMIT LATE MSHR PREFETCHES: 0
L1D MPKI TOTAL: 2.52356 MSHR LATE: 0.30632 PQ LATE: 0 COMMIT LATE: 0 MISSED OPPORTUNITY: 0 UNCOVERED: 0
L1D PREFETCHES SAME FILL-ORIGIN LEVEL: 4908402 DIFFERENT FILL-ORIGIN LEVEL: 0
L1D AVERAGE MISS LATENCY: 58.8678 cycles
L1D AVERAGE MISS LATENCY LOAD: 38.5539 cycles
L1D AVERAGE MISS LATENCY PREFETCH: 64.1627 cycles
L1D AVERAGE MSHR OCCUPANCY: 0.65674
L1D MSHR FULL: 0.000657062
L1D RQ	ACCESS:   33533316	FORWARD:          0	MERGED:     113055	TO_CACHE:   33417178
L1D WQ	ACCESS:   22258276	FORWARD:       3083	MERGED:      23494	TO_CACHE:   22234782
L1D PQ	ACCESS:    6388636	FORWARD:          0	MERGED:          0	TO_CACHE:    6388636

L1D UNIQUE REGIONS ACCESSED: 0
L1D REGIONS CONFLICTS: 0
L1D Cross Page Prefetch Requests: 0
L1D Same Page Prefetch Requests: 7536577
L1D ROI Sum of L1D PQ occupancy: 94416785
L1D PREFETCHES PUSHED FROM L2C: 0
L1I SPEC fills:          0  NON-SPEC fills:          0
L1I Test counter :          0
L1I Leapfrog:          0
L1I MSHR merge:          9
L1I TOTAL     ACCESS:   49656940  HIT:   49656851  MISS:         89  HIT %:    99.9998  MISS %: 0.00017923   MPKI: 0.000445
L1I LOAD      TOTAL       ACCESS:   49656940  HIT:   49656851  MISS:         89  HIT %:    99.9998  MISS %: 0.00017923   MPKI: 0.000445
L1I LOAD      NON_SPEC    ACCESS:   49656940  HIT:   49656851  MISS:         89  HIT %:    99.9998  MISS %: 0.00017923   MPKI: 0.000445
L1I PREFETCH  REQUESTED:          0  ISSUED:          0  USEFUL:          0  USELESS:          0
L1I USEFUL LOAD PREFETCHES:          0 PREFETCH ISSUED TO LOWER LEVEL:          0  ACCURACY: -nan
L1I TIMELY PREFETCHES:          0 LATE PREFETCHES: 0 DROPPED PREFETCHES: 0
L1I COMMIT LATE PREFETCHES: 0 MISSED OPPORTUNITY: 0 LATE IN PQ: 0 UNCOVERED: 0
L1I COMMIT LATE MSHR PREFETCHES: 0
L1I MPKI TOTAL: 0.00049 MSHR LATE: 0 PQ LATE: 0 COMMIT LATE: 0 MISSED OPPORTUNITY: 0 UNCOVERED: 0
L1I PREFETCHES SAME FILL-ORIGIN LEVEL: 0 DIFFERENT FILL-ORIGIN LEVEL: 0
L1I AVERAGE MISS LATENCY: 198.067 cycles
L1I AVERAGE MISS LATENCY LOAD: 198.067 cycles
L1I AVERAGE MISS LATENCY PREFETCH: -nan cycles
L1I AVERAGE MSHR OCCUPANCY: 7.24974e-07
L1I MSHR FULL: 0
L1I RQ	ACCESS:   79893289	FORWARD:          0	MERGED:   30236338	TO_CACHE:   49656951

BTB SPEC fills:          0  NON-SPEC fills:          0
BTB Test counter :          0
BTB Leapfrog:          0
BTB MSHR merge:          0
BTB TOTAL     ACCESS:   37936625  HIT:   37889779  MISS:      46846  HIT %:    99.8765  MISS %:   0.123485   MPKI: 0.23423
BTB BRANCH_DIRECT_JUMP	ACCESS:    4848253  HIT:    4848175  MISS:         78
BTB BRANCH_INDIRECT	ACCESS:          0  HIT:          0  MISS:          0
BTB BRANCH_CONDITIONAL	ACCESS:   28192639  HIT:   28192467  MISS:        172
BTB BRANCH_DIRECT_CALL	ACCESS:    2447841  HIT:    2447798  MISS:         43
BTB BRANCH_INDIRECT_CALL	ACCESS:         26  HIT:         25  MISS:          1
BTB BRANCH_RETURN	ACCESS:    2447866  HIT:    2401314  MISS:      46552
BTB BRANCH_OTHER ACCESS:          0  HIT:          0  MISS:          0

L2C SPEC fills:          0  NON-SPEC fills:      34868
L2C Test counter :      88051
L2C Leapfrog:          0
L2C MSHR merge:          0
L2C TOTAL     ACCESS:    5756130  HIT:    3502229  MISS:    2253901  HIT %:    60.8435  MISS %:    39.1565   MPKI: 11.2695
L2C LOAD      TOTAL       ACCESS:     443216  HIT:     348964  MISS:      94252  HIT %:    78.7345  MISS %:    21.2655   MPKI: 0.47126
L2C LOAD      NON_SPEC    ACCESS:     174958  HIT:     140001  MISS:      34957  HIT %:    80.0198  MISS %:    19.9802   MPKI: 0.174785
L2C LOAD      SPEC        ACCESS:     268258  HIT:     208963  MISS:      59295  HIT %:    77.8963  MISS %:    22.1037   MPKI: 0.296475
L2C RFO       NON_SPEC    ACCESS:       1531  HIT:       1081  MISS:        450  HIT %:    70.6074  MISS %:    29.3926   MPKI: 0.00225
L2C PREFETCH  NON_SPEC    ACCESS:    4908402  HIT:    2827826  MISS:    2080576  HIT %:    57.6119  MISS %:    42.3881   MPKI: 10.4029
L2C WRITEBACK NON_SPEC    ACCESS:      27881  HIT:      27784  MISS:         97  HIT %:    99.6521  MISS %:   0.347907   MPKI: 0.000485
L2C CLEAN_EVICTION NON_SPEC    ACCESS:     111601  HIT:      54081  MISS:      57520  HIT %:    48.4592  MISS %:    51.5408   MPKI: 0.2876
L2C COMMIT LOAD NON_SPEC    ACCESS:        738  HIT:        687  MISS:         51  HIT %:    93.0894  MISS %:    6.91057   MPKI: 0.000255
L2C LOAD TRANSLATION NON_SPEC    ACCESS:     262731  HIT:     241784  MISS:      20947  HIT %:    92.0272  MISS %:    7.97279   MPKI: 0.104735
L2C TRANSLATION FROM L1D PREFETCHER NON_SPEC    ACCESS:         30  HIT:         22  MISS:          8  HIT %:    73.3333  MISS %:    26.6667   MPKI: 4e-05
L2C PREFETCH  REQUESTED:          0  ISSUED:          0  USEFUL:      18395  USELESS:    2062244
L2C USEFUL LOAD PREFETCHES:      18395 PREFETCH ISSUED TO LOWER LEVEL:    2080576  ACCURACY: 0.88413
L2C TIMELY PREFETCHES:      18395 LATE PREFETCHES: 0 DROPPED PREFETCHES: 0
L2C COMMIT LATE PREFETCHES: 0 MISSED OPPORTUNITY: 0 LATE IN PQ: 0 UNCOVERED: 0
L2C COMMIT LATE MSHR PREFETCHES: 0
L2C MPKI TOTAL: 0.47126 MSHR LATE: 0 PQ LATE: 0 COMMIT LATE: 0 MISSED OPPORTUNITY: 0 UNCOVERED: 0
L2C PREFETCHES SAME FILL-ORIGIN LEVEL: 0 DIFFERENT FILL-ORIGIN LEVEL: 0
L2C AVERAGE MISS LATENCY: 115.334 cycles
L2C AVERAGE MISS LATENCY LOAD: 115.939 cycles
L2C AVERAGE MISS LATENCY PREFETCH: 117.698 cycles
L2C AVERAGE MSHR OCCUPANCY: 0.968288
L2C MSHR FULL: 0
L2C RQ	ACCESS:     708248	FORWARD:          0	MERGED:          0	TO_CACHE:     708246
L2C WQ	ACCESS:     139482	FORWARD:          2	MERGED:          0	TO_CACHE:     139482
L2C PQ	ACCESS:    4908402	FORWARD:          0	MERGED:          0	TO_CACHE:    4908402

L2C Instructions Evicting Data 89
L2C Translations Evicting Data 20712
L2C Data Evicting Data 2095694
L2C Instructions Evicting Instructions 0
L2C Translations Evicting Instructions 1
L2C Data Evicting Instructions 82
L2C Instructions Evicting Translations 0
L2C Translations Evicting Translations 242
L2C Data Evicting Translations 20169
L2C Dense regions hint from L2: 0
PSCL5 SPEC fills:          0  NON-SPEC fills:          0
PSCL5 Test counter :          0
PSCL5 Leapfrog:          0
PSCL5 MSHR merge:          0
PSCL5 TOTAL     ACCESS:          0  HIT:          0  MISS:          0  HIT %:       -nan  MISS %:       -nan   MPKI: 0
PSCL5 PREFETCH  REQUESTED:          0  ISSUED:          0  USEFUL:          0  USELESS:          0
PSCL5 USEFUL LOAD PREFETCHES:          0 PREFETCH ISSUED TO LOWER LEVEL:          0  ACCURACY: -nan
PSCL5 TIMELY PREFETCHES:          0 LATE PREFETCHES: 0 DROPPED PREFETCHES: 0
PSCL5 COMMIT LATE PREFETCHES: 0 MISSED OPPORTUNITY: 0 LATE IN PQ: 0 UNCOVERED: 0
PSCL5 COMMIT LATE MSHR PREFETCHES: 0
PSCL5 MPKI TOTAL: 0 MSHR LATE: 0 PQ LATE: 0 COMMIT LATE: 0 MISSED OPPORTUNITY: 0 UNCOVERED: 0
PSCL5 PREFETCHES SAME FILL-ORIGIN LEVEL: 0 DIFFERENT FILL-ORIGIN LEVEL: 0

PSCL4 SPEC fills:          0  NON-SPEC fills:          0
PSCL4 Test counter :          0
PSCL4 Leapfrog:          0
PSCL4 MSHR merge:          0
PSCL4 TOTAL     ACCESS:          0  HIT:          0  MISS:          0  HIT %:       -nan  MISS %:       -nan   MPKI: 0
PSCL4 PREFETCH  REQUESTED:          0  ISSUED:          0  USEFUL:          0  USELESS:          0
PSCL4 USEFUL LOAD PREFETCHES:          0 PREFETCH ISSUED TO LOWER LEVEL:          0  ACCURACY: -nan
PSCL4 TIMELY PREFETCHES:          0 LATE PREFETCHES: 0 DROPPED PREFETCHES: 0
PSCL4 COMMIT LATE PREFETCHES: 0 MISSED OPPORTUNITY: 0 LATE IN PQ: 0 UNCOVERED: 0
PSCL4 COMMIT LATE MSHR PREFETCHES: 0
PSCL4 MPKI TOTAL: 0 MSHR LATE: 0 PQ LATE: 0 COMMIT LATE: 0 MISSED OPPORTUNITY: 0 UNCOVERED: 0
PSCL4 PREFETCHES SAME FILL-ORIGIN LEVEL: 0 DIFFERENT FILL-ORIGIN LEVEL: 0

PSCL3 SPEC fills:          0  NON-SPEC fills:          0
PSCL3 Test counter :          0
PSCL3 Leapfrog:          0
PSCL3 MSHR merge:          0
PSCL3 TOTAL     ACCESS:          0  HIT:          0  MISS:          0  HIT %:       -nan  MISS %:       -nan   MPKI: 0
PSCL3 PREFETCH  REQUESTED:          0  ISSUED:          0  USEFUL:          0  USELESS:          0
PSCL3 USEFUL LOAD PREFETCHES:          0 PREFETCH ISSUED TO LOWER LEVEL:          0  ACCURACY: -nan
PSCL3 TIMELY PREFETCHES:          0 LATE PREFETCHES: 0 DROPPED PREFETCHES: 0
PSCL3 COMMIT LATE PREFETCHES: 0 MISSED OPPORTUNITY: 0 LATE IN PQ: 0 UNCOVERED: 0
PSCL3 COMMIT LATE MSHR PREFETCHES: 0
PSCL3 MPKI TOTAL: 0 MSHR LATE: 0 PQ LATE: 0 COMMIT LATE: 0 MISSED OPPORTUNITY: 0 UNCOVERED: 0
PSCL3 PREFETCHES SAME FILL-ORIGIN LEVEL: 0 DIFFERENT FILL-ORIGIN LEVEL: 0

PSCL2 SPEC fills:          0  NON-SPEC fills:          0
PSCL2 Test counter :          0
PSCL2 Leapfrog:          0
PSCL2 MSHR merge:          0
PSCL2 TOTAL     ACCESS:          0  HIT:          0  MISS:          0  HIT %:       -nan  MISS %:       -nan   MPKI: 0
PSCL2 PREFETCH  REQUESTED:          0  ISSUED:          0  USEFUL:          0  USELESS:          0
PSCL2 USEFUL LOAD PREFETCHES:          0 PREFETCH ISSUED TO LOWER LEVEL:          0  ACCURACY: -nan
PSCL2 TIMELY PREFETCHES:          0 LATE PREFETCHES: 0 DROPPED PREFETCHES: 0
PSCL2 COMMIT LATE PREFETCHES: 0 MISSED OPPORTUNITY: 0 LATE IN PQ: 0 UNCOVERED: 0
PSCL2 COMMIT LATE MSHR PREFETCHES: 0
PSCL2 MPKI TOTAL: 0 MSHR LATE: 0 PQ LATE: 0 COMMIT LATE: 0 MISSED OPPORTUNITY: 0 UNCOVERED: 0
PSCL2 PREFETCHES SAME FILL-ORIGIN LEVEL: 0 DIFFERENT FILL-ORIGIN LEVEL: 0

LLC SPEC fills:          0  NON-SPEC fills:      31134
LLC Test counter :      78056
LLC Leapfrog:          0
LLC MSHR merge:          0
LLC TOTAL     ACCESS:    2302554  HIT:     113324  MISS:    2189230  HIT %:    4.92167  MISS %:    95.0783   MPKI: 10.9461
LLC LOAD      TOTAL       ACCESS:      94247  HIT:      14454  MISS:      79793  HIT %:    15.3363  MISS %:    84.6637   MPKI: 0.398965
LLC LOAD      NON_SPEC    ACCESS:      34957  HIT:       3734  MISS:      31223  HIT %:    10.6817  MISS %:    89.3183   MPKI: 0.156115
LLC LOAD      SPEC        ACCESS:      59290  HIT:      10720  MISS:      48570  HIT %:    18.0806  MISS %:    81.9194   MPKI: 0.24285
LLC RFO       NON_SPEC    ACCESS:        450  HIT:         44  MISS:        406  HIT %:    9.77778  MISS %:    90.2222   MPKI: 0.00203
LLC PREFETCH  NON_SPEC    ACCESS:    2080576  HIT:      41894  MISS:    2038682  HIT %:    2.01358  MISS %:    97.9864   MPKI: 10.1934
LLC WRITEBACK NON_SPEC    ACCESS:      18225  HIT:      14618  MISS:       3607  HIT %:    80.2085  MISS %:    19.7915   MPKI: 0.018035
LLC CLEAN_EVICTION NON_SPEC    ACCESS:      88051  HIT:      40518  MISS:      47533  HIT %:    46.0165  MISS %:    53.9835   MPKI: 0.237665
LLC COMMIT LOAD NON_SPEC    ACCESS:         50  HIT:         26  MISS:         24  HIT %:         52  MISS %:         48   MPKI: 0.00012
LLC LOAD TRANSLATION NON_SPEC    ACCESS:      20947  HIT:       1770  MISS:      19177  HIT %:     8.4499  MISS %:    91.5501   MPKI: 0.095885
LLC TRANSLATION FROM L1D PREFETCHER NON_SPEC    ACCESS:          8  HIT:          0  MISS:          8  HIT %:          0  MISS %:        100   MPKI: 4e-05
LLC PREFETCH  REQUESTED:          0  ISSUED:          0  USEFUL:       1455  USELESS:    2037414
LLC USEFUL LOAD PREFETCHES:       1455 PREFETCH ISSUED TO LOWER LEVEL:    2038682  ACCURACY: 0.0713696
LLC TIMELY PREFETCHES:       1455 LATE PREFETCHES: 0 DROPPED PREFETCHES: 0
LLC COMMIT LATE PREFETCHES: 0 MISSED OPPORTUNITY: 0 LATE IN PQ: 0 UNCOVERED: 0
LLC COMMIT LATE MSHR PREFETCHES: 0
LLC MPKI TOTAL: 0.398965 MSHR LATE: 0 PQ LATE: 0 COMMIT LATE: 0 MISSED OPPORTUNITY: 0 UNCOVERED: 0
LLC PREFETCHES SAME FILL-ORIGIN LEVEL: 0 DIFFERENT FILL-ORIGIN LEVEL: 0
LLC AVERAGE MISS LATENCY: 88.8158 cycles
LLC AVERAGE MISS LATENCY LOAD: 108.132 cycles
LLC AVERAGE MISS LATENCY PREFETCH: 89.4247 cycles
LLC AVERAGE MSHR OCCUPANCY: 1.0973
LLC MSHR FULL: 0
LLC RQ	ACCESS:     115708	FORWARD:          0	MERGED:          0	TO_CACHE:     115702
LLC WQ	ACCESS:     106276	FORWARD:          6	MERGED:          0	TO_CACHE:     106276
LLC PQ	ACCESS:    2080576	FORWARD:          0	MERGED:          0	TO_CACHE:    2080576

LLC Dense regions hint to LLC: 0

RAW hits: 55877
Loads Generated: 52931823
Loads sent to L1D: 52875945
Stores Generated: 21939796
Stores sent to L1D: 21939797
Major fault: 0 Minor fault: 9448
Allocated PAGES: 9448
Total Load insts: 65992680
Total Non-spec loads: 18912263
Percentage of speculative loads: 71.3419

LeapFrogging counter: 4986
Commit hits: 17368787 miss: 19956762
Commit hit %: 46.5332 miss %: 53.4668
Commits not translated: 0
Loads retired: 504387
Stores retired: 21939797
Cache fills: 504387
L1D response latency: 38.5539 cycles
Load retirement latency: 87.2998 cycles
OOO test counter: 0
Discarded buffer inserts: 17368787 hits: 12939 hit %: 0.0744957

stream: 
stream:times selected: 25611389
stream:pref_filled: 5538089
stream:pref_useful: 3899089
stream:pref_late: 29108
stream:misses: 22616
stream:misses_by_poll: 0

CS: 
CS:times selected: 22296673
CS:pref_filled: 73326
CS:pref_useful: 60265
CS:pref_late: 1809
CS:misses: 156787
CS:misses_by_poll: 494

CPLX: 
CPLX:times selected: 3304886
CPLX:pref_filled: 115096
CPLX:pref_useful: 35228
CPLX:pref_late: 197
CPLX:misses: 158381
CPLX:misses_by_poll: 1451

NL_L1: 
NL:times selected: 6943
NL:pref_filled: 1591
NL:pref_useful: 517
NL:pref_late: 22
NL:misses: 406
NL:misses_by_poll: 10

total selections: 51219891
total_filled: 4846994
total_useful: 3227809
total_late: 47181
total_polluted: 1955
total_misses_after_warmup: 320687
conflicts: 3777
Degree Incremented Times: 514720
Degree Decremented Times: 499364

L1 IP Table Write Accesses: 74815194
L1 IP Table Read Accesses: 74811417
L1 RST Write Accesses: 20708445
L1 RST Read Accesses: 41416890
L1 CSPT Write Accesses: 20708445
L1 CSPT Read Accesses: 23667130
L1 RR Filter Tag Write Accesses: 6403502
L1 RR Filter Tag Read Accesses: 4112544280
L1 IP Table Tag Write Accesses: 74871414
L1 IP Table Tag Read Accesses: 74871414
L1 RST Tag Write Accesses: 0
L1 RST Tag Read Accesses: 187201377
L1 RR Filter Write Accesses: 0
L1 RR Filter Read Accesses: 169909784
test: 2152447

DRAM Statistics
 CHANNEL 0
 RQ ROW_BUFFER_HIT:    1722498  ROW_BUFFER_MISS:     415590
 DBUS_CONGESTED:       2261
 WQ ROW_BUFFER_HIT:      16818  ROW_BUFFER_MISS:      78844  FULL:          0

 AVG_CONGESTED_CYCLE: 3
 All warmup complete: 2
Channel 0 Bank busy for read cycles: 0
Channel 0 Bank busy for write cycles: 0
Channel 0
Rank 0
0banks busy for read cycles: 308803438
0banks busy for write cycles: 64823
1banks busy for read cycles: 87494347
1banks busy for write cycles: 11405836
2banks busy for read cycles: 6607723
2banks busy for write cycles: 1990033
3banks busy for read cycles: 3492097
3banks busy for write cycles: 657933
4banks busy for read cycles: 1664795
4banks busy for write cycles: 361598
5banks busy for read cycles: 1120947
5banks busy for write cycles: 249338
6banks busy for read cycles: 3378276
6banks busy for write cycles: 183385
7banks busy for read cycles: 548171
7banks busy for write cycles: 117004
8banks busy for read cycles: 114856
8banks busy for write cycles: 72746

CPU 0 Branch Prediction Accuracy: 99.9023% MPKI: 0.234695 Average ROB Occupancy at Mispredict: 77.6527
Branch types
NOT_BRANCH: 151969688 75.9848%
BRANCH_DIRECT_JUMP: 4848253 2.42413%
BRANCH_INDIRECT: 0 0%
BRANCH_CONDITIONAL: 38286306 19.1432%
BRANCH_DIRECT_CALL: 2447841 1.22392%
BRANCH_INDIRECT_CALL: 26 1.3e-05%
BRANCH_RETURN: 2447866 1.22393%
BRANCH_OTHER: 0 0%

DRAM PAGES: 1048576
Allocated PAGES: 9448
