
*** ChampSim Multicore Out-of-Order Simulator ***

Warmup Instructions: 50000000
Simulation Instructions: 200000000
Number of CPUs: 1
LLC sets: 2048
LLC ways: 16
L0D sets: 16
L0D ways: 2
ROB size: 352
LQ size: 128
SQ size: 72
Secure Berti: OFF
Berti: OFF
Berti Fill: OFF
On commit prefetching: ON
Hit-based filter: ON
Time-guarding: ON
Free-slotting: ON
Leap-frogging: ON
Train prefetcher on L0D bypass: OFF
No translation penalty for prefetchers: OFF
Prefetch to L0D only: OFF
Prefetch to L1D only: OFF
Clean evictions: ON
Commit loads: ON
Commit write: ON
Fill commit loads to L2C, LLC: ON
DRAM IO FREQUENCY: 6400
ROB SIZE: 352
Off-chip DRAM Size: 4096 MB Channels: 1 Width: 64-bit Data Rate: 6400 MT/s
CPU 0 runs /home/sumon/secure_berti/GhostMinion/../../traces/spec/603.bwaves_s-2609B.champsimtrace.xz
.xz
BTB has LRU replacement policy
ITLB has LRU replacement policy
DTLB has LRU replacement policy
STLB has LRU replacement policy
L1I has LRU replacement policy
L0D has LRU replacement policy
IP Table Entries: 1024
CSPT Entries: 128
RR_ENTRIES: 32
RST_ENTRIES: 8
L1D has LRU replacement policy
L2C has LRU replacement policy
LLC has LRU replacement policy
Heartbeat CPU 0 instructions: 10000002 cycles: 3565724 heartbeat IPC: 2.80448 cumulative IPC: 2.80448 (Simulation time: 0 hr 1 min 12 sec) 
Heartbeat CPU 0 instructions: 20000003 cycles: 7130636 heartbeat IPC: 2.80512 cumulative IPC: 2.8048 (Simulation time: 0 hr 2 min 14 sec) 
Heartbeat CPU 0 instructions: 30000001 cycles: 10696938 heartbeat IPC: 2.80402 cumulative IPC: 2.80454 (Simulation time: 0 hr 3 min 20 sec) 
Heartbeat CPU 0 instructions: 40000002 cycles: 14263378 heartbeat IPC: 2.80392 cumulative IPC: 2.80438 (Simulation time: 0 hr 4 min 27 sec) 
Heartbeat CPU 0 instructions: 50000003 cycles: 17828287 heartbeat IPC: 2.80512 cumulative IPC: 2.80453 (Simulation time: 0 hr 5 min 34 sec) 

Warmup complete CPU 0 instructions: 50000003 cycles: 17828287 (Simulation time: 0 hr 5 min 34 sec) 

Heartbeat CPU 0 instructions: 60000000 cycles: 27546989 heartbeat IPC: 1.02894 cumulative IPC: 1.02894 (Simulation time: 0 hr 6 min 23 sec) 
Heartbeat CPU 0 instructions: 70000000 cycles: 37271651 heartbeat IPC: 1.02831 cumulative IPC: 1.02863 (Simulation time: 0 hr 7 min 11 sec) 
Heartbeat CPU 0 instructions: 80000003 cycles: 46997772 heartbeat IPC: 1.02816 cumulative IPC: 1.02847 (Simulation time: 0 hr 8 min 0 sec) 
Heartbeat CPU 0 instructions: 90000003 cycles: 56722117 heartbeat IPC: 1.02835 cumulative IPC: 1.02844 (Simulation time: 0 hr 8 min 49 sec) 
Heartbeat CPU 0 instructions: 100000001 cycles: 66451873 heartbeat IPC: 1.02777 cumulative IPC: 1.02831 (Simulation time: 0 hr 9 min 38 sec) 
Heartbeat CPU 0 instructions: 110000000 cycles: 76171386 heartbeat IPC: 1.02886 cumulative IPC: 1.0284 (Simulation time: 0 hr 10 min 26 sec) 
Heartbeat CPU 0 instructions: 120000000 cycles: 85897217 heartbeat IPC: 1.02819 cumulative IPC: 1.02837 (Simulation time: 0 hr 11 min 14 sec) 
Heartbeat CPU 0 instructions: 130000001 cycles: 95616466 heartbeat IPC: 1.02889 cumulative IPC: 1.02843 (Simulation time: 0 hr 12 min 3 sec) 
Heartbeat CPU 0 instructions: 140000000 cycles: 105337614 heartbeat IPC: 1.02868 cumulative IPC: 1.02846 (Simulation time: 0 hr 12 min 51 sec) 
Heartbeat CPU 0 instructions: 150000003 cycles: 115061570 heartbeat IPC: 1.02839 cumulative IPC: 1.02845 (Simulation time: 0 hr 13 min 39 sec) 
Heartbeat CPU 0 instructions: 160000000 cycles: 124793815 heartbeat IPC: 1.02751 cumulative IPC: 1.02837 (Simulation time: 0 hr 14 min 26 sec) 
Heartbeat CPU 0 instructions: 170000003 cycles: 134523494 heartbeat IPC: 1.02778 cumulative IPC: 1.02832 (Simulation time: 0 hr 15 min 11 sec) 
Heartbeat CPU 0 instructions: 180000001 cycles: 144247929 heartbeat IPC: 1.02834 cumulative IPC: 1.02832 (Simulation time: 0 hr 15 min 57 sec) 
Heartbeat CPU 0 instructions: 190000000 cycles: 153970245 heartbeat IPC: 1.02856 cumulative IPC: 1.02834 (Simulation time: 0 hr 16 min 42 sec) 
Heartbeat CPU 0 instructions: 200000000 cycles: 163690408 heartbeat IPC: 1.02879 cumulative IPC: 1.02837 (Simulation time: 0 hr 17 min 25 sec) 
Heartbeat CPU 0 instructions: 210000003 cycles: 173413851 heartbeat IPC: 1.02844 cumulative IPC: 1.02837 (Simulation time: 0 hr 18 min 5 sec) 
Heartbeat CPU 0 instructions: 220000000 cycles: 183132749 heartbeat IPC: 1.02892 cumulative IPC: 1.02841 (Simulation time: 0 hr 18 min 43 sec) 
Heartbeat CPU 0 instructions: 230000002 cycles: 192852574 heartbeat IPC: 1.02883 cumulative IPC: 1.02843 (Simulation time: 0 hr 19 min 20 sec) 
Heartbeat CPU 0 instructions: 240000000 cycles: 202579707 heartbeat IPC: 1.02805 cumulative IPC: 1.02841 (Simulation time: 0 hr 19 min 58 sec) 
Heartbeat CPU 0 instructions: 250000000 cycles: 212303037 heartbeat IPC: 1.02845 cumulative IPC: 1.02841 (Simulation time: 0 hr 20 min 34 sec) 
Finished CPU 0 instructions: 200000003 cycles: 194474752 cumulative IPC: 1.02841 (Simulation time: 0 hr 20 min 34 sec) 
 Instruction ID: 250000117

ChampSim completed all CPUs

Region of Interest Statistics

CPU 0 cumulative IPC: 1.02841 instructions: 200000003 cycles: 194474752
ITLB SPEC fills:          0  NON-SPEC fills:          0
ITLB Test counter :          0
ITLB Leapfrog:          0
ITLB MSHR merge:          0
ITLB TOTAL     ACCESS:   25344240  HIT:   25344240  MISS:          0  HIT %:        100  MISS %:          0   MPKI: 0
ITLB LOAD TRANSLATION NON_SPEC    ACCESS:   25344240  HIT:   25344240  MISS:          0  HIT %:        100  MISS %:          0   MPKI: 0
ITLB PREFETCH  REQUESTED:          0  ISSUED:          0  USEFUL:          0  USELESS:          0
ITLB USEFUL LOAD PREFETCHES:          0 PREFETCH ISSUED TO LOWER LEVEL:          0  ACCURACY: -nan
ITLB TIMELY PREFETCHES:          0 LATE PREFETCHES: 0 DROPPED PREFETCHES: 0
ITLB COMMIT LATE PREFETCHES: 0 MISSED OPPORTUNITY: 0 LATE IN PQ: 0 UNCOVERED: 0
ITLB COMMIT LATE MSHR PREFETCHES: 0
ITLB MPKI TOTAL: 0 MSHR LATE: 0 PQ LATE: 0 COMMIT LATE: 0 MISSED OPPORTUNITY: 0 UNCOVERED: 0
ITLB PREFETCHES SAME FILL-ORIGIN LEVEL: 0 DIFFERENT FILL-ORIGIN LEVEL: 0
ITLB AVERAGE MISS LATENCY: -nan cycles
ITLB AVERAGE MISS LATENCY LOAD: -nan cycles
ITLB AVERAGE MISS LATENCY PREFETCH: -nan cycles
ITLB AVERAGE MSHR OCCUPANCY: 0
ITLB MSHR FULL: 0
ITLB RQ	ACCESS:   34387649	FORWARD:          0	MERGED:    9043409	TO_CACHE:   25344240

DTLB SPEC fills:          0  NON-SPEC fills:          0
DTLB Test counter :          0
DTLB Leapfrog:          0
DTLB MSHR merge:          0
DTLB TOTAL     ACCESS:   74175698  HIT:   74034453  MISS:     141245  HIT %:    99.8096  MISS %:    0.19042   MPKI: 0.706225
DTLB LOAD TRANSLATION NON_SPEC    ACCESS:   74175698  HIT:   74034453  MISS:     141245  HIT %:    99.8096  MISS %:    0.19042   MPKI: 0.706225
DTLB PREFETCH  REQUESTED:          0  ISSUED:          0  USEFUL:          0  USELESS:          0
DTLB USEFUL LOAD PREFETCHES:          0 PREFETCH ISSUED TO LOWER LEVEL:          0  ACCURACY: -nan
DTLB TIMELY PREFETCHES:          0 LATE PREFETCHES: 0 DROPPED PREFETCHES: 0
DTLB COMMIT LATE PREFETCHES: 0 MISSED OPPORTUNITY: 0 LATE IN PQ: 0 UNCOVERED: 0
DTLB COMMIT LATE MSHR PREFETCHES: 0
DTLB MPKI TOTAL: 0 MSHR LATE: 0 PQ LATE: 0 COMMIT LATE: 0 MISSED OPPORTUNITY: 0 UNCOVERED: 0
DTLB PREFETCHES SAME FILL-ORIGIN LEVEL: 0 DIFFERENT FILL-ORIGIN LEVEL: 0
DTLB AVERAGE MISS LATENCY: 283.546 cycles
DTLB AVERAGE MISS LATENCY LOAD: -nan cycles
DTLB AVERAGE MISS LATENCY PREFETCH: -nan cycles
DTLB AVERAGE MSHR OCCUPANCY: 0.0215327
DTLB MSHR FULL: 6.75148e-06
DTLB RQ	ACCESS:   86617712	FORWARD:          0	MERGED:   12411740	TO_CACHE:   74205972

STLB SPEC fills:          0  NON-SPEC fills:          0
STLB Test counter :          0
STLB Leapfrog:          0
STLB MSHR merge:          0
STLB TOTAL     ACCESS:   14643995  HIT:   14584613  MISS:      59382  HIT %:    99.5945  MISS %:   0.405504   MPKI: 0.29691
STLB LOAD TRANSLATION NON_SPEC    ACCESS:     141245  HIT:      81863  MISS:      59382  HIT %:    57.9582  MISS %:    42.0418   MPKI: 0.29691
STLB TRANSLATION FROM L1D PREFETCHER NON_SPEC    ACCESS:   14502750  HIT:   14502750  MISS:          0  HIT %:        100  MISS %:          0   MPKI: 0
STLB PREFETCH  REQUESTED:          0  ISSUED:          0  USEFUL:          0  USELESS:          0
STLB USEFUL LOAD PREFETCHES:          0 PREFETCH ISSUED TO LOWER LEVEL:          0  ACCURACY: -nan
STLB TIMELY PREFETCHES:          0 LATE PREFETCHES: 0 DROPPED PREFETCHES: 0
STLB COMMIT LATE PREFETCHES: 0 MISSED OPPORTUNITY: 0 LATE IN PQ: 0 UNCOVERED: 0
STLB COMMIT LATE MSHR PREFETCHES: 0
STLB MPKI TOTAL: 0 MSHR LATE: 0 PQ LATE: 0 COMMIT LATE: 0 MISSED OPPORTUNITY: 0 UNCOVERED: 0
STLB PREFETCHES SAME FILL-ORIGIN LEVEL: 0 DIFFERENT FILL-ORIGIN LEVEL: 0
STLB AVERAGE MISS LATENCY: 652.599 cycles
STLB AVERAGE MISS LATENCY LOAD: -nan cycles
STLB AVERAGE MISS LATENCY PREFETCH: -nan cycles
STLB AVERAGE MSHR OCCUPANCY: 0.0214196
STLB MSHR FULL: 0
STLB RQ	ACCESS:   68604512	FORWARD:          0	MERGED:   53960517	TO_CACHE:   14643995

STLB Hit, L1D data hit: 0
STLB Hit, L2C data hit: 0
STLB Hit, LLC data hit: 0
STLB Hit, LLC data miss: 0
STLB STLB hints to L2: 0
L0D SPEC fills:   48755814  NON-SPEC fills:          0
L0D TimeGuard Request with older TS:    1547300 Restricted eviction:   12235526 read:     159892
L0D Test counter :          0
L0D Leapfrog:          0
L0D MSHR merge:    2289613
L0D TOTAL     ACCESS:   73061297  HIT:    6435440  MISS:   66625857  HIT %:    8.80828  MISS %:    91.1917   MPKI: 333.129
L0D LOAD      TOTAL       ACCESS:   73061297  HIT:    6435440  MISS:   66625857  HIT %:    8.80828  MISS %:    91.1917   MPKI: 333.129
L0D LOAD      NON_SPEC    ACCESS:    5982859  HIT:     345812  MISS:    5637047  HIT %:    5.78005  MISS %:      94.22   MPKI: 28.1852
L0D LOAD      SPEC        ACCESS:   67078438  HIT:    6089628  MISS:   60988810  HIT %:    9.07837  MISS %:    90.9216   MPKI: 304.944
L0D PREFETCH  REQUESTED:          0  ISSUED:          0  USEFUL:          0  USELESS:          0
L0D USEFUL LOAD PREFETCHES:          0 PREFETCH ISSUED TO LOWER LEVEL:          0  ACCURACY: -nan
L0D TIMELY PREFETCHES:          0 LATE PREFETCHES: 0 DROPPED PREFETCHES: 0
L0D COMMIT LATE PREFETCHES: 0 MISSED OPPORTUNITY: 0 LATE IN PQ: 0 UNCOVERED: 0
L0D COMMIT LATE MSHR PREFETCHES: 0
L0D MPKI TOTAL: 344.577 MSHR LATE: 0 PQ LATE: 0 COMMIT LATE: 0 MISSED OPPORTUNITY: 0 UNCOVERED: 0
L0D PREFETCHES SAME FILL-ORIGIN LEVEL: 0 DIFFERENT FILL-ORIGIN LEVEL: 0
L0D AVERAGE MISS LATENCY: 5.57818 cycles
L0D AVERAGE MISS LATENCY LOAD: 5.57818 cycles
L0D AVERAGE MISS LATENCY PREFETCH: -nan cycles
L0D AVERAGE MSHR OCCUPANCY: 1.65413
L0D MSHR FULL: 0.000993055
L0D RQ	ACCESS:   85450911	FORWARD:          0	MERGED:   10100014	TO_CACHE:   75350897
L0D WQ	ACCESS:   11266815	FORWARD:          0	MERGED:          0	TO_CACHE:   11266815

L1D SPEC fills:          0  NON-SPEC fills:       1202
L1D Test counter :     180706
L1D Leapfrog:          0
L1D MSHR merge:      41249
L1D TOTAL     ACCESS:  144441635  HIT:  140220491  MISS:    4221144  HIT %:    97.0776  MISS %:    2.92239   MPKI: 21.1057
L1D LOAD      TOTAL       ACCESS:   66617242  HIT:   66406051  MISS:     211191  HIT %:     99.683  MISS %:   0.317022   MPKI: 1.05595
L1D LOAD      NON_SPEC    ACCESS:    5636978  HIT:    5635776  MISS:       1202  HIT %:    99.9787  MISS %:  0.0213235   MPKI: 0.00601
L1D LOAD      SPEC        ACCESS:   60980264  HIT:   60770275  MISS:     209989  HIT %:    99.6556  MISS %:   0.344356   MPKI: 1.04994
L1D RFO       NON_SPEC    ACCESS:   11264453  HIT:   11262840  MISS:       1613  HIT %:    99.9857  MISS %:  0.0143194   MPKI: 0.008065
L1D PREFETCH  NON_SPEC    ACCESS:   66263911  HIT:   62445081  MISS:    3818830  HIT %:    94.2369  MISS %:    5.76306   MPKI: 19.0941
L1D COMMIT LOAD NON_SPEC    ACCESS:     110358  HIT:      92423  MISS:      17935  HIT %:    83.7483  MISS %:    16.2517   MPKI: 0.089675
L1D COMMIT WRITE NON_SPEC    ACCESS:     185671  HIT:      14096  MISS:     171575  HIT %:    7.59192  MISS %:    92.4081   MPKI: 0.857875
L1D PREFETCH  REQUESTED:  131977457  ISSUED:   68929691  USEFUL:    3712362  USELESS:     106494
L1D USEFUL LOAD PREFETCHES:    3712362 PREFETCH ISSUED TO LOWER LEVEL:    3859382  ACCURACY: 96.1906
L1D TIMELY PREFETCHES:    3712362 LATE PREFETCHES: 40552 DROPPED PREFETCHES: 0
L1D COMMIT LATE PREFETCHES: 0 MISSED OPPORTUNITY: 0 LATE IN PQ: 0 UNCOVERED: 0
L1D COMMIT LATE MSHR PREFETCHES: 0
L1D MPKI TOTAL: 1.09903 MSHR LATE: 0.20276 PQ LATE: 0 COMMIT LATE: 0 MISSED OPPORTUNITY: 0 UNCOVERED: 0
L1D PREFETCHES SAME FILL-ORIGIN LEVEL: 3859382 DIFFERENT FILL-ORIGIN LEVEL: 0
L1D AVERAGE MISS LATENCY: 191.997 cycles
L1D AVERAGE MISS LATENCY LOAD: 145.33 cycles
L1D AVERAGE MISS LATENCY PREFETCH: 203.717 cycles
L1D AVERAGE MSHR OCCUPANCY: 3.92529
L1D MSHR FULL: 0.0218861
L1D RQ	ACCESS:   66739509	FORWARD:          0	MERGED:        307	TO_CACHE:   66739202
L1D WQ	ACCESS:   11452485	FORWARD:          0	MERGED:        176	TO_CACHE:   11452309
L1D PQ	ACCESS:   68929691	FORWARD:          0	MERGED:     466424	TO_CACHE:   68463267

L1D UNIQUE REGIONS ACCESSED: 0
L1D REGIONS CONFLICTS: 0
L1D Cross Page Prefetch Requests: 0
L1D Same Page Prefetch Requests: 84250600
L1D ROI Sum of L1D PQ occupancy: 1129351209
L1D PREFETCHES PUSHED FROM L2C: 0
L1I SPEC fills:          0  NON-SPEC fills:          0
L1I Test counter :          0
L1I Leapfrog:          0
L1I MSHR merge:          0
L1I TOTAL     ACCESS:   34387648  HIT:   34387648  MISS:          0  HIT %:        100  MISS %:          0   MPKI: 0
L1I LOAD      TOTAL       ACCESS:   34387648  HIT:   34387648  MISS:          0  HIT %:        100  MISS %:          0   MPKI: 0
L1I LOAD      NON_SPEC    ACCESS:   34387648  HIT:   34387648  MISS:          0  HIT %:        100  MISS %:          0   MPKI: 0
L1I PREFETCH  REQUESTED:          0  ISSUED:          0  USEFUL:          0  USELESS:          0
L1I USEFUL LOAD PREFETCHES:          0 PREFETCH ISSUED TO LOWER LEVEL:          0  ACCURACY: -nan
L1I TIMELY PREFETCHES:          0 LATE PREFETCHES: 0 DROPPED PREFETCHES: 0
L1I COMMIT LATE PREFETCHES: 0 MISSED OPPORTUNITY: 0 LATE IN PQ: 0 UNCOVERED: 0
L1I COMMIT LATE MSHR PREFETCHES: 0
L1I MPKI TOTAL: 0 MSHR LATE: 0 PQ LATE: 0 COMMIT LATE: 0 MISSED OPPORTUNITY: 0 UNCOVERED: 0
L1I PREFETCHES SAME FILL-ORIGIN LEVEL: 0 DIFFERENT FILL-ORIGIN LEVEL: 0
L1I AVERAGE MISS LATENCY: -nan cycles
L1I AVERAGE MISS LATENCY LOAD: -nan cycles
L1I AVERAGE MISS LATENCY PREFETCH: -nan cycles
L1I AVERAGE MSHR OCCUPANCY: 0
L1I MSHR FULL: 0
L1I RQ	ACCESS:   45804784	FORWARD:          0	MERGED:   11417135	TO_CACHE:   34387649

BTB SPEC fills:          0  NON-SPEC fills:          0
BTB Test counter :          0
BTB Leapfrog:          0
BTB MSHR merge:          0
BTB TOTAL     ACCESS:    4834902  HIT:    4834897  MISS:          5  HIT %:    99.9999  MISS %: 0.000103415   MPKI: 2.5e-05
BTB BRANCH_DIRECT_JUMP	ACCESS:          0  HIT:          0  MISS:          0
BTB BRANCH_INDIRECT	ACCESS:          0  HIT:          0  MISS:          0
BTB BRANCH_CONDITIONAL	ACCESS:    4834902  HIT:    4834897  MISS:          5
BTB BRANCH_DIRECT_CALL	ACCESS:          0  HIT:          0  MISS:          0
BTB BRANCH_INDIRECT_CALL	ACCESS:          0  HIT:          0  MISS:          0
BTB BRANCH_RETURN	ACCESS:          0  HIT:          0  MISS:          0
BTB BRANCH_OTHER ACCESS:          0  HIT:          0  MISS:          0

L2C SPEC fills:          0  NON-SPEC fills:        902
L2C Test counter :     178744
L2C Leapfrog:          0
L2C MSHR merge:          0
L2C TOTAL     ACCESS:    4624536  HIT:     644898  MISS:    3979638  HIT %:    13.9451  MISS %:    86.0549   MPKI: 19.8982
L2C LOAD      TOTAL       ACCESS:     178555  HIT:       6540  MISS:     172015  HIT %:    3.66274  MISS %:    96.3373   MPKI: 0.860075
L2C LOAD      NON_SPEC    ACCESS:       1090  HIT:        188  MISS:        902  HIT %:    17.2477  MISS %:    82.7523   MPKI: 0.00451
L2C LOAD      SPEC        ACCESS:     177465  HIT:       6352  MISS:     171113  HIT %:     3.5793  MISS %:    96.4207   MPKI: 0.855565
L2C RFO       NON_SPEC    ACCESS:       1613  HIT:          0  MISS:       1613  HIT %:          0  MISS %:        100   MPKI: 0.008065
L2C PREFETCH  NON_SPEC    ACCESS:    3859382  HIT:     205025  MISS:    3654357  HIT %:    5.31238  MISS %:    94.6876   MPKI: 18.2718
L2C WRITEBACK NON_SPEC    ACCESS:      97464  HIT:      97464  MISS:          0  HIT %:        100  MISS %:          0   MPKI: 0
L2C CLEAN_EVICTION NON_SPEC    ACCESS:     180706  HIT:      43050  MISS:     137656  HIT %:    23.8232  MISS %:    76.1768   MPKI: 0.68828
L2C COMMIT LOAD NON_SPEC    ACCESS:      10017  HIT:       3457  MISS:       6560  HIT %:    34.5113  MISS %:    65.4887   MPKI: 0.0328
L2C LOAD TRANSLATION NON_SPEC    ACCESS:     296799  HIT:     289362  MISS:       7437  HIT %:    97.4943  MISS %:    2.50574   MPKI: 0.037185
L2C PREFETCH  REQUESTED:          0  ISSUED:          0  USEFUL:       3878  USELESS:    3650539
L2C USEFUL LOAD PREFETCHES:       3878 PREFETCH ISSUED TO LOWER LEVEL:    3654357  ACCURACY: 0.10612
L2C TIMELY PREFETCHES:       3878 LATE PREFETCHES: 0 DROPPED PREFETCHES: 0
L2C COMMIT LATE PREFETCHES: 0 MISSED OPPORTUNITY: 0 LATE IN PQ: 0 UNCOVERED: 0
L2C COMMIT LATE MSHR PREFETCHES: 0
L2C MPKI TOTAL: 0.860075 MSHR LATE: 0 PQ LATE: 0 COMMIT LATE: 0 MISSED OPPORTUNITY: 0 UNCOVERED: 0
L2C PREFETCHES SAME FILL-ORIGIN LEVEL: 0 DIFFERENT FILL-ORIGIN LEVEL: 0
L2C AVERAGE MISS LATENCY: 187.387 cycles
L2C AVERAGE MISS LATENCY LOAD: 147.22 cycles
L2C AVERAGE MISS LATENCY PREFETCH: 196.251 cycles
L2C AVERAGE MSHR OCCUPANCY: 4.84467
L2C MSHR FULL: 0
L2C RQ	ACCESS:     486986	FORWARD:          0	MERGED:          0	TO_CACHE:     486984
L2C WQ	ACCESS:     278170	FORWARD:          2	MERGED:          0	TO_CACHE:     278170
L2C PQ	ACCESS:    3859382	FORWARD:          0	MERGED:          0	TO_CACHE:    3859382

L2C Instructions Evicting Data 0
L2C Translations Evicting Data 7435
L2C Data Evicting Data 3656273
L2C Instructions Evicting Instructions 0
L2C Translations Evicting Instructions 0
L2C Data Evicting Instructions 0
L2C Instructions Evicting Translations 0
L2C Translations Evicting Translations 2
L2C Data Evicting Translations 7159
L2C Dense regions hint from L2: 0
PSCL5 SPEC fills:          0  NON-SPEC fills:          0
PSCL5 Test counter :          0
PSCL5 Leapfrog:          0
PSCL5 MSHR merge:          0
PSCL5 TOTAL     ACCESS:          0  HIT:          0  MISS:          0  HIT %:       -nan  MISS %:       -nan   MPKI: 0
PSCL5 PREFETCH  REQUESTED:          0  ISSUED:          0  USEFUL:          0  USELESS:          0
PSCL5 USEFUL LOAD PREFETCHES:          0 PREFETCH ISSUED TO LOWER LEVEL:          0  ACCURACY: -nan
PSCL5 TIMELY PREFETCHES:          0 LATE PREFETCHES: 0 DROPPED PREFETCHES: 0
PSCL5 COMMIT LATE PREFETCHES: 0 MISSED OPPORTUNITY: 0 LATE IN PQ: 0 UNCOVERED: 0
PSCL5 COMMIT LATE MSHR PREFETCHES: 0
PSCL5 MPKI TOTAL: 0 MSHR LATE: 0 PQ LATE: 0 COMMIT LATE: 0 MISSED OPPORTUNITY: 0 UNCOVERED: 0
PSCL5 PREFETCHES SAME FILL-ORIGIN LEVEL: 0 DIFFERENT FILL-ORIGIN LEVEL: 0

PSCL4 SPEC fills:          0  NON-SPEC fills:          0
PSCL4 Test counter :          0
PSCL4 Leapfrog:          0
PSCL4 MSHR merge:          0
PSCL4 TOTAL     ACCESS:          0  HIT:          0  MISS:          0  HIT %:       -nan  MISS %:       -nan   MPKI: 0
PSCL4 PREFETCH  REQUESTED:          0  ISSUED:          0  USEFUL:          0  USELESS:          0
PSCL4 USEFUL LOAD PREFETCHES:          0 PREFETCH ISSUED TO LOWER LEVEL:          0  ACCURACY: -nan
PSCL4 TIMELY PREFETCHES:          0 LATE PREFETCHES: 0 DROPPED PREFETCHES: 0
PSCL4 COMMIT LATE PREFETCHES: 0 MISSED OPPORTUNITY: 0 LATE IN PQ: 0 UNCOVERED: 0
PSCL4 COMMIT LATE MSHR PREFETCHES: 0
PSCL4 MPKI TOTAL: 0 MSHR LATE: 0 PQ LATE: 0 COMMIT LATE: 0 MISSED OPPORTUNITY: 0 UNCOVERED: 0
PSCL4 PREFETCHES SAME FILL-ORIGIN LEVEL: 0 DIFFERENT FILL-ORIGIN LEVEL: 0

PSCL3 SPEC fills:          0  NON-SPEC fills:          0
PSCL3 Test counter :          0
PSCL3 Leapfrog:          0
PSCL3 MSHR merge:          0
PSCL3 TOTAL     ACCESS:          0  HIT:          0  MISS:          0  HIT %:       -nan  MISS %:       -nan   MPKI: 0
PSCL3 PREFETCH  REQUESTED:          0  ISSUED:          0  USEFUL:          0  USELESS:          0
PSCL3 USEFUL LOAD PREFETCHES:          0 PREFETCH ISSUED TO LOWER LEVEL:          0  ACCURACY: -nan
PSCL3 TIMELY PREFETCHES:          0 LATE PREFETCHES: 0 DROPPED PREFETCHES: 0
PSCL3 COMMIT LATE PREFETCHES: 0 MISSED OPPORTUNITY: 0 LATE IN PQ: 0 UNCOVERED: 0
PSCL3 COMMIT LATE MSHR PREFETCHES: 0
PSCL3 MPKI TOTAL: 0 MSHR LATE: 0 PQ LATE: 0 COMMIT LATE: 0 MISSED OPPORTUNITY: 0 UNCOVERED: 0
PSCL3 PREFETCHES SAME FILL-ORIGIN LEVEL: 0 DIFFERENT FILL-ORIGIN LEVEL: 0

PSCL2 SPEC fills:          0  NON-SPEC fills:          0
PSCL2 Test counter :          0
PSCL2 Leapfrog:          0
PSCL2 MSHR merge:          0
PSCL2 TOTAL     ACCESS:          0  HIT:          0  MISS:          0  HIT %:       -nan  MISS %:       -nan   MPKI: 0
PSCL2 PREFETCH  REQUESTED:          0  ISSUED:          0  USEFUL:          0  USELESS:          0
PSCL2 USEFUL LOAD PREFETCHES:          0 PREFETCH ISSUED TO LOWER LEVEL:          0  ACCURACY: -nan
PSCL2 TIMELY PREFETCHES:          0 LATE PREFETCHES: 0 DROPPED PREFETCHES: 0
PSCL2 COMMIT LATE PREFETCHES: 0 MISSED OPPORTUNITY: 0 LATE IN PQ: 0 UNCOVERED: 0
PSCL2 COMMIT LATE MSHR PREFETCHES: 0
PSCL2 MPKI TOTAL: 0 MSHR LATE: 0 PQ LATE: 0 COMMIT LATE: 0 MISSED OPPORTUNITY: 0 UNCOVERED: 0
PSCL2 PREFETCHES SAME FILL-ORIGIN LEVEL: 0 DIFFERENT FILL-ORIGIN LEVEL: 0

LLC SPEC fills:          0  NON-SPEC fills:        902
LLC Test counter :     177160
LLC Leapfrog:          0
LLC MSHR merge:          0
LLC TOTAL     ACCESS:    4118208  HIT:     139701  MISS:    3978507  HIT %:    3.39228  MISS %:    96.6077   MPKI: 19.8925
LLC LOAD      TOTAL       ACCESS:     172015  HIT:        401  MISS:     171614  HIT %:   0.233119  MISS %:    99.7669   MPKI: 0.85807
LLC LOAD      NON_SPEC    ACCESS:        902  HIT:          0  MISS:        902  HIT %:          0  MISS %:        100   MPKI: 0.00451
LLC LOAD      SPEC        ACCESS:     171113  HIT:        401  MISS:     170712  HIT %:   0.234348  MISS %:    99.7657   MPKI: 0.85356
LLC RFO       NON_SPEC    ACCESS:       1613  HIT:          0  MISS:       1613  HIT %:          0  MISS %:        100   MPKI: 0.008065
LLC PREFETCH  NON_SPEC    ACCESS:    3654357  HIT:          0  MISS:    3654357  HIT %:          0  MISS %:        100   MPKI: 18.2718
LLC WRITEBACK NON_SPEC    ACCESS:      97482  HIT:      97482  MISS:          0  HIT %:        100  MISS %:          0   MPKI: 0
LLC CLEAN_EVICTION NON_SPEC    ACCESS:     178744  HIT:      41818  MISS:     136926  HIT %:    23.3955  MISS %:    76.6045   MPKI: 0.68463
LLC COMMIT LOAD NON_SPEC    ACCESS:       6560  HIT:          0  MISS:       6560  HIT %:          0  MISS %:        100   MPKI: 0.0328
LLC LOAD TRANSLATION NON_SPEC    ACCESS:       7437  HIT:          0  MISS:       7437  HIT %:          0  MISS %:        100   MPKI: 0.037185
LLC PREFETCH  REQUESTED:          0  ISSUED:          0  USEFUL:          0  USELESS:    3654726
LLC USEFUL LOAD PREFETCHES:          0 PREFETCH ISSUED TO LOWER LEVEL:    3654357  ACCURACY: 0
LLC TIMELY PREFETCHES:          0 LATE PREFETCHES: 0 DROPPED PREFETCHES: 0
LLC COMMIT LATE PREFETCHES: 0 MISSED OPPORTUNITY: 0 LATE IN PQ: 0 UNCOVERED: 0
LLC COMMIT LATE MSHR PREFETCHES: 0
LLC MPKI TOTAL: 0.85807 MSHR LATE: 0 PQ LATE: 0 COMMIT LATE: 0 MISSED OPPORTUNITY: 0 UNCOVERED: 0
LLC PREFETCHES SAME FILL-ORIGIN LEVEL: 0 DIFFERENT FILL-ORIGIN LEVEL: 0
LLC AVERAGE MISS LATENCY: 156.907 cycles
LLC AVERAGE MISS LATENCY LOAD: 114.025 cycles
LLC AVERAGE MISS LATENCY PREFETCH: 164.713 cycles
LLC AVERAGE MSHR OCCUPANCY: 4.13682
LLC MSHR FULL: 0
LLC RQ	ACCESS:     187625	FORWARD:          0	MERGED:          0	TO_CACHE:     187625
LLC WQ	ACCESS:     276226	FORWARD:          0	MERGED:          0	TO_CACHE:     276226
LLC PQ	ACCESS:    3654357	FORWARD:          0	MERGED:          0	TO_CACHE:    3654357

LLC Dense regions hint to LLC: 0

RAW hits: 509299
Loads Generated: 85960216
Loads sent to L1D: 85450911
Stores Generated: 11266825
Stores sent to L1D: 11266815
Major fault: 0 Minor fault: 70872
Allocated PAGES: 70872
Total Load insts: 106161707
Total Non-spec loads: 6462768
Percentage of speculative loads: 93.9123

LeapFrogging counter: 56148
Commit hits: 47473480 miss: 31913210
Commit hit %: 59.8003 miss %: 40.1997
Commits not translated: 0
Loads retired: 211191
Stores retired: 11266815
Cache fills: 211191
L1D response latency: 145.33 cycles
Load retirement latency: 506.997 cycles
OOO test counter: 0
Discarded buffer inserts: 47473480 hits: 40 hit %: 8.42576e-05

stream: 
stream:times selected: 29241874
stream:pref_filled: 4700340
stream:pref_useful: 4578913
stream:pref_late: 9342
stream:misses: 388
stream:misses_by_poll: 0

CS: 
CS:times selected: 28394349
CS:pref_filled: 47139
CS:pref_useful: 46587
CS:pref_late: 901
CS:misses: 222384
CS:misses_by_poll: 30

CPLX: 
CPLX:times selected: 847391
CPLX:pref_filled: 41854
CPLX:pref_useful: 30911
CPLX:pref_late: 6
CPLX:misses: 1783
CPLX:misses_by_poll: 114

NL_L1: 
NL:times selected: 8020
NL:pref_filled: 24
NL:pref_useful: 24
NL:pref_late: 0
NL:misses: 2
NL:misses_by_poll: 0

total selections: 58491634
total_filled: 3818830
total_useful: 3712362
total_late: 10599
total_polluted: 144
total_misses_after_warmup: 196721
conflicts: 22
Degree Incremented Times: 1028362
Degree Decremented Times: 0

L1 IP Table Write Accesses: 97216435
L1 IP Table Read Accesses: 97216413
L1 RST Write Accesses: 23393478
L1 RST Read Accesses: 46786956
L1 CSPT Write Accesses: 23393478
L1 CSPT Read Accesses: 25255939
L1 RR Filter Tag Write Accesses: 131977457
L1 RR Filter Tag Read Accesses: 6051313136
L1 IP Table Tag Write Accesses: 97225209
L1 IP Table Tag Read Accesses: 97225209
L1 RST Tag Write Accesses: 0
L1 RST Tag Read Accesses: 210535514
L1 RR Filter Write Accesses: 0
L1 RR Filter Read Accesses: 200027191
test: 577030

DRAM Statistics
 CHANNEL 0
 RQ ROW_BUFFER_HIT:    2597359  ROW_BUFFER_MISS:    1244222
 DBUS_CONGESTED:       6281
 WQ ROW_BUFFER_HIT:      46867  ROW_BUFFER_MISS:     227788  FULL:          0

 AVG_CONGESTED_CYCLE: 4
 All warmup complete: 2
Channel 0 Bank busy for read cycles: 0
Channel 0 Bank busy for write cycles: 0
Channel 0
Rank 0
0banks busy for read cycles: 47252261
0banks busy for write cycles: 100626
1banks busy for read cycles: 39918584
1banks busy for write cycles: 13663606
2banks busy for read cycles: 27420838
2banks busy for write cycles: 6445761
3banks busy for read cycles: 22062153
3banks busy for write cycles: 3401870
4banks busy for read cycles: 13452770
4banks busy for write cycles: 1497177
5banks busy for read cycles: 7311904
5banks busy for write cycles: 710403
6banks busy for read cycles: 6838066
6banks busy for write cycles: 461502
7banks busy for read cycles: 2888812
7banks busy for write cycles: 338040
8banks busy for read cycles: 500611
8banks busy for write cycles: 209769

CPU 0 Branch Prediction Accuracy: 99.9706% MPKI: 0.00733 Average ROB Occupancy at Mispredict: 37.0975
Branch types
NOT_BRANCH: 195007460 97.5037%
BRANCH_DIRECT_JUMP: 0 0%
BRANCH_INDIRECT: 0 0%
BRANCH_CONDITIONAL: 4992276 2.49614%
BRANCH_DIRECT_CALL: 0 0%
BRANCH_INDIRECT_CALL: 0 0%
BRANCH_RETURN: 0 0%
BRANCH_OTHER: 0 0%

DRAM PAGES: 1048576
Allocated PAGES: 70872
