
*** ChampSim Multicore Out-of-Order Simulator ***

Warmup Instructions: 50000000
Simulation Instructions: 200000000
Number of CPUs: 1
LLC sets: 2048
LLC ways: 16
L0D sets: 16
L0D ways: 2
ROB size: 352
LQ size: 128
SQ size: 72
Secure Berti: OFF
Berti: OFF
Berti Fill: OFF
On commit prefetching: ON
Hit-based filter: ON
Time-guarding: ON
Free-slotting: ON
Leap-frogging: ON
Train prefetcher on L0D bypass: OFF
No translation penalty for prefetchers: OFF
Prefetch to L0D only: OFF
Prefetch to L1D only: OFF
Clean evictions: ON
Commit loads: ON
Commit write: ON
Fill commit loads to L2C, LLC: ON
DRAM IO FREQUENCY: 6400
ROB SIZE: 352
Off-chip DRAM Size: 4096 MB Channels: 1 Width: 64-bit Data Rate: 6400 MT/s
CPU 0 runs /home/sumon/secure_berti/GhostMinion/../../traces/spec/605.mcf_s-994B.champsimtrace.xz
.xz
BTB has LRU replacement policy
ITLB has LRU replacement policy
DTLB has LRU replacement policy
STLB has LRU replacement policy
L1I has LRU replacement policy
L0D has LRU replacement policy
IP Table Entries: 1024
CSPT Entries: 128
RR_ENTRIES: 32
RST_ENTRIES: 8
L1D has LRU replacement policy
L2C has LRU replacement policy
LLC has LRU replacement policy
Heartbeat CPU 0 instructions: 10000000 cycles: 6134796 heartbeat IPC: 1.63005 cumulative IPC: 1.63005 (Simulation time: 0 hr 1 min 9 sec) 
Heartbeat CPU 0 instructions: 20000000 cycles: 12433998 heartbeat IPC: 1.5875 cumulative IPC: 1.60849 (Simulation time: 0 hr 2 min 11 sec) 
Heartbeat CPU 0 instructions: 30000003 cycles: 18663165 heartbeat IPC: 1.60535 cumulative IPC: 1.60744 (Simulation time: 0 hr 3 min 12 sec) 
Heartbeat CPU 0 instructions: 40000002 cycles: 24852102 heartbeat IPC: 1.61579 cumulative IPC: 1.60952 (Simulation time: 0 hr 4 min 13 sec) 
Heartbeat CPU 0 instructions: 50000001 cycles: 31119009 heartbeat IPC: 1.59568 cumulative IPC: 1.60673 (Simulation time: 0 hr 5 min 21 sec) 

Warmup complete CPU 0 instructions: 50000001 cycles: 31119009 (Simulation time: 0 hr 5 min 21 sec) 

Heartbeat CPU 0 instructions: 60000000 cycles: 74977957 heartbeat IPC: 0.228004 cumulative IPC: 0.228004 (Simulation time: 0 hr 6 min 20 sec) 
Heartbeat CPU 0 instructions: 70000003 cycles: 127257076 heartbeat IPC: 0.191281 cumulative IPC: 0.208034 (Simulation time: 0 hr 7 min 24 sec) 
Heartbeat CPU 0 instructions: 80000002 cycles: 163235714 heartbeat IPC: 0.277943 cumulative IPC: 0.227072 (Simulation time: 0 hr 8 min 23 sec) 
Heartbeat CPU 0 instructions: 90000002 cycles: 197865050 heartbeat IPC: 0.288772 cumulative IPC: 0.239886 (Simulation time: 0 hr 9 min 19 sec) 
Heartbeat CPU 0 instructions: 100000001 cycles: 229753217 heartbeat IPC: 0.313596 cumulative IPC: 0.251719 (Simulation time: 0 hr 10 min 13 sec) 
Heartbeat CPU 0 instructions: 110000000 cycles: 287022476 heartbeat IPC: 0.174614 cumulative IPC: 0.234463 (Simulation time: 0 hr 11 min 20 sec) 
Heartbeat CPU 0 instructions: 120000000 cycles: 330180222 heartbeat IPC: 0.231708 cumulative IPC: 0.234066 (Simulation time: 0 hr 12 min 18 sec) 
Heartbeat CPU 0 instructions: 130000000 cycles: 372064179 heartbeat IPC: 0.238755 cumulative IPC: 0.234642 (Simulation time: 0 hr 13 min 20 sec) 
Heartbeat CPU 0 instructions: 140000000 cycles: 418868354 heartbeat IPC: 0.213656 cumulative IPC: 0.232109 (Simulation time: 0 hr 14 min 17 sec) 
Heartbeat CPU 0 instructions: 150000001 cycles: 488001482 heartbeat IPC: 0.144648 cumulative IPC: 0.218875 (Simulation time: 0 hr 15 min 27 sec) 
Heartbeat CPU 0 instructions: 160000000 cycles: 523592128 heartbeat IPC: 0.280973 cumulative IPC: 0.223362 (Simulation time: 0 hr 16 min 20 sec) 
Heartbeat CPU 0 instructions: 170000002 cycles: 550815905 heartbeat IPC: 0.367326 cumulative IPC: 0.230904 (Simulation time: 0 hr 17 min 7 sec) 
Heartbeat CPU 0 instructions: 180000001 cycles: 624917792 heartbeat IPC: 0.134949 cumulative IPC: 0.218929 (Simulation time: 0 hr 18 min 10 sec) 
Heartbeat CPU 0 instructions: 190000003 cycles: 652870919 heartbeat IPC: 0.357742 cumulative IPC: 0.22517 (Simulation time: 0 hr 18 min 55 sec) 
Heartbeat CPU 0 instructions: 200000000 cycles: 688482441 heartbeat IPC: 0.280808 cumulative IPC: 0.228184 (Simulation time: 0 hr 19 min 43 sec) 
Heartbeat CPU 0 instructions: 210000001 cycles: 743125420 heartbeat IPC: 0.183006 cumulative IPC: 0.224717 (Simulation time: 0 hr 20 min 40 sec) 
Heartbeat CPU 0 instructions: 220000000 cycles: 806329213 heartbeat IPC: 0.158218 cumulative IPC: 0.219295 (Simulation time: 0 hr 21 min 37 sec) 
Heartbeat CPU 0 instructions: 230000000 cycles: 845140473 heartbeat IPC: 0.257657 cumulative IPC: 0.221124 (Simulation time: 0 hr 22 min 24 sec) 
Heartbeat CPU 0 instructions: 240000002 cycles: 884154654 heartbeat IPC: 0.256317 cumulative IPC: 0.222734 (Simulation time: 0 hr 23 min 12 sec) 
Heartbeat CPU 0 instructions: 250000002 cycles: 913260252 heartbeat IPC: 0.343577 cumulative IPC: 0.226721 (Simulation time: 0 hr 23 min 54 sec) 
Finished CPU 0 instructions: 200000001 cycles: 882141243 cumulative IPC: 0.226721 (Simulation time: 0 hr 23 min 54 sec) 
 Instruction ID: 250000007

ChampSim completed all CPUs

Region of Interest Statistics

CPU 0 cumulative IPC: 0.226721 instructions: 200000001 cycles: 882141243
ITLB SPEC fills:          0  NON-SPEC fills:          0
ITLB Test counter :          0
ITLB Leapfrog:          0
ITLB MSHR merge:          0
ITLB TOTAL     ACCESS:   35384112  HIT:   35384112  MISS:          0  HIT %:        100  MISS %:          0   MPKI: 0
ITLB LOAD TRANSLATION NON_SPEC    ACCESS:   35384112  HIT:   35384112  MISS:          0  HIT %:        100  MISS %:          0   MPKI: 0
ITLB PREFETCH  REQUESTED:          0  ISSUED:          0  USEFUL:          0  USELESS:          0
ITLB USEFUL LOAD PREFETCHES:          0 PREFETCH ISSUED TO LOWER LEVEL:          0  ACCURACY: -nan
ITLB TIMELY PREFETCHES:          0 LATE PREFETCHES: 0 DROPPED PREFETCHES: 0
ITLB COMMIT LATE PREFETCHES: 0 MISSED OPPORTUNITY: 0 LATE IN PQ: 0 UNCOVERED: 0
ITLB COMMIT LATE MSHR PREFETCHES: 0
ITLB MPKI TOTAL: 0 MSHR LATE: 0 PQ LATE: 0 COMMIT LATE: 0 MISSED OPPORTUNITY: 0 UNCOVERED: 0
ITLB PREFETCHES SAME FILL-ORIGIN LEVEL: 0 DIFFERENT FILL-ORIGIN LEVEL: 0
ITLB AVERAGE MISS LATENCY: -nan cycles
ITLB AVERAGE MISS LATENCY LOAD: -nan cycles
ITLB AVERAGE MISS LATENCY PREFETCH: -nan cycles
ITLB AVERAGE MSHR OCCUPANCY: 0
ITLB MSHR FULL: 0
ITLB RQ	ACCESS:   36250621	FORWARD:          0	MERGED:     866509	TO_CACHE:   35384112

DTLB SPEC fills:          0  NON-SPEC fills:          0
DTLB Test counter :          0
DTLB Leapfrog:          0
DTLB MSHR merge:          0
DTLB TOTAL     ACCESS:   72089139  HIT:   69166052  MISS:    2923087  HIT %:    95.9452  MISS %:    4.05482   MPKI: 14.6154
DTLB LOAD TRANSLATION NON_SPEC    ACCESS:   72089139  HIT:   69166052  MISS:    2923087  HIT %:    95.9452  MISS %:    4.05482   MPKI: 14.6154
DTLB PREFETCH  REQUESTED:          0  ISSUED:          0  USEFUL:          0  USELESS:          0
DTLB USEFUL LOAD PREFETCHES:          0 PREFETCH ISSUED TO LOWER LEVEL:          0  ACCURACY: -nan
DTLB TIMELY PREFETCHES:          0 LATE PREFETCHES: 0 DROPPED PREFETCHES: 0
DTLB COMMIT LATE PREFETCHES: 0 MISSED OPPORTUNITY: 0 LATE IN PQ: 0 UNCOVERED: 0
DTLB COMMIT LATE MSHR PREFETCHES: 0
DTLB MPKI TOTAL: 0 MSHR LATE: 0 PQ LATE: 0 COMMIT LATE: 0 MISSED OPPORTUNITY: 0 UNCOVERED: 0
DTLB PREFETCHES SAME FILL-ORIGIN LEVEL: 0 DIFFERENT FILL-ORIGIN LEVEL: 0
DTLB AVERAGE MISS LATENCY: 105.709 cycles
DTLB AVERAGE MISS LATENCY LOAD: -nan cycles
DTLB AVERAGE MISS LATENCY PREFETCH: -nan cycles
DTLB AVERAGE MSHR OCCUPANCY: 0.179858
DTLB MSHR FULL: 0
DTLB RQ	ACCESS:   84357631	FORWARD:          0	MERGED:   11367275	TO_CACHE:   72990356

STLB SPEC fills:          0  NON-SPEC fills:          0
STLB Test counter :          0
STLB Leapfrog:          0
STLB MSHR merge:          0
STLB TOTAL     ACCESS:   14202603  HIT:   12757768  MISS:    1444835  HIT %:     89.827  MISS %:     10.173   MPKI: 7.22417
STLB LOAD TRANSLATION NON_SPEC    ACCESS:    2923087  HIT:    1478476  MISS:    1444611  HIT %:    50.5793  MISS %:    49.4207   MPKI: 7.22305
STLB TRANSLATION FROM L1D PREFETCHER NON_SPEC    ACCESS:   11279516  HIT:   11279292  MISS:        224  HIT %:     99.998  MISS %:  0.0019859   MPKI: 0.00112
STLB PREFETCH  REQUESTED:          0  ISSUED:          0  USEFUL:        205  USELESS:         19
STLB USEFUL LOAD PREFETCHES:        205 PREFETCH ISSUED TO LOWER LEVEL:          0  ACCURACY: inf
STLB TIMELY PREFETCHES:        205 LATE PREFETCHES: 0 DROPPED PREFETCHES: 0
STLB COMMIT LATE PREFETCHES: 0 MISSED OPPORTUNITY: 0 LATE IN PQ: 0 UNCOVERED: 0
STLB COMMIT LATE MSHR PREFETCHES: 0
STLB MPKI TOTAL: 0 MSHR LATE: 0 PQ LATE: 0 COMMIT LATE: 0 MISSED OPPORTUNITY: 0 UNCOVERED: 0
STLB PREFETCHES SAME FILL-ORIGIN LEVEL: 0 DIFFERENT FILL-ORIGIN LEVEL: 0
STLB AVERAGE MISS LATENCY: 195.512 cycles
STLB AVERAGE MISS LATENCY LOAD: -nan cycles
STLB AVERAGE MISS LATENCY PREFETCH: -nan cycles
STLB AVERAGE MSHR OCCUPANCY: 0.120118
STLB MSHR FULL: 0
STLB RQ	ACCESS:   24524653	FORWARD:          0	MERGED:   10321600	TO_CACHE:   14203053

STLB Hit, L1D data hit: 0
STLB Hit, L2C data hit: 0
STLB Hit, LLC data hit: 0
STLB Hit, LLC data miss: 0
STLB STLB hints to L2: 0
L0D SPEC fills:   42398810  NON-SPEC fills:          0
L0D TimeGuard Request with older TS:     364555 Restricted eviction:     168500 read:     262457
L0D Test counter :          0
L0D Leapfrog:          0
L0D MSHR merge:     636692
L0D TOTAL     ACCESS:   63472885  HIT:    4822861  MISS:   58650024  HIT %:     7.5983  MISS %:    92.4017   MPKI: 293.25
L0D LOAD      TOTAL       ACCESS:   63472885  HIT:    4822861  MISS:   58650024  HIT %:     7.5983  MISS %:    92.4017   MPKI: 293.25
L0D LOAD      NON_SPEC    ACCESS:   16536027  HIT:     453309  MISS:   16082718  HIT %:    2.74134  MISS %:    97.2587   MPKI: 80.4136
L0D LOAD      SPEC        ACCESS:   46936858  HIT:    4369552  MISS:   42567306  HIT %:    9.30943  MISS %:    90.6906   MPKI: 212.837
L0D PREFETCH  REQUESTED:          0  ISSUED:          0  USEFUL:          0  USELESS:          0
L0D USEFUL LOAD PREFETCHES:          0 PREFETCH ISSUED TO LOWER LEVEL:          0  ACCURACY: -nan
L0D TIMELY PREFETCHES:          0 LATE PREFETCHES: 0 DROPPED PREFETCHES: 0
L0D COMMIT LATE PREFETCHES: 0 MISSED OPPORTUNITY: 0 LATE IN PQ: 0 UNCOVERED: 0
L0D COMMIT LATE MSHR PREFETCHES: 0
L0D MPKI TOTAL: 296.434 MSHR LATE: 0 PQ LATE: 0 COMMIT LATE: 0 MISSED OPPORTUNITY: 0 UNCOVERED: 0
L0D PREFETCHES SAME FILL-ORIGIN LEVEL: 0 DIFFERENT FILL-ORIGIN LEVEL: 0
L0D AVERAGE MISS LATENCY: 19.1671 cycles
L0D AVERAGE MISS LATENCY LOAD: 19.1671 cycles
L0D AVERAGE MISS LATENCY PREFETCH: -nan cycles
L0D AVERAGE MSHR OCCUPANCY: 0.831477
L0D MSHR FULL: 1.40385e-07
L0D RQ	ACCESS:   67570781	FORWARD:          0	MERGED:    3461208	TO_CACHE:   64109573
L0D WQ	ACCESS:   20248058	FORWARD:          0	MERGED:          0	TO_CACHE:   20248058

L1D SPEC fills:          0  NON-SPEC fills:    2252668
L1D Test counter :    3554587
L1D Leapfrog:          0
L1D MSHR merge:      85287
L1D TOTAL     ACCESS:  105270995  HIT:   85343737  MISS:   19927258  HIT %:    81.0705  MISS %:    18.9295   MPKI: 99.6363
L1D LOAD      TOTAL       ACCESS:   58649248  HIT:   51336499  MISS:    7312749  HIT %:    87.5314  MISS %:    12.4686   MPKI: 36.5637
L1D LOAD      NON_SPEC    ACCESS:   16082500  HIT:   13829832  MISS:    2252668  HIT %:     85.993  MISS %:     14.007   MPKI: 11.2633
L1D LOAD      SPEC        ACCESS:   42566748  HIT:   37506667  MISS:    5060081  HIT %:    88.1126  MISS %:    11.8874   MPKI: 25.3004
L1D RFO       NON_SPEC    ACCESS:   20111541  HIT:   20087550  MISS:      23991  HIT %:    99.8807  MISS %:    0.11929   MPKI: 0.119955
L1D PREFETCH  NON_SPEC    ACCESS:   21371279  HIT:   13809901  MISS:    7561378  HIT %:     64.619  MISS %:     35.381   MPKI: 37.8069
L1D COMMIT LOAD NON_SPEC    ACCESS:     153562  HIT:      81835  MISS:      71727  HIT %:    53.2912  MISS %:    46.7088   MPKI: 0.358635
L1D COMMIT WRITE NON_SPEC    ACCESS:    4985365  HIT:      27952  MISS:    4957413  HIT %:   0.560681  MISS %:    99.4393   MPKI: 24.7871
L1D PREFETCH  REQUESTED:   21606066  ISSUED:   21601566  USEFUL:     648714  USELESS:    6912524
L1D USEFUL LOAD PREFETCHES:     648714 PREFETCH ISSUED TO LOWER LEVEL:    7648875  ACCURACY: 8.48117
L1D TIMELY PREFETCHES:     648714 LATE PREFETCHES: 84664 DROPPED PREFETCHES: 0
L1D COMMIT LATE PREFETCHES: 0 MISSED OPPORTUNITY: 0 LATE IN PQ: 0 UNCOVERED: 0
L1D COMMIT LATE MSHR PREFETCHES: 0
L1D MPKI TOTAL: 36.5676 MSHR LATE: 0.42332 PQ LATE: 0 COMMIT LATE: 0 MISSED OPPORTUNITY: 0 UNCOVERED: 0
L1D PREFETCHES SAME FILL-ORIGIN LEVEL: 7648875 DIFFERENT FILL-ORIGIN LEVEL: 0
L1D AVERAGE MISS LATENCY: 102.245 cycles
L1D AVERAGE MISS LATENCY LOAD: 112.843 cycles
L1D AVERAGE MISS LATENCY PREFETCH: 159.135 cycles
L1D AVERAGE MSHR OCCUPANCY: 2.07685
L1D MSHR FULL: 0.000748367
L1D RQ	ACCESS:   58805739	FORWARD:          0	MERGED:       1943	TO_CACHE:   58803789
L1D WQ	ACCESS:   25233426	FORWARD:          7	MERGED:      98157	TO_CACHE:   25135269
L1D PQ	ACCESS:   21601566	FORWARD:          0	MERGED:          0	TO_CACHE:   21601566

L1D UNIQUE REGIONS ACCESSED: 0
L1D REGIONS CONFLICTS: 0
L1D Cross Page Prefetch Requests: 0
L1D Same Page Prefetch Requests: 26433367
L1D ROI Sum of L1D PQ occupancy: 290180568
L1D PREFETCHES PUSHED FROM L2C: 0
L1I SPEC fills:          0  NON-SPEC fills:          0
L1I Test counter :          0
L1I Leapfrog:          0
L1I MSHR merge:          0
L1I TOTAL     ACCESS:   36250621  HIT:   36250621  MISS:          0  HIT %:        100  MISS %:          0   MPKI: 0
L1I LOAD      TOTAL       ACCESS:   36250621  HIT:   36250621  MISS:          0  HIT %:        100  MISS %:          0   MPKI: 0
L1I LOAD      NON_SPEC    ACCESS:   36250621  HIT:   36250621  MISS:          0  HIT %:        100  MISS %:          0   MPKI: 0
L1I PREFETCH  REQUESTED:          0  ISSUED:          0  USEFUL:          0  USELESS:          0
L1I USEFUL LOAD PREFETCHES:          0 PREFETCH ISSUED TO LOWER LEVEL:          0  ACCURACY: -nan
L1I TIMELY PREFETCHES:          0 LATE PREFETCHES: 0 DROPPED PREFETCHES: 0
L1I COMMIT LATE PREFETCHES: 0 MISSED OPPORTUNITY: 0 LATE IN PQ: 0 UNCOVERED: 0
L1I COMMIT LATE MSHR PREFETCHES: 0
L1I MPKI TOTAL: 0 MSHR LATE: 0 PQ LATE: 0 COMMIT LATE: 0 MISSED OPPORTUNITY: 0 UNCOVERED: 0
L1I PREFETCHES SAME FILL-ORIGIN LEVEL: 0 DIFFERENT FILL-ORIGIN LEVEL: 0
L1I AVERAGE MISS LATENCY: -nan cycles
L1I AVERAGE MISS LATENCY LOAD: -nan cycles
L1I AVERAGE MISS LATENCY PREFETCH: -nan cycles
L1I AVERAGE MSHR OCCUPANCY: 0
L1I MSHR FULL: 0
L1I RQ	ACCESS:   57484077	FORWARD:          0	MERGED:   21233456	TO_CACHE:   36250621

BTB SPEC fills:          0  NON-SPEC fills:          0
BTB Test counter :          0
BTB Leapfrog:          0
BTB MSHR merge:          0
BTB TOTAL     ACCESS:   47143243  HIT:   44382764  MISS:    2760479  HIT %:    94.1445  MISS %:    5.85551   MPKI: 13.8024
BTB BRANCH_DIRECT_JUMP	ACCESS:    4520858  HIT:    4520837  MISS:         21
BTB BRANCH_INDIRECT	ACCESS:          0  HIT:          0  MISS:          0
BTB BRANCH_CONDITIONAL	ACCESS:   30060449  HIT:   30060407  MISS:         42
BTB BRANCH_DIRECT_CALL	ACCESS:    6072091  HIT:    6072078  MISS:         13
BTB BRANCH_INDIRECT_CALL	ACCESS:     208878  HIT:     208870  MISS:          8
BTB BRANCH_RETURN	ACCESS:    6280967  HIT:    3520572  MISS:    2760395
BTB BRANCH_OTHER ACCESS:          0  HIT:          0  MISS:          0

L2C SPEC fills:          0  NON-SPEC fills:    1269797
L2C Test counter :    3533781
L2C Leapfrog:          0
L2C MSHR merge:          0
L2C TOTAL     ACCESS:   26272374  HIT:   11527000  MISS:   14745374  HIT %:     43.875  MISS %:     56.125   MPKI: 73.7269
L2C LOAD      TOTAL       ACCESS:    7228164  HIT:    2423064  MISS:    4805100  HIT %:    33.5225  MISS %:    66.4775   MPKI: 24.0255
L2C LOAD      NON_SPEC    ACCESS:    2234754  HIT:     964957  MISS:    1269797  HIT %:    43.1796  MISS %:    56.8204   MPKI: 6.34898
L2C LOAD      SPEC        ACCESS:    4993410  HIT:    1458107  MISS:    3535303  HIT %:    29.2006  MISS %:    70.7994   MPKI: 17.6765
L2C RFO       NON_SPEC    ACCESS:      21161  HIT:      19003  MISS:       2158  HIT %:     89.802  MISS %:     10.198   MPKI: 0.01079
L2C PREFETCH  NON_SPEC    ACCESS:    7648787  HIT:    1866445  MISS:    5782342  HIT %:    24.4018  MISS %:    75.5982   MPKI: 28.9117
L2C WRITEBACK NON_SPEC    ACCESS:     523933  HIT:     522266  MISS:       1667  HIT %:    99.6818  MISS %:    0.31817   MPKI: 0.008335
L2C CLEAN_EVICTION NON_SPEC    ACCESS:    3554587  HIT:      99387  MISS:    3455200  HIT %:    2.79602  MISS %:     97.204   MPKI: 17.276
L2C COMMIT LOAD NON_SPEC    ACCESS:      71574  HIT:      20668  MISS:      50906  HIT %:    28.8764  MISS %:    71.1236   MPKI: 0.25453
L2C LOAD TRANSLATION NON_SPEC    ACCESS:    7223048  HIT:    6575166  MISS:     647882  HIT %:    91.0304  MISS %:    8.96965   MPKI: 3.23941
L2C TRANSLATION FROM L1D PREFETCHER NON_SPEC    ACCESS:       1120  HIT:       1001  MISS:        119  HIT %:     89.375  MISS %:     10.625   MPKI: 0.000595
L2C PREFETCH  REQUESTED:          0  ISSUED:          0  USEFUL:      51483  USELESS:    5729812
L2C USEFUL LOAD PREFETCHES:      51483 PREFETCH ISSUED TO LOWER LEVEL:    5782346  ACCURACY: 0.890348
L2C TIMELY PREFETCHES:      51483 LATE PREFETCHES: 0 DROPPED PREFETCHES: 0
L2C COMMIT LATE PREFETCHES: 0 MISSED OPPORTUNITY: 0 LATE IN PQ: 0 UNCOVERED: 0
L2C COMMIT LATE MSHR PREFETCHES: 0
L2C MPKI TOTAL: 24.0255 MSHR LATE: 0 PQ LATE: 0 COMMIT LATE: 0 MISSED OPPORTUNITY: 0 UNCOVERED: 0
L2C PREFETCHES SAME FILL-ORIGIN LEVEL: 0 DIFFERENT FILL-ORIGIN LEVEL: 0
L2C AVERAGE MISS LATENCY: 131.979 cycles
L2C AVERAGE MISS LATENCY LOAD: 149.879 cycles
L2C AVERAGE MISS LATENCY PREFETCH: 190.996 cycles
L2C AVERAGE MSHR OCCUPANCY: 2.30157
L2C MSHR FULL: 0
L2C RQ	ACCESS:   14545144	FORWARD:          0	MERGED:          0	TO_CACHE:   14545067
L2C WQ	ACCESS:    4078520	FORWARD:        160	MERGED:          0	TO_CACHE:    4078520
L2C PQ	ACCESS:    7648875	FORWARD:          0	MERGED:          0	TO_CACHE:    7648792

L2C Instructions Evicting Data 0
L2C Translations Evicting Data 598156
L2C Data Evicting Data 6713415
L2C Instructions Evicting Instructions 0
L2C Translations Evicting Instructions 0
L2C Data Evicting Instructions 0
L2C Instructions Evicting Translations 0
L2C Translations Evicting Translations 49845
L2C Data Evicting Translations 391788
L2C Dense regions hint from L2: 0
PSCL5 SPEC fills:          0  NON-SPEC fills:          0
PSCL5 Test counter :          0
PSCL5 Leapfrog:          0
PSCL5 MSHR merge:          0
PSCL5 TOTAL     ACCESS:          0  HIT:          0  MISS:          0  HIT %:       -nan  MISS %:       -nan   MPKI: 0
PSCL5 PREFETCH  REQUESTED:          0  ISSUED:          0  USEFUL:          0  USELESS:          0
PSCL5 USEFUL LOAD PREFETCHES:          0 PREFETCH ISSUED TO LOWER LEVEL:          0  ACCURACY: -nan
PSCL5 TIMELY PREFETCHES:          0 LATE PREFETCHES: 0 DROPPED PREFETCHES: 0
PSCL5 COMMIT LATE PREFETCHES: 0 MISSED OPPORTUNITY: 0 LATE IN PQ: 0 UNCOVERED: 0
PSCL5 COMMIT LATE MSHR PREFETCHES: 0
PSCL5 MPKI TOTAL: 0 MSHR LATE: 0 PQ LATE: 0 COMMIT LATE: 0 MISSED OPPORTUNITY: 0 UNCOVERED: 0
PSCL5 PREFETCHES SAME FILL-ORIGIN LEVEL: 0 DIFFERENT FILL-ORIGIN LEVEL: 0

PSCL4 SPEC fills:          0  NON-SPEC fills:          0
PSCL4 Test counter :          0
PSCL4 Leapfrog:          0
PSCL4 MSHR merge:          0
PSCL4 TOTAL     ACCESS:          0  HIT:          0  MISS:          0  HIT %:       -nan  MISS %:       -nan   MPKI: 0
PSCL4 PREFETCH  REQUESTED:          0  ISSUED:          0  USEFUL:          0  USELESS:          0
PSCL4 USEFUL LOAD PREFETCHES:          0 PREFETCH ISSUED TO LOWER LEVEL:          0  ACCURACY: -nan
PSCL4 TIMELY PREFETCHES:          0 LATE PREFETCHES: 0 DROPPED PREFETCHES: 0
PSCL4 COMMIT LATE PREFETCHES: 0 MISSED OPPORTUNITY: 0 LATE IN PQ: 0 UNCOVERED: 0
PSCL4 COMMIT LATE MSHR PREFETCHES: 0
PSCL4 MPKI TOTAL: 0 MSHR LATE: 0 PQ LATE: 0 COMMIT LATE: 0 MISSED OPPORTUNITY: 0 UNCOVERED: 0
PSCL4 PREFETCHES SAME FILL-ORIGIN LEVEL: 0 DIFFERENT FILL-ORIGIN LEVEL: 0

PSCL3 SPEC fills:          0  NON-SPEC fills:          0
PSCL3 Test counter :          0
PSCL3 Leapfrog:          0
PSCL3 MSHR merge:          0
PSCL3 TOTAL     ACCESS:          0  HIT:          0  MISS:          0  HIT %:       -nan  MISS %:       -nan   MPKI: 0
PSCL3 PREFETCH  REQUESTED:          0  ISSUED:          0  USEFUL:          0  USELESS:          0
PSCL3 USEFUL LOAD PREFETCHES:          0 PREFETCH ISSUED TO LOWER LEVEL:          0  ACCURACY: -nan
PSCL3 TIMELY PREFETCHES:          0 LATE PREFETCHES: 0 DROPPED PREFETCHES: 0
PSCL3 COMMIT LATE PREFETCHES: 0 MISSED OPPORTUNITY: 0 LATE IN PQ: 0 UNCOVERED: 0
PSCL3 COMMIT LATE MSHR PREFETCHES: 0
PSCL3 MPKI TOTAL: 0 MSHR LATE: 0 PQ LATE: 0 COMMIT LATE: 0 MISSED OPPORTUNITY: 0 UNCOVERED: 0
PSCL3 PREFETCHES SAME FILL-ORIGIN LEVEL: 0 DIFFERENT FILL-ORIGIN LEVEL: 0

PSCL2 SPEC fills:          0  NON-SPEC fills:          0
PSCL2 Test counter :          0
PSCL2 Leapfrog:          0
PSCL2 MSHR merge:          0
PSCL2 TOTAL     ACCESS:          0  HIT:          0  MISS:          0  HIT %:       -nan  MISS %:       -nan   MPKI: 0
PSCL2 PREFETCH  REQUESTED:          0  ISSUED:          0  USEFUL:          0  USELESS:          0
PSCL2 USEFUL LOAD PREFETCHES:          0 PREFETCH ISSUED TO LOWER LEVEL:          0  ACCURACY: -nan
PSCL2 TIMELY PREFETCHES:          0 LATE PREFETCHES: 0 DROPPED PREFETCHES: 0
PSCL2 COMMIT LATE PREFETCHES: 0 MISSED OPPORTUNITY: 0 LATE IN PQ: 0 UNCOVERED: 0
PSCL2 COMMIT LATE MSHR PREFETCHES: 0
PSCL2 MPKI TOTAL: 0 MSHR LATE: 0 PQ LATE: 0 COMMIT LATE: 0 MISSED OPPORTUNITY: 0 UNCOVERED: 0
PSCL2 PREFETCHES SAME FILL-ORIGIN LEVEL: 0 DIFFERENT FILL-ORIGIN LEVEL: 0

LLC SPEC fills:          0  NON-SPEC fills:     843015
LLC Test counter :    2628005
LLC Leapfrog:          0
LLC MSHR merge:          0
LLC TOTAL     ACCESS:   15148176  HIT:    4084350  MISS:   11063826  HIT %:    26.9627  MISS %:    73.0373   MPKI: 55.3191
LLC LOAD      TOTAL       ACCESS:    4805034  HIT:    1584128  MISS:    3220906  HIT %:    32.9681  MISS %:    67.0319   MPKI: 16.1045
LLC LOAD      NON_SPEC    ACCESS:    1269783  HIT:     426768  MISS:     843015  HIT %:    33.6095  MISS %:    66.3905   MPKI: 4.21507
LLC LOAD      SPEC        ACCESS:    3535251  HIT:    1157360  MISS:    2377891  HIT %:    32.7377  MISS %:    67.2623   MPKI: 11.8895
LLC RFO       NON_SPEC    ACCESS:       2158  HIT:       1541  MISS:        617  HIT %:    71.4087  MISS %:    28.5913   MPKI: 0.003085
LLC PREFETCH  NON_SPEC    ACCESS:    5782338  HIT:     904590  MISS:    4877748  HIT %:     15.644  MISS %:     84.356   MPKI: 24.3887
LLC WRITEBACK NON_SPEC    ACCESS:     325959  HIT:     323560  MISS:       2399  HIT %:     99.264  MISS %:   0.735982   MPKI: 0.011995
LLC CLEAN_EVICTION NON_SPEC    ACCESS:    3533781  HIT:    1063050  MISS:    2470731  HIT %:    30.0825  MISS %:    69.9175   MPKI: 12.3537
LLC COMMIT LOAD NON_SPEC    ACCESS:      50905  HIT:      22824  MISS:      28081  HIT %:    44.8365  MISS %:    55.1635   MPKI: 0.140405
LLC LOAD TRANSLATION NON_SPEC    ACCESS:     647882  HIT:     184579  MISS:     463303  HIT %:    28.4896  MISS %:    71.5104   MPKI: 2.31651
LLC TRANSLATION FROM L1D PREFETCHER NON_SPEC    ACCESS:        119  HIT:         78  MISS:         41  HIT %:    65.5462  MISS %:    34.4538   MPKI: 0.000205
LLC PREFETCH  REQUESTED:          0  ISSUED:          0  USEFUL:      31031  USELESS:    4844909
LLC USEFUL LOAD PREFETCHES:      31031 PREFETCH ISSUED TO LOWER LEVEL:    4877751  ACCURACY: 0.636174
LLC TIMELY PREFETCHES:      31031 LATE PREFETCHES: 0 DROPPED PREFETCHES: 0
LLC COMMIT LATE PREFETCHES: 0 MISSED OPPORTUNITY: 0 LATE IN PQ: 0 UNCOVERED: 0
LLC COMMIT LATE MSHR PREFETCHES: 0
LLC MPKI TOTAL: 16.1045 MSHR LATE: 0 PQ LATE: 0 COMMIT LATE: 0 MISSED OPPORTUNITY: 0 UNCOVERED: 0
LLC PREFETCHES SAME FILL-ORIGIN LEVEL: 0 DIFFERENT FILL-ORIGIN LEVEL: 0
LLC AVERAGE MISS LATENCY: 148.018 cycles
LLC AVERAGE MISS LATENCY LOAD: 188.59 cycles
LLC AVERAGE MISS LATENCY PREFETCH: 190.612 cycles
LLC AVERAGE MSHR OCCUPANCY: 2.08315
LLC MSHR FULL: 0
LLC RQ	ACCESS:    5506165	FORWARD:          0	MERGED:          0	TO_CACHE:    5506098
LLC WQ	ACCESS:    3859740	FORWARD:         71	MERGED:          0	TO_CACHE:    3859740
LLC PQ	ACCESS:    5782346	FORWARD:          0	MERGED:          0	TO_CACHE:    5782342

LLC Dense regions hint to LLC: 0

RAW hits: 1815314
Loads Generated: 69386095
Loads sent to L1D: 67570781
Stores Generated: 20248054
Stores sent to L1D: 20248058
Major fault: 0 Minor fault: 167265
Allocated PAGES: 167265
Total Load insts: 83728449
Total Non-spec loads: 18486992
Percentage of speculative loads: 77.9203

LeapFrogging counter: 23118
Commit hits: 42162137 miss: 8703196
Commit hit %: 82.8897 miss %: 17.1103
Commits not translated: 0
Loads retired: 7312749
Stores retired: 20248058
Cache fills: 7312749
L1D response latency: 112.843 cycles
Load retirement latency: 218.497 cycles
OOO test counter: 0
Discarded buffer inserts: 42162137 hits: 12775 hit %: 0.0302997

stream: 
stream:times selected: 45869912
stream:pref_filled: 5168851
stream:pref_useful: 213304
stream:pref_late: 22193
stream:misses: 1551234
stream:misses_by_poll: 0

CS: 
CS:times selected: 2617298
CS:pref_filled: 488508
CS:pref_useful: 450350
CS:pref_late: 8
CS:misses: 5670
CS:misses_by_poll: 7215

CPLX: 
CPLX:times selected: 43050513
CPLX:pref_filled: 3851741
CPLX:pref_useful: 200878
CPLX:pref_late: 722
CPLX:misses: 4839110
CPLX:misses_by_poll: 246906

NL_L1: 
NL:times selected: 327966
NL:pref_filled: 49961
NL:pref_useful: 4767
NL:pref_late: 23
NL:misses: 60991
NL:misses_by_poll: 3305

total selections: 91865689
total_filled: 7561378
total_useful: 648714
total_late: 23202
total_polluted: 257426
total_misses_after_warmup: 5331057
conflicts: 235268
Degree Incremented Times: 407932
Degree Decremented Times: 1334436

L1 IP Table Write Accesses: 88998520
L1 IP Table Read Accesses: 88763252
L1 RST Write Accesses: 36725112
L1 RST Read Accesses: 73450224
L1 CSPT Write Accesses: 36725112
L1 CSPT Read Accesses: 71185647
L1 RR Filter Tag Write Accesses: 21606066
L1 RR Filter Tag Read Accesses: 1421159791
L1 IP Table Tag Write Accesses: 89634164
L1 IP Table Tag Read Accesses: 89634164
L1 RST Tag Write Accesses: 0
L1 RST Tag Read Accesses: 425253307
L1 RR Filter Write Accesses: 0
L1 RR Filter Read Accesses: 61260170
test: 14535689

DRAM Statistics
 CHANNEL 0
 RQ ROW_BUFFER_HIT:     298356  ROW_BUFFER_MISS:    8290161
 DBUS_CONGESTED:       1391
 WQ ROW_BUFFER_HIT:     991463  ROW_BUFFER_MISS:    1873573  FULL:          0

 AVG_CONGESTED_CYCLE: 5
 All warmup complete: 2
Channel 0 Bank busy for read cycles: 0
Channel 0 Bank busy for write cycles: 0
Channel 0
Rank 0
0banks busy for read cycles: 90510903
0banks busy for write cycles: 203472
1banks busy for read cycles: 229390189
1banks busy for write cycles: 29261809
2banks busy for read cycles: 208134324
2banks busy for write cycles: 16131778
3banks busy for read cycles: 101139515
3banks busy for write cycles: 10239158
4banks busy for read cycles: 48480989
4banks busy for write cycles: 7251500
5banks busy for read cycles: 16469875
5banks busy for write cycles: 6220143
6banks busy for read cycles: 4814037
6banks busy for write cycles: 9621575
7banks busy for read cycles: 1075467
7banks busy for write cycles: 30379331
8banks busy for read cycles: 149119
8banks busy for write cycles: 72668060

CPU 0 Branch Prediction Accuracy: 94.7162% MPKI: 13.0983 Average ROB Occupancy at Mispredict: 23.3137
Branch types
NOT_BRANCH: 150420415 75.2102%
BRANCH_DIRECT_JUMP: 4520858 2.26043%
BRANCH_INDIRECT: 0 0%
BRANCH_CONDITIONAL: 32496415 16.2482%
BRANCH_DIRECT_CALL: 6072091 3.03605%
BRANCH_INDIRECT_CALL: 208878 0.104439%
BRANCH_RETURN: 6280967 3.14048%
BRANCH_OTHER: 0 0%

DRAM PAGES: 1048576
Allocated PAGES: 167265
