
*** ChampSim Multicore Out-of-Order Simulator ***

Warmup Instructions: 50000000
Simulation Instructions: 200000000
Number of CPUs: 1
LLC sets: 2048
LLC ways: 16
L0D sets: 16
L0D ways: 2
ROB size: 352
LQ size: 128
SQ size: 72
Secure Berti: OFF
Berti: OFF
Berti Fill: OFF
On commit prefetching: ON
Hit-based filter: ON
Time-guarding: ON
Free-slotting: ON
Leap-frogging: ON
Train prefetcher on L0D bypass: OFF
No translation penalty for prefetchers: OFF
Prefetch to L0D only: OFF
Prefetch to L1D only: OFF
Clean evictions: ON
Commit loads: ON
Commit write: ON
Fill commit loads to L2C, LLC: ON
DRAM IO FREQUENCY: 6400
ROB SIZE: 352
Off-chip DRAM Size: 4096 MB Channels: 1 Width: 64-bit Data Rate: 6400 MT/s
CPU 0 runs /home/sumon/secure_berti/GhostMinion/../../traces/spec/605.mcf_s-472B.champsimtrace.xz
.xz
BTB has LRU replacement policy
ITLB has LRU replacement policy
DTLB has LRU replacement policy
STLB has LRU replacement policy
L1I has LRU replacement policy
L0D has LRU replacement policy
IP Table Entries: 1024
CSPT Entries: 128
RR_ENTRIES: 32
RST_ENTRIES: 8
L1D has LRU replacement policy
L2C has LRU replacement policy
LLC has LRU replacement policy
Heartbeat CPU 0 instructions: 10000001 cycles: 5541595 heartbeat IPC: 1.80453 cumulative IPC: 1.80453 (Simulation time: 0 hr 2 min 0 sec) 
Heartbeat CPU 0 instructions: 20000001 cycles: 10832059 heartbeat IPC: 1.89019 cumulative IPC: 1.84637 (Simulation time: 0 hr 4 min 12 sec) 
Heartbeat CPU 0 instructions: 30000002 cycles: 16013965 heartbeat IPC: 1.92979 cumulative IPC: 1.87337 (Simulation time: 0 hr 5 min 47 sec) 
Heartbeat CPU 0 instructions: 40000001 cycles: 21584652 heartbeat IPC: 1.79511 cumulative IPC: 1.85317 (Simulation time: 0 hr 7 min 8 sec) 
Heartbeat CPU 0 instructions: 50000001 cycles: 27053734 heartbeat IPC: 1.82846 cumulative IPC: 1.84817 (Simulation time: 0 hr 8 min 31 sec) 

Warmup complete CPU 0 instructions: 50000001 cycles: 27053734 (Simulation time: 0 hr 8 min 31 sec) 

Heartbeat CPU 0 instructions: 60000001 cycles: 62356047 heartbeat IPC: 0.283268 cumulative IPC: 0.283268 (Simulation time: 0 hr 9 min 55 sec) 
Heartbeat CPU 0 instructions: 70000003 cycles: 94445042 heartbeat IPC: 0.311633 cumulative IPC: 0.296774 (Simulation time: 0 hr 11 min 13 sec) 
Heartbeat CPU 0 instructions: 80000003 cycles: 139614818 heartbeat IPC: 0.221387 cumulative IPC: 0.266522 (Simulation time: 0 hr 12 min 45 sec) 
Heartbeat CPU 0 instructions: 90000000 cycles: 171868191 heartbeat IPC: 0.310045 cumulative IPC: 0.276216 (Simulation time: 0 hr 14 min 2 sec) 
Heartbeat CPU 0 instructions: 100000002 cycles: 212827505 heartbeat IPC: 0.244145 cumulative IPC: 0.269145 (Simulation time: 0 hr 15 min 28 sec) 
Heartbeat CPU 0 instructions: 110000000 cycles: 242149694 heartbeat IPC: 0.341039 cumulative IPC: 0.278945 (Simulation time: 0 hr 16 min 40 sec) 
Heartbeat CPU 0 instructions: 120000002 cycles: 278046840 heartbeat IPC: 0.278574 cumulative IPC: 0.278892 (Simulation time: 0 hr 17 min 50 sec) 
Heartbeat CPU 0 instructions: 130000002 cycles: 316701739 heartbeat IPC: 0.258699 cumulative IPC: 0.276197 (Simulation time: 0 hr 19 min 0 sec) 
Heartbeat CPU 0 instructions: 140000003 cycles: 356838343 heartbeat IPC: 0.249149 cumulative IPC: 0.272905 (Simulation time: 0 hr 20 min 8 sec) 
Heartbeat CPU 0 instructions: 150000002 cycles: 397572959 heartbeat IPC: 0.245491 cumulative IPC: 0.269892 (Simulation time: 0 hr 21 min 16 sec) 
Heartbeat CPU 0 instructions: 160000002 cycles: 432342788 heartbeat IPC: 0.287606 cumulative IPC: 0.271411 (Simulation time: 0 hr 22 min 17 sec) 
Heartbeat CPU 0 instructions: 170000001 cycles: 464209925 heartbeat IPC: 0.313803 cumulative IPC: 0.274501 (Simulation time: 0 hr 23 min 15 sec) 
Heartbeat CPU 0 instructions: 180000002 cycles: 494316637 heartbeat IPC: 0.332152 cumulative IPC: 0.278216 (Simulation time: 0 hr 24 min 13 sec) 
Heartbeat CPU 0 instructions: 190000001 cycles: 542505863 heartbeat IPC: 0.207515 cumulative IPC: 0.271606 (Simulation time: 0 hr 25 min 26 sec) 
Heartbeat CPU 0 instructions: 200000002 cycles: 578465516 heartbeat IPC: 0.278089 cumulative IPC: 0.272029 (Simulation time: 0 hr 26 min 27 sec) 
Heartbeat CPU 0 instructions: 210000003 cycles: 610776861 heartbeat IPC: 0.309489 cumulative IPC: 0.274103 (Simulation time: 0 hr 27 min 24 sec) 
Heartbeat CPU 0 instructions: 220000000 cycles: 649913555 heartbeat IPC: 0.255515 cumulative IPC: 0.272935 (Simulation time: 0 hr 28 min 27 sec) 
Heartbeat CPU 0 instructions: 230000002 cycles: 686878933 heartbeat IPC: 0.270523 cumulative IPC: 0.2728 (Simulation time: 0 hr 29 min 27 sec) 
Heartbeat CPU 0 instructions: 240000002 cycles: 737455173 heartbeat IPC: 0.197721 cumulative IPC: 0.267454 (Simulation time: 0 hr 30 min 37 sec) 
Heartbeat CPU 0 instructions: 250000000 cycles: 803454796 heartbeat IPC: 0.151516 cumulative IPC: 0.257599 (Simulation time: 0 hr 31 min 53 sec) 
Finished CPU 0 instructions: 200000000 cycles: 776401064 cumulative IPC: 0.257599 (Simulation time: 0 hr 31 min 53 sec) 
 Instruction ID: 250000382

ChampSim completed all CPUs

Region of Interest Statistics

CPU 0 cumulative IPC: 0.257599 instructions: 200000000 cycles: 776401064
ITLB SPEC fills:          0  NON-SPEC fills:          0
ITLB Test counter :          0
ITLB Leapfrog:          0
ITLB MSHR merge:          0
ITLB TOTAL     ACCESS:   35797440  HIT:   35797440  MISS:          0  HIT %:        100  MISS %:          0   MPKI: 0
ITLB LOAD TRANSLATION NON_SPEC    ACCESS:   35797440  HIT:   35797440  MISS:          0  HIT %:        100  MISS %:          0   MPKI: 0
ITLB PREFETCH  REQUESTED:          0  ISSUED:          0  USEFUL:          0  USELESS:          0
ITLB USEFUL LOAD PREFETCHES:          0 PREFETCH ISSUED TO LOWER LEVEL:          0  ACCURACY: -nan
ITLB TIMELY PREFETCHES:          0 LATE PREFETCHES: 0 DROPPED PREFETCHES: 0
ITLB COMMIT LATE PREFETCHES: 0 MISSED OPPORTUNITY: 0 LATE IN PQ: 0 UNCOVERED: 0
ITLB COMMIT LATE MSHR PREFETCHES: 0
ITLB MPKI TOTAL: 0 MSHR LATE: 0 PQ LATE: 0 COMMIT LATE: 0 MISSED OPPORTUNITY: 0 UNCOVERED: 0
ITLB PREFETCHES SAME FILL-ORIGIN LEVEL: 0 DIFFERENT FILL-ORIGIN LEVEL: 0
ITLB AVERAGE MISS LATENCY: -nan cycles
ITLB AVERAGE MISS LATENCY LOAD: -nan cycles
ITLB AVERAGE MISS LATENCY PREFETCH: -nan cycles
ITLB AVERAGE MSHR OCCUPANCY: 0
ITLB MSHR FULL: 0
ITLB RQ	ACCESS:   45546851	FORWARD:          0	MERGED:    9749412	TO_CACHE:   35797439

DTLB SPEC fills:          0  NON-SPEC fills:          0
DTLB Test counter :          0
DTLB Leapfrog:          0
DTLB MSHR merge:          0
DTLB TOTAL     ACCESS:   56852265  HIT:   56136860  MISS:     715405  HIT %:    98.7416  MISS %:    1.25836   MPKI: 3.57702
DTLB LOAD TRANSLATION NON_SPEC    ACCESS:   56852265  HIT:   56136860  MISS:     715405  HIT %:    98.7416  MISS %:    1.25836   MPKI: 3.57702
DTLB PREFETCH  REQUESTED:          0  ISSUED:          0  USEFUL:          0  USELESS:          0
DTLB USEFUL LOAD PREFETCHES:          0 PREFETCH ISSUED TO LOWER LEVEL:          0  ACCURACY: -nan
DTLB TIMELY PREFETCHES:          0 LATE PREFETCHES: 0 DROPPED PREFETCHES: 0
DTLB COMMIT LATE PREFETCHES: 0 MISSED OPPORTUNITY: 0 LATE IN PQ: 0 UNCOVERED: 0
DTLB COMMIT LATE MSHR PREFETCHES: 0
DTLB MPKI TOTAL: 0 MSHR LATE: 0 PQ LATE: 0 COMMIT LATE: 0 MISSED OPPORTUNITY: 0 UNCOVERED: 0
DTLB PREFETCHES SAME FILL-ORIGIN LEVEL: 0 DIFFERENT FILL-ORIGIN LEVEL: 0
DTLB AVERAGE MISS LATENCY: 57.0517 cycles
DTLB AVERAGE MISS LATENCY LOAD: -nan cycles
DTLB AVERAGE MISS LATENCY PREFETCH: -nan cycles
DTLB AVERAGE MSHR OCCUPANCY: 0.0339686
DTLB MSHR FULL: 0
DTLB RQ	ACCESS:   92177084	FORWARD:          0	MERGED:   35035118	TO_CACHE:   57141966

STLB SPEC fills:          0  NON-SPEC fills:          0
STLB Test counter :          0
STLB Leapfrog:          0
STLB MSHR merge:          0
STLB TOTAL     ACCESS:   18104485  HIT:   17845416  MISS:     259069  HIT %:     98.569  MISS %:    1.43097   MPKI: 1.29534
STLB LOAD TRANSLATION NON_SPEC    ACCESS:     715405  HIT:     456373  MISS:     259032  HIT %:    63.7923  MISS %:    36.2077   MPKI: 1.29516
STLB TRANSLATION FROM L1D PREFETCHER NON_SPEC    ACCESS:   17389080  HIT:   17389043  MISS:         37  HIT %:    99.9998  MISS %: 0.000212777   MPKI: 0.000185
STLB PREFETCH  REQUESTED:          0  ISSUED:          0  USEFUL:         35  USELESS:          2
STLB USEFUL LOAD PREFETCHES:         35 PREFETCH ISSUED TO LOWER LEVEL:          0  ACCURACY: inf
STLB TIMELY PREFETCHES:         35 LATE PREFETCHES: 0 DROPPED PREFETCHES: 0
STLB COMMIT LATE PREFETCHES: 0 MISSED OPPORTUNITY: 0 LATE IN PQ: 0 UNCOVERED: 0
STLB COMMIT LATE MSHR PREFETCHES: 0
STLB MPKI TOTAL: 0 MSHR LATE: 0 PQ LATE: 0 COMMIT LATE: 0 MISSED OPPORTUNITY: 0 UNCOVERED: 0
STLB PREFETCHES SAME FILL-ORIGIN LEVEL: 0 DIFFERENT FILL-ORIGIN LEVEL: 0
STLB AVERAGE MISS LATENCY: 132.697 cycles
STLB AVERAGE MISS LATENCY LOAD: -nan cycles
STLB AVERAGE MISS LATENCY PREFETCH: -nan cycles
STLB AVERAGE MSHR OCCUPANCY: 0.0208241
STLB MSHR FULL: 0
STLB RQ	ACCESS:   37948217	FORWARD:          0	MERGED:   19843732	TO_CACHE:   18104485

STLB Hit, L1D data hit: 0
STLB Hit, L2C data hit: 0
STLB Hit, LLC data hit: 0
STLB Hit, LLC data miss: 0
STLB STLB hints to L2: 0
L0D SPEC fills:   29419620  NON-SPEC fills:          0
L0D TimeGuard Request with older TS:     654416 Restricted eviction:     160964 read:    1121656
L0D Test counter :          0
L0D Leapfrog:          0
L0D MSHR merge:    2804330
L0D TOTAL     ACCESS:   43124345  HIT:    6595269  MISS:   36529076  HIT %:    15.2936  MISS %:    84.7064   MPKI: 182.645
L0D LOAD      TOTAL       ACCESS:   43124345  HIT:    6595269  MISS:   36529076  HIT %:    15.2936  MISS %:    84.7064   MPKI: 182.645
L0D LOAD      NON_SPEC    ACCESS:    7459536  HIT:     511043  MISS:    6948493  HIT %:    6.85087  MISS %:    93.1491   MPKI: 34.7425
L0D LOAD      SPEC        ACCESS:   35664809  HIT:    6084226  MISS:   29580583  HIT %:    17.0595  MISS %:    82.9405   MPKI: 147.903
L0D PREFETCH  REQUESTED:          0  ISSUED:          0  USEFUL:          0  USELESS:          0
L0D USEFUL LOAD PREFETCHES:          0 PREFETCH ISSUED TO LOWER LEVEL:          0  ACCURACY: -nan
L0D TIMELY PREFETCHES:          0 LATE PREFETCHES: 0 DROPPED PREFETCHES: 0
L0D COMMIT LATE PREFETCHES: 0 MISSED OPPORTUNITY: 0 LATE IN PQ: 0 UNCOVERED: 0
L0D COMMIT LATE MSHR PREFETCHES: 0
L0D MPKI TOTAL: 196.667 MSHR LATE: 0 PQ LATE: 0 COMMIT LATE: 0 MISSED OPPORTUNITY: 0 UNCOVERED: 0
L0D PREFETCHES SAME FILL-ORIGIN LEVEL: 0 DIFFERENT FILL-ORIGIN LEVEL: 0
L0D AVERAGE MISS LATENCY: 58.4206 cycles
L0D AVERAGE MISS LATENCY LOAD: 58.4206 cycles
L0D AVERAGE MISS LATENCY PREFETCH: -nan cycles
L0D AVERAGE MSHR OCCUPANCY: 4.65498
L0D MSHR FULL: 0.427017
L0D RQ	ACCESS:   66812286	FORWARD:          0	MERGED:   20883620	TO_CACHE:   45928666
L0D WQ	ACCESS:   46248418	FORWARD:          0	MERGED:          0	TO_CACHE:   46248418

L1D SPEC fills:          0  NON-SPEC fills:     930433
L1D Test counter :    7587934
L1D Leapfrog:          0
L1D MSHR merge:    1545812
L1D TOTAL     ACCESS:  126090453  HIT:   99621050  MISS:   26469403  HIT %:    79.0076  MISS %:    20.9924   MPKI: 132.347
L1D LOAD      TOTAL       ACCESS:   36524554  HIT:   27553840  MISS:    8970714  HIT %:    75.4392  MISS %:    24.5608   MPKI: 44.8536
L1D LOAD      NON_SPEC    ACCESS:    6946411  HIT:    6015978  MISS:     930433  HIT %:    86.6056  MISS %:    13.3944   MPKI: 4.65217
L1D LOAD      SPEC        ACCESS:   29578143  HIT:   21537862  MISS:    8040281  HIT %:    72.8168  MISS %:    27.1832   MPKI: 40.2014
L1D RFO       NON_SPEC    ACCESS:   45202689  HIT:   45080965  MISS:     121724  HIT %:    99.7307  MISS %:   0.269285   MPKI: 0.60862
L1D PREFETCH  NON_SPEC    ACCESS:   33874262  HIT:   23997026  MISS:    9877236  HIT %:    70.8415  MISS %:    29.1585   MPKI: 49.3862
L1D COMMIT LOAD NON_SPEC    ACCESS:    2653252  HIT:    2482824  MISS:     170428  HIT %:    93.5766  MISS %:    6.42336   MPKI: 0.85214
L1D COMMIT WRITE NON_SPEC    ACCESS:    7835696  HIT:     506395  MISS:    7329301  HIT %:    6.46267  MISS %:    93.5373   MPKI: 36.6465
L1D PREFETCH  REQUESTED:   37354622  ISSUED:   37232812  USEFUL:    1660839  USELESS:    8216486
L1D USEFUL LOAD PREFETCHES:    1660839 PREFETCH ISSUED TO LOWER LEVEL:   11477242  ACCURACY: 14.4707
L1D TIMELY PREFETCHES:    1660839 LATE PREFETCHES: 1574569 DROPPED PREFETCHES: 0
L1D COMMIT LATE PREFETCHES: 0 MISSED OPPORTUNITY: 0 LATE IN PQ: 0 UNCOVERED: 0
L1D COMMIT LATE MSHR PREFETCHES: 0
L1D MPKI TOTAL: 44.8762 MSHR LATE: 7.87284 PQ LATE: 0 COMMIT LATE: 0 MISSED OPPORTUNITY: 0 UNCOVERED: 0
L1D PREFETCHES SAME FILL-ORIGIN LEVEL: 11477242 DIFFERENT FILL-ORIGIN LEVEL: 0
L1D AVERAGE MISS LATENCY: 153.952 cycles
L1D AVERAGE MISS LATENCY LOAD: 205.931 cycles
L1D AVERAGE MISS LATENCY PREFETCH: 221.606 cycles
L1D AVERAGE MSHR OCCUPANCY: 5.40377
L1D MSHR FULL: 0.122766
L1D RQ	ACCESS:   39314646	FORWARD:          0	MERGED:     114238	TO_CACHE:   39195137
L1D WQ	ACCESS:   54084115	FORWARD:       5271	MERGED:     804026	TO_CACHE:   53280089
L1D PQ	ACCESS:   37232812	FORWARD:          0	MERGED:          0	TO_CACHE:   37232812

L1D UNIQUE REGIONS ACCESSED: 0
L1D REGIONS CONFLICTS: 0
L1D Cross Page Prefetch Requests: 0
L1D Same Page Prefetch Requests: 46982808
L1D ROI Sum of L1D PQ occupancy: 518790385
L1D PREFETCHES PUSHED FROM L2C: 0
L1I SPEC fills:          0  NON-SPEC fills:          0
L1I Test counter :          0
L1I Leapfrog:          0
L1I MSHR merge:          0
L1I TOTAL     ACCESS:   45546851  HIT:   45546845  MISS:          6  HIT %:        100  MISS %: 1.31732e-05   MPKI: 3e-05
L1I LOAD      TOTAL       ACCESS:   45546851  HIT:   45546845  MISS:          6  HIT %:        100  MISS %: 1.31732e-05   MPKI: 3e-05
L1I LOAD      NON_SPEC    ACCESS:   45546851  HIT:   45546845  MISS:          6  HIT %:        100  MISS %: 1.31732e-05   MPKI: 3e-05
L1I PREFETCH  REQUESTED:          0  ISSUED:          0  USEFUL:          0  USELESS:          0
L1I USEFUL LOAD PREFETCHES:          0 PREFETCH ISSUED TO LOWER LEVEL:          0  ACCURACY: -nan
L1I TIMELY PREFETCHES:          0 LATE PREFETCHES: 0 DROPPED PREFETCHES: 0
L1I COMMIT LATE PREFETCHES: 0 MISSED OPPORTUNITY: 0 LATE IN PQ: 0 UNCOVERED: 0
L1I COMMIT LATE MSHR PREFETCHES: 0
L1I MPKI TOTAL: 3e-05 MSHR LATE: 0 PQ LATE: 0 COMMIT LATE: 0 MISSED OPPORTUNITY: 0 UNCOVERED: 0
L1I PREFETCHES SAME FILL-ORIGIN LEVEL: 0 DIFFERENT FILL-ORIGIN LEVEL: 0
L1I AVERAGE MISS LATENCY: 232.333 cycles
L1I AVERAGE MISS LATENCY LOAD: 232.333 cycles
L1I AVERAGE MISS LATENCY PREFETCH: -nan cycles
L1I AVERAGE MSHR OCCUPANCY: 4.39108e-08
L1I MSHR FULL: 0
L1I RQ	ACCESS:   61435668	FORWARD:          0	MERGED:   15888817	TO_CACHE:   45546851

BTB SPEC fills:          0  NON-SPEC fills:          0
BTB Test counter :          0
BTB Leapfrog:          0
BTB MSHR merge:          0
BTB TOTAL     ACCESS:   25427294  HIT:   25427255  MISS:         39  HIT %:    99.9998  MISS %: 0.000153378   MPKI: 0.000195
BTB BRANCH_DIRECT_JUMP	ACCESS:    2120382  HIT:    2120376  MISS:          6
BTB BRANCH_INDIRECT	ACCESS:          0  HIT:          0  MISS:          0
BTB BRANCH_CONDITIONAL	ACCESS:   23306431  HIT:   23306403  MISS:         28
BTB BRANCH_DIRECT_CALL	ACCESS:        241  HIT:        238  MISS:          3
BTB BRANCH_INDIRECT_CALL	ACCESS:          0  HIT:          0  MISS:          0
BTB BRANCH_RETURN	ACCESS:        240  HIT:        238  MISS:          2
BTB BRANCH_OTHER ACCESS:          0  HIT:          0  MISS:          0

L2C SPEC fills:          0  NON-SPEC fills:     425744
L2C Test counter :    7451126
L2C Leapfrog:          0
L2C MSHR merge:          0
L2C TOTAL     ACCESS:   28830318  HIT:    7764148  MISS:   21066170  HIT %:    26.9305  MISS %:    73.0695   MPKI: 105.331
L2C LOAD      TOTAL       ACCESS:    7427140  HIT:     418201  MISS:    7008939  HIT %:    5.63071  MISS %:    94.3693   MPKI: 35.0447
L2C LOAD      NON_SPEC    ACCESS:     536784  HIT:     111034  MISS:     425750  HIT %:     20.685  MISS %:     79.315   MPKI: 2.12875
L2C LOAD      SPEC        ACCESS:    6890356  HIT:     307167  MISS:    6583189  HIT %:    4.45793  MISS %:    95.5421   MPKI: 32.9159
L2C RFO       NON_SPEC    ACCESS:      96184  HIT:      31567  MISS:      64617  HIT %:    32.8194  MISS %:    67.1806   MPKI: 0.323085
L2C PREFETCH  NON_SPEC    ACCESS:   11476701  HIT:    1780903  MISS:    9695798  HIT %:    15.5176  MISS %:    84.4824   MPKI: 48.479
L2C WRITEBACK NON_SPEC    ACCESS:     810001  HIT:     806957  MISS:       3044  HIT %:    99.6242  MISS %:   0.375802   MPKI: 0.01522
L2C CLEAN_EVICTION NON_SPEC    ACCESS:    7587933  HIT:    3412368  MISS:    4175565  HIT %:     44.971  MISS %:     55.029   MPKI: 20.8778
L2C COMMIT LOAD NON_SPEC    ACCESS:     137150  HIT:      58075  MISS:      79075  HIT %:    42.3441  MISS %:    57.6559   MPKI: 0.395375
L2C LOAD TRANSLATION NON_SPEC    ACCESS:    1295024  HIT:    1255929  MISS:      39095  HIT %:    96.9811  MISS %:    3.01886   MPKI: 0.195475
L2C TRANSLATION FROM L1D PREFETCHER NON_SPEC    ACCESS:        185  HIT:        148  MISS:         37  HIT %:         80  MISS %:         20   MPKI: 0.000185
L2C PREFETCH  REQUESTED:          0  ISSUED:          0  USEFUL:     206715  USELESS:    9490432
L2C USEFUL LOAD PREFETCHES:     206715 PREFETCH ISSUED TO LOWER LEVEL:    9695797  ACCURACY: 2.13201
L2C TIMELY PREFETCHES:     206715 LATE PREFETCHES: 0 DROPPED PREFETCHES: 0
L2C COMMIT LATE PREFETCHES: 0 MISSED OPPORTUNITY: 0 LATE IN PQ: 0 UNCOVERED: 0
L2C COMMIT LATE MSHR PREFETCHES: 0
L2C MPKI TOTAL: 35.0447 MSHR LATE: 0 PQ LATE: 0 COMMIT LATE: 0 MISSED OPPORTUNITY: 0 UNCOVERED: 0
L2C PREFETCHES SAME FILL-ORIGIN LEVEL: 0 DIFFERENT FILL-ORIGIN LEVEL: 0
L2C AVERAGE MISS LATENCY: 188.87 cycles
L2C AVERAGE MISS LATENCY LOAD: 203.351 cycles
L2C AVERAGE MISS LATENCY PREFETCH: 258.426 cycles
L2C AVERAGE MSHR OCCUPANCY: 6.15894
L2C MSHR FULL: 0
L2C RQ	ACCESS:    8958071	FORWARD:          0	MERGED:          0	TO_CACHE:    8955682
L2C WQ	ACCESS:    8397935	FORWARD:       2932	MERGED:          1	TO_CACHE:    8397934
L2C PQ	ACCESS:   11477242	FORWARD:          0	MERGED:          0	TO_CACHE:   11476699

L2C Instructions Evicting Data 6
L2C Translations Evicting Data 39084
L2C Data Evicting Data 10237489
L2C Instructions Evicting Instructions 0
L2C Translations Evicting Instructions 0
L2C Data Evicting Instructions 5
L2C Instructions Evicting Translations 0
L2C Translations Evicting Translations 48
L2C Data Evicting Translations 27740
L2C Dense regions hint from L2: 0
PSCL5 SPEC fills:          0  NON-SPEC fills:          0
PSCL5 Test counter :          0
PSCL5 Leapfrog:          0
PSCL5 MSHR merge:          0
PSCL5 TOTAL     ACCESS:          0  HIT:          0  MISS:          0  HIT %:       -nan  MISS %:       -nan   MPKI: 0
PSCL5 PREFETCH  REQUESTED:          0  ISSUED:          0  USEFUL:          0  USELESS:          0
PSCL5 USEFUL LOAD PREFETCHES:          0 PREFETCH ISSUED TO LOWER LEVEL:          0  ACCURACY: -nan
PSCL5 TIMELY PREFETCHES:          0 LATE PREFETCHES: 0 DROPPED PREFETCHES: 0
PSCL5 COMMIT LATE PREFETCHES: 0 MISSED OPPORTUNITY: 0 LATE IN PQ: 0 UNCOVERED: 0
PSCL5 COMMIT LATE MSHR PREFETCHES: 0
PSCL5 MPKI TOTAL: 0 MSHR LATE: 0 PQ LATE: 0 COMMIT LATE: 0 MISSED OPPORTUNITY: 0 UNCOVERED: 0
PSCL5 PREFETCHES SAME FILL-ORIGIN LEVEL: 0 DIFFERENT FILL-ORIGIN LEVEL: 0

PSCL4 SPEC fills:          0  NON-SPEC fills:          0
PSCL4 Test counter :          0
PSCL4 Leapfrog:          0
PSCL4 MSHR merge:          0
PSCL4 TOTAL     ACCESS:          0  HIT:          0  MISS:          0  HIT %:       -nan  MISS %:       -nan   MPKI: 0
PSCL4 PREFETCH  REQUESTED:          0  ISSUED:          0  USEFUL:          0  USELESS:          0
PSCL4 USEFUL LOAD PREFETCHES:          0 PREFETCH ISSUED TO LOWER LEVEL:          0  ACCURACY: -nan
PSCL4 TIMELY PREFETCHES:          0 LATE PREFETCHES: 0 DROPPED PREFETCHES: 0
PSCL4 COMMIT LATE PREFETCHES: 0 MISSED OPPORTUNITY: 0 LATE IN PQ: 0 UNCOVERED: 0
PSCL4 COMMIT LATE MSHR PREFETCHES: 0
PSCL4 MPKI TOTAL: 0 MSHR LATE: 0 PQ LATE: 0 COMMIT LATE: 0 MISSED OPPORTUNITY: 0 UNCOVERED: 0
PSCL4 PREFETCHES SAME FILL-ORIGIN LEVEL: 0 DIFFERENT FILL-ORIGIN LEVEL: 0

PSCL3 SPEC fills:          0  NON-SPEC fills:          0
PSCL3 Test counter :          0
PSCL3 Leapfrog:          0
PSCL3 MSHR merge:          0
PSCL3 TOTAL     ACCESS:          0  HIT:          0  MISS:          0  HIT %:       -nan  MISS %:       -nan   MPKI: 0
PSCL3 PREFETCH  REQUESTED:          0  ISSUED:          0  USEFUL:          0  USELESS:          0
PSCL3 USEFUL LOAD PREFETCHES:          0 PREFETCH ISSUED TO LOWER LEVEL:          0  ACCURACY: -nan
PSCL3 TIMELY PREFETCHES:          0 LATE PREFETCHES: 0 DROPPED PREFETCHES: 0
PSCL3 COMMIT LATE PREFETCHES: 0 MISSED OPPORTUNITY: 0 LATE IN PQ: 0 UNCOVERED: 0
PSCL3 COMMIT LATE MSHR PREFETCHES: 0
PSCL3 MPKI TOTAL: 0 MSHR LATE: 0 PQ LATE: 0 COMMIT LATE: 0 MISSED OPPORTUNITY: 0 UNCOVERED: 0
PSCL3 PREFETCHES SAME FILL-ORIGIN LEVEL: 0 DIFFERENT FILL-ORIGIN LEVEL: 0

PSCL2 SPEC fills:          0  NON-SPEC fills:          0
PSCL2 Test counter :          0
PSCL2 Leapfrog:          0
PSCL2 MSHR merge:          0
PSCL2 TOTAL     ACCESS:          0  HIT:          0  MISS:          0  HIT %:       -nan  MISS %:       -nan   MPKI: 0
PSCL2 PREFETCH  REQUESTED:          0  ISSUED:          0  USEFUL:          0  USELESS:          0
PSCL2 USEFUL LOAD PREFETCHES:          0 PREFETCH ISSUED TO LOWER LEVEL:          0  ACCURACY: -nan
PSCL2 TIMELY PREFETCHES:          0 LATE PREFETCHES: 0 DROPPED PREFETCHES: 0
PSCL2 COMMIT LATE PREFETCHES: 0 MISSED OPPORTUNITY: 0 LATE IN PQ: 0 UNCOVERED: 0
PSCL2 COMMIT LATE MSHR PREFETCHES: 0
PSCL2 MPKI TOTAL: 0 MSHR LATE: 0 PQ LATE: 0 COMMIT LATE: 0 MISSED OPPORTUNITY: 0 UNCOVERED: 0
PSCL2 PREFETCHES SAME FILL-ORIGIN LEVEL: 0 DIFFERENT FILL-ORIGIN LEVEL: 0

LLC SPEC fills:          0  NON-SPEC fills:     420861
LLC Test counter :    7433870
LLC Leapfrog:          0
LLC MSHR merge:          0
LLC TOTAL     ACCESS:   25037391  HIT:    4095204  MISS:   20942187  HIT %:    16.3564  MISS %:    83.6436   MPKI: 104.711
LLC LOAD      TOTAL       ACCESS:    7008935  HIT:      14346  MISS:    6994589  HIT %:   0.204682  MISS %:    99.7953   MPKI: 34.9729
LLC LOAD      NON_SPEC    ACCESS:     425749  HIT:       4882  MISS:     420867  HIT %:    1.14669  MISS %:    98.8533   MPKI: 2.10433
LLC LOAD      SPEC        ACCESS:    6583186  HIT:       9464  MISS:    6573722  HIT %:    0.14376  MISS %:    99.8562   MPKI: 32.8686
LLC RFO       NON_SPEC    ACCESS:      64617  HIT:       1463  MISS:      63154  HIT %:    2.26411  MISS %:    97.7359   MPKI: 0.31577
LLC PREFETCH  NON_SPEC    ACCESS:    9695797  HIT:     100573  MISS:    9595224  HIT %:    1.03728  MISS %:    98.9627   MPKI: 47.9761
LLC WRITEBACK NON_SPEC    ACCESS:     698708  HIT:     693284  MISS:       5424  HIT %:    99.2237  MISS %:    0.77629   MPKI: 0.02712
LLC CLEAN_EVICTION NON_SPEC    ACCESS:    7451127  HIT:    3283353  MISS:    4167774  HIT %:    44.0652  MISS %:    55.9348   MPKI: 20.8389
LLC COMMIT LOAD NON_SPEC    ACCESS:      79075  HIT:         52  MISS:      79023  HIT %:  0.0657604  MISS %:    99.9342   MPKI: 0.395115
LLC LOAD TRANSLATION NON_SPEC    ACCESS:      39095  HIT:       2133  MISS:      36962  HIT %:    5.45594  MISS %:    94.5441   MPKI: 0.18481
LLC TRANSLATION FROM L1D PREFETCHER NON_SPEC    ACCESS:         37  HIT:          0  MISS:         37  HIT %:          0  MISS %:        100   MPKI: 0.000185
LLC PREFETCH  REQUESTED:          0  ISSUED:          0  USEFUL:       8494  USELESS:    9591191
LLC USEFUL LOAD PREFETCHES:       8494 PREFETCH ISSUED TO LOWER LEVEL:    9595224  ACCURACY: 0.0885232
LLC TIMELY PREFETCHES:       8494 LATE PREFETCHES: 0 DROPPED PREFETCHES: 0
LLC COMMIT LATE PREFETCHES: 0 MISSED OPPORTUNITY: 0 LATE IN PQ: 0 UNCOVERED: 0
LLC COMMIT LATE MSHR PREFETCHES: 0
LLC MPKI TOTAL: 34.9729 MSHR LATE: 0 PQ LATE: 0 COMMIT LATE: 0 MISSED OPPORTUNITY: 0 UNCOVERED: 0
LLC PREFETCHES SAME FILL-ORIGIN LEVEL: 0 DIFFERENT FILL-ORIGIN LEVEL: 0
LLC AVERAGE MISS LATENCY: 168.413 cycles
LLC AVERAGE MISS LATENCY LOAD: 181.91 cycles
LLC AVERAGE MISS LATENCY PREFETCH: 230.554 cycles
LLC AVERAGE MSHR OCCUPANCY: 5.41
LLC MSHR FULL: 0
LLC RQ	ACCESS:    7191762	FORWARD:          0	MERGED:          0	TO_CACHE:    7191758
LLC WQ	ACCESS:    8149834	FORWARD:          5	MERGED:          0	TO_CACHE:    8149834
LLC PQ	ACCESS:    9695797	FORWARD:          0	MERGED:          0	TO_CACHE:    9695796

LLC Dense regions hint to LLC: 0

RAW hits: 2406173
Loads Generated: 69218459
Loads sent to L1D: 66812286
Stores Generated: 46248414
Stores sent to L1D: 46248418
Major fault: 0 Minor fault: 63874
Allocated PAGES: 63874
Total Load insts: 83610254
Total Non-spec loads: 10123114
Percentage of speculative loads: 87.8925

LeapFrogging counter: 18045254
Commit hits: 28850002 miss: 29346671
Commit hit %: 49.5733 miss %: 50.4267
Commits not translated: 0
Loads retired: 8970703
Stores retired: 46248418
Cache fills: 8970714
L1D response latency: 205.931 cycles
Load retirement latency: 442.797 cycles
OOO test counter: 0
Discarded buffer inserts: 28850002 hits: 27542 hit %: 0.0954662

stream: 
stream:times selected: 102060135
stream:pref_filled: 5376528
stream:pref_useful: 375803
stream:pref_late: 75854
stream:misses: 739158
stream:misses_by_poll: 0

CS: 
CS:times selected: 6579909
CS:pref_filled: 1926305
CS:pref_useful: 1020567
CS:pref_late: 28786
CS:misses: 2772649
CS:misses_by_poll: 99970

CPLX: 
CPLX:times selected: 94848243
CPLX:pref_filled: 6111964
CPLX:pref_useful: 1163331
CPLX:pref_late: 325135
CPLX:misses: 8157930
CPLX:misses_by_poll: 312133

NL_L1: 
NL:times selected: 422573
NL:pref_filled: 28202
NL:pref_useful: 2584
NL:pref_late: 855
NL:misses: 98137
NL:misses_by_poll: 913

total selections: 203910860
total_filled: 9877236
total_useful: 1660839
total_late: 437738
total_polluted: 413016
total_misses_after_warmup: 10247938
conflicts: 508
Degree Incremented Times: 565291
Degree Decremented Times: 1627139

L1 IP Table Write Accesses: 115437637
L1 IP Table Read Accesses: 115437129
L1 RST Write Accesses: 81181954
L1 RST Read Accesses: 162363908
L1 CSPT Write Accesses: 81181954
L1 CSPT Read Accesses: 156272659
L1 RR Filter Tag Write Accesses: 37354622
L1 RR Filter Tag Read Accesses: 4011826393
L1 IP Table Tag Write Accesses: 115439082
L1 IP Table Tag Read Accesses: 115439082
L1 RST Tag Write Accesses: 0
L1 RST Tag Read Accesses: 812356116
L1 RR Filter Write Accesses: 0
L1 RR Filter Read Accesses: 141954364
test: 53309755

DRAM Statistics
 CHANNEL 0
 RQ ROW_BUFFER_HIT:    8791458  ROW_BUFFER_MISS:    7977497
 DBUS_CONGESTED:      10892
 WQ ROW_BUFFER_HIT:    1519762  ROW_BUFFER_MISS:    6610657  FULL:       3941

 AVG_CONGESTED_CYCLE: 5
 All warmup complete: 2
Channel 0 Bank busy for read cycles: 0
Channel 0 Bank busy for write cycles: 0
Channel 0
Rank 0
0banks busy for read cycles: 72171011
0banks busy for write cycles: 215155
1banks busy for read cycles: 82476356
1banks busy for write cycles: 25249312
2banks busy for read cycles: 77868103
2banks busy for write cycles: 18792987
3banks busy for read cycles: 68843322
3banks busy for write cycles: 16029033
4banks busy for read cycles: 60964284
4banks busy for write cycles: 13817082
5banks busy for read cycles: 55433399
5banks busy for write cycles: 12441604
6banks busy for read cycles: 50145004
6banks busy for write cycles: 12624402
7banks busy for read cycles: 37848212
7banks busy for write cycles: 25525364
8banks busy for read cycles: 21563783
8banks busy for write cycles: 124392652

CPU 0 Branch Prediction Accuracy: 99.1418% MPKI: 1.10599 Average ROB Occupancy at Mispredict: 204.57
Branch types
NOT_BRANCH: 174224605 87.1123%
BRANCH_DIRECT_JUMP: 2120382 1.06019%
BRANCH_INDIRECT: 0 0%
BRANCH_CONDITIONAL: 23654532 11.8273%
BRANCH_DIRECT_CALL: 241 0.0001205%
BRANCH_INDIRECT_CALL: 0 0%
BRANCH_RETURN: 240 0.00012%
BRANCH_OTHER: 0 0%

DRAM PAGES: 1048576
Allocated PAGES: 63874
