
*** ChampSim Multicore Out-of-Order Simulator ***

Warmup Instructions: 50000000
Simulation Instructions: 200000000
Number of CPUs: 1
LLC sets: 2048
LLC ways: 16
L0D sets: 16
L0D ways: 2
ROB size: 352
LQ size: 128
SQ size: 72
Secure Berti: OFF
Berti: OFF
Berti Fill: OFF
On commit prefetching: ON
Hit-based filter: ON
Time-guarding: ON
Free-slotting: ON
Leap-frogging: ON
Train prefetcher on L0D bypass: OFF
No translation penalty for prefetchers: OFF
Prefetch to L0D only: OFF
Prefetch to L1D only: OFF
Clean evictions: ON
Commit loads: ON
Commit write: ON
Fill commit loads to L2C, LLC: ON
DRAM IO FREQUENCY: 6400
ROB SIZE: 352
Off-chip DRAM Size: 4096 MB Channels: 1 Width: 64-bit Data Rate: 6400 MT/s
CPU 0 runs /home/sumon/secure_berti/GhostMinion/../../traces/spec/607.cactuBSSN_s-3477B.champsimtrace.xz
.xz
BTB has LRU replacement policy
ITLB has LRU replacement policy
DTLB has LRU replacement policy
STLB has LRU replacement policy
L1I has LRU replacement policy
L0D has LRU replacement policy
IP Table Entries: 1024
CSPT Entries: 128
RR_ENTRIES: 32
RST_ENTRIES: 8
L1D has LRU replacement policy
L2C has LRU replacement policy
LLC has LRU replacement policy
Heartbeat CPU 0 instructions: 10000000 cycles: 4506784 heartbeat IPC: 2.21888 cumulative IPC: 2.21888 (Simulation time: 0 hr 0 min 59 sec) 
Heartbeat CPU 0 instructions: 20000001 cycles: 9021998 heartbeat IPC: 2.21473 cumulative IPC: 2.2168 (Simulation time: 0 hr 2 min 2 sec) 
Heartbeat CPU 0 instructions: 30000000 cycles: 13528287 heartbeat IPC: 2.21912 cumulative IPC: 2.21758 (Simulation time: 0 hr 3 min 8 sec) 
Heartbeat CPU 0 instructions: 40000003 cycles: 18033427 heartbeat IPC: 2.21969 cumulative IPC: 2.2181 (Simulation time: 0 hr 4 min 16 sec) 
Heartbeat CPU 0 instructions: 50000002 cycles: 22552433 heartbeat IPC: 2.21288 cumulative IPC: 2.21706 (Simulation time: 0 hr 5 min 24 sec) 

Warmup complete CPU 0 instructions: 50000002 cycles: 22552433 (Simulation time: 0 hr 5 min 24 sec) 

Heartbeat CPU 0 instructions: 60000000 cycles: 39081026 heartbeat IPC: 0.605012 cumulative IPC: 0.605012 (Simulation time: 0 hr 6 min 23 sec) 
Heartbeat CPU 0 instructions: 70000002 cycles: 55600683 heartbeat IPC: 0.60534 cumulative IPC: 0.605176 (Simulation time: 0 hr 7 min 23 sec) 
Heartbeat CPU 0 instructions: 80000003 cycles: 72258278 heartbeat IPC: 0.600327 cumulative IPC: 0.603551 (Simulation time: 0 hr 8 min 23 sec) 
Heartbeat CPU 0 instructions: 90000002 cycles: 88720233 heartbeat IPC: 0.607461 cumulative IPC: 0.604524 (Simulation time: 0 hr 9 min 23 sec) 
Heartbeat CPU 0 instructions: 100000001 cycles: 105200643 heartbeat IPC: 0.606781 cumulative IPC: 0.604974 (Simulation time: 0 hr 10 min 23 sec) 
Heartbeat CPU 0 instructions: 110000000 cycles: 121686609 heartbeat IPC: 0.606576 cumulative IPC: 0.60524 (Simulation time: 0 hr 11 min 23 sec) 
Heartbeat CPU 0 instructions: 120000002 cycles: 138371751 heartbeat IPC: 0.599336 cumulative IPC: 0.60439 (Simulation time: 0 hr 12 min 22 sec) 
Heartbeat CPU 0 instructions: 130000000 cycles: 154897334 heartbeat IPC: 0.605122 cumulative IPC: 0.604481 (Simulation time: 0 hr 13 min 21 sec) 
Heartbeat CPU 0 instructions: 140000000 cycles: 171419685 heartbeat IPC: 0.605241 cumulative IPC: 0.604565 (Simulation time: 0 hr 14 min 19 sec) 
Heartbeat CPU 0 instructions: 150000001 cycles: 187818918 heartbeat IPC: 0.609785 cumulative IPC: 0.605083 (Simulation time: 0 hr 15 min 15 sec) 
Heartbeat CPU 0 instructions: 160000001 cycles: 204426360 heartbeat IPC: 0.60214 cumulative IPC: 0.604815 (Simulation time: 0 hr 16 min 12 sec) 
Heartbeat CPU 0 instructions: 170000000 cycles: 220864473 heartbeat IPC: 0.608342 cumulative IPC: 0.605107 (Simulation time: 0 hr 17 min 5 sec) 
Heartbeat CPU 0 instructions: 180000000 cycles: 237407188 heartbeat IPC: 0.604496 cumulative IPC: 0.60506 (Simulation time: 0 hr 17 min 54 sec) 
Heartbeat CPU 0 instructions: 190000000 cycles: 253771271 heartbeat IPC: 0.611094 cumulative IPC: 0.605487 (Simulation time: 0 hr 18 min 41 sec) 
Heartbeat CPU 0 instructions: 200000001 cycles: 270585945 heartbeat IPC: 0.594719 cumulative IPC: 0.604757 (Simulation time: 0 hr 19 min 26 sec) 
Heartbeat CPU 0 instructions: 210000001 cycles: 287145948 heartbeat IPC: 0.603865 cumulative IPC: 0.604701 (Simulation time: 0 hr 20 min 11 sec) 
Heartbeat CPU 0 instructions: 220000000 cycles: 303637689 heartbeat IPC: 0.606364 cumulative IPC: 0.604799 (Simulation time: 0 hr 20 min 55 sec) 
Heartbeat CPU 0 instructions: 230000000 cycles: 320134049 heartbeat IPC: 0.606194 cumulative IPC: 0.604876 (Simulation time: 0 hr 21 min 39 sec) 
Heartbeat CPU 0 instructions: 240000001 cycles: 336784608 heartbeat IPC: 0.600581 cumulative IPC: 0.604648 (Simulation time: 0 hr 22 min 22 sec) 
Heartbeat CPU 0 instructions: 250000002 cycles: 353258164 heartbeat IPC: 0.607034 cumulative IPC: 0.604767 (Simulation time: 0 hr 23 min 5 sec) 
Finished CPU 0 instructions: 200000000 cycles: 330705731 cumulative IPC: 0.604767 (Simulation time: 0 hr 23 min 5 sec) 
 Instruction ID: 250000026

ChampSim completed all CPUs

Region of Interest Statistics

CPU 0 cumulative IPC: 0.604767 instructions: 200000000 cycles: 330705731
ITLB SPEC fills:          0  NON-SPEC fills:          0
ITLB Test counter :          0
ITLB Leapfrog:          0
ITLB MSHR merge:          0
ITLB TOTAL     ACCESS:   28702051  HIT:   28702051  MISS:          0  HIT %:        100  MISS %:          0   MPKI: 0
ITLB LOAD TRANSLATION NON_SPEC    ACCESS:   28702051  HIT:   28702051  MISS:          0  HIT %:        100  MISS %:          0   MPKI: 0
ITLB PREFETCH  REQUESTED:          0  ISSUED:          0  USEFUL:          0  USELESS:          0
ITLB USEFUL LOAD PREFETCHES:          0 PREFETCH ISSUED TO LOWER LEVEL:          0  ACCURACY: -nan
ITLB TIMELY PREFETCHES:          0 LATE PREFETCHES: 0 DROPPED PREFETCHES: 0
ITLB COMMIT LATE PREFETCHES: 0 MISSED OPPORTUNITY: 0 LATE IN PQ: 0 UNCOVERED: 0
ITLB COMMIT LATE MSHR PREFETCHES: 0
ITLB MPKI TOTAL: 0 MSHR LATE: 0 PQ LATE: 0 COMMIT LATE: 0 MISSED OPPORTUNITY: 0 UNCOVERED: 0
ITLB PREFETCHES SAME FILL-ORIGIN LEVEL: 0 DIFFERENT FILL-ORIGIN LEVEL: 0
ITLB AVERAGE MISS LATENCY: -nan cycles
ITLB AVERAGE MISS LATENCY LOAD: -nan cycles
ITLB AVERAGE MISS LATENCY PREFETCH: -nan cycles
ITLB AVERAGE MSHR OCCUPANCY: 0
ITLB MSHR FULL: 0
ITLB RQ	ACCESS:   34825573	FORWARD:          0	MERGED:    6123522	TO_CACHE:   28702051

DTLB SPEC fills:          0  NON-SPEC fills:          0
DTLB Test counter :          0
DTLB Leapfrog:          0
DTLB MSHR merge:          0
DTLB TOTAL     ACCESS:   61919252  HIT:   54343748  MISS:    7575504  HIT %:    87.7655  MISS %:    12.2345   MPKI: 37.8775
DTLB LOAD TRANSLATION NON_SPEC    ACCESS:   61919252  HIT:   54343748  MISS:    7575504  HIT %:    87.7655  MISS %:    12.2345   MPKI: 37.8775
DTLB PREFETCH  REQUESTED:          0  ISSUED:          0  USEFUL:          0  USELESS:          0
DTLB USEFUL LOAD PREFETCHES:          0 PREFETCH ISSUED TO LOWER LEVEL:          0  ACCURACY: -nan
DTLB TIMELY PREFETCHES:          0 LATE PREFETCHES: 0 DROPPED PREFETCHES: 0
DTLB COMMIT LATE PREFETCHES: 0 MISSED OPPORTUNITY: 0 LATE IN PQ: 0 UNCOVERED: 0
DTLB COMMIT LATE MSHR PREFETCHES: 0
DTLB MPKI TOTAL: 0 MSHR LATE: 0 PQ LATE: 0 COMMIT LATE: 0 MISSED OPPORTUNITY: 0 UNCOVERED: 0
DTLB PREFETCHES SAME FILL-ORIGIN LEVEL: 0 DIFFERENT FILL-ORIGIN LEVEL: 0
DTLB AVERAGE MISS LATENCY: 10.0523 cycles
DTLB AVERAGE MISS LATENCY LOAD: -nan cycles
DTLB AVERAGE MISS LATENCY PREFETCH: -nan cycles
DTLB AVERAGE MSHR OCCUPANCY: 0.782602
DTLB MSHR FULL: 0.021286
DTLB RQ	ACCESS:   82921986	FORWARD:          0	MERGED:   20036661	TO_CACHE:   62885325

STLB SPEC fills:          0  NON-SPEC fills:          0
STLB Test counter :          0
STLB Leapfrog:          0
STLB MSHR merge:          0
STLB TOTAL     ACCESS:    8309048  HIT:    8300753  MISS:       8295  HIT %:    99.9002  MISS %:  0.0998309   MPKI: 0.041475
STLB LOAD TRANSLATION NON_SPEC    ACCESS:    7575504  HIT:    7567209  MISS:       8295  HIT %:    99.8905  MISS %:   0.109498   MPKI: 0.041475
STLB TRANSLATION FROM L1D PREFETCHER NON_SPEC    ACCESS:     733544  HIT:     733544  MISS:          0  HIT %:        100  MISS %:          0   MPKI: 0
STLB PREFETCH  REQUESTED:          0  ISSUED:          0  USEFUL:          0  USELESS:          0
STLB USEFUL LOAD PREFETCHES:          0 PREFETCH ISSUED TO LOWER LEVEL:          0  ACCURACY: -nan
STLB TIMELY PREFETCHES:          0 LATE PREFETCHES: 0 DROPPED PREFETCHES: 0
STLB COMMIT LATE PREFETCHES: 0 MISSED OPPORTUNITY: 0 LATE IN PQ: 0 UNCOVERED: 0
STLB COMMIT LATE MSHR PREFETCHES: 0
STLB MPKI TOTAL: 0 MSHR LATE: 0 PQ LATE: 0 COMMIT LATE: 0 MISSED OPPORTUNITY: 0 UNCOVERED: 0
STLB PREFETCHES SAME FILL-ORIGIN LEVEL: 0 DIFFERENT FILL-ORIGIN LEVEL: 0
STLB AVERAGE MISS LATENCY: 639.142 cycles
STLB AVERAGE MISS LATENCY LOAD: -nan cycles
STLB AVERAGE MISS LATENCY PREFETCH: -nan cycles
STLB AVERAGE MSHR OCCUPANCY: 0.0096638
STLB MSHR FULL: 0
STLB RQ	ACCESS:    8395664	FORWARD:          0	MERGED:      86616	TO_CACHE:    8309048

STLB Hit, L1D data hit: 0
STLB Hit, L2C data hit: 0
STLB Hit, LLC data hit: 0
STLB Hit, LLC data miss: 0
STLB STLB hints to L2: 0
L0D SPEC fills:   46362445  NON-SPEC fills:          0
L0D TimeGuard Request with older TS:    2872728 Restricted eviction:    2972790 read:    2632424
L0D Test counter :          0
L0D Leapfrog:          0
L0D MSHR merge:    2736194
L0D TOTAL     ACCESS:   64169526  HIT:    8811503  MISS:   55358023  HIT %:    13.7316  MISS %:    86.2684   MPKI: 276.79
L0D LOAD      TOTAL       ACCESS:   64169526  HIT:    8811503  MISS:   55358023  HIT %:    13.7316  MISS %:    86.2684   MPKI: 276.79
L0D LOAD      NON_SPEC    ACCESS:    6373249  HIT:     349953  MISS:    6023296  HIT %:    5.49097  MISS %:     94.509   MPKI: 30.1165
L0D LOAD      SPEC        ACCESS:   57796277  HIT:    8461550  MISS:   49334727  HIT %:    14.6403  MISS %:    85.3597   MPKI: 246.674
L0D PREFETCH  REQUESTED:          0  ISSUED:          0  USEFUL:          0  USELESS:          0
L0D USEFUL LOAD PREFETCHES:          0 PREFETCH ISSUED TO LOWER LEVEL:          0  ACCURACY: -nan
L0D TIMELY PREFETCHES:          0 LATE PREFETCHES: 0 DROPPED PREFETCHES: 0
L0D COMMIT LATE PREFETCHES: 0 MISSED OPPORTUNITY: 0 LATE IN PQ: 0 UNCOVERED: 0
L0D COMMIT LATE MSHR PREFETCHES: 0
L0D MPKI TOTAL: 290.471 MSHR LATE: 0 PQ LATE: 0 COMMIT LATE: 0 MISSED OPPORTUNITY: 0 UNCOVERED: 0
L0D PREFETCHES SAME FILL-ORIGIN LEVEL: 0 DIFFERENT FILL-ORIGIN LEVEL: 0
L0D AVERAGE MISS LATENCY: 14.6026 cycles
L0D AVERAGE MISS LATENCY LOAD: 14.6026 cycles
L0D AVERAGE MISS LATENCY PREFETCH: -nan cycles
L0D AVERAGE MSHR OCCUPANCY: 5.22082
L0D MSHR FULL: 0.430688
L0D RQ	ACCESS:   77325726	FORWARD:          0	MERGED:   10420017	TO_CACHE:   66905709
L0D WQ	ACCESS:   16016277	FORWARD:          0	MERGED:          0	TO_CACHE:   16016277

L1D SPEC fills:          0  NON-SPEC fills:     610326
L1D Test counter :    1070687
L1D Leapfrog:          0
L1D MSHR merge:      84490
L1D TOTAL     ACCESS:   88435712  HIT:   59241492  MISS:   29194220  HIT %:    66.9882  MISS %:    33.0118   MPKI: 145.971
L1D LOAD      TOTAL       ACCESS:   55273643  HIT:   40875671  MISS:   14397972  HIT %:    73.9515  MISS %:    26.0485   MPKI: 71.9899
L1D LOAD      NON_SPEC    ACCESS:    6010192  HIT:    5399866  MISS:     610326  HIT %:    89.8451  MISS %:    10.1549   MPKI: 3.05163
L1D LOAD      SPEC        ACCESS:   49263451  HIT:   35475805  MISS:   13787646  HIT %:    72.0124  MISS %:    27.9876   MPKI: 68.9382
L1D RFO       NON_SPEC    ACCESS:   15717681  HIT:   14491036  MISS:    1226645  HIT %:    92.1958  MISS %:    7.80424   MPKI: 6.13323
L1D PREFETCH  NON_SPEC    ACCESS:     819686  HIT:     172972  MISS:     646714  HIT %:    21.1022  MISS %:    78.8978   MPKI: 3.23357
L1D COMMIT LOAD NON_SPEC    ACCESS:    5672796  HIT:    3178783  MISS:    2494013  HIT %:    56.0356  MISS %:    43.9644   MPKI: 12.4701
L1D COMMIT WRITE NON_SPEC    ACCESS:   10951906  HIT:     523030  MISS:   10428876  HIT %:     4.7757  MISS %:    95.2243   MPKI: 52.1444
L1D PREFETCH  REQUESTED:     820160  ISSUED:     820160  USEFUL:      78247  USELESS:     568501
L1D USEFUL LOAD PREFETCHES:      78247 PREFETCH ISSUED TO LOWER LEVEL:     646871  ACCURACY: 12.0962
L1D TIMELY PREFETCHES:      78247 LATE PREFETCHES: 156 DROPPED PREFETCHES: 0
L1D COMMIT LATE PREFETCHES: 0 MISSED OPPORTUNITY: 0 LATE IN PQ: 0 UNCOVERED: 0
L1D COMMIT LATE MSHR PREFETCHES: 0
L1D MPKI TOTAL: 72.4118 MSHR LATE: 0.00078 PQ LATE: 0 COMMIT LATE: 0 MISSED OPPORTUNITY: 0 UNCOVERED: 0
L1D PREFETCHES SAME FILL-ORIGIN LEVEL: 646871 DIFFERENT FILL-ORIGIN LEVEL: 0
L1D AVERAGE MISS LATENCY: 14.3742 cycles
L1D AVERAGE MISS LATENCY LOAD: 16.5738 cycles
L1D AVERAGE MISS LATENCY PREFETCH: 59.8789 cycles
L1D AVERAGE MSHR OCCUPANCY: 3.21542
L1D MSHR FULL: 0.10688
L1D RQ	ACCESS:   62297580	FORWARD:          0	MERGED:    1130528	TO_CACHE:   61167051
L1D WQ	ACCESS:   26968180	FORWARD:          1	MERGED:     125356	TO_CACHE:   26842824
L1D PQ	ACCESS:     820160	FORWARD:          0	MERGED:          0	TO_CACHE:     820160

L1D UNIQUE REGIONS ACCESSED: 0
L1D REGIONS CONFLICTS: 0
L1D Cross Page Prefetch Requests: 0
L1D Same Page Prefetch Requests: 1027290
L1D ROI Sum of L1D PQ occupancy: 15245752
L1D PREFETCHES PUSHED FROM L2C: 0
L1I SPEC fills:          0  NON-SPEC fills:          0
L1I Test counter :          0
L1I Leapfrog:          0
L1I MSHR merge:    2856588
L1I TOTAL     ACCESS:   31968983  HIT:   26184554  MISS:    5784429  HIT %:    81.9061  MISS %:    18.0939   MPKI: 28.9221
L1I LOAD      TOTAL       ACCESS:   31968983  HIT:   26184554  MISS:    5784429  HIT %:    81.9061  MISS %:    18.0939   MPKI: 28.9221
L1I LOAD      NON_SPEC    ACCESS:   31968983  HIT:   26184554  MISS:    5784429  HIT %:    81.9061  MISS %:    18.0939   MPKI: 28.9221
L1I PREFETCH  REQUESTED:          0  ISSUED:          0  USEFUL:          0  USELESS:          0
L1I USEFUL LOAD PREFETCHES:          0 PREFETCH ISSUED TO LOWER LEVEL:          0  ACCURACY: -nan
L1I TIMELY PREFETCHES:          0 LATE PREFETCHES: 0 DROPPED PREFETCHES: 0
L1I COMMIT LATE PREFETCHES: 0 MISSED OPPORTUNITY: 0 LATE IN PQ: 0 UNCOVERED: 0
L1I COMMIT LATE MSHR PREFETCHES: 0
L1I MPKI TOTAL: 43.2051 MSHR LATE: 0 PQ LATE: 0 COMMIT LATE: 0 MISSED OPPORTUNITY: 0 UNCOVERED: 0
L1I PREFETCHES SAME FILL-ORIGIN LEVEL: 0 DIFFERENT FILL-ORIGIN LEVEL: 0
L1I AVERAGE MISS LATENCY: 14.0387 cycles
L1I AVERAGE MISS LATENCY LOAD: 14.0387 cycles
L1I AVERAGE MISS LATENCY PREFETCH: -nan cycles
L1I AVERAGE MSHR OCCUPANCY: 0.218578
L1I MSHR FULL: 0
L1I RQ	ACCESS:   49599741	FORWARD:          0	MERGED:   14774168	TO_CACHE:   34825573

BTB SPEC fills:          0  NON-SPEC fills:          0
BTB Test counter :          0
BTB Leapfrog:          0
BTB MSHR merge:          0
BTB TOTAL     ACCESS:    1169485  HIT:    1096958  MISS:      72527  HIT %:    93.7984  MISS %:    6.20162   MPKI: 0.362635
BTB BRANCH_DIRECT_JUMP	ACCESS:     217104  HIT:     217073  MISS:         31
BTB BRANCH_INDIRECT	ACCESS:      36158  HIT:      36156  MISS:          2
BTB BRANCH_CONDITIONAL	ACCESS:     482257  HIT:     482171  MISS:         86
BTB BRANCH_DIRECT_CALL	ACCESS:     216983  HIT:     216939  MISS:         44
BTB BRANCH_INDIRECT_CALL	ACCESS:          0  HIT:          0  MISS:          0
BTB BRANCH_RETURN	ACCESS:     216983  HIT:     144619  MISS:      72364
BTB BRANCH_OTHER ACCESS:          0  HIT:          0  MISS:          0

L2C SPEC fills:          0  NON-SPEC fills:      28821
L2C Test counter :     643464
L2C Leapfrog:          0
L2C MSHR merge:          0
L2C TOTAL     ACCESS:   26892729  HIT:   25204667  MISS:    1688062  HIT %:     93.723  MISS %:    6.27702   MPKI: 8.44031
L2C LOAD      TOTAL       ACCESS:   20175818  HIT:   19509110  MISS:     666708  HIT %:    96.6955  MISS %:    3.30449   MPKI: 3.33354
L2C LOAD      NON_SPEC    ACCESS:    6394508  HIT:    6365308  MISS:      29200  HIT %:    99.5434  MISS %:   0.456642   MPKI: 0.146
L2C LOAD      SPEC        ACCESS:   13781310  HIT:   13143802  MISS:     637508  HIT %:    95.3741  MISS %:    4.62589   MPKI: 3.18754
L2C RFO       NON_SPEC    ACCESS:    1224104  HIT:    1116243  MISS:     107861  HIT %:    91.1886  MISS %:    8.81142   MPKI: 0.539305
L2C PREFETCH  NON_SPEC    ACCESS:     646871  HIT:     382466  MISS:     264405  HIT %:    59.1255  MISS %:    40.8745   MPKI: 1.32203
L2C WRITEBACK NON_SPEC    ACCESS:    1239861  HIT:    1239859  MISS:          2  HIT %:    99.9998  MISS %: 0.000161308   MPKI: 1e-05
L2C CLEAN_EVICTION NON_SPEC    ACCESS:    1070687  HIT:     544042  MISS:     526645  HIT %:    50.8124  MISS %:    49.1876   MPKI: 2.63322
L2C COMMIT LOAD NON_SPEC    ACCESS:    2493922  HIT:    2383025  MISS:     110897  HIT %:    95.5533  MISS %:    4.44669   MPKI: 0.554485
L2C LOAD TRANSLATION NON_SPEC    ACCESS:      41466  HIT:      29922  MISS:      11544  HIT %:    72.1603  MISS %:    27.8397   MPKI: 0.05772
L2C PREFETCH  REQUESTED:          0  ISSUED:          0  USEFUL:     259752  USELESS:       4687
L2C USEFUL LOAD PREFETCHES:     259752 PREFETCH ISSUED TO LOWER LEVEL:     264405  ACCURACY: 98.2402
L2C TIMELY PREFETCHES:     259752 LATE PREFETCHES: 0 DROPPED PREFETCHES: 0
L2C COMMIT LATE PREFETCHES: 0 MISSED OPPORTUNITY: 0 LATE IN PQ: 0 UNCOVERED: 0
L2C COMMIT LATE MSHR PREFETCHES: 0
L2C MPKI TOTAL: 3.33354 MSHR LATE: 0 PQ LATE: 0 COMMIT LATE: 0 MISSED OPPORTUNITY: 0 UNCOVERED: 0
L2C PREFETCHES SAME FILL-ORIGIN LEVEL: 0 DIFFERENT FILL-ORIGIN LEVEL: 0
L2C AVERAGE MISS LATENCY: 106.668 cycles
L2C AVERAGE MISS LATENCY LOAD: 99.2869 cycles
L2C AVERAGE MISS LATENCY PREFETCH: 108.297 cycles
L2C AVERAGE MSHR OCCUPANCY: 0.60651
L2C MSHR FULL: 0
L2C RQ	ACCESS:   23944369	FORWARD:          0	MERGED:          0	TO_CACHE:   23935310
L2C WQ	ACCESS:    2310551	FORWARD:       9059	MERGED:          3	TO_CACHE:    2310548
L2C PQ	ACCESS:     646871	FORWARD:          0	MERGED:          0	TO_CACHE:     646871

L2C Instructions Evicting Data 376
L2C Translations Evicting Data 11413
L2C Data Evicting Data 506079
L2C Instructions Evicting Instructions 0
L2C Translations Evicting Instructions 2
L2C Data Evicting Instructions 175
L2C Instructions Evicting Translations 3
L2C Translations Evicting Translations 129
L2C Data Evicting Translations 5730
L2C Dense regions hint from L2: 0
PSCL5 SPEC fills:          0  NON-SPEC fills:          0
PSCL5 Test counter :          0
PSCL5 Leapfrog:          0
PSCL5 MSHR merge:          0
PSCL5 TOTAL     ACCESS:          0  HIT:          0  MISS:          0  HIT %:       -nan  MISS %:       -nan   MPKI: 0
PSCL5 PREFETCH  REQUESTED:          0  ISSUED:          0  USEFUL:          0  USELESS:          0
PSCL5 USEFUL LOAD PREFETCHES:          0 PREFETCH ISSUED TO LOWER LEVEL:          0  ACCURACY: -nan
PSCL5 TIMELY PREFETCHES:          0 LATE PREFETCHES: 0 DROPPED PREFETCHES: 0
PSCL5 COMMIT LATE PREFETCHES: 0 MISSED OPPORTUNITY: 0 LATE IN PQ: 0 UNCOVERED: 0
PSCL5 COMMIT LATE MSHR PREFETCHES: 0
PSCL5 MPKI TOTAL: 0 MSHR LATE: 0 PQ LATE: 0 COMMIT LATE: 0 MISSED OPPORTUNITY: 0 UNCOVERED: 0
PSCL5 PREFETCHES SAME FILL-ORIGIN LEVEL: 0 DIFFERENT FILL-ORIGIN LEVEL: 0

PSCL4 SPEC fills:          0  NON-SPEC fills:          0
PSCL4 Test counter :          0
PSCL4 Leapfrog:          0
PSCL4 MSHR merge:          0
PSCL4 TOTAL     ACCESS:          0  HIT:          0  MISS:          0  HIT %:       -nan  MISS %:       -nan   MPKI: 0
PSCL4 PREFETCH  REQUESTED:          0  ISSUED:          0  USEFUL:          0  USELESS:          0
PSCL4 USEFUL LOAD PREFETCHES:          0 PREFETCH ISSUED TO LOWER LEVEL:          0  ACCURACY: -nan
PSCL4 TIMELY PREFETCHES:          0 LATE PREFETCHES: 0 DROPPED PREFETCHES: 0
PSCL4 COMMIT LATE PREFETCHES: 0 MISSED OPPORTUNITY: 0 LATE IN PQ: 0 UNCOVERED: 0
PSCL4 COMMIT LATE MSHR PREFETCHES: 0
PSCL4 MPKI TOTAL: 0 MSHR LATE: 0 PQ LATE: 0 COMMIT LATE: 0 MISSED OPPORTUNITY: 0 UNCOVERED: 0
PSCL4 PREFETCHES SAME FILL-ORIGIN LEVEL: 0 DIFFERENT FILL-ORIGIN LEVEL: 0

PSCL3 SPEC fills:          0  NON-SPEC fills:          0
PSCL3 Test counter :          0
PSCL3 Leapfrog:          0
PSCL3 MSHR merge:          0
PSCL3 TOTAL     ACCESS:          0  HIT:          0  MISS:          0  HIT %:       -nan  MISS %:       -nan   MPKI: 0
PSCL3 PREFETCH  REQUESTED:          0  ISSUED:          0  USEFUL:          0  USELESS:          0
PSCL3 USEFUL LOAD PREFETCHES:          0 PREFETCH ISSUED TO LOWER LEVEL:          0  ACCURACY: -nan
PSCL3 TIMELY PREFETCHES:          0 LATE PREFETCHES: 0 DROPPED PREFETCHES: 0
PSCL3 COMMIT LATE PREFETCHES: 0 MISSED OPPORTUNITY: 0 LATE IN PQ: 0 UNCOVERED: 0
PSCL3 COMMIT LATE MSHR PREFETCHES: 0
PSCL3 MPKI TOTAL: 0 MSHR LATE: 0 PQ LATE: 0 COMMIT LATE: 0 MISSED OPPORTUNITY: 0 UNCOVERED: 0
PSCL3 PREFETCHES SAME FILL-ORIGIN LEVEL: 0 DIFFERENT FILL-ORIGIN LEVEL: 0

PSCL2 SPEC fills:          0  NON-SPEC fills:          0
PSCL2 Test counter :          0
PSCL2 Leapfrog:          0
PSCL2 MSHR merge:          0
PSCL2 TOTAL     ACCESS:          0  HIT:          0  MISS:          0  HIT %:       -nan  MISS %:       -nan   MPKI: 0
PSCL2 PREFETCH  REQUESTED:          0  ISSUED:          0  USEFUL:          0  USELESS:          0
PSCL2 USEFUL LOAD PREFETCHES:          0 PREFETCH ISSUED TO LOWER LEVEL:          0  ACCURACY: -nan
PSCL2 TIMELY PREFETCHES:          0 LATE PREFETCHES: 0 DROPPED PREFETCHES: 0
PSCL2 COMMIT LATE PREFETCHES: 0 MISSED OPPORTUNITY: 0 LATE IN PQ: 0 UNCOVERED: 0
PSCL2 COMMIT LATE MSHR PREFETCHES: 0
PSCL2 MPKI TOTAL: 0 MSHR LATE: 0 PQ LATE: 0 COMMIT LATE: 0 MISSED OPPORTUNITY: 0 UNCOVERED: 0
PSCL2 PREFETCHES SAME FILL-ORIGIN LEVEL: 0 DIFFERENT FILL-ORIGIN LEVEL: 0

LLC SPEC fills:          0  NON-SPEC fills:       8959
LLC Test counter :     349447
LLC Leapfrog:          0
LLC MSHR merge:          0
LLC TOTAL     ACCESS:    1921672  HIT:    1105340  MISS:     816332  HIT %:    57.5197  MISS %:    42.4803   MPKI: 4.08166
LLC LOAD      TOTAL       ACCESS:     666538  HIT:     367456  MISS:     299082  HIT %:     55.129  MISS %:     44.871   MPKI: 1.49541
LLC LOAD      NON_SPEC    ACCESS:      29194  HIT:      19856  MISS:       9338  HIT %:     68.014  MISS %:     31.986   MPKI: 0.04669
LLC LOAD      SPEC        ACCESS:     637344  HIT:     347600  MISS:     289744  HIT %:    54.5388  MISS %:    45.4612   MPKI: 1.44872
LLC RFO       NON_SPEC    ACCESS:     107861  HIT:          0  MISS:     107861  HIT %:          0  MISS %:        100   MPKI: 0.539305
LLC PREFETCH  NON_SPEC    ACCESS:     264398  HIT:     145620  MISS:     118778  HIT %:    55.0761  MISS %:    44.9239   MPKI: 0.59389
LLC WRITEBACK NON_SPEC    ACCESS:     117026  HIT:     117024  MISS:          2  HIT %:    99.9983  MISS %: 0.00170902   MPKI: 1e-05
LLC CLEAN_EVICTION NON_SPEC    ACCESS:     643464  HIT:     389492  MISS:     253972  HIT %:    60.5305  MISS %:    39.4695   MPKI: 1.26986
LLC COMMIT LOAD NON_SPEC    ACCESS:     110841  HIT:      75333  MISS:      35508  HIT %:    67.9649  MISS %:    32.0351   MPKI: 0.17754
LLC LOAD TRANSLATION NON_SPEC    ACCESS:      11544  HIT:      10415  MISS:       1129  HIT %:      90.22  MISS %:    9.77997   MPKI: 0.005645
LLC PREFETCH  REQUESTED:          0  ISSUED:          0  USEFUL:      53638  USELESS:      66146
LLC USEFUL LOAD PREFETCHES:      53638 PREFETCH ISSUED TO LOWER LEVEL:     118778  ACCURACY: 45.1582
LLC TIMELY PREFETCHES:      53638 LATE PREFETCHES: 0 DROPPED PREFETCHES: 0
LLC COMMIT LATE PREFETCHES: 0 MISSED OPPORTUNITY: 0 LATE IN PQ: 0 UNCOVERED: 0
LLC COMMIT LATE MSHR PREFETCHES: 0
LLC MPKI TOTAL: 1.49541 MSHR LATE: 0 PQ LATE: 0 COMMIT LATE: 0 MISSED OPPORTUNITY: 0 UNCOVERED: 0
LLC PREFETCHES SAME FILL-ORIGIN LEVEL: 0 DIFFERENT FILL-ORIGIN LEVEL: 0
LLC AVERAGE MISS LATENCY: 184.67 cycles
LLC AVERAGE MISS LATENCY LOAD: 173.125 cycles
LLC AVERAGE MISS LATENCY PREFETCH: 174.036 cycles
LLC AVERAGE MSHR OCCUPANCY: 2.30932
LLC MSHR FULL: 0
LLC RQ	ACCESS:     897010	FORWARD:          0	MERGED:          0	TO_CACHE:     896784
LLC WQ	ACCESS:     760490	FORWARD:        233	MERGED:          0	TO_CACHE:     760490
LLC PQ	ACCESS:     264405	FORWARD:          0	MERGED:          0	TO_CACHE:     264398

LLC Dense regions hint to LLC: 0

RAW hits: 509936
Loads Generated: 77835662
Loads sent to L1D: 77325726
Stores Generated: 16016275
Stores sent to L1D: 16016277
Major fault: 0 Minor fault: 8463
Allocated PAGES: 8463
Total Load insts: 126097510
Total Non-spec loads: 8214148
Percentage of speculative loads: 93.4859

LeapFrogging counter: 30328036
Commit hits: 43830374 miss: 27034487
Commit hit %: 61.8506 miss %: 38.1494
Commits not translated: 0
Loads retired: 14397972
Stores retired: 16016277
Cache fills: 14397972
L1D response latency: 16.5738 cycles
Load retirement latency: 194.398 cycles
OOO test counter: 0
Discarded buffer inserts: 43830374 hits: 578028 hit %: 1.31878

stream: 
stream:times selected: 1130259
stream:pref_filled: 751579
stream:pref_useful: 77892
stream:pref_late: 56
stream:misses: 8445
stream:misses_by_poll: 0

CS: 
CS:times selected: 880342
CS:pref_filled: 12890
CS:pref_useful: 1615
CS:pref_late: 0
CS:misses: 6069
CS:misses_by_poll: 169

CPLX: 
CPLX:times selected: 1128226
CPLX:pref_filled: 45032
CPLX:pref_useful: 17583
CPLX:pref_late: 1
CPLX:misses: 3835011
CPLX:misses_by_poll: 1432

NL_L1: 
NL:times selected: 314
NL:pref_filled: 81
NL:pref_useful: 2
NL:pref_late: 0
NL:misses: 58
NL:misses_by_poll: 0

total selections: 3139141
total_filled: 646714
total_useful: 78247
total_late: 83
total_polluted: 1601
total_misses_after_warmup: 17299709
conflicts: 33078068
Degree Incremented Times: 0
Degree Decremented Times: 1351816

L1 IP Table Write Accesses: 51209914
L1 IP Table Read Accesses: 18131846
L1 RST Write Accesses: 905672
L1 RST Read Accesses: 1811344
L1 CSPT Write Accesses: 905672
L1 CSPT Read Accesses: 1810713
L1 RR Filter Tag Write Accesses: 820160
L1 RR Filter Tag Read Accesses: 70637848
L1 IP Table Tag Write Accesses: 93850146
L1 IP Table Tag Read Accesses: 93850146
L1 RST Tag Write Accesses: 0
L1 RST Tag Read Accesses: 8885226
L1 RR Filter Write Accesses: 0
L1 RR Filter Read Accesses: 2394802
test: 88816

DRAM Statistics
 CHANNEL 0
 RQ ROW_BUFFER_HIT:     253489  ROW_BUFFER_MISS:     308869
 DBUS_CONGESTED:        559
 WQ ROW_BUFFER_HIT:      91217  ROW_BUFFER_MISS:     374100  FULL:          0

 AVG_CONGESTED_CYCLE: 5
 All warmup complete: 2
Channel 0 Bank busy for read cycles: 0
Channel 0 Bank busy for write cycles: 0
Channel 0
Rank 0
0banks busy for read cycles: 251113309
0banks busy for write cycles: 217434
1banks busy for read cycles: 24950673
1banks busy for write cycles: 26496475
2banks busy for read cycles: 8007267
2banks busy for write cycles: 8279379
3banks busy for read cycles: 3308549
3banks busy for write cycles: 2921677
4banks busy for read cycles: 1428456
4banks busy for write cycles: 1612599
5banks busy for read cycles: 349331
5banks busy for write cycles: 858697
6banks busy for read cycles: 97574
6banks busy for write cycles: 484259
7banks busy for read cycles: 9965
7banks busy for write cycles: 331371
8banks busy for read cycles: 319
8banks busy for write cycles: 238398

CPU 0 Branch Prediction Accuracy: 99.9869% MPKI: 0.001165 Average ROB Occupancy at Mispredict: 21.7597
Branch types
NOT_BRANCH: 198225688 99.1128%
BRANCH_DIRECT_JUMP: 217104 0.108552%
BRANCH_INDIRECT: 36158 0.018079%
BRANCH_CONDITIONAL: 1086728 0.543364%
BRANCH_DIRECT_CALL: 216983 0.108492%
BRANCH_INDIRECT_CALL: 0 0%
BRANCH_RETURN: 216983 0.108492%
BRANCH_OTHER: 0 0%

DRAM PAGES: 1048576
Allocated PAGES: 8463
