
*** ChampSim Multicore Out-of-Order Simulator ***

Warmup Instructions: 50000000
Simulation Instructions: 200000000
Number of CPUs: 1
LLC sets: 2048
LLC ways: 16
L0D sets: 16
L0D ways: 2
ROB size: 352
LQ size: 128
SQ size: 72
Secure Berti: OFF
Berti: OFF
Berti Fill: OFF
On commit prefetching: ON
Hit-based filter: ON
Time-guarding: ON
Free-slotting: ON
Leap-frogging: ON
Train prefetcher on L0D bypass: OFF
No translation penalty for prefetchers: OFF
Prefetch to L0D only: OFF
Prefetch to L1D only: OFF
Clean evictions: ON
Commit loads: ON
Commit write: ON
Fill commit loads to L2C, LLC: ON
DRAM IO FREQUENCY: 6400
ROB SIZE: 352
Off-chip DRAM Size: 4096 MB Channels: 1 Width: 64-bit Data Rate: 6400 MT/s
CPU 0 runs /home/sumon/secure_berti/GhostMinion/../../traces/spec/619.lbm_s-4268B.champsimtrace.xz
.xz
BTB has LRU replacement policy
ITLB has LRU replacement policy
DTLB has LRU replacement policy
STLB has LRU replacement policy
L1I has LRU replacement policy
L0D has LRU replacement policy
IP Table Entries: 1024
CSPT Entries: 128
RR_ENTRIES: 32
RST_ENTRIES: 8
L1D has LRU replacement policy
L2C has LRU replacement policy
LLC has LRU replacement policy
Heartbeat CPU 0 instructions: 10000000 cycles: 3090242 heartbeat IPC: 3.23599 cumulative IPC: 3.23599 (Simulation time: 0 hr 1 min 31 sec) 
Heartbeat CPU 0 instructions: 20000003 cycles: 6180011 heartbeat IPC: 3.23649 cumulative IPC: 3.23624 (Simulation time: 0 hr 2 min 38 sec) 
Heartbeat CPU 0 instructions: 30000000 cycles: 9262007 heartbeat IPC: 3.24465 cumulative IPC: 3.23904 (Simulation time: 0 hr 3 min 41 sec) 
Heartbeat CPU 0 instructions: 40000000 cycles: 12353357 heartbeat IPC: 3.23483 cumulative IPC: 3.23799 (Simulation time: 0 hr 4 min 44 sec) 
Heartbeat CPU 0 instructions: 50000002 cycles: 15446804 heartbeat IPC: 3.23264 cumulative IPC: 3.23692 (Simulation time: 0 hr 5 min 46 sec) 

Warmup complete CPU 0 instructions: 50000002 cycles: 15446804 (Simulation time: 0 hr 5 min 46 sec) 

Heartbeat CPU 0 instructions: 60000000 cycles: 41701439 heartbeat IPC: 0.380885 cumulative IPC: 0.380885 (Simulation time: 0 hr 7 min 6 sec) 
Heartbeat CPU 0 instructions: 70000000 cycles: 67847585 heartbeat IPC: 0.382466 cumulative IPC: 0.381674 (Simulation time: 0 hr 8 min 28 sec) 
Heartbeat CPU 0 instructions: 80000000 cycles: 93371753 heartbeat IPC: 0.391786 cumulative IPC: 0.384986 (Simulation time: 0 hr 9 min 48 sec) 
Heartbeat CPU 0 instructions: 90000003 cycles: 119101844 heartbeat IPC: 0.38865 cumulative IPC: 0.385895 (Simulation time: 0 hr 11 min 7 sec) 
Heartbeat CPU 0 instructions: 100000003 cycles: 144429203 heartbeat IPC: 0.39483 cumulative IPC: 0.38765 (Simulation time: 0 hr 12 min 24 sec) 
Heartbeat CPU 0 instructions: 110000000 cycles: 170201426 heartbeat IPC: 0.388015 cumulative IPC: 0.387711 (Simulation time: 0 hr 13 min 42 sec) 
Heartbeat CPU 0 instructions: 120000001 cycles: 196582731 heartbeat IPC: 0.379056 cumulative IPC: 0.38645 (Simulation time: 0 hr 15 min 0 sec) 
Heartbeat CPU 0 instructions: 130000002 cycles: 222098232 heartbeat IPC: 0.391919 cumulative IPC: 0.387125 (Simulation time: 0 hr 16 min 17 sec) 
Heartbeat CPU 0 instructions: 140000000 cycles: 247990546 heartbeat IPC: 0.386215 cumulative IPC: 0.387024 (Simulation time: 0 hr 17 min 28 sec) 
Heartbeat CPU 0 instructions: 150000000 cycles: 274396178 heartbeat IPC: 0.378707 cumulative IPC: 0.386176 (Simulation time: 0 hr 18 min 31 sec) 
Heartbeat CPU 0 instructions: 160000001 cycles: 300902076 heartbeat IPC: 0.377275 cumulative IPC: 0.385349 (Simulation time: 0 hr 19 min 28 sec) 
Heartbeat CPU 0 instructions: 170000002 cycles: 327179303 heartbeat IPC: 0.380558 cumulative IPC: 0.384945 (Simulation time: 0 hr 20 min 25 sec) 
Heartbeat CPU 0 instructions: 180000001 cycles: 353298342 heartbeat IPC: 0.382862 cumulative IPC: 0.384784 (Simulation time: 0 hr 21 min 21 sec) 
Heartbeat CPU 0 instructions: 190000001 cycles: 379616653 heartbeat IPC: 0.379964 cumulative IPC: 0.384436 (Simulation time: 0 hr 22 min 18 sec) 
Heartbeat CPU 0 instructions: 200000002 cycles: 405760367 heartbeat IPC: 0.382501 cumulative IPC: 0.384306 (Simulation time: 0 hr 23 min 14 sec) 
Heartbeat CPU 0 instructions: 210000003 cycles: 432684809 heartbeat IPC: 0.37141 cumulative IPC: 0.383474 (Simulation time: 0 hr 24 min 11 sec) 
Heartbeat CPU 0 instructions: 220000000 cycles: 459389934 heartbeat IPC: 0.37446 cumulative IPC: 0.382932 (Simulation time: 0 hr 25 min 7 sec) 
Heartbeat CPU 0 instructions: 230000000 cycles: 485781393 heartbeat IPC: 0.37891 cumulative IPC: 0.382706 (Simulation time: 0 hr 26 min 2 sec) 
Heartbeat CPU 0 instructions: 240000001 cycles: 512231079 heartbeat IPC: 0.378076 cumulative IPC: 0.38246 (Simulation time: 0 hr 26 min 57 sec) 
Heartbeat CPU 0 instructions: 250000000 cycles: 537980137 heartbeat IPC: 0.388364 cumulative IPC: 0.382751 (Simulation time: 0 hr 27 min 51 sec) 
Finished CPU 0 instructions: 200000002 cycles: 522533338 cumulative IPC: 0.382751 (Simulation time: 0 hr 27 min 51 sec) 
 Instruction ID: 250000041

ChampSim completed all CPUs

Region of Interest Statistics

CPU 0 cumulative IPC: 0.382751 instructions: 200000002 cycles: 522533338
ITLB SPEC fills:          0  NON-SPEC fills:          0
ITLB Test counter :          0
ITLB Leapfrog:          0
ITLB MSHR merge:          0
ITLB TOTAL     ACCESS:   27014708  HIT:   27014708  MISS:          0  HIT %:        100  MISS %:          0   MPKI: 0
ITLB LOAD TRANSLATION NON_SPEC    ACCESS:   27014708  HIT:   27014708  MISS:          0  HIT %:        100  MISS %:          0   MPKI: 0
ITLB PREFETCH  REQUESTED:          0  ISSUED:          0  USEFUL:          0  USELESS:          0
ITLB USEFUL LOAD PREFETCHES:          0 PREFETCH ISSUED TO LOWER LEVEL:          0  ACCURACY: -nan
ITLB TIMELY PREFETCHES:          0 LATE PREFETCHES: 0 DROPPED PREFETCHES: 0
ITLB COMMIT LATE PREFETCHES: 0 MISSED OPPORTUNITY: 0 LATE IN PQ: 0 UNCOVERED: 0
ITLB COMMIT LATE MSHR PREFETCHES: 0
ITLB MPKI TOTAL: 0 MSHR LATE: 0 PQ LATE: 0 COMMIT LATE: 0 MISSED OPPORTUNITY: 0 UNCOVERED: 0
ITLB PREFETCHES SAME FILL-ORIGIN LEVEL: 0 DIFFERENT FILL-ORIGIN LEVEL: 0
ITLB AVERAGE MISS LATENCY: -nan cycles
ITLB AVERAGE MISS LATENCY LOAD: -nan cycles
ITLB AVERAGE MISS LATENCY PREFETCH: -nan cycles
ITLB AVERAGE MSHR OCCUPANCY: 0
ITLB MSHR FULL: 0
ITLB RQ	ACCESS:   34860472	FORWARD:          0	MERGED:    7845764	TO_CACHE:   27014708

DTLB SPEC fills:          0  NON-SPEC fills:          0
DTLB Test counter :          0
DTLB Leapfrog:          0
DTLB MSHR merge:          0
DTLB TOTAL     ACCESS:   41432206  HIT:   41155679  MISS:     276527  HIT %:    99.3326  MISS %:    0.66742   MPKI: 1.38263
DTLB LOAD TRANSLATION NON_SPEC    ACCESS:   41432206  HIT:   41155679  MISS:     276527  HIT %:    99.3326  MISS %:    0.66742   MPKI: 1.38263
DTLB PREFETCH  REQUESTED:          0  ISSUED:          0  USEFUL:          0  USELESS:          0
DTLB USEFUL LOAD PREFETCHES:          0 PREFETCH ISSUED TO LOWER LEVEL:          0  ACCURACY: -nan
DTLB TIMELY PREFETCHES:          0 LATE PREFETCHES: 0 DROPPED PREFETCHES: 0
DTLB COMMIT LATE PREFETCHES: 0 MISSED OPPORTUNITY: 0 LATE IN PQ: 0 UNCOVERED: 0
DTLB COMMIT LATE MSHR PREFETCHES: 0
DTLB MPKI TOTAL: 0 MSHR LATE: 0 PQ LATE: 0 COMMIT LATE: 0 MISSED OPPORTUNITY: 0 UNCOVERED: 0
DTLB PREFETCHES SAME FILL-ORIGIN LEVEL: 0 DIFFERENT FILL-ORIGIN LEVEL: 0
DTLB AVERAGE MISS LATENCY: 129.716 cycles
DTLB AVERAGE MISS LATENCY LOAD: -nan cycles
DTLB AVERAGE MISS LATENCY PREFETCH: -nan cycles
DTLB AVERAGE MSHR OCCUPANCY: 0.0909723
DTLB MSHR FULL: 0
DTLB RQ	ACCESS:   63212050	FORWARD:          0	MERGED:   21636003	TO_CACHE:   41576047

STLB SPEC fills:          0  NON-SPEC fills:          0
STLB Test counter :          0
STLB Leapfrog:          0
STLB MSHR merge:          0
STLB TOTAL     ACCESS:    8828921  HIT:    8678873  MISS:     150048  HIT %:    98.3005  MISS %:    1.69951   MPKI: 0.75024
STLB LOAD TRANSLATION NON_SPEC    ACCESS:     276527  HIT:     126479  MISS:     150048  HIT %:    45.7384  MISS %:    54.2616   MPKI: 0.75024
STLB TRANSLATION FROM L1D PREFETCHER NON_SPEC    ACCESS:    8552394  HIT:    8552394  MISS:          0  HIT %:        100  MISS %:          0   MPKI: 0
STLB PREFETCH  REQUESTED:          0  ISSUED:          0  USEFUL:          0  USELESS:          0
STLB USEFUL LOAD PREFETCHES:          0 PREFETCH ISSUED TO LOWER LEVEL:          0  ACCURACY: -nan
STLB TIMELY PREFETCHES:          0 LATE PREFETCHES: 0 DROPPED PREFETCHES: 0
STLB COMMIT LATE PREFETCHES: 0 MISSED OPPORTUNITY: 0 LATE IN PQ: 0 UNCOVERED: 0
STLB COMMIT LATE MSHR PREFETCHES: 0
STLB MPKI TOTAL: 0 MSHR LATE: 0 PQ LATE: 0 COMMIT LATE: 0 MISSED OPPORTUNITY: 0 UNCOVERED: 0
STLB PREFETCHES SAME FILL-ORIGIN LEVEL: 0 DIFFERENT FILL-ORIGIN LEVEL: 0
STLB AVERAGE MISS LATENCY: 222.455 cycles
STLB AVERAGE MISS LATENCY LOAD: -nan cycles
STLB AVERAGE MISS LATENCY PREFETCH: -nan cycles
STLB AVERAGE MSHR OCCUPANCY: 0.0591165
STLB MSHR FULL: 0
STLB RQ	ACCESS:   17915562	FORWARD:          0	MERGED:    9082715	TO_CACHE:    8832847

STLB Hit, L1D data hit: 0
STLB Hit, L2C data hit: 0
STLB Hit, LLC data hit: 0
STLB Hit, LLC data miss: 0
STLB STLB hints to L2: 0
L0D SPEC fills:   14236180  NON-SPEC fills:          0
L0D TimeGuard Request with older TS:     171920 Restricted eviction:      48228 read:    1105311
L0D Test counter :          0
L0D Leapfrog:          0
L0D MSHR merge:    4181611
L0D TOTAL     ACCESS:   22062538  HIT:    6494873  MISS:   15567665  HIT %:    29.4385  MISS %:    70.5615   MPKI: 77.8383
L0D LOAD      TOTAL       ACCESS:   22062538  HIT:    6494873  MISS:   15567665  HIT %:    29.4385  MISS %:    70.5615   MPKI: 77.8383
L0D LOAD      NON_SPEC    ACCESS:    1990762  HIT:     707505  MISS:    1283257  HIT %:    35.5394  MISS %:    64.4606   MPKI: 6.41628
L0D LOAD      SPEC        ACCESS:   20071776  HIT:    5787368  MISS:   14284408  HIT %:    28.8334  MISS %:    71.1666   MPKI: 71.422
L0D PREFETCH  REQUESTED:          0  ISSUED:          0  USEFUL:          0  USELESS:          0
L0D USEFUL LOAD PREFETCHES:          0 PREFETCH ISSUED TO LOWER LEVEL:          0  ACCURACY: -nan
L0D TIMELY PREFETCHES:          0 LATE PREFETCHES: 0 DROPPED PREFETCHES: 0
L0D COMMIT LATE PREFETCHES: 0 MISSED OPPORTUNITY: 0 LATE IN PQ: 0 UNCOVERED: 0
L0D COMMIT LATE MSHR PREFETCHES: 0
L0D MPKI TOTAL: 98.7464 MSHR LATE: 0 PQ LATE: 0 COMMIT LATE: 0 MISSED OPPORTUNITY: 0 UNCOVERED: 0
L0D PREFETCHES SAME FILL-ORIGIN LEVEL: 0 DIFFERENT FILL-ORIGIN LEVEL: 0
L0D AVERAGE MISS LATENCY: 91.3143 cycles
L0D AVERAGE MISS LATENCY LOAD: 91.3143 cycles
L0D AVERAGE MISS LATENCY PREFETCH: -nan cycles
L0D AVERAGE MSHR OCCUPANCY: 1.84677
L0D MSHR FULL: 0.0687361
L0D RQ	ACCESS:   47986662	FORWARD:          0	MERGED:   21742516	TO_CACHE:   26244146
L0D WQ	ACCESS:   36967904	FORWARD:          0	MERGED:          0	TO_CACHE:   36967904

L1D SPEC fills:          0  NON-SPEC fills:      80696
L1D Test counter :    1981248
L1D Leapfrog:          0
L1D MSHR merge:     595877
L1D TOTAL     ACCESS:   71743531  HIT:   49992080  MISS:   21751451  HIT %:    69.6817  MISS %:    30.3183   MPKI: 108.757
L1D LOAD      TOTAL       ACCESS:   15560014  HIT:   13421787  MISS:    2138227  HIT %:    86.2582  MISS %:    13.7418   MPKI: 10.6911
L1D LOAD      NON_SPEC    ACCESS:    1279905  HIT:    1199209  MISS:      80696  HIT %:    93.6952  MISS %:    6.30484   MPKI: 0.40348
L1D LOAD      SPEC        ACCESS:   14280109  HIT:   12222578  MISS:    2057531  HIT %:    85.5916  MISS %:    14.4084   MPKI: 10.2877
L1D RFO       NON_SPEC    ACCESS:   36782523  HIT:   27789712  MISS:    8992811  HIT %:    75.5514  MISS %:    24.4486   MPKI: 44.9641
L1D PREFETCH  NON_SPEC    ACCESS:   15108828  HIT:    6744506  MISS:    8364322  HIT %:    44.6395  MISS %:    55.3605   MPKI: 41.8216
L1D COMMIT LOAD NON_SPEC    ACCESS:    2224481  HIT:    1973172  MISS:     251309  HIT %:    88.7026  MISS %:    11.2974   MPKI: 1.25654
L1D COMMIT WRITE NON_SPEC    ACCESS:    2067685  HIT:      62903  MISS:    2004782  HIT %:    3.04219  MISS %:    96.9578   MPKI: 10.0239
L1D PREFETCH  REQUESTED:   31412999  ISSUED:   17695615  USEFUL:     398457  USELESS:    7965877
L1D USEFUL LOAD PREFETCHES:     398457 PREFETCH ISSUED TO LOWER LEVEL:    9898225  ACCURACY: 4.02554
L1D TIMELY PREFETCHES:     398457 LATE PREFETCHES: 634701 DROPPED PREFETCHES: 0
L1D COMMIT LATE PREFETCHES: 0 MISSED OPPORTUNITY: 0 LATE IN PQ: 0 UNCOVERED: 0
L1D COMMIT LATE MSHR PREFETCHES: 0
L1D MPKI TOTAL: 10.7294 MSHR LATE: 3.1735 PQ LATE: 0 COMMIT LATE: 0 MISSED OPPORTUNITY: 0 UNCOVERED: 0
L1D PREFETCHES SAME FILL-ORIGIN LEVEL: 9898225 DIFFERENT FILL-ORIGIN LEVEL: 0
L1D AVERAGE MISS LATENCY: 229.464 cycles
L1D AVERAGE MISS LATENCY LOAD: 478.68 cycles
L1D AVERAGE MISS LATENCY PREFETCH: 201.312 cycles
L1D AVERAGE MSHR OCCUPANCY: 15.4018
L1D MSHR FULL: 0.919952
L1D RQ	ACCESS:   27553199	FORWARD:          0	MERGED:    9760369	TO_CACHE:   17792828
L1D WQ	ACCESS:   39035075	FORWARD:          2	MERGED:      49125	TO_CACHE:   38985950
L1D PQ	ACCESS:   17695615	FORWARD:          0	MERGED:      56580	TO_CACHE:   17639035

L1D UNIQUE REGIONS ACCESSED: 0
L1D REGIONS CONFLICTS: 0
L1D Cross Page Prefetch Requests: 0
L1D Same Page Prefetch Requests: 22871138
L1D ROI Sum of L1D PQ occupancy: 2571516922
L1D PREFETCHES PUSHED FROM L2C: 0
L1I SPEC fills:          0  NON-SPEC fills:          0
L1I Test counter :          0
L1I Leapfrog:          0
L1I MSHR merge:          0
L1I TOTAL     ACCESS:   34860470  HIT:   34860470  MISS:          0  HIT %:        100  MISS %:          0   MPKI: 0
L1I LOAD      TOTAL       ACCESS:   34860470  HIT:   34860470  MISS:          0  HIT %:        100  MISS %:          0   MPKI: 0
L1I LOAD      NON_SPEC    ACCESS:   34860470  HIT:   34860470  MISS:          0  HIT %:        100  MISS %:          0   MPKI: 0
L1I PREFETCH  REQUESTED:          0  ISSUED:          0  USEFUL:          0  USELESS:          0
L1I USEFUL LOAD PREFETCHES:          0 PREFETCH ISSUED TO LOWER LEVEL:          0  ACCURACY: -nan
L1I TIMELY PREFETCHES:          0 LATE PREFETCHES: 0 DROPPED PREFETCHES: 0
L1I COMMIT LATE PREFETCHES: 0 MISSED OPPORTUNITY: 0 LATE IN PQ: 0 UNCOVERED: 0
L1I COMMIT LATE MSHR PREFETCHES: 0
L1I MPKI TOTAL: 0 MSHR LATE: 0 PQ LATE: 0 COMMIT LATE: 0 MISSED OPPORTUNITY: 0 UNCOVERED: 0
L1I PREFETCHES SAME FILL-ORIGIN LEVEL: 0 DIFFERENT FILL-ORIGIN LEVEL: 0
L1I AVERAGE MISS LATENCY: -nan cycles
L1I AVERAGE MISS LATENCY LOAD: -nan cycles
L1I AVERAGE MISS LATENCY PREFETCH: -nan cycles
L1I AVERAGE MSHR OCCUPANCY: 0
L1I MSHR FULL: 0
L1I RQ	ACCESS:   50525530	FORWARD:          0	MERGED:   15665058	TO_CACHE:   34860472

BTB SPEC fills:          0  NON-SPEC fills:          0
BTB Test counter :          0
BTB Leapfrog:          0
BTB MSHR merge:          0
BTB TOTAL     ACCESS:    3614432  HIT:    3614426  MISS:          6  HIT %:    99.9998  MISS %: 0.000166001   MPKI: 3e-05
BTB BRANCH_DIRECT_JUMP	ACCESS:     592790  HIT:     592789  MISS:          1
BTB BRANCH_INDIRECT	ACCESS:          0  HIT:          0  MISS:          0
BTB BRANCH_CONDITIONAL	ACCESS:    3021642  HIT:    3021637  MISS:          5
BTB BRANCH_DIRECT_CALL	ACCESS:          0  HIT:          0  MISS:          0
BTB BRANCH_INDIRECT_CALL	ACCESS:          0  HIT:          0  MISS:          0
BTB BRANCH_RETURN	ACCESS:          0  HIT:          0  MISS:          0
BTB BRANCH_OTHER ACCESS:          0  HIT:          0  MISS:          0

L2C SPEC fills:          0  NON-SPEC fills:      20831
L2C Test counter :    1966946
L2C Leapfrog:          0
L2C MSHR merge:          0
L2C TOTAL     ACCESS:   35919413  HIT:   24754015  MISS:   11165398  HIT %:    68.9154  MISS %:    31.0846   MPKI: 55.827
L2C LOAD      TOTAL       ACCESS:    1549747  HIT:      75680  MISS:    1474067  HIT %:    4.88338  MISS %:    95.1166   MPKI: 7.37033
L2C LOAD      NON_SPEC    ACCESS:      21318  HIT:        487  MISS:      20831  HIT %:    2.28445  MISS %:    97.7155   MPKI: 0.104155
L2C LOAD      SPEC        ACCESS:    1528429  HIT:      75193  MISS:    1453236  HIT %:    4.91963  MISS %:    95.0804   MPKI: 7.26618
L2C RFO       NON_SPEC    ACCESS:    8093491  HIT:    4421123  MISS:    3672368  HIT %:    54.6257  MISS %:    45.3743   MPKI: 18.3618
L2C PREFETCH  NON_SPEC    ACCESS:    9898219  HIT:    5205559  MISS:    4692660  HIT %:    52.5909  MISS %:    47.4091   MPKI: 23.4633
L2C WRITEBACK NON_SPEC    ACCESS:   13441957  HIT:   13438749  MISS:       3208  HIT %:    99.9761  MISS %:  0.0238656   MPKI: 0.01604
L2C CLEAN_EVICTION NON_SPEC    ACCESS:    1981070  HIT:     876934  MISS:    1104136  HIT %:    44.2657  MISS %:    55.7343   MPKI: 5.52068
L2C COMMIT LOAD NON_SPEC    ACCESS:     204835  HIT:       4815  MISS:     200020  HIT %:    2.35067  MISS %:    97.6493   MPKI: 1.0001
L2C LOAD TRANSLATION NON_SPEC    ACCESS:     750094  HIT:     731155  MISS:      18939  HIT %:    97.4751  MISS %:    2.52488   MPKI: 0.094695
L2C PREFETCH  REQUESTED:          0  ISSUED:          0  USEFUL:    1414054  USELESS:    3278898
L2C USEFUL LOAD PREFETCHES:    1414054 PREFETCH ISSUED TO LOWER LEVEL:    4692666  ACCURACY: 30.1333
L2C TIMELY PREFETCHES:    1414054 LATE PREFETCHES: 0 DROPPED PREFETCHES: 0
L2C COMMIT LATE PREFETCHES: 0 MISSED OPPORTUNITY: 0 LATE IN PQ: 0 UNCOVERED: 0
L2C COMMIT LATE MSHR PREFETCHES: 0
L2C MPKI TOTAL: 7.37033 MSHR LATE: 0 PQ LATE: 0 COMMIT LATE: 0 MISSED OPPORTUNITY: 0 UNCOVERED: 0
L2C PREFETCHES SAME FILL-ORIGIN LEVEL: 0 DIFFERENT FILL-ORIGIN LEVEL: 0
L2C AVERAGE MISS LATENCY: 474.798 cycles
L2C AVERAGE MISS LATENCY LOAD: 469.498 cycles
L2C AVERAGE MISS LATENCY PREFETCH: 520.521 cycles
L2C AVERAGE MSHR OCCUPANCY: 11.0919
L2C MSHR FULL: 0
L2C RQ	ACCESS:   10598542	FORWARD:          0	MERGED:          0	TO_CACHE:   10598167
L2C WQ	ACCESS:   15423205	FORWARD:        375	MERGED:        178	TO_CACHE:   15423027
L2C PQ	ACCESS:    9898225	FORWARD:          0	MERGED:          0	TO_CACHE:    9898225

L2C Instructions Evicting Data 0
L2C Translations Evicting Data 18861
L2C Data Evicting Data 8569417
L2C Instructions Evicting Instructions 0
L2C Translations Evicting Instructions 0
L2C Data Evicting Instructions 0
L2C Instructions Evicting Translations 0
L2C Translations Evicting Translations 78
L2C Data Evicting Translations 16462
L2C Dense regions hint from L2: 0
PSCL5 SPEC fills:          0  NON-SPEC fills:          0
PSCL5 Test counter :          0
PSCL5 Leapfrog:          0
PSCL5 MSHR merge:          0
PSCL5 TOTAL     ACCESS:          0  HIT:          0  MISS:          0  HIT %:       -nan  MISS %:       -nan   MPKI: 0
PSCL5 PREFETCH  REQUESTED:          0  ISSUED:          0  USEFUL:          0  USELESS:          0
PSCL5 USEFUL LOAD PREFETCHES:          0 PREFETCH ISSUED TO LOWER LEVEL:          0  ACCURACY: -nan
PSCL5 TIMELY PREFETCHES:          0 LATE PREFETCHES: 0 DROPPED PREFETCHES: 0
PSCL5 COMMIT LATE PREFETCHES: 0 MISSED OPPORTUNITY: 0 LATE IN PQ: 0 UNCOVERED: 0
PSCL5 COMMIT LATE MSHR PREFETCHES: 0
PSCL5 MPKI TOTAL: 0 MSHR LATE: 0 PQ LATE: 0 COMMIT LATE: 0 MISSED OPPORTUNITY: 0 UNCOVERED: 0
PSCL5 PREFETCHES SAME FILL-ORIGIN LEVEL: 0 DIFFERENT FILL-ORIGIN LEVEL: 0

PSCL4 SPEC fills:          0  NON-SPEC fills:          0
PSCL4 Test counter :          0
PSCL4 Leapfrog:          0
PSCL4 MSHR merge:          0
PSCL4 TOTAL     ACCESS:          0  HIT:          0  MISS:          0  HIT %:       -nan  MISS %:       -nan   MPKI: 0
PSCL4 PREFETCH  REQUESTED:          0  ISSUED:          0  USEFUL:          0  USELESS:          0
PSCL4 USEFUL LOAD PREFETCHES:          0 PREFETCH ISSUED TO LOWER LEVEL:          0  ACCURACY: -nan
PSCL4 TIMELY PREFETCHES:          0 LATE PREFETCHES: 0 DROPPED PREFETCHES: 0
PSCL4 COMMIT LATE PREFETCHES: 0 MISSED OPPORTUNITY: 0 LATE IN PQ: 0 UNCOVERED: 0
PSCL4 COMMIT LATE MSHR PREFETCHES: 0
PSCL4 MPKI TOTAL: 0 MSHR LATE: 0 PQ LATE: 0 COMMIT LATE: 0 MISSED OPPORTUNITY: 0 UNCOVERED: 0
PSCL4 PREFETCHES SAME FILL-ORIGIN LEVEL: 0 DIFFERENT FILL-ORIGIN LEVEL: 0

PSCL3 SPEC fills:          0  NON-SPEC fills:          0
PSCL3 Test counter :          0
PSCL3 Leapfrog:          0
PSCL3 MSHR merge:          0
PSCL3 TOTAL     ACCESS:          0  HIT:          0  MISS:          0  HIT %:       -nan  MISS %:       -nan   MPKI: 0
PSCL3 PREFETCH  REQUESTED:          0  ISSUED:          0  USEFUL:          0  USELESS:          0
PSCL3 USEFUL LOAD PREFETCHES:          0 PREFETCH ISSUED TO LOWER LEVEL:          0  ACCURACY: -nan
PSCL3 TIMELY PREFETCHES:          0 LATE PREFETCHES: 0 DROPPED PREFETCHES: 0
PSCL3 COMMIT LATE PREFETCHES: 0 MISSED OPPORTUNITY: 0 LATE IN PQ: 0 UNCOVERED: 0
PSCL3 COMMIT LATE MSHR PREFETCHES: 0
PSCL3 MPKI TOTAL: 0 MSHR LATE: 0 PQ LATE: 0 COMMIT LATE: 0 MISSED OPPORTUNITY: 0 UNCOVERED: 0
PSCL3 PREFETCHES SAME FILL-ORIGIN LEVEL: 0 DIFFERENT FILL-ORIGIN LEVEL: 0

PSCL2 SPEC fills:          0  NON-SPEC fills:          0
PSCL2 Test counter :          0
PSCL2 Leapfrog:          0
PSCL2 MSHR merge:          0
PSCL2 TOTAL     ACCESS:          0  HIT:          0  MISS:          0  HIT %:       -nan  MISS %:       -nan   MPKI: 0
PSCL2 PREFETCH  REQUESTED:          0  ISSUED:          0  USEFUL:          0  USELESS:          0
PSCL2 USEFUL LOAD PREFETCHES:          0 PREFETCH ISSUED TO LOWER LEVEL:          0  ACCURACY: -nan
PSCL2 TIMELY PREFETCHES:          0 LATE PREFETCHES: 0 DROPPED PREFETCHES: 0
PSCL2 COMMIT LATE PREFETCHES: 0 MISSED OPPORTUNITY: 0 LATE IN PQ: 0 UNCOVERED: 0
PSCL2 COMMIT LATE MSHR PREFETCHES: 0
PSCL2 MPKI TOTAL: 0 MSHR LATE: 0 PQ LATE: 0 COMMIT LATE: 0 MISSED OPPORTUNITY: 0 UNCOVERED: 0
PSCL2 PREFETCHES SAME FILL-ORIGIN LEVEL: 0 DIFFERENT FILL-ORIGIN LEVEL: 0

LLC SPEC fills:          0  NON-SPEC fills:      20809
LLC Test counter :    1959098
LLC Leapfrog:          0
LLC MSHR merge:          0
LLC TOTAL     ACCESS:   19289876  HIT:    8220748  MISS:   11069128  HIT %:    42.6169  MISS %:    57.3831   MPKI: 55.3456
LLC LOAD      TOTAL       ACCESS:    1474061  HIT:       2930  MISS:    1471131  HIT %:   0.198771  MISS %:    99.8012   MPKI: 7.35565
LLC LOAD      NON_SPEC    ACCESS:      20831  HIT:         22  MISS:      20809  HIT %:   0.105612  MISS %:    99.8944   MPKI: 0.104045
LLC LOAD      SPEC        ACCESS:    1453230  HIT:       2908  MISS:    1450322  HIT %:   0.200106  MISS %:    99.7999   MPKI: 7.25161
LLC RFO       NON_SPEC    ACCESS:    3672326  HIT:      49784  MISS:    3622542  HIT %:    1.35565  MISS %:    98.6443   MPKI: 18.1127
LLC PREFETCH  NON_SPEC    ACCESS:    4692619  HIT:      37216  MISS:    4655403  HIT %:   0.793075  MISS %:    99.2069   MPKI: 23.277
LLC WRITEBACK NON_SPEC    ACCESS:    7264965  HIT:    7264138  MISS:        827  HIT %:    99.9886  MISS %:  0.0113834   MPKI: 0.004135
LLC CLEAN_EVICTION NON_SPEC    ACCESS:    1966946  HIT:     866676  MISS:    1100270  HIT %:     44.062  MISS %:     55.938   MPKI: 5.50135
LLC COMMIT LOAD NON_SPEC    ACCESS:     200020  HIT:          2  MISS:     200018  HIT %:  0.0009999  MISS %:     99.999   MPKI: 1.00009
LLC LOAD TRANSLATION NON_SPEC    ACCESS:      18939  HIT:          2  MISS:      18937  HIT %:  0.0105602  MISS %:    99.9894   MPKI: 0.094685
LLC PREFETCH  REQUESTED:          0  ISSUED:          0  USEFUL:      16791  USELESS:    4644225
LLC USEFUL LOAD PREFETCHES:      16791 PREFETCH ISSUED TO LOWER LEVEL:    4655409  ACCURACY: 0.360677
LLC TIMELY PREFETCHES:      16791 LATE PREFETCHES: 0 DROPPED PREFETCHES: 0
LLC COMMIT LATE PREFETCHES: 0 MISSED OPPORTUNITY: 0 LATE IN PQ: 0 UNCOVERED: 0
LLC COMMIT LATE MSHR PREFETCHES: 0
LLC MPKI TOTAL: 7.35565 MSHR LATE: 0 PQ LATE: 0 COMMIT LATE: 0 MISSED OPPORTUNITY: 0 UNCOVERED: 0
LLC PREFETCHES SAME FILL-ORIGIN LEVEL: 0 DIFFERENT FILL-ORIGIN LEVEL: 0
LLC AVERAGE MISS LATENCY: 452.266 cycles
LLC AVERAGE MISS LATENCY LOAD: 448.726 cycles
LLC AVERAGE MISS LATENCY PREFETCH: 493.821 cycles
LLC AVERAGE MSHR OCCUPANCY: 10.4842
LLC MSHR FULL: 0
LLC RQ	ACCESS:    5365394	FORWARD:          0	MERGED:          0	TO_CACHE:    5365346
LLC WQ	ACCESS:    9231910	FORWARD:         89	MERGED:          0	TO_CACHE:    9231910
LLC PQ	ACCESS:    4692666	FORWARD:          0	MERGED:          0	TO_CACHE:    4692625

LLC Dense regions hint to LLC: 0

RAW hits: 4262533
Loads Generated: 52249195
Loads sent to L1D: 47986662
Stores Generated: 36967887
Stores sent to L1D: 36967904
Major fault: 0 Minor fault: 96698
Allocated PAGES: 96698
Total Load insts: 59510827
Total Non-spec loads: 2552726
Percentage of speculative loads: 95.7105

LeapFrogging counter: 16975151
Commit hits: 14064295 miss: 31765167
Commit hit %: 30.6883 miss %: 69.3117
Commits not translated: 0
Loads retired: 2138227
Stores retired: 36967904
Cache fills: 2138227
L1D response latency: 478.68 cycles
Load retirement latency: 834.517 cycles
OOO test counter: 0
Discarded buffer inserts: 14064295 hits: 285906 hit %: 2.03285

stream: 
stream:times selected: 52941308
stream:pref_filled: 6066733
stream:pref_useful: 208883
stream:pref_late: 71692
stream:misses: 992314
stream:misses_by_poll: 0

CS: 
CS:times selected: 8574
CS:pref_filled: 1306
CS:pref_useful: 125
CS:pref_late: 4
CS:misses: 221
CS:misses_by_poll: 15

CPLX: 
CPLX:times selected: 52933509
CPLX:pref_filled: 5175980
CPLX:pref_useful: 467593
CPLX:pref_late: 77409
CPLX:misses: 19301291
CPLX:misses_by_poll: 226168

NL_L1: 
NL:times selected: 1796
NL:pref_filled: 97
NL:pref_useful: 6
NL:pref_late: 3
NL:misses: 411
NL:misses_by_poll: 0

total selections: 105885187
total_filled: 8364322
total_useful: 398457
total_late: 151008
total_polluted: 226183
total_misses_after_warmup: 18119300
conflicts: 824371
Degree Incremented Times: 0
Degree Decremented Times: 871338

L1 IP Table Write Accesses: 84602323
L1 IP Table Read Accesses: 83777952
L1 RST Write Accesses: 42502349
L1 RST Read Accesses: 85004698
L1 CSPT Write Accesses: 42502349
L1 CSPT Read Accesses: 84999359
L1 RR Filter Tag Write Accesses: 31412999
L1 RR Filter Tag Read Accesses: 1914382292
L1 IP Table Tag Write Accesses: 89159406
L1 IP Table Tag Read Accesses: 89159406
L1 RST Tag Write Accesses: 0
L1 RST Tag Read Accesses: 382485254
L1 RR Filter Write Accesses: 0
L1 RR Filter Read Accesses: 80703436
test: 3931536

DRAM Statistics
 CHANNEL 0
 RQ ROW_BUFFER_HIT:     911815  ROW_BUFFER_MISS:    9056216
 DBUS_CONGESTED:         65
 WQ ROW_BUFFER_HIT:    2070038  ROW_BUFFER_MISS:    7093842  FULL:      11924

 AVG_CONGESTED_CYCLE: 4
 All warmup complete: 2
Channel 0 Bank busy for read cycles: 0
Channel 0 Bank busy for write cycles: 0
Channel 0
Rank 0
0banks busy for read cycles: 29816287
0banks busy for write cycles: 31929
1banks busy for read cycles: 12550529
1banks busy for write cycles: 3856251
2banks busy for read cycles: 15711449
2banks busy for write cycles: 3069386
3banks busy for read cycles: 26983534
3banks busy for write cycles: 2856872
4banks busy for read cycles: 32244410
4banks busy for write cycles: 2869434
5banks busy for read cycles: 47166934
5banks busy for write cycles: 3060530
6banks busy for read cycles: 57837615
6banks busy for write cycles: 3766755
7banks busy for read cycles: 65271949
7banks busy for write cycles: 15609990
8banks busy for read cycles: 37100855
8banks busy for write cycles: 162728630

CPU 0 Branch Prediction Accuracy: 97.0917% MPKI: 0.525585 Average ROB Occupancy at Mispredict: 227.33
Branch types
NOT_BRANCH: 196385227 98.1926%
BRANCH_DIRECT_JUMP: 592790 0.296395%
BRANCH_INDIRECT: 0 0%
BRANCH_CONDITIONAL: 3021642 1.51082%
BRANCH_DIRECT_CALL: 0 0%
BRANCH_INDIRECT_CALL: 0 0%
BRANCH_RETURN: 0 0%
BRANCH_OTHER: 0 0%

DRAM PAGES: 1048576
Allocated PAGES: 96698
