
*** ChampSim Multicore Out-of-Order Simulator ***

Warmup Instructions: 50000000
Simulation Instructions: 200000000
Number of CPUs: 1
LLC sets: 2048
LLC ways: 16
L0D sets: 16
L0D ways: 2
ROB size: 352
LQ size: 128
SQ size: 72
Secure Berti: OFF
Berti: OFF
Berti Fill: OFF
On commit prefetching: ON
Hit-based filter: ON
Time-guarding: ON
Free-slotting: ON
Leap-frogging: ON
Train prefetcher on L0D bypass: OFF
No translation penalty for prefetchers: OFF
Prefetch to L0D only: OFF
Prefetch to L1D only: OFF
Clean evictions: ON
Commit loads: ON
Commit write: ON
Fill commit loads to L2C, LLC: ON
DRAM IO FREQUENCY: 6400
ROB SIZE: 352
Off-chip DRAM Size: 4096 MB Channels: 1 Width: 64-bit Data Rate: 6400 MT/s
CPU 0 runs /home/sumon/secure_berti/GhostMinion/../../traces/spec/619.lbm_s-3766B.champsimtrace.xz
.xz
BTB has LRU replacement policy
ITLB has LRU replacement policy
DTLB has LRU replacement policy
STLB has LRU replacement policy
L1I has LRU replacement policy
L0D has LRU replacement policy
IP Table Entries: 1024
CSPT Entries: 128
RR_ENTRIES: 32
RST_ENTRIES: 8
L1D has LRU replacement policy
L2C has LRU replacement policy
LLC has LRU replacement policy
Heartbeat CPU 0 instructions: 10000000 cycles: 2863127 heartbeat IPC: 3.49268 cumulative IPC: 3.49268 (Simulation time: 0 hr 0 min 53 sec) 
Heartbeat CPU 0 instructions: 20000002 cycles: 5729909 heartbeat IPC: 3.48823 cumulative IPC: 3.49046 (Simulation time: 0 hr 1 min 37 sec) 
Heartbeat CPU 0 instructions: 30000000 cycles: 8592983 heartbeat IPC: 3.49275 cumulative IPC: 3.49122 (Simulation time: 0 hr 2 min 21 sec) 
Heartbeat CPU 0 instructions: 40000003 cycles: 11459939 heartbeat IPC: 3.48802 cumulative IPC: 3.49042 (Simulation time: 0 hr 3 min 5 sec) 
Heartbeat CPU 0 instructions: 50000000 cycles: 14327042 heartbeat IPC: 3.48784 cumulative IPC: 3.4899 (Simulation time: 0 hr 3 min 49 sec) 

Warmup complete CPU 0 instructions: 50000004 cycles: 14327043 (Simulation time: 0 hr 3 min 49 sec) 

Heartbeat CPU 0 instructions: 60000000 cycles: 25870026 heartbeat IPC: 0.866327 cumulative IPC: 0.866327 (Simulation time: 0 hr 4 min 29 sec) 
Heartbeat CPU 0 instructions: 70000000 cycles: 37664292 heartbeat IPC: 0.84787 cumulative IPC: 0.856999 (Simulation time: 0 hr 5 min 10 sec) 
Heartbeat CPU 0 instructions: 80000003 cycles: 49288306 heartbeat IPC: 0.860288 cumulative IPC: 0.858093 (Simulation time: 0 hr 5 min 51 sec) 
Heartbeat CPU 0 instructions: 90000001 cycles: 61089850 heartbeat IPC: 0.847347 cumulative IPC: 0.855381 (Simulation time: 0 hr 6 min 32 sec) 
Heartbeat CPU 0 instructions: 100000003 cycles: 72695576 heartbeat IPC: 0.861644 cumulative IPC: 0.856626 (Simulation time: 0 hr 7 min 13 sec) 
Heartbeat CPU 0 instructions: 110000000 cycles: 85026988 heartbeat IPC: 0.810937 cumulative IPC: 0.848657 (Simulation time: 0 hr 7 min 55 sec) 
Heartbeat CPU 0 instructions: 120000003 cycles: 97782609 heartbeat IPC: 0.783968 cumulative IPC: 0.83877 (Simulation time: 0 hr 8 min 38 sec) 
Heartbeat CPU 0 instructions: 130000000 cycles: 113079658 heartbeat IPC: 0.653721 cumulative IPC: 0.810105 (Simulation time: 0 hr 9 min 25 sec) 
Heartbeat CPU 0 instructions: 140000002 cycles: 130255398 heartbeat IPC: 0.582217 cumulative IPC: 0.776342 (Simulation time: 0 hr 10 min 14 sec) 
Heartbeat CPU 0 instructions: 150000002 cycles: 150377673 heartbeat IPC: 0.496962 cumulative IPC: 0.73502 (Simulation time: 0 hr 11 min 8 sec) 
Heartbeat CPU 0 instructions: 160000003 cycles: 175615639 heartbeat IPC: 0.396228 cumulative IPC: 0.682007 (Simulation time: 0 hr 12 min 10 sec) 
Heartbeat CPU 0 instructions: 170000003 cycles: 206290773 heartbeat IPC: 0.325997 cumulative IPC: 0.625118 (Simulation time: 0 hr 13 min 20 sec) 
Heartbeat CPU 0 instructions: 180000003 cycles: 239548961 heartbeat IPC: 0.300678 cumulative IPC: 0.577208 (Simulation time: 0 hr 14 min 32 sec) 
Heartbeat CPU 0 instructions: 190000001 cycles: 274559575 heartbeat IPC: 0.285628 cumulative IPC: 0.53798 (Simulation time: 0 hr 15 min 48 sec) 
Heartbeat CPU 0 instructions: 200000000 cycles: 306641178 heartbeat IPC: 0.311705 cumulative IPC: 0.513147 (Simulation time: 0 hr 16 min 56 sec) 
Heartbeat CPU 0 instructions: 210000003 cycles: 336675575 heartbeat IPC: 0.332952 cumulative IPC: 0.496357 (Simulation time: 0 hr 18 min 0 sec) 
Heartbeat CPU 0 instructions: 220000000 cycles: 363749562 heartbeat IPC: 0.369358 cumulative IPC: 0.486517 (Simulation time: 0 hr 18 min 59 sec) 
Heartbeat CPU 0 instructions: 230000000 cycles: 390420669 heartbeat IPC: 0.374938 cumulative IPC: 0.478604 (Simulation time: 0 hr 19 min 56 sec) 
Heartbeat CPU 0 instructions: 240000002 cycles: 415750551 heartbeat IPC: 0.394791 cumulative IPC: 0.473316 (Simulation time: 0 hr 20 min 51 sec) 
Heartbeat CPU 0 instructions: 250000000 cycles: 441177007 heartbeat IPC: 0.393291 cumulative IPC: 0.468549 (Simulation time: 0 hr 21 min 46 sec) 
Finished CPU 0 instructions: 200000000 cycles: 426849965 cumulative IPC: 0.468549 (Simulation time: 0 hr 21 min 46 sec) 
 Instruction ID: 250000075

ChampSim completed all CPUs

Region of Interest Statistics

CPU 0 cumulative IPC: 0.468549 instructions: 200000000 cycles: 426849965
ITLB SPEC fills:          0  NON-SPEC fills:          0
ITLB Test counter :          0
ITLB Leapfrog:          0
ITLB MSHR merge:          0
ITLB TOTAL     ACCESS:   26740423  HIT:   26740423  MISS:          0  HIT %:        100  MISS %:          0   MPKI: 0
ITLB LOAD TRANSLATION NON_SPEC    ACCESS:   26740423  HIT:   26740423  MISS:          0  HIT %:        100  MISS %:          0   MPKI: 0
ITLB PREFETCH  REQUESTED:          0  ISSUED:          0  USEFUL:          0  USELESS:          0
ITLB USEFUL LOAD PREFETCHES:          0 PREFETCH ISSUED TO LOWER LEVEL:          0  ACCURACY: -nan
ITLB TIMELY PREFETCHES:          0 LATE PREFETCHES: 0 DROPPED PREFETCHES: 0
ITLB COMMIT LATE PREFETCHES: 0 MISSED OPPORTUNITY: 0 LATE IN PQ: 0 UNCOVERED: 0
ITLB COMMIT LATE MSHR PREFETCHES: 0
ITLB MPKI TOTAL: 0 MSHR LATE: 0 PQ LATE: 0 COMMIT LATE: 0 MISSED OPPORTUNITY: 0 UNCOVERED: 0
ITLB PREFETCHES SAME FILL-ORIGIN LEVEL: 0 DIFFERENT FILL-ORIGIN LEVEL: 0
ITLB AVERAGE MISS LATENCY: -nan cycles
ITLB AVERAGE MISS LATENCY LOAD: -nan cycles
ITLB AVERAGE MISS LATENCY PREFETCH: -nan cycles
ITLB AVERAGE MSHR OCCUPANCY: 0
ITLB MSHR FULL: 0
ITLB RQ	ACCESS:   34659304	FORWARD:          0	MERGED:    7918881	TO_CACHE:   26740423

DTLB SPEC fills:          0  NON-SPEC fills:          0
DTLB Test counter :          0
DTLB Leapfrog:          0
DTLB MSHR merge:          0
DTLB TOTAL     ACCESS:   39848724  HIT:   39623011  MISS:     225713  HIT %:    99.4336  MISS %:   0.566425   MPKI: 1.12857
DTLB LOAD TRANSLATION NON_SPEC    ACCESS:   39848724  HIT:   39623011  MISS:     225713  HIT %:    99.4336  MISS %:   0.566425   MPKI: 1.12857
DTLB PREFETCH  REQUESTED:          0  ISSUED:          0  USEFUL:          0  USELESS:          0
DTLB USEFUL LOAD PREFETCHES:          0 PREFETCH ISSUED TO LOWER LEVEL:          0  ACCURACY: -nan
DTLB TIMELY PREFETCHES:          0 LATE PREFETCHES: 0 DROPPED PREFETCHES: 0
DTLB COMMIT LATE PREFETCHES: 0 MISSED OPPORTUNITY: 0 LATE IN PQ: 0 UNCOVERED: 0
DTLB COMMIT LATE MSHR PREFETCHES: 0
DTLB MPKI TOTAL: 0 MSHR LATE: 0 PQ LATE: 0 COMMIT LATE: 0 MISSED OPPORTUNITY: 0 UNCOVERED: 0
DTLB PREFETCHES SAME FILL-ORIGIN LEVEL: 0 DIFFERENT FILL-ORIGIN LEVEL: 0
DTLB AVERAGE MISS LATENCY: 127.65 cycles
DTLB AVERAGE MISS LATENCY LOAD: -nan cycles
DTLB AVERAGE MISS LATENCY PREFETCH: -nan cycles
DTLB AVERAGE MSHR OCCUPANCY: 0.0786706
DTLB MSHR FULL: 0
DTLB RQ	ACCESS:   61583595	FORWARD:          0	MERGED:   21646107	TO_CACHE:   39937488

STLB SPEC fills:          0  NON-SPEC fills:          0
STLB Test counter :          0
STLB Leapfrog:          0
STLB MSHR merge:          0
STLB TOTAL     ACCESS:    8102553  HIT:    7980083  MISS:     122470  HIT %:    98.4885  MISS %:     1.5115   MPKI: 0.61235
STLB LOAD TRANSLATION NON_SPEC    ACCESS:     225713  HIT:     103243  MISS:     122470  HIT %:    45.7408  MISS %:    54.2592   MPKI: 0.61235
STLB TRANSLATION FROM L1D PREFETCHER NON_SPEC    ACCESS:    7876840  HIT:    7876840  MISS:          0  HIT %:        100  MISS %:          0   MPKI: 0
STLB PREFETCH  REQUESTED:          0  ISSUED:          0  USEFUL:          0  USELESS:          0
STLB USEFUL LOAD PREFETCHES:          0 PREFETCH ISSUED TO LOWER LEVEL:          0  ACCURACY: -nan
STLB TIMELY PREFETCHES:          0 LATE PREFETCHES: 0 DROPPED PREFETCHES: 0
STLB COMMIT LATE PREFETCHES: 0 MISSED OPPORTUNITY: 0 LATE IN PQ: 0 UNCOVERED: 0
STLB COMMIT LATE MSHR PREFETCHES: 0
STLB MPKI TOTAL: 0 MSHR LATE: 0 PQ LATE: 0 COMMIT LATE: 0 MISSED OPPORTUNITY: 0 UNCOVERED: 0
STLB PREFETCHES SAME FILL-ORIGIN LEVEL: 0 DIFFERENT FILL-ORIGIN LEVEL: 0
STLB AVERAGE MISS LATENCY: 218.865 cycles
STLB AVERAGE MISS LATENCY LOAD: -nan cycles
STLB AVERAGE MISS LATENCY PREFETCH: -nan cycles
STLB AVERAGE MSHR OCCUPANCY: 0.0550999
STLB MSHR FULL: 0
STLB RQ	ACCESS:   16108415	FORWARD:          0	MERGED:    8003159	TO_CACHE:    8105256

STLB Hit, L1D data hit: 0
STLB Hit, L2C data hit: 0
STLB Hit, LLC data hit: 0
STLB Hit, LLC data miss: 0
STLB STLB hints to L2: 0
L0D SPEC fills:   14908695  NON-SPEC fills:          0
L0D TimeGuard Request with older TS:     103433 Restricted eviction:      10490 read:     980689
L0D Test counter :          0
L0D Leapfrog:          0
L0D MSHR merge:    3755613
L0D TOTAL     ACCESS:   23264124  HIT:    6959045  MISS:   16305079  HIT %:    29.9132  MISS %:    70.0868   MPKI: 81.5254
L0D LOAD      TOTAL       ACCESS:   23264124  HIT:    6959045  MISS:   16305079  HIT %:    29.9132  MISS %:    70.0868   MPKI: 81.5254
L0D LOAD      NON_SPEC    ACCESS:    2065747  HIT:     679853  MISS:    1385894  HIT %:    32.9108  MISS %:    67.0892   MPKI: 6.92947
L0D LOAD      SPEC        ACCESS:   21198377  HIT:    6279192  MISS:   14919185  HIT %:    29.6211  MISS %:    70.3789   MPKI: 74.5959
L0D PREFETCH  REQUESTED:          0  ISSUED:          0  USEFUL:          0  USELESS:          0
L0D USEFUL LOAD PREFETCHES:          0 PREFETCH ISSUED TO LOWER LEVEL:          0  ACCURACY: -nan
L0D TIMELY PREFETCHES:          0 LATE PREFETCHES: 0 DROPPED PREFETCHES: 0
L0D COMMIT LATE PREFETCHES: 0 MISSED OPPORTUNITY: 0 LATE IN PQ: 0 UNCOVERED: 0
L0D COMMIT LATE MSHR PREFETCHES: 0
L0D MPKI TOTAL: 100.303 MSHR LATE: 0 PQ LATE: 0 COMMIT LATE: 0 MISSED OPPORTUNITY: 0 UNCOVERED: 0
L0D PREFETCHES SAME FILL-ORIGIN LEVEL: 0 DIFFERENT FILL-ORIGIN LEVEL: 0
L0D AVERAGE MISS LATENCY: 64.1429 cycles
L0D AVERAGE MISS LATENCY LOAD: 64.1429 cycles
L0D AVERAGE MISS LATENCY PREFETCH: -nan cycles
L0D AVERAGE MSHR OCCUPANCY: 1.53728
L0D MSHR FULL: 0.0443275
L0D RQ	ACCESS:   45987887	FORWARD:          0	MERGED:   18968152	TO_CACHE:   27019735
L0D WQ	ACCESS:   34563860	FORWARD:          0	MERGED:          0	TO_CACHE:   34563860

L1D SPEC fills:          0  NON-SPEC fills:      88765
L1D Test counter :    1520388
L1D Leapfrog:          0
L1D MSHR merge:     609357
L1D TOTAL     ACCESS:   67899802  HIT:   50079094  MISS:   17820708  HIT %:    73.7544  MISS %:    26.2456   MPKI: 89.1035
L1D LOAD      TOTAL       ACCESS:   16299917  HIT:   14635229  MISS:    1664688  HIT %:    89.7871  MISS %:    10.2129   MPKI: 8.32344
L1D LOAD      NON_SPEC    ACCESS:    1383646  HIT:    1294881  MISS:      88765  HIT %:    93.5847  MISS %:     6.4153   MPKI: 0.443825
L1D LOAD      SPEC        ACCESS:   14916271  HIT:   13340348  MISS:    1575923  HIT %:    89.4349  MISS %:    10.5651   MPKI: 7.87962
L1D RFO       NON_SPEC    ACCESS:   34435812  HIT:   27964575  MISS:    6471237  HIT %:    81.2078  MISS %:    18.7922   MPKI: 32.3562
L1D PREFETCH  NON_SPEC    ACCESS:   13791902  HIT:    5817821  MISS:    7974081  HIT %:    42.1829  MISS %:    57.8171   MPKI: 39.8704
L1D COMMIT LOAD NON_SPEC    ACCESS:    1789725  HIT:    1619810  MISS:     169915  HIT %:    90.5061  MISS %:    9.49392   MPKI: 0.849575
L1D COMMIT WRITE NON_SPEC    ACCESS:    1582446  HIT:      41659  MISS:    1540787  HIT %:    2.63257  MISS %:    97.3674   MPKI: 7.70394
L1D PREFETCH  REQUESTED:   25080100  ISSUED:   15920203  USEFUL:     388757  USELESS:    7585512
L1D USEFUL LOAD PREFETCHES:     388757 PREFETCH ISSUED TO LOWER LEVEL:    9368257  ACCURACY: 4.14973
L1D TIMELY PREFETCHES:     388757 LATE PREFETCHES: 636118 DROPPED PREFETCHES: 0
L1D COMMIT LATE PREFETCHES: 0 MISSED OPPORTUNITY: 0 LATE IN PQ: 0 UNCOVERED: 0
L1D COMMIT LATE MSHR PREFETCHES: 0
L1D MPKI TOTAL: 8.34925 MSHR LATE: 3.18059 PQ LATE: 0 COMMIT LATE: 0 MISSED OPPORTUNITY: 0 UNCOVERED: 0
L1D PREFETCHES SAME FILL-ORIGIN LEVEL: 9368257 DIFFERENT FILL-ORIGIN LEVEL: 0
L1D AVERAGE MISS LATENCY: 217.833 cycles
L1D AVERAGE MISS LATENCY LOAD: 451.745 cycles
L1D AVERAGE MISS LATENCY PREFETCH: 195.69 cycles
L1D AVERAGE MSHR OCCUPANCY: 15.0723
L1D MSHR FULL: 0.880113
L1D RQ	ACCESS:   25541797	FORWARD:          0	MERGED:    7446514	TO_CACHE:   18095275
L1D WQ	ACCESS:   36145808	FORWARD:          8	MERGED:      37210	TO_CACHE:   36108598
L1D PQ	ACCESS:   15920203	FORWARD:          0	MERGED:      37501	TO_CACHE:   15882702

L1D UNIQUE REGIONS ACCESSED: 0
L1D REGIONS CONFLICTS: 0
L1D Cross Page Prefetch Requests: 0
L1D Same Page Prefetch Requests: 19299672
L1D ROI Sum of L1D PQ occupancy: 1814149189
L1D PREFETCHES PUSHED FROM L2C: 0
L1I SPEC fills:          0  NON-SPEC fills:          0
L1I Test counter :          0
L1I Leapfrog:          0
L1I MSHR merge:          0
L1I TOTAL     ACCESS:   34659302  HIT:   34659302  MISS:          0  HIT %:        100  MISS %:          0   MPKI: 0
L1I LOAD      TOTAL       ACCESS:   34659302  HIT:   34659302  MISS:          0  HIT %:        100  MISS %:          0   MPKI: 0
L1I LOAD      NON_SPEC    ACCESS:   34659302  HIT:   34659302  MISS:          0  HIT %:        100  MISS %:          0   MPKI: 0
L1I PREFETCH  REQUESTED:          0  ISSUED:          0  USEFUL:          0  USELESS:          0
L1I USEFUL LOAD PREFETCHES:          0 PREFETCH ISSUED TO LOWER LEVEL:          0  ACCURACY: -nan
L1I TIMELY PREFETCHES:          0 LATE PREFETCHES: 0 DROPPED PREFETCHES: 0
L1I COMMIT LATE PREFETCHES: 0 MISSED OPPORTUNITY: 0 LATE IN PQ: 0 UNCOVERED: 0
L1I COMMIT LATE MSHR PREFETCHES: 0
L1I MPKI TOTAL: 0 MSHR LATE: 0 PQ LATE: 0 COMMIT LATE: 0 MISSED OPPORTUNITY: 0 UNCOVERED: 0
L1I PREFETCHES SAME FILL-ORIGIN LEVEL: 0 DIFFERENT FILL-ORIGIN LEVEL: 0
L1I AVERAGE MISS LATENCY: -nan cycles
L1I AVERAGE MISS LATENCY LOAD: -nan cycles
L1I AVERAGE MISS LATENCY PREFETCH: -nan cycles
L1I AVERAGE MSHR OCCUPANCY: 0
L1I MSHR FULL: 0
L1I RQ	ACCESS:   49825017	FORWARD:          0	MERGED:   15165713	TO_CACHE:   34659304

BTB SPEC fills:          0  NON-SPEC fills:          0
BTB Test counter :          0
BTB Leapfrog:          0
BTB MSHR merge:          0
BTB TOTAL     ACCESS:    3122106  HIT:    3122100  MISS:          6  HIT %:    99.9998  MISS %: 0.000192178   MPKI: 3e-05
BTB BRANCH_DIRECT_JUMP	ACCESS:     397756  HIT:     397755  MISS:          1
BTB BRANCH_INDIRECT	ACCESS:          0  HIT:          0  MISS:          0
BTB BRANCH_CONDITIONAL	ACCESS:    2724350  HIT:    2724345  MISS:          5
BTB BRANCH_DIRECT_CALL	ACCESS:          0  HIT:          0  MISS:          0
BTB BRANCH_INDIRECT_CALL	ACCESS:          0  HIT:          0  MISS:          0
BTB BRANCH_RETURN	ACCESS:          0  HIT:          0  MISS:          0
BTB BRANCH_OTHER ACCESS:          0  HIT:          0  MISS:          0

L2C SPEC fills:          0  NON-SPEC fills:      18172
L2C Test counter :    1511442
L2C Leapfrog:          0
L2C MSHR merge:          0
L2C TOTAL     ACCESS:   29383537  HIT:   20470981  MISS:    8912556  HIT %:    69.6682  MISS %:    30.3318   MPKI: 44.5628
L2C LOAD      TOTAL       ACCESS:    1060253  HIT:      55369  MISS:    1004884  HIT %:    5.22224  MISS %:    94.7778   MPKI: 5.02442
L2C LOAD      NON_SPEC    ACCESS:      18558  HIT:        386  MISS:      18172  HIT %:    2.07997  MISS %:      97.92   MPKI: 0.09086
L2C LOAD      SPEC        ACCESS:    1041695  HIT:      54983  MISS:     986712  HIT %:    5.27822  MISS %:    94.7218   MPKI: 4.93356
L2C RFO       NON_SPEC    ACCESS:    5713171  HIT:    3186784  MISS:    2526387  HIT %:    55.7796  MISS %:    44.2204   MPKI: 12.6319
L2C PREFETCH  NON_SPEC    ACCESS:    9368252  HIT:    4888081  MISS:    4480171  HIT %:    52.1771  MISS %:    47.8229   MPKI: 22.4009
L2C WRITEBACK NON_SPEC    ACCESS:   10971358  HIT:   10970207  MISS:       1151  HIT %:    99.9895  MISS %:   0.010491   MPKI: 0.005755
L2C CLEAN_EVICTION NON_SPEC    ACCESS:    1520282  HIT:     770490  MISS:     749792  HIT %:    50.6807  MISS %:    49.3193   MPKI: 3.74896
L2C COMMIT LOAD NON_SPEC    ACCESS:     137992  HIT:       3278  MISS:     134714  HIT %:     2.3755  MISS %:    97.6245   MPKI: 0.67357
L2C LOAD TRANSLATION NON_SPEC    ACCESS:     612229  HIT:     596772  MISS:      15457  HIT %:    97.4753  MISS %:    2.52471   MPKI: 0.077285
L2C PREFETCH  REQUESTED:          0  ISSUED:          0  USEFUL:    1129356  USELESS:    3352996
L2C USEFUL LOAD PREFETCHES:    1129356 PREFETCH ISSUED TO LOWER LEVEL:    4480173  ACCURACY: 25.2079
L2C TIMELY PREFETCHES:    1129356 LATE PREFETCHES: 0 DROPPED PREFETCHES: 0
L2C COMMIT LATE PREFETCHES: 0 MISSED OPPORTUNITY: 0 LATE IN PQ: 0 UNCOVERED: 0
L2C COMMIT LATE MSHR PREFETCHES: 0
L2C MPKI TOTAL: 5.02442 MSHR LATE: 0 PQ LATE: 0 COMMIT LATE: 0 MISSED OPPORTUNITY: 0 UNCOVERED: 0
L2C PREFETCHES SAME FILL-ORIGIN LEVEL: 0 DIFFERENT FILL-ORIGIN LEVEL: 0
L2C AVERAGE MISS LATENCY: 472.431 cycles
L2C AVERAGE MISS LATENCY LOAD: 468.603 cycles
L2C AVERAGE MISS LATENCY PREFETCH: 502.692 cycles
L2C AVERAGE MSHR OCCUPANCY: 10.8709
L2C MSHR FULL: 0
L2C RQ	ACCESS:    7523900	FORWARD:          0	MERGED:          0	TO_CACHE:    7523646
L2C WQ	ACCESS:   12491746	FORWARD:        254	MERGED:        106	TO_CACHE:   12491640
L2C PQ	ACCESS:    9368257	FORWARD:          0	MERGED:          0	TO_CACHE:    9368257

L2C Instructions Evicting Data 0
L2C Translations Evicting Data 15400
L2C Data Evicting Data 7145546
L2C Instructions Evicting Instructions 0
L2C Translations Evicting Instructions 0
L2C Data Evicting Instructions 0
L2C Instructions Evicting Translations 0
L2C Translations Evicting Translations 57
L2C Data Evicting Translations 13898
L2C Dense regions hint from L2: 0
PSCL5 SPEC fills:          0  NON-SPEC fills:          0
PSCL5 Test counter :          0
PSCL5 Leapfrog:          0
PSCL5 MSHR merge:          0
PSCL5 TOTAL     ACCESS:          0  HIT:          0  MISS:          0  HIT %:       -nan  MISS %:       -nan   MPKI: 0
PSCL5 PREFETCH  REQUESTED:          0  ISSUED:          0  USEFUL:          0  USELESS:          0
PSCL5 USEFUL LOAD PREFETCHES:          0 PREFETCH ISSUED TO LOWER LEVEL:          0  ACCURACY: -nan
PSCL5 TIMELY PREFETCHES:          0 LATE PREFETCHES: 0 DROPPED PREFETCHES: 0
PSCL5 COMMIT LATE PREFETCHES: 0 MISSED OPPORTUNITY: 0 LATE IN PQ: 0 UNCOVERED: 0
PSCL5 COMMIT LATE MSHR PREFETCHES: 0
PSCL5 MPKI TOTAL: 0 MSHR LATE: 0 PQ LATE: 0 COMMIT LATE: 0 MISSED OPPORTUNITY: 0 UNCOVERED: 0
PSCL5 PREFETCHES SAME FILL-ORIGIN LEVEL: 0 DIFFERENT FILL-ORIGIN LEVEL: 0

PSCL4 SPEC fills:          0  NON-SPEC fills:          0
PSCL4 Test counter :          0
PSCL4 Leapfrog:          0
PSCL4 MSHR merge:          0
PSCL4 TOTAL     ACCESS:          0  HIT:          0  MISS:          0  HIT %:       -nan  MISS %:       -nan   MPKI: 0
PSCL4 PREFETCH  REQUESTED:          0  ISSUED:          0  USEFUL:          0  USELESS:          0
PSCL4 USEFUL LOAD PREFETCHES:          0 PREFETCH ISSUED TO LOWER LEVEL:          0  ACCURACY: -nan
PSCL4 TIMELY PREFETCHES:          0 LATE PREFETCHES: 0 DROPPED PREFETCHES: 0
PSCL4 COMMIT LATE PREFETCHES: 0 MISSED OPPORTUNITY: 0 LATE IN PQ: 0 UNCOVERED: 0
PSCL4 COMMIT LATE MSHR PREFETCHES: 0
PSCL4 MPKI TOTAL: 0 MSHR LATE: 0 PQ LATE: 0 COMMIT LATE: 0 MISSED OPPORTUNITY: 0 UNCOVERED: 0
PSCL4 PREFETCHES SAME FILL-ORIGIN LEVEL: 0 DIFFERENT FILL-ORIGIN LEVEL: 0

PSCL3 SPEC fills:          0  NON-SPEC fills:          0
PSCL3 Test counter :          0
PSCL3 Leapfrog:          0
PSCL3 MSHR merge:          0
PSCL3 TOTAL     ACCESS:          0  HIT:          0  MISS:          0  HIT %:       -nan  MISS %:       -nan   MPKI: 0
PSCL3 PREFETCH  REQUESTED:          0  ISSUED:          0  USEFUL:          0  USELESS:          0
PSCL3 USEFUL LOAD PREFETCHES:          0 PREFETCH ISSUED TO LOWER LEVEL:          0  ACCURACY: -nan
PSCL3 TIMELY PREFETCHES:          0 LATE PREFETCHES: 0 DROPPED PREFETCHES: 0
PSCL3 COMMIT LATE PREFETCHES: 0 MISSED OPPORTUNITY: 0 LATE IN PQ: 0 UNCOVERED: 0
PSCL3 COMMIT LATE MSHR PREFETCHES: 0
PSCL3 MPKI TOTAL: 0 MSHR LATE: 0 PQ LATE: 0 COMMIT LATE: 0 MISSED OPPORTUNITY: 0 UNCOVERED: 0
PSCL3 PREFETCHES SAME FILL-ORIGIN LEVEL: 0 DIFFERENT FILL-ORIGIN LEVEL: 0

PSCL2 SPEC fills:          0  NON-SPEC fills:          0
PSCL2 Test counter :          0
PSCL2 Leapfrog:          0
PSCL2 MSHR merge:          0
PSCL2 TOTAL     ACCESS:          0  HIT:          0  MISS:          0  HIT %:       -nan  MISS %:       -nan   MPKI: 0
PSCL2 PREFETCH  REQUESTED:          0  ISSUED:          0  USEFUL:          0  USELESS:          0
PSCL2 USEFUL LOAD PREFETCHES:          0 PREFETCH ISSUED TO LOWER LEVEL:          0  ACCURACY: -nan
PSCL2 TIMELY PREFETCHES:          0 LATE PREFETCHES: 0 DROPPED PREFETCHES: 0
PSCL2 COMMIT LATE PREFETCHES: 0 MISSED OPPORTUNITY: 0 LATE IN PQ: 0 UNCOVERED: 0
PSCL2 COMMIT LATE MSHR PREFETCHES: 0
PSCL2 MPKI TOTAL: 0 MSHR LATE: 0 PQ LATE: 0 COMMIT LATE: 0 MISSED OPPORTUNITY: 0 UNCOVERED: 0
PSCL2 PREFETCHES SAME FILL-ORIGIN LEVEL: 0 DIFFERENT FILL-ORIGIN LEVEL: 0

LLC SPEC fills:          0  NON-SPEC fills:      18153
LLC Test counter :    1503147
LLC Leapfrog:          0
LLC MSHR merge:          0
LLC TOTAL     ACCESS:   15597625  HIT:    6762422  MISS:    8835203  HIT %:    43.3555  MISS %:    56.6445   MPKI: 44.176
LLC LOAD      TOTAL       ACCESS:    1004879  HIT:       2582  MISS:    1002297  HIT %:   0.256946  MISS %:    99.7431   MPKI: 5.01149
LLC LOAD      NON_SPEC    ACCESS:      18172  HIT:         19  MISS:      18153  HIT %:   0.104556  MISS %:    99.8954   MPKI: 0.090765
LLC LOAD      SPEC        ACCESS:     986707  HIT:       2563  MISS:     984144  HIT %:   0.259753  MISS %:    99.7402   MPKI: 4.92072
LLC RFO       NON_SPEC    ACCESS:    2526353  HIT:      34438  MISS:    2491915  HIT %:    1.36315  MISS %:    98.6368   MPKI: 12.4596
LLC PREFETCH  NON_SPEC    ACCESS:    4480138  HIT:      36663  MISS:    4443475  HIT %:   0.818345  MISS %:    99.1817   MPKI: 22.2174
LLC WRITEBACK NON_SPEC    ACCESS:    5924642  HIT:    5924134  MISS:        508  HIT %:    99.9914  MISS %: 0.00857436   MPKI: 0.00254
LLC CLEAN_EVICTION NON_SPEC    ACCESS:    1511442  HIT:     764598  MISS:     746844  HIT %:    50.5873  MISS %:    49.4127   MPKI: 3.73422
LLC COMMIT LOAD NON_SPEC    ACCESS:     134714  HIT:          4  MISS:     134710  HIT %: 0.00296925  MISS %:     99.997   MPKI: 0.67355
LLC LOAD TRANSLATION NON_SPEC    ACCESS:      15457  HIT:          3  MISS:      15454  HIT %:  0.0194087  MISS %:    99.9806   MPKI: 0.07727
LLC PREFETCH  REQUESTED:          0  ISSUED:          0  USEFUL:      13721  USELESS:    4441200
LLC USEFUL LOAD PREFETCHES:      13721 PREFETCH ISSUED TO LOWER LEVEL:    4443477  ACCURACY: 0.30879
LLC TIMELY PREFETCHES:      13721 LATE PREFETCHES: 0 DROPPED PREFETCHES: 0
LLC COMMIT LATE PREFETCHES: 0 MISSED OPPORTUNITY: 0 LATE IN PQ: 0 UNCOVERED: 0
LLC COMMIT LATE MSHR PREFETCHES: 0
LLC MPKI TOTAL: 5.01149 MSHR LATE: 0 PQ LATE: 0 COMMIT LATE: 0 MISSED OPPORTUNITY: 0 UNCOVERED: 0
LLC PREFETCHES SAME FILL-ORIGIN LEVEL: 0 DIFFERENT FILL-ORIGIN LEVEL: 0
LLC AVERAGE MISS LATENCY: 449.296 cycles
LLC AVERAGE MISS LATENCY LOAD: 448.055 cycles
LLC AVERAGE MISS LATENCY PREFETCH: 476.008 cycles
LLC AVERAGE MSHR OCCUPANCY: 10.3576
LLC MSHR FULL: 0
LLC RQ	ACCESS:    3681443	FORWARD:          0	MERGED:          0	TO_CACHE:    3681404
LLC WQ	ACCESS:    7436084	FORWARD:         72	MERGED:          0	TO_CACHE:    7436084
LLC PQ	ACCESS:    4480173	FORWARD:          0	MERGED:          0	TO_CACHE:    4480140

LLC Dense regions hint to LLC: 0

RAW hits: 4406005
Loads Generated: 50393892
Loads sent to L1D: 45987887
Stores Generated: 34563858
Stores sent to L1D: 34563860
Major fault: 0 Minor fault: 72955
Allocated PAGES: 72955
Total Load insts: 55960978
Total Non-spec loads: 2640974
Percentage of speculative loads: 95.2807

LeapFrogging counter: 11355736
Commit hits: 14805278 miss: 28956277
Commit hit %: 33.8317 miss %: 66.1683
Commits not translated: 0
Loads retired: 1664688
Stores retired: 34563860
Cache fills: 1664688
L1D response latency: 451.745 cycles
Load retirement latency: 763.812 cycles
OOO test counter: 0
Discarded buffer inserts: 14805278 hits: 194622 hit %: 1.31454

stream: 
stream:times selected: 41778680
stream:pref_filled: 5161916
stream:pref_useful: 214056
stream:pref_late: 24625
stream:misses: 694188
stream:misses_by_poll: 0

CS: 
CS:times selected: 5245
CS:pref_filled: 730
CS:pref_useful: 99
CS:pref_late: 12
CS:misses: 327
CS:misses_by_poll: 57

CPLX: 
CPLX:times selected: 41773800
CPLX:pref_filled: 4919985
CPLX:pref_useful: 433295
CPLX:pref_late: 76621
CPLX:misses: 11830479
CPLX:misses_by_poll: 313519

NL_L1: 
NL:times selected: 2821
NL:pref_filled: 99
NL:pref_useful: 6
NL:pref_late: 0
NL:misses: 643
NL:misses_by_poll: 12

total selections: 83560546
total_filled: 7974081
total_useful: 388757
total_late: 102646
total_polluted: 313588
total_misses_after_warmup: 13380325
conflicts: 578446
Degree Incremented Times: 0
Degree Decremented Times: 828238

L1 IP Table Write Accesses: 80427325
L1 IP Table Read Accesses: 79848879
L1 RST Write Accesses: 35896162
L1 RST Read Accesses: 71792324
L1 CSPT Write Accesses: 35896162
L1 CSPT Read Accesses: 71788151
L1 RR Filter Tag Write Accesses: 25080100
L1 RR Filter Tag Read Accesses: 1615554828
L1 IP Table Tag Write Accesses: 84913559
L1 IP Table Tag Read Accesses: 84913559
L1 RST Tag Write Accesses: 0
L1 RST Tag Read Accesses: 323185088
L1 RR Filter Write Accesses: 0
L1 RR Filter Read Accesses: 68403666
test: 2628135

DRAM Statistics
 CHANNEL 0
 RQ ROW_BUFFER_HIT:     716186  ROW_BUFFER_MISS:    7371665
 DBUS_CONGESTED:         44
 WQ ROW_BUFFER_HIT:    1644353  ROW_BUFFER_MISS:    5732304  FULL:       9205

 AVG_CONGESTED_CYCLE: 4
 All warmup complete: 2
Channel 0 Bank busy for read cycles: 0
Channel 0 Bank busy for write cycles: 0
Channel 0
Rank 0
0banks busy for read cycles: 20249624
0banks busy for write cycles: 21079
1banks busy for read cycles: 10803823
1banks busy for write cycles: 2681664
2banks busy for read cycles: 15085336
2banks busy for write cycles: 2171696
3banks busy for read cycles: 27835930
3banks busy for write cycles: 2050397
4banks busy for read cycles: 28465855
4banks busy for write cycles: 2041106
5banks busy for read cycles: 43014649
5banks busy for write cycles: 2196771
6banks busy for read cycles: 48509551
6banks busy for write cycles: 2648185
7banks busy for read cycles: 48276376
7banks busy for write cycles: 11902899
8banks busy for read cycles: 25747077
8banks busy for write cycles: 133147948

CPU 0 Branch Prediction Accuracy: 97.656% MPKI: 0.36593 Average ROB Occupancy at Mispredict: 219.722
Branch types
NOT_BRANCH: 196877389 98.4387%
BRANCH_DIRECT_JUMP: 397756 0.198878%
BRANCH_INDIRECT: 0 0%
BRANCH_CONDITIONAL: 2724544 1.36227%
BRANCH_DIRECT_CALL: 0 0%
BRANCH_INDIRECT_CALL: 0 0%
BRANCH_RETURN: 0 0%
BRANCH_OTHER: 0 0%

DRAM PAGES: 1048576
Allocated PAGES: 72955
