
*** ChampSim Multicore Out-of-Order Simulator ***

Warmup Instructions: 50000000
Simulation Instructions: 200000000
Number of CPUs: 1
LLC sets: 2048
LLC ways: 16
L0D sets: 16
L0D ways: 2
ROB size: 352
LQ size: 128
SQ size: 72
Secure Berti: OFF
Berti: OFF
Berti Fill: OFF
On commit prefetching: ON
Hit-based filter: ON
Time-guarding: ON
Free-slotting: ON
Leap-frogging: ON
Train prefetcher on L0D bypass: OFF
No translation penalty for prefetchers: OFF
Prefetch to L0D only: OFF
Prefetch to L1D only: OFF
Clean evictions: ON
Commit loads: ON
Commit write: ON
Fill commit loads to L2C, LLC: ON
DRAM IO FREQUENCY: 6400
ROB SIZE: 352
Off-chip DRAM Size: 4096 MB Channels: 1 Width: 64-bit Data Rate: 6400 MT/s
CPU 0 runs /home/sumon/secure_berti/GhostMinion/../../traces/spec/620.omnetpp_s-141B.champsimtrace.xz
.xz
BTB has LRU replacement policy
ITLB has LRU replacement policy
DTLB has LRU replacement policy
STLB has LRU replacement policy
L1I has LRU replacement policy
L0D has LRU replacement policy
IP Table Entries: 1024
CSPT Entries: 128
RR_ENTRIES: 32
RST_ENTRIES: 8
L1D has LRU replacement policy
L2C has LRU replacement policy
LLC has LRU replacement policy
Heartbeat CPU 0 instructions: 10000000 cycles: 8009141 heartbeat IPC: 1.24857 cumulative IPC: 1.24857 (Simulation time: 0 hr 1 min 13 sec) 
Heartbeat CPU 0 instructions: 20000001 cycles: 16070730 heartbeat IPC: 1.24045 cumulative IPC: 1.2445 (Simulation time: 0 hr 2 min 32 sec) 
Heartbeat CPU 0 instructions: 30000000 cycles: 24147041 heartbeat IPC: 1.23819 cumulative IPC: 1.24239 (Simulation time: 0 hr 3 min 53 sec) 
Heartbeat CPU 0 instructions: 40000000 cycles: 32188230 heartbeat IPC: 1.2436 cumulative IPC: 1.24269 (Simulation time: 0 hr 5 min 14 sec) 
Heartbeat CPU 0 instructions: 50000003 cycles: 40277320 heartbeat IPC: 1.23623 cumulative IPC: 1.24139 (Simulation time: 0 hr 6 min 37 sec) 

Warmup complete CPU 0 instructions: 50000003 cycles: 40277320 (Simulation time: 0 hr 6 min 37 sec) 

Heartbeat CPU 0 instructions: 60000001 cycles: 84436557 heartbeat IPC: 0.226453 cumulative IPC: 0.226453 (Simulation time: 0 hr 7 min 50 sec) 
Heartbeat CPU 0 instructions: 70000000 cycles: 128859130 heartbeat IPC: 0.225111 cumulative IPC: 0.22578 (Simulation time: 0 hr 9 min 4 sec) 
Heartbeat CPU 0 instructions: 80000003 cycles: 173153078 heartbeat IPC: 0.225765 cumulative IPC: 0.225775 (Simulation time: 0 hr 10 min 17 sec) 
Heartbeat CPU 0 instructions: 90000003 cycles: 217311487 heartbeat IPC: 0.226457 cumulative IPC: 0.225945 (Simulation time: 0 hr 11 min 30 sec) 
Heartbeat CPU 0 instructions: 100000000 cycles: 261074497 heartbeat IPC: 0.228503 cumulative IPC: 0.226452 (Simulation time: 0 hr 12 min 42 sec) 
Heartbeat CPU 0 instructions: 110000000 cycles: 305177926 heartbeat IPC: 0.22674 cumulative IPC: 0.2265 (Simulation time: 0 hr 13 min 54 sec) 
Heartbeat CPU 0 instructions: 120000000 cycles: 349124285 heartbeat IPC: 0.22755 cumulative IPC: 0.226649 (Simulation time: 0 hr 15 min 3 sec) 
Heartbeat CPU 0 instructions: 130000000 cycles: 393722000 heartbeat IPC: 0.224227 cumulative IPC: 0.226344 (Simulation time: 0 hr 16 min 12 sec) 
Heartbeat CPU 0 instructions: 140000000 cycles: 437939255 heartbeat IPC: 0.226156 cumulative IPC: 0.226323 (Simulation time: 0 hr 17 min 17 sec) 
Heartbeat CPU 0 instructions: 150000003 cycles: 482620549 heartbeat IPC: 0.223807 cumulative IPC: 0.226069 (Simulation time: 0 hr 18 min 16 sec) 
Heartbeat CPU 0 instructions: 160000001 cycles: 526672478 heartbeat IPC: 0.227005 cumulative IPC: 0.226154 (Simulation time: 0 hr 19 min 9 sec) 
Heartbeat CPU 0 instructions: 170000001 cycles: 570606317 heartbeat IPC: 0.227615 cumulative IPC: 0.226275 (Simulation time: 0 hr 20 min 3 sec) 
Heartbeat CPU 0 instructions: 180000000 cycles: 614679287 heartbeat IPC: 0.226896 cumulative IPC: 0.226322 (Simulation time: 0 hr 20 min 55 sec) 
Heartbeat CPU 0 instructions: 190000000 cycles: 658398186 heartbeat IPC: 0.228734 cumulative IPC: 0.226493 (Simulation time: 0 hr 21 min 46 sec) 
Heartbeat CPU 0 instructions: 200000000 cycles: 703355346 heartbeat IPC: 0.222434 cumulative IPC: 0.226218 (Simulation time: 0 hr 22 min 37 sec) 
Heartbeat CPU 0 instructions: 210000000 cycles: 747874563 heartbeat IPC: 0.224622 cumulative IPC: 0.226117 (Simulation time: 0 hr 23 min 28 sec) 
Heartbeat CPU 0 instructions: 220000000 cycles: 792524276 heartbeat IPC: 0.223966 cumulative IPC: 0.22599 (Simulation time: 0 hr 24 min 17 sec) 
Heartbeat CPU 0 instructions: 230000001 cycles: 836975479 heartbeat IPC: 0.224966 cumulative IPC: 0.225932 (Simulation time: 0 hr 25 min 6 sec) 
Heartbeat CPU 0 instructions: 240000001 cycles: 881600813 heartbeat IPC: 0.224088 cumulative IPC: 0.225835 (Simulation time: 0 hr 25 min 55 sec) 
Heartbeat CPU 0 instructions: 250000000 cycles: 924983765 heartbeat IPC: 0.230505 cumulative IPC: 0.226064 (Simulation time: 0 hr 26 min 43 sec) 
Finished CPU 0 instructions: 200000001 cycles: 884706446 cumulative IPC: 0.226064 (Simulation time: 0 hr 26 min 43 sec) 
 Instruction ID: 250000041

ChampSim completed all CPUs

Region of Interest Statistics

CPU 0 cumulative IPC: 0.226064 instructions: 200000001 cycles: 884706446
ITLB SPEC fills:          0  NON-SPEC fills:          0
ITLB Test counter :          0
ITLB Leapfrog:          0
ITLB MSHR merge:          0
ITLB TOTAL     ACCESS:   33302643  HIT:   32990539  MISS:     312104  HIT %:    99.0628  MISS %:   0.937175   MPKI: 1.56052
ITLB LOAD TRANSLATION NON_SPEC    ACCESS:   33302643  HIT:   32990539  MISS:     312104  HIT %:    99.0628  MISS %:   0.937175   MPKI: 1.56052
ITLB PREFETCH  REQUESTED:          0  ISSUED:          0  USEFUL:          0  USELESS:          0
ITLB USEFUL LOAD PREFETCHES:          0 PREFETCH ISSUED TO LOWER LEVEL:          0  ACCURACY: -nan
ITLB TIMELY PREFETCHES:          0 LATE PREFETCHES: 0 DROPPED PREFETCHES: 0
ITLB COMMIT LATE PREFETCHES: 0 MISSED OPPORTUNITY: 0 LATE IN PQ: 0 UNCOVERED: 0
ITLB COMMIT LATE MSHR PREFETCHES: 0
ITLB MPKI TOTAL: 0 MSHR LATE: 0 PQ LATE: 0 COMMIT LATE: 0 MISSED OPPORTUNITY: 0 UNCOVERED: 0
ITLB PREFETCHES SAME FILL-ORIGIN LEVEL: 0 DIFFERENT FILL-ORIGIN LEVEL: 0
ITLB AVERAGE MISS LATENCY: 10.6354 cycles
ITLB AVERAGE MISS LATENCY LOAD: -nan cycles
ITLB AVERAGE MISS LATENCY PREFETCH: -nan cycles
ITLB AVERAGE MSHR OCCUPANCY: 0.00922682
ITLB MSHR FULL: 0
ITLB RQ	ACCESS:   37447032	FORWARD:          0	MERGED:    4061853	TO_CACHE:   33385179

DTLB SPEC fills:          0  NON-SPEC fills:          0
DTLB Test counter :          0
DTLB Leapfrog:          0
DTLB MSHR merge:          0
DTLB TOTAL     ACCESS:   81703050  HIT:   77540557  MISS:    4162493  HIT %:    94.9053  MISS %:    5.09466   MPKI: 20.8125
DTLB LOAD TRANSLATION NON_SPEC    ACCESS:   81703050  HIT:   77540557  MISS:    4162493  HIT %:    94.9053  MISS %:    5.09466   MPKI: 20.8125
DTLB PREFETCH  REQUESTED:          0  ISSUED:          0  USEFUL:          0  USELESS:          0
DTLB USEFUL LOAD PREFETCHES:          0 PREFETCH ISSUED TO LOWER LEVEL:          0  ACCURACY: -nan
DTLB TIMELY PREFETCHES:          0 LATE PREFETCHES: 0 DROPPED PREFETCHES: 0
DTLB COMMIT LATE PREFETCHES: 0 MISSED OPPORTUNITY: 0 LATE IN PQ: 0 UNCOVERED: 0
DTLB COMMIT LATE MSHR PREFETCHES: 0
DTLB MPKI TOTAL: 0 MSHR LATE: 0 PQ LATE: 0 COMMIT LATE: 0 MISSED OPPORTUNITY: 0 UNCOVERED: 0
DTLB PREFETCHES SAME FILL-ORIGIN LEVEL: 0 DIFFERENT FILL-ORIGIN LEVEL: 0
DTLB AVERAGE MISS LATENCY: 52.1049 cycles
DTLB AVERAGE MISS LATENCY LOAD: -nan cycles
DTLB AVERAGE MISS LATENCY PREFETCH: -nan cycles
DTLB AVERAGE MSHR OCCUPANCY: 0.143488
DTLB MSHR FULL: 9.43693e-05
DTLB RQ	ACCESS:   92607884	FORWARD:          0	MERGED:   10798568	TO_CACHE:   81809316

STLB SPEC fills:          0  NON-SPEC fills:          0
STLB Test counter :          0
STLB Leapfrog:          0
STLB MSHR merge:          0
STLB TOTAL     ACCESS:   17064895  HIT:   16095037  MISS:     969858  HIT %:    94.3166  MISS %:    5.68335   MPKI: 4.84929
STLB LOAD TRANSLATION NON_SPEC    ACCESS:    4474597  HIT:    3504744  MISS:     969853  HIT %:    78.3254  MISS %:    21.6746   MPKI: 4.84926
STLB TRANSLATION FROM L1D PREFETCHER NON_SPEC    ACCESS:   12590298  HIT:   12590293  MISS:          5  HIT %:        100  MISS %: 3.97131e-05   MPKI: 2.5e-05
STLB PREFETCH  REQUESTED:          0  ISSUED:          0  USEFUL:          5  USELESS:          0
STLB USEFUL LOAD PREFETCHES:          5 PREFETCH ISSUED TO LOWER LEVEL:          0  ACCURACY: inf
STLB TIMELY PREFETCHES:          5 LATE PREFETCHES: 0 DROPPED PREFETCHES: 0
STLB COMMIT LATE PREFETCHES: 0 MISSED OPPORTUNITY: 0 LATE IN PQ: 0 UNCOVERED: 0
STLB COMMIT LATE MSHR PREFETCHES: 0
STLB MPKI TOTAL: 0 MSHR LATE: 0 PQ LATE: 0 COMMIT LATE: 0 MISSED OPPORTUNITY: 0 UNCOVERED: 0
STLB PREFETCHES SAME FILL-ORIGIN LEVEL: 0 DIFFERENT FILL-ORIGIN LEVEL: 0
STLB AVERAGE MISS LATENCY: 185.332 cycles
STLB AVERAGE MISS LATENCY LOAD: -nan cycles
STLB AVERAGE MISS LATENCY PREFETCH: -nan cycles
STLB AVERAGE MSHR OCCUPANCY: 0.0893613
STLB MSHR FULL: 0
STLB RQ	ACCESS:   22235488	FORWARD:          0	MERGED:    5168888	TO_CACHE:   17066600

STLB Hit, L1D data hit: 0
STLB Hit, L2C data hit: 0
STLB Hit, LLC data hit: 0
STLB Hit, LLC data miss: 0
STLB STLB hints to L2: 0
L0D SPEC fills:   23038083  NON-SPEC fills:          0
L0D TimeGuard Request with older TS:     262885 Restricted eviction:     138847 read:     309672
L0D Test counter :          0
L0D Leapfrog:          0
L0D MSHR merge:     964782
L0D TOTAL     ACCESS:   54498001  HIT:    6901552  MISS:   47596449  HIT %:    12.6639  MISS %:    87.3361   MPKI: 237.982
L0D LOAD      TOTAL       ACCESS:   54498001  HIT:    6901552  MISS:   47596449  HIT %:    12.6639  MISS %:    87.3361   MPKI: 237.982
L0D LOAD      NON_SPEC    ACCESS:   24627519  HIT:     207992  MISS:   24419527  HIT %:   0.844551  MISS %:    99.1554   MPKI: 122.098
L0D LOAD      SPEC        ACCESS:   29870482  HIT:    6693560  MISS:   23176922  HIT %:    22.4086  MISS %:    77.5914   MPKI: 115.885
L0D PREFETCH  REQUESTED:          0  ISSUED:          0  USEFUL:          0  USELESS:          0
L0D USEFUL LOAD PREFETCHES:          0 PREFETCH ISSUED TO LOWER LEVEL:          0  ACCURACY: -nan
L0D TIMELY PREFETCHES:          0 LATE PREFETCHES: 0 DROPPED PREFETCHES: 0
L0D COMMIT LATE PREFETCHES: 0 MISSED OPPORTUNITY: 0 LATE IN PQ: 0 UNCOVERED: 0
L0D COMMIT LATE MSHR PREFETCHES: 0
L0D MPKI TOTAL: 242.806 MSHR LATE: 0 PQ LATE: 0 COMMIT LATE: 0 MISSED OPPORTUNITY: 0 UNCOVERED: 0
L0D PREFETCHES SAME FILL-ORIGIN LEVEL: 0 DIFFERENT FILL-ORIGIN LEVEL: 0
L0D AVERAGE MISS LATENCY: 12.5144 cycles
L0D AVERAGE MISS LATENCY LOAD: 12.5144 cycles
L0D AVERAGE MISS LATENCY PREFETCH: -nan cycles
L0D AVERAGE MSHR OCCUPANCY: 0.522862
L0D MSHR FULL: 5.80177e-05
L0D RQ	ACCESS:   63489500	FORWARD:          0	MERGED:    8026723	TO_CACHE:   55462777
L0D WQ	ACCESS:   37145107	FORWARD:          0	MERGED:          0	TO_CACHE:   37145107

L1D SPEC fills:          0  NON-SPEC fills:     796439
L1D Test counter :    2193092
L1D Leapfrog:          0
L1D MSHR merge:      85894
L1D TOTAL     ACCESS:  105764026  HIT:   92233212  MISS:   13530814  HIT %:    87.2066  MISS %:    12.7934   MPKI: 67.6541
L1D LOAD      TOTAL       ACCESS:   47579521  HIT:   43932353  MISS:    3647168  HIT %:    92.3346  MISS %:    7.66542   MPKI: 18.2358
L1D LOAD      NON_SPEC    ACCESS:   24416346  HIT:   23619907  MISS:     796439  HIT %:    96.7381  MISS %:    3.26191   MPKI: 3.98219
L1D LOAD      SPEC        ACCESS:   23163175  HIT:   20312446  MISS:    2850729  HIT %:    87.6928  MISS %:    12.3072   MPKI: 14.2536
L1D RFO       NON_SPEC    ACCESS:   36296225  HIT:   35947500  MISS:     348725  HIT %:    99.0392  MISS %:   0.960775   MPKI: 1.74362
L1D PREFETCH  NON_SPEC    ACCESS:   17527806  HIT:   10795030  MISS:    6732776  HIT %:     61.588  MISS %:     38.412   MPKI: 33.6639
L1D COMMIT LOAD NON_SPEC    ACCESS:    1498407  HIT:    1483821  MISS:      14586  HIT %:    99.0266  MISS %:   0.973434   MPKI: 0.07293
L1D COMMIT WRITE NON_SPEC    ACCESS:    2862067  HIT:      74508  MISS:    2787559  HIT %:    2.60329  MISS %:    97.3967   MPKI: 13.9378
L1D PREFETCH  REQUESTED:   17781995  ISSUED:   17760891  USEFUL:     628016  USELESS:    6104795
L1D USEFUL LOAD PREFETCHES:     628016 PREFETCH ISSUED TO LOWER LEVEL:    6851557  ACCURACY: 9.16603
L1D TIMELY PREFETCHES:     628016 LATE PREFETCHES: 69430 DROPPED PREFETCHES: 0
L1D COMMIT LATE PREFETCHES: 0 MISSED OPPORTUNITY: 0 LATE IN PQ: 0 UNCOVERED: 0
L1D COMMIT LATE MSHR PREFETCHES: 0
L1D MPKI TOTAL: 18.3205 MSHR LATE: 0.34715 PQ LATE: 0 COMMIT LATE: 0 MISSED OPPORTUNITY: 0 UNCOVERED: 0
L1D PREFETCHES SAME FILL-ORIGIN LEVEL: 6851557 DIFFERENT FILL-ORIGIN LEVEL: 0
L1D AVERAGE MISS LATENCY: 95.0198 cycles
L1D AVERAGE MISS LATENCY LOAD: 97.0713 cycles
L1D AVERAGE MISS LATENCY PREFETCH: 132.413 cycles
L1D AVERAGE MSHR OCCUPANCY: 1.33457
L1D MSHR FULL: 9.58677e-05
L1D RQ	ACCESS:   49448681	FORWARD:          0	MERGED:     297939	TO_CACHE:   49095679
L1D WQ	ACCESS:   40012466	FORWARD:      55063	MERGED:     350371	TO_CACHE:   39662095
L1D PQ	ACCESS:   17760891	FORWARD:          0	MERGED:          0	TO_CACHE:   17760891

L1D UNIQUE REGIONS ACCESSED: 0
L1D REGIONS CONFLICTS: 0
L1D Cross Page Prefetch Requests: 0
L1D Same Page Prefetch Requests: 22188209
L1D ROI Sum of L1D PQ occupancy: 269695960
L1D PREFETCHES PUSHED FROM L2C: 0
L1I SPEC fills:          0  NON-SPEC fills:          0
L1I Test counter :          0
L1I Leapfrog:          0
L1I MSHR merge:      37949
L1I TOTAL     ACCESS:   37409084  HIT:   37288146  MISS:     120938  HIT %:    99.6767  MISS %:   0.323285   MPKI: 0.60469
L1I LOAD      TOTAL       ACCESS:   37409084  HIT:   37288146  MISS:     120938  HIT %:    99.6767  MISS %:   0.323285   MPKI: 0.60469
L1I LOAD      NON_SPEC    ACCESS:   37409084  HIT:   37288146  MISS:     120938  HIT %:    99.6767  MISS %:   0.323285   MPKI: 0.60469
L1I PREFETCH  REQUESTED:          0  ISSUED:          0  USEFUL:          0  USELESS:          0
L1I USEFUL LOAD PREFETCHES:          0 PREFETCH ISSUED TO LOWER LEVEL:          0  ACCURACY: -nan
L1I TIMELY PREFETCHES:          0 LATE PREFETCHES: 0 DROPPED PREFETCHES: 0
L1I COMMIT LATE PREFETCHES: 0 MISSED OPPORTUNITY: 0 LATE IN PQ: 0 UNCOVERED: 0
L1I COMMIT LATE MSHR PREFETCHES: 0
L1I MPKI TOTAL: 0.794435 MSHR LATE: 0 PQ LATE: 0 COMMIT LATE: 0 MISSED OPPORTUNITY: 0 UNCOVERED: 0
L1I PREFETCHES SAME FILL-ORIGIN LEVEL: 0 DIFFERENT FILL-ORIGIN LEVEL: 0
L1I AVERAGE MISS LATENCY: 37.0205 cycles
L1I AVERAGE MISS LATENCY LOAD: 37.0205 cycles
L1I AVERAGE MISS LATENCY PREFETCH: -nan cycles
L1I AVERAGE MSHR OCCUPANCY: 0.00496138
L1I MSHR FULL: 0
L1I RQ	ACCESS:   56565729	FORWARD:          0	MERGED:   19118697	TO_CACHE:   37447032

BTB SPEC fills:          0  NON-SPEC fills:          0
BTB Test counter :          0
BTB Leapfrog:          0
BTB MSHR merge:          0
BTB TOTAL     ACCESS:   32873214  HIT:   30947951  MISS:    1925263  HIT %:    94.1434  MISS %:    5.85663   MPKI: 9.62631
BTB BRANCH_DIRECT_JUMP	ACCESS:    2330259  HIT:    2330115  MISS:        144
BTB BRANCH_INDIRECT	ACCESS:     674228  HIT:     571149  MISS:     103079
BTB BRANCH_CONDITIONAL	ACCESS:   17721648  HIT:   17721119  MISS:        529
BTB BRANCH_DIRECT_CALL	ACCESS:    3701835  HIT:    3701543  MISS:        292
BTB BRANCH_INDIRECT_CALL	ACCESS:    2371706  HIT:    2363088  MISS:       8618
BTB BRANCH_RETURN	ACCESS:    6073538  HIT:    4260937  MISS:    1812601
BTB BRANCH_OTHER ACCESS:          0  HIT:          0  MISS:          0

L2C SPEC fills:          0  NON-SPEC fills:     447008
L2C Test counter :    1889863
L2C Leapfrog:          0
L2C MSHR merge:          0
L2C TOTAL     ACCESS:   18850820  HIT:    9166184  MISS:    9684636  HIT %:    48.6249  MISS %:    51.3751   MPKI: 48.4232
L2C LOAD      TOTAL       ACCESS:    3698758  HIT:    1441149  MISS:    2257609  HIT %:    38.9631  MISS %:    61.0369   MPKI: 11.288
L2C LOAD      NON_SPEC    ACCESS:     911706  HIT:     426026  MISS:     485680  HIT %:    46.7284  MISS %:    53.2716   MPKI: 2.4284
L2C LOAD      SPEC        ACCESS:    2787052  HIT:    1015123  MISS:    1771929  HIT %:    36.4228  MISS %:    63.5772   MPKI: 8.85964
L2C RFO       NON_SPEC    ACCESS:     299087  HIT:      61907  MISS:     237180  HIT %:    20.6987  MISS %:    79.3013   MPKI: 1.1859
L2C PREFETCH  NON_SPEC    ACCESS:    6851320  HIT:    2074790  MISS:    4776530  HIT %:    30.2831  MISS %:    69.7169   MPKI: 23.8826
L2C WRITEBACK NON_SPEC    ACCESS:     945151  HIT:     938869  MISS:       6282  HIT %:    99.3353  MISS %:   0.664656   MPKI: 0.03141
L2C CLEAN_EVICTION NON_SPEC    ACCESS:    2193092  HIT:     509988  MISS:    1683104  HIT %:    23.2543  MISS %:    76.7457   MPKI: 8.41552
L2C COMMIT LOAD NON_SPEC    ACCESS:      14122  HIT:       9493  MISS:       4629  HIT %:    67.2214  MISS %:    32.7786   MPKI: 0.023145
L2C LOAD TRANSLATION NON_SPEC    ACCESS:    4849265  HIT:    4129967  MISS:     719298  HIT %:    85.1669  MISS %:    14.8331   MPKI: 3.59649
L2C TRANSLATION FROM L1D PREFETCHER NON_SPEC    ACCESS:         25  HIT:         21  MISS:          4  HIT %:         84  MISS %:         16   MPKI: 2e-05
L2C PREFETCH  REQUESTED:          0  ISSUED:          0  USEFUL:     159974  USELESS:    4616705
L2C USEFUL LOAD PREFETCHES:     159974 PREFETCH ISSUED TO LOWER LEVEL:    4776530  ACCURACY: 3.34917
L2C TIMELY PREFETCHES:     159974 LATE PREFETCHES: 0 DROPPED PREFETCHES: 0
L2C COMMIT LATE PREFETCHES: 0 MISSED OPPORTUNITY: 0 LATE IN PQ: 0 UNCOVERED: 0
L2C COMMIT LATE MSHR PREFETCHES: 0
L2C MPKI TOTAL: 11.288 MSHR LATE: 0 PQ LATE: 0 COMMIT LATE: 0 MISSED OPPORTUNITY: 0 UNCOVERED: 0
L2C PREFETCHES SAME FILL-ORIGIN LEVEL: 0 DIFFERENT FILL-ORIGIN LEVEL: 0
L2C AVERAGE MISS LATENCY: 127.717 cycles
L2C AVERAGE MISS LATENCY LOAD: 135.541 cycles
L2C AVERAGE MISS LATENCY PREFETCH: 169.093 cycles
L2C AVERAGE MSHR OCCUPANCY: 1.51015
L2C MSHR FULL: 0
L2C RQ	ACCESS:    8861926	FORWARD:          0	MERGED:          0	TO_CACHE:    8861257
L2C WQ	ACCESS:    3138294	FORWARD:        906	MERGED:         51	TO_CACHE:    3138243
L2C PQ	ACCESS:    6851557	FORWARD:          0	MERGED:          0	TO_CACHE:    6851320

L2C Instructions Evicting Data 34778
L2C Translations Evicting Data 654280
L2C Data Evicting Data 4940066
L2C Instructions Evicting Instructions 442
L2C Translations Evicting Instructions 3541
L2C Data Evicting Instructions 25895
L2C Instructions Evicting Translations 3452
L2C Translations Evicting Translations 61481
L2C Data Evicting Translations 499386
L2C Dense regions hint from L2: 0
PSCL5 SPEC fills:          0  NON-SPEC fills:          0
PSCL5 Test counter :          0
PSCL5 Leapfrog:          0
PSCL5 MSHR merge:          0
PSCL5 TOTAL     ACCESS:          0  HIT:          0  MISS:          0  HIT %:       -nan  MISS %:       -nan   MPKI: 0
PSCL5 PREFETCH  REQUESTED:          0  ISSUED:          0  USEFUL:          0  USELESS:          0
PSCL5 USEFUL LOAD PREFETCHES:          0 PREFETCH ISSUED TO LOWER LEVEL:          0  ACCURACY: -nan
PSCL5 TIMELY PREFETCHES:          0 LATE PREFETCHES: 0 DROPPED PREFETCHES: 0
PSCL5 COMMIT LATE PREFETCHES: 0 MISSED OPPORTUNITY: 0 LATE IN PQ: 0 UNCOVERED: 0
PSCL5 COMMIT LATE MSHR PREFETCHES: 0
PSCL5 MPKI TOTAL: 0 MSHR LATE: 0 PQ LATE: 0 COMMIT LATE: 0 MISSED OPPORTUNITY: 0 UNCOVERED: 0
PSCL5 PREFETCHES SAME FILL-ORIGIN LEVEL: 0 DIFFERENT FILL-ORIGIN LEVEL: 0

PSCL4 SPEC fills:          0  NON-SPEC fills:          0
PSCL4 Test counter :          0
PSCL4 Leapfrog:          0
PSCL4 MSHR merge:          0
PSCL4 TOTAL     ACCESS:          0  HIT:          0  MISS:          0  HIT %:       -nan  MISS %:       -nan   MPKI: 0
PSCL4 PREFETCH  REQUESTED:          0  ISSUED:          0  USEFUL:          0  USELESS:          0
PSCL4 USEFUL LOAD PREFETCHES:          0 PREFETCH ISSUED TO LOWER LEVEL:          0  ACCURACY: -nan
PSCL4 TIMELY PREFETCHES:          0 LATE PREFETCHES: 0 DROPPED PREFETCHES: 0
PSCL4 COMMIT LATE PREFETCHES: 0 MISSED OPPORTUNITY: 0 LATE IN PQ: 0 UNCOVERED: 0
PSCL4 COMMIT LATE MSHR PREFETCHES: 0
PSCL4 MPKI TOTAL: 0 MSHR LATE: 0 PQ LATE: 0 COMMIT LATE: 0 MISSED OPPORTUNITY: 0 UNCOVERED: 0
PSCL4 PREFETCHES SAME FILL-ORIGIN LEVEL: 0 DIFFERENT FILL-ORIGIN LEVEL: 0

PSCL3 SPEC fills:          0  NON-SPEC fills:          0
PSCL3 Test counter :          0
PSCL3 Leapfrog:          0
PSCL3 MSHR merge:          0
PSCL3 TOTAL     ACCESS:          0  HIT:          0  MISS:          0  HIT %:       -nan  MISS %:       -nan   MPKI: 0
PSCL3 PREFETCH  REQUESTED:          0  ISSUED:          0  USEFUL:          0  USELESS:          0
PSCL3 USEFUL LOAD PREFETCHES:          0 PREFETCH ISSUED TO LOWER LEVEL:          0  ACCURACY: -nan
PSCL3 TIMELY PREFETCHES:          0 LATE PREFETCHES: 0 DROPPED PREFETCHES: 0
PSCL3 COMMIT LATE PREFETCHES: 0 MISSED OPPORTUNITY: 0 LATE IN PQ: 0 UNCOVERED: 0
PSCL3 COMMIT LATE MSHR PREFETCHES: 0
PSCL3 MPKI TOTAL: 0 MSHR LATE: 0 PQ LATE: 0 COMMIT LATE: 0 MISSED OPPORTUNITY: 0 UNCOVERED: 0
PSCL3 PREFETCHES SAME FILL-ORIGIN LEVEL: 0 DIFFERENT FILL-ORIGIN LEVEL: 0

PSCL2 SPEC fills:          0  NON-SPEC fills:          0
PSCL2 Test counter :          0
PSCL2 Leapfrog:          0
PSCL2 MSHR merge:          0
PSCL2 TOTAL     ACCESS:          0  HIT:          0  MISS:          0  HIT %:       -nan  MISS %:       -nan   MPKI: 0
PSCL2 PREFETCH  REQUESTED:          0  ISSUED:          0  USEFUL:          0  USELESS:          0
PSCL2 USEFUL LOAD PREFETCHES:          0 PREFETCH ISSUED TO LOWER LEVEL:          0  ACCURACY: -nan
PSCL2 TIMELY PREFETCHES:          0 LATE PREFETCHES: 0 DROPPED PREFETCHES: 0
PSCL2 COMMIT LATE PREFETCHES: 0 MISSED OPPORTUNITY: 0 LATE IN PQ: 0 UNCOVERED: 0
PSCL2 COMMIT LATE MSHR PREFETCHES: 0
PSCL2 MPKI TOTAL: 0 MSHR LATE: 0 PQ LATE: 0 COMMIT LATE: 0 MISSED OPPORTUNITY: 0 UNCOVERED: 0
PSCL2 PREFETCHES SAME FILL-ORIGIN LEVEL: 0 DIFFERENT FILL-ORIGIN LEVEL: 0

LLC SPEC fills:          0  NON-SPEC fills:     306171
LLC Test counter :    1516907
LLC Leapfrog:          0
LLC MSHR merge:          0
LLC TOTAL     ACCESS:   10581946  HIT:    3263469  MISS:    7318477  HIT %:      30.84  MISS %:      69.16   MPKI: 36.5924
LLC LOAD      TOTAL       ACCESS:    2257596  HIT:     615985  MISS:    1641611  HIT %:     27.285  MISS %:     72.715   MPKI: 8.20805
LLC LOAD      NON_SPEC    ACCESS:     485676  HIT:     170113  MISS:     315563  HIT %:     35.026  MISS %:     64.974   MPKI: 1.57781
LLC LOAD      SPEC        ACCESS:    1771920  HIT:     445872  MISS:    1326048  HIT %:    25.1632  MISS %:    74.8368   MPKI: 6.63024
LLC RFO       NON_SPEC    ACCESS:     237178  HIT:      77359  MISS:     159819  HIT %:    32.6164  MISS %:    67.3836   MPKI: 0.799095
LLC PREFETCH  NON_SPEC    ACCESS:    4776519  HIT:     946366  MISS:    3830153  HIT %:    19.8129  MISS %:    80.1871   MPKI: 19.1508
LLC WRITEBACK NON_SPEC    ACCESS:     696859  HIT:     689608  MISS:       7251  HIT %:    98.9595  MISS %:    1.04053   MPKI: 0.036255
LLC CLEAN_EVICTION NON_SPEC    ACCESS:    1889863  HIT:     572611  MISS:    1317252  HIT %:    30.2991  MISS %:    69.7009   MPKI: 6.58626
LLC COMMIT LOAD NON_SPEC    ACCESS:       4629  HIT:       2291  MISS:       2338  HIT %:    49.4923  MISS %:    50.5077   MPKI: 0.01169
LLC LOAD TRANSLATION NON_SPEC    ACCESS:     719298  HIT:     359246  MISS:     360052  HIT %:     49.944  MISS %:     50.056   MPKI: 1.80026
LLC TRANSLATION FROM L1D PREFETCHER NON_SPEC    ACCESS:          4  HIT:          3  MISS:          1  HIT %:         75  MISS %:         25   MPKI: 5e-06
LLC PREFETCH  REQUESTED:          0  ISSUED:          0  USEFUL:     118367  USELESS:    3712036
LLC USEFUL LOAD PREFETCHES:     118367 PREFETCH ISSUED TO LOWER LEVEL:    3830153  ACCURACY: 3.0904
LLC TIMELY PREFETCHES:     118367 LATE PREFETCHES: 0 DROPPED PREFETCHES: 0
LLC COMMIT LATE PREFETCHES: 0 MISSED OPPORTUNITY: 0 LATE IN PQ: 0 UNCOVERED: 0
LLC COMMIT LATE MSHR PREFETCHES: 0
LLC MPKI TOTAL: 8.20805 MSHR LATE: 0 PQ LATE: 0 COMMIT LATE: 0 MISSED OPPORTUNITY: 0 UNCOVERED: 0
LLC PREFETCHES SAME FILL-ORIGIN LEVEL: 0 DIFFERENT FILL-ORIGIN LEVEL: 0
LLC AVERAGE MISS LATENCY: 138.391 cycles
LLC AVERAGE MISS LATENCY LOAD: 154.845 cycles
LLC AVERAGE MISS LATENCY PREFETCH: 173.423 cycles
LLC AVERAGE MSHR OCCUPANCY: 1.1155
LLC MSHR FULL: 0
LLC RQ	ACCESS:    3218720	FORWARD:          0	MERGED:          0	TO_CACHE:    3218705
LLC WQ	ACCESS:    2586722	FORWARD:         26	MERGED:          0	TO_CACHE:    2586722
LLC PQ	ACCESS:    4776530	FORWARD:          0	MERGED:          0	TO_CACHE:    4776519

LLC Dense regions hint to LLC: 0

RAW hits: 3383041
Loads Generated: 66872541
Loads sent to L1D: 63489500
Stores Generated: 37145093
Stores sent to L1D: 37145107
Major fault: 0 Minor fault: 53031
Allocated PAGES: 53031
Total Load insts: 78625907
Total Non-spec loads: 28089374
Percentage of speculative loads: 64.2747

LeapFrogging counter: 1509
Commit hits: 22855999 miss: 15950024
Commit hit %: 58.8981 miss %: 41.1019
Commits not translated: 0
Loads retired: 3647168
Stores retired: 37145107
Cache fills: 3647168
L1D response latency: 97.0713 cycles
Load retirement latency: 201.981 cycles
OOO test counter: 0
Discarded buffer inserts: 22855999 hits: 47790 hit %: 0.209092

stream: 
stream:times selected: 45836933
stream:pref_filled: 3736960
stream:pref_useful: 626300
stream:pref_late: 5186
stream:misses: 979892
stream:misses_by_poll: 0

CS: 
CS:times selected: 771538
CS:pref_filled: 44973
CS:pref_useful: 7300
CS:pref_late: 0
CS:misses: 4282
CS:misses_by_poll: 2101

CPLX: 
CPLX:times selected: 45571277
CPLX:pref_filled: 4651256
CPLX:pref_useful: 187003
CPLX:pref_late: 604
CPLX:misses: 3308567
CPLX:misses_by_poll: 228957

NL_L1: 
NL:times selected: 138664
NL:pref_filled: 34572
NL:pref_useful: 6520
NL:pref_late: 48
NL:misses: 27726
NL:misses_by_poll: 1620

total selections: 92318412
total_filled: 6732776
total_useful: 628016
total_late: 6348
total_polluted: 232678
total_misses_after_warmup: 4639573
conflicts: 7350824
Degree Incremented Times: 0
Degree Decremented Times: 2071839

L1 IP Table Write Accesses: 86950757
L1 IP Table Read Accesses: 79599933
L1 RST Write Accesses: 36709122
L1 RST Read Accesses: 73418244
L1 CSPT Write Accesses: 36709122
L1 CSPT Read Accesses: 73209167
L1 RR Filter Tag Write Accesses: 17781995
L1 RR Filter Tag Read Accesses: 1424946226
L1 IP Table Tag Write Accesses: 104016283
L1 IP Table Tag Read Accesses: 104016283
L1 RST Tag Write Accesses: 0
L1 RST Tag Read Accesses: 414944899
L1 RR Filter Write Accesses: 0
L1 RR Filter Read Accesses: 53849060
test: 19818476

DRAM Statistics
 CHANNEL 0
 RQ ROW_BUFFER_HIT:     539455  ROW_BUFFER_MISS:    5454355
 DBUS_CONGESTED:       5506
 WQ ROW_BUFFER_HIT:     374058  ROW_BUFFER_MISS:    1628862  FULL:          0

 AVG_CONGESTED_CYCLE: 4
 All warmup complete: 2
Channel 0 Bank busy for read cycles: 0
Channel 0 Bank busy for write cycles: 0
Channel 0
Rank 0
0banks busy for read cycles: 193975038
0banks busy for write cycles: 379826
1banks busy for read cycles: 269859091
1banks busy for write cycles: 57689546
2banks busy for read cycles: 142640799
2banks busy for write cycles: 37179185
3banks busy for read cycles: 57822219
3banks busy for write cycles: 27227178
4banks busy for read cycles: 19955036
4banks busy for write cycles: 20532600
5banks busy for read cycles: 5525863
5banks busy for write cycles: 15633440
6banks busy for read cycles: 1206169
6banks busy for write cycles: 12223514
7banks busy for read cycles: 231687
7banks busy for write cycles: 10866992
8banks busy for read cycles: 30520
8banks busy for write cycles: 11727744

CPU 0 Branch Prediction Accuracy: 98.172% MPKI: 3.83776 Average ROB Occupancy at Mispredict: 36.8228
Branch types
NOT_BRANCH: 158010836 79.0054%
BRANCH_DIRECT_JUMP: 2330259 1.16513%
BRANCH_INDIRECT: 674228 0.337114%
BRANCH_CONDITIONAL: 26837262 13.4186%
BRANCH_DIRECT_CALL: 3701835 1.85092%
BRANCH_INDIRECT_CALL: 2371706 1.18585%
BRANCH_RETURN: 6073538 3.03677%
BRANCH_OTHER: 0 0%

DRAM PAGES: 1048576
Allocated PAGES: 53031
