
*** ChampSim Multicore Out-of-Order Simulator ***

Warmup Instructions: 50000000
Simulation Instructions: 200000000
Number of CPUs: 1
LLC sets: 2048
LLC ways: 16
L0D sets: 16
L0D ways: 2
ROB size: 352
LQ size: 128
SQ size: 72
Secure Berti: OFF
Berti: OFF
Berti Fill: OFF
On commit prefetching: ON
Hit-based filter: ON
Time-guarding: ON
Free-slotting: ON
Leap-frogging: ON
Train prefetcher on L0D bypass: OFF
No translation penalty for prefetchers: OFF
Prefetch to L0D only: OFF
Prefetch to L1D only: OFF
Clean evictions: ON
Commit loads: ON
Commit write: ON
Fill commit loads to L2C, LLC: ON
DRAM IO FREQUENCY: 6400
ROB SIZE: 352
Off-chip DRAM Size: 4096 MB Channels: 1 Width: 64-bit Data Rate: 6400 MT/s
CPU 0 runs /home/sumon/secure_berti/GhostMinion/../../traces/spec/623.xalancbmk_s-202B.champsimtrace.xz
.xz
BTB has LRU replacement policy
ITLB has LRU replacement policy
DTLB has LRU replacement policy
STLB has LRU replacement policy
L1I has LRU replacement policy
L0D has LRU replacement policy
IP Table Entries: 1024
CSPT Entries: 128
RR_ENTRIES: 32
RST_ENTRIES: 8
L1D has LRU replacement policy
L2C has LRU replacement policy
LLC has LRU replacement policy
Heartbeat CPU 0 instructions: 10000001 cycles: 3744515 heartbeat IPC: 2.67057 cumulative IPC: 2.67057 (Simulation time: 0 hr 0 min 43 sec) 
Heartbeat CPU 0 instructions: 20000002 cycles: 7468068 heartbeat IPC: 2.68561 cumulative IPC: 2.67807 (Simulation time: 0 hr 1 min 26 sec) 
Heartbeat CPU 0 instructions: 30000001 cycles: 11188755 heartbeat IPC: 2.68768 cumulative IPC: 2.68126 (Simulation time: 0 hr 2 min 11 sec) 
Heartbeat CPU 0 instructions: 40000002 cycles: 14908914 heartbeat IPC: 2.68806 cumulative IPC: 2.68296 (Simulation time: 0 hr 3 min 0 sec) 
Heartbeat CPU 0 instructions: 50000001 cycles: 18632872 heartbeat IPC: 2.68531 cumulative IPC: 2.68343 (Simulation time: 0 hr 3 min 41 sec) 

Warmup complete CPU 0 instructions: 50000001 cycles: 18632872 (Simulation time: 0 hr 3 min 41 sec) 

Heartbeat CPU 0 instructions: 60000002 cycles: 30029304 heartbeat IPC: 0.877468 cumulative IPC: 0.877468 (Simulation time: 0 hr 4 min 18 sec) 
Heartbeat CPU 0 instructions: 70000000 cycles: 41390200 heartbeat IPC: 0.880212 cumulative IPC: 0.878838 (Simulation time: 0 hr 4 min 55 sec) 
Heartbeat CPU 0 instructions: 80000000 cycles: 52927928 heartbeat IPC: 0.866722 cumulative IPC: 0.874762 (Simulation time: 0 hr 5 min 34 sec) 
Heartbeat CPU 0 instructions: 90000001 cycles: 64180398 heartbeat IPC: 0.888694 cumulative IPC: 0.878204 (Simulation time: 0 hr 6 min 13 sec) 
Heartbeat CPU 0 instructions: 100000000 cycles: 75597193 heartbeat IPC: 0.875902 cumulative IPC: 0.877742 (Simulation time: 0 hr 6 min 51 sec) 
Heartbeat CPU 0 instructions: 110000000 cycles: 86959163 heartbeat IPC: 0.880129 cumulative IPC: 0.878139 (Simulation time: 0 hr 7 min 29 sec) 
Heartbeat CPU 0 instructions: 120000002 cycles: 98251727 heartbeat IPC: 0.885539 cumulative IPC: 0.879189 (Simulation time: 0 hr 8 min 7 sec) 
Heartbeat CPU 0 instructions: 130000002 cycles: 109640636 heartbeat IPC: 0.878047 cumulative IPC: 0.879046 (Simulation time: 0 hr 8 min 44 sec) 
Heartbeat CPU 0 instructions: 140000001 cycles: 121192860 heartbeat IPC: 0.865634 cumulative IPC: 0.877535 (Simulation time: 0 hr 9 min 23 sec) 
Heartbeat CPU 0 instructions: 150000001 cycles: 132591211 heartbeat IPC: 0.87732 cumulative IPC: 0.877514 (Simulation time: 0 hr 10 min 0 sec) 
Heartbeat CPU 0 instructions: 160000000 cycles: 143933413 heartbeat IPC: 0.881663 cumulative IPC: 0.877889 (Simulation time: 0 hr 10 min 38 sec) 
Heartbeat CPU 0 instructions: 170000001 cycles: 155174610 heartbeat IPC: 0.889585 cumulative IPC: 0.878852 (Simulation time: 0 hr 11 min 16 sec) 
Heartbeat CPU 0 instructions: 180000000 cycles: 166683883 heartbeat IPC: 0.868865 cumulative IPC: 0.878076 (Simulation time: 0 hr 11 min 54 sec) 
Heartbeat CPU 0 instructions: 190000002 cycles: 177946735 heartbeat IPC: 0.887875 cumulative IPC: 0.878769 (Simulation time: 0 hr 12 min 32 sec) 
Heartbeat CPU 0 instructions: 200000002 cycles: 189419796 heartbeat IPC: 0.871607 cumulative IPC: 0.878287 (Simulation time: 0 hr 13 min 11 sec) 
Heartbeat CPU 0 instructions: 210000003 cycles: 200594481 heartbeat IPC: 0.89488 cumulative IPC: 0.879306 (Simulation time: 0 hr 13 min 47 sec) 
Heartbeat CPU 0 instructions: 220000000 cycles: 211961813 heartbeat IPC: 0.879714 cumulative IPC: 0.87933 (Simulation time: 0 hr 14 min 24 sec) 
Heartbeat CPU 0 instructions: 230000001 cycles: 223230888 heartbeat IPC: 0.887384 cumulative IPC: 0.879774 (Simulation time: 0 hr 15 min 1 sec) 
Heartbeat CPU 0 instructions: 240000003 cycles: 234480977 heartbeat IPC: 0.888882 cumulative IPC: 0.880249 (Simulation time: 0 hr 15 min 37 sec) 
Heartbeat CPU 0 instructions: 250000001 cycles: 245833002 heartbeat IPC: 0.8809 cumulative IPC: 0.880281 (Simulation time: 0 hr 16 min 13 sec) 
Finished CPU 0 instructions: 200000000 cycles: 227200130 cumulative IPC: 0.880281 (Simulation time: 0 hr 16 min 13 sec) 
 Instruction ID: 250000047

ChampSim completed all CPUs

Region of Interest Statistics

CPU 0 cumulative IPC: 0.880281 instructions: 200000000 cycles: 227200130
ITLB SPEC fills:          0  NON-SPEC fills:          0
ITLB Test counter :          0
ITLB Leapfrog:          0
ITLB MSHR merge:          0
ITLB TOTAL     ACCESS:   28472553  HIT:   28472553  MISS:          0  HIT %:        100  MISS %:          0   MPKI: 0
ITLB LOAD TRANSLATION NON_SPEC    ACCESS:   28472553  HIT:   28472553  MISS:          0  HIT %:        100  MISS %:          0   MPKI: 0
ITLB PREFETCH  REQUESTED:          0  ISSUED:          0  USEFUL:          0  USELESS:          0
ITLB USEFUL LOAD PREFETCHES:          0 PREFETCH ISSUED TO LOWER LEVEL:          0  ACCURACY: -nan
ITLB TIMELY PREFETCHES:          0 LATE PREFETCHES: 0 DROPPED PREFETCHES: 0
ITLB COMMIT LATE PREFETCHES: 0 MISSED OPPORTUNITY: 0 LATE IN PQ: 0 UNCOVERED: 0
ITLB COMMIT LATE MSHR PREFETCHES: 0
ITLB MPKI TOTAL: 0 MSHR LATE: 0 PQ LATE: 0 COMMIT LATE: 0 MISSED OPPORTUNITY: 0 UNCOVERED: 0
ITLB PREFETCHES SAME FILL-ORIGIN LEVEL: 0 DIFFERENT FILL-ORIGIN LEVEL: 0
ITLB AVERAGE MISS LATENCY: -nan cycles
ITLB AVERAGE MISS LATENCY LOAD: -nan cycles
ITLB AVERAGE MISS LATENCY PREFETCH: -nan cycles
ITLB AVERAGE MSHR OCCUPANCY: 0
ITLB MSHR FULL: 0
ITLB RQ	ACCESS:   35553091	FORWARD:          0	MERGED:    7080539	TO_CACHE:   28472552

DTLB SPEC fills:          0  NON-SPEC fills:          0
DTLB Test counter :          0
DTLB Leapfrog:          0
DTLB MSHR merge:          0
DTLB TOTAL     ACCESS:   39431491  HIT:   39343685  MISS:      87806  HIT %:    99.7773  MISS %:    0.22268   MPKI: 0.43903
DTLB LOAD TRANSLATION NON_SPEC    ACCESS:   39431491  HIT:   39343685  MISS:      87806  HIT %:    99.7773  MISS %:    0.22268   MPKI: 0.43903
DTLB PREFETCH  REQUESTED:          0  ISSUED:          0  USEFUL:          0  USELESS:          0
DTLB USEFUL LOAD PREFETCHES:          0 PREFETCH ISSUED TO LOWER LEVEL:          0  ACCURACY: -nan
DTLB TIMELY PREFETCHES:          0 LATE PREFETCHES: 0 DROPPED PREFETCHES: 0
DTLB COMMIT LATE PREFETCHES: 0 MISSED OPPORTUNITY: 0 LATE IN PQ: 0 UNCOVERED: 0
DTLB COMMIT LATE MSHR PREFETCHES: 0
DTLB MPKI TOTAL: 0 MSHR LATE: 0 PQ LATE: 0 COMMIT LATE: 0 MISSED OPPORTUNITY: 0 UNCOVERED: 0
DTLB PREFETCHES SAME FILL-ORIGIN LEVEL: 0 DIFFERENT FILL-ORIGIN LEVEL: 0
DTLB AVERAGE MISS LATENCY: 10.3089 cycles
DTLB AVERAGE MISS LATENCY LOAD: -nan cycles
DTLB AVERAGE MISS LATENCY PREFETCH: -nan cycles
DTLB AVERAGE MSHR OCCUPANCY: 0.00110779
DTLB MSHR FULL: 0
DTLB RQ	ACCESS:   44143830	FORWARD:          0	MERGED:    4712058	TO_CACHE:   39431772

STLB SPEC fills:          0  NON-SPEC fills:          0
STLB Test counter :          0
STLB Leapfrog:          0
STLB MSHR merge:          0
STLB TOTAL     ACCESS:    3310804  HIT:    3310622  MISS:        182  HIT %:    99.9945  MISS %: 0.00549715   MPKI: 0.00091
STLB LOAD TRANSLATION NON_SPEC    ACCESS:      87806  HIT:      87624  MISS:        182  HIT %:    99.7927  MISS %:   0.207275   MPKI: 0.00091
STLB TRANSLATION FROM L1D PREFETCHER NON_SPEC    ACCESS:    3222998  HIT:    3222998  MISS:          0  HIT %:        100  MISS %:          0   MPKI: 0
STLB PREFETCH  REQUESTED:          0  ISSUED:          0  USEFUL:          0  USELESS:          0
STLB USEFUL LOAD PREFETCHES:          0 PREFETCH ISSUED TO LOWER LEVEL:          0  ACCURACY: -nan
STLB TIMELY PREFETCHES:          0 LATE PREFETCHES: 0 DROPPED PREFETCHES: 0
STLB COMMIT LATE PREFETCHES: 0 MISSED OPPORTUNITY: 0 LATE IN PQ: 0 UNCOVERED: 0
STLB COMMIT LATE MSHR PREFETCHES: 0
STLB MPKI TOTAL: 0 MSHR LATE: 0 PQ LATE: 0 COMMIT LATE: 0 MISSED OPPORTUNITY: 0 UNCOVERED: 0
STLB PREFETCHES SAME FILL-ORIGIN LEVEL: 0 DIFFERENT FILL-ORIGIN LEVEL: 0
STLB AVERAGE MISS LATENCY: 619.786 cycles
STLB AVERAGE MISS LATENCY LOAD: -nan cycles
STLB AVERAGE MISS LATENCY PREFETCH: -nan cycles
STLB AVERAGE MSHR OCCUPANCY: 4.65144e-05
STLB MSHR FULL: 0
STLB RQ	ACCESS:    7268720	FORWARD:          0	MERGED:    3957916	TO_CACHE:    3310804

STLB Hit, L1D data hit: 0
STLB Hit, L2C data hit: 0
STLB Hit, LLC data hit: 0
STLB Hit, LLC data miss: 0
STLB STLB hints to L2: 0
L0D SPEC fills:   23709902  NON-SPEC fills:          0
L0D TimeGuard Request with older TS:     185221 Restricted eviction:      63662 read:      24133
L0D Test counter :          0
L0D Leapfrog:          0
L0D MSHR merge:    1980610
L0D TOTAL     ACCESS:   38624497  HIT:    7502111  MISS:   31122386  HIT %:    19.4232  MISS %:    80.5768   MPKI: 155.612
L0D LOAD      TOTAL       ACCESS:   38624497  HIT:    7502111  MISS:   31122386  HIT %:    19.4232  MISS %:    80.5768   MPKI: 155.612
L0D LOAD      NON_SPEC    ACCESS:    7416305  HIT:      67483  MISS:    7348822  HIT %:   0.909928  MISS %:    99.0901   MPKI: 36.7441
L0D LOAD      SPEC        ACCESS:   31208192  HIT:    7434628  MISS:   23773564  HIT %:    23.8227  MISS %:    76.1773   MPKI: 118.868
L0D PREFETCH  REQUESTED:          0  ISSUED:          0  USEFUL:          0  USELESS:          0
L0D USEFUL LOAD PREFETCHES:          0 PREFETCH ISSUED TO LOWER LEVEL:          0  ACCURACY: -nan
L0D TIMELY PREFETCHES:          0 LATE PREFETCHES: 0 DROPPED PREFETCHES: 0
L0D COMMIT LATE PREFETCHES: 0 MISSED OPPORTUNITY: 0 LATE IN PQ: 0 UNCOVERED: 0
L0D COMMIT LATE MSHR PREFETCHES: 0
L0D MPKI TOTAL: 165.515 MSHR LATE: 0 PQ LATE: 0 COMMIT LATE: 0 MISSED OPPORTUNITY: 0 UNCOVERED: 0
L0D PREFETCHES SAME FILL-ORIGIN LEVEL: 0 DIFFERENT FILL-ORIGIN LEVEL: 0
L0D AVERAGE MISS LATENCY: 6.84208 cycles
L0D AVERAGE MISS LATENCY LOAD: 6.84208 cycles
L0D AVERAGE MISS LATENCY PREFETCH: -nan cycles
L0D AVERAGE MSHR OCCUPANCY: 0.673513
L0D MSHR FULL: 0
L0D RQ	ACCESS:   59776488	FORWARD:          0	MERGED:   19171383	TO_CACHE:   40605105
L0D WQ	ACCESS:    3538725	FORWARD:          0	MERGED:          0	TO_CACHE:    3538725

L1D SPEC fills:          0  NON-SPEC fills:     158612
L1D Test counter :     355300
L1D Leapfrog:          0
L1D MSHR merge:     105483
L1D TOTAL     ACCESS:   42500425  HIT:   36617368  MISS:    5883057  HIT %:    86.1577  MISS %:    13.8423   MPKI: 29.4153
L1D LOAD      TOTAL       ACCESS:   31121981  HIT:   30576328  MISS:     545653  HIT %:    98.2467  MISS %:    1.75327   MPKI: 2.72826
L1D LOAD      NON_SPEC    ACCESS:    7348762  HIT:    7190150  MISS:     158612  HIT %:    97.8417  MISS %:    2.15835   MPKI: 0.79306
L1D LOAD      SPEC        ACCESS:   23773219  HIT:   23386178  MISS:     387041  HIT %:    98.3719  MISS %:    1.62805   MPKI: 1.93521
L1D RFO       NON_SPEC    ACCESS:    3538725  HIT:    3538725  MISS:          0  HIT %:        100  MISS %:          0   MPKI: 0
L1D PREFETCH  NON_SPEC    ACCESS:    6957071  HIT:    2004437  MISS:    4952634  HIT %:    28.8115  MISS %:    71.1885   MPKI: 24.7632
L1D COMMIT LOAD NON_SPEC    ACCESS:     457774  HIT:     457046  MISS:        728  HIT %:     99.841  MISS %:    0.15903   MPKI: 0.00364
L1D COMMIT WRITE NON_SPEC    ACCESS:     424874  HIT:      40832  MISS:     384042  HIT %:    9.61038  MISS %:    90.3896   MPKI: 1.92021
L1D PREFETCH  REQUESTED:    7184774  ISSUED:    7180914  USEFUL:    4519769  USELESS:     432887
L1D USEFUL LOAD PREFETCHES:    4519769 PREFETCH ISSUED TO LOWER LEVEL:    5057757  ACCURACY: 89.3631
L1D TIMELY PREFETCHES:    4519769 LATE PREFETCHES: 105117 DROPPED PREFETCHES: 0
L1D COMMIT LATE PREFETCHES: 0 MISSED OPPORTUNITY: 0 LATE IN PQ: 0 UNCOVERED: 0
L1D COMMIT LATE MSHR PREFETCHES: 0
L1D MPKI TOTAL: 2.73029 MSHR LATE: 0.525585 PQ LATE: 0 COMMIT LATE: 0 MISSED OPPORTUNITY: 0 UNCOVERED: 0
L1D PREFETCHES SAME FILL-ORIGIN LEVEL: 5057757 DIFFERENT FILL-ORIGIN LEVEL: 0
L1D AVERAGE MISS LATENCY: 120.331 cycles
L1D AVERAGE MISS LATENCY LOAD: 97.972 cycles
L1D AVERAGE MISS LATENCY PREFETCH: 132.132 cycles
L1D AVERAGE MSHR OCCUPANCY: 2.77207
L1D MSHR FULL: 0.000455036
L1D RQ	ACCESS:   32150652	FORWARD:          0	MERGED:     570031	TO_CACHE:   31580621
L1D WQ	ACCESS:    3963599	FORWARD:          0	MERGED:          0	TO_CACHE:    3963599
L1D PQ	ACCESS:    7180914	FORWARD:          0	MERGED:          0	TO_CACHE:    7180914

L1D UNIQUE REGIONS ACCESSED: 0
L1D REGIONS CONFLICTS: 0
L1D Cross Page Prefetch Requests: 0
L1D Same Page Prefetch Requests: 8971767
L1D ROI Sum of L1D PQ occupancy: 101041046
L1D PREFETCHES PUSHED FROM L2C: 0
L1I SPEC fills:          0  NON-SPEC fills:          0
L1I Test counter :          0
L1I Leapfrog:          0
L1I MSHR merge:          0
L1I TOTAL     ACCESS:   35553092  HIT:   35553092  MISS:          0  HIT %:        100  MISS %:          0   MPKI: 0
L1I LOAD      TOTAL       ACCESS:   35553092  HIT:   35553092  MISS:          0  HIT %:        100  MISS %:          0   MPKI: 0
L1I LOAD      NON_SPEC    ACCESS:   35553092  HIT:   35553092  MISS:          0  HIT %:        100  MISS %:          0   MPKI: 0
L1I PREFETCH  REQUESTED:          0  ISSUED:          0  USEFUL:          0  USELESS:          0
L1I USEFUL LOAD PREFETCHES:          0 PREFETCH ISSUED TO LOWER LEVEL:          0  ACCURACY: -nan
L1I TIMELY PREFETCHES:          0 LATE PREFETCHES: 0 DROPPED PREFETCHES: 0
L1I COMMIT LATE PREFETCHES: 0 MISSED OPPORTUNITY: 0 LATE IN PQ: 0 UNCOVERED: 0
L1I COMMIT LATE MSHR PREFETCHES: 0
L1I MPKI TOTAL: 0 MSHR LATE: 0 PQ LATE: 0 COMMIT LATE: 0 MISSED OPPORTUNITY: 0 UNCOVERED: 0
L1I PREFETCHES SAME FILL-ORIGIN LEVEL: 0 DIFFERENT FILL-ORIGIN LEVEL: 0
L1I AVERAGE MISS LATENCY: -nan cycles
L1I AVERAGE MISS LATENCY LOAD: -nan cycles
L1I AVERAGE MISS LATENCY PREFETCH: -nan cycles
L1I AVERAGE MSHR OCCUPANCY: 0
L1I MSHR FULL: 0
L1I RQ	ACCESS:   66096081	FORWARD:          0	MERGED:   30542990	TO_CACHE:   35553091

BTB SPEC fills:          0  NON-SPEC fills:          0
BTB Test counter :          0
BTB Leapfrog:          0
BTB MSHR merge:          0
BTB TOTAL     ACCESS:   34960369  HIT:   34960352  MISS:         17  HIT %:        100  MISS %: 4.86265e-05   MPKI: 8.5e-05
BTB BRANCH_DIRECT_JUMP	ACCESS:        138  HIT:        137  MISS:          1
BTB BRANCH_INDIRECT	ACCESS:          0  HIT:          0  MISS:          0
BTB BRANCH_CONDITIONAL	ACCESS:   31422478  HIT:   31422469  MISS:          9
BTB BRANCH_DIRECT_CALL	ACCESS:     884507  HIT:     884505  MISS:          2
BTB BRANCH_INDIRECT_CALL	ACCESS:     884370  HIT:     884369  MISS:          1
BTB BRANCH_RETURN	ACCESS:    1768876  HIT:    1768872  MISS:          4
BTB BRANCH_OTHER ACCESS:          0  HIT:          0  MISS:          0

L2C SPEC fills:          0  NON-SPEC fills:     114256
L2C Test counter :     354949
L2C Leapfrog:          0
L2C MSHR merge:          0
L2C TOTAL     ACCESS:    5855026  HIT:     209913  MISS:    5645113  HIT %:    3.58518  MISS %:    96.4148   MPKI: 28.2256
L2C LOAD      TOTAL       ACCESS:     440376  HIT:      47706  MISS:     392670  HIT %:     10.833  MISS %:     89.167   MPKI: 1.96335
L2C LOAD      NON_SPEC    ACCESS:     116702  HIT:       2446  MISS:     114256  HIT %:    2.09594  MISS %:    97.9041   MPKI: 0.57128
L2C LOAD      SPEC        ACCESS:     323674  HIT:      45260  MISS:     278414  HIT %:    13.9832  MISS %:    86.0168   MPKI: 1.39207
L2C PREFETCH  NON_SPEC    ACCESS:    5057751  HIT:      72180  MISS:    4985571  HIT %:    1.42712  MISS %:    98.5729   MPKI: 24.9279
L2C CLEAN_EVICTION NON_SPEC    ACCESS:     355300  HIT:      89368  MISS:     265932  HIT %:    25.1528  MISS %:    74.8472   MPKI: 1.32966
L2C COMMIT LOAD NON_SPEC    ACCESS:        689  HIT:        322  MISS:        367  HIT %:    46.7344  MISS %:    53.2656   MPKI: 0.001835
L2C LOAD TRANSLATION NON_SPEC    ACCESS:        910  HIT:        337  MISS:        573  HIT %:     37.033  MISS %:     62.967   MPKI: 0.002865
L2C PREFETCH  REQUESTED:          0  ISSUED:          0  USEFUL:       5031  USELESS:    4980752
L2C USEFUL LOAD PREFETCHES:       5031 PREFETCH ISSUED TO LOWER LEVEL:    4985577  ACCURACY: 0.100911
L2C TIMELY PREFETCHES:       5031 LATE PREFETCHES: 0 DROPPED PREFETCHES: 0
L2C COMMIT LATE PREFETCHES: 0 MISSED OPPORTUNITY: 0 LATE IN PQ: 0 UNCOVERED: 0
L2C COMMIT LATE MSHR PREFETCHES: 0
L2C MPKI TOTAL: 1.96335 MSHR LATE: 0 PQ LATE: 0 COMMIT LATE: 0 MISSED OPPORTUNITY: 0 UNCOVERED: 0
L2C PREFETCHES SAME FILL-ORIGIN LEVEL: 0 DIFFERENT FILL-ORIGIN LEVEL: 0
L2C AVERAGE MISS LATENCY: 112.666 cycles
L2C AVERAGE MISS LATENCY LOAD: 102.675 cycles
L2C AVERAGE MISS LATENCY PREFETCH: 119.459 cycles
L2C AVERAGE MSHR OCCUPANCY: 1.72608
L2C MSHR FULL: 0
L2C RQ	ACCESS:     442174	FORWARD:          0	MERGED:          0	TO_CACHE:     441975
L2C WQ	ACCESS:     355300	FORWARD:        199	MERGED:          0	TO_CACHE:     355300
L2C PQ	ACCESS:    5057757	FORWARD:          0	MERGED:          0	TO_CACHE:    5057757

L2C Instructions Evicting Data 0
L2C Translations Evicting Data 573
L2C Data Evicting Data 5099748
L2C Instructions Evicting Instructions 0
L2C Translations Evicting Instructions 0
L2C Data Evicting Instructions 0
L2C Instructions Evicting Translations 0
L2C Translations Evicting Translations 0
L2C Data Evicting Translations 446
L2C Dense regions hint from L2: 0
PSCL5 SPEC fills:          0  NON-SPEC fills:          0
PSCL5 Test counter :          0
PSCL5 Leapfrog:          0
PSCL5 MSHR merge:          0
PSCL5 TOTAL     ACCESS:          0  HIT:          0  MISS:          0  HIT %:       -nan  MISS %:       -nan   MPKI: 0
PSCL5 PREFETCH  REQUESTED:          0  ISSUED:          0  USEFUL:          0  USELESS:          0
PSCL5 USEFUL LOAD PREFETCHES:          0 PREFETCH ISSUED TO LOWER LEVEL:          0  ACCURACY: -nan
PSCL5 TIMELY PREFETCHES:          0 LATE PREFETCHES: 0 DROPPED PREFETCHES: 0
PSCL5 COMMIT LATE PREFETCHES: 0 MISSED OPPORTUNITY: 0 LATE IN PQ: 0 UNCOVERED: 0
PSCL5 COMMIT LATE MSHR PREFETCHES: 0
PSCL5 MPKI TOTAL: 0 MSHR LATE: 0 PQ LATE: 0 COMMIT LATE: 0 MISSED OPPORTUNITY: 0 UNCOVERED: 0
PSCL5 PREFETCHES SAME FILL-ORIGIN LEVEL: 0 DIFFERENT FILL-ORIGIN LEVEL: 0

PSCL4 SPEC fills:          0  NON-SPEC fills:          0
PSCL4 Test counter :          0
PSCL4 Leapfrog:          0
PSCL4 MSHR merge:          0
PSCL4 TOTAL     ACCESS:          0  HIT:          0  MISS:          0  HIT %:       -nan  MISS %:       -nan   MPKI: 0
PSCL4 PREFETCH  REQUESTED:          0  ISSUED:          0  USEFUL:          0  USELESS:          0
PSCL4 USEFUL LOAD PREFETCHES:          0 PREFETCH ISSUED TO LOWER LEVEL:          0  ACCURACY: -nan
PSCL4 TIMELY PREFETCHES:          0 LATE PREFETCHES: 0 DROPPED PREFETCHES: 0
PSCL4 COMMIT LATE PREFETCHES: 0 MISSED OPPORTUNITY: 0 LATE IN PQ: 0 UNCOVERED: 0
PSCL4 COMMIT LATE MSHR PREFETCHES: 0
PSCL4 MPKI TOTAL: 0 MSHR LATE: 0 PQ LATE: 0 COMMIT LATE: 0 MISSED OPPORTUNITY: 0 UNCOVERED: 0
PSCL4 PREFETCHES SAME FILL-ORIGIN LEVEL: 0 DIFFERENT FILL-ORIGIN LEVEL: 0

PSCL3 SPEC fills:          0  NON-SPEC fills:          0
PSCL3 Test counter :          0
PSCL3 Leapfrog:          0
PSCL3 MSHR merge:          0
PSCL3 TOTAL     ACCESS:          0  HIT:          0  MISS:          0  HIT %:       -nan  MISS %:       -nan   MPKI: 0
PSCL3 PREFETCH  REQUESTED:          0  ISSUED:          0  USEFUL:          0  USELESS:          0
PSCL3 USEFUL LOAD PREFETCHES:          0 PREFETCH ISSUED TO LOWER LEVEL:          0  ACCURACY: -nan
PSCL3 TIMELY PREFETCHES:          0 LATE PREFETCHES: 0 DROPPED PREFETCHES: 0
PSCL3 COMMIT LATE PREFETCHES: 0 MISSED OPPORTUNITY: 0 LATE IN PQ: 0 UNCOVERED: 0
PSCL3 COMMIT LATE MSHR PREFETCHES: 0
PSCL3 MPKI TOTAL: 0 MSHR LATE: 0 PQ LATE: 0 COMMIT LATE: 0 MISSED OPPORTUNITY: 0 UNCOVERED: 0
PSCL3 PREFETCHES SAME FILL-ORIGIN LEVEL: 0 DIFFERENT FILL-ORIGIN LEVEL: 0

PSCL2 SPEC fills:          0  NON-SPEC fills:          0
PSCL2 Test counter :          0
PSCL2 Leapfrog:          0
PSCL2 MSHR merge:          0
PSCL2 TOTAL     ACCESS:          0  HIT:          0  MISS:          0  HIT %:       -nan  MISS %:       -nan   MPKI: 0
PSCL2 PREFETCH  REQUESTED:          0  ISSUED:          0  USEFUL:          0  USELESS:          0
PSCL2 USEFUL LOAD PREFETCHES:          0 PREFETCH ISSUED TO LOWER LEVEL:          0  ACCURACY: -nan
PSCL2 TIMELY PREFETCHES:          0 LATE PREFETCHES: 0 DROPPED PREFETCHES: 0
PSCL2 COMMIT LATE PREFETCHES: 0 MISSED OPPORTUNITY: 0 LATE IN PQ: 0 UNCOVERED: 0
PSCL2 COMMIT LATE MSHR PREFETCHES: 0
PSCL2 MPKI TOTAL: 0 MSHR LATE: 0 PQ LATE: 0 COMMIT LATE: 0 MISSED OPPORTUNITY: 0 UNCOVERED: 0
PSCL2 PREFETCHES SAME FILL-ORIGIN LEVEL: 0 DIFFERENT FILL-ORIGIN LEVEL: 0

LLC SPEC fills:          0  NON-SPEC fills:      96528
LLC Test counter :     297556
LLC Leapfrog:          0
LLC MSHR merge:          0
LLC TOTAL     ACCESS:    5734120  HIT:    1025017  MISS:    4709103  HIT %:    17.8758  MISS %:    82.1242   MPKI: 23.5455
LLC LOAD      TOTAL       ACCESS:     392660  HIT:      95665  MISS:     296995  HIT %:    24.3633  MISS %:    75.6367   MPKI: 1.48497
LLC LOAD      NON_SPEC    ACCESS:     114256  HIT:      17728  MISS:      96528  HIT %:     15.516  MISS %:     84.484   MPKI: 0.48264
LLC LOAD      SPEC        ACCESS:     278404  HIT:      77937  MISS:     200467  HIT %:    27.9942  MISS %:    72.0058   MPKI: 1.00233
LLC PREFETCH  NON_SPEC    ACCESS:    4985571  HIT:     791616  MISS:    4193955  HIT %:    15.8781  MISS %:    84.1219   MPKI: 20.9698
LLC CLEAN_EVICTION NON_SPEC    ACCESS:     354949  HIT:     137402  MISS:     217547  HIT %:    38.7103  MISS %:    61.2897   MPKI: 1.08773
LLC COMMIT LOAD NON_SPEC    ACCESS:        367  HIT:        141  MISS:        226  HIT %:    38.4196  MISS %:    61.5804   MPKI: 0.00113
LLC LOAD TRANSLATION NON_SPEC    ACCESS:        573  HIT:        193  MISS:        380  HIT %:    33.6824  MISS %:    66.3176   MPKI: 0.0019
LLC PREFETCH  REQUESTED:          0  ISSUED:          0  USEFUL:       5937  USELESS:    4189183
LLC USEFUL LOAD PREFETCHES:       5937 PREFETCH ISSUED TO LOWER LEVEL:    4193961  ACCURACY: 0.141561
LLC TIMELY PREFETCHES:       5937 LATE PREFETCHES: 0 DROPPED PREFETCHES: 0
LLC COMMIT LATE PREFETCHES: 0 MISSED OPPORTUNITY: 0 LATE IN PQ: 0 UNCOVERED: 0
LLC COMMIT LATE MSHR PREFETCHES: 0
LLC MPKI TOTAL: 1.48497 MSHR LATE: 0 PQ LATE: 0 COMMIT LATE: 0 MISSED OPPORTUNITY: 0 UNCOVERED: 0
LLC PREFETCHES SAME FILL-ORIGIN LEVEL: 0 DIFFERENT FILL-ORIGIN LEVEL: 0
LLC AVERAGE MISS LATENCY: 101.319 cycles
LLC AVERAGE MISS LATENCY LOAD: 104.514 cycles
LLC AVERAGE MISS LATENCY PREFETCH: 106.34 cycles
LLC AVERAGE MSHR OCCUPANCY: 1.21606
LLC MSHR FULL: 0
LLC RQ	ACCESS:     393610	FORWARD:          0	MERGED:          0	TO_CACHE:     393600
LLC WQ	ACCESS:     354949	FORWARD:         10	MERGED:          0	TO_CACHE:     354949
LLC PQ	ACCESS:    4985577	FORWARD:          0	MERGED:          0	TO_CACHE:    4985577

LLC Dense regions hint to LLC: 0

RAW hits: 3406
Loads Generated: 59779896
Loads sent to L1D: 59776488
Stores Generated: 3538724
Stores sent to L1D: 3538725
Major fault: 0 Minor fault: 1485
Allocated PAGES: 1485
Total Load insts: 74722248
Total Non-spec loads: 7771979
Percentage of speculative loads: 89.5988

LeapFrogging counter: 964
Commit hits: 23593277 miss: 28763634
Commit hit %: 45.0624 miss %: 54.9376
Commits not translated: 0
Loads retired: 545653
Stores retired: 3538725
Cache fills: 545653
L1D response latency: 97.972 cycles
Load retirement latency: 129.709 cycles
OOO test counter: 0
Discarded buffer inserts: 23593277 hits: 15281 hit %: 0.0647685

stream: 
stream:times selected: 18907988
stream:pref_filled: 604770
stream:pref_useful: 86246
stream:pref_late: 21299
stream:misses: 444165
stream:misses_by_poll: 0

CS: 
CS:times selected: 15182862
CS:pref_filled: 5578898
CS:pref_useful: 5548386
CS:pref_late: 19211
CS:misses: 336408
CS:misses_by_poll: 25288

CPLX: 
CPLX:times selected: 3724982
CPLX:pref_filled: 73325
CPLX:pref_useful: 67038
CPLX:pref_late: 263
CPLX:misses: 144015
CPLX:misses_by_poll: 605

NL_L1: 
NL:times selected: 163
NL:pref_filled: 34
NL:pref_useful: 32
NL:pref_late: 9
NL:misses: 29
NL:misses_by_poll: 0

total selections: 37815995
total_filled: 4952634
total_useful: 4519769
total_late: 42094
total_polluted: 25893
total_misses_after_warmup: 856603
conflicts: 0
Degree Incremented Times: 857918
Degree Decremented Times: 308156

L1 IP Table Write Accesses: 61549761
L1 IP Table Read Accesses: 61549761
L1 RST Write Accesses: 15132975
L1 RST Read Accesses: 30265950
L1 CSPT Write Accesses: 15132975
L1 CSPT Read Accesses: 22241110
L1 RR Filter Tag Write Accesses: 7184774
L1 RR Filter Tag Read Accesses: 1102454846
L1 IP Table Tag Write Accesses: 63318641
L1 IP Table Tag Read Accesses: 63318641
L1 RST Tag Write Accesses: 0
L1 RST Tag Read Accesses: 142438955
L1 RR Filter Write Accesses: 0
L1 RR Filter Read Accesses: 50614145
test: 3721464

DRAM Statistics
 CHANNEL 0
 RQ ROW_BUFFER_HIT:    3146559  ROW_BUFFER_MISS:    1344991
 DBUS_CONGESTED:      27304
 WQ ROW_BUFFER_HIT:      58780  ROW_BUFFER_MISS:     238775  FULL:          0

 AVG_CONGESTED_CYCLE: 4
 All warmup complete: 2
Channel 0 Bank busy for read cycles: 0
Channel 0 Bank busy for write cycles: 0
Channel 0
Rank 0
0banks busy for read cycles: 56225661
0banks busy for write cycles: 62348
1banks busy for read cycles: 39465978
1banks busy for write cycles: 10162701
2banks busy for read cycles: 26532753
2banks busy for write cycles: 9244569
3banks busy for read cycles: 22354687
3banks busy for write cycles: 9996046
4banks busy for read cycles: 16833963
4banks busy for write cycles: 7363154
5banks busy for read cycles: 12769049
5banks busy for write cycles: 3607272
6banks busy for read cycles: 9200770
6banks busy for write cycles: 1237023
7banks busy for read cycles: 1443046
7banks busy for write cycles: 257702
8banks busy for read cycles: 401421
8banks busy for write cycles: 41988

CPU 0 Branch Prediction Accuracy: 99.9949% MPKI: 0.01412 Average ROB Occupancy at Mispredict: 92.8966
Branch types
NOT_BRANCH: 144641709 72.3209%
BRANCH_DIRECT_JUMP: 138 6.9e-05%
BRANCH_INDIRECT: 0 0%
BRANCH_CONDITIONAL: 51820077 25.91%
BRANCH_DIRECT_CALL: 884507 0.442254%
BRANCH_INDIRECT_CALL: 884370 0.442185%
BRANCH_RETURN: 1768876 0.884438%
BRANCH_OTHER: 0 0%

DRAM PAGES: 1048576
Allocated PAGES: 1485
