
*** ChampSim Multicore Out-of-Order Simulator ***

Warmup Instructions: 50000000
Simulation Instructions: 200000000
Number of CPUs: 1
LLC sets: 2048
LLC ways: 16
L0D sets: 16
L0D ways: 2
ROB size: 352
LQ size: 128
SQ size: 72
Secure Berti: OFF
Berti: OFF
Berti Fill: OFF
On commit prefetching: ON
Hit-based filter: ON
Time-guarding: ON
Free-slotting: ON
Leap-frogging: ON
Train prefetcher on L0D bypass: OFF
No translation penalty for prefetchers: OFF
Prefetch to L0D only: OFF
Prefetch to L1D only: OFF
Clean evictions: ON
Commit loads: ON
Commit write: ON
Fill commit loads to L2C, LLC: ON
DRAM IO FREQUENCY: 6400
ROB SIZE: 352
Off-chip DRAM Size: 4096 MB Channels: 1 Width: 64-bit Data Rate: 6400 MT/s
CPU 0 runs /home/sumon/secure_berti/GhostMinion/../../traces/spec/628.pop2_s-17B.champsimtrace.xz
.xz
BTB has LRU replacement policy
ITLB has LRU replacement policy
DTLB has LRU replacement policy
STLB has LRU replacement policy
L1I has LRU replacement policy
L0D has LRU replacement policy
IP Table Entries: 1024
CSPT Entries: 128
RR_ENTRIES: 32
RST_ENTRIES: 8
L1D has LRU replacement policy
L2C has LRU replacement policy
LLC has LRU replacement policy
Heartbeat CPU 0 instructions: 10000003 cycles: 3174815 heartbeat IPC: 3.14979 cumulative IPC: 3.14979 (Simulation time: 0 hr 1 min 4 sec) 
Heartbeat CPU 0 instructions: 20000001 cycles: 6347994 heartbeat IPC: 3.15141 cumulative IPC: 3.1506 (Simulation time: 0 hr 2 min 10 sec) 
Heartbeat CPU 0 instructions: 30000003 cycles: 9519972 heartbeat IPC: 3.15261 cumulative IPC: 3.15127 (Simulation time: 0 hr 3 min 18 sec) 
Heartbeat CPU 0 instructions: 40000003 cycles: 12690615 heartbeat IPC: 3.15393 cumulative IPC: 3.15194 (Simulation time: 0 hr 4 min 27 sec) 
Heartbeat CPU 0 instructions: 50000000 cycles: 15861499 heartbeat IPC: 3.15369 cumulative IPC: 3.15229 (Simulation time: 0 hr 5 min 15 sec) 

Warmup complete CPU 0 instructions: 50000004 cycles: 15861500 (Simulation time: 0 hr 5 min 15 sec) 

Heartbeat CPU 0 instructions: 60000000 cycles: 27798931 heartbeat IPC: 0.837701 cumulative IPC: 0.837701 (Simulation time: 0 hr 5 min 53 sec) 
Heartbeat CPU 0 instructions: 70000000 cycles: 39662975 heartbeat IPC: 0.842883 cumulative IPC: 0.840284 (Simulation time: 0 hr 6 min 33 sec) 
Heartbeat CPU 0 instructions: 80000000 cycles: 51280324 heartbeat IPC: 0.860782 cumulative IPC: 0.847007 (Simulation time: 0 hr 7 min 8 sec) 
Heartbeat CPU 0 instructions: 90000003 cycles: 64650821 heartbeat IPC: 0.747916 cumulative IPC: 0.819852 (Simulation time: 0 hr 7 min 44 sec) 
Heartbeat CPU 0 instructions: 100000001 cycles: 76042675 heartbeat IPC: 0.87782 cumulative IPC: 0.830825 (Simulation time: 0 hr 8 min 22 sec) 
Heartbeat CPU 0 instructions: 110000000 cycles: 88373549 heartbeat IPC: 0.810972 cumulative IPC: 0.827449 (Simulation time: 0 hr 8 min 59 sec) 
Heartbeat CPU 0 instructions: 120000000 cycles: 101383133 heartbeat IPC: 0.768664 cumulative IPC: 0.818506 (Simulation time: 0 hr 9 min 33 sec) 
Heartbeat CPU 0 instructions: 130000000 cycles: 114521831 heartbeat IPC: 0.76111 cumulative IPC: 0.810863 (Simulation time: 0 hr 10 min 9 sec) 
Heartbeat CPU 0 instructions: 140000003 cycles: 128509629 heartbeat IPC: 0.714909 cumulative IPC: 0.798948 (Simulation time: 0 hr 10 min 41 sec) 
Heartbeat CPU 0 instructions: 150000000 cycles: 141734313 heartbeat IPC: 0.756162 cumulative IPC: 0.794453 (Simulation time: 0 hr 11 min 10 sec) 
Heartbeat CPU 0 instructions: 160000000 cycles: 156008506 heartbeat IPC: 0.700565 cumulative IPC: 0.78489 (Simulation time: 0 hr 11 min 42 sec) 
Heartbeat CPU 0 instructions: 170000003 cycles: 167011408 heartbeat IPC: 0.908851 cumulative IPC: 0.793914 (Simulation time: 0 hr 12 min 21 sec) 
Heartbeat CPU 0 instructions: 180000003 cycles: 178588294 heartbeat IPC: 0.86379 cumulative IPC: 0.798885 (Simulation time: 0 hr 13 min 2 sec) 
Heartbeat CPU 0 instructions: 190000000 cycles: 190443751 heartbeat IPC: 0.843493 cumulative IPC: 0.801914 (Simulation time: 0 hr 13 min 41 sec) 
Heartbeat CPU 0 instructions: 200000000 cycles: 202232448 heartbeat IPC: 0.84827 cumulative IPC: 0.804846 (Simulation time: 0 hr 14 min 19 sec) 
Heartbeat CPU 0 instructions: 210000000 cycles: 214008881 heartbeat IPC: 0.849154 cumulative IPC: 0.80748 (Simulation time: 0 hr 14 min 57 sec) 
Heartbeat CPU 0 instructions: 220000000 cycles: 225843125 heartbeat IPC: 0.845005 cumulative IPC: 0.809595 (Simulation time: 0 hr 15 min 35 sec) 
Heartbeat CPU 0 instructions: 230000000 cycles: 237776630 heartbeat IPC: 0.837977 cumulative IPC: 0.811121 (Simulation time: 0 hr 16 min 12 sec) 
Heartbeat CPU 0 instructions: 240000002 cycles: 249714419 heartbeat IPC: 0.837676 cumulative IPC: 0.812477 (Simulation time: 0 hr 16 min 49 sec) 
Heartbeat CPU 0 instructions: 250000002 cycles: 261654799 heartbeat IPC: 0.837494 cumulative IPC: 0.813692 (Simulation time: 0 hr 17 min 22 sec) 
Finished CPU 0 instructions: 200000002 cycles: 245793300 cumulative IPC: 0.813692 (Simulation time: 0 hr 17 min 22 sec) 
 Instruction ID: 250000115

ChampSim completed all CPUs

Region of Interest Statistics

CPU 0 cumulative IPC: 0.813692 instructions: 200000002 cycles: 245793300
ITLB SPEC fills:          0  NON-SPEC fills:          0
ITLB Test counter :          0
ITLB Leapfrog:          0
ITLB MSHR merge:          0
ITLB TOTAL     ACCESS:   34334775  HIT:   34329959  MISS:       4816  HIT %:     99.986  MISS %:  0.0140266   MPKI: 0.02408
ITLB LOAD TRANSLATION NON_SPEC    ACCESS:   34334775  HIT:   34329959  MISS:       4816  HIT %:     99.986  MISS %:  0.0140266   MPKI: 0.02408
ITLB PREFETCH  REQUESTED:          0  ISSUED:          0  USEFUL:          0  USELESS:          0
ITLB USEFUL LOAD PREFETCHES:          0 PREFETCH ISSUED TO LOWER LEVEL:          0  ACCURACY: -nan
ITLB TIMELY PREFETCHES:          0 LATE PREFETCHES: 0 DROPPED PREFETCHES: 0
ITLB COMMIT LATE PREFETCHES: 0 MISSED OPPORTUNITY: 0 LATE IN PQ: 0 UNCOVERED: 0
ITLB COMMIT LATE MSHR PREFETCHES: 0
ITLB MPKI TOTAL: 0 MSHR LATE: 0 PQ LATE: 0 COMMIT LATE: 0 MISSED OPPORTUNITY: 0 UNCOVERED: 0
ITLB PREFETCHES SAME FILL-ORIGIN LEVEL: 0 DIFFERENT FILL-ORIGIN LEVEL: 0
ITLB AVERAGE MISS LATENCY: 15.6896 cycles
ITLB AVERAGE MISS LATENCY LOAD: -nan cycles
ITLB AVERAGE MISS LATENCY PREFETCH: -nan cycles
ITLB AVERAGE MSHR OCCUPANCY: 7.246e-05
ITLB MSHR FULL: 0
ITLB RQ	ACCESS:   39063797	FORWARD:          0	MERGED:    4727631	TO_CACHE:   34336166

DTLB SPEC fills:          0  NON-SPEC fills:          0
DTLB Test counter :          0
DTLB Leapfrog:          0
DTLB MSHR merge:          0
DTLB TOTAL     ACCESS:   45430535  HIT:   45330506  MISS:     100029  HIT %:    99.7798  MISS %:    0.22018   MPKI: 0.500145
DTLB LOAD TRANSLATION NON_SPEC    ACCESS:   45430535  HIT:   45330506  MISS:     100029  HIT %:    99.7798  MISS %:    0.22018   MPKI: 0.500145
DTLB PREFETCH  REQUESTED:          0  ISSUED:          0  USEFUL:          0  USELESS:          0
DTLB USEFUL LOAD PREFETCHES:          0 PREFETCH ISSUED TO LOWER LEVEL:          0  ACCURACY: -nan
DTLB TIMELY PREFETCHES:          0 LATE PREFETCHES: 0 DROPPED PREFETCHES: 0
DTLB COMMIT LATE PREFETCHES: 0 MISSED OPPORTUNITY: 0 LATE IN PQ: 0 UNCOVERED: 0
DTLB COMMIT LATE MSHR PREFETCHES: 0
DTLB MPKI TOTAL: 0 MSHR LATE: 0 PQ LATE: 0 COMMIT LATE: 0 MISSED OPPORTUNITY: 0 UNCOVERED: 0
DTLB PREFETCHES SAME FILL-ORIGIN LEVEL: 0 DIFFERENT FILL-ORIGIN LEVEL: 0
DTLB AVERAGE MISS LATENCY: 28.6791 cycles
DTLB AVERAGE MISS LATENCY LOAD: -nan cycles
DTLB AVERAGE MISS LATENCY PREFETCH: -nan cycles
DTLB AVERAGE MSHR OCCUPANCY: 0.00683514
DTLB MSHR FULL: 4.13467e-05
DTLB RQ	ACCESS:   49626011	FORWARD:          0	MERGED:    4158653	TO_CACHE:   45467358

STLB SPEC fills:          0  NON-SPEC fills:          0
STLB Test counter :          0
STLB Leapfrog:          0
STLB MSHR merge:          0
STLB TOTAL     ACCESS:    6412651  HIT:    6403018  MISS:       9633  HIT %:    99.8498  MISS %:   0.150219   MPKI: 0.048165
STLB LOAD TRANSLATION NON_SPEC    ACCESS:     104845  HIT:      95212  MISS:       9633  HIT %:    90.8122  MISS %:    9.18785   MPKI: 0.048165
STLB TRANSLATION FROM L1D PREFETCHER NON_SPEC    ACCESS:    6307806  HIT:    6307806  MISS:          0  HIT %:        100  MISS %:          0   MPKI: 0
STLB PREFETCH  REQUESTED:          0  ISSUED:          0  USEFUL:          0  USELESS:          0
STLB USEFUL LOAD PREFETCHES:          0 PREFETCH ISSUED TO LOWER LEVEL:          0  ACCURACY: -nan
STLB TIMELY PREFETCHES:          0 LATE PREFETCHES: 0 DROPPED PREFETCHES: 0
STLB COMMIT LATE PREFETCHES: 0 MISSED OPPORTUNITY: 0 LATE IN PQ: 0 UNCOVERED: 0
STLB COMMIT LATE MSHR PREFETCHES: 0
STLB MPKI TOTAL: 0 MSHR LATE: 0 PQ LATE: 0 COMMIT LATE: 0 MISSED OPPORTUNITY: 0 UNCOVERED: 0
STLB PREFETCHES SAME FILL-ORIGIN LEVEL: 0 DIFFERENT FILL-ORIGIN LEVEL: 0
STLB AVERAGE MISS LATENCY: 207.503 cycles
STLB AVERAGE MISS LATENCY LOAD: -nan cycles
STLB AVERAGE MISS LATENCY PREFETCH: -nan cycles
STLB AVERAGE MSHR OCCUPANCY: 0.00236265
STLB MSHR FULL: 0
STLB RQ	ACCESS:   18116317	FORWARD:          0	MERGED:   11703601	TO_CACHE:    6412716

STLB Hit, L1D data hit: 0
STLB Hit, L2C data hit: 0
STLB Hit, LLC data hit: 0
STLB Hit, LLC data miss: 0
STLB STLB hints to L2: 0
L0D SPEC fills:   25923200  NON-SPEC fills:          0
L0D TimeGuard Request with older TS:     104292 Restricted eviction:      87071 read:     129022
L0D Test counter :          0
L0D Leapfrog:          0
L0D MSHR merge:     749809
L0D TOTAL     ACCESS:   35275885  HIT:    3796542  MISS:   31479343  HIT %:    10.7624  MISS %:    89.2376   MPKI: 157.397
L0D LOAD      TOTAL       ACCESS:   35275885  HIT:    3796542  MISS:   31479343  HIT %:    10.7624  MISS %:    89.2376   MPKI: 157.397
L0D LOAD      NON_SPEC    ACCESS:    5610279  HIT:     141127  MISS:    5469152  HIT %:    2.51551  MISS %:    97.4845   MPKI: 27.3458
L0D LOAD      SPEC        ACCESS:   29665606  HIT:    3655415  MISS:   26010191  HIT %:    12.3221  MISS %:    87.6779   MPKI: 130.051
L0D PREFETCH  REQUESTED:          0  ISSUED:          0  USEFUL:          0  USELESS:          0
L0D USEFUL LOAD PREFETCHES:          0 PREFETCH ISSUED TO LOWER LEVEL:          0  ACCURACY: -nan
L0D TIMELY PREFETCHES:          0 LATE PREFETCHES: 0 DROPPED PREFETCHES: 0
L0D COMMIT LATE PREFETCHES: 0 MISSED OPPORTUNITY: 0 LATE IN PQ: 0 UNCOVERED: 0
L0D COMMIT LATE MSHR PREFETCHES: 0
L0D MPKI TOTAL: 161.146 MSHR LATE: 0 PQ LATE: 0 COMMIT LATE: 0 MISSED OPPORTUNITY: 0 UNCOVERED: 0
L0D PREFETCHES SAME FILL-ORIGIN LEVEL: 0 DIFFERENT FILL-ORIGIN LEVEL: 0
L0D AVERAGE MISS LATENCY: 5.53424 cycles
L0D AVERAGE MISS LATENCY LOAD: 5.53424 cycles
L0D AVERAGE MISS LATENCY PREFETCH: -nan cycles
L0D AVERAGE MSHR OCCUPANCY: 0.742815
L0D MSHR FULL: 0.0015411
L0D RQ	ACCESS:   40082631	FORWARD:          0	MERGED:    4056937	TO_CACHE:   36025694
L0D WQ	ACCESS:   13600317	FORWARD:          0	MERGED:          0	TO_CACHE:   13600317

L1D SPEC fills:          0  NON-SPEC fills:      57292
L1D Test counter :     155108
L1D Leapfrog:          0
L1D MSHR merge:      53422
L1D TOTAL     ACCESS:   62784631  HIT:   58708217  MISS:    4076414  HIT %:    93.5073  MISS %:    6.49269   MPKI: 20.3821
L1D LOAD      TOTAL       ACCESS:   31477623  HIT:   31115562  MISS:     362061  HIT %:    98.8498  MISS %:    1.15022   MPKI: 1.8103
L1D LOAD      NON_SPEC    ACCESS:    5468855  HIT:    5411563  MISS:      57292  HIT %:    98.9524  MISS %:    1.04761   MPKI: 0.28646
L1D LOAD      SPEC        ACCESS:   26008768  HIT:   25703999  MISS:     304769  HIT %:    98.8282  MISS %:    1.17179   MPKI: 1.52384
L1D RFO       NON_SPEC    ACCESS:   12935785  HIT:   12783199  MISS:     152586  HIT %:    98.8204  MISS %:    1.17957   MPKI: 0.76293
L1D PREFETCH  NON_SPEC    ACCESS:   17837646  HIT:   14574480  MISS:    3263166  HIT %:    81.7063  MISS %:    18.2937   MPKI: 16.3158
L1D COMMIT LOAD NON_SPEC    ACCESS:     201884  HIT:     195694  MISS:       6190  HIT %:    96.9339  MISS %:    3.06612   MPKI: 0.03095
L1D COMMIT WRITE NON_SPEC    ACCESS:     331693  HIT:      39282  MISS:     292411  HIT %:    11.8429  MISS %:    88.1571   MPKI: 1.46205
L1D PREFETCH  REQUESTED:   20106805  ISSUED:   18013047  USEFUL:    2192201  USELESS:    1071171
L1D USEFUL LOAD PREFETCHES:    2192201 PREFETCH ISSUED TO LOWER LEVEL:    3366468  ACCURACY: 65.1187
L1D TIMELY PREFETCHES:    2192201 LATE PREFETCHES: 51759 DROPPED PREFETCHES: 0
L1D COMMIT LATE PREFETCHES: 0 MISSED OPPORTUNITY: 0 LATE IN PQ: 0 UNCOVERED: 0
L1D COMMIT LATE MSHR PREFETCHES: 0
L1D MPKI TOTAL: 1.8189 MSHR LATE: 0.258795 PQ LATE: 0 COMMIT LATE: 0 MISSED OPPORTUNITY: 0 UNCOVERED: 0
L1D PREFETCHES SAME FILL-ORIGIN LEVEL: 3366468 DIFFERENT FILL-ORIGIN LEVEL: 0
L1D AVERAGE MISS LATENCY: 53.4963 cycles
L1D AVERAGE MISS LATENCY LOAD: 41.2166 cycles
L1D AVERAGE MISS LATENCY PREFETCH: 59.1756 cycles
L1D AVERAGE MSHR OCCUPANCY: 1.09174
L1D MSHR FULL: 0.00641976
L1D RQ	ACCESS:   31822203	FORWARD:          0	MERGED:     137001	TO_CACHE:   31681764
L1D WQ	ACCESS:   13744756	FORWARD:       3438	MERGED:     155004	TO_CACHE:   13589752
L1D PQ	ACCESS:   18013047	FORWARD:          0	MERGED:       1575	TO_CACHE:   18011472

L1D UNIQUE REGIONS ACCESSED: 0
L1D REGIONS CONFLICTS: 0
L1D Cross Page Prefetch Requests: 0
L1D Same Page Prefetch Requests: 24631428
L1D ROI Sum of L1D PQ occupancy: 293108982
L1D PREFETCHES PUSHED FROM L2C: 0
L1I SPEC fills:          0  NON-SPEC fills:          0
L1I Test counter :          0
L1I Leapfrog:          0
L1I MSHR merge:      47830
L1I TOTAL     ACCESS:   39015966  HIT:   38901162  MISS:     114804  HIT %:    99.7058  MISS %:   0.294249   MPKI: 0.57402
L1I LOAD      TOTAL       ACCESS:   39015966  HIT:   38901162  MISS:     114804  HIT %:    99.7058  MISS %:   0.294249   MPKI: 0.57402
L1I LOAD      NON_SPEC    ACCESS:   39015966  HIT:   38901162  MISS:     114804  HIT %:    99.7058  MISS %:   0.294249   MPKI: 0.57402
L1I PREFETCH  REQUESTED:          0  ISSUED:          0  USEFUL:          0  USELESS:          0
L1I USEFUL LOAD PREFETCHES:          0 PREFETCH ISSUED TO LOWER LEVEL:          0  ACCURACY: -nan
L1I TIMELY PREFETCHES:          0 LATE PREFETCHES: 0 DROPPED PREFETCHES: 0
L1I COMMIT LATE PREFETCHES: 0 MISSED OPPORTUNITY: 0 LATE IN PQ: 0 UNCOVERED: 0
L1I COMMIT LATE MSHR PREFETCHES: 0
L1I MPKI TOTAL: 0.81317 MSHR LATE: 0 PQ LATE: 0 COMMIT LATE: 0 MISSED OPPORTUNITY: 0 UNCOVERED: 0
L1I PREFETCHES SAME FILL-ORIGIN LEVEL: 0 DIFFERENT FILL-ORIGIN LEVEL: 0
L1I AVERAGE MISS LATENCY: 50.177 cycles
L1I AVERAGE MISS LATENCY LOAD: 50.177 cycles
L1I AVERAGE MISS LATENCY PREFETCH: -nan cycles
L1I AVERAGE MSHR OCCUPANCY: 0.00444637
L1I MSHR FULL: 0
L1I RQ	ACCESS:   60726215	FORWARD:          0	MERGED:   21662418	TO_CACHE:   39063797

BTB SPEC fills:          0  NON-SPEC fills:          0
BTB Test counter :          0
BTB Leapfrog:          0
BTB MSHR merge:          0
BTB TOTAL     ACCESS:   29674711  HIT:   29620836  MISS:      53875  HIT %:    99.8184  MISS %:   0.181552   MPKI: 0.269375
BTB BRANCH_DIRECT_JUMP	ACCESS:     633395  HIT:     632983  MISS:        412
BTB BRANCH_INDIRECT	ACCESS:       8917  HIT:       8176  MISS:        741
BTB BRANCH_CONDITIONAL	ACCESS:   27681837  HIT:   27678187  MISS:       3650
BTB BRANCH_DIRECT_CALL	ACCESS:     675281  HIT:     673574  MISS:       1707
BTB BRANCH_INDIRECT_CALL	ACCESS:          0  HIT:          0  MISS:          0
BTB BRANCH_RETURN	ACCESS:     675281  HIT:     627916  MISS:      47365
BTB BRANCH_OTHER ACCESS:          0  HIT:          0  MISS:          0

L2C SPEC fills:          0  NON-SPEC fills:      13735
L2C Test counter :     129863
L2C Leapfrog:          0
L2C MSHR merge:          0
L2C TOTAL     ACCESS:    5392560  HIT:    3685260  MISS:    1707300  HIT %:    68.3397  MISS %:    31.6603   MPKI: 8.5365
L2C LOAD      TOTAL       ACCESS:     424968  HIT:     214799  MISS:     210169  HIT %:    50.5447  MISS %:    49.4553   MPKI: 1.05084
L2C LOAD      NON_SPEC    ACCESS:     168681  HIT:      42574  MISS:     126107  HIT %:    25.2394  MISS %:    74.7606   MPKI: 0.630535
L2C LOAD      SPEC        ACCESS:     256287  HIT:     172225  MISS:      84062  HIT %:    67.2001  MISS %:    32.7999   MPKI: 0.42031
L2C RFO       NON_SPEC    ACCESS:     101016  HIT:      54705  MISS:      46311  HIT %:    54.1548  MISS %:    45.8452   MPKI: 0.231555
L2C PREFETCH  NON_SPEC    ACCESS:    3366285  HIT:    2002275  MISS:    1364010  HIT %:    59.4803  MISS %:    40.5197   MPKI: 6.82005
L2C WRITEBACK NON_SPEC    ACCESS:    1290930  HIT:    1290044  MISS:        886  HIT %:    99.9314  MISS %:  0.0686327   MPKI: 0.00443
L2C CLEAN_EVICTION NON_SPEC    ACCESS:     155108  HIT:      76688  MISS:      78420  HIT %:    49.4417  MISS %:    50.5583   MPKI: 0.3921
L2C COMMIT LOAD NON_SPEC    ACCESS:       6134  HIT:       5466  MISS:        668  HIT %:    89.1099  MISS %:    10.8901   MPKI: 0.00334
L2C LOAD TRANSLATION NON_SPEC    ACCESS:      48119  HIT:      41283  MISS:       6836  HIT %:    85.7936  MISS %:    14.2064   MPKI: 0.03418
L2C PREFETCH  REQUESTED:          0  ISSUED:          0  USEFUL:      46752  USELESS:    1317084
L2C USEFUL LOAD PREFETCHES:      46752 PREFETCH ISSUED TO LOWER LEVEL:    1364009  ACCURACY: 3.42754
L2C TIMELY PREFETCHES:      46752 LATE PREFETCHES: 0 DROPPED PREFETCHES: 0
L2C COMMIT LATE PREFETCHES: 0 MISSED OPPORTUNITY: 0 LATE IN PQ: 0 UNCOVERED: 0
L2C COMMIT LATE MSHR PREFETCHES: 0
L2C MPKI TOTAL: 1.05084 MSHR LATE: 0 PQ LATE: 0 COMMIT LATE: 0 MISSED OPPORTUNITY: 0 UNCOVERED: 0
L2C PREFETCHES SAME FILL-ORIGIN LEVEL: 0 DIFFERENT FILL-ORIGIN LEVEL: 0
L2C AVERAGE MISS LATENCY: 105.24 cycles
L2C AVERAGE MISS LATENCY LOAD: 49.43 cycles
L2C AVERAGE MISS LATENCY PREFETCH: 117.495 cycles
L2C AVERAGE MSHR OCCUPANCY: 1.64084
L2C MSHR FULL: 0
L2C RQ	ACCESS:     580456	FORWARD:          0	MERGED:          0	TO_CACHE:     580237
L2C WQ	ACCESS:    1446048	FORWARD:        403	MERGED:         10	TO_CACHE:    1446038
L2C PQ	ACCESS:    3366468	FORWARD:          0	MERGED:          0	TO_CACHE:    3366284

L2C Instructions Evicting Data 103468
L2C Translations Evicting Data 6462
L2C Data Evicting Data 1321620
L2C Instructions Evicting Instructions 8390
L2C Translations Evicting Instructions 340
L2C Data Evicting Instructions 97207
L2C Instructions Evicting Translations 514
L2C Translations Evicting Translations 34
L2C Data Evicting Translations 5897
L2C Dense regions hint from L2: 0
PSCL5 SPEC fills:          0  NON-SPEC fills:          0
PSCL5 Test counter :          0
PSCL5 Leapfrog:          0
PSCL5 MSHR merge:          0
PSCL5 TOTAL     ACCESS:          0  HIT:          0  MISS:          0  HIT %:       -nan  MISS %:       -nan   MPKI: 0
PSCL5 PREFETCH  REQUESTED:          0  ISSUED:          0  USEFUL:          0  USELESS:          0
PSCL5 USEFUL LOAD PREFETCHES:          0 PREFETCH ISSUED TO LOWER LEVEL:          0  ACCURACY: -nan
PSCL5 TIMELY PREFETCHES:          0 LATE PREFETCHES: 0 DROPPED PREFETCHES: 0
PSCL5 COMMIT LATE PREFETCHES: 0 MISSED OPPORTUNITY: 0 LATE IN PQ: 0 UNCOVERED: 0
PSCL5 COMMIT LATE MSHR PREFETCHES: 0
PSCL5 MPKI TOTAL: 0 MSHR LATE: 0 PQ LATE: 0 COMMIT LATE: 0 MISSED OPPORTUNITY: 0 UNCOVERED: 0
PSCL5 PREFETCHES SAME FILL-ORIGIN LEVEL: 0 DIFFERENT FILL-ORIGIN LEVEL: 0

PSCL4 SPEC fills:          0  NON-SPEC fills:          0
PSCL4 Test counter :          0
PSCL4 Leapfrog:          0
PSCL4 MSHR merge:          0
PSCL4 TOTAL     ACCESS:          0  HIT:          0  MISS:          0  HIT %:       -nan  MISS %:       -nan   MPKI: 0
PSCL4 PREFETCH  REQUESTED:          0  ISSUED:          0  USEFUL:          0  USELESS:          0
PSCL4 USEFUL LOAD PREFETCHES:          0 PREFETCH ISSUED TO LOWER LEVEL:          0  ACCURACY: -nan
PSCL4 TIMELY PREFETCHES:          0 LATE PREFETCHES: 0 DROPPED PREFETCHES: 0
PSCL4 COMMIT LATE PREFETCHES: 0 MISSED OPPORTUNITY: 0 LATE IN PQ: 0 UNCOVERED: 0
PSCL4 COMMIT LATE MSHR PREFETCHES: 0
PSCL4 MPKI TOTAL: 0 MSHR LATE: 0 PQ LATE: 0 COMMIT LATE: 0 MISSED OPPORTUNITY: 0 UNCOVERED: 0
PSCL4 PREFETCHES SAME FILL-ORIGIN LEVEL: 0 DIFFERENT FILL-ORIGIN LEVEL: 0

PSCL3 SPEC fills:          0  NON-SPEC fills:          0
PSCL3 Test counter :          0
PSCL3 Leapfrog:          0
PSCL3 MSHR merge:          0
PSCL3 TOTAL     ACCESS:          0  HIT:          0  MISS:          0  HIT %:       -nan  MISS %:       -nan   MPKI: 0
PSCL3 PREFETCH  REQUESTED:          0  ISSUED:          0  USEFUL:          0  USELESS:          0
PSCL3 USEFUL LOAD PREFETCHES:          0 PREFETCH ISSUED TO LOWER LEVEL:          0  ACCURACY: -nan
PSCL3 TIMELY PREFETCHES:          0 LATE PREFETCHES: 0 DROPPED PREFETCHES: 0
PSCL3 COMMIT LATE PREFETCHES: 0 MISSED OPPORTUNITY: 0 LATE IN PQ: 0 UNCOVERED: 0
PSCL3 COMMIT LATE MSHR PREFETCHES: 0
PSCL3 MPKI TOTAL: 0 MSHR LATE: 0 PQ LATE: 0 COMMIT LATE: 0 MISSED OPPORTUNITY: 0 UNCOVERED: 0
PSCL3 PREFETCHES SAME FILL-ORIGIN LEVEL: 0 DIFFERENT FILL-ORIGIN LEVEL: 0

PSCL2 SPEC fills:          0  NON-SPEC fills:          0
PSCL2 Test counter :          0
PSCL2 Leapfrog:          0
PSCL2 MSHR merge:          0
PSCL2 TOTAL     ACCESS:          0  HIT:          0  MISS:          0  HIT %:       -nan  MISS %:       -nan   MPKI: 0
PSCL2 PREFETCH  REQUESTED:          0  ISSUED:          0  USEFUL:          0  USELESS:          0
PSCL2 USEFUL LOAD PREFETCHES:          0 PREFETCH ISSUED TO LOWER LEVEL:          0  ACCURACY: -nan
PSCL2 TIMELY PREFETCHES:          0 LATE PREFETCHES: 0 DROPPED PREFETCHES: 0
PSCL2 COMMIT LATE PREFETCHES: 0 MISSED OPPORTUNITY: 0 LATE IN PQ: 0 UNCOVERED: 0
PSCL2 COMMIT LATE MSHR PREFETCHES: 0
PSCL2 MPKI TOTAL: 0 MSHR LATE: 0 PQ LATE: 0 COMMIT LATE: 0 MISSED OPPORTUNITY: 0 UNCOVERED: 0
PSCL2 PREFETCHES SAME FILL-ORIGIN LEVEL: 0 DIFFERENT FILL-ORIGIN LEVEL: 0

LLC SPEC fills:          0  NON-SPEC fills:       2819
LLC Test counter :      70802
LLC Leapfrog:          0
LLC MSHR merge:          0
LLC TOTAL     ACCESS:    2315777  HIT:    1574147  MISS:     741630  HIT %:    67.9749  MISS %:    32.0251   MPKI: 3.70815
LLC LOAD      TOTAL       ACCESS:     210168  HIT:     180236  MISS:      29932  HIT %:    85.7581  MISS %:    14.2419   MPKI: 0.14966
LLC LOAD      NON_SPEC    ACCESS:     126107  HIT:     118880  MISS:       7227  HIT %:    94.2692  MISS %:    5.73085   MPKI: 0.036135
LLC LOAD      SPEC        ACCESS:      84061  HIT:      61356  MISS:      22705  HIT %:    72.9899  MISS %:    27.0101   MPKI: 0.113525
LLC RFO       NON_SPEC    ACCESS:      46311  HIT:      21948  MISS:      24363  HIT %:    47.3926  MISS %:    52.6074   MPKI: 0.121815
LLC PREFETCH  NON_SPEC    ACCESS:    1363999  HIT:     705241  MISS:     658758  HIT %:    51.7039  MISS %:    48.2961   MPKI: 3.29379
LLC WRITEBACK NON_SPEC    ACCESS:     557931  HIT:     552071  MISS:       5860  HIT %:    98.9497  MISS %:    1.05031   MPKI: 0.0293
LLC CLEAN_EVICTION NON_SPEC    ACCESS:     129864  HIT:     109118  MISS:      20746  HIT %:    84.0248  MISS %:    15.9752   MPKI: 0.10373
LLC COMMIT LOAD NON_SPEC    ACCESS:        668  HIT:        588  MISS:         80  HIT %:     88.024  MISS %:     11.976   MPKI: 0.0004
LLC LOAD TRANSLATION NON_SPEC    ACCESS:       6836  HIT:       4945  MISS:       1891  HIT %:    72.3376  MISS %:    27.6624   MPKI: 0.009455
LLC PREFETCH  REQUESTED:          0  ISSUED:          0  USEFUL:      14083  USELESS:     645662
LLC USEFUL LOAD PREFETCHES:      14083 PREFETCH ISSUED TO LOWER LEVEL:     658758  ACCURACY: 2.13781
LLC TIMELY PREFETCHES:      14083 LATE PREFETCHES: 0 DROPPED PREFETCHES: 0
LLC COMMIT LATE PREFETCHES: 0 MISSED OPPORTUNITY: 0 LATE IN PQ: 0 UNCOVERED: 0
LLC COMMIT LATE MSHR PREFETCHES: 0
LLC MPKI TOTAL: 0.14966 MSHR LATE: 0 PQ LATE: 0 COMMIT LATE: 0 MISSED OPPORTUNITY: 0 UNCOVERED: 0
LLC PREFETCHES SAME FILL-ORIGIN LEVEL: 0 DIFFERENT FILL-ORIGIN LEVEL: 0
LLC AVERAGE MISS LATENCY: 176.912 cycles
LLC AVERAGE MISS LATENCY LOAD: 161.032 cycles
LLC AVERAGE MISS LATENCY PREFETCH: 180.767 cycles
LLC AVERAGE MSHR OCCUPANCY: 1.25402
LLC MSHR FULL: 0
LLC RQ	ACCESS:     263984	FORWARD:          0	MERGED:          0	TO_CACHE:     263983
LLC WQ	ACCESS:     687794	FORWARD:         12	MERGED:          0	TO_CACHE:     687794
LLC PQ	ACCESS:    1364009	FORWARD:          0	MERGED:          0	TO_CACHE:    1363998

LLC Dense regions hint to LLC: 0

RAW hits: 411915
Loads Generated: 40494547
Loads sent to L1D: 40082631
Stores Generated: 13600307
Stores sent to L1D: 13600317
Major fault: 0 Minor fault: 9397
Allocated PAGES: 9397
Total Load insts: 51095860
Total Non-spec loads: 6246820
Percentage of speculative loads: 87.7743

LeapFrogging counter: 44221
Commit hits: 25847380 miss: 8440119
Commit hit %: 75.3843 miss %: 24.6157
Commits not translated: 0
Loads retired: 362061
Stores retired: 13600317
Cache fills: 362061
L1D response latency: 41.2166 cycles
Load retirement latency: 77.2265 cycles
OOO test counter: 0
Discarded buffer inserts: 25847380 hits: 16699 hit %: 0.0646062

stream: 
stream:times selected: 13057589
stream:pref_filled: 4294904
stream:pref_useful: 2935276
stream:pref_late: 3236
stream:misses: 24316
stream:misses_by_poll: 0

CS: 
CS:times selected: 11478390
CS:pref_filled: 87379
CS:pref_useful: 52020
CS:pref_late: 182
CS:misses: 780625
CS:misses_by_poll: 581

CPLX: 
CPLX:times selected: 1578091
CPLX:pref_filled: 56120
CPLX:pref_useful: 21809
CPLX:pref_late: 23
CPLX:misses: 177362
CPLX:misses_by_poll: 417

NL_L1: 
NL:times selected: 2100
NL:pref_filled: 390
NL:pref_useful: 169
NL:pref_late: 0
NL:misses: 319
NL:misses_by_poll: 6

total selections: 26116170
total_filled: 3263166
total_useful: 2192201
total_late: 3643
total_polluted: 1004
total_misses_after_warmup: 1128090
conflicts: 431219
Degree Incremented Times: 20
Degree Decremented Times: 292989

L1 IP Table Write Accesses: 53510492
L1 IP Table Read Accesses: 53079273
L1 RST Write Accesses: 9930040
L1 RST Read Accesses: 19860080
L1 CSPT Write Accesses: 9930040
L1 CSPT Read Accesses: 11209631
L1 RR Filter Tag Write Accesses: 20106805
L1 RR Filter Tag Read Accesses: 2108968219
L1 IP Table Tag Write Accesses: 54055870
L1 IP Table Tag Read Accesses: 54055870
L1 RST Tag Write Accesses: 0
L1 RST Tag Read Accesses: 91868936
L1 RR Filter Write Accesses: 0
L1 RR Filter Read Accesses: 82032527
test: 985747

DRAM Statistics
 CHANNEL 0
 RQ ROW_BUFFER_HIT:     232981  ROW_BUFFER_MISS:     482013
 DBUS_CONGESTED:       2660
 WQ ROW_BUFFER_HIT:      96044  ROW_BUFFER_MISS:     265303  FULL:        574

 AVG_CONGESTED_CYCLE: 5
 All warmup complete: 2
Channel 0 Bank busy for read cycles: 0
Channel 0 Bank busy for write cycles: 0
Channel 0
Rank 0
0banks busy for read cycles: 194579712
0banks busy for write cycles: 29274
1banks busy for read cycles: 16691389
1banks busy for write cycles: 3388639
2banks busy for read cycles: 9248811
2banks busy for write cycles: 1602598
3banks busy for read cycles: 3317582
3banks busy for write cycles: 1217692
4banks busy for read cycles: 1929946
4banks busy for write cycles: 1059175
5banks busy for read cycles: 1361358
5banks busy for write cycles: 955938
6banks busy for read cycles: 1906847
6banks busy for write cycles: 953931
7banks busy for read cycles: 967593
7banks busy for write cycles: 1226801
8banks busy for read cycles: 897475
8banks busy for write cycles: 4458540

CPU 0 Branch Prediction Accuracy: 99.215% MPKI: 1.19675 Average ROB Occupancy at Mispredict: 22.9183
Branch types
NOT_BRANCH: 169508275 84.7541%
BRANCH_DIRECT_JUMP: 633395 0.316697%
BRANCH_INDIRECT: 8917 0.0044585%
BRANCH_CONDITIONAL: 28498600 14.2493%
BRANCH_DIRECT_CALL: 675281 0.33764%
BRANCH_INDIRECT_CALL: 0 0%
BRANCH_RETURN: 675281 0.33764%
BRANCH_OTHER: 0 0%

DRAM PAGES: 1048576
Allocated PAGES: 9397
