
*** ChampSim Multicore Out-of-Order Simulator ***

Warmup Instructions: 50000000
Simulation Instructions: 200000000
Number of CPUs: 1
LLC sets: 2048
LLC ways: 16
L0D sets: 16
L0D ways: 2
ROB size: 352
LQ size: 128
SQ size: 72
Secure Berti: OFF
Berti: OFF
Berti Fill: OFF
On commit prefetching: ON
Hit-based filter: ON
Time-guarding: ON
Free-slotting: ON
Leap-frogging: ON
Train prefetcher on L0D bypass: OFF
No translation penalty for prefetchers: OFF
Prefetch to L0D only: OFF
Prefetch to L1D only: OFF
Clean evictions: ON
Commit loads: ON
Commit write: ON
Fill commit loads to L2C, LLC: ON
DRAM IO FREQUENCY: 6400
ROB SIZE: 352
Off-chip DRAM Size: 4096 MB Channels: 1 Width: 64-bit Data Rate: 6400 MT/s
CPU 0 runs /home/sumon/secure_berti/GhostMinion/../../traces/spec/641.leela_s-1083B.champsimtrace.xz
.xz
BTB has LRU replacement policy
ITLB has LRU replacement policy
DTLB has LRU replacement policy
STLB has LRU replacement policy
L1I has LRU replacement policy
L0D has LRU replacement policy
IP Table Entries: 1024
CSPT Entries: 128
RR_ENTRIES: 32
RST_ENTRIES: 8
L1D has LRU replacement policy
L2C has LRU replacement policy
LLC has LRU replacement policy
Heartbeat CPU 0 instructions: 10000000 cycles: 5021392 heartbeat IPC: 1.99148 cumulative IPC: 1.99148 (Simulation time: 0 hr 1 min 22 sec) 
Heartbeat CPU 0 instructions: 20000000 cycles: 10095615 heartbeat IPC: 1.97075 cumulative IPC: 1.98106 (Simulation time: 0 hr 2 min 48 sec) 
Heartbeat CPU 0 instructions: 30000003 cycles: 15224157 heartbeat IPC: 1.94987 cumulative IPC: 1.97055 (Simulation time: 0 hr 3 min 45 sec) 
Heartbeat CPU 0 instructions: 40000003 cycles: 20289110 heartbeat IPC: 1.97435 cumulative IPC: 1.9715 (Simulation time: 0 hr 4 min 44 sec) 
Heartbeat CPU 0 instructions: 50000003 cycles: 25350766 heartbeat IPC: 1.97564 cumulative IPC: 1.97233 (Simulation time: 0 hr 5 min 42 sec) 

Warmup complete CPU 0 instructions: 50000003 cycles: 25350766 (Simulation time: 0 hr 5 min 42 sec) 

Heartbeat CPU 0 instructions: 60000002 cycles: 50471393 heartbeat IPC: 0.398079 cumulative IPC: 0.398079 (Simulation time: 0 hr 6 min 27 sec) 
Heartbeat CPU 0 instructions: 70000000 cycles: 75826374 heartbeat IPC: 0.3944 cumulative IPC: 0.396231 (Simulation time: 0 hr 7 min 13 sec) 
Heartbeat CPU 0 instructions: 80000000 cycles: 100860336 heartbeat IPC: 0.399457 cumulative IPC: 0.397301 (Simulation time: 0 hr 7 min 59 sec) 
Heartbeat CPU 0 instructions: 90000003 cycles: 126555673 heartbeat IPC: 0.389176 cumulative IPC: 0.395238 (Simulation time: 0 hr 8 min 46 sec) 
Heartbeat CPU 0 instructions: 100000002 cycles: 151926561 heartbeat IPC: 0.394152 cumulative IPC: 0.39502 (Simulation time: 0 hr 9 min 32 sec) 
Heartbeat CPU 0 instructions: 110000000 cycles: 176848183 heartbeat IPC: 0.401258 cumulative IPC: 0.396046 (Simulation time: 0 hr 10 min 18 sec) 
Heartbeat CPU 0 instructions: 120000000 cycles: 201678638 heartbeat IPC: 0.402731 cumulative IPC: 0.396988 (Simulation time: 0 hr 11 min 3 sec) 
Heartbeat CPU 0 instructions: 130000001 cycles: 226875708 heartbeat IPC: 0.396872 cumulative IPC: 0.396973 (Simulation time: 0 hr 11 min 48 sec) 
Heartbeat CPU 0 instructions: 140000000 cycles: 252132844 heartbeat IPC: 0.395928 cumulative IPC: 0.396857 (Simulation time: 0 hr 12 min 33 sec) 
Heartbeat CPU 0 instructions: 150000000 cycles: 277171580 heartbeat IPC: 0.399381 cumulative IPC: 0.397108 (Simulation time: 0 hr 13 min 18 sec) 
Heartbeat CPU 0 instructions: 160000000 cycles: 301963270 heartbeat IPC: 0.403361 cumulative IPC: 0.397668 (Simulation time: 0 hr 14 min 2 sec) 
Heartbeat CPU 0 instructions: 170000001 cycles: 326881702 heartbeat IPC: 0.401309 cumulative IPC: 0.397969 (Simulation time: 0 hr 14 min 45 sec) 
Heartbeat CPU 0 instructions: 180000000 cycles: 351976736 heartbeat IPC: 0.398485 cumulative IPC: 0.398009 (Simulation time: 0 hr 15 min 28 sec) 
Heartbeat CPU 0 instructions: 190000001 cycles: 376963941 heartbeat IPC: 0.400205 cumulative IPC: 0.398165 (Simulation time: 0 hr 16 min 8 sec) 
Heartbeat CPU 0 instructions: 200000002 cycles: 402068449 heartbeat IPC: 0.398335 cumulative IPC: 0.398176 (Simulation time: 0 hr 16 min 44 sec) 
Heartbeat CPU 0 instructions: 210000003 cycles: 427605334 heartbeat IPC: 0.39159 cumulative IPC: 0.397758 (Simulation time: 0 hr 17 min 18 sec) 
Heartbeat CPU 0 instructions: 220000000 cycles: 453031461 heartbeat IPC: 0.393296 cumulative IPC: 0.397493 (Simulation time: 0 hr 17 min 53 sec) 
Heartbeat CPU 0 instructions: 230000000 cycles: 478523863 heartbeat IPC: 0.392274 cumulative IPC: 0.397199 (Simulation time: 0 hr 18 min 27 sec) 
Heartbeat CPU 0 instructions: 240000000 cycles: 503648989 heartbeat IPC: 0.398008 cumulative IPC: 0.397242 (Simulation time: 0 hr 19 min 1 sec) 
Heartbeat CPU 0 instructions: 250000000 cycles: 573335208 heartbeat IPC: 0.1435 cumulative IPC: 0.364974 (Simulation time: 0 hr 20 min 29 sec) 
Finished CPU 0 instructions: 200000000 cycles: 547984484 cumulative IPC: 0.364974 (Simulation time: 0 hr 20 min 29 sec) 
 Instruction ID: 250000385

ChampSim completed all CPUs

Region of Interest Statistics

CPU 0 cumulative IPC: 0.364974 instructions: 200000000 cycles: 547984484
ITLB SPEC fills:          0  NON-SPEC fills:          0
ITLB Test counter :          0
ITLB Leapfrog:          0
ITLB MSHR merge:          0
ITLB TOTAL     ACCESS:   35716003  HIT:   35715841  MISS:        162  HIT %:    99.9995  MISS %: 0.000453578   MPKI: 0.00081
ITLB LOAD TRANSLATION NON_SPEC    ACCESS:   35716003  HIT:   35715841  MISS:        162  HIT %:    99.9995  MISS %: 0.000453578   MPKI: 0.00081
ITLB PREFETCH  REQUESTED:          0  ISSUED:          0  USEFUL:          0  USELESS:          0
ITLB USEFUL LOAD PREFETCHES:          0 PREFETCH ISSUED TO LOWER LEVEL:          0  ACCURACY: -nan
ITLB TIMELY PREFETCHES:          0 LATE PREFETCHES: 0 DROPPED PREFETCHES: 0
ITLB COMMIT LATE PREFETCHES: 0 MISSED OPPORTUNITY: 0 LATE IN PQ: 0 UNCOVERED: 0
ITLB COMMIT LATE MSHR PREFETCHES: 0
ITLB MPKI TOTAL: 0 MSHR LATE: 0 PQ LATE: 0 COMMIT LATE: 0 MISSED OPPORTUNITY: 0 UNCOVERED: 0
ITLB PREFETCHES SAME FILL-ORIGIN LEVEL: 0 DIFFERENT FILL-ORIGIN LEVEL: 0
ITLB AVERAGE MISS LATENCY: 189.173 cycles
ITLB AVERAGE MISS LATENCY LOAD: -nan cycles
ITLB AVERAGE MISS LATENCY PREFETCH: -nan cycles
ITLB AVERAGE MSHR OCCUPANCY: 1.81991e-06
ITLB MSHR FULL: 0
ITLB RQ	ACCESS:   40339677	FORWARD:          0	MERGED:    4623636	TO_CACHE:   35716041

DTLB SPEC fills:          0  NON-SPEC fills:          0
DTLB Test counter :          0
DTLB Leapfrog:          0
DTLB MSHR merge:          0
DTLB TOTAL     ACCESS:   64756269  HIT:   64652412  MISS:     103857  HIT %:    99.8396  MISS %:   0.160381   MPKI: 0.519285
DTLB LOAD TRANSLATION NON_SPEC    ACCESS:   64756269  HIT:   64652412  MISS:     103857  HIT %:    99.8396  MISS %:   0.160381   MPKI: 0.519285
DTLB PREFETCH  REQUESTED:          0  ISSUED:          0  USEFUL:          0  USELESS:          0
DTLB USEFUL LOAD PREFETCHES:          0 PREFETCH ISSUED TO LOWER LEVEL:          0  ACCURACY: -nan
DTLB TIMELY PREFETCHES:          0 LATE PREFETCHES: 0 DROPPED PREFETCHES: 0
DTLB COMMIT LATE PREFETCHES: 0 MISSED OPPORTUNITY: 0 LATE IN PQ: 0 UNCOVERED: 0
DTLB COMMIT LATE MSHR PREFETCHES: 0
DTLB MPKI TOTAL: 0 MSHR LATE: 0 PQ LATE: 0 COMMIT LATE: 0 MISSED OPPORTUNITY: 0 UNCOVERED: 0
DTLB PREFETCHES SAME FILL-ORIGIN LEVEL: 0 DIFFERENT FILL-ORIGIN LEVEL: 0
DTLB AVERAGE MISS LATENCY: 16.962 cycles
DTLB AVERAGE MISS LATENCY LOAD: -nan cycles
DTLB AVERAGE MISS LATENCY PREFETCH: -nan cycles
DTLB AVERAGE MSHR OCCUPANCY: 0.00177983
DTLB MSHR FULL: 0
DTLB RQ	ACCESS:   72963031	FORWARD:          0	MERGED:    8189857	TO_CACHE:   64773174

STLB SPEC fills:          0  NON-SPEC fills:          0
STLB Test counter :          0
STLB Leapfrog:          0
STLB MSHR merge:          0
STLB TOTAL     ACCESS:    4997722  HIT:    4991856  MISS:       5866  HIT %:    99.8826  MISS %:   0.117373   MPKI: 0.02933
STLB LOAD TRANSLATION NON_SPEC    ACCESS:     104019  HIT:      98153  MISS:       5866  HIT %:    94.3606  MISS %:    5.63935   MPKI: 0.02933
STLB TRANSLATION FROM L1D PREFETCHER NON_SPEC    ACCESS:    4893703  HIT:    4893703  MISS:          0  HIT %:        100  MISS %:          0   MPKI: 0
STLB PREFETCH  REQUESTED:          0  ISSUED:          0  USEFUL:          0  USELESS:          0
STLB USEFUL LOAD PREFETCHES:          0 PREFETCH ISSUED TO LOWER LEVEL:          0  ACCURACY: -nan
STLB TIMELY PREFETCHES:          0 LATE PREFETCHES: 0 DROPPED PREFETCHES: 0
STLB COMMIT LATE PREFETCHES: 0 MISSED OPPORTUNITY: 0 LATE IN PQ: 0 UNCOVERED: 0
STLB COMMIT LATE MSHR PREFETCHES: 0
STLB MPKI TOTAL: 0 MSHR LATE: 0 PQ LATE: 0 COMMIT LATE: 0 MISSED OPPORTUNITY: 0 UNCOVERED: 0
STLB PREFETCHES SAME FILL-ORIGIN LEVEL: 0 DIFFERENT FILL-ORIGIN LEVEL: 0
STLB AVERAGE MISS LATENCY: 146.549 cycles
STLB AVERAGE MISS LATENCY LOAD: -nan cycles
STLB AVERAGE MISS LATENCY PREFETCH: -nan cycles
STLB AVERAGE MSHR OCCUPANCY: 0.00055677
STLB MSHR FULL: 0
STLB RQ	ACCESS:    7663657	FORWARD:          0	MERGED:    2665182	TO_CACHE:    4998475

STLB Hit, L1D data hit: 0
STLB Hit, L2C data hit: 0
STLB Hit, LLC data hit: 0
STLB Hit, LLC data miss: 0
STLB STLB hints to L2: 0
L0D SPEC fills:   23312029  NON-SPEC fills:          0
L0D TimeGuard Request with older TS:     205958 Restricted eviction:     142426 read:     230904
L0D Test counter :          0
L0D Leapfrog:          0
L0D MSHR merge:     628738
L0D TOTAL     ACCESS:   46654633  HIT:    3332902  MISS:   43321731  HIT %:    7.14377  MISS %:    92.8562   MPKI: 216.609
L0D LOAD      TOTAL       ACCESS:   46654633  HIT:    3332902  MISS:   43321731  HIT %:    7.14377  MISS %:    92.8562   MPKI: 216.609
L0D LOAD      NON_SPEC    ACCESS:   20065891  HIT:     198615  MISS:   19867276  HIT %:   0.989814  MISS %:    99.0102   MPKI: 99.3364
L0D LOAD      SPEC        ACCESS:   26588742  HIT:    3134287  MISS:   23454455  HIT %:     11.788  MISS %:     88.212   MPKI: 117.272
L0D PREFETCH  REQUESTED:          0  ISSUED:          0  USEFUL:          0  USELESS:          0
L0D USEFUL LOAD PREFETCHES:          0 PREFETCH ISSUED TO LOWER LEVEL:          0  ACCURACY: -nan
L0D TIMELY PREFETCHES:          0 LATE PREFETCHES: 0 DROPPED PREFETCHES: 0
L0D COMMIT LATE PREFETCHES: 0 MISSED OPPORTUNITY: 0 LATE IN PQ: 0 UNCOVERED: 0
L0D COMMIT LATE MSHR PREFETCHES: 0
L0D MPKI TOTAL: 219.752 MSHR LATE: 0 PQ LATE: 0 COMMIT LATE: 0 MISSED OPPORTUNITY: 0 UNCOVERED: 0
L0D PREFETCHES SAME FILL-ORIGIN LEVEL: 0 DIFFERENT FILL-ORIGIN LEVEL: 0
L0D AVERAGE MISS LATENCY: 5.96889 cycles
L0D AVERAGE MISS LATENCY LOAD: 5.96889 cycles
L0D AVERAGE MISS LATENCY PREFETCH: -nan cycles
L0D AVERAGE MSHR OCCUPANCY: 0.748898
L0D MSHR FULL: 0.0260789
L0D RQ	ACCESS:   53939398	FORWARD:          0	MERGED:    6656030	TO_CACHE:   47283368
L0D WQ	ACCESS:   25679663	FORWARD:          0	MERGED:          0	TO_CACHE:   25679663

L1D SPEC fills:          0  NON-SPEC fills:     316137
L1D Test counter :      95727
L1D Leapfrog:          0
L1D MSHR merge:     100833
L1D TOTAL     ACCESS:   75294831  HIT:   73367916  MISS:    1926915  HIT %:    97.4408  MISS %:    2.55916   MPKI: 9.63457
L1D LOAD      TOTAL       ACCESS:   43321398  HIT:   42794882  MISS:     526516  HIT %:    98.7846  MISS %:    1.21537   MPKI: 2.63258
L1D LOAD      NON_SPEC    ACCESS:   19867184  HIT:   19551047  MISS:     316137  HIT %:    98.4087  MISS %:    1.59125   MPKI: 1.58068
L1D LOAD      SPEC        ACCESS:   23454214  HIT:   23243835  MISS:     210379  HIT %:     99.103  MISS %:   0.896977   MPKI: 1.0519
L1D RFO       NON_SPEC    ACCESS:   24287152  HIT:   24069804  MISS:     217348  HIT %:    99.1051  MISS %:   0.894909   MPKI: 1.08674
L1D PREFETCH  NON_SPEC    ACCESS:    7292419  HIT:    6322650  MISS:     969769  HIT %:    86.7017  MISS %:    13.2983   MPKI: 4.84884
L1D COMMIT LOAD NON_SPEC    ACCESS:     182403  HIT:     167313  MISS:      15090  HIT %:    91.7271  MISS %:    8.27289   MPKI: 0.07545
L1D COMMIT WRITE NON_SPEC    ACCESS:     211459  HIT:      13267  MISS:     198192  HIT %:    6.27403  MISS %:     93.726   MPKI: 0.99096
L1D PREFETCH  REQUESTED:    7572179  ISSUED:    7559638  USEFUL:     448864  USELESS:     521058
L1D USEFUL LOAD PREFETCHES:     448864 PREFETCH ISSUED TO LOWER LEVEL:    1139159  ACCURACY: 39.4031
L1D TIMELY PREFETCHES:     448864 LATE PREFETCHES: 106288 DROPPED PREFETCHES: 0
L1D COMMIT LATE PREFETCHES: 0 MISSED OPPORTUNITY: 0 LATE IN PQ: 0 UNCOVERED: 0
L1D COMMIT LATE MSHR PREFETCHES: 0
L1D MPKI TOTAL: 2.63424 MSHR LATE: 0.53144 PQ LATE: 0 COMMIT LATE: 0 MISSED OPPORTUNITY: 0 UNCOVERED: 0
L1D PREFETCHES SAME FILL-ORIGIN LEVEL: 1139159 DIFFERENT FILL-ORIGIN LEVEL: 0
L1D AVERAGE MISS LATENCY: 86.2629 cycles
L1D AVERAGE MISS LATENCY LOAD: 69.9578 cycles
L1D AVERAGE MISS LATENCY PREFETCH: 99.5426 cycles
L1D AVERAGE MSHR OCCUPANCY: 0.362398
L1D MSHR FULL: 0.010156
L1D RQ	ACCESS:   43711308	FORWARD:          0	MERGED:     202936	TO_CACHE:   43504222
L1D WQ	ACCESS:   25890431	FORWARD:       4150	MERGED:     335218	TO_CACHE:   25555213
L1D PQ	ACCESS:    7559638	FORWARD:          0	MERGED:          0	TO_CACHE:    7559638

L1D UNIQUE REGIONS ACCESSED: 0
L1D REGIONS CONFLICTS: 0
L1D Cross Page Prefetch Requests: 0
L1D Same Page Prefetch Requests: 9253741
L1D ROI Sum of L1D PQ occupancy: 108360959
L1D PREFETCHES PUSHED FROM L2C: 0
L1I SPEC fills:          0  NON-SPEC fills:          0
L1I Test counter :          0
L1I Leapfrog:          0
L1I MSHR merge:       5516
L1I TOTAL     ACCESS:   40334161  HIT:   40318734  MISS:      15427  HIT %:    99.9618  MISS %:   0.038248   MPKI: 0.077135
L1I LOAD      TOTAL       ACCESS:   40334161  HIT:   40318734  MISS:      15427  HIT %:    99.9618  MISS %:   0.038248   MPKI: 0.077135
L1I LOAD      NON_SPEC    ACCESS:   40334161  HIT:   40318734  MISS:      15427  HIT %:    99.9618  MISS %:   0.038248   MPKI: 0.077135
L1I PREFETCH  REQUESTED:          0  ISSUED:          0  USEFUL:          0  USELESS:          0
L1I USEFUL LOAD PREFETCHES:          0 PREFETCH ISSUED TO LOWER LEVEL:          0  ACCURACY: -nan
L1I TIMELY PREFETCHES:          0 LATE PREFETCHES: 0 DROPPED PREFETCHES: 0
L1I COMMIT LATE PREFETCHES: 0 MISSED OPPORTUNITY: 0 LATE IN PQ: 0 UNCOVERED: 0
L1I COMMIT LATE MSHR PREFETCHES: 0
L1I MPKI TOTAL: 0.104715 MSHR LATE: 0 PQ LATE: 0 COMMIT LATE: 0 MISSED OPPORTUNITY: 0 UNCOVERED: 0
L1I PREFETCHES SAME FILL-ORIGIN LEVEL: 0 DIFFERENT FILL-ORIGIN LEVEL: 0
L1I AVERAGE MISS LATENCY: 46.4339 cycles
L1I AVERAGE MISS LATENCY LOAD: 46.4339 cycles
L1I AVERAGE MISS LATENCY PREFETCH: -nan cycles
L1I AVERAGE MSHR OCCUPANCY: 0.000579677
L1I MSHR FULL: 0
L1I RQ	ACCESS:   57043797	FORWARD:          0	MERGED:   16704120	TO_CACHE:   40339677

BTB SPEC fills:          0  NON-SPEC fills:          0
BTB Test counter :          0
BTB Leapfrog:          0
BTB MSHR merge:          0
BTB TOTAL     ACCESS:   31329121  HIT:   29031204  MISS:    2297917  HIT %:    92.6652  MISS %:    7.33476   MPKI: 11.4896
BTB BRANCH_DIRECT_JUMP	ACCESS:    1094608  HIT:    1094408  MISS:        200
BTB BRANCH_INDIRECT	ACCESS:       6209  HIT:       4182  MISS:       2027
BTB BRANCH_CONDITIONAL	ACCESS:   18688882  HIT:   18687006  MISS:       1876
BTB BRANCH_DIRECT_CALL	ACCESS:    5769438  HIT:    5768610  MISS:        828
BTB BRANCH_INDIRECT_CALL	ACCESS:        272  HIT:        218  MISS:         54
BTB BRANCH_RETURN	ACCESS:    5769712  HIT:    3476780  MISS:    2292932
BTB BRANCH_OTHER ACCESS:          0  HIT:          0  MISS:          0

L2C SPEC fills:          0  NON-SPEC fills:      44612
L2C Test counter :      67508
L2C Leapfrog:          0
L2C MSHR merge:          0
L2C TOTAL     ACCESS:    2340615  HIT:    1487584  MISS:     853031  HIT %:    63.5553  MISS %:    36.4447   MPKI: 4.26516
L2C LOAD      TOTAL       ACCESS:     441438  HIT:     336308  MISS:     105130  HIT %:    76.1847  MISS %:    23.8153   MPKI: 0.52565
L2C LOAD      NON_SPEC    ACCESS:     258326  HIT:     211064  MISS:      47262  HIT %:    81.7045  MISS %:    18.2955   MPKI: 0.23631
L2C LOAD      SPEC        ACCESS:     183112  HIT:     125244  MISS:      57868  HIT %:    68.3975  MISS %:    31.6025   MPKI: 0.28934
L2C RFO       NON_SPEC    ACCESS:     154244  HIT:      16808  MISS:     137436  HIT %:     10.897  MISS %:     89.103   MPKI: 0.68718
L2C PREFETCH  NON_SPEC    ACCESS:    1139145  HIT:     575785  MISS:     563360  HIT %:    50.5454  MISS %:    49.4546   MPKI: 2.8168
L2C WRITEBACK NON_SPEC    ACCESS:     471430  HIT:     471321  MISS:        109  HIT %:    99.9769  MISS %:  0.0231211   MPKI: 0.000545
L2C CLEAN_EVICTION NON_SPEC    ACCESS:      95727  HIT:      55432  MISS:      40295  HIT %:    57.9063  MISS %:    42.0937   MPKI: 0.201475
L2C COMMIT LOAD NON_SPEC    ACCESS:       9303  HIT:       4291  MISS:       5012  HIT %:    46.1249  MISS %:    53.8751   MPKI: 0.02506
L2C LOAD TRANSLATION NON_SPEC    ACCESS:      29328  HIT:      27639  MISS:       1689  HIT %:     94.241  MISS %:      5.759   MPKI: 0.008445
L2C PREFETCH  REQUESTED:          0  ISSUED:          0  USEFUL:       4587  USELESS:     557880
L2C USEFUL LOAD PREFETCHES:       4587 PREFETCH ISSUED TO LOWER LEVEL:     563362  ACCURACY: 0.814219
L2C TIMELY PREFETCHES:       4587 LATE PREFETCHES: 0 DROPPED PREFETCHES: 0
L2C COMMIT LATE PREFETCHES: 0 MISSED OPPORTUNITY: 0 LATE IN PQ: 0 UNCOVERED: 0
L2C COMMIT LATE MSHR PREFETCHES: 0
L2C MPKI TOTAL: 0.52565 MSHR LATE: 0 PQ LATE: 0 COMMIT LATE: 0 MISSED OPPORTUNITY: 0 UNCOVERED: 0
L2C PREFETCHES SAME FILL-ORIGIN LEVEL: 0 DIFFERENT FILL-ORIGIN LEVEL: 0
L2C AVERAGE MISS LATENCY: 194.614 cycles
L2C AVERAGE MISS LATENCY LOAD: 182.13 cycles
L2C AVERAGE MISS LATENCY PREFETCH: 206.178 cycles
L2C AVERAGE MSHR OCCUPANCY: 1.37023
L2C MSHR FULL: 0
L2C RQ	ACCESS:     634322	FORWARD:          0	MERGED:          0	TO_CACHE:     634314
L2C WQ	ACCESS:     567157	FORWARD:         20	MERGED:          0	TO_CACHE:     567157
L2C PQ	ACCESS:    1139159	FORWARD:          0	MERGED:          0	TO_CACHE:    1139147

L2C Instructions Evicting Data 2604
L2C Translations Evicting Data 1672
L2C Data Evicting Data 745688
L2C Instructions Evicting Instructions 39
L2C Translations Evicting Instructions 9
L2C Data Evicting Instructions 2705
L2C Instructions Evicting Translations 7
L2C Translations Evicting Translations 3
L2C Data Evicting Translations 1679
L2C Dense regions hint from L2: 0
PSCL5 SPEC fills:          0  NON-SPEC fills:          0
PSCL5 Test counter :          0
PSCL5 Leapfrog:          0
PSCL5 MSHR merge:          0
PSCL5 TOTAL     ACCESS:          0  HIT:          0  MISS:          0  HIT %:       -nan  MISS %:       -nan   MPKI: 0
PSCL5 PREFETCH  REQUESTED:          0  ISSUED:          0  USEFUL:          0  USELESS:          0
PSCL5 USEFUL LOAD PREFETCHES:          0 PREFETCH ISSUED TO LOWER LEVEL:          0  ACCURACY: -nan
PSCL5 TIMELY PREFETCHES:          0 LATE PREFETCHES: 0 DROPPED PREFETCHES: 0
PSCL5 COMMIT LATE PREFETCHES: 0 MISSED OPPORTUNITY: 0 LATE IN PQ: 0 UNCOVERED: 0
PSCL5 COMMIT LATE MSHR PREFETCHES: 0
PSCL5 MPKI TOTAL: 0 MSHR LATE: 0 PQ LATE: 0 COMMIT LATE: 0 MISSED OPPORTUNITY: 0 UNCOVERED: 0
PSCL5 PREFETCHES SAME FILL-ORIGIN LEVEL: 0 DIFFERENT FILL-ORIGIN LEVEL: 0

PSCL4 SPEC fills:          0  NON-SPEC fills:          0
PSCL4 Test counter :          0
PSCL4 Leapfrog:          0
PSCL4 MSHR merge:          0
PSCL4 TOTAL     ACCESS:          0  HIT:          0  MISS:          0  HIT %:       -nan  MISS %:       -nan   MPKI: 0
PSCL4 PREFETCH  REQUESTED:          0  ISSUED:          0  USEFUL:          0  USELESS:          0
PSCL4 USEFUL LOAD PREFETCHES:          0 PREFETCH ISSUED TO LOWER LEVEL:          0  ACCURACY: -nan
PSCL4 TIMELY PREFETCHES:          0 LATE PREFETCHES: 0 DROPPED PREFETCHES: 0
PSCL4 COMMIT LATE PREFETCHES: 0 MISSED OPPORTUNITY: 0 LATE IN PQ: 0 UNCOVERED: 0
PSCL4 COMMIT LATE MSHR PREFETCHES: 0
PSCL4 MPKI TOTAL: 0 MSHR LATE: 0 PQ LATE: 0 COMMIT LATE: 0 MISSED OPPORTUNITY: 0 UNCOVERED: 0
PSCL4 PREFETCHES SAME FILL-ORIGIN LEVEL: 0 DIFFERENT FILL-ORIGIN LEVEL: 0

PSCL3 SPEC fills:          0  NON-SPEC fills:          0
PSCL3 Test counter :          0
PSCL3 Leapfrog:          0
PSCL3 MSHR merge:          0
PSCL3 TOTAL     ACCESS:          0  HIT:          0  MISS:          0  HIT %:       -nan  MISS %:       -nan   MPKI: 0
PSCL3 PREFETCH  REQUESTED:          0  ISSUED:          0  USEFUL:          0  USELESS:          0
PSCL3 USEFUL LOAD PREFETCHES:          0 PREFETCH ISSUED TO LOWER LEVEL:          0  ACCURACY: -nan
PSCL3 TIMELY PREFETCHES:          0 LATE PREFETCHES: 0 DROPPED PREFETCHES: 0
PSCL3 COMMIT LATE PREFETCHES: 0 MISSED OPPORTUNITY: 0 LATE IN PQ: 0 UNCOVERED: 0
PSCL3 COMMIT LATE MSHR PREFETCHES: 0
PSCL3 MPKI TOTAL: 0 MSHR LATE: 0 PQ LATE: 0 COMMIT LATE: 0 MISSED OPPORTUNITY: 0 UNCOVERED: 0
PSCL3 PREFETCHES SAME FILL-ORIGIN LEVEL: 0 DIFFERENT FILL-ORIGIN LEVEL: 0

PSCL2 SPEC fills:          0  NON-SPEC fills:          0
PSCL2 Test counter :          0
PSCL2 Leapfrog:          0
PSCL2 MSHR merge:          0
PSCL2 TOTAL     ACCESS:          0  HIT:          0  MISS:          0  HIT %:       -nan  MISS %:       -nan   MPKI: 0
PSCL2 PREFETCH  REQUESTED:          0  ISSUED:          0  USEFUL:          0  USELESS:          0
PSCL2 USEFUL LOAD PREFETCHES:          0 PREFETCH ISSUED TO LOWER LEVEL:          0  ACCURACY: -nan
PSCL2 TIMELY PREFETCHES:          0 LATE PREFETCHES: 0 DROPPED PREFETCHES: 0
PSCL2 COMMIT LATE PREFETCHES: 0 MISSED OPPORTUNITY: 0 LATE IN PQ: 0 UNCOVERED: 0
PSCL2 COMMIT LATE MSHR PREFETCHES: 0
PSCL2 MPKI TOTAL: 0 MSHR LATE: 0 PQ LATE: 0 COMMIT LATE: 0 MISSED OPPORTUNITY: 0 UNCOVERED: 0
PSCL2 PREFETCHES SAME FILL-ORIGIN LEVEL: 0 DIFFERENT FILL-ORIGIN LEVEL: 0

LLC SPEC fills:          0  NON-SPEC fills:      40948
LLC Test counter :      62900
LLC Leapfrog:          0
LLC MSHR merge:          0
LLC TOTAL     ACCESS:    1246290  HIT:     432801  MISS:     813489  HIT %:    34.7272  MISS %:    65.2728   MPKI: 4.06745
LLC LOAD      TOTAL       ACCESS:     105130  HIT:       8483  MISS:      96647  HIT %:    8.06906  MISS %:    91.9309   MPKI: 0.483235
LLC LOAD      NON_SPEC    ACCESS:      47262  HIT:       3778  MISS:      43484  HIT %:    7.99374  MISS %:    92.0063   MPKI: 0.21742
LLC LOAD      SPEC        ACCESS:      57868  HIT:       4705  MISS:      53163  HIT %:    8.13057  MISS %:    91.8694   MPKI: 0.265815
LLC RFO       NON_SPEC    ACCESS:     137436  HIT:       1333  MISS:     136103  HIT %:   0.969906  MISS %:    99.0301   MPKI: 0.680515
LLC PREFETCH  NON_SPEC    ACCESS:     563360  HIT:      26350  MISS:     537010  HIT %:    4.67729  MISS %:    95.3227   MPKI: 2.68505
LLC WRITEBACK NON_SPEC    ACCESS:     366155  HIT:     366034  MISS:        121  HIT %:     99.967  MISS %:  0.0330461   MPKI: 0.000605
LLC CLEAN_EVICTION NON_SPEC    ACCESS:      67508  HIT:      30203  MISS:      37305  HIT %:    44.7399  MISS %:    55.2601   MPKI: 0.186525
LLC COMMIT LOAD NON_SPEC    ACCESS:       5012  HIT:        118  MISS:       4894  HIT %:    2.35435  MISS %:    97.6457   MPKI: 0.02447
LLC LOAD TRANSLATION NON_SPEC    ACCESS:       1689  HIT:        280  MISS:       1409  HIT %:    16.5779  MISS %:    83.4221   MPKI: 0.007045
LLC PREFETCH  REQUESTED:          0  ISSUED:          0  USEFUL:       3940  USELESS:     521556
LLC USEFUL LOAD PREFETCHES:       3940 PREFETCH ISSUED TO LOWER LEVEL:     537011  ACCURACY: 0.733691
LLC TIMELY PREFETCHES:       3940 LATE PREFETCHES: 0 DROPPED PREFETCHES: 0
LLC COMMIT LATE PREFETCHES: 0 MISSED OPPORTUNITY: 0 LATE IN PQ: 0 UNCOVERED: 0
LLC COMMIT LATE MSHR PREFETCHES: 0
LLC MPKI TOTAL: 0.483235 MSHR LATE: 0 PQ LATE: 0 COMMIT LATE: 0 MISSED OPPORTUNITY: 0 UNCOVERED: 0
LLC PREFETCHES SAME FILL-ORIGIN LEVEL: 0 DIFFERENT FILL-ORIGIN LEVEL: 0
LLC AVERAGE MISS LATENCY: 174.703 cycles
LLC AVERAGE MISS LATENCY LOAD: 170.819 cycles
LLC AVERAGE MISS LATENCY PREFETCH: 184.771 cycles
LLC AVERAGE MSHR OCCUPANCY: 2.79524
LLC MSHR FULL: 0
LLC RQ	ACCESS:     249268	FORWARD:          0	MERGED:          0	TO_CACHE:     249268
LLC WQ	ACCESS:     433663	FORWARD:          0	MERGED:          0	TO_CACHE:     433663
LLC PQ	ACCESS:     563362	FORWARD:          0	MERGED:          0	TO_CACHE:     563362

LLC Dense regions hint to LLC: 0

RAW hits: 1490917
Loads Generated: 55430316
Loads sent to L1D: 53939398
Stores Generated: 25679661
Stores sent to L1D: 25679663
Major fault: 0 Minor fault: 2275
Allocated PAGES: 2275
Total Load insts: 65742101
Total Non-spec loads: 22214082
Percentage of speculative loads: 66.2103

LeapFrogging counter: 81160
Commit hits: 23178845 miss: 10665192
Commit hit %: 68.4872 miss %: 31.5128
Commits not translated: 0
Loads retired: 526516
Stores retired: 25679663
Cache fills: 526516
L1D response latency: 69.9578 cycles
Load retirement latency: 108.417 cycles
OOO test counter: 0
Discarded buffer inserts: 23178845 hits: 31441 hit %: 0.135645

stream: 
stream:times selected: 28269144
stream:pref_filled: 354758
stream:pref_useful: 125954
stream:pref_late: 66539
stream:misses: 526996
stream:misses_by_poll: 0

CS: 
CS:times selected: 1833332
CS:pref_filled: 216339
CS:pref_useful: 147218
CS:pref_late: 6828
CS:misses: 432717
CS:misses_by_poll: 5576

CPLX: 
CPLX:times selected: 26422196
CPLX:pref_filled: 541629
CPLX:pref_useful: 243555
CPLX:pref_late: 1478
CPLX:misses: 738602
CPLX:misses_by_poll: 32137

NL_L1: 
NL:times selected: 170659
NL:pref_filled: 6151
NL:pref_useful: 1103
NL:pref_late: 3845
NL:misses: 3688
NL:misses_by_poll: 115

total selections: 56695331
total_filled: 969769
total_useful: 448864
total_late: 79663
total_polluted: 37828
total_misses_after_warmup: 1749858
conflicts: 3259352
Degree Incremented Times: 323593
Degree Decremented Times: 937597

L1 IP Table Write Accesses: 73199742
L1 IP Table Read Accesses: 69940390
L1 RST Write Accesses: 23416929
L1 RST Read Accesses: 46833858
L1 CSPT Write Accesses: 23416929
L1 CSPT Read Accesses: 45222012
L1 RR Filter Tag Write Accesses: 7572179
L1 RR Filter Tag Read Accesses: 916580685
L1 IP Table Tag Write Accesses: 81104540
L1 IP Table Tag Read Accesses: 81104540
L1 RST Tag Write Accesses: 0
L1 RST Tag Read Accesses: 245444935
L1 RR Filter Write Accesses: 0
L1 RR Filter Read Accesses: 36445501
test: 6391472

DRAM Statistics
 CHANNEL 0
 RQ ROW_BUFFER_HIT:     131891  ROW_BUFFER_MISS:     644154
 DBUS_CONGESTED:        309
 WQ ROW_BUFFER_HIT:     184287  ROW_BUFFER_MISS:     228733  FULL:          0

 AVG_CONGESTED_CYCLE: 4
 All warmup complete: 2
Channel 0 Bank busy for read cycles: 0
Channel 0 Bank busy for write cycles: 0
Channel 0
Rank 0
0banks busy for read cycles: 489162346
0banks busy for write cycles: 5074
1banks busy for read cycles: 13603704
1banks busy for write cycles: 876402
2banks busy for read cycles: 12211376
2banks busy for write cycles: 970480
3banks busy for read cycles: 12826005
3banks busy for write cycles: 812109
4banks busy for read cycles: 1829727
4banks busy for write cycles: 611981
5banks busy for read cycles: 909200
5banks busy for write cycles: 503566
6banks busy for read cycles: 705406
6banks busy for write cycles: 484139
7banks busy for read cycles: 639573
7banks busy for write cycles: 1015601
8banks busy for read cycles: 878233
8banks busy for write cycles: 9939563

CPU 0 Branch Prediction Accuracy: 93.3169% MPKI: 11.1129 Average ROB Occupancy at Mispredict: 21.8572
Branch types
NOT_BRANCH: 166743420 83.3717%
BRANCH_DIRECT_JUMP: 1094608 0.547304%
BRANCH_INDIRECT: 6209 0.0031045%
BRANCH_CONDITIONAL: 20616346 10.3082%
BRANCH_DIRECT_CALL: 5769438 2.88472%
BRANCH_INDIRECT_CALL: 272 0.000136%
BRANCH_RETURN: 5769712 2.88486%
BRANCH_OTHER: 0 0%

DRAM PAGES: 1048576
Allocated PAGES: 2275
