
*** ChampSim Multicore Out-of-Order Simulator ***

Warmup Instructions: 50000000
Simulation Instructions: 200000000
Number of CPUs: 1
LLC sets: 2048
LLC ways: 16
L0D sets: 16
L0D ways: 2
ROB size: 352
LQ size: 128
SQ size: 72
Secure Berti: OFF
Berti: OFF
Berti Fill: OFF
On commit prefetching: ON
Hit-based filter: ON
Time-guarding: ON
Free-slotting: ON
Leap-frogging: ON
Train prefetcher on L0D bypass: OFF
No translation penalty for prefetchers: OFF
Prefetch to L0D only: OFF
Prefetch to L1D only: OFF
Clean evictions: ON
Commit loads: ON
Commit write: ON
Fill commit loads to L2C, LLC: ON
DRAM IO FREQUENCY: 6400
ROB SIZE: 352
Off-chip DRAM Size: 4096 MB Channels: 1 Width: 64-bit Data Rate: 6400 MT/s
CPU 0 runs /home/sumon/secure_berti/GhostMinion/../../traces/spec/649.fotonik3d_s-10881B.champsimtrace.xz
.xz
BTB has LRU replacement policy
ITLB has LRU replacement policy
DTLB has LRU replacement policy
STLB has LRU replacement policy
L1I has LRU replacement policy
L0D has LRU replacement policy
IP Table Entries: 1024
CSPT Entries: 128
RR_ENTRIES: 32
RST_ENTRIES: 8
L1D has LRU replacement policy
L2C has LRU replacement policy
LLC has LRU replacement policy
Heartbeat CPU 0 instructions: 10000000 cycles: 5555468 heartbeat IPC: 1.80003 cumulative IPC: 1.80003 (Simulation time: 0 hr 1 min 17 sec) 
Heartbeat CPU 0 instructions: 20000000 cycles: 11094083 heartbeat IPC: 1.80551 cumulative IPC: 1.80276 (Simulation time: 0 hr 2 min 34 sec) 
Heartbeat CPU 0 instructions: 30000000 cycles: 16633198 heartbeat IPC: 1.80534 cumulative IPC: 1.80362 (Simulation time: 0 hr 3 min 52 sec) 
Heartbeat CPU 0 instructions: 40000002 cycles: 22173404 heartbeat IPC: 1.80499 cumulative IPC: 1.80396 (Simulation time: 0 hr 5 min 9 sec) 
Heartbeat CPU 0 instructions: 50000002 cycles: 27718789 heartbeat IPC: 1.8033 cumulative IPC: 1.80383 (Simulation time: 0 hr 6 min 28 sec) 

Warmup complete CPU 0 instructions: 50000002 cycles: 27718789 (Simulation time: 0 hr 6 min 28 sec) 

Heartbeat CPU 0 instructions: 60000000 cycles: 43535507 heartbeat IPC: 0.632242 cumulative IPC: 0.632242 (Simulation time: 0 hr 7 min 32 sec) 
Heartbeat CPU 0 instructions: 70000000 cycles: 59385335 heartbeat IPC: 0.630922 cumulative IPC: 0.631581 (Simulation time: 0 hr 8 min 36 sec) 
Heartbeat CPU 0 instructions: 80000003 cycles: 75199370 heartbeat IPC: 0.63235 cumulative IPC: 0.631837 (Simulation time: 0 hr 9 min 40 sec) 
Heartbeat CPU 0 instructions: 90000003 cycles: 91066363 heartbeat IPC: 0.630239 cumulative IPC: 0.631437 (Simulation time: 0 hr 10 min 45 sec) 
Heartbeat CPU 0 instructions: 100000003 cycles: 106946149 heartbeat IPC: 0.629731 cumulative IPC: 0.631095 (Simulation time: 0 hr 11 min 49 sec) 
Heartbeat CPU 0 instructions: 110000000 cycles: 122829597 heartbeat IPC: 0.629586 cumulative IPC: 0.630843 (Simulation time: 0 hr 12 min 54 sec) 
Heartbeat CPU 0 instructions: 120000003 cycles: 138709488 heartbeat IPC: 0.629727 cumulative IPC: 0.630683 (Simulation time: 0 hr 13 min 58 sec) 
Heartbeat CPU 0 instructions: 130000000 cycles: 154621718 heartbeat IPC: 0.628447 cumulative IPC: 0.630403 (Simulation time: 0 hr 15 min 2 sec) 
Heartbeat CPU 0 instructions: 140000002 cycles: 170494081 heartbeat IPC: 0.630026 cumulative IPC: 0.630361 (Simulation time: 0 hr 16 min 4 sec) 
Heartbeat CPU 0 instructions: 150000003 cycles: 186370845 heartbeat IPC: 0.629851 cumulative IPC: 0.63031 (Simulation time: 0 hr 17 min 3 sec) 
Heartbeat CPU 0 instructions: 160000001 cycles: 202190123 heartbeat IPC: 0.63214 cumulative IPC: 0.630476 (Simulation time: 0 hr 18 min 1 sec) 
Heartbeat CPU 0 instructions: 170000001 cycles: 218086234 heartbeat IPC: 0.629085 cumulative IPC: 0.63036 (Simulation time: 0 hr 18 min 58 sec) 
Heartbeat CPU 0 instructions: 180000002 cycles: 233911343 heartbeat IPC: 0.631907 cumulative IPC: 0.630479 (Simulation time: 0 hr 19 min 56 sec) 
Heartbeat CPU 0 instructions: 190000000 cycles: 249719850 heartbeat IPC: 0.632571 cumulative IPC: 0.630628 (Simulation time: 0 hr 20 min 53 sec) 
Heartbeat CPU 0 instructions: 200000002 cycles: 265528591 heartbeat IPC: 0.632562 cumulative IPC: 0.630756 (Simulation time: 0 hr 21 min 48 sec) 
Heartbeat CPU 0 instructions: 210000001 cycles: 281407052 heartbeat IPC: 0.629784 cumulative IPC: 0.630695 (Simulation time: 0 hr 22 min 42 sec) 
Heartbeat CPU 0 instructions: 220000000 cycles: 297303939 heartbeat IPC: 0.629054 cumulative IPC: 0.630599 (Simulation time: 0 hr 23 min 36 sec) 
Heartbeat CPU 0 instructions: 230000001 cycles: 313169723 heartbeat IPC: 0.630287 cumulative IPC: 0.630581 (Simulation time: 0 hr 24 min 30 sec) 
Heartbeat CPU 0 instructions: 240000002 cycles: 329025173 heartbeat IPC: 0.630698 cumulative IPC: 0.630587 (Simulation time: 0 hr 25 min 24 sec) 
Heartbeat CPU 0 instructions: 250000002 cycles: 344910673 heartbeat IPC: 0.629505 cumulative IPC: 0.630533 (Simulation time: 0 hr 26 min 16 sec) 
Finished CPU 0 instructions: 200000000 cycles: 317191884 cumulative IPC: 0.630533 (Simulation time: 0 hr 26 min 16 sec) 
 Instruction ID: 250000353

ChampSim completed all CPUs

Region of Interest Statistics

CPU 0 cumulative IPC: 0.630533 instructions: 200000000 cycles: 317191884
ITLB SPEC fills:          0  NON-SPEC fills:          0
ITLB Test counter :          0
ITLB Leapfrog:          0
ITLB MSHR merge:          0
ITLB TOTAL     ACCESS:   25704651  HIT:   25704651  MISS:          0  HIT %:        100  MISS %:          0   MPKI: 0
ITLB LOAD TRANSLATION NON_SPEC    ACCESS:   25704651  HIT:   25704651  MISS:          0  HIT %:        100  MISS %:          0   MPKI: 0
ITLB PREFETCH  REQUESTED:          0  ISSUED:          0  USEFUL:          0  USELESS:          0
ITLB USEFUL LOAD PREFETCHES:          0 PREFETCH ISSUED TO LOWER LEVEL:          0  ACCURACY: -nan
ITLB TIMELY PREFETCHES:          0 LATE PREFETCHES: 0 DROPPED PREFETCHES: 0
ITLB COMMIT LATE PREFETCHES: 0 MISSED OPPORTUNITY: 0 LATE IN PQ: 0 UNCOVERED: 0
ITLB COMMIT LATE MSHR PREFETCHES: 0
ITLB MPKI TOTAL: 0 MSHR LATE: 0 PQ LATE: 0 COMMIT LATE: 0 MISSED OPPORTUNITY: 0 UNCOVERED: 0
ITLB PREFETCHES SAME FILL-ORIGIN LEVEL: 0 DIFFERENT FILL-ORIGIN LEVEL: 0
ITLB AVERAGE MISS LATENCY: -nan cycles
ITLB AVERAGE MISS LATENCY LOAD: -nan cycles
ITLB AVERAGE MISS LATENCY PREFETCH: -nan cycles
ITLB AVERAGE MSHR OCCUPANCY: 0
ITLB MSHR FULL: 0
ITLB RQ	ACCESS:   27284460	FORWARD:          0	MERGED:    1579808	TO_CACHE:   25704652

DTLB SPEC fills:          0  NON-SPEC fills:          0
DTLB Test counter :          0
DTLB Leapfrog:          0
DTLB MSHR merge:          0
DTLB TOTAL     ACCESS:   93213201  HIT:   92199255  MISS:    1013946  HIT %:    98.9122  MISS %:    1.08777   MPKI: 5.06973
DTLB LOAD TRANSLATION NON_SPEC    ACCESS:   93213201  HIT:   92199255  MISS:    1013946  HIT %:    98.9122  MISS %:    1.08777   MPKI: 5.06973
DTLB PREFETCH  REQUESTED:          0  ISSUED:          0  USEFUL:          0  USELESS:          0
DTLB USEFUL LOAD PREFETCHES:          0 PREFETCH ISSUED TO LOWER LEVEL:          0  ACCURACY: -nan
DTLB TIMELY PREFETCHES:          0 LATE PREFETCHES: 0 DROPPED PREFETCHES: 0
DTLB COMMIT LATE PREFETCHES: 0 MISSED OPPORTUNITY: 0 LATE IN PQ: 0 UNCOVERED: 0
DTLB COMMIT LATE MSHR PREFETCHES: 0
DTLB MPKI TOTAL: 0 MSHR LATE: 0 PQ LATE: 0 COMMIT LATE: 0 MISSED OPPORTUNITY: 0 UNCOVERED: 0
DTLB PREFETCHES SAME FILL-ORIGIN LEVEL: 0 DIFFERENT FILL-ORIGIN LEVEL: 0
DTLB AVERAGE MISS LATENCY: 281.504 cycles
DTLB AVERAGE MISS LATENCY LOAD: -nan cycles
DTLB AVERAGE MISS LATENCY PREFETCH: -nan cycles
DTLB AVERAGE MSHR OCCUPANCY: 0.239513
DTLB MSHR FULL: 0.000595167
DTLB RQ	ACCESS:  108943483	FORWARD:          0	MERGED:   15662597	TO_CACHE:   93280886

STLB SPEC fills:          0  NON-SPEC fills:          0
STLB Test counter :          0
STLB Leapfrog:          0
STLB MSHR merge:          0
STLB TOTAL     ACCESS:    6542186  HIT:    5863539  MISS:     678647  HIT %:    89.6266  MISS %:    10.3734   MPKI: 3.39323
STLB LOAD TRANSLATION NON_SPEC    ACCESS:    1013946  HIT:     335315  MISS:     678631  HIT %:    33.0703  MISS %:    66.9297   MPKI: 3.39316
STLB TRANSLATION FROM L1D PREFETCHER NON_SPEC    ACCESS:    5528240  HIT:    5528224  MISS:         16  HIT %:    99.9997  MISS %: 0.000289423   MPKI: 8e-05
STLB PREFETCH  REQUESTED:          0  ISSUED:          0  USEFUL:          4  USELESS:         12
STLB USEFUL LOAD PREFETCHES:          4 PREFETCH ISSUED TO LOWER LEVEL:          0  ACCURACY: inf
STLB TIMELY PREFETCHES:          4 LATE PREFETCHES: 0 DROPPED PREFETCHES: 0
STLB COMMIT LATE PREFETCHES: 0 MISSED OPPORTUNITY: 0 LATE IN PQ: 0 UNCOVERED: 0
STLB COMMIT LATE MSHR PREFETCHES: 0
STLB MPKI TOTAL: 0 MSHR LATE: 0 PQ LATE: 0 COMMIT LATE: 0 MISSED OPPORTUNITY: 0 UNCOVERED: 0
STLB PREFETCHES SAME FILL-ORIGIN LEVEL: 0 DIFFERENT FILL-ORIGIN LEVEL: 0
STLB AVERAGE MISS LATENCY: 406.499 cycles
STLB AVERAGE MISS LATENCY LOAD: -nan cycles
STLB AVERAGE MISS LATENCY PREFETCH: -nan cycles
STLB AVERAGE MSHR OCCUPANCY: 0.301801
STLB MSHR FULL: 0
STLB RQ	ACCESS:   12603855	FORWARD:          0	MERGED:    6061669	TO_CACHE:    6542186

STLB Hit, L1D data hit: 0
STLB Hit, L2C data hit: 0
STLB Hit, LLC data hit: 0
STLB Hit, LLC data miss: 0
STLB STLB hints to L2: 0
L0D SPEC fills:   52549125  NON-SPEC fills:          0
L0D TimeGuard Request with older TS:    8560694 Restricted eviction:    6649973 read:    2041893
L0D Test counter :          0
L0D Leapfrog:          0
L0D MSHR merge:    4618084
L0D TOTAL     ACCESS:   91502784  HIT:   28051304  MISS:   63451480  HIT %:    30.6562  MISS %:    69.3438   MPKI: 317.257
L0D LOAD      TOTAL       ACCESS:   91502784  HIT:   28051304  MISS:   63451480  HIT %:    30.6562  MISS %:    69.3438   MPKI: 317.257
L0D LOAD      NON_SPEC    ACCESS:    5125228  HIT:     872595  MISS:    4252633  HIT %:    17.0255  MISS %:    82.9745   MPKI: 21.2632
L0D LOAD      SPEC        ACCESS:   86377556  HIT:   27178709  MISS:   59198847  HIT %:     31.465  MISS %:     68.535   MPKI: 295.994
L0D PREFETCH  REQUESTED:          0  ISSUED:          0  USEFUL:          0  USELESS:          0
L0D USEFUL LOAD PREFETCHES:          0 PREFETCH ISSUED TO LOWER LEVEL:          0  ACCURACY: -nan
L0D TIMELY PREFETCHES:          0 LATE PREFETCHES: 0 DROPPED PREFETCHES: 0
L0D COMMIT LATE PREFETCHES: 0 MISSED OPPORTUNITY: 0 LATE IN PQ: 0 UNCOVERED: 0
L0D COMMIT LATE MSHR PREFETCHES: 0
L0D MPKI TOTAL: 340.348 MSHR LATE: 0 PQ LATE: 0 COMMIT LATE: 0 MISSED OPPORTUNITY: 0 UNCOVERED: 0
L0D PREFETCHES SAME FILL-ORIGIN LEVEL: 0 DIFFERENT FILL-ORIGIN LEVEL: 0
L0D AVERAGE MISS LATENCY: 8.45353 cycles
L0D AVERAGE MISS LATENCY LOAD: 8.45353 cycles
L0D AVERAGE MISS LATENCY PREFETCH: -nan cycles
L0D AVERAGE MSHR OCCUPANCY: 2.40378
L0D MSHR FULL: 0.00063183
L0D RQ	ACCESS:  127617318	FORWARD:          0	MERGED:   31496452	TO_CACHE:   96120866
L0D WQ	ACCESS:   12822617	FORWARD:          0	MERGED:          0	TO_CACHE:   12822617

L1D SPEC fills:          0  NON-SPEC fills:      67684
L1D Test counter :     936560
L1D Leapfrog:          0
L1D MSHR merge:     152683
L1D TOTAL     ACCESS:   89141105  HIT:   82602289  MISS:    6538816  HIT %:    92.6646  MISS %:    7.33535   MPKI: 32.6941
L1D LOAD      TOTAL       ACCESS:   63413515  HIT:   62292123  MISS:    1121392  HIT %:    98.2316  MISS %:    1.76838   MPKI: 5.60696
L1D LOAD      NON_SPEC    ACCESS:    4251807  HIT:    4184123  MISS:      67684  HIT %:    98.4081  MISS %:    1.59189   MPKI: 0.33842
L1D LOAD      SPEC        ACCESS:   59161708  HIT:   58108000  MISS:    1053708  HIT %:    98.2189  MISS %:    1.78106   MPKI: 5.26854
L1D RFO       NON_SPEC    ACCESS:   12739169  HIT:   12739003  MISS:        166  HIT %:    99.9987  MISS %: 0.00130307   MPKI: 0.00083
L1D PREFETCH  NON_SPEC    ACCESS:   11413028  HIT:    7002804  MISS:    4410224  HIT %:     61.358  MISS %:     38.642   MPKI: 22.0511
L1D COMMIT LOAD NON_SPEC    ACCESS:     550783  HIT:     488631  MISS:      62152  HIT %:    88.7157  MISS %:    11.2843   MPKI: 0.31076
L1D COMMIT WRITE NON_SPEC    ACCESS:    1024610  HIT:      79728  MISS:     944882  HIT %:     7.7813  MISS %:    92.2187   MPKI: 4.72441
L1D PREFETCH  REQUESTED:   11784080  ISSUED:   11589910  USEFUL:    2849096  USELESS:    1561133
L1D USEFUL LOAD PREFETCHES:    2849096 PREFETCH ISSUED TO LOWER LEVEL:    4532350  ACCURACY: 62.8613
L1D TIMELY PREFETCHES:    2849096 LATE PREFETCHES: 122120 DROPPED PREFETCHES: 0
L1D COMMIT LATE PREFETCHES: 0 MISSED OPPORTUNITY: 0 LATE IN PQ: 0 UNCOVERED: 0
L1D COMMIT LATE MSHR PREFETCHES: 0
L1D MPKI TOTAL: 5.79678 MSHR LATE: 0.6106 PQ LATE: 0 COMMIT LATE: 0 MISSED OPPORTUNITY: 0 UNCOVERED: 0
L1D PREFETCHES SAME FILL-ORIGIN LEVEL: 4532350 DIFFERENT FILL-ORIGIN LEVEL: 0
L1D AVERAGE MISS LATENCY: 198.218 cycles
L1D AVERAGE MISS LATENCY LOAD: 166.109 cycles
L1D AVERAGE MISS LATENCY PREFETCH: 250.149 cycles
L1D AVERAGE MSHR OCCUPANCY: 5.01881
L1D MSHR FULL: 0.00743372
L1D RQ	ACCESS:   64069417	FORWARD:          0	MERGED:      51879	TO_CACHE:   64017506
L1D WQ	ACCESS:   13847227	FORWARD:         32	MERGED:      52274	TO_CACHE:   13794953
L1D PQ	ACCESS:   11589910	FORWARD:          0	MERGED:          1	TO_CACHE:   11589909

L1D UNIQUE REGIONS ACCESSED: 0
L1D REGIONS CONFLICTS: 0
L1D Cross Page Prefetch Requests: 0
L1D Same Page Prefetch Requests: 14539055
L1D ROI Sum of L1D PQ occupancy: 173136169
L1D PREFETCHES PUSHED FROM L2C: 0
L1I SPEC fills:          0  NON-SPEC fills:          0
L1I Test counter :          0
L1I Leapfrog:          0
L1I MSHR merge:          0
L1I TOTAL     ACCESS:   27284459  HIT:   27284459  MISS:          0  HIT %:        100  MISS %:          0   MPKI: 0
L1I LOAD      TOTAL       ACCESS:   27284459  HIT:   27284459  MISS:          0  HIT %:        100  MISS %:          0   MPKI: 0
L1I LOAD      NON_SPEC    ACCESS:   27284459  HIT:   27284459  MISS:          0  HIT %:        100  MISS %:          0   MPKI: 0
L1I PREFETCH  REQUESTED:          0  ISSUED:          0  USEFUL:          0  USELESS:          0
L1I USEFUL LOAD PREFETCHES:          0 PREFETCH ISSUED TO LOWER LEVEL:          0  ACCURACY: -nan
L1I TIMELY PREFETCHES:          0 LATE PREFETCHES: 0 DROPPED PREFETCHES: 0
L1I COMMIT LATE PREFETCHES: 0 MISSED OPPORTUNITY: 0 LATE IN PQ: 0 UNCOVERED: 0
L1I COMMIT LATE MSHR PREFETCHES: 0
L1I MPKI TOTAL: 0 MSHR LATE: 0 PQ LATE: 0 COMMIT LATE: 0 MISSED OPPORTUNITY: 0 UNCOVERED: 0
L1I PREFETCHES SAME FILL-ORIGIN LEVEL: 0 DIFFERENT FILL-ORIGIN LEVEL: 0
L1I AVERAGE MISS LATENCY: -nan cycles
L1I AVERAGE MISS LATENCY LOAD: -nan cycles
L1I AVERAGE MISS LATENCY PREFETCH: -nan cycles
L1I AVERAGE MSHR OCCUPANCY: 0
L1I MSHR FULL: 0
L1I RQ	ACCESS:   61709745	FORWARD:          0	MERGED:   34425285	TO_CACHE:   27284460

BTB SPEC fills:          0  NON-SPEC fills:          0
BTB Test counter :          0
BTB Leapfrog:          0
BTB MSHR merge:          0
BTB TOTAL     ACCESS:    2243766  HIT:    2243761  MISS:          5  HIT %:    99.9998  MISS %: 0.00022284   MPKI: 2.5e-05
BTB BRANCH_DIRECT_JUMP	ACCESS:     160245  HIT:     160244  MISS:          1
BTB BRANCH_INDIRECT	ACCESS:          0  HIT:          0  MISS:          0
BTB BRANCH_CONDITIONAL	ACCESS:    2083521  HIT:    2083517  MISS:          4
BTB BRANCH_DIRECT_CALL	ACCESS:          0  HIT:          0  MISS:          0
BTB BRANCH_INDIRECT_CALL	ACCESS:          0  HIT:          0  MISS:          0
BTB BRANCH_RETURN	ACCESS:          0  HIT:          0  MISS:          0
BTB BRANCH_OTHER ACCESS:          0  HIT:          0  MISS:          0

L2C SPEC fills:          0  NON-SPEC fills:      66343
L2C Test counter :     931942
L2C Leapfrog:          0
L2C MSHR merge:          0
L2C TOTAL     ACCESS:   11416931  HIT:    5105303  MISS:    6311628  HIT %:    44.7169  MISS %:    55.2831   MPKI: 31.5581
L2C LOAD      TOTAL       ACCESS:    1006269  HIT:      73460  MISS:     932809  HIT %:    7.30023  MISS %:    92.6998   MPKI: 4.66404
L2C LOAD      NON_SPEC    ACCESS:      66589  HIT:        246  MISS:      66343  HIT %:    0.36943  MISS %:    99.6306   MPKI: 0.331715
L2C LOAD      SPEC        ACCESS:     939680  HIT:      73214  MISS:     866466  HIT %:    7.79138  MISS %:    92.2086   MPKI: 4.33233
L2C RFO       NON_SPEC    ACCESS:        165  HIT:         51  MISS:        114  HIT %:    30.9091  MISS %:    69.0909   MPKI: 0.00057
L2C PREFETCH  NON_SPEC    ACCESS:    4532343  HIT:      43714  MISS:    4488629  HIT %:    0.96449  MISS %:    99.0355   MPKI: 22.4431
L2C WRITEBACK NON_SPEC    ACCESS:    1494608  HIT:    1494598  MISS:         10  HIT %:    99.9993  MISS %: 0.000669072   MPKI: 5e-05
L2C CLEAN_EVICTION NON_SPEC    ACCESS:     936559  HIT:     170709  MISS:     765850  HIT %:    18.2273  MISS %:    81.7727   MPKI: 3.82925
L2C COMMIT LOAD NON_SPEC    ACCESS:      54750  HIT:      17197  MISS:      37553  HIT %:      31.41  MISS %:      68.59   MPKI: 0.187765
L2C LOAD TRANSLATION NON_SPEC    ACCESS:    3392157  HIT:    3305510  MISS:      86647  HIT %:    97.4457  MISS %:    2.55433   MPKI: 0.433235
L2C TRANSLATION FROM L1D PREFETCHER NON_SPEC    ACCESS:         80  HIT:         64  MISS:         16  HIT %:         80  MISS %:         20   MPKI: 8e-05
L2C PREFETCH  REQUESTED:          0  ISSUED:          0  USEFUL:      22244  USELESS:    4466514
L2C USEFUL LOAD PREFETCHES:      22244 PREFETCH ISSUED TO LOWER LEVEL:    4488634  ACCURACY: 0.495563
L2C TIMELY PREFETCHES:      22244 LATE PREFETCHES: 0 DROPPED PREFETCHES: 0
L2C COMMIT LATE PREFETCHES: 0 MISSED OPPORTUNITY: 0 LATE IN PQ: 0 UNCOVERED: 0
L2C COMMIT LATE MSHR PREFETCHES: 0
L2C MPKI TOTAL: 4.66404 MSHR LATE: 0 PQ LATE: 0 COMMIT LATE: 0 MISSED OPPORTUNITY: 0 UNCOVERED: 0
L2C PREFETCHES SAME FILL-ORIGIN LEVEL: 0 DIFFERENT FILL-ORIGIN LEVEL: 0
L2C AVERAGE MISS LATENCY: 197.59 cycles
L2C AVERAGE MISS LATENCY LOAD: 169.845 cycles
L2C AVERAGE MISS LATENCY PREFETCH: 236.954 cycles
L2C AVERAGE MSHR OCCUPANCY: 3.09282
L2C MSHR FULL: 0
L2C RQ	ACCESS:    4453826	FORWARD:          0	MERGED:          0	TO_CACHE:    4453421
L2C WQ	ACCESS:    2431212	FORWARD:        407	MERGED:         45	TO_CACHE:    2431167
L2C PQ	ACCESS:    4532350	FORWARD:          0	MERGED:          0	TO_CACHE:    4532348

L2C Instructions Evicting Data 0
L2C Translations Evicting Data 85555
L2C Data Evicting Data 4519896
L2C Instructions Evicting Instructions 0
L2C Translations Evicting Instructions 0
L2C Data Evicting Instructions 0
L2C Instructions Evicting Translations 0
L2C Translations Evicting Translations 1108
L2C Data Evicting Translations 72743
L2C Dense regions hint from L2: 0
PSCL5 SPEC fills:          0  NON-SPEC fills:          0
PSCL5 Test counter :          0
PSCL5 Leapfrog:          0
PSCL5 MSHR merge:          0
PSCL5 TOTAL     ACCESS:          0  HIT:          0  MISS:          0  HIT %:       -nan  MISS %:       -nan   MPKI: 0
PSCL5 PREFETCH  REQUESTED:          0  ISSUED:          0  USEFUL:          0  USELESS:          0
PSCL5 USEFUL LOAD PREFETCHES:          0 PREFETCH ISSUED TO LOWER LEVEL:          0  ACCURACY: -nan
PSCL5 TIMELY PREFETCHES:          0 LATE PREFETCHES: 0 DROPPED PREFETCHES: 0
PSCL5 COMMIT LATE PREFETCHES: 0 MISSED OPPORTUNITY: 0 LATE IN PQ: 0 UNCOVERED: 0
PSCL5 COMMIT LATE MSHR PREFETCHES: 0
PSCL5 MPKI TOTAL: 0 MSHR LATE: 0 PQ LATE: 0 COMMIT LATE: 0 MISSED OPPORTUNITY: 0 UNCOVERED: 0
PSCL5 PREFETCHES SAME FILL-ORIGIN LEVEL: 0 DIFFERENT FILL-ORIGIN LEVEL: 0

PSCL4 SPEC fills:          0  NON-SPEC fills:          0
PSCL4 Test counter :          0
PSCL4 Leapfrog:          0
PSCL4 MSHR merge:          0
PSCL4 TOTAL     ACCESS:          0  HIT:          0  MISS:          0  HIT %:       -nan  MISS %:       -nan   MPKI: 0
PSCL4 PREFETCH  REQUESTED:          0  ISSUED:          0  USEFUL:          0  USELESS:          0
PSCL4 USEFUL LOAD PREFETCHES:          0 PREFETCH ISSUED TO LOWER LEVEL:          0  ACCURACY: -nan
PSCL4 TIMELY PREFETCHES:          0 LATE PREFETCHES: 0 DROPPED PREFETCHES: 0
PSCL4 COMMIT LATE PREFETCHES: 0 MISSED OPPORTUNITY: 0 LATE IN PQ: 0 UNCOVERED: 0
PSCL4 COMMIT LATE MSHR PREFETCHES: 0
PSCL4 MPKI TOTAL: 0 MSHR LATE: 0 PQ LATE: 0 COMMIT LATE: 0 MISSED OPPORTUNITY: 0 UNCOVERED: 0
PSCL4 PREFETCHES SAME FILL-ORIGIN LEVEL: 0 DIFFERENT FILL-ORIGIN LEVEL: 0

PSCL3 SPEC fills:          0  NON-SPEC fills:          0
PSCL3 Test counter :          0
PSCL3 Leapfrog:          0
PSCL3 MSHR merge:          0
PSCL3 TOTAL     ACCESS:          0  HIT:          0  MISS:          0  HIT %:       -nan  MISS %:       -nan   MPKI: 0
PSCL3 PREFETCH  REQUESTED:          0  ISSUED:          0  USEFUL:          0  USELESS:          0
PSCL3 USEFUL LOAD PREFETCHES:          0 PREFETCH ISSUED TO LOWER LEVEL:          0  ACCURACY: -nan
PSCL3 TIMELY PREFETCHES:          0 LATE PREFETCHES: 0 DROPPED PREFETCHES: 0
PSCL3 COMMIT LATE PREFETCHES: 0 MISSED OPPORTUNITY: 0 LATE IN PQ: 0 UNCOVERED: 0
PSCL3 COMMIT LATE MSHR PREFETCHES: 0
PSCL3 MPKI TOTAL: 0 MSHR LATE: 0 PQ LATE: 0 COMMIT LATE: 0 MISSED OPPORTUNITY: 0 UNCOVERED: 0
PSCL3 PREFETCHES SAME FILL-ORIGIN LEVEL: 0 DIFFERENT FILL-ORIGIN LEVEL: 0

PSCL2 SPEC fills:          0  NON-SPEC fills:          0
PSCL2 Test counter :          0
PSCL2 Leapfrog:          0
PSCL2 MSHR merge:          0
PSCL2 TOTAL     ACCESS:          0  HIT:          0  MISS:          0  HIT %:       -nan  MISS %:       -nan   MPKI: 0
PSCL2 PREFETCH  REQUESTED:          0  ISSUED:          0  USEFUL:          0  USELESS:          0
PSCL2 USEFUL LOAD PREFETCHES:          0 PREFETCH ISSUED TO LOWER LEVEL:          0  ACCURACY: -nan
PSCL2 TIMELY PREFETCHES:          0 LATE PREFETCHES: 0 DROPPED PREFETCHES: 0
PSCL2 COMMIT LATE PREFETCHES: 0 MISSED OPPORTUNITY: 0 LATE IN PQ: 0 UNCOVERED: 0
PSCL2 COMMIT LATE MSHR PREFETCHES: 0
PSCL2 MPKI TOTAL: 0 MSHR LATE: 0 PQ LATE: 0 COMMIT LATE: 0 MISSED OPPORTUNITY: 0 UNCOVERED: 0
PSCL2 PREFETCHES SAME FILL-ORIGIN LEVEL: 0 DIFFERENT FILL-ORIGIN LEVEL: 0

LLC SPEC fills:          0  NON-SPEC fills:      50351
LLC Test counter :     858605
LLC Leapfrog:          0
LLC MSHR merge:          0
LLC TOTAL     ACCESS:    7967680  HIT:    2361732  MISS:    5605948  HIT %:    29.6414  MISS %:    70.3586   MPKI: 28.0297
LLC LOAD      TOTAL       ACCESS:     932806  HIT:     177630  MISS:     755176  HIT %:    19.0425  MISS %:    80.9575   MPKI: 3.77588
LLC LOAD      NON_SPEC    ACCESS:      66343  HIT:      15992  MISS:      50351  HIT %:     24.105  MISS %:     75.895   MPKI: 0.251755
LLC LOAD      SPEC        ACCESS:     866463  HIT:     161638  MISS:     704825  HIT %:    18.6549  MISS %:    81.3451   MPKI: 3.52413
LLC RFO       NON_SPEC    ACCESS:        114  HIT:          0  MISS:        114  HIT %:          0  MISS %:        100   MPKI: 0.00057
LLC PREFETCH  NON_SPEC    ACCESS:    4488629  HIT:     432623  MISS:    4056006  HIT %:     9.6382  MISS %:    90.3618   MPKI: 20.28
LLC WRITEBACK NON_SPEC    ACCESS:    1489974  HIT:    1489967  MISS:          7  HIT %:    99.9995  MISS %: 0.000469807   MPKI: 3.5e-05
LLC CLEAN_EVICTION NON_SPEC    ACCESS:     931942  HIT:     235956  MISS:     695986  HIT %:    25.3187  MISS %:    74.6813   MPKI: 3.47993
LLC COMMIT LOAD NON_SPEC    ACCESS:      37552  HIT:      14577  MISS:      22975  HIT %:    38.8182  MISS %:    61.1818   MPKI: 0.114875
LLC LOAD TRANSLATION NON_SPEC    ACCESS:      86647  HIT:      10963  MISS:      75684  HIT %:    12.6525  MISS %:    87.3475   MPKI: 0.37842
LLC TRANSLATION FROM L1D PREFETCHER NON_SPEC    ACCESS:         16  HIT:         16  MISS:          0  HIT %:        100  MISS %:          0   MPKI: 0
LLC PREFETCH  REQUESTED:          0  ISSUED:          0  USEFUL:      16625  USELESS:    4039795
LLC USEFUL LOAD PREFETCHES:      16625 PREFETCH ISSUED TO LOWER LEVEL:    4056011  ACCURACY: 0.409885
LLC TIMELY PREFETCHES:      16625 LATE PREFETCHES: 0 DROPPED PREFETCHES: 0
LLC COMMIT LATE PREFETCHES: 0 MISSED OPPORTUNITY: 0 LATE IN PQ: 0 UNCOVERED: 0
LLC COMMIT LATE MSHR PREFETCHES: 0
LLC MPKI TOTAL: 3.77588 MSHR LATE: 0 PQ LATE: 0 COMMIT LATE: 0 MISSED OPPORTUNITY: 0 UNCOVERED: 0
LLC PREFETCHES SAME FILL-ORIGIN LEVEL: 0 DIFFERENT FILL-ORIGIN LEVEL: 0
LLC AVERAGE MISS LATENCY: 189.102 cycles
LLC AVERAGE MISS LATENCY LOAD: 174.546 cycles
LLC AVERAGE MISS LATENCY PREFETCH: 223.607 cycles
LLC AVERAGE MSHR OCCUPANCY: 2.24214
LLC MSHR FULL: 0
LLC RQ	ACCESS:    1057139	FORWARD:          0	MERGED:          0	TO_CACHE:    1057135
LLC WQ	ACCESS:    2421916	FORWARD:          4	MERGED:          0	TO_CACHE:    2421916
LLC PQ	ACCESS:    4488634	FORWARD:          0	MERGED:          0	TO_CACHE:    4488634

LLC Dense regions hint to LLC: 0

RAW hits: 424195
Loads Generated: 128041526
Loads sent to L1D: 127617318
Stores Generated: 12822621
Stores sent to L1D: 12822617
Major fault: 0 Minor fault: 641201
Allocated PAGES: 641201
Total Load insts: 159480958
Total Non-spec loads: 6811855
Percentage of speculative loads: 95.7287

LeapFrogging counter: 59339
Commit hits: 44723580 miss: 77416583
Commit hit %: 36.6166 miss %: 63.3834
Commits not translated: 0
Loads retired: 1121392
Stores retired: 12822617
Cache fills: 1121392
L1D response latency: 166.109 cycles
Load retirement latency: 625.045 cycles
OOO test counter: 0
Discarded buffer inserts: 44723580 hits: 26631 hit %: 0.0595458

stream: 
stream:times selected: 12269660
stream:pref_filled: 2514040
stream:pref_useful: 959493
stream:pref_late: 7158
stream:misses: 896800
stream:misses_by_poll: 0

CS: 
CS:times selected: 2105693
CS:pref_filled: 1042972
CS:pref_useful: 1034138
CS:pref_late: 2
CS:misses: 82809
CS:misses_by_poll: 6826

CPLX: 
CPLX:times selected: 8422068
CPLX:pref_filled: 2002278
CPLX:pref_useful: 1613518
CPLX:pref_late: 1230
CPLX:misses: 572674
CPLX:misses_by_poll: 28204

NL_L1: 
NL:times selected: 1243
NL:pref_filled: 553
NL:pref_useful: 298
NL:pref_late: 0
NL:misses: 298
NL:misses_by_poll: 1

total selections: 22798664
total_filled: 4410224
total_useful: 2849096
total_late: 8494
total_polluted: 35031
total_misses_after_warmup: 1403332
conflicts: 0
Degree Incremented Times: 1374723
Degree Decremented Times: 490348

L1 IP Table Write Accesses: 140542666
L1 IP Table Read Accesses: 140542666
L1 RST Write Accesses: 9815743
L1 RST Read Accesses: 19631486
L1 CSPT Write Accesses: 9815743
L1 CSPT Read Accesses: 27928444
L1 RR Filter Tag Write Accesses: 11784080
L1 RR Filter Tag Read Accesses: 764069490
L1 IP Table Tag Write Accesses: 140864152
L1 IP Table Tag Read Accesses: 140864152
L1 RST Tag Write Accesses: 0
L1 RST Tag Read Accesses: 93318923
L1 RR Filter Write Accesses: 0
L1 RR Filter Read Accesses: 28575556
test: 1889199

DRAM Statistics
 CHANNEL 0
 RQ ROW_BUFFER_HIT:    1641442  ROW_BUFFER_MISS:    3268075
 DBUS_CONGESTED:      11775
 WQ ROW_BUFFER_HIT:     530136  ROW_BUFFER_MISS:    1819182  FULL:          0

 AVG_CONGESTED_CYCLE: 5
 All warmup complete: 2
Channel 0 Bank busy for read cycles: 0
Channel 0 Bank busy for write cycles: 0
Channel 0
Rank 0
0banks busy for read cycles: 847587
0banks busy for write cycles: 41
1banks busy for read cycles: 76933277
1banks busy for write cycles: 660472
2banks busy for read cycles: 69888056
2banks busy for write cycles: 659067
3banks busy for read cycles: 46582969
3banks busy for write cycles: 656374
4banks busy for read cycles: 26187254
4banks busy for write cycles: 654103
5banks busy for read cycles: 13148017
5banks busy for write cycles: 624228
6banks busy for read cycles: 5891824
6banks busy for write cycles: 1276320
7banks busy for read cycles: 1927605
7banks busy for write cycles: 10337367
8banks busy for read cycles: 326311
8banks busy for write cycles: 60591013

CPU 0 Branch Prediction Accuracy: 99.9931% MPKI: 0.00083 Average ROB Occupancy at Mispredict: 342.988
Branch types
NOT_BRANCH: 197595958 98.798%
BRANCH_DIRECT_JUMP: 160245 0.0801225%
BRANCH_INDIRECT: 0 0%
BRANCH_CONDITIONAL: 2243766 1.12188%
BRANCH_DIRECT_CALL: 0 0%
BRANCH_INDIRECT_CALL: 0 0%
BRANCH_RETURN: 0 0%
BRANCH_OTHER: 0 0%

DRAM PAGES: 1048576
Allocated PAGES: 641201
