
*** ChampSim Multicore Out-of-Order Simulator ***

Warmup Instructions: 50000000
Simulation Instructions: 200000000
Number of CPUs: 1
LLC sets: 2048
LLC ways: 16
L0D sets: 16
L0D ways: 2
ROB size: 352
LQ size: 128
SQ size: 72
Secure Berti: OFF
Berti: OFF
Berti Fill: OFF
On commit prefetching: ON
Hit-based filter: ON
Time-guarding: ON
Free-slotting: ON
Leap-frogging: ON
Train prefetcher on L0D bypass: OFF
No translation penalty for prefetchers: OFF
Prefetch to L0D only: OFF
Prefetch to L1D only: OFF
Clean evictions: ON
Commit loads: ON
Commit write: ON
Fill commit loads to L2C, LLC: ON
DRAM IO FREQUENCY: 6400
ROB SIZE: 352
Off-chip DRAM Size: 4096 MB Channels: 1 Width: 64-bit Data Rate: 6400 MT/s
CPU 0 runs /home/sumon/secure_berti/GhostMinion/../../traces/spec/654.roms_s-1613B.champsimtrace.xz
.xz
BTB has LRU replacement policy
ITLB has LRU replacement policy
DTLB has LRU replacement policy
STLB has LRU replacement policy
L1I has LRU replacement policy
L0D has LRU replacement policy
IP Table Entries: 1024
CSPT Entries: 128
RR_ENTRIES: 32
RST_ENTRIES: 8
L1D has LRU replacement policy
L2C has LRU replacement policy
LLC has LRU replacement policy
Heartbeat CPU 0 instructions: 10000001 cycles: 4745953 heartbeat IPC: 2.10706 cumulative IPC: 2.10706 (Simulation time: 0 hr 0 min 44 sec) 
Heartbeat CPU 0 instructions: 20000003 cycles: 9492027 heartbeat IPC: 2.10701 cumulative IPC: 2.10703 (Simulation time: 0 hr 1 min 29 sec) 
Heartbeat CPU 0 instructions: 30000000 cycles: 14238079 heartbeat IPC: 2.10701 cumulative IPC: 2.10703 (Simulation time: 0 hr 2 min 18 sec) 
Heartbeat CPU 0 instructions: 40000002 cycles: 18983233 heartbeat IPC: 2.10741 cumulative IPC: 2.10712 (Simulation time: 0 hr 3 min 9 sec) 
Heartbeat CPU 0 instructions: 50000003 cycles: 25136312 heartbeat IPC: 1.6252 cumulative IPC: 1.98915 (Simulation time: 0 hr 4 min 4 sec) 

Warmup complete CPU 0 instructions: 50000003 cycles: 25136312 (Simulation time: 0 hr 4 min 4 sec) 

Heartbeat CPU 0 instructions: 60000001 cycles: 40766772 heartbeat IPC: 0.639776 cumulative IPC: 0.639776 (Simulation time: 0 hr 4 min 40 sec) 
Heartbeat CPU 0 instructions: 70000003 cycles: 56398893 heartbeat IPC: 0.639709 cumulative IPC: 0.639742 (Simulation time: 0 hr 5 min 16 sec) 
Heartbeat CPU 0 instructions: 80000000 cycles: 72017862 heartbeat IPC: 0.640247 cumulative IPC: 0.639911 (Simulation time: 0 hr 5 min 53 sec) 
Heartbeat CPU 0 instructions: 90000001 cycles: 87629571 heartbeat IPC: 0.640545 cumulative IPC: 0.640069 (Simulation time: 0 hr 6 min 29 sec) 
Heartbeat CPU 0 instructions: 100000000 cycles: 103244254 heartbeat IPC: 0.640423 cumulative IPC: 0.64014 (Simulation time: 0 hr 7 min 6 sec) 
Heartbeat CPU 0 instructions: 110000000 cycles: 118856769 heartbeat IPC: 0.640512 cumulative IPC: 0.640202 (Simulation time: 0 hr 7 min 44 sec) 
Heartbeat CPU 0 instructions: 120000001 cycles: 140731626 heartbeat IPC: 0.457146 cumulative IPC: 0.605561 (Simulation time: 0 hr 8 min 33 sec) 
Heartbeat CPU 0 instructions: 130000000 cycles: 156341575 heartbeat IPC: 0.640617 cumulative IPC: 0.609732 (Simulation time: 0 hr 9 min 10 sec) 
Heartbeat CPU 0 instructions: 140000003 cycles: 171959340 heartbeat IPC: 0.640297 cumulative IPC: 0.612983 (Simulation time: 0 hr 9 min 48 sec) 
Heartbeat CPU 0 instructions: 150000001 cycles: 187579021 heartbeat IPC: 0.640218 cumulative IPC: 0.615602 (Simulation time: 0 hr 10 min 24 sec) 
Heartbeat CPU 0 instructions: 160000001 cycles: 203190713 heartbeat IPC: 0.640546 cumulative IPC: 0.617789 (Simulation time: 0 hr 11 min 1 sec) 
Heartbeat CPU 0 instructions: 170000002 cycles: 218802170 heartbeat IPC: 0.640555 cumulative IPC: 0.619624 (Simulation time: 0 hr 11 min 38 sec) 
Heartbeat CPU 0 instructions: 180000000 cycles: 234412599 heartbeat IPC: 0.640597 cumulative IPC: 0.621188 (Simulation time: 0 hr 12 min 15 sec) 
Heartbeat CPU 0 instructions: 190000000 cycles: 250024491 heartbeat IPC: 0.640537 cumulative IPC: 0.622532 (Simulation time: 0 hr 12 min 53 sec) 
Heartbeat CPU 0 instructions: 200000003 cycles: 271734068 heartbeat IPC: 0.460626 cumulative IPC: 0.608278 (Simulation time: 0 hr 13 min 44 sec) 
Heartbeat CPU 0 instructions: 210000001 cycles: 287354047 heartbeat IPC: 0.640206 cumulative IPC: 0.61018 (Simulation time: 0 hr 14 min 22 sec) 
Heartbeat CPU 0 instructions: 220000000 cycles: 302972776 heartbeat IPC: 0.640257 cumulative IPC: 0.611871 (Simulation time: 0 hr 14 min 59 sec) 
Heartbeat CPU 0 instructions: 230000003 cycles: 318588812 heartbeat IPC: 0.640368 cumulative IPC: 0.613387 (Simulation time: 0 hr 15 min 37 sec) 
Heartbeat CPU 0 instructions: 240000003 cycles: 334199935 heartbeat IPC: 0.640569 cumulative IPC: 0.61476 (Simulation time: 0 hr 16 min 13 sec) 
Heartbeat CPU 0 instructions: 250000000 cycles: 349812128 heartbeat IPC: 0.640525 cumulative IPC: 0.615999 (Simulation time: 0 hr 16 min 49 sec) 
Finished CPU 0 instructions: 200000000 cycles: 324675846 cumulative IPC: 0.615999 (Simulation time: 0 hr 16 min 49 sec) 
 Instruction ID: 250000065

ChampSim completed all CPUs

Region of Interest Statistics

CPU 0 cumulative IPC: 0.615999 instructions: 200000000 cycles: 324675846
ITLB SPEC fills:          0  NON-SPEC fills:          0
ITLB Test counter :          0
ITLB Leapfrog:          0
ITLB MSHR merge:          0
ITLB TOTAL     ACCESS:   30448285  HIT:   30448277  MISS:          8  HIT %:        100  MISS %: 2.62741e-05   MPKI: 4e-05
ITLB LOAD TRANSLATION NON_SPEC    ACCESS:   30448285  HIT:   30448277  MISS:          8  HIT %:        100  MISS %: 2.62741e-05   MPKI: 4e-05
ITLB PREFETCH  REQUESTED:          0  ISSUED:          0  USEFUL:          0  USELESS:          0
ITLB USEFUL LOAD PREFETCHES:          0 PREFETCH ISSUED TO LOWER LEVEL:          0  ACCURACY: -nan
ITLB TIMELY PREFETCHES:          0 LATE PREFETCHES: 0 DROPPED PREFETCHES: 0
ITLB COMMIT LATE PREFETCHES: 0 MISSED OPPORTUNITY: 0 LATE IN PQ: 0 UNCOVERED: 0
ITLB COMMIT LATE MSHR PREFETCHES: 0
ITLB MPKI TOTAL: 0 MSHR LATE: 0 PQ LATE: 0 COMMIT LATE: 0 MISSED OPPORTUNITY: 0 UNCOVERED: 0
ITLB PREFETCHES SAME FILL-ORIGIN LEVEL: 0 DIFFERENT FILL-ORIGIN LEVEL: 0
ITLB AVERAGE MISS LATENCY: 361.875 cycles
ITLB AVERAGE MISS LATENCY LOAD: -nan cycles
ITLB AVERAGE MISS LATENCY PREFETCH: -nan cycles
ITLB AVERAGE MSHR OCCUPANCY: 0
ITLB MSHR FULL: 0
ITLB RQ	ACCESS:   39709013	FORWARD:          0	MERGED:    9260728	TO_CACHE:   30448285

DTLB SPEC fills:          0  NON-SPEC fills:          0
DTLB Test counter :          0
DTLB Leapfrog:          0
DTLB MSHR merge:          0
DTLB TOTAL     ACCESS:   44400076  HIT:   44387879  MISS:      12197  HIT %:    99.9725  MISS %:  0.0274707   MPKI: 0.060985
DTLB LOAD TRANSLATION NON_SPEC    ACCESS:   44400076  HIT:   44387879  MISS:      12197  HIT %:    99.9725  MISS %:  0.0274707   MPKI: 0.060985
DTLB PREFETCH  REQUESTED:          0  ISSUED:          0  USEFUL:          0  USELESS:          0
DTLB USEFUL LOAD PREFETCHES:          0 PREFETCH ISSUED TO LOWER LEVEL:          0  ACCURACY: -nan
DTLB TIMELY PREFETCHES:          0 LATE PREFETCHES: 0 DROPPED PREFETCHES: 0
DTLB COMMIT LATE PREFETCHES: 0 MISSED OPPORTUNITY: 0 LATE IN PQ: 0 UNCOVERED: 0
DTLB COMMIT LATE MSHR PREFETCHES: 0
DTLB MPKI TOTAL: 0 MSHR LATE: 0 PQ LATE: 0 COMMIT LATE: 0 MISSED OPPORTUNITY: 0 UNCOVERED: 0
DTLB PREFETCHES SAME FILL-ORIGIN LEVEL: 0 DIFFERENT FILL-ORIGIN LEVEL: 0
DTLB AVERAGE MISS LATENCY: 149.518 cycles
DTLB AVERAGE MISS LATENCY LOAD: -nan cycles
DTLB AVERAGE MISS LATENCY PREFETCH: -nan cycles
DTLB AVERAGE MSHR OCCUPANCY: 0.00210702
DTLB MSHR FULL: 0
DTLB RQ	ACCESS:   53646090	FORWARD:          0	MERGED:    9223561	TO_CACHE:   44422529

STLB SPEC fills:          0  NON-SPEC fills:          0
STLB Test counter :          0
STLB Leapfrog:          0
STLB MSHR merge:          0
STLB TOTAL     ACCESS:    1817980  HIT:    1806614  MISS:      11366  HIT %:    99.3748  MISS %:   0.625199   MPKI: 0.05683
STLB LOAD TRANSLATION NON_SPEC    ACCESS:      12205  HIT:        842  MISS:      11363  HIT %:    6.89881  MISS %:    93.1012   MPKI: 0.056815
STLB TRANSLATION FROM L1D PREFETCHER NON_SPEC    ACCESS:    1805775  HIT:    1805772  MISS:          3  HIT %:    99.9998  MISS %: 0.000166134   MPKI: 1.5e-05
STLB PREFETCH  REQUESTED:          0  ISSUED:          0  USEFUL:          3  USELESS:          0
STLB USEFUL LOAD PREFETCHES:          3 PREFETCH ISSUED TO LOWER LEVEL:          0  ACCURACY: inf
STLB TIMELY PREFETCHES:          3 LATE PREFETCHES: 0 DROPPED PREFETCHES: 0
STLB COMMIT LATE PREFETCHES: 0 MISSED OPPORTUNITY: 0 LATE IN PQ: 0 UNCOVERED: 0
STLB COMMIT LATE MSHR PREFETCHES: 0
STLB MPKI TOTAL: 0 MSHR LATE: 0 PQ LATE: 0 COMMIT LATE: 0 MISSED OPPORTUNITY: 0 UNCOVERED: 0
STLB PREFETCHES SAME FILL-ORIGIN LEVEL: 0 DIFFERENT FILL-ORIGIN LEVEL: 0
STLB AVERAGE MISS LATENCY: 151.386 cycles
STLB AVERAGE MISS LATENCY LOAD: -nan cycles
STLB AVERAGE MISS LATENCY PREFETCH: -nan cycles
STLB AVERAGE MSHR OCCUPANCY: 0.0039539
STLB MSHR FULL: 0
STLB RQ	ACCESS:    7853917	FORWARD:          0	MERGED:    6034952	TO_CACHE:    1818965

STLB Hit, L1D data hit: 0
STLB Hit, L2C data hit: 0
STLB Hit, LLC data hit: 0
STLB Hit, LLC data miss: 0
STLB STLB hints to L2: 0
L0D SPEC fills:   16285485  NON-SPEC fills:          0
L0D TimeGuard Request with older TS:       7788 Restricted eviction:        215 read:     868399
L0D Test counter :          0
L0D Leapfrog:          0
L0D MSHR merge:     292403
L0D TOTAL     ACCESS:   31641319  HIT:    1960072  MISS:   29681247  HIT %:    6.19466  MISS %:    93.8053   MPKI: 148.406
L0D LOAD      TOTAL       ACCESS:   31641319  HIT:    1960072  MISS:   29681247  HIT %:    6.19466  MISS %:    93.8053   MPKI: 148.406
L0D LOAD      NON_SPEC    ACCESS:   13406847  HIT:      11300  MISS:   13395547  HIT %:  0.0842853  MISS %:    99.9157   MPKI: 66.9777
L0D LOAD      SPEC        ACCESS:   18234472  HIT:    1948772  MISS:   16285700  HIT %:    10.6873  MISS %:    89.3127   MPKI: 81.4285
L0D PREFETCH  REQUESTED:          0  ISSUED:          0  USEFUL:          0  USELESS:          0
L0D USEFUL LOAD PREFETCHES:          0 PREFETCH ISSUED TO LOWER LEVEL:          0  ACCURACY: -nan
L0D TIMELY PREFETCHES:          0 LATE PREFETCHES: 0 DROPPED PREFETCHES: 0
L0D COMMIT LATE PREFETCHES: 0 MISSED OPPORTUNITY: 0 LATE IN PQ: 0 UNCOVERED: 0
L0D COMMIT LATE MSHR PREFETCHES: 0
L0D MPKI TOTAL: 149.868 MSHR LATE: 0 PQ LATE: 0 COMMIT LATE: 0 MISSED OPPORTUNITY: 0 UNCOVERED: 0
L0D PREFETCHES SAME FILL-ORIGIN LEVEL: 0 DIFFERENT FILL-ORIGIN LEVEL: 0
L0D AVERAGE MISS LATENCY: 5.6654 cycles
L0D AVERAGE MISS LATENCY LOAD: 5.6654 cycles
L0D AVERAGE MISS LATENCY PREFETCH: -nan cycles
L0D AVERAGE MSHR OCCUPANCY: 0.545621
L0D MSHR FULL: 0
L0D RQ	ACCESS:   40096876	FORWARD:          0	MERGED:    8163159	TO_CACHE:   31933717
L0D WQ	ACCESS:   21712373	FORWARD:          0	MERGED:          0	TO_CACHE:   21712373

L1D SPEC fills:          0  NON-SPEC fills:      26501
L1D Test counter :      50566
L1D Leapfrog:          0
L1D MSHR merge:      41586
L1D TOTAL     ACCESS:   57831208  HIT:   57192107  MISS:     639101  HIT %:    98.8949  MISS %:    1.10511   MPKI: 3.1955
L1D LOAD      TOTAL       ACCESS:   29681232  HIT:   29602609  MISS:      78623  HIT %:    99.7351  MISS %:   0.264891   MPKI: 0.393115
L1D LOAD      NON_SPEC    ACCESS:   13395547  HIT:   13369046  MISS:      26501  HIT %:    99.8022  MISS %:   0.197834   MPKI: 0.132505
L1D LOAD      SPEC        ACCESS:   16285685  HIT:   16233563  MISS:      52122  HIT %:      99.68  MISS %:   0.320048   MPKI: 0.26061
L1D RFO       NON_SPEC    ACCESS:   20184366  HIT:   20163761  MISS:      20605  HIT %:    99.8979  MISS %:   0.102084   MPKI: 0.103025
L1D PREFETCH  NON_SPEC    ACCESS:    7780857  HIT:    7291571  MISS:     489286  HIT %:    93.7117  MISS %:    6.28833   MPKI: 2.44643
L1D COMMIT LOAD NON_SPEC    ACCESS:     128497  HIT:     128469  MISS:         28  HIT %:    99.9782  MISS %:  0.0217904   MPKI: 0.00014
L1D COMMIT WRITE NON_SPEC    ACCESS:      56256  HIT:       5697  MISS:      50559  HIT %:    10.1269  MISS %:    89.8731   MPKI: 0.252795
L1D PREFETCH  REQUESTED:    7873204  ISSUED:    7841712  USEFUL:     261048  USELESS:     228244
L1D USEFUL LOAD PREFETCHES:     261048 PREFETCH ISSUED TO LOWER LEVEL:     538413  ACCURACY: 48.4847
L1D TIMELY PREFETCHES:     261048 LATE PREFETCHES: 41573 DROPPED PREFETCHES: 0
L1D COMMIT LATE PREFETCHES: 0 MISSED OPPORTUNITY: 0 LATE IN PQ: 0 UNCOVERED: 0
L1D COMMIT LATE MSHR PREFETCHES: 0
L1D MPKI TOTAL: 0.393185 MSHR LATE: 0.207865 PQ LATE: 0 COMMIT LATE: 0 MISSED OPPORTUNITY: 0 UNCOVERED: 0
L1D PREFETCHES SAME FILL-ORIGIN LEVEL: 538413 DIFFERENT FILL-ORIGIN LEVEL: 0
L1D AVERAGE MISS LATENCY: 220.459 cycles
L1D AVERAGE MISS LATENCY LOAD: 196.873 cycles
L1D AVERAGE MISS LATENCY PREFETCH: 250.816 cycles
L1D AVERAGE MSHR OCCUPANCY: 0.352704
L1D MSHR FULL: 0.00381601
L1D RQ	ACCESS:   29973010	FORWARD:          0	MERGED:     163224	TO_CACHE:   29809754
L1D WQ	ACCESS:   21768630	FORWARD:         32	MERGED:    1412288	TO_CACHE:   20356342
L1D PQ	ACCESS:    7841712	FORWARD:          0	MERGED:          0	TO_CACHE:    7841712

L1D UNIQUE REGIONS ACCESSED: 0
L1D REGIONS CONFLICTS: 0
L1D Cross Page Prefetch Requests: 0
L1D Same Page Prefetch Requests: 9913050
L1D ROI Sum of L1D PQ occupancy: 126693603
L1D PREFETCHES PUSHED FROM L2C: 0
L1I SPEC fills:          0  NON-SPEC fills:          0
L1I Test counter :          0
L1I Leapfrog:          0
L1I MSHR merge:         15
L1I TOTAL     ACCESS:   39708996  HIT:   39708890  MISS:        106  HIT %:    99.9997  MISS %: 0.000266942   MPKI: 0.00053
L1I LOAD      TOTAL       ACCESS:   39708996  HIT:   39708890  MISS:        106  HIT %:    99.9997  MISS %: 0.000266942   MPKI: 0.00053
L1I LOAD      NON_SPEC    ACCESS:   39708996  HIT:   39708890  MISS:        106  HIT %:    99.9997  MISS %: 0.000266942   MPKI: 0.00053
L1I PREFETCH  REQUESTED:          0  ISSUED:          0  USEFUL:          0  USELESS:          0
L1I USEFUL LOAD PREFETCHES:          0 PREFETCH ISSUED TO LOWER LEVEL:          0  ACCURACY: -nan
L1I TIMELY PREFETCHES:          0 LATE PREFETCHES: 0 DROPPED PREFETCHES: 0
L1I COMMIT LATE PREFETCHES: 0 MISSED OPPORTUNITY: 0 LATE IN PQ: 0 UNCOVERED: 0
L1I COMMIT LATE MSHR PREFETCHES: 0
L1I MPKI TOTAL: 0.000605 MSHR LATE: 0 PQ LATE: 0 COMMIT LATE: 0 MISSED OPPORTUNITY: 0 UNCOVERED: 0
L1I PREFETCHES SAME FILL-ORIGIN LEVEL: 0 DIFFERENT FILL-ORIGIN LEVEL: 0
L1I AVERAGE MISS LATENCY: 162.547 cycles
L1I AVERAGE MISS LATENCY LOAD: 162.547 cycles
L1I AVERAGE MISS LATENCY PREFETCH: -nan cycles
L1I AVERAGE MSHR OCCUPANCY: 1.51099e-06
L1I MSHR FULL: 0
L1I RQ	ACCESS:   57874462	FORWARD:          0	MERGED:   18165449	TO_CACHE:   39709013

BTB SPEC fills:          0  NON-SPEC fills:          0
BTB Test counter :          0
BTB Leapfrog:          0
BTB MSHR merge:          0
BTB TOTAL     ACCESS:   13350901  HIT:   11926181  MISS:    1424720  HIT %:    89.3287  MISS %:    10.6713   MPKI: 7.1236
BTB BRANCH_DIRECT_JUMP	ACCESS:    1424895  HIT:    1424857  MISS:         38
BTB BRANCH_INDIRECT	ACCESS:         16  HIT:         15  MISS:          1
BTB BRANCH_CONDITIONAL	ACCESS:    6226070  HIT:    6225943  MISS:        127
BTB BRANCH_DIRECT_CALL	ACCESS:    2849960  HIT:    2849915  MISS:         45
BTB BRANCH_INDIRECT_CALL	ACCESS:          0  HIT:          0  MISS:          0
BTB BRANCH_RETURN	ACCESS:    2849960  HIT:    1425451  MISS:    1424509
BTB BRANCH_OTHER ACCESS:          0  HIT:          0  MISS:          0

L2C SPEC fills:          0  NON-SPEC fills:      22422
L2C Test counter :      50554
L2C Leapfrog:          0
L2C MSHR merge:          0
L2C TOTAL     ACCESS:     919153  HIT:     323115  MISS:     596038  HIT %:    35.1536  MISS %:    64.8464   MPKI: 2.98019
L2C LOAD      TOTAL       ACCESS:      37140  HIT:       2267  MISS:      34873  HIT %:    6.10393  MISS %:    93.8961   MPKI: 0.174365
L2C LOAD      NON_SPEC    ACCESS:      22898  HIT:        370  MISS:      22528  HIT %:    1.61586  MISS %:    98.3841   MPKI: 0.11264
L2C LOAD      SPEC        ACCESS:      14242  HIT:       1897  MISS:      12345  HIT %:    13.3198  MISS %:    86.6802   MPKI: 0.061725
L2C RFO       NON_SPEC    ACCESS:      13051  HIT:          0  MISS:      13051  HIT %:          0  MISS %:        100   MPKI: 0.065255
L2C PREFETCH  NON_SPEC    ACCESS:     538413  HIT:        694  MISS:     537719  HIT %:   0.128897  MISS %:    99.8711   MPKI: 2.68859
L2C WRITEBACK NON_SPEC    ACCESS:     223137  HIT:     222737  MISS:        400  HIT %:    99.8207  MISS %:   0.179262   MPKI: 0.002
L2C CLEAN_EVICTION NON_SPEC    ACCESS:      50566  HIT:      42716  MISS:       7850  HIT %:    84.4757  MISS %:    15.5243   MPKI: 0.03925
L2C COMMIT LOAD NON_SPEC    ACCESS:         27  HIT:         21  MISS:          6  HIT %:    77.7778  MISS %:    22.2222   MPKI: 3e-05
L2C LOAD TRANSLATION NON_SPEC    ACCESS:      56804  HIT:      54671  MISS:       2133  HIT %:     96.245  MISS %:    3.75502   MPKI: 0.010665
L2C TRANSLATION FROM L1D PREFETCHER NON_SPEC    ACCESS:         15  HIT:          9  MISS:          6  HIT %:         60  MISS %:         40   MPKI: 3e-05
L2C PREFETCH  REQUESTED:          0  ISSUED:          0  USEFUL:        513  USELESS:     537141
L2C USEFUL LOAD PREFETCHES:        513 PREFETCH ISSUED TO LOWER LEVEL:     537719  ACCURACY: 0.095403
L2C TIMELY PREFETCHES:        513 LATE PREFETCHES: 0 DROPPED PREFETCHES: 0
L2C COMMIT LATE PREFETCHES: 0 MISSED OPPORTUNITY: 0 LATE IN PQ: 0 UNCOVERED: 0
L2C COMMIT LATE MSHR PREFETCHES: 0
L2C MPKI TOTAL: 0.174365 MSHR LATE: 0 PQ LATE: 0 COMMIT LATE: 0 MISSED OPPORTUNITY: 0 UNCOVERED: 0
L2C PREFETCHES SAME FILL-ORIGIN LEVEL: 0 DIFFERENT FILL-ORIGIN LEVEL: 0
L2C AVERAGE MISS LATENCY: 246.783 cycles
L2C AVERAGE MISS LATENCY LOAD: 205.094 cycles
L2C AVERAGE MISS LATENCY PREFETCH: 254.394 cycles
L2C AVERAGE MSHR OCCUPANCY: 3.07839
L2C MSHR FULL: 0
L2C RQ	ACCESS:     107054	FORWARD:          0	MERGED:          0	TO_CACHE:     107037
L2C WQ	ACCESS:     273703	FORWARD:         17	MERGED:          0	TO_CACHE:     273703
L2C PQ	ACCESS:     538413	FORWARD:          0	MERGED:          0	TO_CACHE:     538413

L2C Instructions Evicting Data 106
L2C Translations Evicting Data 2132
L2C Data Evicting Data 570962
L2C Instructions Evicting Instructions 0
L2C Translations Evicting Instructions 0
L2C Data Evicting Instructions 144
L2C Instructions Evicting Translations 0
L2C Translations Evicting Translations 7
L2C Data Evicting Translations 2092
L2C Dense regions hint from L2: 0
PSCL5 SPEC fills:          0  NON-SPEC fills:          0
PSCL5 Test counter :          0
PSCL5 Leapfrog:          0
PSCL5 MSHR merge:          0
PSCL5 TOTAL     ACCESS:          0  HIT:          0  MISS:          0  HIT %:       -nan  MISS %:       -nan   MPKI: 0
PSCL5 PREFETCH  REQUESTED:          0  ISSUED:          0  USEFUL:          0  USELESS:          0
PSCL5 USEFUL LOAD PREFETCHES:          0 PREFETCH ISSUED TO LOWER LEVEL:          0  ACCURACY: -nan
PSCL5 TIMELY PREFETCHES:          0 LATE PREFETCHES: 0 DROPPED PREFETCHES: 0
PSCL5 COMMIT LATE PREFETCHES: 0 MISSED OPPORTUNITY: 0 LATE IN PQ: 0 UNCOVERED: 0
PSCL5 COMMIT LATE MSHR PREFETCHES: 0
PSCL5 MPKI TOTAL: 0 MSHR LATE: 0 PQ LATE: 0 COMMIT LATE: 0 MISSED OPPORTUNITY: 0 UNCOVERED: 0
PSCL5 PREFETCHES SAME FILL-ORIGIN LEVEL: 0 DIFFERENT FILL-ORIGIN LEVEL: 0

PSCL4 SPEC fills:          0  NON-SPEC fills:          0
PSCL4 Test counter :          0
PSCL4 Leapfrog:          0
PSCL4 MSHR merge:          0
PSCL4 TOTAL     ACCESS:          0  HIT:          0  MISS:          0  HIT %:       -nan  MISS %:       -nan   MPKI: 0
PSCL4 PREFETCH  REQUESTED:          0  ISSUED:          0  USEFUL:          0  USELESS:          0
PSCL4 USEFUL LOAD PREFETCHES:          0 PREFETCH ISSUED TO LOWER LEVEL:          0  ACCURACY: -nan
PSCL4 TIMELY PREFETCHES:          0 LATE PREFETCHES: 0 DROPPED PREFETCHES: 0
PSCL4 COMMIT LATE PREFETCHES: 0 MISSED OPPORTUNITY: 0 LATE IN PQ: 0 UNCOVERED: 0
PSCL4 COMMIT LATE MSHR PREFETCHES: 0
PSCL4 MPKI TOTAL: 0 MSHR LATE: 0 PQ LATE: 0 COMMIT LATE: 0 MISSED OPPORTUNITY: 0 UNCOVERED: 0
PSCL4 PREFETCHES SAME FILL-ORIGIN LEVEL: 0 DIFFERENT FILL-ORIGIN LEVEL: 0

PSCL3 SPEC fills:          0  NON-SPEC fills:          0
PSCL3 Test counter :          0
PSCL3 Leapfrog:          0
PSCL3 MSHR merge:          0
PSCL3 TOTAL     ACCESS:          0  HIT:          0  MISS:          0  HIT %:       -nan  MISS %:       -nan   MPKI: 0
PSCL3 PREFETCH  REQUESTED:          0  ISSUED:          0  USEFUL:          0  USELESS:          0
PSCL3 USEFUL LOAD PREFETCHES:          0 PREFETCH ISSUED TO LOWER LEVEL:          0  ACCURACY: -nan
PSCL3 TIMELY PREFETCHES:          0 LATE PREFETCHES: 0 DROPPED PREFETCHES: 0
PSCL3 COMMIT LATE PREFETCHES: 0 MISSED OPPORTUNITY: 0 LATE IN PQ: 0 UNCOVERED: 0
PSCL3 COMMIT LATE MSHR PREFETCHES: 0
PSCL3 MPKI TOTAL: 0 MSHR LATE: 0 PQ LATE: 0 COMMIT LATE: 0 MISSED OPPORTUNITY: 0 UNCOVERED: 0
PSCL3 PREFETCHES SAME FILL-ORIGIN LEVEL: 0 DIFFERENT FILL-ORIGIN LEVEL: 0

PSCL2 SPEC fills:          0  NON-SPEC fills:          0
PSCL2 Test counter :          0
PSCL2 Leapfrog:          0
PSCL2 MSHR merge:          0
PSCL2 TOTAL     ACCESS:          0  HIT:          0  MISS:          0  HIT %:       -nan  MISS %:       -nan   MPKI: 0
PSCL2 PREFETCH  REQUESTED:          0  ISSUED:          0  USEFUL:          0  USELESS:          0
PSCL2 USEFUL LOAD PREFETCHES:          0 PREFETCH ISSUED TO LOWER LEVEL:          0  ACCURACY: -nan
PSCL2 TIMELY PREFETCHES:          0 LATE PREFETCHES: 0 DROPPED PREFETCHES: 0
PSCL2 COMMIT LATE PREFETCHES: 0 MISSED OPPORTUNITY: 0 LATE IN PQ: 0 UNCOVERED: 0
PSCL2 COMMIT LATE MSHR PREFETCHES: 0
PSCL2 MPKI TOTAL: 0 MSHR LATE: 0 PQ LATE: 0 COMMIT LATE: 0 MISSED OPPORTUNITY: 0 UNCOVERED: 0
PSCL2 PREFETCHES SAME FILL-ORIGIN LEVEL: 0 DIFFERENT FILL-ORIGIN LEVEL: 0

LLC SPEC fills:          0  NON-SPEC fills:      22416
LLC Test counter :      50674
LLC Leapfrog:          0
LLC MSHR merge:          0
LLC TOTAL     ACCESS:     861196  HIT:     265480  MISS:     595716  HIT %:    30.8269  MISS %:    69.1731   MPKI: 2.97858
LLC LOAD      TOTAL       ACCESS:      34873  HIT:        139  MISS:      34734  HIT %:   0.398589  MISS %:    99.6014   MPKI: 0.17367
LLC LOAD      NON_SPEC    ACCESS:      22528  HIT:          6  MISS:      22522  HIT %:  0.0266335  MISS %:    99.9734   MPKI: 0.11261
LLC LOAD      SPEC        ACCESS:      12345  HIT:        133  MISS:      12212  HIT %:    1.07736  MISS %:    98.9226   MPKI: 0.06106
LLC RFO       NON_SPEC    ACCESS:      13051  HIT:          1  MISS:      13050  HIT %: 0.00766225  MISS %:    99.9923   MPKI: 0.06525
LLC PREFETCH  NON_SPEC    ACCESS:     537719  HIT:        111  MISS:     537608  HIT %:  0.0206428  MISS %:    99.9794   MPKI: 2.68804
LLC WRITEBACK NON_SPEC    ACCESS:     222854  HIT:     222454  MISS:        400  HIT %:    99.8205  MISS %:    0.17949   MPKI: 0.002
LLC CLEAN_EVICTION NON_SPEC    ACCESS:      50554  HIT:      42770  MISS:       7784  HIT %:    84.6026  MISS %:    15.3974   MPKI: 0.03892
LLC COMMIT LOAD NON_SPEC    ACCESS:          6  HIT:          0  MISS:          6  HIT %:          0  MISS %:        100   MPKI: 3e-05
LLC LOAD TRANSLATION NON_SPEC    ACCESS:       2133  HIT:          5  MISS:       2128  HIT %:   0.234412  MISS %:    99.7656   MPKI: 0.01064
LLC TRANSLATION FROM L1D PREFETCHER NON_SPEC    ACCESS:          6  HIT:          0  MISS:          6  HIT %:          0  MISS %:        100   MPKI: 3e-05
LLC PREFETCH  REQUESTED:          0  ISSUED:          0  USEFUL:          5  USELESS:     537325
LLC USEFUL LOAD PREFETCHES:          5 PREFETCH ISSUED TO LOWER LEVEL:     537608  ACCURACY: 0.000930046
LLC TIMELY PREFETCHES:          5 LATE PREFETCHES: 0 DROPPED PREFETCHES: 0
LLC COMMIT LATE PREFETCHES: 0 MISSED OPPORTUNITY: 0 LATE IN PQ: 0 UNCOVERED: 0
LLC COMMIT LATE MSHR PREFETCHES: 0
LLC MPKI TOTAL: 0.17367 MSHR LATE: 0 PQ LATE: 0 COMMIT LATE: 0 MISSED OPPORTUNITY: 0 UNCOVERED: 0
LLC PREFETCHES SAME FILL-ORIGIN LEVEL: 0 DIFFERENT FILL-ORIGIN LEVEL: 0
LLC AVERAGE MISS LATENCY: 217.231 cycles
LLC AVERAGE MISS LATENCY LOAD: 178.646 cycles
LLC AVERAGE MISS LATENCY PREFETCH: 224.178 cycles
LLC AVERAGE MSHR OCCUPANCY: 2.54978
LLC MSHR FULL: 0
LLC RQ	ACCESS:      50069	FORWARD:          0	MERGED:          0	TO_CACHE:      50069
LLC WQ	ACCESS:     273408	FORWARD:          0	MERGED:          0	TO_CACHE:     273408
LLC PQ	ACCESS:     537719	FORWARD:          0	MERGED:          0	TO_CACHE:     537719

LLC Dense regions hint to LLC: 0

RAW hits: 5673471
Loads Generated: 45770347
Loads sent to L1D: 40096876
Stores Generated: 21712374
Stores sent to L1D: 21712373
Major fault: 0 Minor fault: 7557
Allocated PAGES: 7557
Total Load insts: 49375644
Total Non-spec loads: 15238103
Percentage of speculative loads: 69.1384

LeapFrogging counter: 8679
Commit hits: 16282869 miss: 10407015
Commit hit %: 61.0076 miss %: 38.9924
Commits not translated: 0
Loads retired: 78623
Stores retired: 21712373
Cache fills: 78623
L1D response latency: 196.873 cycles
Load retirement latency: 267.655 cycles
OOO test counter: 0
Discarded buffer inserts: 16282869 hits: 875 hit %: 0.00537375

stream: 
stream:times selected: 9594652
stream:pref_filled: 566139
stream:pref_useful: 311398
stream:pref_late: 2803
stream:misses: 31627
stream:misses_by_poll: 0

CS: 
CS:times selected: 1274268
CS:pref_filled: 40190
CS:pref_useful: 21865
CS:pref_late: 12
CS:misses: 137085
CS:misses_by_poll: 19

CPLX: 
CPLX:times selected: 8320230
CPLX:pref_filled: 104540
CPLX:pref_useful: 56036
CPLX:pref_late: 83
CPLX:misses: 54614
CPLX:misses_by_poll: 52

NL_L1: 
NL:times selected: 1597
NL:pref_filled: 334
NL:pref_useful: 29
NL:pref_late: 131
NL:misses: 616
NL:misses_by_poll: 0

total selections: 19190747
total_filled: 489286
total_useful: 261048
total_late: 3715
total_polluted: 71
total_misses_after_warmup: 219205
conflicts: 523
Degree Incremented Times: 0
Degree Decremented Times: 1018

L1 IP Table Write Accesses: 67469660
L1 IP Table Read Accesses: 67469137
L1 RST Write Accesses: 7691875
L1 RST Read Accesses: 15383750
L1 CSPT Write Accesses: 7691875
L1 CSPT Read Accesses: 26280960
L1 RR Filter Tag Write Accesses: 7873204
L1 RR Filter Tag Read Accesses: 1233385021
L1 IP Table Tag Write Accesses: 67475718
L1 IP Table Tag Read Accesses: 67475718
L1 RST Tag Write Accesses: 0
L1 RST Tag Read Accesses: 74178878
L1 RR Filter Write Accesses: 0
L1 RR Filter Read Accesses: 58134950
test: 5367072

DRAM Statistics
 CHANNEL 0
 RQ ROW_BUFFER_HIT:     133943  ROW_BUFFER_MISS:     453589
 DBUS_CONGESTED:         32
 WQ ROW_BUFFER_HIT:      70771  ROW_BUFFER_MISS:     201021  FULL:          0

 AVG_CONGESTED_CYCLE: 4
 All warmup complete: 2
Channel 0 Bank busy for read cycles: 0
Channel 0 Bank busy for write cycles: 0
Channel 0
Rank 0
0banks busy for read cycles: 269595556
0banks busy for write cycles: 80356
1banks busy for read cycles: 25442244
1banks busy for write cycles: 12243121
2banks busy for read cycles: 3358132
2banks busy for write cycles: 635042
3banks busy for read cycles: 2262386
3banks busy for write cycles: 318195
4banks busy for read cycles: 1152898
4banks busy for write cycles: 299458
5banks busy for read cycles: 676138
5banks busy for write cycles: 178031
6banks busy for read cycles: 1062576
6banks busy for write cycles: 210736
7banks busy for read cycles: 1239073
7banks busy for write cycles: 461373
8banks busy for read cycles: 1944529
8banks busy for write cycles: 3516003

CPU 0 Branch Prediction Accuracy: 99.9797% MPKI: 0.020805 Average ROB Occupancy at Mispredict: 60.478
Branch types
NOT_BRANCH: 179514591 89.7573%
BRANCH_DIRECT_JUMP: 1424895 0.712448%
BRANCH_INDIRECT: 16 8e-06%
BRANCH_CONDITIONAL: 13360262 6.68013%
BRANCH_DIRECT_CALL: 2849960 1.42498%
BRANCH_INDIRECT_CALL: 0 0%
BRANCH_RETURN: 2849960 1.42498%
BRANCH_OTHER: 0 0%

DRAM PAGES: 1048576
Allocated PAGES: 7557
