Initialize SIGNATURE TABLE
ST_SET: 1
ST_WAY: 256
ST_TAG_BIT: 16
ST_TAG_MASK: ffff

Initialize PATTERN TABLE
PT_SET: 512
PT_WAY: 4
SIG_DELTA_BIT: 7
C_SIG_BIT: 4
C_DELTA_BIT: 4

Initialize PREFETCH FILTER
FILTER_SET: 1024

Initialize PERCEPTRON
PERC_ENTRIES: 4096
PERC_FEATURES: 9
Initialize SIGNATURE TABLE
ST_SET: 1
ST_WAY: 256
ST_TAG_BIT: 16
ST_TAG_MASK: ffff

Initialize PATTERN TABLE
PT_SET: 512
PT_WAY: 4
SIG_DELTA_BIT: 7
C_SIG_BIT: 4
C_DELTA_BIT: 4

Initialize PREFETCH FILTER
FILTER_SET: 1024

Initialize PERCEPTRON
PERC_ENTRIES: 4096
PERC_FEATURES: 9

*** ChampSim Multicore Out-of-Order Simulator ***

Warmup Instructions: 50000000
Simulation Instructions: 200000000
Number of CPUs: 1
LLC sets: 2048
LLC ways: 16
L0D sets: 16
L0D ways: 2
ROB size: 352
LQ size: 128
SQ size: 72
Secure Berti: OFF
Berti: OFF
Berti Fill: OFF
On commit prefetching: ON
Hit-based filter: OFF
Time-guarding: ON
Free-slotting: ON
Leap-frogging: ON
Train prefetcher on L0D bypass: OFF
No translation penalty for prefetchers: OFF
Prefetch to L0D only: OFF
Prefetch to L1D only: OFF
Clean evictions: ON
Commit loads: ON
Commit write: ON
Fill commit loads to L2C, LLC: ON
DRAM IO FREQUENCY: 6400
ROB SIZE: 352
Off-chip DRAM Size: 4096 MB Channels: 1 Width: 64-bit Data Rate: 6400 MT/s
CPU 0 runs /home/sumon/secure_berti/GhostMinion/../../traces/spec/602.gcc_s-1850B.champsimtrace.xz
.xz
BTB has LRU replacement policy
ITLB has LRU replacement policy
DTLB has LRU replacement policy
STLB has LRU replacement policy
L1I has LRU replacement policy
L0D has LRU replacement policy
PERC_ENTRIES: 4096
L1D has LRU replacement policy
PERC_ENTRIES: 4096
L2C has LRU replacement policy
LLC has LRU replacement policy
Heartbeat CPU 0 instructions: 10000002 cycles: 5283995 heartbeat IPC: 1.89251 cumulative IPC: 1.89251 (Simulation time: 0 hr 1 min 55 sec) 
Heartbeat CPU 0 instructions: 20000000 cycles: 10568155 heartbeat IPC: 1.89245 cumulative IPC: 1.89248 (Simulation time: 0 hr 4 min 1 sec) 
Heartbeat CPU 0 instructions: 30000000 cycles: 15847918 heartbeat IPC: 1.89402 cumulative IPC: 1.89299 (Simulation time: 0 hr 6 min 14 sec) 
Heartbeat CPU 0 instructions: 40000000 cycles: 21128867 heartbeat IPC: 1.8936 cumulative IPC: 1.89314 (Simulation time: 0 hr 8 min 30 sec) 
Heartbeat CPU 0 instructions: 50000000 cycles: 26412359 heartbeat IPC: 1.89269 cumulative IPC: 1.89305 (Simulation time: 0 hr 10 min 47 sec) 

Warmup complete CPU 0 instructions: 50000004 cycles: 26412360 (Simulation time: 0 hr 10 min 47 sec) 

Heartbeat CPU 0 instructions: 60000003 cycles: 51472127 heartbeat IPC: 0.399046 cumulative IPC: 0.399046 (Simulation time: 0 hr 14 min 11 sec) 
Heartbeat CPU 0 instructions: 70000002 cycles: 76570840 heartbeat IPC: 0.398427 cumulative IPC: 0.398736 (Simulation time: 0 hr 17 min 38 sec) 
Heartbeat CPU 0 instructions: 80000003 cycles: 101626616 heartbeat IPC: 0.39911 cumulative IPC: 0.398861 (Simulation time: 0 hr 21 min 4 sec) 
Heartbeat CPU 0 instructions: 90000001 cycles: 126651765 heartbeat IPC: 0.399598 cumulative IPC: 0.399045 (Simulation time: 0 hr 24 min 34 sec) 
Heartbeat CPU 0 instructions: 100000002 cycles: 151635704 heartbeat IPC: 0.400257 cumulative IPC: 0.399287 (Simulation time: 0 hr 28 min 3 sec) 
Heartbeat CPU 0 instructions: 110000000 cycles: 176789437 heartbeat IPC: 0.397555 cumulative IPC: 0.398997 (Simulation time: 0 hr 31 min 34 sec) 
Heartbeat CPU 0 instructions: 120000003 cycles: 201968388 heartbeat IPC: 0.397157 cumulative IPC: 0.398733 (Simulation time: 0 hr 35 min 4 sec) 
Heartbeat CPU 0 instructions: 130000003 cycles: 227059314 heartbeat IPC: 0.39855 cumulative IPC: 0.39871 (Simulation time: 0 hr 38 min 33 sec) 
Heartbeat CPU 0 instructions: 140000000 cycles: 252080852 heartbeat IPC: 0.399656 cumulative IPC: 0.398815 (Simulation time: 0 hr 42 min 2 sec) 
Heartbeat CPU 0 instructions: 150000000 cycles: 277111259 heartbeat IPC: 0.399514 cumulative IPC: 0.398885 (Simulation time: 0 hr 45 min 32 sec) 
Heartbeat CPU 0 instructions: 160000000 cycles: 302247415 heartbeat IPC: 0.397833 cumulative IPC: 0.398789 (Simulation time: 0 hr 48 min 59 sec) 
Heartbeat CPU 0 instructions: 170000003 cycles: 327402913 heartbeat IPC: 0.397528 cumulative IPC: 0.398684 (Simulation time: 0 hr 52 min 20 sec) 
Heartbeat CPU 0 instructions: 180000000 cycles: 352451663 heartbeat IPC: 0.399221 cumulative IPC: 0.398725 (Simulation time: 0 hr 55 min 30 sec) 
Heartbeat CPU 0 instructions: 190000003 cycles: 377679698 heartbeat IPC: 0.396385 cumulative IPC: 0.398557 (Simulation time: 0 hr 58 min 29 sec) 
Heartbeat CPU 0 instructions: 200000000 cycles: 402738555 heartbeat IPC: 0.39906 cumulative IPC: 0.39859 (Simulation time: 1 hr 1 min 17 sec) 
Heartbeat CPU 0 instructions: 210000002 cycles: 427853656 heartbeat IPC: 0.398167 cumulative IPC: 0.398564 (Simulation time: 1 hr 4 min 5 sec) 
Heartbeat CPU 0 instructions: 220000000 cycles: 453044992 heartbeat IPC: 0.396962 cumulative IPC: 0.398469 (Simulation time: 1 hr 6 min 53 sec) 
Heartbeat CPU 0 instructions: 230000003 cycles: 478174050 heartbeat IPC: 0.397946 cumulative IPC: 0.39844 (Simulation time: 1 hr 9 min 42 sec) 
Heartbeat CPU 0 instructions: 240000000 cycles: 503249575 heartbeat IPC: 0.398795 cumulative IPC: 0.398459 (Simulation time: 1 hr 12 min 29 sec) 
Heartbeat CPU 0 instructions: 250000000 cycles: 528457105 heartbeat IPC: 0.396707 cumulative IPC: 0.398371 (Simulation time: 1 hr 15 min 16 sec) 
Finished CPU 0 instructions: 200000000 cycles: 502044746 cumulative IPC: 0.398371 (Simulation time: 1 hr 15 min 16 sec) 
 Instruction ID: 250000378

ChampSim completed all CPUs

Region of Interest Statistics

CPU 0 cumulative IPC: 0.398371 instructions: 200000000 cycles: 502044746
ITLB SPEC fills:          0  NON-SPEC fills:          0
ITLB Test counter :          0
ITLB Leapfrog:          0
ITLB MSHR merge:          0
ITLB TOTAL     ACCESS:   44592120  HIT:   44592120  MISS:          0  HIT %:        100  MISS %:          0   MPKI: 0
ITLB LOAD TRANSLATION NON_SPEC    ACCESS:   44592120  HIT:   44592120  MISS:          0  HIT %:        100  MISS %:          0   MPKI: 0
ITLB PREFETCH  REQUESTED:          0  ISSUED:          0  USEFUL:          0  USELESS:          0
ITLB USEFUL LOAD PREFETCHES:          0 PREFETCH ISSUED TO LOWER LEVEL:          0  ACCURACY: -nan
ITLB TIMELY PREFETCHES:          0 LATE PREFETCHES: 0 DROPPED PREFETCHES: 0
ITLB COMMIT LATE PREFETCHES: 0 NORMAL LATE: 0 MISSED OPPORTUNITY: 0 UNCOVERED: 0
ITLB PREFETCHES SAME FILL-ORIGIN LEVEL: 0 DIFFERENT FILL-ORIGIN LEVEL: 0
ITLB AVERAGE MISS LATENCY: -nan cycles
ITLB AVERAGE MISS LATENCY LOAD: -nan cycles
ITLB AVERAGE MISS LATENCY PREFETCH: -nan cycles
ITLB AVERAGE MSHR OCCUPANCY: 0
ITLB MSHR FULL: 0
ITLB RQ	ACCESS:   48320857	FORWARD:          0	MERGED:    3728737	TO_CACHE:   44592120

DTLB SPEC fills:          0  NON-SPEC fills:          0
DTLB Test counter :          0
DTLB Leapfrog:          0
DTLB MSHR merge:          0
DTLB TOTAL     ACCESS:   56549183  HIT:   56483037  MISS:      66146  HIT %:     99.883  MISS %:   0.116971   MPKI: 0.33073
DTLB LOAD TRANSLATION NON_SPEC    ACCESS:   56549183  HIT:   56483037  MISS:      66146  HIT %:     99.883  MISS %:   0.116971   MPKI: 0.33073
DTLB PREFETCH  REQUESTED:          0  ISSUED:          0  USEFUL:          0  USELESS:          0
DTLB USEFUL LOAD PREFETCHES:          0 PREFETCH ISSUED TO LOWER LEVEL:          0  ACCURACY: -nan
DTLB TIMELY PREFETCHES:          0 LATE PREFETCHES: 0 DROPPED PREFETCHES: 0
DTLB COMMIT LATE PREFETCHES: 0 NORMAL LATE: 0 MISSED OPPORTUNITY: 0 UNCOVERED: 0
DTLB PREFETCHES SAME FILL-ORIGIN LEVEL: 0 DIFFERENT FILL-ORIGIN LEVEL: 0
DTLB AVERAGE MISS LATENCY: 184.643 cycles
DTLB AVERAGE MISS LATENCY LOAD: -nan cycles
DTLB AVERAGE MISS LATENCY PREFETCH: -nan cycles
DTLB AVERAGE MSHR OCCUPANCY: 0.0024598
DTLB MSHR FULL: 0
DTLB RQ	ACCESS:   59850162	FORWARD:          0	MERGED:    3298104	TO_CACHE:   56552058

STLB SPEC fills:          0  NON-SPEC fills:          0
STLB Test counter :          0
STLB Leapfrog:          0
STLB MSHR merge:          0
STLB TOTAL     ACCESS:      66146  HIT:       5075  MISS:      61071  HIT %:    7.67242  MISS %:    92.3276   MPKI: 0.305355
STLB LOAD TRANSLATION NON_SPEC    ACCESS:      66146  HIT:       5075  MISS:      61071  HIT %:    7.67242  MISS %:    92.3276   MPKI: 0.305355
STLB PREFETCH  REQUESTED:          0  ISSUED:          0  USEFUL:          0  USELESS:          0
STLB USEFUL LOAD PREFETCHES:          0 PREFETCH ISSUED TO LOWER LEVEL:          0  ACCURACY: -nan
STLB TIMELY PREFETCHES:          0 LATE PREFETCHES: 0 DROPPED PREFETCHES: 0
STLB COMMIT LATE PREFETCHES: 0 NORMAL LATE: 0 MISSED OPPORTUNITY: 0 UNCOVERED: 0
STLB PREFETCHES SAME FILL-ORIGIN LEVEL: 0 DIFFERENT FILL-ORIGIN LEVEL: 0
STLB AVERAGE MISS LATENCY: 190.238 cycles
STLB AVERAGE MISS LATENCY LOAD: -nan cycles
STLB AVERAGE MISS LATENCY PREFETCH: -nan cycles
STLB AVERAGE MSHR OCCUPANCY: 0.00117921
STLB MSHR FULL: 0
STLB RQ	ACCESS:      66146	FORWARD:          0	MERGED:          0	TO_CACHE:      66146

STLB Hit, L1D data hit: 0
STLB Hit, L2C data hit: 0
STLB Hit, LLC data hit: 0
STLB Hit, LLC data miss: 0
STLB STLB hints to L2: 0
L0D SPEC fills:   18203370  NON-SPEC fills:          0
L0D TimeGuard Request with older TS:     215568 Restricted eviction:      19213 read:     864893
L0D Test counter :          0
L0D Leapfrog:          0
L0D MSHR merge:    2586715
L0D TOTAL     ACCESS:   37852436  HIT:    5587848  MISS:   32264588  HIT %:    14.7622  MISS %:    85.2378   MPKI: 161.323
L0D LOAD      TOTAL       ACCESS:   37852436  HIT:    5587848  MISS:   32264588  HIT %:    14.7622  MISS %:    85.2378   MPKI: 161.323
L0D LOAD      NON_SPEC    ACCESS:   14164016  HIT:     122011  MISS:   14042005  HIT %:   0.861415  MISS %:    99.1386   MPKI: 70.21
L0D LOAD      SPEC        ACCESS:   23688420  HIT:    5465837  MISS:   18222583  HIT %:    23.0739  MISS %:    76.9261   MPKI: 91.1129
L0D PREFETCH  REQUESTED:          0  ISSUED:          0  USEFUL:          0  USELESS:          0
L0D USEFUL LOAD PREFETCHES:          0 PREFETCH ISSUED TO LOWER LEVEL:          0  ACCURACY: -nan
L0D TIMELY PREFETCHES:          0 LATE PREFETCHES: 0 DROPPED PREFETCHES: 0
L0D COMMIT LATE PREFETCHES: 0 NORMAL LATE: 0 MISSED OPPORTUNITY: 0 UNCOVERED: 0
L0D PREFETCHES SAME FILL-ORIGIN LEVEL: 0 DIFFERENT FILL-ORIGIN LEVEL: 0
L0D AVERAGE MISS LATENCY: 9.74877 cycles
L0D AVERAGE MISS LATENCY LOAD: 9.74877 cycles
L0D AVERAGE MISS LATENCY PREFETCH: -nan cycles
L0D AVERAGE MSHR OCCUPANCY: 0.693541
L0D MSHR FULL: 0
L0D RQ	ACCESS:   55589686	FORWARD:          0	MERGED:   15150537	TO_CACHE:   40439149
L0D WQ	ACCESS:   19411013	FORWARD:          0	MERGED:          0	TO_CACHE:   19411013

L1D SPEC fills:          0  NON-SPEC fills:    1107322
L1D Test counter :          0
L1D Leapfrog:          0
L1D MSHR merge:        972
L1D TOTAL     ACCESS:   81221717  HIT:   72574083  MISS:    8647634  HIT %:    89.3531  MISS %:    10.6469   MPKI: 43.2382
L1D LOAD      TOTAL       ACCESS:   32263616  HIT:   27316586  MISS:    4947030  HIT %:    84.6668  MISS %:    15.3332   MPKI: 24.7352
L1D LOAD      NON_SPEC    ACCESS:   14041935  HIT:   12934613  MISS:    1107322  HIT %:    92.1142  MISS %:    7.88582   MPKI: 5.53661
L1D LOAD      SPEC        ACCESS:   18221681  HIT:   14381973  MISS:    3839708  HIT %:    78.9278  MISS %:    21.0722   MPKI: 19.1985
L1D RFO       NON_SPEC    ACCESS:   19408704  HIT:   19407101  MISS:       1603  HIT %:    99.9917  MISS %: 0.00825918   MPKI: 0.008015
L1D COMMIT LOAD NON_SPEC    ACCESS:   11461375  HIT:   11455025  MISS:       6350  HIT %:    99.9446  MISS %:  0.0554035   MPKI: 0.03175
L1D COMMIT WRITE NON_SPEC    ACCESS:   18088022  HIT:   14395371  MISS:    3692651  HIT %:    79.5851  MISS %:    20.4149   MPKI: 18.4633
L1D PREFETCH  REQUESTED:          0  ISSUED:          0  USEFUL:          0  USELESS:          0
L1D USEFUL LOAD PREFETCHES:          0 PREFETCH ISSUED TO LOWER LEVEL:          0  ACCURACY: -nan
L1D TIMELY PREFETCHES:          0 LATE PREFETCHES: 0 DROPPED PREFETCHES: 0
L1D COMMIT LATE PREFETCHES: 0 NORMAL LATE: 0 MISSED OPPORTUNITY: 0 UNCOVERED: 4947554
L1D PREFETCHES SAME FILL-ORIGIN LEVEL: 0 DIFFERENT FILL-ORIGIN LEVEL: 0
L1D AVERAGE MISS LATENCY: 17.6969 cycles
L1D AVERAGE MISS LATENCY LOAD: 30.8823 cycles
L1D AVERAGE MISS LATENCY PREFETCH: -nan cycles
L1D AVERAGE MSHR OCCUPANCY: 0.074061
L1D MSHR FULL: 0
L1D RQ	ACCESS:   55561156	FORWARD:          0	MERGED:    9477893	TO_CACHE:   43726518
L1D WQ	ACCESS:   37517454	FORWARD:    2356745	MERGED:      20718	TO_CACHE:   37496736

L1D UNIQUE REGIONS ACCESSED: 0
L1D REGIONS CONFLICTS: 0
L1D Cross Page Prefetch Requests: 0
L1D Same Page Prefetch Requests: 0
L1D ROI Sum of L1D PQ occupancy: 0
L1D PREFETCHES PUSHED FROM L2C: 0
L1I SPEC fills:          0  NON-SPEC fills:          0
L1I Test counter :          0
L1I Leapfrog:          0
L1I MSHR merge:          0
L1I TOTAL     ACCESS:   48320856  HIT:   48320856  MISS:          0  HIT %:        100  MISS %:          0   MPKI: 0
L1I LOAD      TOTAL       ACCESS:   48320856  HIT:   48320856  MISS:          0  HIT %:        100  MISS %:          0   MPKI: 0
L1I LOAD      NON_SPEC    ACCESS:   48320856  HIT:   48320856  MISS:          0  HIT %:        100  MISS %:          0   MPKI: 0
L1I PREFETCH  REQUESTED:          0  ISSUED:          0  USEFUL:          0  USELESS:          0
L1I USEFUL LOAD PREFETCHES:          0 PREFETCH ISSUED TO LOWER LEVEL:          0  ACCURACY: -nan
L1I TIMELY PREFETCHES:          0 LATE PREFETCHES: 0 DROPPED PREFETCHES: 0
L1I COMMIT LATE PREFETCHES: 0 NORMAL LATE: 0 MISSED OPPORTUNITY: 0 UNCOVERED: 0
L1I PREFETCHES SAME FILL-ORIGIN LEVEL: 0 DIFFERENT FILL-ORIGIN LEVEL: 0
L1I AVERAGE MISS LATENCY: -nan cycles
L1I AVERAGE MISS LATENCY LOAD: -nan cycles
L1I AVERAGE MISS LATENCY PREFETCH: -nan cycles
L1I AVERAGE MSHR OCCUPANCY: 0
L1I MSHR FULL: 0
L1I RQ	ACCESS:   76388440	FORWARD:          0	MERGED:   28067583	TO_CACHE:   48320857

BTB SPEC fills:          0  NON-SPEC fills:          0
BTB Test counter :          0
BTB Leapfrog:          0
BTB MSHR merge:          0
BTB TOTAL     ACCESS:   32765954  HIT:   32765925  MISS:         29  HIT %:    99.9999  MISS %: 8.85065e-05   MPKI: 0.000145
BTB BRANCH_DIRECT_JUMP	ACCESS:    4318196  HIT:    4318187  MISS:          9
BTB BRANCH_INDIRECT	ACCESS:          0  HIT:          0  MISS:          0
BTB BRANCH_CONDITIONAL	ACCESS:   24127035  HIT:   24127021  MISS:         14
BTB BRANCH_DIRECT_CALL	ACCESS:    2160361  HIT:    2160358  MISS:          3
BTB BRANCH_INDIRECT_CALL	ACCESS:          0  HIT:          0  MISS:          0
BTB BRANCH_RETURN	ACCESS:    2160362  HIT:    2160359  MISS:          3
BTB BRANCH_OTHER ACCESS:          0  HIT:          0  MISS:          0

L2C SPEC fills:          0  NON-SPEC fills:     524976
L2C Test counter :          0
L2C Leapfrog:          0
L2C MSHR merge:     983602
L2C TOTAL     ACCESS:   14752849  HIT:   10559512  MISS:    4193337  HIT %:    71.5761  MISS %:    28.4239   MPKI: 20.9667
L2C LOAD      TOTAL       ACCESS:    4946842  HIT:    3829456  MISS:    1117386  HIT %:    77.4121  MISS %:    22.5879   MPKI: 5.58693
L2C LOAD      NON_SPEC    ACCESS:    1107321  HIT:     582345  MISS:     524976  HIT %:    52.5904  MISS %:    47.4096   MPKI: 2.62488
L2C LOAD      SPEC        ACCESS:    3839521  HIT:    3247111  MISS:     592410  HIT %:    84.5707  MISS %:    15.4293   MPKI: 2.96205
L2C RFO       NON_SPEC    ACCESS:       1603  HIT:       1082  MISS:        521  HIT %:    67.4984  MISS %:    32.5016   MPKI: 0.002605
L2C PREFETCH  NON_SPEC    ACCESS:    5063269  HIT:    2519673  MISS:    2543596  HIT %:    49.7638  MISS %:    50.2362   MPKI: 12.718
L2C WRITEBACK NON_SPEC    ACCESS:       3171  HIT:       3171  MISS:          0  HIT %:        100  MISS %:          0   MPKI: 0
L2C CLEAN_EVICTION NON_SPEC    ACCESS:    4426668  HIT:    3907353  MISS:     519315  HIT %:    88.2685  MISS %:    11.7315   MPKI: 2.59658
L2C COMMIT LOAD NON_SPEC    ACCESS:       6347  HIT:       5322  MISS:       1025  HIT %:    83.8506  MISS %:    16.1494   MPKI: 0.005125
L2C LOAD TRANSLATION NON_SPEC    ACCESS:     304949  HIT:     293455  MISS:      11494  HIT %:    96.2308  MISS %:    3.76915   MPKI: 0.05747
L2C PREFETCH  REQUESTED:    6387144  ISSUED:    6387144  USEFUL:    2440693  USELESS:     102940
L2C USEFUL LOAD PREFETCHES:    2440693 PREFETCH ISSUED TO LOWER LEVEL:    3531148  ACCURACY: 69.119
L2C TIMELY PREFETCHES:    2440693 LATE PREFETCHES: 983667 DROPPED PREFETCHES: 0
L2C COMMIT LATE PREFETCHES: 1335 NORMAL LATE: 983710 MISSED OPPORTUNITY: 673 UNCOVERED: 131733
L2C PREFETCHES SAME FILL-ORIGIN LEVEL: 3527264 DIFFERENT FILL-ORIGIN LEVEL: 3884
L2C AVERAGE MISS LATENCY: 140.262 cycles
L2C AVERAGE MISS LATENCY LOAD: 92.8445 cycles
L2C AVERAGE MISS LATENCY PREFETCH: 189.532 cycles
L2C AVERAGE MSHR OCCUPANCY: 1.33196
L2C MSHR FULL: 0
L2C RQ	ACCESS:    5259932	FORWARD:          0	MERGED:          0	TO_CACHE:    5259741
L2C WQ	ACCESS:    4429840	FORWARD:        200	MERGED:          1	TO_CACHE:    4429839
L2C PQ	ACCESS:    6387144	FORWARD:          0	MERGED:     302994	TO_CACHE:    6084141

L2C Instructions Evicting Data 0
L2C Translations Evicting Data 11467
L2C Data Evicting Data 3060298
L2C Instructions Evicting Instructions 0
L2C Translations Evicting Instructions 0
L2C Data Evicting Instructions 0
L2C Instructions Evicting Translations 0
L2C Translations Evicting Translations 27
L2C Data Evicting Translations 9820
L2C Dense regions hint from L2: 0
PSCL5 SPEC fills:          0  NON-SPEC fills:          0
PSCL5 Test counter :          0
PSCL5 Leapfrog:          0
PSCL5 MSHR merge:          0
PSCL5 TOTAL     ACCESS:          0  HIT:          0  MISS:          0  HIT %:       -nan  MISS %:       -nan   MPKI: 0
PSCL5 PREFETCH  REQUESTED:          0  ISSUED:          0  USEFUL:          0  USELESS:          0
PSCL5 USEFUL LOAD PREFETCHES:          0 PREFETCH ISSUED TO LOWER LEVEL:          0  ACCURACY: -nan
PSCL5 TIMELY PREFETCHES:          0 LATE PREFETCHES: 0 DROPPED PREFETCHES: 0
PSCL5 COMMIT LATE PREFETCHES: 0 NORMAL LATE: 0 MISSED OPPORTUNITY: 0 UNCOVERED: 0
PSCL5 PREFETCHES SAME FILL-ORIGIN LEVEL: 0 DIFFERENT FILL-ORIGIN LEVEL: 0

PSCL4 SPEC fills:          0  NON-SPEC fills:          0
PSCL4 Test counter :          0
PSCL4 Leapfrog:          0
PSCL4 MSHR merge:          0
PSCL4 TOTAL     ACCESS:          0  HIT:          0  MISS:          0  HIT %:       -nan  MISS %:       -nan   MPKI: 0
PSCL4 PREFETCH  REQUESTED:          0  ISSUED:          0  USEFUL:          0  USELESS:          0
PSCL4 USEFUL LOAD PREFETCHES:          0 PREFETCH ISSUED TO LOWER LEVEL:          0  ACCURACY: -nan
PSCL4 TIMELY PREFETCHES:          0 LATE PREFETCHES: 0 DROPPED PREFETCHES: 0
PSCL4 COMMIT LATE PREFETCHES: 0 NORMAL LATE: 0 MISSED OPPORTUNITY: 0 UNCOVERED: 0
PSCL4 PREFETCHES SAME FILL-ORIGIN LEVEL: 0 DIFFERENT FILL-ORIGIN LEVEL: 0

PSCL3 SPEC fills:          0  NON-SPEC fills:          0
PSCL3 Test counter :          0
PSCL3 Leapfrog:          0
PSCL3 MSHR merge:          0
PSCL3 TOTAL     ACCESS:          0  HIT:          0  MISS:          0  HIT %:       -nan  MISS %:       -nan   MPKI: 0
PSCL3 PREFETCH  REQUESTED:          0  ISSUED:          0  USEFUL:          0  USELESS:          0
PSCL3 USEFUL LOAD PREFETCHES:          0 PREFETCH ISSUED TO LOWER LEVEL:          0  ACCURACY: -nan
PSCL3 TIMELY PREFETCHES:          0 LATE PREFETCHES: 0 DROPPED PREFETCHES: 0
PSCL3 COMMIT LATE PREFETCHES: 0 NORMAL LATE: 0 MISSED OPPORTUNITY: 0 UNCOVERED: 0
PSCL3 PREFETCHES SAME FILL-ORIGIN LEVEL: 0 DIFFERENT FILL-ORIGIN LEVEL: 0

PSCL2 SPEC fills:          0  NON-SPEC fills:          0
PSCL2 Test counter :          0
PSCL2 Leapfrog:          0
PSCL2 MSHR merge:          0
PSCL2 TOTAL     ACCESS:          0  HIT:          0  MISS:          0  HIT %:       -nan  MISS %:       -nan   MPKI: 0
PSCL2 PREFETCH  REQUESTED:          0  ISSUED:          0  USEFUL:          0  USELESS:          0
PSCL2 USEFUL LOAD PREFETCHES:          0 PREFETCH ISSUED TO LOWER LEVEL:          0  ACCURACY: -nan
PSCL2 TIMELY PREFETCHES:          0 LATE PREFETCHES: 0 DROPPED PREFETCHES: 0
PSCL2 COMMIT LATE PREFETCHES: 0 NORMAL LATE: 0 MISSED OPPORTUNITY: 0 UNCOVERED: 0
PSCL2 PREFETCHES SAME FILL-ORIGIN LEVEL: 0 DIFFERENT FILL-ORIGIN LEVEL: 0

LLC SPEC fills:          0  NON-SPEC fills:      41002
LLC Test counter :          0
LLC Leapfrog:          0
LLC MSHR merge:          0
LLC TOTAL     ACCESS:    6867787  HIT:    3180120  MISS:    3687667  HIT %:    46.3049  MISS %:    53.6951   MPKI: 18.4383
LLC LOAD      TOTAL       ACCESS:     133784  HIT:       4062  MISS:     129722  HIT %:    3.03624  MISS %:    96.9638   MPKI: 0.64861
LLC LOAD      NON_SPEC    ACCESS:      42299  HIT:       1297  MISS:      41002  HIT %:    3.06627  MISS %:    96.9337   MPKI: 0.20501
LLC LOAD      SPEC        ACCESS:      91485  HIT:       2765  MISS:      88720  HIT %:    3.02235  MISS %:    96.9776   MPKI: 0.4436
LLC RFO       NON_SPEC    ACCESS:        521  HIT:          8  MISS:        513  HIT %:    1.53551  MISS %:    98.4645   MPKI: 0.002565
LLC PREFETCH  NON_SPEC    ACCESS:    3531141  HIT:      11625  MISS:    3519516  HIT %:   0.329214  MISS %:    99.6708   MPKI: 17.5976
LLC WRITEBACK NON_SPEC    ACCESS:       1602  HIT:       1602  MISS:          0  HIT %:        100  MISS %:          0   MPKI: 0
LLC CLEAN_EVICTION NON_SPEC    ACCESS:    3188285  HIT:    3160956  MISS:      27329  HIT %:    99.1428  MISS %:   0.857169   MPKI: 0.136645
LLC COMMIT LOAD NON_SPEC    ACCESS:        960  HIT:        948  MISS:         12  HIT %:      98.75  MISS %:       1.25   MPKI: 6e-05
LLC LOAD TRANSLATION NON_SPEC    ACCESS:      11494  HIT:        919  MISS:      10575  HIT %:    7.99548  MISS %:    92.0045   MPKI: 0.052875
LLC PREFETCH  REQUESTED:          0  ISSUED:          0  USEFUL:       4142  USELESS:    3515599
LLC USEFUL LOAD PREFETCHES:       4142 PREFETCH ISSUED TO LOWER LEVEL:    3519518  ACCURACY: 0.117687
LLC TIMELY PREFETCHES:       4142 LATE PREFETCHES: 1 DROPPED PREFETCHES: 0
LLC COMMIT LATE PREFETCHES: 0 NORMAL LATE: 0 MISSED OPPORTUNITY: 0 UNCOVERED: 0
LLC PREFETCHES SAME FILL-ORIGIN LEVEL: 2998 DIFFERENT FILL-ORIGIN LEVEL: 0
LLC AVERAGE MISS LATENCY: 161.017 cycles
LLC AVERAGE MISS LATENCY LOAD: 154.188 cycles
LLC AVERAGE MISS LATENCY PREFETCH: 162.476 cycles
LLC AVERAGE MSHR OCCUPANCY: 0.469007
LLC MSHR FULL: 0
LLC RQ	ACCESS:     146759	FORWARD:          0	MERGED:          0	TO_CACHE:     146759
LLC WQ	ACCESS:    3189887	FORWARD:          0	MERGED:          0	TO_CACHE:    3189887
LLC PQ	ACCESS:    3531148	FORWARD:          0	MERGED:          0	TO_CACHE:    3531148

LLC Dense regions hint to LLC: 0

RAW hits: 6421
Loads Generated: 55596107
Loads sent to L1D: 55589686
Stores Generated: 19411013
Stores sent to L1D: 19411013
Major fault: 0 Minor fault: 76297
Allocated PAGES: 76297
Total Load insts: 69472900
Total Non-spec loads: 16783951
Percentage of speculative loads: 75.841

LeapFrogging counter: 0
Commit hits: 18106441 miss: 23296568
Commit hit %: 43.7322 miss %: 56.2678
Commits not translated: 0
Loads retired: 4947030
Stores retired: 19411013
Cache fills: 4947030
L1D response latency: 30.8823 cycles
Load retirement latency: 60.8037 cycles
OOO test counter: 0
Discarded buffer inserts: 18106441 hits: 83515 hit %: 0.461245
Filter prediction accuracy: -nan
------------------
Depth Distribution
------------------
depth 0: 123056
depth 1: 150575
depth 2: 288085
depth 3: 530394
depth 4: 409254
depth 5: 1200153
depth 6: 3080796
depth 7: 381289
depth 8: 2553
depth 9: 1181
depth 10: 107
depth 11: 85
depth 12: 15
depth 13: 5
depth 14: 6
depth 15: 1
depth 16: 2
depth 17: 0
depth 18: 2
depth 19: 2
depth 20: 0
depth 21: 2
depth 22: 0
depth 23: 0
depth 24: 3
depth 25: 0
depth 26: 0
depth 27: 1
depth 28: 0
depth 29: 0
Total: 6167567
------------------
ST read accesses: 4885769
ST write accesses: 61073
PT read accesses: 150110814
PT write accesses: 7036143
FILTER read accesses: 59080660
FILTER write accesses: 64648528
GHR read accesses: 10879351
GHR write accesses: 1646351
PERC read accesses: 1093235472
PERC write accesses: 72165365
GHR counter read accesses: 9893684
GHR counter write accesses: 16565497
GHR ip read accesses: 35932053
GHR ip write accesses: 19787368
ST tag read accesses: 1814909291
ST tag write accesses: 28881645
------------------
Depth Distribution
------------------
depth 0: 48215819
depth 1: 64703
depth 2: 60397
depth 3: 254580
depth 4: 878390
depth 5: 768771
depth 6: 1869472
depth 7: 6350146
depth 8: 6659679
depth 9: 3811712
depth 10: 532530
depth 11: 25416
depth 12: 1107
depth 13: 84
depth 14: 4
depth 15: 0
depth 16: 0
depth 17: 0
depth 18: 0
depth 19: 0
depth 20: 0
depth 21: 0
depth 22: 0
depth 23: 0
depth 24: 0
depth 25: 0
depth 26: 0
depth 27: 0
depth 28: 0
depth 29: 0
Total: 69492810
------------------
ST read accesses: 55535035
ST write accesses: 61073
PT read accesses: 872376337
PT write accesses: 25499962
FILTER read accesses: 235766591
FILTER write accesses: 18612596
GHR read accesses: 21104597
GHR write accesses: 3470009
PERC read accesses: 6510086244
PERC write accesses: 51901770
GHR counter read accesses: 111192216
GHR counter write accesses: 67230114
GHR ip read accesses: 186018273
GHR ip write accesses: 222384432
ST tag read accesses: 18501119871
ST tag write accesses: 112255454

DRAM Statistics
 CHANNEL 0
 RQ ROW_BUFFER_HIT:     298448  ROW_BUFFER_MISS:    3361890
 DBUS_CONGESTED:       7711
 WQ ROW_BUFFER_HIT:    1065784  ROW_BUFFER_MISS:    2125875  FULL:          0

 AVG_CONGESTED_CYCLE: 3
 All warmup complete: 2
Channel 0 Bank busy for read cycles: 0
Channel 0 Bank busy for write cycles: 0
Channel 0
Rank 0
0banks busy for read cycles: 26096801
0banks busy for write cycles: 195259
1banks busy for read cycles: 206168108
1banks busy for write cycles: 23842270
2banks busy for read cycles: 80346709
2banks busy for write cycles: 19220352
3banks busy for read cycles: 43715039
3banks busy for write cycles: 13458135
4banks busy for read cycles: 4240217
4banks busy for write cycles: 11286572
5banks busy for read cycles: 761647
5banks busy for write cycles: 10236612
6banks busy for read cycles: 57198
6banks busy for write cycles: 9997437
7banks busy for read cycles: 13823
7banks busy for write cycles: 13588159
8banks busy for read cycles: 3412
8banks busy for write cycles: 38816997

CPU 0 Branch Prediction Accuracy: 99.9621% MPKI: 0.097185 Average ROB Occupancy at Mispredict: 311.309
Branch types
NOT_BRANCH: 148719231 74.3596%
BRANCH_DIRECT_JUMP: 4318196 2.1591%
BRANCH_INDIRECT: 0 0%
BRANCH_CONDITIONAL: 42641844 21.3209%
BRANCH_DIRECT_CALL: 2160361 1.08018%
BRANCH_INDIRECT_CALL: 0 0%
BRANCH_RETURN: 2160362 1.08018%
BRANCH_OTHER: 0 0%

DRAM PAGES: 1048576
Allocated PAGES: 76297
