Initialize SIGNATURE TABLE
ST_SET: 1
ST_WAY: 256
ST_TAG_BIT: 16
ST_TAG_MASK: ffff

Initialize PATTERN TABLE
PT_SET: 512
PT_WAY: 4
SIG_DELTA_BIT: 7
C_SIG_BIT: 4
C_DELTA_BIT: 4

Initialize PREFETCH FILTER
FILTER_SET: 1024

Initialize PERCEPTRON
PERC_ENTRIES: 4096
PERC_FEATURES: 9
Initialize SIGNATURE TABLE
ST_SET: 1
ST_WAY: 256
ST_TAG_BIT: 16
ST_TAG_MASK: ffff

Initialize PATTERN TABLE
PT_SET: 512
PT_WAY: 4
SIG_DELTA_BIT: 7
C_SIG_BIT: 4
C_DELTA_BIT: 4

Initialize PREFETCH FILTER
FILTER_SET: 1024

Initialize PERCEPTRON
PERC_ENTRIES: 4096
PERC_FEATURES: 9

*** ChampSim Multicore Out-of-Order Simulator ***

Warmup Instructions: 50000000
Simulation Instructions: 200000000
Number of CPUs: 1
LLC sets: 2048
LLC ways: 16
L0D sets: 16
L0D ways: 2
ROB size: 352
LQ size: 128
SQ size: 72
Secure Berti: OFF
Berti: OFF
Berti Fill: OFF
On commit prefetching: ON
Hit-based filter: OFF
Time-guarding: ON
Free-slotting: ON
Leap-frogging: ON
Train prefetcher on L0D bypass: OFF
No translation penalty for prefetchers: OFF
Prefetch to L0D only: OFF
Prefetch to L1D only: OFF
Clean evictions: ON
Commit loads: ON
Commit write: ON
Fill commit loads to L2C, LLC: ON
DRAM IO FREQUENCY: 6400
ROB SIZE: 352
Off-chip DRAM Size: 4096 MB Channels: 1 Width: 64-bit Data Rate: 6400 MT/s
CPU 0 runs /home/sumon/secure_berti/GhostMinion/../../traces/spec/602.gcc_s-734B.champsimtrace.xz
.xz
BTB has LRU replacement policy
ITLB has LRU replacement policy
DTLB has LRU replacement policy
STLB has LRU replacement policy
L1I has LRU replacement policy
L0D has LRU replacement policy
PERC_ENTRIES: 4096
L1D has LRU replacement policy
PERC_ENTRIES: 4096
L2C has LRU replacement policy
LLC has LRU replacement policy
Heartbeat CPU 0 instructions: 10000002 cycles: 6658516 heartbeat IPC: 1.50184 cumulative IPC: 1.50184 (Simulation time: 0 hr 2 min 57 sec) 
Heartbeat CPU 0 instructions: 20000000 cycles: 13299251 heartbeat IPC: 1.50586 cumulative IPC: 1.50384 (Simulation time: 0 hr 5 min 57 sec) 
Heartbeat CPU 0 instructions: 30000000 cycles: 19955209 heartbeat IPC: 1.50241 cumulative IPC: 1.50337 (Simulation time: 0 hr 8 min 4 sec) 
Heartbeat CPU 0 instructions: 40000002 cycles: 26639037 heartbeat IPC: 1.49615 cumulative IPC: 1.50156 (Simulation time: 0 hr 10 min 2 sec) 
Heartbeat CPU 0 instructions: 50000000 cycles: 33298009 heartbeat IPC: 1.50173 cumulative IPC: 1.50159 (Simulation time: 0 hr 12 min 0 sec) 

Warmup complete CPU 0 instructions: 50000001 cycles: 33298010 (Simulation time: 0 hr 12 min 0 sec) 

Heartbeat CPU 0 instructions: 60000000 cycles: 54352424 heartbeat IPC: 0.47496 cumulative IPC: 0.47496 (Simulation time: 0 hr 14 min 44 sec) 
Heartbeat CPU 0 instructions: 70000002 cycles: 76484059 heartbeat IPC: 0.451842 cumulative IPC: 0.463113 (Simulation time: 0 hr 17 min 26 sec) 
Heartbeat CPU 0 instructions: 80000000 cycles: 97524136 heartbeat IPC: 0.475283 cumulative IPC: 0.4671 (Simulation time: 0 hr 20 min 9 sec) 
Heartbeat CPU 0 instructions: 90000000 cycles: 118753698 heartbeat IPC: 0.471041 cumulative IPC: 0.468079 (Simulation time: 0 hr 22 min 53 sec) 
Heartbeat CPU 0 instructions: 100000000 cycles: 152885539 heartbeat IPC: 0.292982 cumulative IPC: 0.418104 (Simulation time: 0 hr 25 min 50 sec) 
Heartbeat CPU 0 instructions: 110000000 cycles: 173833699 heartbeat IPC: 0.477369 cumulative IPC: 0.426938 (Simulation time: 0 hr 28 min 35 sec) 
Heartbeat CPU 0 instructions: 120000000 cycles: 195027476 heartbeat IPC: 0.471837 cumulative IPC: 0.432822 (Simulation time: 0 hr 31 min 19 sec) 
Heartbeat CPU 0 instructions: 130000001 cycles: 218856867 heartbeat IPC: 0.41965 cumulative IPC: 0.43113 (Simulation time: 0 hr 34 min 4 sec) 
Heartbeat CPU 0 instructions: 140000001 cycles: 240021750 heartbeat IPC: 0.472481 cumulative IPC: 0.435364 (Simulation time: 0 hr 36 min 49 sec) 
Heartbeat CPU 0 instructions: 150000000 cycles: 261483559 heartbeat IPC: 0.465944 cumulative IPC: 0.43824 (Simulation time: 0 hr 39 min 34 sec) 
Heartbeat CPU 0 instructions: 160000003 cycles: 283184867 heartbeat IPC: 0.460802 cumulative IPC: 0.440199 (Simulation time: 0 hr 42 min 18 sec) 
Heartbeat CPU 0 instructions: 170000000 cycles: 304190480 heartbeat IPC: 0.476063 cumulative IPC: 0.44298 (Simulation time: 0 hr 45 min 2 sec) 
Heartbeat CPU 0 instructions: 180000000 cycles: 325622109 heartbeat IPC: 0.4666 cumulative IPC: 0.444712 (Simulation time: 0 hr 47 min 44 sec) 
Heartbeat CPU 0 instructions: 190000002 cycles: 354705802 heartbeat IPC: 0.343835 cumulative IPC: 0.435584 (Simulation time: 0 hr 50 min 42 sec) 
Heartbeat CPU 0 instructions: 200000001 cycles: 378464032 heartbeat IPC: 0.420907 cumulative IPC: 0.434573 (Simulation time: 0 hr 53 min 30 sec) 
Heartbeat CPU 0 instructions: 210000000 cycles: 399466031 heartbeat IPC: 0.476145 cumulative IPC: 0.436958 (Simulation time: 0 hr 56 min 13 sec) 
Heartbeat CPU 0 instructions: 220000000 cycles: 420990915 heartbeat IPC: 0.464579 cumulative IPC: 0.438491 (Simulation time: 0 hr 58 min 55 sec) 
Heartbeat CPU 0 instructions: 230000002 cycles: 441995385 heartbeat IPC: 0.476089 cumulative IPC: 0.440424 (Simulation time: 1 hr 1 min 37 sec) 
Heartbeat CPU 0 instructions: 240000001 cycles: 463153169 heartbeat IPC: 0.472639 cumulative IPC: 0.442009 (Simulation time: 1 hr 4 min 18 sec) 
Heartbeat CPU 0 instructions: 250000002 cycles: 485388996 heartbeat IPC: 0.449725 cumulative IPC: 0.442389 (Simulation time: 1 hr 6 min 57 sec) 
Finished CPU 0 instructions: 200000001 cycles: 452090986 cumulative IPC: 0.442389 (Simulation time: 1 hr 6 min 57 sec) 
 Instruction ID: 250000360

ChampSim completed all CPUs

Region of Interest Statistics

CPU 0 cumulative IPC: 0.442389 instructions: 200000001 cycles: 452090986
ITLB SPEC fills:          0  NON-SPEC fills:          0
ITLB Test counter :          0
ITLB Leapfrog:          0
ITLB MSHR merge:          0
ITLB TOTAL     ACCESS:   44990887  HIT:   44990877  MISS:         10  HIT %:        100  MISS %: 2.22267e-05   MPKI: 5e-05
ITLB LOAD TRANSLATION NON_SPEC    ACCESS:   44990887  HIT:   44990877  MISS:         10  HIT %:        100  MISS %: 2.22267e-05   MPKI: 5e-05
ITLB PREFETCH  REQUESTED:          0  ISSUED:          0  USEFUL:          0  USELESS:          0
ITLB USEFUL LOAD PREFETCHES:          0 PREFETCH ISSUED TO LOWER LEVEL:          0  ACCURACY: -nan
ITLB TIMELY PREFETCHES:          0 LATE PREFETCHES: 0 DROPPED PREFETCHES: 0
ITLB COMMIT LATE PREFETCHES: 0 NORMAL LATE: 0 MISSED OPPORTUNITY: 0 UNCOVERED: 0
ITLB PREFETCHES SAME FILL-ORIGIN LEVEL: 0 DIFFERENT FILL-ORIGIN LEVEL: 0
ITLB AVERAGE MISS LATENCY: 345.9 cycles
ITLB AVERAGE MISS LATENCY LOAD: -nan cycles
ITLB AVERAGE MISS LATENCY PREFETCH: -nan cycles
ITLB AVERAGE MSHR OCCUPANCY: 8.89069e-08
ITLB MSHR FULL: 0
ITLB RQ	ACCESS:   49789810	FORWARD:          0	MERGED:    4798918	TO_CACHE:   44990892

DTLB SPEC fills:          0  NON-SPEC fills:          0
DTLB Test counter :          0
DTLB Leapfrog:          0
DTLB MSHR merge:          0
DTLB TOTAL     ACCESS:   60414237  HIT:   60205877  MISS:     208360  HIT %:    99.6551  MISS %:   0.344886   MPKI: 1.0418
DTLB LOAD TRANSLATION NON_SPEC    ACCESS:   60414237  HIT:   60205877  MISS:     208360  HIT %:    99.6551  MISS %:   0.344886   MPKI: 1.0418
DTLB PREFETCH  REQUESTED:          0  ISSUED:          0  USEFUL:          0  USELESS:          0
DTLB USEFUL LOAD PREFETCHES:          0 PREFETCH ISSUED TO LOWER LEVEL:          0  ACCURACY: -nan
DTLB TIMELY PREFETCHES:          0 LATE PREFETCHES: 0 DROPPED PREFETCHES: 0
DTLB COMMIT LATE PREFETCHES: 0 NORMAL LATE: 0 MISSED OPPORTUNITY: 0 UNCOVERED: 0
DTLB PREFETCHES SAME FILL-ORIGIN LEVEL: 0 DIFFERENT FILL-ORIGIN LEVEL: 0
DTLB AVERAGE MISS LATENCY: 47.5459 cycles
DTLB AVERAGE MISS LATENCY LOAD: -nan cycles
DTLB AVERAGE MISS LATENCY PREFETCH: -nan cycles
DTLB AVERAGE MSHR OCCUPANCY: 0.0041543
DTLB MSHR FULL: 0
DTLB RQ	ACCESS:   63467805	FORWARD:          0	MERGED:    3050364	TO_CACHE:   60417441

STLB SPEC fills:          0  NON-SPEC fills:          0
STLB Test counter :          0
STLB Leapfrog:          0
STLB MSHR merge:          0
STLB TOTAL     ACCESS:     208370  HIT:     155756  MISS:      52614  HIT %:    74.7497  MISS %:    25.2503   MPKI: 0.26307
STLB LOAD TRANSLATION NON_SPEC    ACCESS:     208370  HIT:     155756  MISS:      52614  HIT %:    74.7497  MISS %:    25.2503   MPKI: 0.26307
STLB PREFETCH  REQUESTED:          0  ISSUED:          0  USEFUL:          0  USELESS:          0
STLB USEFUL LOAD PREFETCHES:          0 PREFETCH ISSUED TO LOWER LEVEL:          0  ACCURACY: -nan
STLB TIMELY PREFETCHES:          0 LATE PREFETCHES: 0 DROPPED PREFETCHES: 0
STLB COMMIT LATE PREFETCHES: 0 NORMAL LATE: 0 MISSED OPPORTUNITY: 0 UNCOVERED: 0
STLB PREFETCHES SAME FILL-ORIGIN LEVEL: 0 DIFFERENT FILL-ORIGIN LEVEL: 0
STLB AVERAGE MISS LATENCY: 152.699 cycles
STLB AVERAGE MISS LATENCY LOAD: -nan cycles
STLB AVERAGE MISS LATENCY PREFETCH: -nan cycles
STLB AVERAGE MSHR OCCUPANCY: 0.0137448
STLB MSHR FULL: 0
STLB RQ	ACCESS:     208370	FORWARD:          0	MERGED:          0	TO_CACHE:     208370

STLB Hit, L1D data hit: 0
STLB Hit, L2C data hit: 0
STLB Hit, LLC data hit: 0
STLB Hit, LLC data miss: 0
STLB STLB hints to L2: 0
L0D SPEC fills:   18263841  NON-SPEC fills:          0
L0D TimeGuard Request with older TS:     227269 Restricted eviction:      14783 read:     785394
L0D Test counter :          0
L0D Leapfrog:          0
L0D MSHR merge:    2141045
L0D TOTAL     ACCESS:   39386963  HIT:    6083307  MISS:   33303656  HIT %:     15.445  MISS %:     84.555   MPKI: 166.518
L0D LOAD      TOTAL       ACCESS:   39386963  HIT:    6083307  MISS:   33303656  HIT %:     15.445  MISS %:     84.555   MPKI: 166.518
L0D LOAD      NON_SPEC    ACCESS:   15235002  HIT:     209970  MISS:   15025032  HIT %:    1.37821  MISS %:    98.6218   MPKI: 75.1252
L0D LOAD      SPEC        ACCESS:   24151961  HIT:    5873337  MISS:   18278624  HIT %:    24.3183  MISS %:    75.6817   MPKI: 91.3931
L0D PREFETCH  REQUESTED:          0  ISSUED:          0  USEFUL:          0  USELESS:          0
L0D USEFUL LOAD PREFETCHES:          0 PREFETCH ISSUED TO LOWER LEVEL:          0  ACCURACY: -nan
L0D TIMELY PREFETCHES:          0 LATE PREFETCHES: 0 DROPPED PREFETCHES: 0
L0D COMMIT LATE PREFETCHES: 0 NORMAL LATE: 0 MISSED OPPORTUNITY: 0 UNCOVERED: 0
L0D PREFETCHES SAME FILL-ORIGIN LEVEL: 0 DIFFERENT FILL-ORIGIN LEVEL: 0
L0D AVERAGE MISS LATENCY: 7.50967 cycles
L0D AVERAGE MISS LATENCY LOAD: 7.50967 cycles
L0D AVERAGE MISS LATENCY PREFETCH: -nan cycles
L0D AVERAGE MSHR OCCUPANCY: 0.71159
L0D MSHR FULL: 0
L0D RQ	ACCESS:   52873175	FORWARD:          0	MERGED:   11345167	TO_CACHE:   41528008
L0D WQ	ACCESS:   21939797	FORWARD:          0	MERGED:          0	TO_CACHE:   21939797

L1D SPEC fills:          0  NON-SPEC fills:     333843
L1D Test counter :          0
L1D Leapfrog:          0
L1D MSHR merge:       1347
L1D TOTAL     ACCESS:   82623866  HIT:   75763092  MISS:    6860774  HIT %:    91.6964  MISS %:    8.30362   MPKI: 34.3039
L1D LOAD      TOTAL       ACCESS:   33302309  HIT:   29674485  MISS:    3627824  HIT %:    89.1064  MISS %:    10.8936   MPKI: 18.1391
L1D LOAD      NON_SPEC    ACCESS:   15024923  HIT:   14691080  MISS:     333843  HIT %:    97.7781  MISS %:    2.22193   MPKI: 1.66921
L1D LOAD      SPEC        ACCESS:   18277386  HIT:   14983405  MISS:    3293981  HIT %:    81.9778  MISS %:    18.0222   MPKI: 16.4699
L1D RFO       NON_SPEC    ACCESS:   21902245  HIT:   21898914  MISS:       3331  HIT %:    99.9848  MISS %:  0.0152085   MPKI: 0.016655
L1D COMMIT LOAD NON_SPEC    ACCESS:    9296324  HIT:    9292157  MISS:       4167  HIT %:    99.9552  MISS %:  0.0448242   MPKI: 0.020835
L1D COMMIT WRITE NON_SPEC    ACCESS:   18122988  HIT:   14897536  MISS:    3225452  HIT %:    82.2024  MISS %:    17.7976   MPKI: 16.1273
L1D PREFETCH  REQUESTED:          0  ISSUED:          0  USEFUL:          0  USELESS:          0
L1D USEFUL LOAD PREFETCHES:          0 PREFETCH ISSUED TO LOWER LEVEL:          0  ACCURACY: -nan
L1D TIMELY PREFETCHES:          0 LATE PREFETCHES: 0 DROPPED PREFETCHES: 0
L1D COMMIT LATE PREFETCHES: 0 NORMAL LATE: 0 MISSED OPPORTUNITY: 0 UNCOVERED: 3628345
L1D PREFETCHES SAME FILL-ORIGIN LEVEL: 0 DIFFERENT FILL-ORIGIN LEVEL: 0
L1D AVERAGE MISS LATENCY: 12.0937 cycles
L1D AVERAGE MISS LATENCY LOAD: 22.7925 cycles
L1D AVERAGE MISS LATENCY PREFETCH: -nan cycles
L1D AVERAGE MSHR OCCUPANCY: 0.0489615
L1D MSHR FULL: 0
L1D RQ	ACCESS:   52756099	FORWARD:          0	MERGED:    8445159	TO_CACHE:   42600577
L1D WQ	ACCESS:   40100776	FORWARD:    1710363	MERGED:      72273	TO_CACHE:   40028503

L1D UNIQUE REGIONS ACCESSED: 0
L1D REGIONS CONFLICTS: 0
L1D Cross Page Prefetch Requests: 0
L1D Same Page Prefetch Requests: 0
L1D ROI Sum of L1D PQ occupancy: 0
L1D PREFETCHES PUSHED FROM L2C: 0
L1I SPEC fills:          0  NON-SPEC fills:          0
L1I Test counter :          0
L1I Leapfrog:          0
L1I MSHR merge:          8
L1I TOTAL     ACCESS:   49789800  HIT:   49789711  MISS:         89  HIT %:    99.9998  MISS %: 0.000178751   MPKI: 0.000445
L1I LOAD      TOTAL       ACCESS:   49789800  HIT:   49789711  MISS:         89  HIT %:    99.9998  MISS %: 0.000178751   MPKI: 0.000445
L1I LOAD      NON_SPEC    ACCESS:   49789800  HIT:   49789711  MISS:         89  HIT %:    99.9998  MISS %: 0.000178751   MPKI: 0.000445
L1I PREFETCH  REQUESTED:          0  ISSUED:          0  USEFUL:          0  USELESS:          0
L1I USEFUL LOAD PREFETCHES:          0 PREFETCH ISSUED TO LOWER LEVEL:          0  ACCURACY: -nan
L1I TIMELY PREFETCHES:          0 LATE PREFETCHES: 0 DROPPED PREFETCHES: 0
L1I COMMIT LATE PREFETCHES: 0 NORMAL LATE: 0 MISSED OPPORTUNITY: 0 UNCOVERED: 0
L1I PREFETCHES SAME FILL-ORIGIN LEVEL: 0 DIFFERENT FILL-ORIGIN LEVEL: 0
L1I AVERAGE MISS LATENCY: 224.034 cycles
L1I AVERAGE MISS LATENCY LOAD: 224.034 cycles
L1I AVERAGE MISS LATENCY PREFETCH: -nan cycles
L1I AVERAGE MSHR OCCUPANCY: 7.02955e-07
L1I MSHR FULL: 0
L1I RQ	ACCESS:   80162246	FORWARD:          0	MERGED:   30372436	TO_CACHE:   49789810

BTB SPEC fills:          0  NON-SPEC fills:          0
BTB Test counter :          0
BTB Leapfrog:          0
BTB MSHR merge:          0
BTB TOTAL     ACCESS:   37936625  HIT:   37889779  MISS:      46846  HIT %:    99.8765  MISS %:   0.123485   MPKI: 0.23423
BTB BRANCH_DIRECT_JUMP	ACCESS:    4848253  HIT:    4848175  MISS:         78
BTB BRANCH_INDIRECT	ACCESS:          0  HIT:          0  MISS:          0
BTB BRANCH_CONDITIONAL	ACCESS:   28192639  HIT:   28192467  MISS:        172
BTB BRANCH_DIRECT_CALL	ACCESS:    2447841  HIT:    2447798  MISS:         43
BTB BRANCH_INDIRECT_CALL	ACCESS:         26  HIT:         25  MISS:          1
BTB BRANCH_RETURN	ACCESS:    2447866  HIT:    2401314  MISS:      46552
BTB BRANCH_OTHER ACCESS:          0  HIT:          0  MISS:          0

L2C SPEC fills:          0  NON-SPEC fills:     140308
L2C Test counter :          0
L2C Leapfrog:          0
L2C MSHR merge:     292092
L2C TOTAL     ACCESS:   13609847  HIT:   11256980  MISS:    2352867  HIT %:     82.712  MISS %:     17.288   MPKI: 11.7643
L2C LOAD      TOTAL       ACCESS:    3627905  HIT:    3230615  MISS:     397290  HIT %:    89.0491  MISS %:    10.9509   MPKI: 1.98645
L2C LOAD      NON_SPEC    ACCESS:     333932  HIT:     193535  MISS:     140397  HIT %:    57.9564  MISS %:    42.0436   MPKI: 0.701985
L2C LOAD      SPEC        ACCESS:    3293973  HIT:    3037080  MISS:     256893  HIT %:    92.2011  MISS %:    7.79888   MPKI: 1.28446
L2C RFO       NON_SPEC    ACCESS:       3331  HIT:       2445  MISS:        886  HIT %:    73.4014  MISS %:    26.5986   MPKI: 0.00443
L2C PREFETCH  NON_SPEC    ACCESS:    6300807  HIT:    4569468  MISS:    1731339  HIT %:    72.5219  MISS %:    27.4781   MPKI: 8.65669
L2C WRITEBACK NON_SPEC    ACCESS:      12401  HIT:      12393  MISS:          8  HIT %:    99.9355  MISS %:  0.0645109   MPKI: 4e-05
L2C CLEAN_EVICTION NON_SPEC    ACCESS:    3398206  HIT:    3195889  MISS:     202317  HIT %:    94.0464  MISS %:    5.95364   MPKI: 1.01158
L2C COMMIT LOAD NON_SPEC    ACCESS:       4166  HIT:       3978  MISS:        188  HIT %:    95.4873  MISS %:    4.51272   MPKI: 0.00094
L2C LOAD TRANSLATION NON_SPEC    ACCESS:     263031  HIT:     242192  MISS:      20839  HIT %:    92.0774  MISS %:    7.92264   MPKI: 0.104195
L2C PREFETCH  REQUESTED:    7270353  ISSUED:    7270349  USEFUL:    1499570  USELESS:     231298
L2C USEFUL LOAD PREFETCHES:    1499570 PREFETCH ISSUED TO LOWER LEVEL:    2072082  ACCURACY: 72.3702
L2C TIMELY PREFETCHES:    1499570 LATE PREFETCHES: 292503 DROPPED PREFETCHES: 0
L2C COMMIT LATE PREFETCHES: 2013 NORMAL LATE: 293189 MISSED OPPORTUNITY: 613 UNCOVERED: 101886
L2C PREFETCHES SAME FILL-ORIGIN LEVEL: 2023842 DIFFERENT FILL-ORIGIN LEVEL: 48240
L2C AVERAGE MISS LATENCY: 157.841 cycles
L2C AVERAGE MISS LATENCY LOAD: 111.679 cycles
L2C AVERAGE MISS LATENCY PREFETCH: 186.408 cycles
L2C AVERAGE MSHR OCCUPANCY: 0.752432
L2C MSHR FULL: 5.13016e-05
L2C RQ	ACCESS:    3898442	FORWARD:          0	MERGED:          0	TO_CACHE:    3898433
L2C WQ	ACCESS:    3410607	FORWARD:         14	MERGED:          0	TO_CACHE:    3410607
L2C PQ	ACCESS:    7270349	FORWARD:          0	MERGED:     595659	TO_CACHE:    6674685

L2C Instructions Evicting Data 85
L2C Translations Evicting Data 20538
L2C Data Evicting Data 1853849
L2C Instructions Evicting Instructions 0
L2C Translations Evicting Instructions 2
L2C Data Evicting Instructions 79
L2C Instructions Evicting Translations 4
L2C Translations Evicting Translations 299
L2C Data Evicting Translations 18793
L2C Dense regions hint from L2: 0
PSCL5 SPEC fills:          0  NON-SPEC fills:          0
PSCL5 Test counter :          0
PSCL5 Leapfrog:          0
PSCL5 MSHR merge:          0
PSCL5 TOTAL     ACCESS:          0  HIT:          0  MISS:          0  HIT %:       -nan  MISS %:       -nan   MPKI: 0
PSCL5 PREFETCH  REQUESTED:          0  ISSUED:          0  USEFUL:          0  USELESS:          0
PSCL5 USEFUL LOAD PREFETCHES:          0 PREFETCH ISSUED TO LOWER LEVEL:          0  ACCURACY: -nan
PSCL5 TIMELY PREFETCHES:          0 LATE PREFETCHES: 0 DROPPED PREFETCHES: 0
PSCL5 COMMIT LATE PREFETCHES: 0 NORMAL LATE: 0 MISSED OPPORTUNITY: 0 UNCOVERED: 0
PSCL5 PREFETCHES SAME FILL-ORIGIN LEVEL: 0 DIFFERENT FILL-ORIGIN LEVEL: 0

PSCL4 SPEC fills:          0  NON-SPEC fills:          0
PSCL4 Test counter :          0
PSCL4 Leapfrog:          0
PSCL4 MSHR merge:          0
PSCL4 TOTAL     ACCESS:          0  HIT:          0  MISS:          0  HIT %:       -nan  MISS %:       -nan   MPKI: 0
PSCL4 PREFETCH  REQUESTED:          0  ISSUED:          0  USEFUL:          0  USELESS:          0
PSCL4 USEFUL LOAD PREFETCHES:          0 PREFETCH ISSUED TO LOWER LEVEL:          0  ACCURACY: -nan
PSCL4 TIMELY PREFETCHES:          0 LATE PREFETCHES: 0 DROPPED PREFETCHES: 0
PSCL4 COMMIT LATE PREFETCHES: 0 NORMAL LATE: 0 MISSED OPPORTUNITY: 0 UNCOVERED: 0
PSCL4 PREFETCHES SAME FILL-ORIGIN LEVEL: 0 DIFFERENT FILL-ORIGIN LEVEL: 0

PSCL3 SPEC fills:          0  NON-SPEC fills:          0
PSCL3 Test counter :          0
PSCL3 Leapfrog:          0
PSCL3 MSHR merge:          0
PSCL3 TOTAL     ACCESS:          0  HIT:          0  MISS:          0  HIT %:       -nan  MISS %:       -nan   MPKI: 0
PSCL3 PREFETCH  REQUESTED:          0  ISSUED:          0  USEFUL:          0  USELESS:          0
PSCL3 USEFUL LOAD PREFETCHES:          0 PREFETCH ISSUED TO LOWER LEVEL:          0  ACCURACY: -nan
PSCL3 TIMELY PREFETCHES:          0 LATE PREFETCHES: 0 DROPPED PREFETCHES: 0
PSCL3 COMMIT LATE PREFETCHES: 0 NORMAL LATE: 0 MISSED OPPORTUNITY: 0 UNCOVERED: 0
PSCL3 PREFETCHES SAME FILL-ORIGIN LEVEL: 0 DIFFERENT FILL-ORIGIN LEVEL: 0

PSCL2 SPEC fills:          0  NON-SPEC fills:          0
PSCL2 Test counter :          0
PSCL2 Leapfrog:          0
PSCL2 MSHR merge:          0
PSCL2 TOTAL     ACCESS:          0  HIT:          0  MISS:          0  HIT %:       -nan  MISS %:       -nan   MPKI: 0
PSCL2 PREFETCH  REQUESTED:          0  ISSUED:          0  USEFUL:          0  USELESS:          0
PSCL2 USEFUL LOAD PREFETCHES:          0 PREFETCH ISSUED TO LOWER LEVEL:          0  ACCURACY: -nan
PSCL2 TIMELY PREFETCHES:          0 LATE PREFETCHES: 0 DROPPED PREFETCHES: 0
PSCL2 COMMIT LATE PREFETCHES: 0 NORMAL LATE: 0 MISSED OPPORTUNITY: 0 UNCOVERED: 0
PSCL2 PREFETCHES SAME FILL-ORIGIN LEVEL: 0 DIFFERENT FILL-ORIGIN LEVEL: 0

LLC SPEC fills:          0  NON-SPEC fills:      32842
LLC Test counter :          0
LLC Leapfrog:          0
LLC MSHR merge:         41
LLC TOTAL     ACCESS:    3967798  HIT:    1819526  MISS:    2148272  HIT %:    45.8573  MISS %:    54.1427   MPKI: 10.7414
LLC LOAD      TOTAL       ACCESS:     105198  HIT:       9309  MISS:      95889  HIT %:    8.84903  MISS %:     91.151   MPKI: 0.479445
LLC LOAD      NON_SPEC    ACCESS:      37533  HIT:       4602  MISS:      32931  HIT %:    12.2612  MISS %:    87.7388   MPKI: 0.164655
LLC LOAD      SPEC        ACCESS:      67665  HIT:       4707  MISS:      62958  HIT %:    6.95633  MISS %:    93.0437   MPKI: 0.31479
LLC RFO       NON_SPEC    ACCESS:        524  HIT:         19  MISS:        505  HIT %:    3.62595  MISS %:     96.374   MPKI: 0.002525
LLC PREFETCH  NON_SPEC    ACCESS:    2066677  HIT:      61538  MISS:    2005139  HIT %:    2.97763  MISS %:    97.0224   MPKI: 10.0257
LLC WRITEBACK NON_SPEC    ACCESS:       7781  HIT:       6317  MISS:       1464  HIT %:    81.1849  MISS %:    18.8151   MPKI: 0.00732
LLC CLEAN_EVICTION NON_SPEC    ACCESS:    1766640  HIT:    1740420  MISS:      26220  HIT %:    98.5158  MISS %:    1.48417   MPKI: 0.1311
LLC COMMIT LOAD NON_SPEC    ACCESS:        139  HIT:        132  MISS:          7  HIT %:     94.964  MISS %:    5.03597   MPKI: 3.5e-05
LLC LOAD TRANSLATION NON_SPEC    ACCESS:      20839  HIT:       1791  MISS:      19048  HIT %:    8.59446  MISS %:    91.4055   MPKI: 0.09524
LLC PREFETCH  REQUESTED:          0  ISSUED:          0  USEFUL:       5586  USELESS:    1999563
LLC USEFUL LOAD PREFETCHES:       5586 PREFETCH ISSUED TO LOWER LEVEL:    2005185  ACCURACY: 0.278578
LLC TIMELY PREFETCHES:       5586 LATE PREFETCHES: 46 DROPPED PREFETCHES: 0
LLC COMMIT LATE PREFETCHES: 0 NORMAL LATE: 0 MISSED OPPORTUNITY: 0 UNCOVERED: 0
LLC PREFETCHES SAME FILL-ORIGIN LEVEL: 25353 DIFFERENT FILL-ORIGIN LEVEL: 0
LLC AVERAGE MISS LATENCY: 160.196 cycles
LLC AVERAGE MISS LATENCY LOAD: 154.554 cycles
LLC AVERAGE MISS LATENCY PREFETCH: 162.464 cycles
LLC AVERAGE MSHR OCCUPANCY: 0.818082
LLC MSHR FULL: 0
LLC RQ	ACCESS:     126700	FORWARD:          0	MERGED:          0	TO_CACHE:     126700
LLC WQ	ACCESS:    1774421	FORWARD:          0	MERGED:          0	TO_CACHE:    1774421
LLC PQ	ACCESS:    2072082	FORWARD:          0	MERGED:       1376	TO_CACHE:    2070706

LLC Dense regions hint to LLC: 0

RAW hits: 58647
Loads Generated: 52931823
Loads sent to L1D: 52873175
Stores Generated: 21939796
Stores sent to L1D: 21939797
Major fault: 0 Minor fault: 9448
Allocated PAGES: 9448
Total Load insts: 65989928
Total Non-spec loads: 18631579
Percentage of speculative loads: 71.766

LeapFrogging counter: 0
Commit hits: 18160977 miss: 19452443
Commit hit %: 48.2832 miss %: 51.7168
Commits not translated: 0
Loads retired: 3627824
Stores retired: 21939797
Cache fills: 3627824
L1D response latency: 22.7925 cycles
Load retirement latency: 68.7217 cycles
OOO test counter: 0
Discarded buffer inserts: 18160977 hits: 14852 hit %: 0.0817797
Filter prediction accuracy: -nan
------------------
Depth Distribution
------------------
depth 0: 93438
depth 1: 85494
depth 2: 48914
depth 3: 72598
depth 4: 96216
depth 5: 250273
depth 6: 400633
depth 7: 532763
depth 8: 1224802
depth 9: 1531662
depth 10: 116994
depth 11: 146032
depth 12: 1565
depth 13: 35
depth 14: 2
depth 15: 0
depth 16: 0
depth 17: 0
depth 18: 0
depth 19: 0
depth 20: 0
depth 21: 0
depth 22: 0
depth 23: 0
depth 24: 0
depth 25: 0
depth 26: 0
depth 27: 0
depth 28: 0
depth 29: 0
Total: 4601421
------------------
ST read accesses: 3571404
ST write accesses: 56412
PT read accesses: 154236635
PT write accesses: 5143036
FILTER read accesses: 52997238
FILTER write accesses: 53941736
GHR read accesses: 13299081
GHR write accesses: 2246425
PERC read accesses: 1117883502
PERC write accesses: 43183175
GHR counter read accesses: 7255632
GHR counter write accesses: 11641234
GHR ip read accesses: 24811875
GHR ip write accesses: 14511264
ST tag read accesses: 1427739496
ST tag write accesses: 33158876
------------------
Depth Distribution
------------------
depth 0: 3338281
depth 1: 2318628
depth 2: 5387783
depth 3: 12484647
depth 4: 17208167
depth 5: 13082295
depth 6: 9522847
depth 7: 1940389
depth 8: 597482
depth 9: 154717
depth 10: 19875
depth 11: 3368
depth 12: 678
depth 13: 74
depth 14: 9
depth 15: 0
depth 16: 0
depth 17: 0
depth 18: 0
depth 19: 0
depth 20: 0
depth 21: 0
depth 22: 0
depth 23: 0
depth 24: 0
depth 25: 0
depth 26: 0
depth 27: 0
depth 28: 0
depth 29: 0
Total: 66059240
------------------
ST read accesses: 52861594
ST write accesses: 70237
PT read accesses: 1309898577
PT write accesses: 24993816
FILTER read accesses: 374235792
FILTER write accesses: 21916445
GHR read accesses: 96289742
GHR write accesses: 16800036
PERC read accesses: 9638200062
PERC write accesses: 38285907
GHR counter read accesses: 105863662
GHR counter write accesses: 62466588
GHR ip read accesses: 201441846
GHR ip write accesses: 211727324
ST tag read accesses: 18224712663
ST tag write accesses: 131949159

DRAM Statistics
 CHANNEL 0
 RQ ROW_BUFFER_HIT:     255561  ROW_BUFFER_MISS:    1865026
 DBUS_CONGESTED:       4586
 WQ ROW_BUFFER_HIT:     588273  ROW_BUFFER_MISS:    1178445  FULL:          0

 AVG_CONGESTED_CYCLE: 3
 All warmup complete: 2
Channel 0 Bank busy for read cycles: 0
Channel 0 Bank busy for write cycles: 0
Channel 0
Rank 0
0banks busy for read cycles: 95192621
0banks busy for write cycles: 282774
1banks busy for read cycles: 173020099
1banks busy for write cycles: 40460931
2banks busy for read cycles: 38799481
2banks busy for write cycles: 36117750
3banks busy for read cycles: 8967741
3banks busy for write cycles: 18047523
4banks busy for read cycles: 2437226
4banks busy for write cycles: 9629546
5banks busy for read cycles: 654576
5banks busy for write cycles: 5967310
6banks busy for read cycles: 231296
6banks busy for write cycles: 4180282
7banks busy for read cycles: 77419
7banks busy for write cycles: 4615865
8banks busy for read cycles: 23564
8banks busy for write cycles: 13384983

CPU 0 Branch Prediction Accuracy: 99.9023% MPKI: 0.234695 Average ROB Occupancy at Mispredict: 80.0944
Branch types
NOT_BRANCH: 151969688 75.9848%
BRANCH_DIRECT_JUMP: 4848253 2.42413%
BRANCH_INDIRECT: 0 0%
BRANCH_CONDITIONAL: 38286306 19.1432%
BRANCH_DIRECT_CALL: 2447841 1.22392%
BRANCH_INDIRECT_CALL: 26 1.3e-05%
BRANCH_RETURN: 2447866 1.22393%
BRANCH_OTHER: 0 0%

DRAM PAGES: 1048576
Allocated PAGES: 9448
