Initialize SIGNATURE TABLE
ST_SET: 1
ST_WAY: 256
ST_TAG_BIT: 16
ST_TAG_MASK: ffff

Initialize PATTERN TABLE
PT_SET: 512
PT_WAY: 4
SIG_DELTA_BIT: 7
C_SIG_BIT: 4
C_DELTA_BIT: 4

Initialize PREFETCH FILTER
FILTER_SET: 1024

Initialize PERCEPTRON
PERC_ENTRIES: 4096
PERC_FEATURES: 9
Initialize SIGNATURE TABLE
ST_SET: 1
ST_WAY: 256
ST_TAG_BIT: 16
ST_TAG_MASK: ffff

Initialize PATTERN TABLE
PT_SET: 512
PT_WAY: 4
SIG_DELTA_BIT: 7
C_SIG_BIT: 4
C_DELTA_BIT: 4

Initialize PREFETCH FILTER
FILTER_SET: 1024

Initialize PERCEPTRON
PERC_ENTRIES: 4096
PERC_FEATURES: 9

*** ChampSim Multicore Out-of-Order Simulator ***

Warmup Instructions: 50000000
Simulation Instructions: 200000000
Number of CPUs: 1
LLC sets: 2048
LLC ways: 16
L0D sets: 16
L0D ways: 2
ROB size: 352
LQ size: 128
SQ size: 72
Secure Berti: OFF
Berti: OFF
Berti Fill: OFF
On commit prefetching: ON
Hit-based filter: OFF
Time-guarding: ON
Free-slotting: ON
Leap-frogging: ON
Train prefetcher on L0D bypass: OFF
No translation penalty for prefetchers: OFF
Prefetch to L0D only: OFF
Prefetch to L1D only: OFF
Clean evictions: ON
Commit loads: ON
Commit write: ON
Fill commit loads to L2C, LLC: ON
DRAM IO FREQUENCY: 6400
ROB SIZE: 352
Off-chip DRAM Size: 4096 MB Channels: 1 Width: 64-bit Data Rate: 6400 MT/s
CPU 0 runs /home/sumon/secure_berti/GhostMinion/../../traces/spec/602.gcc_s-2226B.champsimtrace.xz
.xz
BTB has LRU replacement policy
ITLB has LRU replacement policy
DTLB has LRU replacement policy
STLB has LRU replacement policy
L1I has LRU replacement policy
L0D has LRU replacement policy
PERC_ENTRIES: 4096
L1D has LRU replacement policy
PERC_ENTRIES: 4096
L2C has LRU replacement policy
LLC has LRU replacement policy
Heartbeat CPU 0 instructions: 10000002 cycles: 6794163 heartbeat IPC: 1.47185 cumulative IPC: 1.47185 (Simulation time: 0 hr 2 min 30 sec) 
Heartbeat CPU 0 instructions: 20000000 cycles: 13592641 heartbeat IPC: 1.47092 cumulative IPC: 1.47138 (Simulation time: 0 hr 5 min 12 sec) 
Heartbeat CPU 0 instructions: 30000001 cycles: 20406432 heartbeat IPC: 1.46761 cumulative IPC: 1.47012 (Simulation time: 0 hr 8 min 0 sec) 
Heartbeat CPU 0 instructions: 40000002 cycles: 27225523 heartbeat IPC: 1.46647 cumulative IPC: 1.46921 (Simulation time: 0 hr 10 min 48 sec) 
Heartbeat CPU 0 instructions: 50000000 cycles: 34009235 heartbeat IPC: 1.47412 cumulative IPC: 1.47019 (Simulation time: 0 hr 13 min 33 sec) 

Warmup complete CPU 0 instructions: 50000004 cycles: 34009236 (Simulation time: 0 hr 13 min 33 sec) 

Heartbeat CPU 0 instructions: 60000002 cycles: 88778441 heartbeat IPC: 0.182584 cumulative IPC: 0.182584 (Simulation time: 0 hr 17 min 39 sec) 
Heartbeat CPU 0 instructions: 70000000 cycles: 143841098 heartbeat IPC: 0.181611 cumulative IPC: 0.182096 (Simulation time: 0 hr 21 min 48 sec) 
Heartbeat CPU 0 instructions: 80000000 cycles: 199495993 heartbeat IPC: 0.179679 cumulative IPC: 0.181283 (Simulation time: 0 hr 25 min 56 sec) 
Heartbeat CPU 0 instructions: 90000001 cycles: 255694630 heartbeat IPC: 0.17794 cumulative IPC: 0.180436 (Simulation time: 0 hr 30 min 6 sec) 
Heartbeat CPU 0 instructions: 100000001 cycles: 312105708 heartbeat IPC: 0.17727 cumulative IPC: 0.179794 (Simulation time: 0 hr 34 min 17 sec) 
Heartbeat CPU 0 instructions: 110000000 cycles: 367969960 heartbeat IPC: 0.179005 cumulative IPC: 0.179662 (Simulation time: 0 hr 38 min 28 sec) 
Heartbeat CPU 0 instructions: 120000000 cycles: 424288527 heartbeat IPC: 0.177561 cumulative IPC: 0.179359 (Simulation time: 0 hr 42 min 36 sec) 
Heartbeat CPU 0 instructions: 130000001 cycles: 481337698 heartbeat IPC: 0.175287 cumulative IPC: 0.178839 (Simulation time: 0 hr 46 min 45 sec) 
Heartbeat CPU 0 instructions: 140000000 cycles: 538080759 heartbeat IPC: 0.176233 cumulative IPC: 0.178546 (Simulation time: 0 hr 50 min 50 sec) 
Heartbeat CPU 0 instructions: 150000001 cycles: 594539341 heartbeat IPC: 0.177121 cumulative IPC: 0.178403 (Simulation time: 0 hr 54 min 48 sec) 
Heartbeat CPU 0 instructions: 160000002 cycles: 651425354 heartbeat IPC: 0.17579 cumulative IPC: 0.178162 (Simulation time: 0 hr 58 min 42 sec) 
Heartbeat CPU 0 instructions: 170000001 cycles: 709031086 heartbeat IPC: 0.173594 cumulative IPC: 0.177772 (Simulation time: 1 hr 2 min 27 sec) 
Heartbeat CPU 0 instructions: 180000000 cycles: 765334894 heartbeat IPC: 0.177608 cumulative IPC: 0.177759 (Simulation time: 1 hr 6 min 10 sec) 
Heartbeat CPU 0 instructions: 190000002 cycles: 821782499 heartbeat IPC: 0.177155 cumulative IPC: 0.177716 (Simulation time: 1 hr 9 min 52 sec) 
Heartbeat CPU 0 instructions: 200000000 cycles: 879279778 heartbeat IPC: 0.173921 cumulative IPC: 0.177458 (Simulation time: 1 hr 13 min 36 sec) 
Heartbeat CPU 0 instructions: 210000003 cycles: 936423800 heartbeat IPC: 0.174996 cumulative IPC: 0.177302 (Simulation time: 1 hr 17 min 19 sec) 
Heartbeat CPU 0 instructions: 220000000 cycles: 992622896 heartbeat IPC: 0.177939 cumulative IPC: 0.177339 (Simulation time: 1 hr 21 min 1 sec) 
Heartbeat CPU 0 instructions: 230000001 cycles: 1050256510 heartbeat IPC: 0.17351 cumulative IPC: 0.177122 (Simulation time: 1 hr 24 min 43 sec) 
Heartbeat CPU 0 instructions: 240000001 cycles: 1107765923 heartbeat IPC: 0.173885 cumulative IPC: 0.176949 (Simulation time: 1 hr 28 min 25 sec) 
Heartbeat CPU 0 instructions: 250000000 cycles: 1164406368 heartbeat IPC: 0.176552 cumulative IPC: 0.176929 (Simulation time: 1 hr 32 min 6 sec) 
Finished CPU 0 instructions: 200000000 cycles: 1130397133 cumulative IPC: 0.176929 (Simulation time: 1 hr 32 min 6 sec) 
 Instruction ID: 250000373

ChampSim completed all CPUs

Region of Interest Statistics

CPU 0 cumulative IPC: 0.176929 instructions: 200000000 cycles: 1130397133
ITLB SPEC fills:          0  NON-SPEC fills:          0
ITLB Test counter :          0
ITLB Leapfrog:          0
ITLB MSHR merge:          0
ITLB TOTAL     ACCESS:   42628310  HIT:   42628310  MISS:          0  HIT %:        100  MISS %:          0   MPKI: 0
ITLB LOAD TRANSLATION NON_SPEC    ACCESS:   42628310  HIT:   42628310  MISS:          0  HIT %:        100  MISS %:          0   MPKI: 0
ITLB PREFETCH  REQUESTED:          0  ISSUED:          0  USEFUL:          0  USELESS:          0
ITLB USEFUL LOAD PREFETCHES:          0 PREFETCH ISSUED TO LOWER LEVEL:          0  ACCURACY: -nan
ITLB TIMELY PREFETCHES:          0 LATE PREFETCHES: 0 DROPPED PREFETCHES: 0
ITLB COMMIT LATE PREFETCHES: 0 NORMAL LATE: 0 MISSED OPPORTUNITY: 0 UNCOVERED: 0
ITLB PREFETCHES SAME FILL-ORIGIN LEVEL: 0 DIFFERENT FILL-ORIGIN LEVEL: 0
ITLB AVERAGE MISS LATENCY: -nan cycles
ITLB AVERAGE MISS LATENCY LOAD: -nan cycles
ITLB AVERAGE MISS LATENCY PREFETCH: -nan cycles
ITLB AVERAGE MSHR OCCUPANCY: 0
ITLB MSHR FULL: 0
ITLB RQ	ACCESS:   43326361	FORWARD:          0	MERGED:     698051	TO_CACHE:   42628310

DTLB SPEC fills:          0  NON-SPEC fills:          0
DTLB Test counter :          0
DTLB Leapfrog:          0
DTLB MSHR merge:          0
DTLB TOTAL     ACCESS:   31383026  HIT:   31109541  MISS:     273485  HIT %:    99.1286  MISS %:   0.871442   MPKI: 1.36742
DTLB LOAD TRANSLATION NON_SPEC    ACCESS:   31383026  HIT:   31109541  MISS:     273485  HIT %:    99.1286  MISS %:   0.871442   MPKI: 1.36742
DTLB PREFETCH  REQUESTED:          0  ISSUED:          0  USEFUL:          0  USELESS:          0
DTLB USEFUL LOAD PREFETCHES:          0 PREFETCH ISSUED TO LOWER LEVEL:          0  ACCURACY: -nan
DTLB TIMELY PREFETCHES:          0 LATE PREFETCHES: 0 DROPPED PREFETCHES: 0
DTLB COMMIT LATE PREFETCHES: 0 NORMAL LATE: 0 MISSED OPPORTUNITY: 0 UNCOVERED: 0
DTLB PREFETCHES SAME FILL-ORIGIN LEVEL: 0 DIFFERENT FILL-ORIGIN LEVEL: 0
DTLB AVERAGE MISS LATENCY: 117.897 cycles
DTLB AVERAGE MISS LATENCY LOAD: -nan cycles
DTLB AVERAGE MISS LATENCY PREFETCH: -nan cycles
DTLB AVERAGE MSHR OCCUPANCY: 0.00474478
DTLB MSHR FULL: 0
DTLB RQ	ACCESS:   36918473	FORWARD:          0	MERGED:    5534280	TO_CACHE:   31384193

STLB SPEC fills:          0  NON-SPEC fills:          0
STLB Test counter :          0
STLB Leapfrog:          0
STLB MSHR merge:          0
STLB TOTAL     ACCESS:     273485  HIT:       9906  MISS:     263579  HIT %:    3.62214  MISS %:    96.3779   MPKI: 1.3179
STLB LOAD TRANSLATION NON_SPEC    ACCESS:     273485  HIT:       9906  MISS:     263579  HIT %:    3.62214  MISS %:    96.3779   MPKI: 1.3179
STLB PREFETCH  REQUESTED:          0  ISSUED:          0  USEFUL:          0  USELESS:          0
STLB USEFUL LOAD PREFETCHES:          0 PREFETCH ISSUED TO LOWER LEVEL:          0  ACCURACY: -nan
STLB TIMELY PREFETCHES:          0 LATE PREFETCHES: 0 DROPPED PREFETCHES: 0
STLB COMMIT LATE PREFETCHES: 0 NORMAL LATE: 0 MISSED OPPORTUNITY: 0 UNCOVERED: 0
STLB PREFETCHES SAME FILL-ORIGIN LEVEL: 0 DIFFERENT FILL-ORIGIN LEVEL: 0
STLB AVERAGE MISS LATENCY: 112.988 cycles
STLB AVERAGE MISS LATENCY LOAD: -nan cycles
STLB AVERAGE MISS LATENCY PREFETCH: -nan cycles
STLB AVERAGE MSHR OCCUPANCY: 0.00363091
STLB MSHR FULL: 0
STLB RQ	ACCESS:     273485	FORWARD:          0	MERGED:          0	TO_CACHE:     273485

STLB Hit, L1D data hit: 0
STLB Hit, L2C data hit: 0
STLB Hit, LLC data hit: 0
STLB Hit, LLC data miss: 0
STLB STLB hints to L2: 0
L0D SPEC fills:   13827622  NON-SPEC fills:          0
L0D TimeGuard Request with older TS:      42054 Restricted eviction:       2589 read:      65505
L0D Test counter :          0
L0D Leapfrog:          0
L0D MSHR merge:    5257849
L0D TOTAL     ACCESS:   28707761  HIT:    1349292  MISS:   27358469  HIT %:    4.70009  MISS %:    95.2999   MPKI: 136.792
L0D LOAD      TOTAL       ACCESS:   28707761  HIT:    1349292  MISS:   27358469  HIT %:    4.70009  MISS %:    95.2999   MPKI: 136.792
L0D LOAD      NON_SPEC    ACCESS:   13549609  HIT:      21351  MISS:   13528258  HIT %:   0.157577  MISS %:    99.8424   MPKI: 67.6413
L0D LOAD      SPEC        ACCESS:   15158152  HIT:    1327941  MISS:   13830211  HIT %:    8.76057  MISS %:    91.2394   MPKI: 69.1511
L0D PREFETCH  REQUESTED:          0  ISSUED:          0  USEFUL:          0  USELESS:          0
L0D USEFUL LOAD PREFETCHES:          0 PREFETCH ISSUED TO LOWER LEVEL:          0  ACCURACY: -nan
L0D TIMELY PREFETCHES:          0 LATE PREFETCHES: 0 DROPPED PREFETCHES: 0
L0D COMMIT LATE PREFETCHES: 0 NORMAL LATE: 0 MISSED OPPORTUNITY: 0 UNCOVERED: 0
L0D PREFETCHES SAME FILL-ORIGIN LEVEL: 0 DIFFERENT FILL-ORIGIN LEVEL: 0
L0D AVERAGE MISS LATENCY: 34.8698 cycles
L0D AVERAGE MISS LATENCY LOAD: 34.8698 cycles
L0D AVERAGE MISS LATENCY PREFETCH: -nan cycles
L0D AVERAGE MSHR OCCUPANCY: 0.415683
L0D MSHR FULL: 4.41623e-07
L0D RQ	ACCESS:   71765416	FORWARD:          0	MERGED:   37799807	TO_CACHE:   33965609
L0D WQ	ACCESS:    2952864	FORWARD:          0	MERGED:          0	TO_CACHE:    2952864

L1D SPEC fills:          0  NON-SPEC fills:    8444863
L1D Test counter :          0
L1D Leapfrog:          0
L1D MSHR merge:        154
L1D TOTAL     ACCESS:   74791550  HIT:   55228830  MISS:   19562720  HIT %:    73.8437  MISS %:    26.1563   MPKI: 97.8136
L1D LOAD      TOTAL       ACCESS:   27358315  HIT:   13347238  MISS:   14011077  HIT %:    48.7868  MISS %:    51.2132   MPKI: 70.0554
L1D LOAD      NON_SPEC    ACCESS:   13528250  HIT:    5083387  MISS:    8444863  HIT %:    37.5761  MISS %:    62.4239   MPKI: 42.2243
L1D LOAD      SPEC        ACCESS:   13830065  HIT:    8263851  MISS:    5566214  HIT %:    59.7528  MISS %:    40.2472   MPKI: 27.8311
L1D RFO       NON_SPEC    ACCESS:    2944706  HIT:    2939219  MISS:       5487  HIT %:    99.8137  MISS %:   0.186334   MPKI: 0.027435
L1D COMMIT LOAD NON_SPEC    ACCESS:   30668492  HIT:   30667246  MISS:       1246  HIT %:    99.9959  MISS %:  0.0040628   MPKI: 0.00623
L1D COMMIT WRITE NON_SPEC    ACCESS:   13820037  HIT:    8275127  MISS:    5544910  HIT %:    59.8777  MISS %:    40.1223   MPKI: 27.7246
L1D PREFETCH  REQUESTED:          0  ISSUED:          0  USEFUL:          0  USELESS:          0
L1D USEFUL LOAD PREFETCHES:          0 PREFETCH ISSUED TO LOWER LEVEL:          0  ACCURACY: -nan
L1D TIMELY PREFETCHES:          0 LATE PREFETCHES: 0 DROPPED PREFETCHES: 0
L1D COMMIT LATE PREFETCHES: 0 NORMAL LATE: 0 MISSED OPPORTUNITY: 0 UNCOVERED: 14011111
L1D PREFETCHES SAME FILL-ORIGIN LEVEL: 0 DIFFERENT FILL-ORIGIN LEVEL: 0
L1D AVERAGE MISS LATENCY: 41.7765 cycles
L1D AVERAGE MISS LATENCY LOAD: 58.3177 cycles
L1D AVERAGE MISS LATENCY PREFETCH: -nan cycles
L1D AVERAGE MSHR OCCUPANCY: 0.105129
L1D MSHR FULL: 0
L1D RQ	ACCESS:   71750541	FORWARD:          0	MERGED:   13154170	TO_CACHE:   58026997
L1D WQ	ACCESS:   16773416	FORWARD:     569374	MERGED:       8631	TO_CACHE:   16764785

L1D UNIQUE REGIONS ACCESSED: 0
L1D REGIONS CONFLICTS: 0
L1D Cross Page Prefetch Requests: 0
L1D Same Page Prefetch Requests: 0
L1D ROI Sum of L1D PQ occupancy: 0
L1D PREFETCHES PUSHED FROM L2C: 0
L1I SPEC fills:          0  NON-SPEC fills:          0
L1I Test counter :          0
L1I Leapfrog:          0
L1I MSHR merge:          2
L1I TOTAL     ACCESS:   43326358  HIT:   43326333  MISS:         25  HIT %:    99.9999  MISS %: 5.77016e-05   MPKI: 0.000125
L1I LOAD      TOTAL       ACCESS:   43326358  HIT:   43326333  MISS:         25  HIT %:    99.9999  MISS %: 5.77016e-05   MPKI: 0.000125
L1I LOAD      NON_SPEC    ACCESS:   43326358  HIT:   43326333  MISS:         25  HIT %:    99.9999  MISS %: 5.77016e-05   MPKI: 0.000125
L1I PREFETCH  REQUESTED:          0  ISSUED:          0  USEFUL:          0  USELESS:          0
L1I USEFUL LOAD PREFETCHES:          0 PREFETCH ISSUED TO LOWER LEVEL:          0  ACCURACY: -nan
L1I TIMELY PREFETCHES:          0 LATE PREFETCHES: 0 DROPPED PREFETCHES: 0
L1I COMMIT LATE PREFETCHES: 0 NORMAL LATE: 0 MISSED OPPORTUNITY: 0 UNCOVERED: 0
L1I PREFETCHES SAME FILL-ORIGIN LEVEL: 0 DIFFERENT FILL-ORIGIN LEVEL: 0
L1I AVERAGE MISS LATENCY: 238.32 cycles
L1I AVERAGE MISS LATENCY LOAD: 238.32 cycles
L1I AVERAGE MISS LATENCY PREFETCH: -nan cycles
L1I AVERAGE MSHR OCCUPANCY: 3.00048e-07
L1I MSHR FULL: 0
L1I RQ	ACCESS:   63195439	FORWARD:          0	MERGED:   19869078	TO_CACHE:   43326361

BTB SPEC fills:          0  NON-SPEC fills:          0
BTB Test counter :          0
BTB Leapfrog:          0
BTB MSHR merge:          0
BTB TOTAL     ACCESS:   47939699  HIT:   47938637  MISS:       1062  HIT %:    99.9978  MISS %: 0.00221528   MPKI: 0.00531
BTB BRANCH_DIRECT_JUMP	ACCESS:     685292  HIT:     685256  MISS:         36
BTB BRANCH_INDIRECT	ACCESS:          0  HIT:          0  MISS:          0
BTB BRANCH_CONDITIONAL	ACCESS:   46577606  HIT:   46577528  MISS:         78
BTB BRANCH_DIRECT_CALL	ACCESS:     338400  HIT:     338384  MISS:         16
BTB BRANCH_INDIRECT_CALL	ACCESS:          0  HIT:          0  MISS:          0
BTB BRANCH_RETURN	ACCESS:     338401  HIT:     337469  MISS:        932
BTB BRANCH_OTHER ACCESS:          0  HIT:          0  MISS:          0

L2C SPEC fills:          0  NON-SPEC fills:    3992102
L2C Test counter :          0
L2C Leapfrog:          0
L2C MSHR merge:    5848893
L2C TOTAL     ACCESS:   34115287  HIT:   17535113  MISS:   16580174  HIT %:    51.3996  MISS %:    48.6004   MPKI: 82.9009
L2C LOAD      TOTAL       ACCESS:   14011100  HIT:    7733125  MISS:    6277975  HIT %:    55.1928  MISS %:    44.8072   MPKI: 31.3899
L2C LOAD      NON_SPEC    ACCESS:    8444888  HIT:    4452761  MISS:    3992127  HIT %:    52.7273  MISS %:    47.2727   MPKI: 19.9606
L2C LOAD      SPEC        ACCESS:    5566212  HIT:    3280364  MISS:    2285848  HIT %:    58.9335  MISS %:    41.0665   MPKI: 11.4292
L2C RFO       NON_SPEC    ACCESS:       5487  HIT:       5288  MISS:        199  HIT %:    96.3732  MISS %:    3.62675   MPKI: 0.000995
L2C PREFETCH  NON_SPEC    ACCESS:    9970963  HIT:    1868605  MISS:    8102358  HIT %:    18.7405  MISS %:    81.2595   MPKI: 40.5118
L2C WRITEBACK NON_SPEC    ACCESS:       5590  HIT:       5590  MISS:          0  HIT %:        100  MISS %:          0   MPKI: 0
L2C CLEAN_EVICTION NON_SPEC    ACCESS:    8803013  HIT:    6666294  MISS:    2136719  HIT %:    75.7274  MISS %:    24.2726   MPKI: 10.6836
L2C COMMIT LOAD NON_SPEC    ACCESS:       1246  HIT:        902  MISS:        344  HIT %:    72.3917  MISS %:    27.6083   MPKI: 0.00172
L2C LOAD TRANSLATION NON_SPEC    ACCESS:    1317888  HIT:    1255309  MISS:      62579  HIT %:    95.2516  MISS %:    4.74843   MPKI: 0.312895
L2C PREFETCH  REQUESTED:   17587458  ISSUED:   17587458  USEFUL:    7712336  USELESS:     390106
L2C USEFUL LOAD PREFETCHES:    7712336 PREFETCH ISSUED TO LOWER LEVEL:   14007429  ACCURACY: 55.0589
L2C TIMELY PREFETCHES:    7712336 LATE PREFETCHES: 5848944 DROPPED PREFETCHES: 0
L2C COMMIT LATE PREFETCHES: 2801 NORMAL LATE: 5849624 MISSED OPPORTUNITY: 169 UNCOVERED: 425432
L2C PREFETCHES SAME FILL-ORIGIN LEVEL: 13951304 DIFFERENT FILL-ORIGIN LEVEL: 56125
L2C AVERAGE MISS LATENCY: 140.548 cycles
L2C AVERAGE MISS LATENCY LOAD: 109.532 cycles
L2C AVERAGE MISS LATENCY PREFETCH: 201.125 cycles
L2C AVERAGE MSHR OCCUPANCY: 2.34727
L2C MSHR FULL: 0
L2C RQ	ACCESS:   15335723	FORWARD:          0	MERGED:          0	TO_CACHE:   15335721
L2C WQ	ACCESS:    8808604	FORWARD:          2	MERGED:          1	TO_CACHE:    8808603
L2C PQ	ACCESS:   17587458	FORWARD:          0	MERGED:    1541253	TO_CACHE:   16046205

L2C Instructions Evicting Data 25
L2C Translations Evicting Data 62361
L2C Data Evicting Data 12041888
L2C Instructions Evicting Instructions 0
L2C Translations Evicting Instructions 0
L2C Data Evicting Instructions 19
L2C Instructions Evicting Translations 0
L2C Translations Evicting Translations 218
L2C Data Evicting Translations 53096
L2C Dense regions hint from L2: 0
PSCL5 SPEC fills:          0  NON-SPEC fills:          0
PSCL5 Test counter :          0
PSCL5 Leapfrog:          0
PSCL5 MSHR merge:          0
PSCL5 TOTAL     ACCESS:          0  HIT:          0  MISS:          0  HIT %:       -nan  MISS %:       -nan   MPKI: 0
PSCL5 PREFETCH  REQUESTED:          0  ISSUED:          0  USEFUL:          0  USELESS:          0
PSCL5 USEFUL LOAD PREFETCHES:          0 PREFETCH ISSUED TO LOWER LEVEL:          0  ACCURACY: -nan
PSCL5 TIMELY PREFETCHES:          0 LATE PREFETCHES: 0 DROPPED PREFETCHES: 0
PSCL5 COMMIT LATE PREFETCHES: 0 NORMAL LATE: 0 MISSED OPPORTUNITY: 0 UNCOVERED: 0
PSCL5 PREFETCHES SAME FILL-ORIGIN LEVEL: 0 DIFFERENT FILL-ORIGIN LEVEL: 0

PSCL4 SPEC fills:          0  NON-SPEC fills:          0
PSCL4 Test counter :          0
PSCL4 Leapfrog:          0
PSCL4 MSHR merge:          0
PSCL4 TOTAL     ACCESS:          0  HIT:          0  MISS:          0  HIT %:       -nan  MISS %:       -nan   MPKI: 0
PSCL4 PREFETCH  REQUESTED:          0  ISSUED:          0  USEFUL:          0  USELESS:          0
PSCL4 USEFUL LOAD PREFETCHES:          0 PREFETCH ISSUED TO LOWER LEVEL:          0  ACCURACY: -nan
PSCL4 TIMELY PREFETCHES:          0 LATE PREFETCHES: 0 DROPPED PREFETCHES: 0
PSCL4 COMMIT LATE PREFETCHES: 0 NORMAL LATE: 0 MISSED OPPORTUNITY: 0 UNCOVERED: 0
PSCL4 PREFETCHES SAME FILL-ORIGIN LEVEL: 0 DIFFERENT FILL-ORIGIN LEVEL: 0

PSCL3 SPEC fills:          0  NON-SPEC fills:          0
PSCL3 Test counter :          0
PSCL3 Leapfrog:          0
PSCL3 MSHR merge:          0
PSCL3 TOTAL     ACCESS:          0  HIT:          0  MISS:          0  HIT %:       -nan  MISS %:       -nan   MPKI: 0
PSCL3 PREFETCH  REQUESTED:          0  ISSUED:          0  USEFUL:          0  USELESS:          0
PSCL3 USEFUL LOAD PREFETCHES:          0 PREFETCH ISSUED TO LOWER LEVEL:          0  ACCURACY: -nan
PSCL3 TIMELY PREFETCHES:          0 LATE PREFETCHES: 0 DROPPED PREFETCHES: 0
PSCL3 COMMIT LATE PREFETCHES: 0 NORMAL LATE: 0 MISSED OPPORTUNITY: 0 UNCOVERED: 0
PSCL3 PREFETCHES SAME FILL-ORIGIN LEVEL: 0 DIFFERENT FILL-ORIGIN LEVEL: 0

PSCL2 SPEC fills:          0  NON-SPEC fills:          0
PSCL2 Test counter :          0
PSCL2 Leapfrog:          0
PSCL2 MSHR merge:          0
PSCL2 TOTAL     ACCESS:          0  HIT:          0  MISS:          0  HIT %:       -nan  MISS %:       -nan   MPKI: 0
PSCL2 PREFETCH  REQUESTED:          0  ISSUED:          0  USEFUL:          0  USELESS:          0
PSCL2 USEFUL LOAD PREFETCHES:          0 PREFETCH ISSUED TO LOWER LEVEL:          0  ACCURACY: -nan
PSCL2 TIMELY PREFETCHES:          0 LATE PREFETCHES: 0 DROPPED PREFETCHES: 0
PSCL2 COMMIT LATE PREFETCHES: 0 NORMAL LATE: 0 MISSED OPPORTUNITY: 0 UNCOVERED: 0
PSCL2 PREFETCHES SAME FILL-ORIGIN LEVEL: 0 DIFFERENT FILL-ORIGIN LEVEL: 0

LLC SPEC fills:          0  NON-SPEC fills:     246535
LLC Test counter :          0
LLC Leapfrog:          0
LLC MSHR merge:         13
LLC TOTAL     ACCESS:   23305209  HIT:    8823566  MISS:   14481643  HIT %:    37.8609  MISS %:    62.1391   MPKI: 72.4082
LLC LOAD      TOTAL       ACCESS:     429082  HIT:       6656  MISS:     422426  HIT %:    1.55122  MISS %:    98.4488   MPKI: 2.11213
LLC LOAD      NON_SPEC    ACCESS:     251285  HIT:       4725  MISS:     246560  HIT %:    1.88034  MISS %:    98.1197   MPKI: 1.2328
LLC LOAD      SPEC        ACCESS:     177797  HIT:       1931  MISS:     175866  HIT %:    1.08607  MISS %:    98.9139   MPKI: 0.87933
LLC RFO       NON_SPEC    ACCESS:        190  HIT:         32  MISS:        158  HIT %:    16.8421  MISS %:    83.1579   MPKI: 0.00079
LLC PREFETCH  NON_SPEC    ACCESS:   14006107  HIT:      57578  MISS:   13948529  HIT %:   0.411092  MISS %:    99.5889   MPKI: 69.7426
LLC WRITEBACK NON_SPEC    ACCESS:       5571  HIT:       5571  MISS:          0  HIT %:        100  MISS %:          0   MPKI: 0
LLC CLEAN_EVICTION NON_SPEC    ACCESS:    8801378  HIT:    8750151  MISS:      51227  HIT %:     99.418  MISS %:   0.582034   MPKI: 0.256135
LLC COMMIT LOAD NON_SPEC    ACCESS:        302  HIT:        247  MISS:         55  HIT %:    81.7881  MISS %:    18.2119   MPKI: 0.000275
LLC LOAD TRANSLATION NON_SPEC    ACCESS:      62579  HIT:       3331  MISS:      59248  HIT %:    5.32287  MISS %:    94.6771   MPKI: 0.29624
LLC PREFETCH  REQUESTED:          0  ISSUED:          0  USEFUL:       6513  USELESS:   13942267
LLC USEFUL LOAD PREFETCHES:       6513 PREFETCH ISSUED TO LOWER LEVEL:   13948547  ACCURACY: 0.046693
LLC TIMELY PREFETCHES:       6513 LATE PREFETCHES: 16 DROPPED PREFETCHES: 0
LLC COMMIT LATE PREFETCHES: 0 NORMAL LATE: 0 MISSED OPPORTUNITY: 0 UNCOVERED: 0
LLC PREFETCHES SAME FILL-ORIGIN LEVEL: 37791 DIFFERENT FILL-ORIGIN LEVEL: 0
LLC AVERAGE MISS LATENCY: 177.086 cycles
LLC AVERAGE MISS LATENCY LOAD: 170.354 cycles
LLC AVERAGE MISS LATENCY PREFETCH: 177.893 cycles
LLC AVERAGE MSHR OCCUPANCY: 0.899155
LLC MSHR FULL: 0
LLC RQ	ACCESS:     492153	FORWARD:          0	MERGED:          0	TO_CACHE:     492153
LLC WQ	ACCESS:    8806950	FORWARD:          0	MERGED:          0	TO_CACHE:    8806950
LLC PQ	ACCESS:   14007429	FORWARD:          0	MERGED:        426	TO_CACHE:   14007003

LLC Dense regions hint to LLC: 0

RAW hits: 22161
Loads Generated: 71787578
Loads sent to L1D: 71765416
Stores Generated: 2952864
Stores sent to L1D: 2952864
Major fault: 0 Minor fault: 49083
Allocated PAGES: 49083
Total Load insts: 89690755
Total Non-spec loads: 13983367
Percentage of speculative loads: 84.4094

LeapFrogging counter: 12
Commit hits: 13820552 miss: 44392074
Commit hit %: 23.7415 miss %: 76.2585
Commits not translated: 0
Loads retired: 14011077
Stores retired: 2952864
Cache fills: 14011077
L1D response latency: 58.3177 cycles
Load retirement latency: 69.6716 cycles
OOO test counter: 0
Discarded buffer inserts: 13820552 hits: 18467 hit %: 0.13362
Filter prediction accuracy: -nan
------------------
Depth Distribution
------------------
depth 0: 31829
depth 1: 9686
depth 2: 8144
depth 3: 7851
depth 4: 6735
depth 5: 6900
depth 6: 10869
depth 7: 30777
depth 8: 235907
depth 9: 3799289
depth 10: 2009609
depth 11: 9020334
depth 12: 1932145
depth 13: 253165
depth 14: 145046
depth 15: 325
depth 16: 103
depth 17: 34
depth 18: 14
depth 19: 1
depth 20: 0
depth 21: 0
depth 22: 1
depth 23: 0
depth 24: 1
depth 25: 0
depth 26: 0
depth 27: 0
depth 28: 0
depth 29: 1
Total: 17508766
------------------
ST read accesses: 13748450
ST write accesses: 262625
PT read accesses: 807269566
PT write accesses: 20538485
FILTER read accesses: 199748476
FILTER write accesses: 132210235
GHR read accesses: 78428051
GHR write accesses: 13831048
PERC read accesses: 5834893122
PERC write accesses: 152098730
GHR counter read accesses: 28022150
GHR counter write accesses: 44607603
GHR ip read accesses: 90226908
GHR ip write accesses: 56044300
ST tag read accesses: 5522553823
ST tag write accesses: 83794353
------------------
Depth Distribution
------------------
depth 0: 6374348
depth 1: 19134
depth 2: 276127
depth 3: 159579
depth 4: 724956
depth 5: 2742276
depth 6: 7210715
depth 7: 11759102
depth 8: 12018959
depth 9: 20335860
depth 10: 18053807
depth 11: 7603224
depth 12: 2199490
depth 13: 197597
depth 14: 39800
depth 15: 6501
depth 16: 2358
depth 17: 1056
depth 18: 324
depth 19: 64
depth 20: 14
depth 21: 2
depth 22: 1
depth 23: 0
depth 24: 0
depth 25: 0
depth 26: 0
depth 27: 0
depth 28: 0
depth 29: 0
Total: 89725294
------------------
ST read accesses: 71525165
ST write accesses: 262414
PT read accesses: 3290199923
PT write accesses: 76223827
FILTER read accesses: 841293218
FILTER write accesses: 61732557
GHR read accesses: 81009865
GHR write accesses: 16002266
PERC read accesses: 23802358023
PERC write accesses: 141050063
GHR counter read accesses: 143575158
GHR counter write accesses: 103629619
GHR ip read accesses: 272078307
GHR ip write accesses: 287150316
ST tag read accesses: 27607087050
ST tag write accesses: 159697565

DRAM Statistics
 CHANNEL 0
 RQ ROW_BUFFER_HIT:    1619898  ROW_BUFFER_MISS:   12810519
 DBUS_CONGESTED:       8197
 WQ ROW_BUFFER_HIT:    4557228  ROW_BUFFER_MISS:    4256921  FULL:          0

 AVG_CONGESTED_CYCLE: 5
 All warmup complete: 2
Channel 0 Bank busy for read cycles: 0
Channel 0 Bank busy for write cycles: 0
Channel 0
Rank 0
0banks busy for read cycles: 3378797
0banks busy for write cycles: 933
1banks busy for read cycles: 232428809
1banks busy for write cycles: 3168202
2banks busy for read cycles: 229147067
2banks busy for write cycles: 3097462
3banks busy for read cycles: 267117305
3banks busy for write cycles: 3045759
4banks busy for read cycles: 104332193
4banks busy for write cycles: 3060276
5banks busy for read cycles: 15165121
5banks busy for write cycles: 3148195
6banks busy for read cycles: 2362466
6banks busy for write cycles: 3618717
7banks busy for read cycles: 687718
7banks busy for write cycles: 17118444
8banks busy for read cycles: 132604
8banks busy for write cycles: 239387066

CPU 0 Branch Prediction Accuracy: 99.7034% MPKI: 1.05731 Average ROB Occupancy at Mispredict: 265.351
Branch types
NOT_BRANCH: 128713668 64.3568%
BRANCH_DIRECT_JUMP: 685292 0.342646%
BRANCH_INDIRECT: 0 0%
BRANCH_CONDITIONAL: 69924230 34.9621%
BRANCH_DIRECT_CALL: 338400 0.1692%
BRANCH_INDIRECT_CALL: 0 0%
BRANCH_RETURN: 338401 0.169201%
BRANCH_OTHER: 0 0%

DRAM PAGES: 1048576
Allocated PAGES: 49083
