Initialize SIGNATURE TABLE
ST_SET: 1
ST_WAY: 256
ST_TAG_BIT: 16
ST_TAG_MASK: ffff

Initialize PATTERN TABLE
PT_SET: 512
PT_WAY: 4
SIG_DELTA_BIT: 7
C_SIG_BIT: 4
C_DELTA_BIT: 4

Initialize PREFETCH FILTER
FILTER_SET: 1024

Initialize PERCEPTRON
PERC_ENTRIES: 4096
PERC_FEATURES: 9
Initialize SIGNATURE TABLE
ST_SET: 1
ST_WAY: 256
ST_TAG_BIT: 16
ST_TAG_MASK: ffff

Initialize PATTERN TABLE
PT_SET: 512
PT_WAY: 4
SIG_DELTA_BIT: 7
C_SIG_BIT: 4
C_DELTA_BIT: 4

Initialize PREFETCH FILTER
FILTER_SET: 1024

Initialize PERCEPTRON
PERC_ENTRIES: 4096
PERC_FEATURES: 9

*** ChampSim Multicore Out-of-Order Simulator ***

Warmup Instructions: 50000000
Simulation Instructions: 200000000
Number of CPUs: 1
LLC sets: 2048
LLC ways: 16
L0D sets: 16
L0D ways: 2
ROB size: 352
LQ size: 128
SQ size: 72
Secure Berti: OFF
Berti: OFF
Berti Fill: OFF
On commit prefetching: ON
Hit-based filter: OFF
Time-guarding: ON
Free-slotting: ON
Leap-frogging: ON
Train prefetcher on L0D bypass: OFF
No translation penalty for prefetchers: OFF
Prefetch to L0D only: OFF
Prefetch to L1D only: OFF
Clean evictions: ON
Commit loads: ON
Commit write: ON
Fill commit loads to L2C, LLC: ON
DRAM IO FREQUENCY: 6400
ROB SIZE: 352
Off-chip DRAM Size: 4096 MB Channels: 1 Width: 64-bit Data Rate: 6400 MT/s
CPU 0 runs /home/sumon/secure_berti/GhostMinion/../../traces/spec/603.bwaves_s-2931B.champsimtrace.xz
.xz
BTB has LRU replacement policy
ITLB has LRU replacement policy
DTLB has LRU replacement policy
STLB has LRU replacement policy
L1I has LRU replacement policy
L0D has LRU replacement policy
PERC_ENTRIES: 4096
L1D has LRU replacement policy
PERC_ENTRIES: 4096
L2C has LRU replacement policy
LLC has LRU replacement policy
Heartbeat CPU 0 instructions: 10000003 cycles: 3159062 heartbeat IPC: 3.1655 cumulative IPC: 3.1655 (Simulation time: 0 hr 2 min 55 sec) 
Heartbeat CPU 0 instructions: 20000003 cycles: 6317536 heartbeat IPC: 3.16609 cumulative IPC: 3.16579 (Simulation time: 0 hr 6 min 32 sec) 
Heartbeat CPU 0 instructions: 30000003 cycles: 9476233 heartbeat IPC: 3.16586 cumulative IPC: 3.16582 (Simulation time: 0 hr 10 min 19 sec) 
Heartbeat CPU 0 instructions: 40000002 cycles: 12635107 heartbeat IPC: 3.16568 cumulative IPC: 3.16578 (Simulation time: 0 hr 13 min 13 sec) 
Heartbeat CPU 0 instructions: 50000003 cycles: 15794287 heartbeat IPC: 3.16538 cumulative IPC: 3.1657 (Simulation time: 0 hr 15 min 23 sec) 

Warmup complete CPU 0 instructions: 50000003 cycles: 15794287 (Simulation time: 0 hr 15 min 23 sec) 

Heartbeat CPU 0 instructions: 60000002 cycles: 24215064 heartbeat IPC: 1.18754 cumulative IPC: 1.18754 (Simulation time: 0 hr 17 min 48 sec) 
Heartbeat CPU 0 instructions: 70000002 cycles: 32657768 heartbeat IPC: 1.18445 cumulative IPC: 1.18599 (Simulation time: 0 hr 20 min 14 sec) 
Heartbeat CPU 0 instructions: 80000003 cycles: 41117549 heartbeat IPC: 1.18206 cumulative IPC: 1.18468 (Simulation time: 0 hr 22 min 40 sec) 
Heartbeat CPU 0 instructions: 90000003 cycles: 49651486 heartbeat IPC: 1.17179 cumulative IPC: 1.18143 (Simulation time: 0 hr 25 min 6 sec) 
Heartbeat CPU 0 instructions: 100000002 cycles: 58171086 heartbeat IPC: 1.17376 cumulative IPC: 1.17989 (Simulation time: 0 hr 27 min 32 sec) 
Heartbeat CPU 0 instructions: 110000000 cycles: 66722540 heartbeat IPC: 1.16939 cumulative IPC: 1.17813 (Simulation time: 0 hr 29 min 59 sec) 
Heartbeat CPU 0 instructions: 120000000 cycles: 75249621 heartbeat IPC: 1.17273 cumulative IPC: 1.17735 (Simulation time: 0 hr 32 min 26 sec) 
Heartbeat CPU 0 instructions: 130000002 cycles: 83745163 heartbeat IPC: 1.17709 cumulative IPC: 1.17732 (Simulation time: 0 hr 34 min 54 sec) 
Heartbeat CPU 0 instructions: 140000002 cycles: 92231378 heartbeat IPC: 1.17838 cumulative IPC: 1.17744 (Simulation time: 0 hr 37 min 21 sec) 
Heartbeat CPU 0 instructions: 150000001 cycles: 100713135 heartbeat IPC: 1.179 cumulative IPC: 1.17759 (Simulation time: 0 hr 39 min 48 sec) 
Heartbeat CPU 0 instructions: 160000001 cycles: 109197250 heartbeat IPC: 1.17867 cumulative IPC: 1.17769 (Simulation time: 0 hr 42 min 14 sec) 
Heartbeat CPU 0 instructions: 170000003 cycles: 117659604 heartbeat IPC: 1.1817 cumulative IPC: 1.17803 (Simulation time: 0 hr 44 min 40 sec) 
Heartbeat CPU 0 instructions: 180000000 cycles: 126154761 heartbeat IPC: 1.17714 cumulative IPC: 1.17796 (Simulation time: 0 hr 47 min 5 sec) 
Heartbeat CPU 0 instructions: 190000000 cycles: 134631115 heartbeat IPC: 1.17975 cumulative IPC: 1.17809 (Simulation time: 0 hr 49 min 29 sec) 
Heartbeat CPU 0 instructions: 200000000 cycles: 143107955 heartbeat IPC: 1.17968 cumulative IPC: 1.17819 (Simulation time: 0 hr 51 min 49 sec) 
Heartbeat CPU 0 instructions: 210000003 cycles: 151568535 heartbeat IPC: 1.18195 cumulative IPC: 1.17843 (Simulation time: 0 hr 54 min 7 sec) 
Heartbeat CPU 0 instructions: 220000000 cycles: 160049516 heartbeat IPC: 1.17911 cumulative IPC: 1.17847 (Simulation time: 0 hr 56 min 25 sec) 
Heartbeat CPU 0 instructions: 230000000 cycles: 168542539 heartbeat IPC: 1.17744 cumulative IPC: 1.17841 (Simulation time: 0 hr 58 min 40 sec) 
Heartbeat CPU 0 instructions: 240000000 cycles: 177020640 heartbeat IPC: 1.17951 cumulative IPC: 1.17847 (Simulation time: 1 hr 0 min 50 sec) 
Heartbeat CPU 0 instructions: 250000001 cycles: 185502341 heartbeat IPC: 1.17901 cumulative IPC: 1.17849 (Simulation time: 1 hr 2 min 59 sec) 
Finished CPU 0 instructions: 200000002 cycles: 169708055 cumulative IPC: 1.17849 (Simulation time: 1 hr 2 min 59 sec) 
 Instruction ID: 250000064

ChampSim completed all CPUs

Region of Interest Statistics

CPU 0 cumulative IPC: 1.17849 instructions: 200000002 cycles: 169708055
ITLB SPEC fills:          0  NON-SPEC fills:          0
ITLB Test counter :          0
ITLB Leapfrog:          0
ITLB MSHR merge:          0
ITLB TOTAL     ACCESS:   24105320  HIT:   24105320  MISS:          0  HIT %:        100  MISS %:          0   MPKI: 0
ITLB LOAD TRANSLATION NON_SPEC    ACCESS:   24105320  HIT:   24105320  MISS:          0  HIT %:        100  MISS %:          0   MPKI: 0
ITLB PREFETCH  REQUESTED:          0  ISSUED:          0  USEFUL:          0  USELESS:          0
ITLB USEFUL LOAD PREFETCHES:          0 PREFETCH ISSUED TO LOWER LEVEL:          0  ACCURACY: -nan
ITLB TIMELY PREFETCHES:          0 LATE PREFETCHES: 0 DROPPED PREFETCHES: 0
ITLB COMMIT LATE PREFETCHES: 0 NORMAL LATE: 0 MISSED OPPORTUNITY: 0 UNCOVERED: 0
ITLB PREFETCHES SAME FILL-ORIGIN LEVEL: 0 DIFFERENT FILL-ORIGIN LEVEL: 0
ITLB AVERAGE MISS LATENCY: -nan cycles
ITLB AVERAGE MISS LATENCY LOAD: -nan cycles
ITLB AVERAGE MISS LATENCY PREFETCH: -nan cycles
ITLB AVERAGE MSHR OCCUPANCY: 0
ITLB MSHR FULL: 0
ITLB RQ	ACCESS:   27872023	FORWARD:          0	MERGED:    3766703	TO_CACHE:   24105320

DTLB SPEC fills:          0  NON-SPEC fills:          0
DTLB Test counter :          0
DTLB Leapfrog:          0
DTLB MSHR merge:          0
DTLB TOTAL     ACCESS:   53850509  HIT:   53413787  MISS:     436722  HIT %:     99.189  MISS %:    0.81099   MPKI: 2.18361
DTLB LOAD TRANSLATION NON_SPEC    ACCESS:   53850509  HIT:   53413787  MISS:     436722  HIT %:     99.189  MISS %:    0.81099   MPKI: 2.18361
DTLB PREFETCH  REQUESTED:          0  ISSUED:          0  USEFUL:          0  USELESS:          0
DTLB USEFUL LOAD PREFETCHES:          0 PREFETCH ISSUED TO LOWER LEVEL:          0  ACCURACY: -nan
DTLB TIMELY PREFETCHES:          0 LATE PREFETCHES: 0 DROPPED PREFETCHES: 0
DTLB COMMIT LATE PREFETCHES: 0 NORMAL LATE: 0 MISSED OPPORTUNITY: 0 UNCOVERED: 0
DTLB PREFETCHES SAME FILL-ORIGIN LEVEL: 0 DIFFERENT FILL-ORIGIN LEVEL: 0
DTLB AVERAGE MISS LATENCY: 57.8186 cycles
DTLB AVERAGE MISS LATENCY LOAD: -nan cycles
DTLB AVERAGE MISS LATENCY PREFETCH: -nan cycles
DTLB AVERAGE MSHR OCCUPANCY: 0.0684468
DTLB MSHR FULL: 2.41189e-07
DTLB RQ	ACCESS:   82092958	FORWARD:          0	MERGED:   28193375	TO_CACHE:   53899583

STLB SPEC fills:          0  NON-SPEC fills:          0
STLB Test counter :          0
STLB Leapfrog:          0
STLB MSHR merge:          0
STLB TOTAL     ACCESS:     436722  HIT:     394118  MISS:      42604  HIT %:    90.2446  MISS %:    9.75541   MPKI: 0.21302
STLB LOAD TRANSLATION NON_SPEC    ACCESS:     436722  HIT:     394118  MISS:      42604  HIT %:    90.2446  MISS %:    9.75541   MPKI: 0.21302
STLB PREFETCH  REQUESTED:          0  ISSUED:          0  USEFUL:          0  USELESS:          0
STLB USEFUL LOAD PREFETCHES:          0 PREFETCH ISSUED TO LOWER LEVEL:          0  ACCURACY: -nan
STLB TIMELY PREFETCHES:          0 LATE PREFETCHES: 0 DROPPED PREFETCHES: 0
STLB COMMIT LATE PREFETCHES: 0 NORMAL LATE: 0 MISSED OPPORTUNITY: 0 UNCOVERED: 0
STLB PREFETCHES SAME FILL-ORIGIN LEVEL: 0 DIFFERENT FILL-ORIGIN LEVEL: 0
STLB AVERAGE MISS LATENCY: 499.24 cycles
STLB AVERAGE MISS LATENCY LOAD: -nan cycles
STLB AVERAGE MISS LATENCY PREFETCH: -nan cycles
STLB AVERAGE MSHR OCCUPANCY: 0.178182
STLB MSHR FULL: 0
STLB RQ	ACCESS:     436722	FORWARD:          0	MERGED:          0	TO_CACHE:     436722

STLB Hit, L1D data hit: 0
STLB Hit, L2C data hit: 0
STLB Hit, LLC data hit: 0
STLB Hit, LLC data miss: 0
STLB STLB hints to L2: 0
L0D SPEC fills:   29015575  NON-SPEC fills:          0
L0D TimeGuard Request with older TS:     203623 Restricted eviction:    1450976 read:     137896
L0D Test counter :          0
L0D Leapfrog:          0
L0D MSHR merge:    1348793
L0D TOTAL     ACCESS:   44095107  HIT:    9442811  MISS:   34652296  HIT %:    21.4146  MISS %:    78.5854   MPKI: 173.261
L0D LOAD      TOTAL       ACCESS:   44095107  HIT:    9442811  MISS:   34652296  HIT %:    21.4146  MISS %:    78.5854   MPKI: 173.261
L0D LOAD      NON_SPEC    ACCESS:    5088853  HIT:     903024  MISS:    4185829  HIT %:    17.7451  MISS %:    82.2549   MPKI: 20.9291
L0D LOAD      SPEC        ACCESS:   39006254  HIT:    8539787  MISS:   30466467  HIT %:    21.8934  MISS %:    78.1066   MPKI: 152.332
L0D PREFETCH  REQUESTED:          0  ISSUED:          0  USEFUL:          0  USELESS:          0
L0D USEFUL LOAD PREFETCHES:          0 PREFETCH ISSUED TO LOWER LEVEL:          0  ACCURACY: -nan
L0D TIMELY PREFETCHES:          0 LATE PREFETCHES: 0 DROPPED PREFETCHES: 0
L0D COMMIT LATE PREFETCHES: 0 NORMAL LATE: 0 MISSED OPPORTUNITY: 0 UNCOVERED: 0
L0D PREFETCHES SAME FILL-ORIGIN LEVEL: 0 DIFFERENT FILL-ORIGIN LEVEL: 0
L0D AVERAGE MISS LATENCY: 6.17496 cycles
L0D AVERAGE MISS LATENCY LOAD: 6.17496 cycles
L0D AVERAGE MISS LATENCY PREFETCH: -nan cycles
L0D AVERAGE MSHR OCCUPANCY: 1.21853
L0D MSHR FULL: 5.54066e-05
L0D RQ	ACCESS:   57314450	FORWARD:          0	MERGED:   11870552	TO_CACHE:   45443898
L0D WQ	ACCESS:   36649060	FORWARD:          0	MERGED:          0	TO_CACHE:   36649060

L1D SPEC fills:          0  NON-SPEC fills:      21995
L1D Test counter :          0
L1D Leapfrog:          0
L1D MSHR merge:       4629
L1D TOTAL     ACCESS:  106388332  HIT:  101075337  MISS:    5312995  HIT %:     95.006  MISS %:    4.99396   MPKI: 26.565
L1D LOAD      TOTAL       ACCESS:   34647667  HIT:   32580634  MISS:    2067033  HIT %:    94.0341  MISS %:    5.96586   MPKI: 10.3352
L1D LOAD      NON_SPEC    ACCESS:    4185829  HIT:    4163834  MISS:      21995  HIT %:    99.4745  MISS %:   0.525463   MPKI: 0.109975
L1D LOAD      SPEC        ACCESS:   30461838  HIT:   28416800  MISS:    2045038  HIT %:    93.2866  MISS %:    6.71344   MPKI: 10.2252
L1D RFO       NON_SPEC    ACCESS:   30946606  HIT:   29748914  MISS:    1197692  HIT %:    96.1298  MISS %:    3.87019   MPKI: 5.98846
L1D COMMIT LOAD NON_SPEC    ACCESS:   11968177  HIT:   11913805  MISS:      54372  HIT %:    99.5457  MISS %:   0.454305   MPKI: 0.27186
L1D COMMIT WRITE NON_SPEC    ACCESS:   28825882  HIT:   26831984  MISS:    1993898  HIT %:     93.083  MISS %:    6.91704   MPKI: 9.96949
L1D PREFETCH  REQUESTED:          0  ISSUED:          0  USEFUL:          0  USELESS:          0
L1D USEFUL LOAD PREFETCHES:          0 PREFETCH ISSUED TO LOWER LEVEL:          0  ACCURACY: -nan
L1D TIMELY PREFETCHES:          0 LATE PREFETCHES: 0 DROPPED PREFETCHES: 0
L1D COMMIT LATE PREFETCHES: 0 NORMAL LATE: 0 MISSED OPPORTUNITY: 0 UNCOVERED: 2067418
L1D PREFETCHES SAME FILL-ORIGIN LEVEL: 0 DIFFERENT FILL-ORIGIN LEVEL: 0
L1D AVERAGE MISS LATENCY: 146.545 cycles
L1D AVERAGE MISS LATENCY LOAD: 16.6649 cycles
L1D AVERAGE MISS LATENCY PREFETCH: -nan cycles
L1D AVERAGE MSHR OCCUPANCY: 4.76935
L1D MSHR FULL: 1.15613e-05
L1D RQ	ACCESS:   57786979	FORWARD:          0	MERGED:   11166114	TO_CACHE:   46620860
L1D WQ	ACCESS:   65474984	FORWARD:          5	MERGED:     327647	TO_CACHE:   65147337

L1D UNIQUE REGIONS ACCESSED: 0
L1D REGIONS CONFLICTS: 0
L1D Cross Page Prefetch Requests: 0
L1D Same Page Prefetch Requests: 0
L1D ROI Sum of L1D PQ occupancy: 0
L1D PREFETCHES PUSHED FROM L2C: 0
L1I SPEC fills:          0  NON-SPEC fills:          0
L1I Test counter :          0
L1I Leapfrog:          0
L1I MSHR merge:          0
L1I TOTAL     ACCESS:   27872021  HIT:   27872021  MISS:          0  HIT %:        100  MISS %:          0   MPKI: 0
L1I LOAD      TOTAL       ACCESS:   27872021  HIT:   27872021  MISS:          0  HIT %:        100  MISS %:          0   MPKI: 0
L1I LOAD      NON_SPEC    ACCESS:   27872021  HIT:   27872021  MISS:          0  HIT %:        100  MISS %:          0   MPKI: 0
L1I PREFETCH  REQUESTED:          0  ISSUED:          0  USEFUL:          0  USELESS:          0
L1I USEFUL LOAD PREFETCHES:          0 PREFETCH ISSUED TO LOWER LEVEL:          0  ACCURACY: -nan
L1I TIMELY PREFETCHES:          0 LATE PREFETCHES: 0 DROPPED PREFETCHES: 0
L1I COMMIT LATE PREFETCHES: 0 NORMAL LATE: 0 MISSED OPPORTUNITY: 0 UNCOVERED: 0
L1I PREFETCHES SAME FILL-ORIGIN LEVEL: 0 DIFFERENT FILL-ORIGIN LEVEL: 0
L1I AVERAGE MISS LATENCY: -nan cycles
L1I AVERAGE MISS LATENCY LOAD: -nan cycles
L1I AVERAGE MISS LATENCY PREFETCH: -nan cycles
L1I AVERAGE MSHR OCCUPANCY: 0
L1I MSHR FULL: 0
L1I RQ	ACCESS:   40751039	FORWARD:          0	MERGED:   12879016	TO_CACHE:   27872023

BTB SPEC fills:          0  NON-SPEC fills:          0
BTB Test counter :          0
BTB Leapfrog:          0
BTB MSHR merge:          0
BTB TOTAL     ACCESS:    1687994  HIT:    1687989  MISS:          5  HIT %:    99.9997  MISS %: 0.00029621   MPKI: 2.5e-05
BTB BRANCH_DIRECT_JUMP	ACCESS:          0  HIT:          0  MISS:          0
BTB BRANCH_INDIRECT	ACCESS:          0  HIT:          0  MISS:          0
BTB BRANCH_CONDITIONAL	ACCESS:    1687994  HIT:    1687989  MISS:          5
BTB BRANCH_DIRECT_CALL	ACCESS:          0  HIT:          0  MISS:          0
BTB BRANCH_INDIRECT_CALL	ACCESS:          0  HIT:          0  MISS:          0
BTB BRANCH_RETURN	ACCESS:          0  HIT:          0  MISS:          0
BTB BRANCH_OTHER ACCESS:          0  HIT:          0  MISS:          0

L2C SPEC fills:          0  NON-SPEC fills:        940
L2C Test counter :          0
L2C Leapfrog:          0
L2C MSHR merge:       5261
L2C TOTAL     ACCESS:   13488041  HIT:   10518954  MISS:    2969087  HIT %:    77.9873  MISS %:    22.0127   MPKI: 14.8454
L2C LOAD      TOTAL       ACCESS:    2066114  HIT:    2017120  MISS:      48994  HIT %:    97.6287  MISS %:    2.37131   MPKI: 0.24497
L2C LOAD      NON_SPEC    ACCESS:      21972  HIT:      21032  MISS:        940  HIT %:    95.7218  MISS %:    4.27817   MPKI: 0.0047
L2C LOAD      SPEC        ACCESS:    2044142  HIT:    1996088  MISS:      48054  HIT %:    97.6492  MISS %:    2.35082   MPKI: 0.24027
L2C RFO       NON_SPEC    ACCESS:    1193788  HIT:       3021  MISS:    1190767  HIT %:    0.25306  MISS %:    99.7469   MPKI: 5.95383
L2C PREFETCH  NON_SPEC    ACCESS:    6703749  HIT:    5010255  MISS:    1693494  HIT %:    74.7381  MISS %:    25.2619   MPKI: 8.46747
L2C WRITEBACK NON_SPEC    ACCESS:    1197987  HIT:    1197987  MISS:          0  HIT %:        100  MISS %:          0   MPKI: 0
L2C CLEAN_EVICTION NON_SPEC    ACCESS:    2059634  HIT:    2029369  MISS:      30265  HIT %:    98.5306  MISS %:    1.46944   MPKI: 0.151325
L2C COMMIT LOAD NON_SPEC    ACCESS:      53822  HIT:      53633  MISS:        189  HIT %:    99.6488  MISS %:   0.351158   MPKI: 0.000945
L2C LOAD TRANSLATION NON_SPEC    ACCESS:     212947  HIT:     207569  MISS:       5378  HIT %:    97.4745  MISS %:    2.52551   MPKI: 0.02689
L2C PREFETCH  REQUESTED:    6848775  ISSUED:    6848703  USEFUL:    1675551  USELESS:      17934
L2C USEFUL LOAD PREFETCHES:    1675551 PREFETCH ISSUED TO LOWER LEVEL:    1716648  ACCURACY: 97.606
L2C TIMELY PREFETCHES:    1675551 LATE PREFETCHES: 5262 DROPPED PREFETCHES: 0
L2C COMMIT LATE PREFETCHES: 11 NORMAL LATE: 5342 MISSED OPPORTUNITY: 56 UNCOVERED: 43586
L2C PREFETCHES SAME FILL-ORIGIN LEVEL: 1698762 DIFFERENT FILL-ORIGIN LEVEL: 17886
L2C AVERAGE MISS LATENCY: 448.047 cycles
L2C AVERAGE MISS LATENCY LOAD: 231.962 cycles
L2C AVERAGE MISS LATENCY PREFETCH: 349.634 cycles
L2C AVERAGE MSHR OCCUPANCY: 7.07776
L2C MSHR FULL: 0.000285174
L2C RQ	ACCESS:    3532047	FORWARD:          0	MERGED:          0	TO_CACHE:    3526674
L2C WQ	ACCESS:    3257627	FORWARD:       5544	MERGED:          6	TO_CACHE:    3257621
L2C PQ	ACCESS:    6848703	FORWARD:          0	MERGED:      78579	TO_CACHE:    6769953

L2C Instructions Evicting Data 0
L2C Translations Evicting Data 5377
L2C Data Evicting Data 2880057
L2C Instructions Evicting Instructions 0
L2C Translations Evicting Instructions 0
L2C Data Evicting Instructions 0
L2C Instructions Evicting Translations 0
L2C Translations Evicting Translations 1
L2C Data Evicting Translations 5333
L2C Dense regions hint from L2: 0
PSCL5 SPEC fills:          0  NON-SPEC fills:          0
PSCL5 Test counter :          0
PSCL5 Leapfrog:          0
PSCL5 MSHR merge:          0
PSCL5 TOTAL     ACCESS:          0  HIT:          0  MISS:          0  HIT %:       -nan  MISS %:       -nan   MPKI: 0
PSCL5 PREFETCH  REQUESTED:          0  ISSUED:          0  USEFUL:          0  USELESS:          0
PSCL5 USEFUL LOAD PREFETCHES:          0 PREFETCH ISSUED TO LOWER LEVEL:          0  ACCURACY: -nan
PSCL5 TIMELY PREFETCHES:          0 LATE PREFETCHES: 0 DROPPED PREFETCHES: 0
PSCL5 COMMIT LATE PREFETCHES: 0 NORMAL LATE: 0 MISSED OPPORTUNITY: 0 UNCOVERED: 0
PSCL5 PREFETCHES SAME FILL-ORIGIN LEVEL: 0 DIFFERENT FILL-ORIGIN LEVEL: 0

PSCL4 SPEC fills:          0  NON-SPEC fills:          0
PSCL4 Test counter :          0
PSCL4 Leapfrog:          0
PSCL4 MSHR merge:          0
PSCL4 TOTAL     ACCESS:          0  HIT:          0  MISS:          0  HIT %:       -nan  MISS %:       -nan   MPKI: 0
PSCL4 PREFETCH  REQUESTED:          0  ISSUED:          0  USEFUL:          0  USELESS:          0
PSCL4 USEFUL LOAD PREFETCHES:          0 PREFETCH ISSUED TO LOWER LEVEL:          0  ACCURACY: -nan
PSCL4 TIMELY PREFETCHES:          0 LATE PREFETCHES: 0 DROPPED PREFETCHES: 0
PSCL4 COMMIT LATE PREFETCHES: 0 NORMAL LATE: 0 MISSED OPPORTUNITY: 0 UNCOVERED: 0
PSCL4 PREFETCHES SAME FILL-ORIGIN LEVEL: 0 DIFFERENT FILL-ORIGIN LEVEL: 0

PSCL3 SPEC fills:          0  NON-SPEC fills:          0
PSCL3 Test counter :          0
PSCL3 Leapfrog:          0
PSCL3 MSHR merge:          0
PSCL3 TOTAL     ACCESS:          0  HIT:          0  MISS:          0  HIT %:       -nan  MISS %:       -nan   MPKI: 0
PSCL3 PREFETCH  REQUESTED:          0  ISSUED:          0  USEFUL:          0  USELESS:          0
PSCL3 USEFUL LOAD PREFETCHES:          0 PREFETCH ISSUED TO LOWER LEVEL:          0  ACCURACY: -nan
PSCL3 TIMELY PREFETCHES:          0 LATE PREFETCHES: 0 DROPPED PREFETCHES: 0
PSCL3 COMMIT LATE PREFETCHES: 0 NORMAL LATE: 0 MISSED OPPORTUNITY: 0 UNCOVERED: 0
PSCL3 PREFETCHES SAME FILL-ORIGIN LEVEL: 0 DIFFERENT FILL-ORIGIN LEVEL: 0

PSCL2 SPEC fills:          0  NON-SPEC fills:          0
PSCL2 Test counter :          0
PSCL2 Leapfrog:          0
PSCL2 MSHR merge:          0
PSCL2 TOTAL     ACCESS:          0  HIT:          0  MISS:          0  HIT %:       -nan  MISS %:       -nan   MPKI: 0
PSCL2 PREFETCH  REQUESTED:          0  ISSUED:          0  USEFUL:          0  USELESS:          0
PSCL2 USEFUL LOAD PREFETCHES:          0 PREFETCH ISSUED TO LOWER LEVEL:          0  ACCURACY: -nan
PSCL2 TIMELY PREFETCHES:          0 LATE PREFETCHES: 0 DROPPED PREFETCHES: 0
PSCL2 COMMIT LATE PREFETCHES: 0 NORMAL LATE: 0 MISSED OPPORTUNITY: 0 UNCOVERED: 0
PSCL2 PREFETCHES SAME FILL-ORIGIN LEVEL: 0 DIFFERENT FILL-ORIGIN LEVEL: 0

LLC SPEC fills:          0  NON-SPEC fills:        879
LLC Test counter :          0
LLC Leapfrog:          0
LLC MSHR merge:          0
LLC TOTAL     ACCESS:    5866934  HIT:    3096519  MISS:    2770415  HIT %:    52.7792  MISS %:    47.2208   MPKI: 13.8521
LLC LOAD      TOTAL       ACCESS:      43733  HIT:       4512  MISS:      39221  HIT %:    10.3172  MISS %:    89.6828   MPKI: 0.196105
LLC LOAD      NON_SPEC    ACCESS:        890  HIT:         11  MISS:        879  HIT %:    1.23596  MISS %:     98.764   MPKI: 0.004395
LLC LOAD      SPEC        ACCESS:      42843  HIT:       4501  MISS:      38342  HIT %:    10.5058  MISS %:    89.4942   MPKI: 0.19171
LLC RFO       NON_SPEC    ACCESS:    1190767  HIT:          0  MISS:    1190767  HIT %:          0  MISS %:        100   MPKI: 5.95383
LLC PREFETCH  NON_SPEC    ACCESS:    1714686  HIT:     203946  MISS:    1510740  HIT %:    11.8941  MISS %:    88.1059   MPKI: 7.5537
LLC WRITEBACK NON_SPEC    ACCESS:    1190932  HIT:    1190930  MISS:          2  HIT %:    99.9998  MISS %: 0.000167936   MPKI: 1e-05
LLC CLEAN_EVICTION NON_SPEC    ACCESS:    1721250  HIT:    1697013  MISS:      24237  HIT %:    98.5919  MISS %:     1.4081   MPKI: 0.121185
LLC COMMIT LOAD NON_SPEC    ACCESS:        188  HIT:         84  MISS:        104  HIT %:    44.6809  MISS %:    55.3191   MPKI: 0.00052
LLC LOAD TRANSLATION NON_SPEC    ACCESS:       5378  HIT:         34  MISS:       5344  HIT %:   0.632205  MISS %:    99.3678   MPKI: 0.02672
LLC PREFETCH  REQUESTED:          0  ISSUED:          0  USEFUL:       1473  USELESS:    1509105
LLC USEFUL LOAD PREFETCHES:       1473 PREFETCH ISSUED TO LOWER LEVEL:    1510746  ACCURACY: 0.0975015
LLC TIMELY PREFETCHES:       1473 LATE PREFETCHES: 0 DROPPED PREFETCHES: 0
LLC COMMIT LATE PREFETCHES: 0 NORMAL LATE: 0 MISSED OPPORTUNITY: 0 UNCOVERED: 0
LLC PREFETCHES SAME FILL-ORIGIN LEVEL: 921 DIFFERENT FILL-ORIGIN LEVEL: 0
LLC AVERAGE MISS LATENCY: 449.194 cycles
LLC AVERAGE MISS LATENCY LOAD: 220.672 cycles
LLC AVERAGE MISS LATENCY PREFETCH: 361.227 cycles
LLC AVERAGE MSHR OCCUPANCY: 9.20979
LLC MSHR FULL: 0
LLC RQ	ACCESS:    1240069	FORWARD:          0	MERGED:          0	TO_CACHE:    1240069
LLC WQ	ACCESS:    2912182	FORWARD:          1	MERGED:          0	TO_CACHE:    2912182
LLC PQ	ACCESS:    1716648	FORWARD:          0	MERGED:          9	TO_CACHE:    1716638

LLC Dense regions hint to LLC: 0

RAW hits: 1331489
Loads Generated: 58645943
Loads sent to L1D: 57314450
Stores Generated: 36649052
Stores sent to L1D: 36649060
Major fault: 0 Minor fault: 48769
Allocated PAGES: 48769
Total Load insts: 68354244
Total Non-spec loads: 6094651
Percentage of speculative loads: 91.0837

LeapFrogging counter: 1131
Commit hits: 28825917 miss: 23134685
Commit hit %: 55.4765 miss %: 44.5235
Commits not translated: 0
Loads retired: 2067033
Stores retired: 36649060
Cache fills: 2067033
L1D response latency: 16.6649 cycles
Load retirement latency: 47.179 cycles
OOO test counter: 0
Discarded buffer inserts: 28825917 hits: 8428 hit %: 0.0292376
Filter prediction accuracy: -nan
------------------
Depth Distribution
------------------
depth 0: 16040
depth 1: 6171
depth 2: 6345
depth 3: 16927
depth 4: 501024
depth 5: 2063219
depth 6: 4990
depth 7: 39
depth 8: 0
depth 9: 0
depth 10: 0
depth 11: 0
depth 12: 0
depth 13: 0
depth 14: 0
depth 15: 0
depth 16: 0
depth 17: 0
depth 18: 0
depth 19: 0
depth 20: 0
depth 21: 0
depth 22: 0
depth 23: 0
depth 24: 0
depth 25: 0
depth 26: 0
depth 27: 0
depth 28: 0
depth 29: 0
Total: 2614755
------------------
ST read accesses: 2042256
ST write accesses: 23858
PT read accesses: 59661415
PT write accesses: 3052950
FILTER read accesses: 47766874
FILTER write accesses: 77530074
GHR read accesses: 3264324
GHR write accesses: 511824
PERC read accesses: 441841905
PERC write accesses: 34209932
GHR counter read accesses: 4132228
GHR counter write accesses: 7380640
GHR ip read accesses: 14971464
GHR ip write accesses: 8264456
ST tag read accesses: 807161716
ST tag write accesses: 27729843
------------------
Depth Distribution
------------------
depth 0: 6990274
depth 1: 4516203
depth 2: 3561148
depth 3: 5712620
depth 4: 45513549
depth 5: 6331316
depth 6: 627223
depth 7: 53185
depth 8: 1922
depth 9: 15
depth 10: 4
depth 11: 3
depth 12: 0
depth 13: 0
depth 14: 0
depth 15: 0
depth 16: 0
depth 17: 0
depth 18: 0
depth 19: 0
depth 20: 0
depth 21: 0
depth 22: 0
depth 23: 0
depth 24: 0
depth 25: 0
depth 26: 0
depth 27: 0
depth 28: 0
depth 29: 0
Total: 73307462
------------------
ST read accesses: 58622114
ST write accesses: 23855
PT read accesses: 1305833230
PT write accesses: 38299712
FILTER read accesses: 220734850
FILTER write accesses: 16195495
GHR read accesses: 738975963
GHR write accesses: 96941205
PERC read accesses: 9478069128
PERC write accesses: 32056312
GHR counter read accesses: 117291938
GHR counter write accesses: 66981372
GHR ip read accesses: 199289841
GHR ip write accesses: 234583876
ST tag read accesses: 17383516988
ST tag write accesses: 289938441

DRAM Statistics
 CHANNEL 0
 RQ ROW_BUFFER_HIT:    1032992  ROW_BUFFER_MISS:    1713184
 DBUS_CONGESTED:       3703
 WQ ROW_BUFFER_HIT:     621480  ROW_BUFFER_MISS:    2103914  FULL:          0

 AVG_CONGESTED_CYCLE: 4
 All warmup complete: 2
Channel 0 Bank busy for read cycles: 0
Channel 0 Bank busy for write cycles: 0
Channel 0
Rank 0
0banks busy for read cycles: 292308
0banks busy for write cycles: 0
1banks busy for read cycles: 19433847
1banks busy for write cycles: 321098
2banks busy for read cycles: 24946358
2banks busy for write cycles: 322083
3banks busy for read cycles: 21570849
3banks busy for write cycles: 324786
4banks busy for read cycles: 19567046
4banks busy for write cycles: 335130
5banks busy for read cycles: 13075250
5banks busy for write cycles: 370911
6banks busy for read cycles: 6837147
6banks busy for write cycles: 513733
7banks busy for read cycles: 2238496
7banks busy for write cycles: 4047446
8banks busy for read cycles: 284740
8banks busy for write cycles: 55226828

CPU 0 Branch Prediction Accuracy: 99.9697% MPKI: 0.00256 Average ROB Occupancy at Mispredict: 56.4043
Branch types
NOT_BRANCH: 198311676 99.1558%
BRANCH_DIRECT_JUMP: 0 0%
BRANCH_INDIRECT: 0 0%
BRANCH_CONDITIONAL: 1688003 0.844001%
BRANCH_DIRECT_CALL: 0 0%
BRANCH_INDIRECT_CALL: 0 0%
BRANCH_RETURN: 0 0%
BRANCH_OTHER: 0 0%

DRAM PAGES: 1048576
Allocated PAGES: 48769
