Initialize SIGNATURE TABLE
ST_SET: 1
ST_WAY: 256
ST_TAG_BIT: 16
ST_TAG_MASK: ffff

Initialize PATTERN TABLE
PT_SET: 512
PT_WAY: 4
SIG_DELTA_BIT: 7
C_SIG_BIT: 4
C_DELTA_BIT: 4

Initialize PREFETCH FILTER
FILTER_SET: 1024

Initialize PERCEPTRON
PERC_ENTRIES: 4096
PERC_FEATURES: 9
Initialize SIGNATURE TABLE
ST_SET: 1
ST_WAY: 256
ST_TAG_BIT: 16
ST_TAG_MASK: ffff

Initialize PATTERN TABLE
PT_SET: 512
PT_WAY: 4
SIG_DELTA_BIT: 7
C_SIG_BIT: 4
C_DELTA_BIT: 4

Initialize PREFETCH FILTER
FILTER_SET: 1024

Initialize PERCEPTRON
PERC_ENTRIES: 4096
PERC_FEATURES: 9

*** ChampSim Multicore Out-of-Order Simulator ***

Warmup Instructions: 50000000
Simulation Instructions: 200000000
Number of CPUs: 1
LLC sets: 2048
LLC ways: 16
L0D sets: 16
L0D ways: 2
ROB size: 352
LQ size: 128
SQ size: 72
Secure Berti: OFF
Berti: OFF
Berti Fill: OFF
On commit prefetching: ON
Hit-based filter: OFF
Time-guarding: ON
Free-slotting: ON
Leap-frogging: ON
Train prefetcher on L0D bypass: OFF
No translation penalty for prefetchers: OFF
Prefetch to L0D only: OFF
Prefetch to L1D only: OFF
Clean evictions: ON
Commit loads: ON
Commit write: ON
Fill commit loads to L2C, LLC: ON
DRAM IO FREQUENCY: 6400
ROB SIZE: 352
Off-chip DRAM Size: 4096 MB Channels: 1 Width: 64-bit Data Rate: 6400 MT/s
CPU 0 runs /home/sumon/secure_berti/GhostMinion/../../traces/spec/605.mcf_s-1536B.champsimtrace.xz
.xz
BTB has LRU replacement policy
ITLB has LRU replacement policy
DTLB has LRU replacement policy
STLB has LRU replacement policy
L1I has LRU replacement policy
L0D has LRU replacement policy
PERC_ENTRIES: 4096
L1D has LRU replacement policy
PERC_ENTRIES: 4096
L2C has LRU replacement policy
LLC has LRU replacement policy
Heartbeat CPU 0 instructions: 10000003 cycles: 4501659 heartbeat IPC: 2.2214 cumulative IPC: 2.2214 (Simulation time: 0 hr 1 min 51 sec) 
Heartbeat CPU 0 instructions: 20000003 cycles: 8976952 heartbeat IPC: 2.23449 cumulative IPC: 2.22793 (Simulation time: 0 hr 3 min 53 sec) 
Heartbeat CPU 0 instructions: 30000001 cycles: 13499551 heartbeat IPC: 2.21112 cumulative IPC: 2.2223 (Simulation time: 0 hr 6 min 3 sec) 
Heartbeat CPU 0 instructions: 40000002 cycles: 18056508 heartbeat IPC: 2.19445 cumulative IPC: 2.21527 (Simulation time: 0 hr 8 min 16 sec) 
Heartbeat CPU 0 instructions: 50000003 cycles: 22641744 heartbeat IPC: 2.18091 cumulative IPC: 2.20831 (Simulation time: 0 hr 10 min 33 sec) 

Warmup complete CPU 0 instructions: 50000003 cycles: 22641744 (Simulation time: 0 hr 10 min 33 sec) 

Heartbeat CPU 0 instructions: 60000003 cycles: 66910356 heartbeat IPC: 0.225894 cumulative IPC: 0.225894 (Simulation time: 0 hr 14 min 25 sec) 
Heartbeat CPU 0 instructions: 70000003 cycles: 112979123 heartbeat IPC: 0.217067 cumulative IPC: 0.221392 (Simulation time: 0 hr 18 min 19 sec) 
Heartbeat CPU 0 instructions: 80000001 cycles: 162313331 heartbeat IPC: 0.202699 cumulative IPC: 0.21479 (Simulation time: 0 hr 22 min 22 sec) 
Heartbeat CPU 0 instructions: 90000000 cycles: 208260820 heartbeat IPC: 0.21764 cumulative IPC: 0.215495 (Simulation time: 0 hr 26 min 22 sec) 
Heartbeat CPU 0 instructions: 100000002 cycles: 253118500 heartbeat IPC: 0.222927 cumulative IPC: 0.216942 (Simulation time: 0 hr 30 min 18 sec) 
Heartbeat CPU 0 instructions: 110000000 cycles: 297695555 heartbeat IPC: 0.224331 cumulative IPC: 0.218139 (Simulation time: 0 hr 34 min 12 sec) 
Heartbeat CPU 0 instructions: 120000000 cycles: 342902668 heartbeat IPC: 0.221204 cumulative IPC: 0.218572 (Simulation time: 0 hr 38 min 8 sec) 
Heartbeat CPU 0 instructions: 130000003 cycles: 387943181 heartbeat IPC: 0.222022 cumulative IPC: 0.218997 (Simulation time: 0 hr 42 min 2 sec) 
Heartbeat CPU 0 instructions: 140000000 cycles: 433935721 heartbeat IPC: 0.217426 cumulative IPC: 0.218822 (Simulation time: 0 hr 45 min 59 sec) 
Heartbeat CPU 0 instructions: 150000000 cycles: 482795137 heartbeat IPC: 0.204669 cumulative IPC: 0.217319 (Simulation time: 0 hr 49 min 58 sec) 
Heartbeat CPU 0 instructions: 160000000 cycles: 529431750 heartbeat IPC: 0.214424 cumulative IPC: 0.217052 (Simulation time: 0 hr 53 min 44 sec) 
Heartbeat CPU 0 instructions: 170000002 cycles: 577082955 heartbeat IPC: 0.209858 cumulative IPC: 0.216434 (Simulation time: 0 hr 57 min 30 sec) 
Heartbeat CPU 0 instructions: 180000002 cycles: 624670906 heartbeat IPC: 0.210137 cumulative IPC: 0.215936 (Simulation time: 1 hr 1 min 1 sec) 
Heartbeat CPU 0 instructions: 190000000 cycles: 674717699 heartbeat IPC: 0.199813 cumulative IPC: 0.214699 (Simulation time: 1 hr 4 min 28 sec) 
Heartbeat CPU 0 instructions: 200000003 cycles: 722020603 heartbeat IPC: 0.211404 cumulative IPC: 0.214476 (Simulation time: 1 hr 7 min 56 sec) 
Heartbeat CPU 0 instructions: 210000000 cycles: 772108511 heartbeat IPC: 0.199649 cumulative IPC: 0.213485 (Simulation time: 1 hr 11 min 28 sec) 
Heartbeat CPU 0 instructions: 220000000 cycles: 819503633 heartbeat IPC: 0.210992 cumulative IPC: 0.213337 (Simulation time: 1 hr 14 min 54 sec) 
Heartbeat CPU 0 instructions: 230000000 cycles: 871589201 heartbeat IPC: 0.191992 cumulative IPC: 0.212027 (Simulation time: 1 hr 18 min 28 sec) 
Heartbeat CPU 0 instructions: 240000002 cycles: 922675984 heartbeat IPC: 0.195745 cumulative IPC: 0.211103 (Simulation time: 1 hr 22 min 0 sec) 
Heartbeat CPU 0 instructions: 250000001 cycles: 971074694 heartbeat IPC: 0.206617 cumulative IPC: 0.210874 (Simulation time: 1 hr 25 min 28 sec) 
Finished CPU 0 instructions: 200000002 cycles: 948432951 cumulative IPC: 0.210874 (Simulation time: 1 hr 25 min 28 sec) 
 Instruction ID: 250000381

ChampSim completed all CPUs

Region of Interest Statistics

CPU 0 cumulative IPC: 0.210874 instructions: 200000002 cycles: 948432951
ITLB SPEC fills:          0  NON-SPEC fills:          0
ITLB Test counter :          0
ITLB Leapfrog:          0
ITLB MSHR merge:          0
ITLB TOTAL     ACCESS:   37848978  HIT:   37848978  MISS:          0  HIT %:        100  MISS %:          0   MPKI: 0
ITLB LOAD TRANSLATION NON_SPEC    ACCESS:   37848978  HIT:   37848978  MISS:          0  HIT %:        100  MISS %:          0   MPKI: 0
ITLB PREFETCH  REQUESTED:          0  ISSUED:          0  USEFUL:          0  USELESS:          0
ITLB USEFUL LOAD PREFETCHES:          0 PREFETCH ISSUED TO LOWER LEVEL:          0  ACCURACY: -nan
ITLB TIMELY PREFETCHES:          0 LATE PREFETCHES: 0 DROPPED PREFETCHES: 0
ITLB COMMIT LATE PREFETCHES: 0 NORMAL LATE: 0 MISSED OPPORTUNITY: 0 UNCOVERED: 0
ITLB PREFETCHES SAME FILL-ORIGIN LEVEL: 0 DIFFERENT FILL-ORIGIN LEVEL: 0
ITLB AVERAGE MISS LATENCY: -nan cycles
ITLB AVERAGE MISS LATENCY LOAD: -nan cycles
ITLB AVERAGE MISS LATENCY PREFETCH: -nan cycles
ITLB AVERAGE MSHR OCCUPANCY: 0
ITLB MSHR FULL: 0
ITLB RQ	ACCESS:   39090316	FORWARD:          0	MERGED:    1241338	TO_CACHE:   37848978

DTLB SPEC fills:          0  NON-SPEC fills:          0
DTLB Test counter :          0
DTLB Leapfrog:          0
DTLB MSHR merge:          0
DTLB TOTAL     ACCESS:   33637627  HIT:   28763283  MISS:    4874344  HIT %:    85.5093  MISS %:    14.4907   MPKI: 24.3717
DTLB LOAD TRANSLATION NON_SPEC    ACCESS:   33637627  HIT:   28763283  MISS:    4874344  HIT %:    85.5093  MISS %:    14.4907   MPKI: 24.3717
DTLB PREFETCH  REQUESTED:          0  ISSUED:          0  USEFUL:          0  USELESS:          0
DTLB USEFUL LOAD PREFETCHES:          0 PREFETCH ISSUED TO LOWER LEVEL:          0  ACCURACY: -nan
DTLB TIMELY PREFETCHES:          0 LATE PREFETCHES: 0 DROPPED PREFETCHES: 0
DTLB COMMIT LATE PREFETCHES: 0 NORMAL LATE: 0 MISSED OPPORTUNITY: 0 UNCOVERED: 0
DTLB PREFETCHES SAME FILL-ORIGIN LEVEL: 0 DIFFERENT FILL-ORIGIN LEVEL: 0
DTLB AVERAGE MISS LATENCY: 134.257 cycles
DTLB AVERAGE MISS LATENCY LOAD: -nan cycles
DTLB AVERAGE MISS LATENCY PREFETCH: -nan cycles
DTLB AVERAGE MSHR OCCUPANCY: 0.555586
DTLB MSHR FULL: 0
DTLB RQ	ACCESS:   38679772	FORWARD:          0	MERGED:    4972066	TO_CACHE:   33707706

STLB SPEC fills:          0  NON-SPEC fills:          0
STLB Test counter :          0
STLB Leapfrog:          0
STLB MSHR merge:          0
STLB TOTAL     ACCESS:    4874344  HIT:     229557  MISS:    4644787  HIT %:     4.7095  MISS %:    95.2905   MPKI: 23.2239
STLB LOAD TRANSLATION NON_SPEC    ACCESS:    4874344  HIT:     229557  MISS:    4644787  HIT %:     4.7095  MISS %:    95.2905   MPKI: 23.2239
STLB PREFETCH  REQUESTED:          0  ISSUED:          0  USEFUL:          0  USELESS:          0
STLB USEFUL LOAD PREFETCHES:          0 PREFETCH ISSUED TO LOWER LEVEL:          0  ACCURACY: -nan
STLB TIMELY PREFETCHES:          0 LATE PREFETCHES: 0 DROPPED PREFETCHES: 0
STLB COMMIT LATE PREFETCHES: 0 NORMAL LATE: 0 MISSED OPPORTUNITY: 0 UNCOVERED: 0
STLB PREFETCHES SAME FILL-ORIGIN LEVEL: 0 DIFFERENT FILL-ORIGIN LEVEL: 0
STLB AVERAGE MISS LATENCY: 131.426 cycles
STLB AVERAGE MISS LATENCY LOAD: -nan cycles
STLB AVERAGE MISS LATENCY PREFETCH: -nan cycles
STLB AVERAGE MSHR OCCUPANCY: 0.511993
STLB MSHR FULL: 0
STLB RQ	ACCESS:    4874344	FORWARD:          0	MERGED:          0	TO_CACHE:    4874344

STLB Hit, L1D data hit: 0
STLB Hit, L2C data hit: 0
STLB Hit, LLC data hit: 0
STLB Hit, LLC data miss: 0
STLB STLB hints to L2: 0
L0D SPEC fills:   19603456  NON-SPEC fills:          0
L0D TimeGuard Request with older TS:     739955 Restricted eviction:      22071 read:    2376743
L0D Test counter :          0
L0D Leapfrog:          0
L0D MSHR merge:     969770
L0D TOTAL     ACCESS:   28841590  HIT:    2420707  MISS:   26420883  HIT %:    8.39311  MISS %:    91.6069   MPKI: 132.104
L0D LOAD      TOTAL       ACCESS:   28841590  HIT:    2420707  MISS:   26420883  HIT %:    8.39311  MISS %:    91.6069   MPKI: 132.104
L0D LOAD      NON_SPEC    ACCESS:    7289794  HIT:     494436  MISS:    6795358  HIT %:    6.78258  MISS %:    93.2174   MPKI: 33.9768
L0D LOAD      SPEC        ACCESS:   21551796  HIT:    1926271  MISS:   19625525  HIT %:    8.93787  MISS %:    91.0621   MPKI: 98.1276
L0D PREFETCH  REQUESTED:          0  ISSUED:          0  USEFUL:          0  USELESS:          0
L0D USEFUL LOAD PREFETCHES:          0 PREFETCH ISSUED TO LOWER LEVEL:          0  ACCURACY: -nan
L0D TIMELY PREFETCHES:          0 LATE PREFETCHES: 0 DROPPED PREFETCHES: 0
L0D COMMIT LATE PREFETCHES: 0 NORMAL LATE: 0 MISSED OPPORTUNITY: 0 UNCOVERED: 0
L0D PREFETCHES SAME FILL-ORIGIN LEVEL: 0 DIFFERENT FILL-ORIGIN LEVEL: 0
L0D AVERAGE MISS LATENCY: 37.0679 cycles
L0D AVERAGE MISS LATENCY LOAD: 37.0679 cycles
L0D AVERAGE MISS LATENCY PREFETCH: -nan cycles
L0D AVERAGE MSHR OCCUPANCY: 0.783705
L0D MSHR FULL: 0
L0D RQ	ACCESS:   49183529	FORWARD:          0	MERGED:   19372171	TO_CACHE:   29811358
L0D WQ	ACCESS:    8868414	FORWARD:          0	MERGED:          0	TO_CACHE:    8868414

L1D SPEC fills:          0  NON-SPEC fills:    3311902
L1D Test counter :          0
L1D Leapfrog:          0
L1D MSHR merge:        260
L1D TOTAL     ACCESS:   69748228  HIT:   51436521  MISS:   18311707  HIT %:     73.746  MISS %:     26.254   MPKI: 91.5585
L1D LOAD      TOTAL       ACCESS:   26420623  HIT:   15886041  MISS:   10534582  HIT %:    60.1274  MISS %:    39.8726   MPKI: 52.6729
L1D LOAD      NON_SPEC    ACCESS:    6795228  HIT:    3483326  MISS:    3311902  HIT %:    51.2614  MISS %:    48.7386   MPKI: 16.5595
L1D LOAD      SPEC        ACCESS:   19625395  HIT:   12402715  MISS:    7222680  HIT %:    63.1973  MISS %:    36.8027   MPKI: 36.1134
L1D RFO       NON_SPEC    ACCESS:    8865427  HIT:    8311080  MISS:     554347  HIT %:    93.7471  MISS %:    6.25291   MPKI: 2.77173
L1D COMMIT LOAD NON_SPEC    ACCESS:   15364095  HIT:   15354236  MISS:       9859  HIT %:    99.9358  MISS %:  0.0641691   MPKI: 0.049295
L1D COMMIT WRITE NON_SPEC    ACCESS:   19098083  HIT:   11885164  MISS:    7212919  HIT %:    62.2322  MISS %:    37.7678   MPKI: 36.0646
L1D PREFETCH  REQUESTED:          0  ISSUED:          0  USEFUL:          0  USELESS:          0
L1D USEFUL LOAD PREFETCHES:          0 PREFETCH ISSUED TO LOWER LEVEL:          0  ACCURACY: -nan
L1D TIMELY PREFETCHES:          0 LATE PREFETCHES: 0 DROPPED PREFETCHES: 0
L1D COMMIT LATE PREFETCHES: 0 NORMAL LATE: 0 MISSED OPPORTUNITY: 0 UNCOVERED: 10534598
L1D PREFETCHES SAME FILL-ORIGIN LEVEL: 0 DIFFERENT FILL-ORIGIN LEVEL: 0
L1D AVERAGE MISS LATENCY: 46.7723 cycles
L1D AVERAGE MISS LATENCY LOAD: 80.0501 cycles
L1D AVERAGE MISS LATENCY PREFETCH: -nan cycles
L1D AVERAGE MSHR OCCUPANCY: 0.553176
L1D MSHR FULL: 0
L1D RQ	ACCESS:   49130371	FORWARD:          0	MERGED:    7345249	TO_CACHE:   41785122
L1D WQ	ACCESS:   27966499	FORWARD:          0	MERGED:          0	TO_CACHE:   27966499

L1D UNIQUE REGIONS ACCESSED: 0
L1D REGIONS CONFLICTS: 0
L1D Cross Page Prefetch Requests: 0
L1D Same Page Prefetch Requests: 0
L1D ROI Sum of L1D PQ occupancy: 0
L1D PREFETCHES PUSHED FROM L2C: 0
L1I SPEC fills:          0  NON-SPEC fills:          0
L1I Test counter :          0
L1I Leapfrog:          0
L1I MSHR merge:          0
L1I TOTAL     ACCESS:   39090314  HIT:   39090314  MISS:          0  HIT %:        100  MISS %:          0   MPKI: 0
L1I LOAD      TOTAL       ACCESS:   39090314  HIT:   39090314  MISS:          0  HIT %:        100  MISS %:          0   MPKI: 0
L1I LOAD      NON_SPEC    ACCESS:   39090314  HIT:   39090314  MISS:          0  HIT %:        100  MISS %:          0   MPKI: 0
L1I PREFETCH  REQUESTED:          0  ISSUED:          0  USEFUL:          0  USELESS:          0
L1I USEFUL LOAD PREFETCHES:          0 PREFETCH ISSUED TO LOWER LEVEL:          0  ACCURACY: -nan
L1I TIMELY PREFETCHES:          0 LATE PREFETCHES: 0 DROPPED PREFETCHES: 0
L1I COMMIT LATE PREFETCHES: 0 NORMAL LATE: 0 MISSED OPPORTUNITY: 0 UNCOVERED: 0
L1I PREFETCHES SAME FILL-ORIGIN LEVEL: 0 DIFFERENT FILL-ORIGIN LEVEL: 0
L1I AVERAGE MISS LATENCY: -nan cycles
L1I AVERAGE MISS LATENCY LOAD: -nan cycles
L1I AVERAGE MISS LATENCY PREFETCH: -nan cycles
L1I AVERAGE MSHR OCCUPANCY: 0
L1I MSHR FULL: 0
L1I RQ	ACCESS:   60116942	FORWARD:          0	MERGED:   21026626	TO_CACHE:   39090316

BTB SPEC fills:          0  NON-SPEC fills:          0
BTB Test counter :          0
BTB Leapfrog:          0
BTB MSHR merge:          0
BTB TOTAL     ACCESS:   26649158  HIT:   26649150  MISS:          8  HIT %:        100  MISS %: 3.00197e-05   MPKI: 4e-05
BTB BRANCH_DIRECT_JUMP	ACCESS:    4549688  HIT:    4549686  MISS:          2
BTB BRANCH_INDIRECT	ACCESS:          0  HIT:          0  MISS:          0
BTB BRANCH_CONDITIONAL	ACCESS:   13231060  HIT:   13231056  MISS:          4
BTB BRANCH_DIRECT_CALL	ACCESS:    4434205  HIT:    4434204  MISS:          1
BTB BRANCH_INDIRECT_CALL	ACCESS:          0  HIT:          0  MISS:          0
BTB BRANCH_RETURN	ACCESS:    4434205  HIT:    4434204  MISS:          1
BTB BRANCH_OTHER ACCESS:          0  HIT:          0  MISS:          0

L2C SPEC fills:          0  NON-SPEC fills:     693218
L2C Test counter :          0
L2C Leapfrog:          0
L2C MSHR merge:      53715
L2C TOTAL     ACCESS:   59913638  HIT:   35077810  MISS:   24835828  HIT %:    58.5473  MISS %:    41.4527   MPKI: 124.179
L2C LOAD      TOTAL       ACCESS:   10534582  HIT:    3886890  MISS:    6647692  HIT %:    36.8965  MISS %:    63.1035   MPKI: 33.2385
L2C LOAD      NON_SPEC    ACCESS:    3311902  HIT:    2618684  MISS:     693218  HIT %:    79.0689  MISS %:    20.9311   MPKI: 3.46609
L2C LOAD      SPEC        ACCESS:    7222680  HIT:    1268206  MISS:    5954474  HIT %:    17.5587  MISS %:    82.4413   MPKI: 29.7724
L2C RFO       NON_SPEC    ACCESS:     554347  HIT:     379248  MISS:     175099  HIT %:    68.4135  MISS %:    31.5865   MPKI: 0.875495
L2C PREFETCH  NON_SPEC    ACCESS:   17656721  HIT:    6122933  MISS:   11533788  HIT %:    34.6776  MISS %:    65.3224   MPKI: 57.6689
L2C WRITEBACK NON_SPEC    ACCESS:     718403  HIT:     718322  MISS:         81  HIT %:    99.9887  MISS %:   0.011275   MPKI: 0.000405
L2C CLEAN_EVICTION NON_SPEC    ACCESS:    7215794  HIT:    5087568  MISS:    2128226  HIT %:     70.506  MISS %:     29.494   MPKI: 10.6411
L2C COMMIT LOAD NON_SPEC    ACCESS:       9859  HIT:       4974  MISS:       4885  HIT %:    50.4514  MISS %:    49.5486   MPKI: 0.024425
L2C LOAD TRANSLATION NON_SPEC    ACCESS:   23223932  HIT:   18877875  MISS:    4346057  HIT %:    81.2863  MISS %:    18.7137   MPKI: 21.7303
L2C PREFETCH  REQUESTED:   22054852  ISSUED:   22054231  USEFUL:    1838082  USELESS:    9693354
L2C USEFUL LOAD PREFETCHES:    1838082 PREFETCH ISSUED TO LOWER LEVEL:   15081320  ACCURACY: 12.1878
L2C TIMELY PREFETCHES:    1838082 LATE PREFETCHES: 112512 DROPPED PREFETCHES: 0
L2C COMMIT LATE PREFETCHES: 718956 NORMAL LATE: 133786 MISSED OPPORTUNITY: 292596 UNCOVERED: 5561151
L2C PREFETCHES SAME FILL-ORIGIN LEVEL: 11646305 DIFFERENT FILL-ORIGIN LEVEL: 3435015
L2C AVERAGE MISS LATENCY: 71.2179 cycles
L2C AVERAGE MISS LATENCY LOAD: 107.253 cycles
L2C AVERAGE MISS LATENCY PREFETCH: 79.4286 cycles
L2C AVERAGE MSHR OCCUPANCY: 1.66152
L2C MSHR FULL: 0
L2C RQ	ACCESS:   34322721	FORWARD:          0	MERGED:          0	TO_CACHE:   34322721
L2C WQ	ACCESS:    7934197	FORWARD:         14	MERGED:          0	TO_CACHE:    7934197
L2C PQ	ACCESS:   22054231	FORWARD:          0	MERGED:     785584	TO_CACHE:   21268633

L2C Instructions Evicting Data 0
L2C Translations Evicting Data 3090171
L2C Data Evicting Data 9826853
L2C Instructions Evicting Instructions 0
L2C Translations Evicting Instructions 0
L2C Data Evicting Instructions 0
L2C Instructions Evicting Translations 0
L2C Translations Evicting Translations 1255886
L2C Data Evicting Translations 2580137
L2C Dense regions hint from L2: 0
PSCL5 SPEC fills:          0  NON-SPEC fills:          0
PSCL5 Test counter :          0
PSCL5 Leapfrog:          0
PSCL5 MSHR merge:          0
PSCL5 TOTAL     ACCESS:          0  HIT:          0  MISS:          0  HIT %:       -nan  MISS %:       -nan   MPKI: 0
PSCL5 PREFETCH  REQUESTED:          0  ISSUED:          0  USEFUL:          0  USELESS:          0
PSCL5 USEFUL LOAD PREFETCHES:          0 PREFETCH ISSUED TO LOWER LEVEL:          0  ACCURACY: -nan
PSCL5 TIMELY PREFETCHES:          0 LATE PREFETCHES: 0 DROPPED PREFETCHES: 0
PSCL5 COMMIT LATE PREFETCHES: 0 NORMAL LATE: 0 MISSED OPPORTUNITY: 0 UNCOVERED: 0
PSCL5 PREFETCHES SAME FILL-ORIGIN LEVEL: 0 DIFFERENT FILL-ORIGIN LEVEL: 0

PSCL4 SPEC fills:          0  NON-SPEC fills:          0
PSCL4 Test counter :          0
PSCL4 Leapfrog:          0
PSCL4 MSHR merge:          0
PSCL4 TOTAL     ACCESS:          0  HIT:          0  MISS:          0  HIT %:       -nan  MISS %:       -nan   MPKI: 0
PSCL4 PREFETCH  REQUESTED:          0  ISSUED:          0  USEFUL:          0  USELESS:          0
PSCL4 USEFUL LOAD PREFETCHES:          0 PREFETCH ISSUED TO LOWER LEVEL:          0  ACCURACY: -nan
PSCL4 TIMELY PREFETCHES:          0 LATE PREFETCHES: 0 DROPPED PREFETCHES: 0
PSCL4 COMMIT LATE PREFETCHES: 0 NORMAL LATE: 0 MISSED OPPORTUNITY: 0 UNCOVERED: 0
PSCL4 PREFETCHES SAME FILL-ORIGIN LEVEL: 0 DIFFERENT FILL-ORIGIN LEVEL: 0

PSCL3 SPEC fills:          0  NON-SPEC fills:          0
PSCL3 Test counter :          0
PSCL3 Leapfrog:          0
PSCL3 MSHR merge:          0
PSCL3 TOTAL     ACCESS:          0  HIT:          0  MISS:          0  HIT %:       -nan  MISS %:       -nan   MPKI: 0
PSCL3 PREFETCH  REQUESTED:          0  ISSUED:          0  USEFUL:          0  USELESS:          0
PSCL3 USEFUL LOAD PREFETCHES:          0 PREFETCH ISSUED TO LOWER LEVEL:          0  ACCURACY: -nan
PSCL3 TIMELY PREFETCHES:          0 LATE PREFETCHES: 0 DROPPED PREFETCHES: 0
PSCL3 COMMIT LATE PREFETCHES: 0 NORMAL LATE: 0 MISSED OPPORTUNITY: 0 UNCOVERED: 0
PSCL3 PREFETCHES SAME FILL-ORIGIN LEVEL: 0 DIFFERENT FILL-ORIGIN LEVEL: 0

PSCL2 SPEC fills:          0  NON-SPEC fills:          0
PSCL2 Test counter :          0
PSCL2 Leapfrog:          0
PSCL2 MSHR merge:          0
PSCL2 TOTAL     ACCESS:          0  HIT:          0  MISS:          0  HIT %:       -nan  MISS %:       -nan   MPKI: 0
PSCL2 PREFETCH  REQUESTED:          0  ISSUED:          0  USEFUL:          0  USELESS:          0
PSCL2 USEFUL LOAD PREFETCHES:          0 PREFETCH ISSUED TO LOWER LEVEL:          0  ACCURACY: -nan
PSCL2 TIMELY PREFETCHES:          0 LATE PREFETCHES: 0 DROPPED PREFETCHES: 0
PSCL2 COMMIT LATE PREFETCHES: 0 NORMAL LATE: 0 MISSED OPPORTUNITY: 0 UNCOVERED: 0
PSCL2 PREFETCHES SAME FILL-ORIGIN LEVEL: 0 DIFFERENT FILL-ORIGIN LEVEL: 0

LLC SPEC fills:          0  NON-SPEC fills:     220497
LLC Test counter :          0
LLC Leapfrog:          0
LLC MSHR merge:        223
LLC TOTAL     ACCESS:   33155582  HIT:   24020497  MISS:    9135085  HIT %:    72.4478  MISS %:    27.5522   MPKI: 45.6754
LLC LOAD      TOTAL       ACCESS:    6593948  HIT:    3083569  MISS:    3510379  HIT %:    46.7636  MISS %:    53.2364   MPKI: 17.5519
LLC LOAD      NON_SPEC    ACCESS:     681482  HIT:     460985  MISS:     220497  HIT %:    67.6445  MISS %:    32.3555   MPKI: 1.10248
LLC LOAD      SPEC        ACCESS:    5912466  HIT:    2622584  MISS:    3289882  HIT %:    44.3569  MISS %:    55.6431   MPKI: 16.4494
LLC RFO       NON_SPEC    ACCESS:     118858  HIT:     118856  MISS:          2  HIT %:    99.9983  MISS %: 0.00168268   MPKI: 1e-05
LLC PREFETCH  NON_SPEC    ACCESS:   15023571  HIT:   10327567  MISS:    4696004  HIT %:    68.7424  MISS %:    31.2576   MPKI: 23.48
LLC WRITEBACK NON_SPEC    ACCESS:     634254  HIT:     634254  MISS:          0  HIT %:        100  MISS %:          0   MPKI: 0
LLC CLEAN_EVICTION NON_SPEC    ACCESS:    6436565  HIT:    5528837  MISS:     907728  HIT %:    85.8973  MISS %:    14.1027   MPKI: 4.53864
LLC COMMIT LOAD NON_SPEC    ACCESS:       2329  HIT:       2191  MISS:        138  HIT %:    94.0747  MISS %:    5.92529   MPKI: 0.00069
LLC LOAD TRANSLATION NON_SPEC    ACCESS:    4346057  HIT:    4325223  MISS:      20834  HIT %:    99.5206  MISS %:   0.479377   MPKI: 0.10417
LLC PREFETCH  REQUESTED:          0  ISSUED:          0  USEFUL:    2271125  USELESS:    2417825
LLC USEFUL LOAD PREFETCHES:    2271125 PREFETCH ISSUED TO LOWER LEVEL:    4696230  ACCURACY: 48.3606
LLC TIMELY PREFETCHES:    2271125 LATE PREFETCHES: 224 DROPPED PREFETCHES: 0
LLC COMMIT LATE PREFETCHES: 0 NORMAL LATE: 0 MISSED OPPORTUNITY: 0 UNCOVERED: 0
LLC PREFETCHES SAME FILL-ORIGIN LEVEL: 1139353 DIFFERENT FILL-ORIGIN LEVEL: 0
LLC AVERAGE MISS LATENCY: 147.313 cycles
LLC AVERAGE MISS LATENCY LOAD: 160.925 cycles
LLC AVERAGE MISS LATENCY PREFETCH: 165.422 cycles
LLC AVERAGE MSHR OCCUPANCY: 1.40394
LLC MSHR FULL: 0
LLC RQ	ACCESS:   11061221	FORWARD:          0	MERGED:          0	TO_CACHE:   11061192
LLC WQ	ACCESS:    7070819	FORWARD:        135	MERGED:          0	TO_CACHE:    7070819
LLC PQ	ACCESS:   15081320	FORWARD:          0	MERGED:      42456	TO_CACHE:   15038758

LLC Dense regions hint to LLC: 0

RAW hits: 4025191
Loads Generated: 53208720
Loads sent to L1D: 49183529
Stores Generated: 8868414
Stores sent to L1D: 8868414
Major fault: 0 Minor fault: 101164
Allocated PAGES: 101164
Total Load insts: 61423951
Total Non-spec loads: 8761749
Percentage of speculative loads: 85.7356

LeapFrogging counter: 0
Commit hits: 19098086 miss: 22709490
Commit hit %: 45.6809 miss %: 54.3191
Commits not translated: 0
Loads retired: 10534582
Stores retired: 8868414
Cache fills: 10534582
L1D response latency: 80.0501 cycles
Load retirement latency: 220.368 cycles
OOO test counter: 0
Discarded buffer inserts: 19098086 hits: 171 hit %: 0.000895378
Filter prediction accuracy: -nan
------------------
Depth Distribution
------------------
depth 0: 5209526
depth 1: 7306231
depth 2: 8602
depth 3: 3
depth 4: 0
depth 5: 0
depth 6: 0
depth 7: 0
depth 8: 0
depth 9: 0
depth 10: 0
depth 11: 0
depth 12: 0
depth 13: 0
depth 14: 0
depth 15: 0
depth 16: 0
depth 17: 0
depth 18: 0
depth 19: 0
depth 20: 0
depth 21: 0
depth 22: 0
depth 23: 0
depth 24: 0
depth 25: 0
depth 26: 0
depth 27: 0
depth 28: 0
depth 29: 0
Total: 12524362
------------------
ST read accesses: 5688485
ST write accesses: 4846097
PT read accesses: 95145949
PT write accesses: 6064032
FILTER read accesses: 98312380
FILTER write accesses: 137312679
GHR read accesses: 42249780
GHR write accesses: 467419
PERC read accesses: 684487386
PERC write accesses: 123697655
GHR counter read accesses: 21069164
GHR counter write accesses: 22832448
GHR ip read accesses: 91660911
GHR ip write accesses: 42138328
ST tag read accesses: 6532213278
ST tag write accesses: 1253452795
------------------
Depth Distribution
------------------
depth 0: 19782318
depth 1: 13904114
depth 2: 26819098
depth 3: 5763586
depth 4: 239881
depth 5: 179
depth 6: 48
depth 7: 111
depth 8: 588
depth 9: 232
depth 10: 6
depth 11: 6
depth 12: 3
depth 13: 1
depth 14: 2
depth 15: 0
depth 16: 0
depth 17: 0
depth 18: 0
depth 19: 0
depth 20: 0
depth 21: 0
depth 22: 0
depth 23: 0
depth 24: 0
depth 25: 0
depth 26: 0
depth 27: 0
depth 28: 0
depth 29: 0
Total: 66510173
------------------
ST read accesses: 48365959
ST write accesses: 4842763
PT read accesses: 590152249
PT write accesses: 27617620
FILTER read accesses: 237098094
FILTER write accesses: 114507210
GHR read accesses: 54371703
GHR write accesses: 2721703
PERC read accesses: 4534089858
PERC write accesses: 193691167
GHR counter read accesses: 106417444
GHR counter write accesses: 81443352
GHR ip read accesses: 368551893
GHR ip write accesses: 212834888
ST tag read accesses: 19598481336
ST tag write accesses: 1368728277

DRAM Statistics
 CHANNEL 0
 RQ ROW_BUFFER_HIT:    1213999  ROW_BUFFER_MISS:    7011037
 DBUS_CONGESTED:      10103
 WQ ROW_BUFFER_HIT:    1853424  ROW_BUFFER_MISS:    3155082  FULL:          0

 AVG_CONGESTED_CYCLE: 4
 All warmup complete: 2
Channel 0 Bank busy for read cycles: 0
Channel 0 Bank busy for write cycles: 0
Channel 0
Rank 0
0banks busy for read cycles: 9610287
0banks busy for write cycles: 43292
1banks busy for read cycles: 412841212
1banks busy for write cycles: 10017134
2banks busy for read cycles: 200032844
2banks busy for write cycles: 9973854
3banks busy for read cycles: 68951869
3banks busy for write cycles: 10270576
4banks busy for read cycles: 17292439
4banks busy for write cycles: 10788366
5banks busy for read cycles: 3885487
5banks busy for write cycles: 11823711
6banks busy for read cycles: 785595
6banks busy for write cycles: 15185833
7banks busy for read cycles: 122893
7banks busy for write cycles: 34080360
8banks busy for read cycles: 12911
8banks busy for write cycles: 132714289

CPU 0 Branch Prediction Accuracy: 99.988% MPKI: 0.01864 Average ROB Occupancy at Mispredict: 324.763
Branch types
NOT_BRANCH: 168845084 84.4225%
BRANCH_DIRECT_JUMP: 4549688 2.27484%
BRANCH_INDIRECT: 0 0%
BRANCH_CONDITIONAL: 17736819 8.86841%
BRANCH_DIRECT_CALL: 4434205 2.2171%
BRANCH_INDIRECT_CALL: 0 0%
BRANCH_RETURN: 4434205 2.2171%
BRANCH_OTHER: 0 0%

DRAM PAGES: 1048576
Allocated PAGES: 101164
