Initialize SIGNATURE TABLE
ST_SET: 1
ST_WAY: 256
ST_TAG_BIT: 16
ST_TAG_MASK: ffff

Initialize PATTERN TABLE
PT_SET: 512
PT_WAY: 4
SIG_DELTA_BIT: 7
C_SIG_BIT: 4
C_DELTA_BIT: 4

Initialize PREFETCH FILTER
FILTER_SET: 1024

Initialize PERCEPTRON
PERC_ENTRIES: 4096
PERC_FEATURES: 9
Initialize SIGNATURE TABLE
ST_SET: 1
ST_WAY: 256
ST_TAG_BIT: 16
ST_TAG_MASK: ffff

Initialize PATTERN TABLE
PT_SET: 512
PT_WAY: 4
SIG_DELTA_BIT: 7
C_SIG_BIT: 4
C_DELTA_BIT: 4

Initialize PREFETCH FILTER
FILTER_SET: 1024

Initialize PERCEPTRON
PERC_ENTRIES: 4096
PERC_FEATURES: 9

*** ChampSim Multicore Out-of-Order Simulator ***

Warmup Instructions: 50000000
Simulation Instructions: 200000000
Number of CPUs: 1
LLC sets: 2048
LLC ways: 16
L0D sets: 16
L0D ways: 2
ROB size: 352
LQ size: 128
SQ size: 72
Secure Berti: OFF
Berti: OFF
Berti Fill: OFF
On commit prefetching: ON
Hit-based filter: OFF
Time-guarding: ON
Free-slotting: ON
Leap-frogging: ON
Train prefetcher on L0D bypass: OFF
No translation penalty for prefetchers: OFF
Prefetch to L0D only: OFF
Prefetch to L1D only: OFF
Clean evictions: ON
Commit loads: ON
Commit write: ON
Fill commit loads to L2C, LLC: ON
DRAM IO FREQUENCY: 6400
ROB SIZE: 352
Off-chip DRAM Size: 4096 MB Channels: 1 Width: 64-bit Data Rate: 6400 MT/s
CPU 0 runs /home/sumon/secure_berti/GhostMinion/../../traces/spec/605.mcf_s-1554B.champsimtrace.xz
.xz
BTB has LRU replacement policy
ITLB has LRU replacement policy
DTLB has LRU replacement policy
STLB has LRU replacement policy
L1I has LRU replacement policy
L0D has LRU replacement policy
PERC_ENTRIES: 4096
L1D has LRU replacement policy
PERC_ENTRIES: 4096
L2C has LRU replacement policy
LLC has LRU replacement policy
Heartbeat CPU 0 instructions: 10000001 cycles: 4312433 heartbeat IPC: 2.31888 cumulative IPC: 2.31888 (Simulation time: 0 hr 3 min 7 sec) 
Heartbeat CPU 0 instructions: 20000001 cycles: 8644499 heartbeat IPC: 2.30837 cumulative IPC: 2.31361 (Simulation time: 0 hr 6 min 15 sec) 
Heartbeat CPU 0 instructions: 30000000 cycles: 12993039 heartbeat IPC: 2.29962 cumulative IPC: 2.30893 (Simulation time: 0 hr 9 min 25 sec) 
Heartbeat CPU 0 instructions: 40000001 cycles: 17326899 heartbeat IPC: 2.30741 cumulative IPC: 2.30855 (Simulation time: 0 hr 12 min 33 sec) 
Heartbeat CPU 0 instructions: 50000001 cycles: 21660290 heartbeat IPC: 2.30766 cumulative IPC: 2.30837 (Simulation time: 0 hr 15 min 40 sec) 

Warmup complete CPU 0 instructions: 50000001 cycles: 21660290 (Simulation time: 0 hr 15 min 40 sec) 

Heartbeat CPU 0 instructions: 60000002 cycles: 85423582 heartbeat IPC: 0.15683 cumulative IPC: 0.15683 (Simulation time: 0 hr 21 min 5 sec) 
Heartbeat CPU 0 instructions: 70000002 cycles: 148425943 heartbeat IPC: 0.158724 cumulative IPC: 0.157771 (Simulation time: 0 hr 26 min 24 sec) 
Heartbeat CPU 0 instructions: 80000002 cycles: 212069812 heartbeat IPC: 0.157124 cumulative IPC: 0.157555 (Simulation time: 0 hr 31 min 43 sec) 
Heartbeat CPU 0 instructions: 90000003 cycles: 275608404 heartbeat IPC: 0.157385 cumulative IPC: 0.157513 (Simulation time: 0 hr 37 min 5 sec) 
Heartbeat CPU 0 instructions: 100000000 cycles: 339149906 heartbeat IPC: 0.157377 cumulative IPC: 0.157485 (Simulation time: 0 hr 42 min 28 sec) 
Heartbeat CPU 0 instructions: 110000000 cycles: 403468507 heartbeat IPC: 0.155476 cumulative IPC: 0.157147 (Simulation time: 0 hr 47 min 51 sec) 
Heartbeat CPU 0 instructions: 120000001 cycles: 468864720 heartbeat IPC: 0.152914 cumulative IPC: 0.156528 (Simulation time: 0 hr 53 min 25 sec) 
Heartbeat CPU 0 instructions: 130000000 cycles: 533441541 heartbeat IPC: 0.154854 cumulative IPC: 0.156317 (Simulation time: 0 hr 58 min 48 sec) 
Heartbeat CPU 0 instructions: 140000000 cycles: 599284543 heartbeat IPC: 0.151876 cumulative IPC: 0.155811 (Simulation time: 1 hr 4 min 13 sec) 
Heartbeat CPU 0 instructions: 150000001 cycles: 665364552 heartbeat IPC: 0.151332 cumulative IPC: 0.155351 (Simulation time: 1 hr 9 min 42 sec) 
Heartbeat CPU 0 instructions: 160000000 cycles: 732216748 heartbeat IPC: 0.149584 cumulative IPC: 0.154808 (Simulation time: 1 hr 15 min 15 sec) 
Heartbeat CPU 0 instructions: 170000003 cycles: 799599503 heartbeat IPC: 0.148406 cumulative IPC: 0.154254 (Simulation time: 1 hr 20 min 49 sec) 
Heartbeat CPU 0 instructions: 180000001 cycles: 867149975 heartbeat IPC: 0.148037 cumulative IPC: 0.153757 (Simulation time: 1 hr 26 min 20 sec) 
Heartbeat CPU 0 instructions: 190000001 cycles: 934094016 heartbeat IPC: 0.149378 cumulative IPC: 0.153436 (Simulation time: 1 hr 31 min 51 sec) 
Heartbeat CPU 0 instructions: 200000001 cycles: 1002694275 heartbeat IPC: 0.145772 cumulative IPC: 0.1529 (Simulation time: 1 hr 37 min 26 sec) 
Heartbeat CPU 0 instructions: 210000001 cycles: 1068596889 heartbeat IPC: 0.151739 cumulative IPC: 0.152827 (Simulation time: 1 hr 42 min 48 sec) 
Heartbeat CPU 0 instructions: 220000000 cycles: 1134439038 heartbeat IPC: 0.151878 cumulative IPC: 0.152771 (Simulation time: 1 hr 48 min 9 sec) 
Heartbeat CPU 0 instructions: 230000002 cycles: 1203142883 heartbeat IPC: 0.145552 cumulative IPC: 0.152351 (Simulation time: 1 hr 53 min 43 sec) 
Heartbeat CPU 0 instructions: 240000001 cycles: 1268867793 heartbeat IPC: 0.152149 cumulative IPC: 0.15234 (Simulation time: 1 hr 59 min 5 sec) 
Heartbeat CPU 0 instructions: 250000001 cycles: 1335818546 heartbeat IPC: 0.149364 cumulative IPC: 0.152189 (Simulation time: 2 hr 4 min 29 sec) 
Finished CPU 0 instructions: 200000000 cycles: 1314158256 cumulative IPC: 0.152189 (Simulation time: 2 hr 4 min 29 sec) 
 Instruction ID: 250000363

ChampSim completed all CPUs

Region of Interest Statistics

CPU 0 cumulative IPC: 0.152189 instructions: 200000000 cycles: 1314158256
ITLB SPEC fills:          0  NON-SPEC fills:          0
ITLB Test counter :          0
ITLB Leapfrog:          0
ITLB MSHR merge:          0
ITLB TOTAL     ACCESS:   42704305  HIT:   42704305  MISS:          0  HIT %:        100  MISS %:          0   MPKI: 0
ITLB LOAD TRANSLATION NON_SPEC    ACCESS:   42704305  HIT:   42704305  MISS:          0  HIT %:        100  MISS %:          0   MPKI: 0
ITLB PREFETCH  REQUESTED:          0  ISSUED:          0  USEFUL:          0  USELESS:          0
ITLB USEFUL LOAD PREFETCHES:          0 PREFETCH ISSUED TO LOWER LEVEL:          0  ACCURACY: -nan
ITLB TIMELY PREFETCHES:          0 LATE PREFETCHES: 0 DROPPED PREFETCHES: 0
ITLB COMMIT LATE PREFETCHES: 0 NORMAL LATE: 0 MISSED OPPORTUNITY: 0 UNCOVERED: 0
ITLB PREFETCHES SAME FILL-ORIGIN LEVEL: 0 DIFFERENT FILL-ORIGIN LEVEL: 0
ITLB AVERAGE MISS LATENCY: -nan cycles
ITLB AVERAGE MISS LATENCY LOAD: -nan cycles
ITLB AVERAGE MISS LATENCY PREFETCH: -nan cycles
ITLB AVERAGE MSHR OCCUPANCY: 0
ITLB MSHR FULL: 0
ITLB RQ	ACCESS:   51813970	FORWARD:          0	MERGED:    9109664	TO_CACHE:   42704306

DTLB SPEC fills:          0  NON-SPEC fills:          0
DTLB Test counter :          0
DTLB Leapfrog:          0
DTLB MSHR merge:          0
DTLB TOTAL     ACCESS:   67248088  HIT:   66447491  MISS:     800597  HIT %:    98.8095  MISS %:    1.19051   MPKI: 4.00298
DTLB LOAD TRANSLATION NON_SPEC    ACCESS:   67248088  HIT:   66447491  MISS:     800597  HIT %:    98.8095  MISS %:    1.19051   MPKI: 4.00298
DTLB PREFETCH  REQUESTED:          0  ISSUED:          0  USEFUL:          0  USELESS:          0
DTLB USEFUL LOAD PREFETCHES:          0 PREFETCH ISSUED TO LOWER LEVEL:          0  ACCURACY: -nan
DTLB TIMELY PREFETCHES:          0 LATE PREFETCHES: 0 DROPPED PREFETCHES: 0
DTLB COMMIT LATE PREFETCHES: 0 NORMAL LATE: 0 MISSED OPPORTUNITY: 0 UNCOVERED: 0
DTLB PREFETCHES SAME FILL-ORIGIN LEVEL: 0 DIFFERENT FILL-ORIGIN LEVEL: 0
DTLB AVERAGE MISS LATENCY: 14.4094 cycles
DTLB AVERAGE MISS LATENCY LOAD: -nan cycles
DTLB AVERAGE MISS LATENCY PREFETCH: -nan cycles
DTLB AVERAGE MSHR OCCUPANCY: 0.0159867
DTLB MSHR FULL: 0
DTLB RQ	ACCESS:   84095840	FORWARD:          0	MERGED:   16810608	TO_CACHE:   67285232

STLB SPEC fills:          0  NON-SPEC fills:          0
STLB Test counter :          0
STLB Leapfrog:          0
STLB MSHR merge:          0
STLB TOTAL     ACCESS:     800597  HIT:     788329  MISS:      12268  HIT %:    98.4676  MISS %:    1.53236   MPKI: 0.06134
STLB LOAD TRANSLATION NON_SPEC    ACCESS:     800597  HIT:     788329  MISS:      12268  HIT %:    98.4676  MISS %:    1.53236   MPKI: 0.06134
STLB PREFETCH  REQUESTED:          0  ISSUED:          0  USEFUL:          0  USELESS:          0
STLB USEFUL LOAD PREFETCHES:          0 PREFETCH ISSUED TO LOWER LEVEL:          0  ACCURACY: -nan
STLB TIMELY PREFETCHES:          0 LATE PREFETCHES: 0 DROPPED PREFETCHES: 0
STLB COMMIT LATE PREFETCHES: 0 NORMAL LATE: 0 MISSED OPPORTUNITY: 0 UNCOVERED: 0
STLB PREFETCHES SAME FILL-ORIGIN LEVEL: 0 DIFFERENT FILL-ORIGIN LEVEL: 0
STLB AVERAGE MISS LATENCY: 352.057 cycles
STLB AVERAGE MISS LATENCY LOAD: -nan cycles
STLB AVERAGE MISS LATENCY PREFETCH: -nan cycles
STLB AVERAGE MSHR OCCUPANCY: 0.00323259
STLB MSHR FULL: 0
STLB RQ	ACCESS:     800597	FORWARD:          0	MERGED:          0	TO_CACHE:     800597

STLB Hit, L1D data hit: 0
STLB Hit, L2C data hit: 0
STLB Hit, LLC data hit: 0
STLB Hit, LLC data miss: 0
STLB STLB hints to L2: 0
L0D SPEC fills:   42435098  NON-SPEC fills:          0
L0D TimeGuard Request with older TS:    2733289 Restricted eviction:     922387 read:    2696000
L0D Test counter :          0
L0D Leapfrog:          0
L0D MSHR merge:    3446027
L0D TOTAL     ACCESS:   67131114  HIT:   15679728  MISS:   51451386  HIT %:    23.3569  MISS %:    76.6431   MPKI: 257.257
L0D LOAD      TOTAL       ACCESS:   67131114  HIT:   15679728  MISS:   51451386  HIT %:    23.3569  MISS %:    76.6431   MPKI: 257.257
L0D LOAD      NON_SPEC    ACCESS:    8601823  HIT:     507921  MISS:    8093902  HIT %:    5.90481  MISS %:    94.0952   MPKI: 40.4695
L0D LOAD      SPEC        ACCESS:   58529291  HIT:   15171807  MISS:   43357484  HIT %:    25.9217  MISS %:    74.0783   MPKI: 216.787
L0D PREFETCH  REQUESTED:          0  ISSUED:          0  USEFUL:          0  USELESS:          0
L0D USEFUL LOAD PREFETCHES:          0 PREFETCH ISSUED TO LOWER LEVEL:          0  ACCURACY: -nan
L0D TIMELY PREFETCHES:          0 LATE PREFETCHES: 0 DROPPED PREFETCHES: 0
L0D COMMIT LATE PREFETCHES: 0 NORMAL LATE: 0 MISSED OPPORTUNITY: 0 UNCOVERED: 0
L0D PREFETCHES SAME FILL-ORIGIN LEVEL: 0 DIFFERENT FILL-ORIGIN LEVEL: 0
L0D AVERAGE MISS LATENCY: 97.8392 cycles
L0D AVERAGE MISS LATENCY LOAD: 97.8392 cycles
L0D AVERAGE MISS LATENCY PREFETCH: -nan cycles
L0D AVERAGE MSHR OCCUPANCY: 4.62601
L0D MSHR FULL: 0.262447
L0D RQ	ACCESS:   83198682	FORWARD:          0	MERGED:   12621544	TO_CACHE:   70577138
L0D WQ	ACCESS:   13518702	FORWARD:          0	MERGED:          0	TO_CACHE:   13518702

L1D SPEC fills:          0  NON-SPEC fills:    3859956
L1D Test counter :          0
L1D Leapfrog:          0
L1D MSHR merge:      30972
L1D TOTAL     ACCESS:  124029547  HIT:   63292135  MISS:   60737412  HIT %:    51.0299  MISS %:    48.9701   MPKI: 303.687
L1D LOAD      TOTAL       ACCESS:   51420412  HIT:   18509973  MISS:   32910439  HIT %:    35.9973  MISS %:    64.0027   MPKI: 164.552
L1D LOAD      NON_SPEC    ACCESS:    8084147  HIT:    4224191  MISS:    3859956  HIT %:    52.2528  MISS %:    47.7472   MPKI: 19.2998
L1D LOAD      SPEC        ACCESS:   43336265  HIT:   14285782  MISS:   29050483  HIT %:     32.965  MISS %:     67.035   MPKI: 145.252
L1D RFO       NON_SPEC    ACCESS:    9559984  HIT:    9145080  MISS:     414904  HIT %:      95.66  MISS %:    4.34001   MPKI: 2.07452
L1D COMMIT LOAD NON_SPEC    ACCESS:   23311307  HIT:   21563744  MISS:    1747563  HIT %:    92.5034  MISS %:    7.49663   MPKI: 8.73781
L1D COMMIT WRITE NON_SPEC    ACCESS:   39737844  HIT:   14073338  MISS:   25664506  HIT %:    35.4155  MISS %:    64.5845   MPKI: 128.323
L1D PREFETCH  REQUESTED:          0  ISSUED:          0  USEFUL:          0  USELESS:          0
L1D USEFUL LOAD PREFETCHES:          0 PREFETCH ISSUED TO LOWER LEVEL:          0  ACCURACY: -nan
L1D TIMELY PREFETCHES:          0 LATE PREFETCHES: 0 DROPPED PREFETCHES: 0
L1D COMMIT LATE PREFETCHES: 0 NORMAL LATE: 0 MISSED OPPORTUNITY: 0 UNCOVERED: 32938888
L1D PREFETCHES SAME FILL-ORIGIN LEVEL: 0 DIFFERENT FILL-ORIGIN LEVEL: 0
L1D AVERAGE MISS LATENCY: 83.5939 cycles
L1D AVERAGE MISS LATENCY LOAD: 142.23 cycles
L1D AVERAGE MISS LATENCY PREFETCH: -nan cycles
L1D AVERAGE MSHR OCCUPANCY: 2.9751
L1D MSHR FULL: 2.21292e-05
L1D RQ	ACCESS:   85964465	FORWARD:          0	MERGED:    7776753	TO_CACHE:   75012340
L1D WQ	ACCESS:   53552954	FORWARD:    3175372	MERGED:    2759215	TO_CACHE:   50793739

L1D UNIQUE REGIONS ACCESSED: 0
L1D REGIONS CONFLICTS: 0
L1D Cross Page Prefetch Requests: 0
L1D Same Page Prefetch Requests: 0
L1D ROI Sum of L1D PQ occupancy: 0
L1D PREFETCHES PUSHED FROM L2C: 0
L1I SPEC fills:          0  NON-SPEC fills:          0
L1I Test counter :          0
L1I Leapfrog:          0
L1I MSHR merge:          0
L1I TOTAL     ACCESS:   51813967  HIT:   51813967  MISS:          0  HIT %:        100  MISS %:          0   MPKI: 0
L1I LOAD      TOTAL       ACCESS:   51813967  HIT:   51813967  MISS:          0  HIT %:        100  MISS %:          0   MPKI: 0
L1I LOAD      NON_SPEC    ACCESS:   51813967  HIT:   51813967  MISS:          0  HIT %:        100  MISS %:          0   MPKI: 0
L1I PREFETCH  REQUESTED:          0  ISSUED:          0  USEFUL:          0  USELESS:          0
L1I USEFUL LOAD PREFETCHES:          0 PREFETCH ISSUED TO LOWER LEVEL:          0  ACCURACY: -nan
L1I TIMELY PREFETCHES:          0 LATE PREFETCHES: 0 DROPPED PREFETCHES: 0
L1I COMMIT LATE PREFETCHES: 0 NORMAL LATE: 0 MISSED OPPORTUNITY: 0 UNCOVERED: 0
L1I PREFETCHES SAME FILL-ORIGIN LEVEL: 0 DIFFERENT FILL-ORIGIN LEVEL: 0
L1I AVERAGE MISS LATENCY: -nan cycles
L1I AVERAGE MISS LATENCY LOAD: -nan cycles
L1I AVERAGE MISS LATENCY PREFETCH: -nan cycles
L1I AVERAGE MSHR OCCUPANCY: 0
L1I MSHR FULL: 0
L1I RQ	ACCESS:   71891096	FORWARD:          0	MERGED:   20077126	TO_CACHE:   51813970

BTB SPEC fills:          0  NON-SPEC fills:          0
BTB Test counter :          0
BTB Leapfrog:          0
BTB MSHR merge:          0
BTB TOTAL     ACCESS:   35943474  HIT:   35943442  MISS:         32  HIT %:    99.9999  MISS %: 8.90287e-05   MPKI: 0.00016
BTB BRANCH_DIRECT_JUMP	ACCESS:    8413978  HIT:    8413972  MISS:          6
BTB BRANCH_INDIRECT	ACCESS:          0  HIT:          0  MISS:          0
BTB BRANCH_CONDITIONAL	ACCESS:   27526340  HIT:   27526318  MISS:         22
BTB BRANCH_DIRECT_CALL	ACCESS:       1578  HIT:       1576  MISS:          2
BTB BRANCH_INDIRECT_CALL	ACCESS:          0  HIT:          0  MISS:          0
BTB BRANCH_RETURN	ACCESS:       1578  HIT:       1576  MISS:          2
BTB BRANCH_OTHER ACCESS:          0  HIT:          0  MISS:          0

L2C SPEC fills:          0  NON-SPEC fills:     804988
L2C Test counter :          0
L2C Leapfrog:          0
L2C MSHR merge:    6500447
L2C TOTAL     ACCESS:   87368010  HIT:   40295961  MISS:   47072049  HIT %:    46.1221  MISS %:    53.8779   MPKI: 235.36
L2C LOAD      TOTAL       ACCESS:   32910437  HIT:   19064330  MISS:   13846107  HIT %:    57.9279  MISS %:    42.0721   MPKI: 69.2305
L2C LOAD      NON_SPEC    ACCESS:    3859956  HIT:    3054968  MISS:     804988  HIT %:    79.1452  MISS %:    20.8548   MPKI: 4.02494
L2C LOAD      SPEC        ACCESS:   29050481  HIT:   16009362  MISS:   13041119  HIT %:    55.1088  MISS %:    44.8912   MPKI: 65.2056
L2C RFO       NON_SPEC    ACCESS:     414904  HIT:       9941  MISS:     404963  HIT %:    2.39598  MISS %:     97.604   MPKI: 2.02481
L2C PREFETCH  NON_SPEC    ACCESS:   25813865  HIT:    2615635  MISS:   23198230  HIT %:    10.1327  MISS %:    89.8673   MPKI: 115.991
L2C WRITEBACK NON_SPEC    ACCESS:     449401  HIT:     449215  MISS:        186  HIT %:    99.9586  MISS %:  0.0413884   MPKI: 0.00093
L2C CLEAN_EVICTION NON_SPEC    ACCESS:   25970526  HIT:   17111041  MISS:    8859485  HIT %:    65.8864  MISS %:    34.1136   MPKI: 44.2974
L2C COMMIT LOAD NON_SPEC    ACCESS:    1747562  HIT:     989503  MISS:     758059  HIT %:    56.6219  MISS %:    43.3781   MPKI: 3.79029
L2C LOAD TRANSLATION NON_SPEC    ACCESS:      61315  HIT:      56296  MISS:       5019  HIT %:    91.8144  MISS %:     8.1856   MPKI: 0.025095
L2C PREFETCH  REQUESTED:   37478344  ISSUED:   37470659  USEFUL:   17509941  USELESS:    5688203
L2C USEFUL LOAD PREFETCHES:   17509941 PREFETCH ISSUED TO LOWER LEVEL:   30013981  ACCURACY: 58.3393
L2C TIMELY PREFETCHES:   17509941 LATE PREFETCHES: 6787132 DROPPED PREFETCHES: 0
L2C COMMIT LATE PREFETCHES: 7755179 NORMAL LATE: 3897557 MISSED OPPORTUNITY: 397939 UNCOVERED: 2082121
L2C PREFETCHES SAME FILL-ORIGIN LEVEL: 29985368 DIFFERENT FILL-ORIGIN LEVEL: 28613
L2C AVERAGE MISS LATENCY: 286.885 cycles
L2C AVERAGE MISS LATENCY LOAD: 315.248 cycles
L2C AVERAGE MISS LATENCY PREFETCH: 378.078 cycles
L2C AVERAGE MSHR OCCUPANCY: 10.4523
L2C MSHR FULL: 0.00427701
L2C RQ	ACCESS:   35134224	FORWARD:          0	MERGED:          0	TO_CACHE:   35134222
L2C WQ	ACCESS:   26419941	FORWARD:          7	MERGED:         12	TO_CACHE:   26419929
L2C PQ	ACCESS:   37470659	FORWARD:          0	MERGED:    1095618	TO_CACHE:   36375036

L2C Instructions Evicting Data 0
L2C Translations Evicting Data 5019
L2C Data Evicting Data 25162326
L2C Instructions Evicting Instructions 0
L2C Translations Evicting Instructions 0
L2C Data Evicting Instructions 0
L2C Instructions Evicting Translations 0
L2C Translations Evicting Translations 0
L2C Data Evicting Translations 3914
L2C Dense regions hint from L2: 0
PSCL5 SPEC fills:          0  NON-SPEC fills:          0
PSCL5 Test counter :          0
PSCL5 Leapfrog:          0
PSCL5 MSHR merge:          0
PSCL5 TOTAL     ACCESS:          0  HIT:          0  MISS:          0  HIT %:       -nan  MISS %:       -nan   MPKI: 0
PSCL5 PREFETCH  REQUESTED:          0  ISSUED:          0  USEFUL:          0  USELESS:          0
PSCL5 USEFUL LOAD PREFETCHES:          0 PREFETCH ISSUED TO LOWER LEVEL:          0  ACCURACY: -nan
PSCL5 TIMELY PREFETCHES:          0 LATE PREFETCHES: 0 DROPPED PREFETCHES: 0
PSCL5 COMMIT LATE PREFETCHES: 0 NORMAL LATE: 0 MISSED OPPORTUNITY: 0 UNCOVERED: 0
PSCL5 PREFETCHES SAME FILL-ORIGIN LEVEL: 0 DIFFERENT FILL-ORIGIN LEVEL: 0

PSCL4 SPEC fills:          0  NON-SPEC fills:          0
PSCL4 Test counter :          0
PSCL4 Leapfrog:          0
PSCL4 MSHR merge:          0
PSCL4 TOTAL     ACCESS:          0  HIT:          0  MISS:          0  HIT %:       -nan  MISS %:       -nan   MPKI: 0
PSCL4 PREFETCH  REQUESTED:          0  ISSUED:          0  USEFUL:          0  USELESS:          0
PSCL4 USEFUL LOAD PREFETCHES:          0 PREFETCH ISSUED TO LOWER LEVEL:          0  ACCURACY: -nan
PSCL4 TIMELY PREFETCHES:          0 LATE PREFETCHES: 0 DROPPED PREFETCHES: 0
PSCL4 COMMIT LATE PREFETCHES: 0 NORMAL LATE: 0 MISSED OPPORTUNITY: 0 UNCOVERED: 0
PSCL4 PREFETCHES SAME FILL-ORIGIN LEVEL: 0 DIFFERENT FILL-ORIGIN LEVEL: 0

PSCL3 SPEC fills:          0  NON-SPEC fills:          0
PSCL3 Test counter :          0
PSCL3 Leapfrog:          0
PSCL3 MSHR merge:          0
PSCL3 TOTAL     ACCESS:          0  HIT:          0  MISS:          0  HIT %:       -nan  MISS %:       -nan   MPKI: 0
PSCL3 PREFETCH  REQUESTED:          0  ISSUED:          0  USEFUL:          0  USELESS:          0
PSCL3 USEFUL LOAD PREFETCHES:          0 PREFETCH ISSUED TO LOWER LEVEL:          0  ACCURACY: -nan
PSCL3 TIMELY PREFETCHES:          0 LATE PREFETCHES: 0 DROPPED PREFETCHES: 0
PSCL3 COMMIT LATE PREFETCHES: 0 NORMAL LATE: 0 MISSED OPPORTUNITY: 0 UNCOVERED: 0
PSCL3 PREFETCHES SAME FILL-ORIGIN LEVEL: 0 DIFFERENT FILL-ORIGIN LEVEL: 0

PSCL2 SPEC fills:          0  NON-SPEC fills:          0
PSCL2 Test counter :          0
PSCL2 Leapfrog:          0
PSCL2 MSHR merge:          0
PSCL2 TOTAL     ACCESS:          0  HIT:          0  MISS:          0  HIT %:       -nan  MISS %:       -nan   MPKI: 0
PSCL2 PREFETCH  REQUESTED:          0  ISSUED:          0  USEFUL:          0  USELESS:          0
PSCL2 USEFUL LOAD PREFETCHES:          0 PREFETCH ISSUED TO LOWER LEVEL:          0  ACCURACY: -nan
PSCL2 TIMELY PREFETCHES:          0 LATE PREFETCHES: 0 DROPPED PREFETCHES: 0
PSCL2 COMMIT LATE PREFETCHES: 0 NORMAL LATE: 0 MISSED OPPORTUNITY: 0 UNCOVERED: 0
PSCL2 PREFETCHES SAME FILL-ORIGIN LEVEL: 0 DIFFERENT FILL-ORIGIN LEVEL: 0

LLC SPEC fills:          0  NON-SPEC fills:     111668
LLC Test counter :          0
LLC Leapfrog:          0
LLC MSHR merge:          2
LLC TOTAL     ACCESS:   64654625  HIT:   26434172  MISS:   38220453  HIT %:    40.8852  MISS %:    59.1148   MPKI: 191.102
LLC LOAD      TOTAL       ACCESS:    7345661  HIT:    1011464  MISS:    6334197  HIT %:    13.7695  MISS %:    86.2305   MPKI: 31.671
LLC LOAD      NON_SPEC    ACCESS:     133037  HIT:      21369  MISS:     111668  HIT %:    16.0624  MISS %:    83.9376   MPKI: 0.55834
LLC LOAD      SPEC        ACCESS:    7212624  HIT:     990095  MISS:    6222529  HIT %:    13.7273  MISS %:    86.2727   MPKI: 31.1126
LLC RFO       NON_SPEC    ACCESS:     393300  HIT:         48  MISS:     393252  HIT %:  0.0122044  MISS %:    99.9878   MPKI: 1.96626
LLC PREFETCH  NON_SPEC    ACCESS:   30013106  HIT:    2098827  MISS:   27914279  HIT %:    6.99303  MISS %:     93.007   MPKI: 139.571
LLC WRITEBACK NON_SPEC    ACCESS:     446821  HIT:     446159  MISS:        662  HIT %:    99.8518  MISS %:   0.148158   MPKI: 0.00331
LLC CLEAN_EVICTION NON_SPEC    ACCESS:   25967681  HIT:   22575332  MISS:    3392349  HIT %:    86.9363  MISS %:    13.0637   MPKI: 16.9617
LLC COMMIT LOAD NON_SPEC    ACCESS:     483037  HIT:     302006  MISS:     181031  HIT %:    62.5223  MISS %:    37.4777   MPKI: 0.905155
LLC LOAD TRANSLATION NON_SPEC    ACCESS:       5019  HIT:        336  MISS:       4683  HIT %:    6.69456  MISS %:    93.3054   MPKI: 0.023415
LLC PREFETCH  REQUESTED:          0  ISSUED:          0  USEFUL:     692763  USELESS:   27222774
LLC USEFUL LOAD PREFETCHES:     692763 PREFETCH ISSUED TO LOWER LEVEL:   27914289  ACCURACY: 2.48175
LLC TIMELY PREFETCHES:     692763 LATE PREFETCHES: 3 DROPPED PREFETCHES: 0
LLC COMMIT LATE PREFETCHES: 0 NORMAL LATE: 0 MISSED OPPORTUNITY: 0 UNCOVERED: 0
LLC PREFETCHES SAME FILL-ORIGIN LEVEL: 26225 DIFFERENT FILL-ORIGIN LEVEL: 0
LLC AVERAGE MISS LATENCY: 357.113 cycles
LLC AVERAGE MISS LATENCY LOAD: 349.537 cycles
LLC AVERAGE MISS LATENCY PREFETCH: 400.068 cycles
LLC AVERAGE MSHR OCCUPANCY: 9.18434
LLC MSHR FULL: 0
LLC RQ	ACCESS:    8227020	FORWARD:          0	MERGED:          0	TO_CACHE:    8227020
LLC WQ	ACCESS:   26414502	FORWARD:          1	MERGED:          0	TO_CACHE:   26414502
LLC PQ	ACCESS:   30013981	FORWARD:          0	MERGED:        340	TO_CACHE:   30013640

LLC Dense regions hint to LLC: 0

RAW hits: 8334279
Loads Generated: 91532965
Loads sent to L1D: 83198682
Stores Generated: 13518702
Stores sent to L1D: 13518702
Major fault: 0 Minor fault: 17320
Allocated PAGES: 17320
Total Load insts: 103497156
Total Non-spec loads: 9414056
Percentage of speculative loads: 90.9041

LeapFrogging counter: 13278649
Commit hits: 40034252 miss: 34513081
Commit hit %: 53.7031 miss %: 46.2969
Commits not translated: 0
Loads retired: 32910432
Stores retired: 13518702
Cache fills: 32910439
L1D response latency: 142.23 cycles
Load retirement latency: 376.4 cycles
OOO test counter: 0
Discarded buffer inserts: 40034252 hits: 538911 hit %: 1.34612
Filter prediction accuracy: -nan
------------------
Depth Distribution
------------------
depth 0: 435556
depth 1: 2605936
depth 2: 18707836
depth 3: 6980294
depth 4: 7012408
depth 5: 3997891
depth 6: 772568
depth 7: 5809
depth 8: 782
depth 9: 239
depth 10: 2
depth 11: 1
depth 12: 0
depth 13: 0
depth 14: 0
depth 15: 0
depth 16: 0
depth 17: 0
depth 18: 0
depth 19: 0
depth 20: 0
depth 21: 0
depth 22: 0
depth 23: 0
depth 24: 0
depth 25: 0
depth 26: 0
depth 27: 0
depth 28: 0
depth 29: 0
Total: 40519322
------------------
ST read accesses: 32117404
ST write accesses: 793037
PT read accesses: 661379253
PT write accesses: 47268605
FILTER read accesses: 271092561
FILTER write accesses: 294937651
GHR read accesses: 62761939
GHR write accesses: 9425724
PERC read accesses: 4337661186
PERC write accesses: 528586236
GHR counter read accesses: 65820882
GHR counter write accesses: 114809602
GHR ip read accesses: 230884530
GHR ip write accesses: 131641764
ST tag read accesses: 13060216575
ST tag write accesses: 268958410
------------------
Depth Distribution
------------------
depth 0: 51984697
depth 1: 20752
depth 2: 224363
depth 3: 1294321
depth 4: 1574890
depth 5: 1715194
depth 6: 3167180
depth 7: 8081908
depth 8: 10485830
depth 9: 20436212
depth 10: 10458344
depth 11: 4654146
depth 12: 22582
depth 13: 228
depth 14: 70
depth 15: 0
depth 16: 0
depth 17: 0
depth 18: 0
depth 19: 0
depth 20: 0
depth 21: 0
depth 22: 0
depth 23: 0
depth 24: 0
depth 25: 0
depth 26: 0
depth 27: 0
depth 28: 0
depth 29: 0
Total: 114120717
------------------
ST read accesses: 90741599
ST write accesses: 791367
PT read accesses: 2423451355
PT write accesses: 73848840
FILTER read accesses: 566026525
FILTER write accesses: 135088818
GHR read accesses: 207721704
GHR write accesses: 34572352
PERC read accesses: 17592072903
PERC write accesses: 325072710
GHR counter read accesses: 183065932
GHR counter write accesses: 160638303
GHR ip read accesses: 387669168
GHR ip write accesses: 366131864
ST tag read accesses: 32161669669
ST tag write accesses: 487887809

DRAM Statistics
 CHANNEL 0
 RQ ROW_BUFFER_HIT:   15466257  ROW_BUFFER_MISS:   19358735
 DBUS_CONGESTED:       1813
 WQ ROW_BUFFER_HIT:    4999640  ROW_BUFFER_MISS:   19703669  FULL:      31396

 AVG_CONGESTED_CYCLE: 5
 All warmup complete: 2
Channel 0 Bank busy for read cycles: 0
Channel 0 Bank busy for write cycles: 0
Channel 0
Rank 0
0banks busy for read cycles: 25773492
0banks busy for write cycles: 24432
1banks busy for read cycles: 35358710
1banks busy for write cycles: 4968240
2banks busy for read cycles: 49162443
2banks busy for write cycles: 4247709
3banks busy for read cycles: 63009490
3banks busy for write cycles: 4052406
4banks busy for read cycles: 77336972
4banks busy for write cycles: 4028489
5banks busy for read cycles: 93020666
5banks busy for write cycles: 4219848
6banks busy for read cycles: 114272319
6banks busy for write cycles: 5214070
7banks busy for read cycles: 145174549
7banks busy for write cycles: 40602329
8banks busy for read cycles: 151888869
8banks busy for write cycles: 491803224

CPU 0 Branch Prediction Accuracy: 98.8241% MPKI: 2.1554 Average ROB Occupancy at Mispredict: 69.2648
Branch types
NOT_BRANCH: 163339829 81.6699%
BRANCH_DIRECT_JUMP: 8413978 4.20699%
BRANCH_INDIRECT: 0 0%
BRANCH_CONDITIONAL: 28243017 14.1215%
BRANCH_DIRECT_CALL: 1578 0.000789%
BRANCH_INDIRECT_CALL: 0 0%
BRANCH_RETURN: 1578 0.000789%
BRANCH_OTHER: 0 0%

DRAM PAGES: 1048576
Allocated PAGES: 17320
