Initialize SIGNATURE TABLE
ST_SET: 1
ST_WAY: 256
ST_TAG_BIT: 16
ST_TAG_MASK: ffff

Initialize PATTERN TABLE
PT_SET: 512
PT_WAY: 4
SIG_DELTA_BIT: 7
C_SIG_BIT: 4
C_DELTA_BIT: 4

Initialize PREFETCH FILTER
FILTER_SET: 1024

Initialize PERCEPTRON
PERC_ENTRIES: 4096
PERC_FEATURES: 9
Initialize SIGNATURE TABLE
ST_SET: 1
ST_WAY: 256
ST_TAG_BIT: 16
ST_TAG_MASK: ffff

Initialize PATTERN TABLE
PT_SET: 512
PT_WAY: 4
SIG_DELTA_BIT: 7
C_SIG_BIT: 4
C_DELTA_BIT: 4

Initialize PREFETCH FILTER
FILTER_SET: 1024

Initialize PERCEPTRON
PERC_ENTRIES: 4096
PERC_FEATURES: 9

*** ChampSim Multicore Out-of-Order Simulator ***

Warmup Instructions: 50000000
Simulation Instructions: 200000000
Number of CPUs: 1
LLC sets: 2048
LLC ways: 16
L0D sets: 16
L0D ways: 2
ROB size: 352
LQ size: 128
SQ size: 72
Secure Berti: OFF
Berti: OFF
Berti Fill: OFF
On commit prefetching: ON
Hit-based filter: OFF
Time-guarding: ON
Free-slotting: ON
Leap-frogging: ON
Train prefetcher on L0D bypass: OFF
No translation penalty for prefetchers: OFF
Prefetch to L0D only: OFF
Prefetch to L1D only: OFF
Clean evictions: ON
Commit loads: ON
Commit write: ON
Fill commit loads to L2C, LLC: ON
DRAM IO FREQUENCY: 6400
ROB SIZE: 352
Off-chip DRAM Size: 4096 MB Channels: 1 Width: 64-bit Data Rate: 6400 MT/s
CPU 0 runs /home/sumon/secure_berti/GhostMinion/../../traces/spec/619.lbm_s-4268B.champsimtrace.xz
.xz
BTB has LRU replacement policy
ITLB has LRU replacement policy
DTLB has LRU replacement policy
STLB has LRU replacement policy
L1I has LRU replacement policy
L0D has LRU replacement policy
PERC_ENTRIES: 4096
L1D has LRU replacement policy
PERC_ENTRIES: 4096
L2C has LRU replacement policy
LLC has LRU replacement policy
Heartbeat CPU 0 instructions: 10000000 cycles: 3056202 heartbeat IPC: 3.27204 cumulative IPC: 3.27204 (Simulation time: 0 hr 1 min 50 sec) 
Heartbeat CPU 0 instructions: 20000003 cycles: 6111585 heartbeat IPC: 3.27291 cumulative IPC: 3.27247 (Simulation time: 0 hr 3 min 49 sec) 
Heartbeat CPU 0 instructions: 30000000 cycles: 9161034 heartbeat IPC: 3.27928 cumulative IPC: 3.27474 (Simulation time: 0 hr 5 min 54 sec) 
Heartbeat CPU 0 instructions: 40000000 cycles: 12218060 heartbeat IPC: 3.27115 cumulative IPC: 3.27384 (Simulation time: 0 hr 8 min 4 sec) 
Heartbeat CPU 0 instructions: 50000002 cycles: 15277585 heartbeat IPC: 3.26848 cumulative IPC: 3.27277 (Simulation time: 0 hr 10 min 14 sec) 

Warmup complete CPU 0 instructions: 50000002 cycles: 15277585 (Simulation time: 0 hr 10 min 14 sec) 

Heartbeat CPU 0 instructions: 60000000 cycles: 42915192 heartbeat IPC: 0.361826 cumulative IPC: 0.361826 (Simulation time: 0 hr 14 min 30 sec) 
Heartbeat CPU 0 instructions: 70000000 cycles: 70339980 heartbeat IPC: 0.364634 cumulative IPC: 0.363224 (Simulation time: 0 hr 18 min 54 sec) 
Heartbeat CPU 0 instructions: 80000001 cycles: 96942810 heartbeat IPC: 0.3759 cumulative IPC: 0.367353 (Simulation time: 0 hr 23 min 13 sec) 
Heartbeat CPU 0 instructions: 90000001 cycles: 123837549 heartbeat IPC: 0.37182 cumulative IPC: 0.36846 (Simulation time: 0 hr 27 min 33 sec) 
Heartbeat CPU 0 instructions: 100000003 cycles: 150396759 heartbeat IPC: 0.376517 cumulative IPC: 0.370044 (Simulation time: 0 hr 31 min 48 sec) 
Heartbeat CPU 0 instructions: 110000000 cycles: 177610737 heartbeat IPC: 0.367458 cumulative IPC: 0.36961 (Simulation time: 0 hr 36 min 9 sec) 
Heartbeat CPU 0 instructions: 120000001 cycles: 205138878 heartbeat IPC: 0.363265 cumulative IPC: 0.36869 (Simulation time: 0 hr 40 min 33 sec) 
Heartbeat CPU 0 instructions: 130000001 cycles: 232042172 heartbeat IPC: 0.371702 cumulative IPC: 0.369064 (Simulation time: 0 hr 44 min 53 sec) 
Heartbeat CPU 0 instructions: 140000000 cycles: 259154882 heartbeat IPC: 0.368831 cumulative IPC: 0.369038 (Simulation time: 0 hr 49 min 9 sec) 
Heartbeat CPU 0 instructions: 150000003 cycles: 286361727 heartbeat IPC: 0.367555 cumulative IPC: 0.368889 (Simulation time: 0 hr 53 min 12 sec) 
Heartbeat CPU 0 instructions: 160000003 cycles: 314208016 heartbeat IPC: 0.359114 cumulative IPC: 0.367979 (Simulation time: 0 hr 57 min 0 sec) 
Heartbeat CPU 0 instructions: 170000003 cycles: 341704355 heartbeat IPC: 0.363685 cumulative IPC: 0.367617 (Simulation time: 1 hr 0 min 35 sec) 
Heartbeat CPU 0 instructions: 180000001 cycles: 369138184 heartbeat IPC: 0.364513 cumulative IPC: 0.367376 (Simulation time: 1 hr 4 min 7 sec) 
Heartbeat CPU 0 instructions: 190000002 cycles: 396710947 heartbeat IPC: 0.362677 cumulative IPC: 0.367037 (Simulation time: 1 hr 7 min 39 sec) 
Heartbeat CPU 0 instructions: 200000003 cycles: 424246282 heartbeat IPC: 0.36317 cumulative IPC: 0.366776 (Simulation time: 1 hr 11 min 11 sec) 
Heartbeat CPU 0 instructions: 210000001 cycles: 452290448 heartbeat IPC: 0.35658 cumulative IPC: 0.366122 (Simulation time: 1 hr 14 min 45 sec) 
Heartbeat CPU 0 instructions: 220000000 cycles: 480460739 heartbeat IPC: 0.354984 cumulative IPC: 0.365447 (Simulation time: 1 hr 18 min 16 sec) 
Heartbeat CPU 0 instructions: 230000000 cycles: 508143949 heartbeat IPC: 0.36123 cumulative IPC: 0.365211 (Simulation time: 1 hr 21 min 46 sec) 
Heartbeat CPU 0 instructions: 240000001 cycles: 535869760 heartbeat IPC: 0.360675 cumulative IPC: 0.364969 (Simulation time: 1 hr 25 min 16 sec) 
Heartbeat CPU 0 instructions: 250000001 cycles: 562801368 heartbeat IPC: 0.371311 cumulative IPC: 0.365281 (Simulation time: 1 hr 28 min 40 sec) 
Finished CPU 0 instructions: 200000003 cycles: 547523784 cumulative IPC: 0.365281 (Simulation time: 1 hr 28 min 40 sec) 
 Instruction ID: 250000117

ChampSim completed all CPUs

Region of Interest Statistics

CPU 0 cumulative IPC: 0.365281 instructions: 200000003 cycles: 547523784
ITLB SPEC fills:          0  NON-SPEC fills:          0
ITLB Test counter :          0
ITLB Leapfrog:          0
ITLB MSHR merge:          0
ITLB TOTAL     ACCESS:   26899540  HIT:   26899540  MISS:          0  HIT %:        100  MISS %:          0   MPKI: 0
ITLB LOAD TRANSLATION NON_SPEC    ACCESS:   26899540  HIT:   26899540  MISS:          0  HIT %:        100  MISS %:          0   MPKI: 0
ITLB PREFETCH  REQUESTED:          0  ISSUED:          0  USEFUL:          0  USELESS:          0
ITLB USEFUL LOAD PREFETCHES:          0 PREFETCH ISSUED TO LOWER LEVEL:          0  ACCURACY: -nan
ITLB TIMELY PREFETCHES:          0 LATE PREFETCHES: 0 DROPPED PREFETCHES: 0
ITLB COMMIT LATE PREFETCHES: 0 NORMAL LATE: 0 MISSED OPPORTUNITY: 0 UNCOVERED: 0
ITLB PREFETCHES SAME FILL-ORIGIN LEVEL: 0 DIFFERENT FILL-ORIGIN LEVEL: 0
ITLB AVERAGE MISS LATENCY: -nan cycles
ITLB AVERAGE MISS LATENCY LOAD: -nan cycles
ITLB AVERAGE MISS LATENCY PREFETCH: -nan cycles
ITLB AVERAGE MSHR OCCUPANCY: 0
ITLB MSHR FULL: 0
ITLB RQ	ACCESS:   34730568	FORWARD:          0	MERGED:    7831028	TO_CACHE:   26899540

DTLB SPEC fills:          0  NON-SPEC fills:          0
DTLB Test counter :          0
DTLB Leapfrog:          0
DTLB MSHR merge:          0
DTLB TOTAL     ACCESS:   43639033  HIT:   43362506  MISS:     276527  HIT %:    99.3663  MISS %:   0.633669   MPKI: 1.38263
DTLB LOAD TRANSLATION NON_SPEC    ACCESS:   43639033  HIT:   43362506  MISS:     276527  HIT %:    99.3663  MISS %:   0.633669   MPKI: 1.38263
DTLB PREFETCH  REQUESTED:          0  ISSUED:          0  USEFUL:          0  USELESS:          0
DTLB USEFUL LOAD PREFETCHES:          0 PREFETCH ISSUED TO LOWER LEVEL:          0  ACCURACY: -nan
DTLB TIMELY PREFETCHES:          0 LATE PREFETCHES: 0 DROPPED PREFETCHES: 0
DTLB COMMIT LATE PREFETCHES: 0 NORMAL LATE: 0 MISSED OPPORTUNITY: 0 UNCOVERED: 0
DTLB PREFETCHES SAME FILL-ORIGIN LEVEL: 0 DIFFERENT FILL-ORIGIN LEVEL: 0
DTLB AVERAGE MISS LATENCY: 140.299 cycles
DTLB AVERAGE MISS LATENCY LOAD: -nan cycles
DTLB AVERAGE MISS LATENCY PREFETCH: -nan cycles
DTLB AVERAGE MSHR OCCUPANCY: 0.0915874
DTLB MSHR FULL: 0
DTLB RQ	ACCESS:   64832392	FORWARD:          0	MERGED:   21050198	TO_CACHE:   43782194

STLB SPEC fills:          0  NON-SPEC fills:          0
STLB Test counter :          0
STLB Leapfrog:          0
STLB MSHR merge:          0
STLB TOTAL     ACCESS:     276527  HIT:     126479  MISS:     150048  HIT %:    45.7384  MISS %:    54.2616   MPKI: 0.75024
STLB LOAD TRANSLATION NON_SPEC    ACCESS:     276527  HIT:     126479  MISS:     150048  HIT %:    45.7384  MISS %:    54.2616   MPKI: 0.75024
STLB PREFETCH  REQUESTED:          0  ISSUED:          0  USEFUL:          0  USELESS:          0
STLB USEFUL LOAD PREFETCHES:          0 PREFETCH ISSUED TO LOWER LEVEL:          0  ACCURACY: -nan
STLB TIMELY PREFETCHES:          0 LATE PREFETCHES: 0 DROPPED PREFETCHES: 0
STLB COMMIT LATE PREFETCHES: 0 NORMAL LATE: 0 MISSED OPPORTUNITY: 0 UNCOVERED: 0
STLB PREFETCHES SAME FILL-ORIGIN LEVEL: 0 DIFFERENT FILL-ORIGIN LEVEL: 0
STLB AVERAGE MISS LATENCY: 241.843 cycles
STLB AVERAGE MISS LATENCY LOAD: -nan cycles
STLB AVERAGE MISS LATENCY PREFETCH: -nan cycles
STLB AVERAGE MSHR OCCUPANCY: 0.164241
STLB MSHR FULL: 0
STLB RQ	ACCESS:     276527	FORWARD:          0	MERGED:          0	TO_CACHE:     276527

STLB Hit, L1D data hit: 0
STLB Hit, L2C data hit: 0
STLB Hit, LLC data hit: 0
STLB Hit, LLC data miss: 0
STLB STLB hints to L2: 0
L0D SPEC fills:   16072362  NON-SPEC fills:          0
L0D TimeGuard Request with older TS:     163057 Restricted eviction:      36895 read:     986693
L0D Test counter :          0
L0D Leapfrog:          0
L0D MSHR merge:    4238179
L0D TOTAL     ACCESS:   23626310  HIT:    6083551  MISS:   17542759  HIT %:    25.7491  MISS %:    74.2509   MPKI: 87.7138
L0D LOAD      TOTAL       ACCESS:   23626310  HIT:    6083551  MISS:   17542759  HIT %:    25.7491  MISS %:    74.2509   MPKI: 87.7138
L0D LOAD      NON_SPEC    ACCESS:    2234667  HIT:     801165  MISS:    1433502  HIT %:    35.8517  MISS %:    64.1483   MPKI: 7.16751
L0D LOAD      SPEC        ACCESS:   21391643  HIT:    5282386  MISS:   16109257  HIT %:    24.6937  MISS %:    75.3063   MPKI: 80.5463
L0D PREFETCH  REQUESTED:          0  ISSUED:          0  USEFUL:          0  USELESS:          0
L0D USEFUL LOAD PREFETCHES:          0 PREFETCH ISSUED TO LOWER LEVEL:          0  ACCURACY: -nan
L0D TIMELY PREFETCHES:          0 LATE PREFETCHES: 0 DROPPED PREFETCHES: 0
L0D COMMIT LATE PREFETCHES: 0 NORMAL LATE: 0 MISSED OPPORTUNITY: 0 UNCOVERED: 0
L0D PREFETCHES SAME FILL-ORIGIN LEVEL: 0 DIFFERENT FILL-ORIGIN LEVEL: 0
L0D AVERAGE MISS LATENCY: 80.787 cycles
L0D AVERAGE MISS LATENCY LOAD: 80.787 cycles
L0D AVERAGE MISS LATENCY PREFETCH: -nan cycles
L0D AVERAGE MSHR OCCUPANCY: 1.8754
L0D MSHR FULL: 0.0875147
L0D RQ	ACCESS:   48695635	FORWARD:          0	MERGED:   20831147	TO_CACHE:   27864488
L0D WQ	ACCESS:   36967904	FORWARD:          0	MERGED:          0	TO_CACHE:   36967904

L1D SPEC fills:          0  NON-SPEC fills:     182811
L1D Test counter :          0
L1D Leapfrog:          0
L1D MSHR merge:       8856
L1D TOTAL     ACCESS:   80860460  HIT:   62580833  MISS:   18279627  HIT %:    77.3936  MISS %:    22.6064   MPKI: 91.3981
L1D LOAD      TOTAL       ACCESS:   17533902  HIT:   15115266  MISS:    2418636  HIT %:    86.2059  MISS %:    13.7941   MPKI: 12.0932
L1D LOAD      NON_SPEC    ACCESS:    1429745  HIT:    1246934  MISS:     182811  HIT %:    87.2137  MISS %:    12.7863   MPKI: 0.914055
L1D LOAD      SPEC        ACCESS:   16104157  HIT:   13868332  MISS:    2235825  HIT %:    86.1165  MISS %:    13.8835   MPKI: 11.1791
L1D RFO       NON_SPEC    ACCESS:   35947397  HIT:   22512968  MISS:   13434429  HIT %:    62.6275  MISS %:    37.3725   MPKI: 67.1721
L1D COMMIT LOAD NON_SPEC    ACCESS:   11596926  HIT:   11349277  MISS:     247649  HIT %:    97.8645  MISS %:    2.13547   MPKI: 1.23824
L1D COMMIT WRITE NON_SPEC    ACCESS:   15782235  HIT:   13603322  MISS:    2178913  HIT %:    86.1939  MISS %:    13.8061   MPKI: 10.8946
L1D PREFETCH  REQUESTED:          0  ISSUED:          0  USEFUL:          0  USELESS:          0
L1D USEFUL LOAD PREFETCHES:          0 PREFETCH ISSUED TO LOWER LEVEL:          0  ACCURACY: -nan
L1D TIMELY PREFETCHES:          0 LATE PREFETCHES: 0 DROPPED PREFETCHES: 0
L1D COMMIT LATE PREFETCHES: 0 NORMAL LATE: 0 MISSED OPPORTUNITY: 0 UNCOVERED: 2418870
L1D PREFETCHES SAME FILL-ORIGIN LEVEL: 0 DIFFERENT FILL-ORIGIN LEVEL: 0
L1D AVERAGE MISS LATENCY: 297.114 cycles
L1D AVERAGE MISS LATENCY LOAD: 294.383 cycles
L1D AVERAGE MISS LATENCY PREFETCH: -nan cycles
L1D AVERAGE MSHR OCCUPANCY: 15.3368
L1D MSHR FULL: 0.917286
L1D RQ	ACCESS:   47763495	FORWARD:          0	MERGED:   18430057	TO_CACHE:   29141646
L1D WQ	ACCESS:   52858970	FORWARD:     191792	MERGED:     902371	TO_CACHE:   51956599

L1D UNIQUE REGIONS ACCESSED: 0
L1D REGIONS CONFLICTS: 0
L1D Cross Page Prefetch Requests: 0
L1D Same Page Prefetch Requests: 0
L1D ROI Sum of L1D PQ occupancy: 0
L1D PREFETCHES PUSHED FROM L2C: 0
L1I SPEC fills:          0  NON-SPEC fills:          0
L1I Test counter :          0
L1I Leapfrog:          0
L1I MSHR merge:          0
L1I TOTAL     ACCESS:   34730567  HIT:   34730567  MISS:          0  HIT %:        100  MISS %:          0   MPKI: 0
L1I LOAD      TOTAL       ACCESS:   34730567  HIT:   34730567  MISS:          0  HIT %:        100  MISS %:          0   MPKI: 0
L1I LOAD      NON_SPEC    ACCESS:   34730567  HIT:   34730567  MISS:          0  HIT %:        100  MISS %:          0   MPKI: 0
L1I PREFETCH  REQUESTED:          0  ISSUED:          0  USEFUL:          0  USELESS:          0
L1I USEFUL LOAD PREFETCHES:          0 PREFETCH ISSUED TO LOWER LEVEL:          0  ACCURACY: -nan
L1I TIMELY PREFETCHES:          0 LATE PREFETCHES: 0 DROPPED PREFETCHES: 0
L1I COMMIT LATE PREFETCHES: 0 NORMAL LATE: 0 MISSED OPPORTUNITY: 0 UNCOVERED: 0
L1I PREFETCHES SAME FILL-ORIGIN LEVEL: 0 DIFFERENT FILL-ORIGIN LEVEL: 0
L1I AVERAGE MISS LATENCY: -nan cycles
L1I AVERAGE MISS LATENCY LOAD: -nan cycles
L1I AVERAGE MISS LATENCY PREFETCH: -nan cycles
L1I AVERAGE MSHR OCCUPANCY: 0
L1I MSHR FULL: 0
L1I RQ	ACCESS:   50079826	FORWARD:          0	MERGED:   15349258	TO_CACHE:   34730568

BTB SPEC fills:          0  NON-SPEC fills:          0
BTB Test counter :          0
BTB Leapfrog:          0
BTB MSHR merge:          0
BTB TOTAL     ACCESS:    3614433  HIT:    3614427  MISS:          6  HIT %:    99.9998  MISS %: 0.000166001   MPKI: 3e-05
BTB BRANCH_DIRECT_JUMP	ACCESS:     592790  HIT:     592789  MISS:          1
BTB BRANCH_INDIRECT	ACCESS:          0  HIT:          0  MISS:          0
BTB BRANCH_CONDITIONAL	ACCESS:    3021643  HIT:    3021638  MISS:          5
BTB BRANCH_DIRECT_CALL	ACCESS:          0  HIT:          0  MISS:          0
BTB BRANCH_INDIRECT_CALL	ACCESS:          0  HIT:          0  MISS:          0
BTB BRANCH_RETURN	ACCESS:          0  HIT:          0  MISS:          0
BTB BRANCH_OTHER ACCESS:          0  HIT:          0  MISS:          0

L2C SPEC fills:          0  NON-SPEC fills:      65833
L2C Test counter :          0
L2C Leapfrog:          0
L2C MSHR merge:     723087
L2C TOTAL     ACCESS:   35903542  HIT:   25013896  MISS:   10889646  HIT %:    69.6697  MISS %:    30.3303   MPKI: 54.4482
L2C LOAD      TOTAL       ACCESS:    2418635  HIT:    1194735  MISS:    1223900  HIT %:    49.3971  MISS %:    50.6029   MPKI: 6.1195
L2C LOAD      NON_SPEC    ACCESS:     182811  HIT:     116978  MISS:      65833  HIT %:    63.9885  MISS %:    36.0115   MPKI: 0.329165
L2C LOAD      SPEC        ACCESS:    2235824  HIT:    1077757  MISS:    1158067  HIT %:     48.204  MISS %:     51.796   MPKI: 5.79033
L2C RFO       NON_SPEC    ACCESS:   13434389  HIT:    6123802  MISS:    7310587  HIT %:     45.583  MISS %:     54.417   MPKI: 36.5529
L2C PREFETCH  NON_SPEC    ACCESS:    3218324  HIT:    1823070  MISS:    1395254  HIT %:    56.6466  MISS %:    43.3534   MPKI: 6.97627
L2C WRITEBACK NON_SPEC    ACCESS:   13434433  HIT:   13434426  MISS:          7  HIT %:    99.9999  MISS %: 5.21049e-05   MPKI: 3.5e-05
L2C CLEAN_EVICTION NON_SPEC    ACCESS:    2400018  HIT:    1612645  MISS:     787373  HIT %:     67.193  MISS %:     32.807   MPKI: 3.93686
L2C COMMIT LOAD NON_SPEC    ACCESS:     247649  HIT:      94061  MISS:     153588  HIT %:    37.9816  MISS %:    62.0184   MPKI: 0.76794
L2C LOAD TRANSLATION NON_SPEC    ACCESS:     750094  HIT:     731157  MISS:      18937  HIT %:    97.4754  MISS %:    2.52462   MPKI: 0.094685
L2C PREFETCH  REQUESTED:    4939730  ISSUED:    4939730  USEFUL:    1195990  USELESS:     199193
L2C USEFUL LOAD PREFETCHES:    1195990 PREFETCH ISSUED TO LOWER LEVEL:    2209086  ACCURACY: 54.1396
L2C TIMELY PREFETCHES:    1195990 LATE PREFETCHES: 773383 DROPPED PREFETCHES: 0
L2C COMMIT LATE PREFETCHES: 88905 NORMAL LATE: 819924 MISSED OPPORTUNITY: 32563 UNCOVERED: 332804
L2C PREFETCHES SAME FILL-ORIGIN LEVEL: 2168637 DIFFERENT FILL-ORIGIN LEVEL: 40449
L2C AVERAGE MISS LATENCY: 519.982 cycles
L2C AVERAGE MISS LATENCY LOAD: 425.65 cycles
L2C AVERAGE MISS LATENCY PREFETCH: 443.687 cycles
L2C AVERAGE MSHR OCCUPANCY: 12.5779
L2C MSHR FULL: 0
L2C RQ	ACCESS:   16850812	FORWARD:          0	MERGED:          0	TO_CACHE:   16850772
L2C WQ	ACCESS:   15834590	FORWARD:         44	MERGED:        137	TO_CACHE:   15834453
L2C PQ	ACCESS:    4939730	FORWARD:          0	MERGED:     612055	TO_CACHE:    4327671

L2C Instructions Evicting Data 0
L2C Translations Evicting Data 18879
L2C Data Evicting Data 8908056
L2C Instructions Evicting Instructions 0
L2C Translations Evicting Instructions 0
L2C Data Evicting Instructions 0
L2C Instructions Evicting Translations 0
L2C Translations Evicting Translations 58
L2C Data Evicting Translations 17206
L2C Dense regions hint from L2: 0
PSCL5 SPEC fills:          0  NON-SPEC fills:          0
PSCL5 Test counter :          0
PSCL5 Leapfrog:          0
PSCL5 MSHR merge:          0
PSCL5 TOTAL     ACCESS:          0  HIT:          0  MISS:          0  HIT %:       -nan  MISS %:       -nan   MPKI: 0
PSCL5 PREFETCH  REQUESTED:          0  ISSUED:          0  USEFUL:          0  USELESS:          0
PSCL5 USEFUL LOAD PREFETCHES:          0 PREFETCH ISSUED TO LOWER LEVEL:          0  ACCURACY: -nan
PSCL5 TIMELY PREFETCHES:          0 LATE PREFETCHES: 0 DROPPED PREFETCHES: 0
PSCL5 COMMIT LATE PREFETCHES: 0 NORMAL LATE: 0 MISSED OPPORTUNITY: 0 UNCOVERED: 0
PSCL5 PREFETCHES SAME FILL-ORIGIN LEVEL: 0 DIFFERENT FILL-ORIGIN LEVEL: 0

PSCL4 SPEC fills:          0  NON-SPEC fills:          0
PSCL4 Test counter :          0
PSCL4 Leapfrog:          0
PSCL4 MSHR merge:          0
PSCL4 TOTAL     ACCESS:          0  HIT:          0  MISS:          0  HIT %:       -nan  MISS %:       -nan   MPKI: 0
PSCL4 PREFETCH  REQUESTED:          0  ISSUED:          0  USEFUL:          0  USELESS:          0
PSCL4 USEFUL LOAD PREFETCHES:          0 PREFETCH ISSUED TO LOWER LEVEL:          0  ACCURACY: -nan
PSCL4 TIMELY PREFETCHES:          0 LATE PREFETCHES: 0 DROPPED PREFETCHES: 0
PSCL4 COMMIT LATE PREFETCHES: 0 NORMAL LATE: 0 MISSED OPPORTUNITY: 0 UNCOVERED: 0
PSCL4 PREFETCHES SAME FILL-ORIGIN LEVEL: 0 DIFFERENT FILL-ORIGIN LEVEL: 0

PSCL3 SPEC fills:          0  NON-SPEC fills:          0
PSCL3 Test counter :          0
PSCL3 Leapfrog:          0
PSCL3 MSHR merge:          0
PSCL3 TOTAL     ACCESS:          0  HIT:          0  MISS:          0  HIT %:       -nan  MISS %:       -nan   MPKI: 0
PSCL3 PREFETCH  REQUESTED:          0  ISSUED:          0  USEFUL:          0  USELESS:          0
PSCL3 USEFUL LOAD PREFETCHES:          0 PREFETCH ISSUED TO LOWER LEVEL:          0  ACCURACY: -nan
PSCL3 TIMELY PREFETCHES:          0 LATE PREFETCHES: 0 DROPPED PREFETCHES: 0
PSCL3 COMMIT LATE PREFETCHES: 0 NORMAL LATE: 0 MISSED OPPORTUNITY: 0 UNCOVERED: 0
PSCL3 PREFETCHES SAME FILL-ORIGIN LEVEL: 0 DIFFERENT FILL-ORIGIN LEVEL: 0

PSCL2 SPEC fills:          0  NON-SPEC fills:          0
PSCL2 Test counter :          0
PSCL2 Leapfrog:          0
PSCL2 MSHR merge:          0
PSCL2 TOTAL     ACCESS:          0  HIT:          0  MISS:          0  HIT %:       -nan  MISS %:       -nan   MPKI: 0
PSCL2 PREFETCH  REQUESTED:          0  ISSUED:          0  USEFUL:          0  USELESS:          0
PSCL2 USEFUL LOAD PREFETCHES:          0 PREFETCH ISSUED TO LOWER LEVEL:          0  ACCURACY: -nan
PSCL2 TIMELY PREFETCHES:          0 LATE PREFETCHES: 0 DROPPED PREFETCHES: 0
PSCL2 COMMIT LATE PREFETCHES: 0 NORMAL LATE: 0 MISSED OPPORTUNITY: 0 UNCOVERED: 0
PSCL2 PREFETCHES SAME FILL-ORIGIN LEVEL: 0 DIFFERENT FILL-ORIGIN LEVEL: 0

LLC SPEC fills:          0  NON-SPEC fills:       8365
LLC Test counter :          0
LLC Leapfrog:          0
LLC MSHR merge:          0
LLC TOTAL     ACCESS:   19835928  HIT:    9728634  MISS:   10107294  HIT %:    49.0455  MISS %:    50.9545   MPKI: 50.5365
LLC LOAD      TOTAL       ACCESS:     500813  HIT:       3610  MISS:     497203  HIT %:   0.720828  MISS %:    99.2792   MPKI: 2.48601
LLC LOAD      NON_SPEC    ACCESS:       8504  HIT:        139  MISS:       8365  HIT %:    1.63452  MISS %:    98.3655   MPKI: 0.041825
LLC LOAD      SPEC        ACCESS:     492309  HIT:       3471  MISS:     488838  HIT %:   0.705045  MISS %:     99.295   MPKI: 2.44419
LLC RFO       NON_SPEC    ACCESS:    7310574  HIT:     112197  MISS:    7198377  HIT %:    1.53472  MISS %:    98.4653   MPKI: 35.9919
LLC PREFETCH  NON_SPEC    ACCESS:    2207987  HIT:      58909  MISS:    2149078  HIT %:      2.668  MISS %:     97.332   MPKI: 10.7454
LLC WRITEBACK NON_SPEC    ACCESS:    7312280  HIT:    7312072  MISS:        208  HIT %:    99.9972  MISS %: 0.00284453   MPKI: 0.00104
LLC CLEAN_EVICTION NON_SPEC    ACCESS:    2382041  HIT:    2170209  MISS:     211832  HIT %:    91.1071  MISS %:    8.89288   MPKI: 1.05916
LLC COMMIT LOAD NON_SPEC    ACCESS:     103296  HIT:      71637  MISS:      31659  HIT %:    69.3512  MISS %:    30.6488   MPKI: 0.158295
LLC LOAD TRANSLATION NON_SPEC    ACCESS:      18937  HIT:          0  MISS:      18937  HIT %:          0  MISS %:        100   MPKI: 0.094685
LLC PREFETCH  REQUESTED:          0  ISSUED:          0  USEFUL:      75238  USELESS:    2069026
LLC USEFUL LOAD PREFETCHES:      75238 PREFETCH ISSUED TO LOWER LEVEL:    2149079  ACCURACY: 3.50094
LLC TIMELY PREFETCHES:      75238 LATE PREFETCHES: 0 DROPPED PREFETCHES: 0
LLC COMMIT LATE PREFETCHES: 0 NORMAL LATE: 0 MISSED OPPORTUNITY: 0 UNCOVERED: 0
LLC PREFETCHES SAME FILL-ORIGIN LEVEL: 676 DIFFERENT FILL-ORIGIN LEVEL: 0
LLC AVERAGE MISS LATENCY: 551.863 cycles
LLC AVERAGE MISS LATENCY LOAD: 469.456 cycles
LLC AVERAGE MISS LATENCY PREFETCH: 496.794 cycles
LLC AVERAGE MSHR OCCUPANCY: 11.7451
LLC MSHR FULL: 0
LLC RQ	ACCESS:    7933634	FORWARD:          0	MERGED:          0	TO_CACHE:    7933625
LLC WQ	ACCESS:    9694325	FORWARD:         32	MERGED:          0	TO_CACHE:    9694325
LLC PQ	ACCESS:    2209086	FORWARD:          0	MERGED:        840	TO_CACHE:    2208223

LLC Dense regions hint to LLC: 0

RAW hits: 3553573
Loads Generated: 52249210
Loads sent to L1D: 48695635
Stores Generated: 36967905
Stores sent to L1D: 36967904
Major fault: 0 Minor fault: 96698
Allocated PAGES: 96698
Total Load insts: 60220185
Total Non-spec loads: 2962244
Percentage of speculative loads: 95.081

LeapFrogging counter: 23779785
Commit hits: 15909316 miss: 30220739
Commit hit %: 34.488 miss %: 65.512
Commits not translated: 0
Loads retired: 2418636
Stores retired: 36967904
Cache fills: 2418636
L1D response latency: 294.383 cycles
Load retirement latency: 791.619 cycles
OOO test counter: 0
Discarded buffer inserts: 15909316 hits: 276228 hit %: 1.73627
Filter prediction accuracy: -nan
------------------
Depth Distribution
------------------
depth 0: 24245
depth 1: 987
depth 2: 1635
depth 3: 4747
depth 4: 22449
depth 5: 29152
depth 6: 37739
depth 7: 68796
depth 8: 1098351
depth 9: 1623254
depth 10: 90786
depth 11: 5334
depth 12: 86
depth 13: 38
depth 14: 78
depth 15: 8
depth 16: 11
depth 17: 8
depth 18: 6
depth 19: 3
depth 20: 1
depth 21: 2
depth 22: 2
depth 23: 1
depth 24: 1
depth 25: 0
depth 26: 0
depth 27: 0
depth 28: 0
depth 29: 0
Total: 3007720
------------------
ST read accesses: 2381201
ST write accesses: 37434
PT read accesses: 114243606
PT write accesses: 3566099
FILTER read accesses: 72218602
FILTER write accesses: 104116049
GHR read accesses: 9174090
GHR write accesses: 1619574
PERC read accesses: 828049869
PERC write accesses: 30432185
GHR counter read accesses: 4837270
GHR counter write accesses: 7879394
GHR ip read accesses: 15677235
GHR ip write accesses: 9674540
ST tag read accesses: 948783751
ST tag write accesses: 11998924
------------------
Depth Distribution
------------------
depth 0: 38647314
depth 1: 157496
depth 2: 394600
depth 3: 1528813
depth 4: 906948
depth 5: 1513154
depth 6: 2806129
depth 7: 3414056
depth 8: 4026005
depth 9: 4007879
depth 10: 3891493
depth 11: 2586698
depth 12: 1069883
depth 13: 276516
depth 14: 25511
depth 15: 3738
depth 16: 1186
depth 17: 334
depth 18: 45
depth 19: 0
depth 20: 0
depth 21: 0
depth 22: 0
depth 23: 0
depth 24: 0
depth 25: 0
depth 26: 0
depth 27: 0
depth 28: 0
depth 29: 0
Total: 65257798
------------------
ST read accesses: 52211850
ST write accesses: 37363
PT read accesses: 957000976
PT write accesses: 31939289
FILTER read accesses: 294860767
FILTER write accesses: 31517404
GHR read accesses: 10312985
GHR write accesses: 1971155
PERC read accesses: 6868057977
PERC write accesses: 25699512
GHR counter read accesses: 104498426
GHR counter write accesses: 57893209
GHR ip read accesses: 185219478
GHR ip write accesses: 208996852
ST tag read accesses: 16772711500
ST tag write accesses: 75239514

DRAM Statistics
 CHANNEL 0
 RQ ROW_BUFFER_HIT:     670387  ROW_BUFFER_MISS:    9224865
 DBUS_CONGESTED:         27
 WQ ROW_BUFFER_HIT:    2232417  ROW_BUFFER_MISS:    7349366  FULL:       5849

 AVG_CONGESTED_CYCLE: 4
 All warmup complete: 2
Channel 0 Bank busy for read cycles: 0
Channel 0 Bank busy for write cycles: 0
Channel 0
Rank 0
0banks busy for read cycles: 66869698
0banks busy for write cycles: 43372
1banks busy for read cycles: 10693691
1banks busy for write cycles: 4619258
2banks busy for read cycles: 10379085
2banks busy for write cycles: 3792617
3banks busy for read cycles: 16916345
3banks busy for write cycles: 3483246
4banks busy for read cycles: 24957713
4banks busy for write cycles: 3268977
5banks busy for read cycles: 35997479
5banks busy for write cycles: 3344560
6banks busy for read cycles: 45195438
6banks busy for write cycles: 3724861
7banks busy for read cycles: 67156121
7banks busy for write cycles: 13429008
8banks busy for read cycles: 63476305
8banks busy for write cycles: 170176011

CPU 0 Branch Prediction Accuracy: 97.0917% MPKI: 0.525585 Average ROB Occupancy at Mispredict: 193.15
Branch types
NOT_BRANCH: 196385302 98.1926%
BRANCH_DIRECT_JUMP: 592790 0.296395%
BRANCH_INDIRECT: 0 0%
BRANCH_CONDITIONAL: 3021643 1.51082%
BRANCH_DIRECT_CALL: 0 0%
BRANCH_INDIRECT_CALL: 0 0%
BRANCH_RETURN: 0 0%
BRANCH_OTHER: 0 0%

DRAM PAGES: 1048576
Allocated PAGES: 96698
