Initialize SIGNATURE TABLE
ST_SET: 1
ST_WAY: 256
ST_TAG_BIT: 16
ST_TAG_MASK: ffff

Initialize PATTERN TABLE
PT_SET: 512
PT_WAY: 4
SIG_DELTA_BIT: 7
C_SIG_BIT: 4
C_DELTA_BIT: 4

Initialize PREFETCH FILTER
FILTER_SET: 1024

Initialize PERCEPTRON
PERC_ENTRIES: 4096
PERC_FEATURES: 9
Initialize SIGNATURE TABLE
ST_SET: 1
ST_WAY: 256
ST_TAG_BIT: 16
ST_TAG_MASK: ffff

Initialize PATTERN TABLE
PT_SET: 512
PT_WAY: 4
SIG_DELTA_BIT: 7
C_SIG_BIT: 4
C_DELTA_BIT: 4

Initialize PREFETCH FILTER
FILTER_SET: 1024

Initialize PERCEPTRON
PERC_ENTRIES: 4096
PERC_FEATURES: 9

*** ChampSim Multicore Out-of-Order Simulator ***

Warmup Instructions: 50000000
Simulation Instructions: 200000000
Number of CPUs: 1
LLC sets: 2048
LLC ways: 16
L0D sets: 16
L0D ways: 2
ROB size: 352
LQ size: 128
SQ size: 72
Secure Berti: OFF
Berti: OFF
Berti Fill: OFF
On commit prefetching: ON
Hit-based filter: OFF
Time-guarding: ON
Free-slotting: ON
Leap-frogging: ON
Train prefetcher on L0D bypass: OFF
No translation penalty for prefetchers: OFF
Prefetch to L0D only: OFF
Prefetch to L1D only: OFF
Clean evictions: ON
Commit loads: ON
Commit write: ON
Fill commit loads to L2C, LLC: ON
DRAM IO FREQUENCY: 6400
ROB SIZE: 352
Off-chip DRAM Size: 4096 MB Channels: 1 Width: 64-bit Data Rate: 6400 MT/s
CPU 0 runs /home/sumon/secure_berti/GhostMinion/../../traces/spec/621.wrf_s-6673B.champsimtrace.xz
.xz
BTB has LRU replacement policy
ITLB has LRU replacement policy
DTLB has LRU replacement policy
STLB has LRU replacement policy
L1I has LRU replacement policy
L0D has LRU replacement policy
PERC_ENTRIES: 4096
L1D has LRU replacement policy
PERC_ENTRIES: 4096
L2C has LRU replacement policy
LLC has LRU replacement policy
Heartbeat CPU 0 instructions: 10000002 cycles: 5240896 heartbeat IPC: 1.90807 cumulative IPC: 1.90807 (Simulation time: 0 hr 2 min 17 sec) 
Heartbeat CPU 0 instructions: 20000002 cycles: 8455487 heartbeat IPC: 3.11082 cumulative IPC: 2.36533 (Simulation time: 0 hr 4 min 11 sec) 
Heartbeat CPU 0 instructions: 30000001 cycles: 11570553 heartbeat IPC: 3.2102 cumulative IPC: 2.59279 (Simulation time: 0 hr 6 min 1 sec) 
Heartbeat CPU 0 instructions: 40000002 cycles: 14648855 heartbeat IPC: 3.24854 cumulative IPC: 2.73059 (Simulation time: 0 hr 8 min 4 sec) 
Heartbeat CPU 0 instructions: 50000001 cycles: 17751377 heartbeat IPC: 3.22318 cumulative IPC: 2.81668 (Simulation time: 0 hr 10 min 5 sec) 

Warmup complete CPU 0 instructions: 50000001 cycles: 17751377 (Simulation time: 0 hr 10 min 5 sec) 

Heartbeat CPU 0 instructions: 60000001 cycles: 33624677 heartbeat IPC: 0.629989 cumulative IPC: 0.629989 (Simulation time: 0 hr 13 min 5 sec) 
Heartbeat CPU 0 instructions: 70000000 cycles: 53084737 heartbeat IPC: 0.513873 cumulative IPC: 0.566037 (Simulation time: 0 hr 16 min 20 sec) 
Heartbeat CPU 0 instructions: 80000000 cycles: 68271170 heartbeat IPC: 0.658482 cumulative IPC: 0.593827 (Simulation time: 0 hr 19 min 9 sec) 
Heartbeat CPU 0 instructions: 90000000 cycles: 83624657 heartbeat IPC: 0.651318 cumulative IPC: 0.607226 (Simulation time: 0 hr 22 min 9 sec) 
Heartbeat CPU 0 instructions: 100000000 cycles: 106593177 heartbeat IPC: 0.435379 cumulative IPC: 0.562798 (Simulation time: 0 hr 25 min 36 sec) 
Heartbeat CPU 0 instructions: 110000000 cycles: 114954470 heartbeat IPC: 1.19599 cumulative IPC: 0.617264 (Simulation time: 0 hr 27 min 59 sec) 
Heartbeat CPU 0 instructions: 120000003 cycles: 125654497 heartbeat IPC: 0.934577 cumulative IPC: 0.64873 (Simulation time: 0 hr 30 min 34 sec) 
Heartbeat CPU 0 instructions: 130000001 cycles: 134777774 heartbeat IPC: 1.0961 cumulative IPC: 0.683606 (Simulation time: 0 hr 32 min 52 sec) 
Heartbeat CPU 0 instructions: 140000001 cycles: 144600176 heartbeat IPC: 1.01808 cumulative IPC: 0.709506 (Simulation time: 0 hr 35 min 24 sec) 
Heartbeat CPU 0 instructions: 150000001 cycles: 155076003 heartbeat IPC: 0.954579 cumulative IPC: 0.728202 (Simulation time: 0 hr 37 min 44 sec) 
Heartbeat CPU 0 instructions: 160000001 cycles: 164032148 heartbeat IPC: 1.11655 cumulative IPC: 0.751979 (Simulation time: 0 hr 40 min 11 sec) 
Heartbeat CPU 0 instructions: 170000001 cycles: 174801701 heartbeat IPC: 0.928544 cumulative IPC: 0.764086 (Simulation time: 0 hr 42 min 43 sec) 
Heartbeat CPU 0 instructions: 180000000 cycles: 183747059 heartbeat IPC: 1.1179 cumulative IPC: 0.783153 (Simulation time: 0 hr 44 min 59 sec) 
Heartbeat CPU 0 instructions: 190000000 cycles: 197199787 heartbeat IPC: 0.743344 cumulative IPC: 0.780169 (Simulation time: 0 hr 47 min 20 sec) 
Heartbeat CPU 0 instructions: 200000003 cycles: 209263167 heartbeat IPC: 0.828955 cumulative IPC: 0.783242 (Simulation time: 0 hr 49 min 20 sec) 
Heartbeat CPU 0 instructions: 210000000 cycles: 221350659 heartbeat IPC: 0.827301 cumulative IPC: 0.785857 (Simulation time: 0 hr 51 min 17 sec) 
Heartbeat CPU 0 instructions: 220000000 cycles: 233651629 heartbeat IPC: 0.812944 cumulative IPC: 0.787401 (Simulation time: 0 hr 53 min 7 sec) 
Heartbeat CPU 0 instructions: 230000003 cycles: 249577483 heartbeat IPC: 0.62791 cumulative IPC: 0.776444 (Simulation time: 0 hr 55 min 19 sec) 
Heartbeat CPU 0 instructions: 240000000 cycles: 265999509 heartbeat IPC: 0.608938 cumulative IPC: 0.765363 (Simulation time: 0 hr 57 min 53 sec) 
Heartbeat CPU 0 instructions: 250000000 cycles: 274557385 heartbeat IPC: 1.16851 cumulative IPC: 0.778798 (Simulation time: 0 hr 59 min 53 sec) 
Finished CPU 0 instructions: 200000003 cycles: 256806009 cumulative IPC: 0.778798 (Simulation time: 0 hr 59 min 53 sec) 
 Instruction ID: 250000193

ChampSim completed all CPUs

Region of Interest Statistics

CPU 0 cumulative IPC: 0.778798 instructions: 200000003 cycles: 256806009
ITLB SPEC fills:          0  NON-SPEC fills:          0
ITLB Test counter :          0
ITLB Leapfrog:          0
ITLB MSHR merge:          0
ITLB TOTAL     ACCESS:   29110999  HIT:   29110828  MISS:        171  HIT %:    99.9994  MISS %: 0.000587407   MPKI: 0.000855
ITLB LOAD TRANSLATION NON_SPEC    ACCESS:   29110999  HIT:   29110828  MISS:        171  HIT %:    99.9994  MISS %: 0.000587407   MPKI: 0.000855
ITLB PREFETCH  REQUESTED:          0  ISSUED:          0  USEFUL:          0  USELESS:          0
ITLB USEFUL LOAD PREFETCHES:          0 PREFETCH ISSUED TO LOWER LEVEL:          0  ACCURACY: -nan
ITLB TIMELY PREFETCHES:          0 LATE PREFETCHES: 0 DROPPED PREFETCHES: 0
ITLB COMMIT LATE PREFETCHES: 0 NORMAL LATE: 0 MISSED OPPORTUNITY: 0 UNCOVERED: 0
ITLB PREFETCHES SAME FILL-ORIGIN LEVEL: 0 DIFFERENT FILL-ORIGIN LEVEL: 0
ITLB AVERAGE MISS LATENCY: 380.538 cycles
ITLB AVERAGE MISS LATENCY LOAD: -nan cycles
ITLB AVERAGE MISS LATENCY PREFETCH: -nan cycles
ITLB AVERAGE MSHR OCCUPANCY: 2.33588e-06
ITLB MSHR FULL: 0
ITLB RQ	ACCESS:   35273995	FORWARD:          0	MERGED:    6162939	TO_CACHE:   29111056

DTLB SPEC fills:          0  NON-SPEC fills:          0
DTLB Test counter :          0
DTLB Leapfrog:          0
DTLB MSHR merge:          0
DTLB TOTAL     ACCESS:   50177394  HIT:   49981682  MISS:     195712  HIT %:      99.61  MISS %:    0.39004   MPKI: 0.97856
DTLB LOAD TRANSLATION NON_SPEC    ACCESS:   50177394  HIT:   49981682  MISS:     195712  HIT %:      99.61  MISS %:    0.39004   MPKI: 0.97856
DTLB PREFETCH  REQUESTED:          0  ISSUED:          0  USEFUL:          0  USELESS:          0
DTLB USEFUL LOAD PREFETCHES:          0 PREFETCH ISSUED TO LOWER LEVEL:          0  ACCURACY: -nan
DTLB TIMELY PREFETCHES:          0 LATE PREFETCHES: 0 DROPPED PREFETCHES: 0
DTLB COMMIT LATE PREFETCHES: 0 NORMAL LATE: 0 MISSED OPPORTUNITY: 0 UNCOVERED: 0
DTLB PREFETCHES SAME FILL-ORIGIN LEVEL: 0 DIFFERENT FILL-ORIGIN LEVEL: 0
DTLB AVERAGE MISS LATENCY: 34.894 cycles
DTLB AVERAGE MISS LATENCY LOAD: -nan cycles
DTLB AVERAGE MISS LATENCY PREFETCH: -nan cycles
DTLB AVERAGE MSHR OCCUPANCY: 0.0324404
DTLB MSHR FULL: 0.00166619
DTLB RQ	ACCESS:   57795738	FORWARD:          0	MERGED:    7544899	TO_CACHE:   50250839

STLB SPEC fills:          0  NON-SPEC fills:          0
STLB Test counter :          0
STLB Leapfrog:          0
STLB MSHR merge:          0
STLB TOTAL     ACCESS:     195883  HIT:     168277  MISS:      27606  HIT %:    85.9069  MISS %:    14.0931   MPKI: 0.13803
STLB LOAD TRANSLATION NON_SPEC    ACCESS:     195883  HIT:     168277  MISS:      27606  HIT %:    85.9069  MISS %:    14.0931   MPKI: 0.13803
STLB PREFETCH  REQUESTED:          0  ISSUED:          0  USEFUL:          0  USELESS:          0
STLB USEFUL LOAD PREFETCHES:          0 PREFETCH ISSUED TO LOWER LEVEL:          0  ACCURACY: -nan
STLB TIMELY PREFETCHES:          0 LATE PREFETCHES: 0 DROPPED PREFETCHES: 0
STLB COMMIT LATE PREFETCHES: 0 NORMAL LATE: 0 MISSED OPPORTUNITY: 0 UNCOVERED: 0
STLB PREFETCHES SAME FILL-ORIGIN LEVEL: 0 DIFFERENT FILL-ORIGIN LEVEL: 0
STLB AVERAGE MISS LATENCY: 185.173 cycles
STLB AVERAGE MISS LATENCY LOAD: -nan cycles
STLB AVERAGE MISS LATENCY PREFETCH: -nan cycles
STLB AVERAGE MSHR OCCUPANCY: 0.0848517
STLB MSHR FULL: 0
STLB RQ	ACCESS:     195883	FORWARD:          0	MERGED:          0	TO_CACHE:     195883

STLB Hit, L1D data hit: 0
STLB Hit, L2C data hit: 0
STLB Hit, LLC data hit: 0
STLB Hit, LLC data miss: 0
STLB STLB hints to L2: 0
L0D SPEC fills:   31308979  NON-SPEC fills:          0
L0D TimeGuard Request with older TS:     692374 Restricted eviction:     566976 read:    1290098
L0D Test counter :          0
L0D Leapfrog:          0
L0D MSHR merge:    2884395
L0D TOTAL     ACCESS:   44056048  HIT:    6938355  MISS:   37117693  HIT %:    15.7489  MISS %:    84.2511   MPKI: 185.588
L0D LOAD      TOTAL       ACCESS:   44056048  HIT:    6938355  MISS:   37117693  HIT %:    15.7489  MISS %:    84.2511   MPKI: 185.588
L0D LOAD      NON_SPEC    ACCESS:    6103390  HIT:     861513  MISS:    5241877  HIT %:    14.1153  MISS %:    85.8847   MPKI: 26.2094
L0D LOAD      SPEC        ACCESS:   37952658  HIT:    6076842  MISS:   31875816  HIT %:    16.0116  MISS %:    83.9884   MPKI: 159.379
L0D PREFETCH  REQUESTED:          0  ISSUED:          0  USEFUL:          0  USELESS:          0
L0D USEFUL LOAD PREFETCHES:          0 PREFETCH ISSUED TO LOWER LEVEL:          0  ACCURACY: -nan
L0D TIMELY PREFETCHES:          0 LATE PREFETCHES: 0 DROPPED PREFETCHES: 0
L0D COMMIT LATE PREFETCHES: 0 NORMAL LATE: 0 MISSED OPPORTUNITY: 0 UNCOVERED: 0
L0D PREFETCHES SAME FILL-ORIGIN LEVEL: 0 DIFFERENT FILL-ORIGIN LEVEL: 0
L0D AVERAGE MISS LATENCY: 10.7334 cycles
L0D AVERAGE MISS LATENCY LOAD: 10.7334 cycles
L0D AVERAGE MISS LATENCY PREFETCH: -nan cycles
L0D AVERAGE MSHR OCCUPANCY: 2.37532
L0D MSHR FULL: 0.10447
L0D RQ	ACCESS:   58915625	FORWARD:          0	MERGED:   11975182	TO_CACHE:   46940443
L0D WQ	ACCESS:   10855295	FORWARD:          0	MERGED:          0	TO_CACHE:   10855295

L1D SPEC fills:          0  NON-SPEC fills:     137035
L1D Test counter :          0
L1D Leapfrog:          0
L1D MSHR merge:      52132
L1D TOTAL     ACCESS:   90060736  HIT:   83708657  MISS:    6352079  HIT %:    92.9469  MISS %:    7.05311   MPKI: 31.7604
L1D LOAD      TOTAL       ACCESS:   37065561  HIT:   34013843  MISS:    3051718  HIT %:    91.7667  MISS %:     8.2333   MPKI: 15.2586
L1D LOAD      NON_SPEC    ACCESS:    5240209  HIT:    5103174  MISS:     137035  HIT %:    97.3849  MISS %:    2.61507   MPKI: 0.685175
L1D LOAD      SPEC        ACCESS:   31825352  HIT:   28910669  MISS:    2914683  HIT %:    90.8416  MISS %:    9.15837   MPKI: 14.5734
L1D RFO       NON_SPEC    ACCESS:    7905110  HIT:    7385574  MISS:     519536  HIT %:    93.4278  MISS %:    6.57215   MPKI: 2.59768
L1D COMMIT LOAD NON_SPEC    ACCESS:   14463092  HIT:   14227891  MISS:     235201  HIT %:    98.3738  MISS %:    1.62622   MPKI: 1.176
L1D COMMIT WRITE NON_SPEC    ACCESS:   30626973  HIT:   28081349  MISS:    2545624  HIT %:    91.6883  MISS %:    8.31171   MPKI: 12.7281
L1D PREFETCH  REQUESTED:          0  ISSUED:          0  USEFUL:          0  USELESS:          0
L1D USEFUL LOAD PREFETCHES:          0 PREFETCH ISSUED TO LOWER LEVEL:          0  ACCURACY: -nan
L1D TIMELY PREFETCHES:          0 LATE PREFETCHES: 0 DROPPED PREFETCHES: 0
L1D COMMIT LATE PREFETCHES: 0 NORMAL LATE: 0 MISSED OPPORTUNITY: 0 UNCOVERED: 3092633
L1D PREFETCHES SAME FILL-ORIGIN LEVEL: 0 DIFFERENT FILL-ORIGIN LEVEL: 0
L1D AVERAGE MISS LATENCY: 56.5917 cycles
L1D AVERAGE MISS LATENCY LOAD: 64.0721 cycles
L1D AVERAGE MISS LATENCY PREFETCH: -nan cycles
L1D AVERAGE MSHR OCCUPANCY: 0.659619
L1D MSHR FULL: 0.0026595
L1D RQ	ACCESS:   58747568	FORWARD:          0	MERGED:    6862818	TO_CACHE:   51707320
L1D WQ	ACCESS:   40659805	FORWARD:     177430	MERGED:     540089	TO_CACHE:   40119716

L1D UNIQUE REGIONS ACCESSED: 0
L1D REGIONS CONFLICTS: 0
L1D Cross Page Prefetch Requests: 0
L1D Same Page Prefetch Requests: 0
L1D ROI Sum of L1D PQ occupancy: 0
L1D PREFETCHES PUSHED FROM L2C: 0
L1I SPEC fills:          0  NON-SPEC fills:          0
L1I Test counter :          0
L1I Leapfrog:          0
L1I MSHR merge:       2944
L1I TOTAL     ACCESS:   35271050  HIT:   35264887  MISS:       6163  HIT %:    99.9825  MISS %:  0.0174733   MPKI: 0.030815
L1I LOAD      TOTAL       ACCESS:   35271050  HIT:   35264887  MISS:       6163  HIT %:    99.9825  MISS %:  0.0174733   MPKI: 0.030815
L1I LOAD      NON_SPEC    ACCESS:   35271050  HIT:   35264887  MISS:       6163  HIT %:    99.9825  MISS %:  0.0174733   MPKI: 0.030815
L1I PREFETCH  REQUESTED:          0  ISSUED:          0  USEFUL:          0  USELESS:          0
L1I USEFUL LOAD PREFETCHES:          0 PREFETCH ISSUED TO LOWER LEVEL:          0  ACCURACY: -nan
L1I TIMELY PREFETCHES:          0 LATE PREFETCHES: 0 DROPPED PREFETCHES: 0
L1I COMMIT LATE PREFETCHES: 0 NORMAL LATE: 0 MISSED OPPORTUNITY: 0 UNCOVERED: 0
L1I PREFETCHES SAME FILL-ORIGIN LEVEL: 0 DIFFERENT FILL-ORIGIN LEVEL: 0
L1I AVERAGE MISS LATENCY: 297.897 cycles
L1I AVERAGE MISS LATENCY LOAD: 297.897 cycles
L1I AVERAGE MISS LATENCY PREFETCH: -nan cycles
L1I AVERAGE MSHR OCCUPANCY: 0.000228412
L1I MSHR FULL: 0
L1I RQ	ACCESS:   52125792	FORWARD:          0	MERGED:   16851797	TO_CACHE:   35273995

BTB SPEC fills:          0  NON-SPEC fills:          0
BTB Test counter :          0
BTB Leapfrog:          0
BTB MSHR merge:          0
BTB TOTAL     ACCESS:    9141036  HIT:    9133639  MISS:       7397  HIT %:    99.9191  MISS %:  0.0809208   MPKI: 0.036985
BTB BRANCH_DIRECT_JUMP	ACCESS:     290387  HIT:     290283  MISS:        104
BTB BRANCH_INDIRECT	ACCESS:         12  HIT:          8  MISS:          4
BTB BRANCH_CONDITIONAL	ACCESS:    8250536  HIT:    8249661  MISS:        875
BTB BRANCH_DIRECT_CALL	ACCESS:     300051  HIT:     299561  MISS:        490
BTB BRANCH_INDIRECT_CALL	ACCESS:          0  HIT:          0  MISS:          0
BTB BRANCH_RETURN	ACCESS:     300050  HIT:     294126  MISS:       5924
BTB BRANCH_OTHER ACCESS:          0  HIT:          0  MISS:          0

L2C SPEC fills:          0  NON-SPEC fills:      19822
L2C Test counter :          0
L2C Leapfrog:          0
L2C MSHR merge:     351194
L2C TOTAL     ACCESS:   18069556  HIT:   14810926  MISS:    3258630  HIT %:    81.9662  MISS %:    18.0338   MPKI: 16.2931
L2C LOAD      TOTAL       ACCESS:    3056960  HIT:    2451901  MISS:     605059  HIT %:    80.2072  MISS %:    19.7928   MPKI: 3.02529
L2C LOAD      NON_SPEC    ACCESS:     143191  HIT:     117206  MISS:      25985  HIT %:    81.8529  MISS %:    18.1471   MPKI: 0.129925
L2C LOAD      SPEC        ACCESS:    2913769  HIT:    2334695  MISS:     579074  HIT %:    80.1263  MISS %:    19.8737   MPKI: 2.89537
L2C RFO       NON_SPEC    ACCESS:     519505  HIT:     147922  MISS:     371583  HIT %:    28.4736  MISS %:    71.5264   MPKI: 1.85791
L2C PREFETCH  NON_SPEC    ACCESS:   10816469  HIT:    8925273  MISS:    1891196  HIT %:    82.5156  MISS %:    17.4844   MPKI: 9.45598
L2C WRITEBACK NON_SPEC    ACCESS:     585413  HIT:     585379  MISS:         34  HIT %:    99.9942  MISS %: 0.00580787   MPKI: 0.00017
L2C CLEAN_EVICTION NON_SPEC    ACCESS:    2718708  HIT:    2362331  MISS:     356377  HIT %:    86.8917  MISS %:    13.1083   MPKI: 1.78188
L2C COMMIT LOAD NON_SPEC    ACCESS:     234480  HIT:     205163  MISS:      29317  HIT %:     87.497  MISS %:     12.503   MPKI: 0.146585
L2C LOAD TRANSLATION NON_SPEC    ACCESS:     138021  HIT:     132957  MISS:       5064  HIT %:     96.331  MISS %:    3.66901   MPKI: 0.02532
L2C PREFETCH  REQUESTED:   12785531  ISSUED:   12772467  USEFUL:    1617471  USELESS:     273525
L2C USEFUL LOAD PREFETCHES:    1617471 PREFETCH ISSUED TO LOWER LEVEL:    2372700  ACCURACY: 68.1701
L2C TIMELY PREFETCHES:    1617471 LATE PREFETCHES: 356957 DROPPED PREFETCHES: 0
L2C COMMIT LATE PREFETCHES: 73975 NORMAL LATE: 363896 MISSED OPPORTUNITY: 8568 UNCOVERED: 164383
L2C PREFETCHES SAME FILL-ORIGIN LEVEL: 2248157 DIFFERENT FILL-ORIGIN LEVEL: 124543
L2C AVERAGE MISS LATENCY: 261.809 cycles
L2C AVERAGE MISS LATENCY LOAD: 274.578 cycles
L2C AVERAGE MISS LATENCY PREFETCH: 281.69 cycles
L2C AVERAGE MSHR OCCUPANCY: 6.53777
L2C MSHR FULL: 0.0262456
L2C RQ	ACCESS:    3950639	FORWARD:          0	MERGED:          0	TO_CACHE:    3948966
L2C WQ	ACCESS:    3304511	FORWARD:       2144	MERGED:        390	TO_CACHE:    3304121
L2C PQ	ACCESS:   12772467	FORWARD:          0	MERGED:    1311975	TO_CACHE:   11460021

L2C Instructions Evicting Data 6145
L2C Translations Evicting Data 5047
L2C Data Evicting Data 2302262
L2C Instructions Evicting Instructions 13
L2C Translations Evicting Instructions 14
L2C Data Evicting Instructions 5345
L2C Instructions Evicting Translations 5
L2C Translations Evicting Translations 3
L2C Data Evicting Translations 4311
L2C Dense regions hint from L2: 0
PSCL5 SPEC fills:          0  NON-SPEC fills:          0
PSCL5 Test counter :          0
PSCL5 Leapfrog:          0
PSCL5 MSHR merge:          0
PSCL5 TOTAL     ACCESS:          0  HIT:          0  MISS:          0  HIT %:       -nan  MISS %:       -nan   MPKI: 0
PSCL5 PREFETCH  REQUESTED:          0  ISSUED:          0  USEFUL:          0  USELESS:          0
PSCL5 USEFUL LOAD PREFETCHES:          0 PREFETCH ISSUED TO LOWER LEVEL:          0  ACCURACY: -nan
PSCL5 TIMELY PREFETCHES:          0 LATE PREFETCHES: 0 DROPPED PREFETCHES: 0
PSCL5 COMMIT LATE PREFETCHES: 0 NORMAL LATE: 0 MISSED OPPORTUNITY: 0 UNCOVERED: 0
PSCL5 PREFETCHES SAME FILL-ORIGIN LEVEL: 0 DIFFERENT FILL-ORIGIN LEVEL: 0

PSCL4 SPEC fills:          0  NON-SPEC fills:          0
PSCL4 Test counter :          0
PSCL4 Leapfrog:          0
PSCL4 MSHR merge:          0
PSCL4 TOTAL     ACCESS:          0  HIT:          0  MISS:          0  HIT %:       -nan  MISS %:       -nan   MPKI: 0
PSCL4 PREFETCH  REQUESTED:          0  ISSUED:          0  USEFUL:          0  USELESS:          0
PSCL4 USEFUL LOAD PREFETCHES:          0 PREFETCH ISSUED TO LOWER LEVEL:          0  ACCURACY: -nan
PSCL4 TIMELY PREFETCHES:          0 LATE PREFETCHES: 0 DROPPED PREFETCHES: 0
PSCL4 COMMIT LATE PREFETCHES: 0 NORMAL LATE: 0 MISSED OPPORTUNITY: 0 UNCOVERED: 0
PSCL4 PREFETCHES SAME FILL-ORIGIN LEVEL: 0 DIFFERENT FILL-ORIGIN LEVEL: 0

PSCL3 SPEC fills:          0  NON-SPEC fills:          0
PSCL3 Test counter :          0
PSCL3 Leapfrog:          0
PSCL3 MSHR merge:          0
PSCL3 TOTAL     ACCESS:          0  HIT:          0  MISS:          0  HIT %:       -nan  MISS %:       -nan   MPKI: 0
PSCL3 PREFETCH  REQUESTED:          0  ISSUED:          0  USEFUL:          0  USELESS:          0
PSCL3 USEFUL LOAD PREFETCHES:          0 PREFETCH ISSUED TO LOWER LEVEL:          0  ACCURACY: -nan
PSCL3 TIMELY PREFETCHES:          0 LATE PREFETCHES: 0 DROPPED PREFETCHES: 0
PSCL3 COMMIT LATE PREFETCHES: 0 NORMAL LATE: 0 MISSED OPPORTUNITY: 0 UNCOVERED: 0
PSCL3 PREFETCHES SAME FILL-ORIGIN LEVEL: 0 DIFFERENT FILL-ORIGIN LEVEL: 0

PSCL2 SPEC fills:          0  NON-SPEC fills:          0
PSCL2 Test counter :          0
PSCL2 Leapfrog:          0
PSCL2 MSHR merge:          0
PSCL2 TOTAL     ACCESS:          0  HIT:          0  MISS:          0  HIT %:       -nan  MISS %:       -nan   MPKI: 0
PSCL2 PREFETCH  REQUESTED:          0  ISSUED:          0  USEFUL:          0  USELESS:          0
PSCL2 USEFUL LOAD PREFETCHES:          0 PREFETCH ISSUED TO LOWER LEVEL:          0  ACCURACY: -nan
PSCL2 TIMELY PREFETCHES:          0 LATE PREFETCHES: 0 DROPPED PREFETCHES: 0
PSCL2 COMMIT LATE PREFETCHES: 0 NORMAL LATE: 0 MISSED OPPORTUNITY: 0 UNCOVERED: 0
PSCL2 PREFETCHES SAME FILL-ORIGIN LEVEL: 0 DIFFERENT FILL-ORIGIN LEVEL: 0

LLC SPEC fills:          0  NON-SPEC fills:       5689
LLC Test counter :          0
LLC Leapfrog:          0
LLC MSHR merge:          5
LLC TOTAL     ACCESS:    5481433  HIT:    3022535  MISS:    2458898  HIT %:    55.1413  MISS %:    44.8587   MPKI: 12.2945
LLC LOAD      TOTAL       ACCESS:     253865  HIT:      39986  MISS:     213879  HIT %:    15.7509  MISS %:    84.2491   MPKI: 1.06939
LLC LOAD      NON_SPEC    ACCESS:      13917  HIT:       2065  MISS:      11852  HIT %:     14.838  MISS %:     85.162   MPKI: 0.05926
LLC LOAD      SPEC        ACCESS:     239948  HIT:      37921  MISS:     202027  HIT %:    15.8038  MISS %:    84.1962   MPKI: 1.01013
LLC RFO       NON_SPEC    ACCESS:     371077  HIT:      17835  MISS:     353242  HIT %:    4.80628  MISS %:    95.1937   MPKI: 1.76621
LLC PREFETCH  NON_SPEC    ACCESS:    2356847  HIT:     566194  MISS:    1790653  HIT %:    24.0234  MISS %:    75.9766   MPKI: 8.95326
LLC WRITEBACK NON_SPEC    ACCESS:     435523  HIT:     432404  MISS:       3119  HIT %:    99.2838  MISS %:    0.71615   MPKI: 0.015595
LLC CLEAN_EVICTION NON_SPEC    ACCESS:    2035000  HIT:    1945449  MISS:      89551  HIT %:    95.5995  MISS %:    4.40054   MPKI: 0.447755
LLC COMMIT LOAD NON_SPEC    ACCESS:      24057  HIT:      20265  MISS:       3792  HIT %:    84.2374  MISS %:    15.7626   MPKI: 0.01896
LLC LOAD TRANSLATION NON_SPEC    ACCESS:       5064  HIT:        402  MISS:       4662  HIT %:    7.93839  MISS %:    92.0616   MPKI: 0.02331
LLC PREFETCH  REQUESTED:          0  ISSUED:          0  USEFUL:      46150  USELESS:    1746136
LLC USEFUL LOAD PREFETCHES:      46150 PREFETCH ISSUED TO LOWER LEVEL:    1791413  ACCURACY: 2.57618
LLC TIMELY PREFETCHES:      46150 LATE PREFETCHES: 756 DROPPED PREFETCHES: 0
LLC COMMIT LATE PREFETCHES: 0 NORMAL LATE: 0 MISSED OPPORTUNITY: 0 UNCOVERED: 0
LLC PREFETCHES SAME FILL-ORIGIN LEVEL: 21276 DIFFERENT FILL-ORIGIN LEVEL: 0
LLC AVERAGE MISS LATENCY: 343.397 cycles
LLC AVERAGE MISS LATENCY LOAD: 307.975 cycles
LLC AVERAGE MISS LATENCY PREFETCH: 356.507 cycles
LLC AVERAGE MSHR OCCUPANCY: 6.59367
LLC MSHR FULL: 0
LLC RQ	ACCESS:     654066	FORWARD:          0	MERGED:          0	TO_CACHE:     654063
LLC WQ	ACCESS:    2470523	FORWARD:          8	MERGED:          0	TO_CACHE:    2470523
LLC PQ	ACCESS:    2372700	FORWARD:          0	MERGED:      11206	TO_CACHE:    2361489

LLC Dense regions hint to LLC: 0

RAW hits: 199654
Loads Generated: 59115289
Loads sent to L1D: 58915625
Stores Generated: 10855289
Stores sent to L1D: 10855295
Major fault: 0 Minor fault: 10671
Allocated PAGES: 10671
Total Load insts: 73502294
Total Non-spec loads: 7245075
Percentage of speculative loads: 90.1431

LeapFrogging counter: 1193643
Commit hits: 30684464 miss: 21629874
Commit hit %: 58.654 miss %: 41.346
Commits not translated: 0
Loads retired: 3051718
Stores retired: 10855295
Cache fills: 3051718
L1D response latency: 64.0721 cycles
Load retirement latency: 175.379 cycles
OOO test counter: 0
Discarded buffer inserts: 30684464 hits: 89622 hit %: 0.292076
Filter prediction accuracy: -nan
------------------
Depth Distribution
------------------
depth 0: 90145
depth 1: 67353
depth 2: 48221
depth 3: 114983
depth 4: 249629
depth 5: 825297
depth 6: 973286
depth 7: 864928
depth 8: 554645
depth 9: 206697
depth 10: 11675
depth 11: 18438
depth 12: 2561
depth 13: 519
depth 14: 223
depth 15: 0
depth 16: 0
depth 17: 0
depth 18: 0
depth 19: 0
depth 20: 0
depth 21: 0
depth 22: 0
depth 23: 0
depth 24: 0
depth 25: 0
depth 26: 0
depth 27: 0
depth 28: 0
depth 29: 0
Total: 4028600
------------------
ST read accesses: 3004829
ST write accesses: 45968
PT read accesses: 105862729
PT write accesses: 4244207
FILTER read accesses: 57925694
FILTER write accesses: 81068851
GHR read accesses: 8673816
GHR write accesses: 1387297
PERC read accesses: 771376365
PERC write accesses: 40550087
GHR counter read accesses: 6101594
GHR counter write accesses: 10020468
GHR ip read accesses: 20834859
GHR ip write accesses: 12203188
ST tag read accesses: 1199631879
ST tag write accesses: 34032088
------------------
Depth Distribution
------------------
depth 0: 8127089
depth 1: 3728701
depth 2: 9529795
depth 3: 17367524
depth 4: 23219933
depth 5: 9391763
depth 6: 1779564
depth 7: 594963
depth 8: 109982
depth 9: 24189
depth 10: 11174
depth 11: 7757
depth 12: 3704
depth 13: 1438
depth 14: 1227
depth 15: 79
depth 16: 29
depth 17: 3
depth 18: 0
depth 19: 0
depth 20: 0
depth 21: 0
depth 22: 0
depth 23: 0
depth 24: 0
depth 25: 0
depth 26: 0
depth 27: 0
depth 28: 0
depth 29: 0
Total: 73898914
------------------
ST read accesses: 59068984
ST write accesses: 46303
PT read accesses: 1188024302
PT write accesses: 30120608
FILTER read accesses: 334165292
FILTER write accesses: 42605150
GHR read accesses: 129795149
GHR write accesses: 21797600
PERC read accesses: 8606822112
PERC write accesses: 40969094
GHR counter read accesses: 118230574
GHR counter write accesses: 71021806
GHR ip read accesses: 278738919
GHR ip write accesses: 236461148
ST tag read accesses: 21758407075
ST tag write accesses: 277955197

DRAM Statistics
 CHANNEL 0
 RQ ROW_BUFFER_HIT:     358931  ROW_BUFFER_MISS:    2007174
 DBUS_CONGESTED:        881
 WQ ROW_BUFFER_HIT:     499055  ROW_BUFFER_MISS:    1567948  FULL:       4186

 AVG_CONGESTED_CYCLE: 5
 All warmup complete: 2
Channel 0 Bank busy for read cycles: 0
Channel 0 Bank busy for write cycles: 0
Channel 0
Rank 0
0banks busy for read cycles: 83798780
0banks busy for write cycles: 101914
1banks busy for read cycles: 31983339
1banks busy for write cycles: 12505070
2banks busy for read cycles: 21491478
2banks busy for write cycles: 5645774
3banks busy for read cycles: 13698575
3banks busy for write cycles: 2603136
4banks busy for read cycles: 12017731
4banks busy for write cycles: 1678069
5banks busy for read cycles: 10338394
5banks busy for write cycles: 1153671
6banks busy for read cycles: 7487610
6banks busy for write cycles: 1083242
7banks busy for read cycles: 5875704
7banks busy for write cycles: 3349475
8banks busy for read cycles: 5146749
8banks busy for write cycles: 36847299

CPU 0 Branch Prediction Accuracy: 99.8685% MPKI: 0.079065 Average ROB Occupancy at Mispredict: 133.795
Branch types
NOT_BRANCH: 187976441 93.9882%
BRANCH_DIRECT_JUMP: 290387 0.145193%
BRANCH_INDIRECT: 12 6e-06%
BRANCH_CONDITIONAL: 11132879 5.56644%
BRANCH_DIRECT_CALL: 300051 0.150025%
BRANCH_INDIRECT_CALL: 0 0%
BRANCH_RETURN: 300050 0.150025%
BRANCH_OTHER: 0 0%

DRAM PAGES: 1048576
Allocated PAGES: 10671
