Initialize SIGNATURE TABLE
ST_SET: 1
ST_WAY: 256
ST_TAG_BIT: 16
ST_TAG_MASK: ffff

Initialize PATTERN TABLE
PT_SET: 512
PT_WAY: 4
SIG_DELTA_BIT: 7
C_SIG_BIT: 4
C_DELTA_BIT: 4

Initialize PREFETCH FILTER
FILTER_SET: 1024

Initialize PERCEPTRON
PERC_ENTRIES: 4096
PERC_FEATURES: 9
Initialize SIGNATURE TABLE
ST_SET: 1
ST_WAY: 256
ST_TAG_BIT: 16
ST_TAG_MASK: ffff

Initialize PATTERN TABLE
PT_SET: 512
PT_WAY: 4
SIG_DELTA_BIT: 7
C_SIG_BIT: 4
C_DELTA_BIT: 4

Initialize PREFETCH FILTER
FILTER_SET: 1024

Initialize PERCEPTRON
PERC_ENTRIES: 4096
PERC_FEATURES: 9

*** ChampSim Multicore Out-of-Order Simulator ***

Warmup Instructions: 50000000
Simulation Instructions: 200000000
Number of CPUs: 1
LLC sets: 2048
LLC ways: 16
L0D sets: 16
L0D ways: 2
ROB size: 352
LQ size: 128
SQ size: 72
Secure Berti: OFF
Berti: OFF
Berti Fill: OFF
On commit prefetching: ON
Hit-based filter: OFF
Time-guarding: ON
Free-slotting: ON
Leap-frogging: ON
Train prefetcher on L0D bypass: OFF
No translation penalty for prefetchers: OFF
Prefetch to L0D only: OFF
Prefetch to L1D only: OFF
Clean evictions: ON
Commit loads: ON
Commit write: ON
Fill commit loads to L2C, LLC: ON
DRAM IO FREQUENCY: 6400
ROB SIZE: 352
Off-chip DRAM Size: 4096 MB Channels: 1 Width: 64-bit Data Rate: 6400 MT/s
CPU 0 runs /home/sumon/secure_berti/GhostMinion/../../traces/spec/649.fotonik3d_s-8225B.champsimtrace.xz
.xz
BTB has LRU replacement policy
ITLB has LRU replacement policy
DTLB has LRU replacement policy
STLB has LRU replacement policy
L1I has LRU replacement policy
L0D has LRU replacement policy
PERC_ENTRIES: 4096
L1D has LRU replacement policy
PERC_ENTRIES: 4096
L2C has LRU replacement policy
LLC has LRU replacement policy
Heartbeat CPU 0 instructions: 10000000 cycles: 3146053 heartbeat IPC: 3.17859 cumulative IPC: 3.17859 (Simulation time: 0 hr 1 min 51 sec) 
Heartbeat CPU 0 instructions: 20000001 cycles: 6291994 heartbeat IPC: 3.1787 cumulative IPC: 3.17864 (Simulation time: 0 hr 3 min 41 sec) 
Heartbeat CPU 0 instructions: 30000000 cycles: 9437850 heartbeat IPC: 3.17878 cumulative IPC: 3.17869 (Simulation time: 0 hr 5 min 32 sec) 
Heartbeat CPU 0 instructions: 40000002 cycles: 12583746 heartbeat IPC: 3.17875 cumulative IPC: 3.1787 (Simulation time: 0 hr 7 min 22 sec) 
Heartbeat CPU 0 instructions: 50000001 cycles: 15729550 heartbeat IPC: 3.17884 cumulative IPC: 3.17873 (Simulation time: 0 hr 9 min 13 sec) 

Warmup complete CPU 0 instructions: 50000001 cycles: 15729550 (Simulation time: 0 hr 9 min 13 sec) 

Heartbeat CPU 0 instructions: 60000000 cycles: 28141372 heartbeat IPC: 0.805683 cumulative IPC: 0.805683 (Simulation time: 0 hr 11 min 24 sec) 
Heartbeat CPU 0 instructions: 70000002 cycles: 40565113 heartbeat IPC: 0.804911 cumulative IPC: 0.805297 (Simulation time: 0 hr 13 min 35 sec) 
Heartbeat CPU 0 instructions: 80000002 cycles: 52982858 heartbeat IPC: 0.805299 cumulative IPC: 0.805298 (Simulation time: 0 hr 15 min 46 sec) 
Heartbeat CPU 0 instructions: 90000003 cycles: 65437221 heartbeat IPC: 0.802932 cumulative IPC: 0.804705 (Simulation time: 0 hr 17 min 58 sec) 
Heartbeat CPU 0 instructions: 100000000 cycles: 77884229 heartbeat IPC: 0.803406 cumulative IPC: 0.804445 (Simulation time: 0 hr 20 min 9 sec) 
Heartbeat CPU 0 instructions: 110000000 cycles: 90321425 heartbeat IPC: 0.80404 cumulative IPC: 0.804377 (Simulation time: 0 hr 22 min 20 sec) 
Heartbeat CPU 0 instructions: 120000002 cycles: 100648370 heartbeat IPC: 0.968341 cumulative IPC: 0.824317 (Simulation time: 0 hr 24 min 23 sec) 
Heartbeat CPU 0 instructions: 130000003 cycles: 110678979 heartbeat IPC: 0.996949 cumulative IPC: 0.842554 (Simulation time: 0 hr 26 min 25 sec) 
Heartbeat CPU 0 instructions: 140000000 cycles: 120720672 heartbeat IPC: 0.995848 cumulative IPC: 0.857215 (Simulation time: 0 hr 28 min 27 sec) 
Heartbeat CPU 0 instructions: 150000003 cycles: 130761040 heartbeat IPC: 0.99598 cumulative IPC: 0.869327 (Simulation time: 0 hr 30 min 29 sec) 
Heartbeat CPU 0 instructions: 160000000 cycles: 140798677 heartbeat IPC: 0.99625 cumulative IPC: 0.879514 (Simulation time: 0 hr 32 min 31 sec) 
Heartbeat CPU 0 instructions: 170000003 cycles: 150839011 heartbeat IPC: 0.995983 cumulative IPC: 0.888169 (Simulation time: 0 hr 34 min 32 sec) 
Heartbeat CPU 0 instructions: 180000000 cycles: 160876812 heartbeat IPC: 0.996234 cumulative IPC: 0.895642 (Simulation time: 0 hr 36 min 34 sec) 
Heartbeat CPU 0 instructions: 190000002 cycles: 170916977 heartbeat IPC: 0.996 cumulative IPC: 0.902135 (Simulation time: 0 hr 38 min 36 sec) 
Heartbeat CPU 0 instructions: 200000002 cycles: 180951935 heartbeat IPC: 0.996516 cumulative IPC: 0.907867 (Simulation time: 0 hr 40 min 38 sec) 
Heartbeat CPU 0 instructions: 210000000 cycles: 190989064 heartbeat IPC: 0.996301 cumulative IPC: 0.912932 (Simulation time: 0 hr 42 min 40 sec) 
Heartbeat CPU 0 instructions: 220000000 cycles: 201030685 heartbeat IPC: 0.995855 cumulative IPC: 0.917426 (Simulation time: 0 hr 44 min 42 sec) 
Heartbeat CPU 0 instructions: 230000000 cycles: 211069417 heartbeat IPC: 0.996142 cumulative IPC: 0.921471 (Simulation time: 0 hr 46 min 45 sec) 
Heartbeat CPU 0 instructions: 240000003 cycles: 221114164 heartbeat IPC: 0.995546 cumulative IPC: 0.925094 (Simulation time: 0 hr 48 min 46 sec) 
Heartbeat CPU 0 instructions: 250000000 cycles: 231157499 heartbeat IPC: 0.995685 cumulative IPC: 0.928385 (Simulation time: 0 hr 50 min 48 sec) 
Finished CPU 0 instructions: 200000003 cycles: 215427950 cumulative IPC: 0.928385 (Simulation time: 0 hr 50 min 48 sec) 
 Instruction ID: 250000059

ChampSim completed all CPUs

Region of Interest Statistics

CPU 0 cumulative IPC: 0.928385 instructions: 200000003 cycles: 215427950
ITLB SPEC fills:          0  NON-SPEC fills:          0
ITLB Test counter :          0
ITLB Leapfrog:          0
ITLB MSHR merge:          0
ITLB TOTAL     ACCESS:   28074854  HIT:   28074854  MISS:          0  HIT %:        100  MISS %:          0   MPKI: 0
ITLB LOAD TRANSLATION NON_SPEC    ACCESS:   28074854  HIT:   28074854  MISS:          0  HIT %:        100  MISS %:          0   MPKI: 0
ITLB PREFETCH  REQUESTED:          0  ISSUED:          0  USEFUL:          0  USELESS:          0
ITLB USEFUL LOAD PREFETCHES:          0 PREFETCH ISSUED TO LOWER LEVEL:          0  ACCURACY: -nan
ITLB TIMELY PREFETCHES:          0 LATE PREFETCHES: 0 DROPPED PREFETCHES: 0
ITLB COMMIT LATE PREFETCHES: 0 NORMAL LATE: 0 MISSED OPPORTUNITY: 0 UNCOVERED: 0
ITLB PREFETCHES SAME FILL-ORIGIN LEVEL: 0 DIFFERENT FILL-ORIGIN LEVEL: 0
ITLB AVERAGE MISS LATENCY: -nan cycles
ITLB AVERAGE MISS LATENCY LOAD: -nan cycles
ITLB AVERAGE MISS LATENCY PREFETCH: -nan cycles
ITLB AVERAGE MSHR OCCUPANCY: 0
ITLB MSHR FULL: 0
ITLB RQ	ACCESS:   35098804	FORWARD:          0	MERGED:    7023949	TO_CACHE:   28074855

DTLB SPEC fills:          0  NON-SPEC fills:          0
DTLB Test counter :          0
DTLB Leapfrog:          0
DTLB MSHR merge:          0
DTLB TOTAL     ACCESS:   35470938  HIT:   35424073  MISS:      46865  HIT %:    99.8679  MISS %:   0.132122   MPKI: 0.234325
DTLB LOAD TRANSLATION NON_SPEC    ACCESS:   35470938  HIT:   35424073  MISS:      46865  HIT %:    99.8679  MISS %:   0.132122   MPKI: 0.234325
DTLB PREFETCH  REQUESTED:          0  ISSUED:          0  USEFUL:          0  USELESS:          0
DTLB USEFUL LOAD PREFETCHES:          0 PREFETCH ISSUED TO LOWER LEVEL:          0  ACCURACY: -nan
DTLB TIMELY PREFETCHES:          0 LATE PREFETCHES: 0 DROPPED PREFETCHES: 0
DTLB COMMIT LATE PREFETCHES: 0 NORMAL LATE: 0 MISSED OPPORTUNITY: 0 UNCOVERED: 0
DTLB PREFETCHES SAME FILL-ORIGIN LEVEL: 0 DIFFERENT FILL-ORIGIN LEVEL: 0
DTLB AVERAGE MISS LATENCY: 115.099 cycles
DTLB AVERAGE MISS LATENCY LOAD: -nan cycles
DTLB AVERAGE MISS LATENCY PREFETCH: -nan cycles
DTLB AVERAGE MSHR OCCUPANCY: 0.00704288
DTLB MSHR FULL: 0
DTLB RQ	ACCESS:   55795218	FORWARD:          0	MERGED:   20319977	TO_CACHE:   35475241

STLB SPEC fills:          0  NON-SPEC fills:          0
STLB Test counter :          0
STLB Leapfrog:          0
STLB MSHR merge:          0
STLB TOTAL     ACCESS:      46865  HIT:      19412  MISS:      27453  HIT %:    41.4211  MISS %:    58.5789   MPKI: 0.137265
STLB LOAD TRANSLATION NON_SPEC    ACCESS:      46865  HIT:      19412  MISS:      27453  HIT %:    41.4211  MISS %:    58.5789   MPKI: 0.137265
STLB PREFETCH  REQUESTED:          0  ISSUED:          0  USEFUL:          0  USELESS:          0
STLB USEFUL LOAD PREFETCHES:          0 PREFETCH ISSUED TO LOWER LEVEL:          0  ACCURACY: -nan
STLB TIMELY PREFETCHES:          0 LATE PREFETCHES: 0 DROPPED PREFETCHES: 0
STLB COMMIT LATE PREFETCHES: 0 NORMAL LATE: 0 MISSED OPPORTUNITY: 0 UNCOVERED: 0
STLB PREFETCHES SAME FILL-ORIGIN LEVEL: 0 DIFFERENT FILL-ORIGIN LEVEL: 0
STLB AVERAGE MISS LATENCY: 181.067 cycles
STLB AVERAGE MISS LATENCY LOAD: -nan cycles
STLB AVERAGE MISS LATENCY PREFETCH: -nan cycles
STLB AVERAGE MSHR OCCUPANCY: 0.00394751
STLB MSHR FULL: 0
STLB RQ	ACCESS:      46865	FORWARD:          0	MERGED:          0	TO_CACHE:      46865

STLB Hit, L1D data hit: 0
STLB Hit, L2C data hit: 0
STLB Hit, LLC data hit: 0
STLB Hit, LLC data miss: 0
STLB STLB hints to L2: 0
L0D SPEC fills:   23965220  NON-SPEC fills:          0
L0D TimeGuard Request with older TS:      23647 Restricted eviction:        641 read:     295944
L0D Test counter :          0
L0D Leapfrog:          0
L0D MSHR merge:    4982369
L0D TOTAL     ACCESS:   36771757  HIT:    9707322  MISS:   27064435  HIT %:    26.3989  MISS %:    73.6011   MPKI: 135.322
L0D LOAD      TOTAL       ACCESS:   36771757  HIT:    9707322  MISS:   27064435  HIT %:    26.3989  MISS %:    73.6011   MPKI: 135.322
L0D LOAD      NON_SPEC    ACCESS:    3100815  HIT:       2241  MISS:    3098574  HIT %:  0.0722713  MISS %:    99.9277   MPKI: 15.4929
L0D LOAD      SPEC        ACCESS:   33670942  HIT:    9705081  MISS:   23965861  HIT %:    28.8233  MISS %:    71.1767   MPKI: 119.829
L0D PREFETCH  REQUESTED:          0  ISSUED:          0  USEFUL:          0  USELESS:          0
L0D USEFUL LOAD PREFETCHES:          0 PREFETCH ISSUED TO LOWER LEVEL:          0  ACCURACY: -nan
L0D TIMELY PREFETCHES:          0 LATE PREFETCHES: 0 DROPPED PREFETCHES: 0
L0D COMMIT LATE PREFETCHES: 0 NORMAL LATE: 0 MISSED OPPORTUNITY: 0 UNCOVERED: 0
L0D PREFETCHES SAME FILL-ORIGIN LEVEL: 0 DIFFERENT FILL-ORIGIN LEVEL: 0
L0D AVERAGE MISS LATENCY: 8.81939 cycles
L0D AVERAGE MISS LATENCY LOAD: 8.81939 cycles
L0D AVERAGE MISS LATENCY PREFETCH: -nan cycles
L0D AVERAGE MSHR OCCUPANCY: 1.19239
L0D MSHR FULL: 1.91598e-07
L0D RQ	ACCESS:   70166195	FORWARD:          0	MERGED:   28412073	TO_CACHE:   41754122
L0D WQ	ACCESS:   14041096	FORWARD:          0	MERGED:          0	TO_CACHE:   14041096

L1D SPEC fills:          0  NON-SPEC fills:     963395
L1D Test counter :          0
L1D Leapfrog:          0
L1D MSHR merge:       8692
L1D TOTAL     ACCESS:   95191827  HIT:   90413332  MISS:    4778495  HIT %:    94.9801  MISS %:    5.01986   MPKI: 23.8925
L1D LOAD      TOTAL       ACCESS:   27055742  HIT:   24144564  MISS:    2911178  HIT %:    89.2401  MISS %:    10.7599   MPKI: 14.5559
L1D LOAD      NON_SPEC    ACCESS:    3098544  HIT:    2135149  MISS:     963395  HIT %:    68.9081  MISS %:    31.0919   MPKI: 4.81697
L1D LOAD      SPEC        ACCESS:   23957198  HIT:   22009415  MISS:    1947783  HIT %:    91.8697  MISS %:    8.13026   MPKI: 9.73891
L1D RFO       NON_SPEC    ACCESS:   13773559  HIT:   13770607  MISS:       2952  HIT %:    99.9786  MISS %:  0.0214324   MPKI: 0.01476
L1D COMMIT LOAD NON_SPEC    ACCESS:   30417839  HIT:   30241982  MISS:     175857  HIT %:    99.4219  MISS %:   0.578138   MPKI: 0.879285
L1D COMMIT WRITE NON_SPEC    ACCESS:   23944687  HIT:   22256179  MISS:    1688508  HIT %:    92.9483  MISS %:     7.0517   MPKI: 8.44254
L1D PREFETCH  REQUESTED:          0  ISSUED:          0  USEFUL:          0  USELESS:          0
L1D USEFUL LOAD PREFETCHES:          0 PREFETCH ISSUED TO LOWER LEVEL:          0  ACCURACY: -nan
L1D TIMELY PREFETCHES:          0 LATE PREFETCHES: 0 DROPPED PREFETCHES: 0
L1D COMMIT LATE PREFETCHES: 0 NORMAL LATE: 0 MISSED OPPORTUNITY: 0 UNCOVERED: 2915149
L1D PREFETCHES SAME FILL-ORIGIN LEVEL: 0 DIFFERENT FILL-ORIGIN LEVEL: 0
L1D AVERAGE MISS LATENCY: 21.0025 cycles
L1D AVERAGE MISS LATENCY LOAD: 33.536 cycles
L1D AVERAGE MISS LATENCY PREFETCH: -nan cycles
L1D AVERAGE MSHR OCCUPANCY: 0.250262
L1D MSHR FULL: 0
L1D RQ	ACCESS:   67061459	FORWARD:          0	MERGED:    8926615	TO_CACHE:   57486697
L1D WQ	ACCESS:   37986974	FORWARD:     648147	MERGED:     261704	TO_CACHE:   37725270

L1D UNIQUE REGIONS ACCESSED: 0
L1D REGIONS CONFLICTS: 0
L1D Cross Page Prefetch Requests: 0
L1D Same Page Prefetch Requests: 0
L1D ROI Sum of L1D PQ occupancy: 0
L1D PREFETCHES PUSHED FROM L2C: 0
L1I SPEC fills:          0  NON-SPEC fills:          0
L1I Test counter :          0
L1I Leapfrog:          0
L1I MSHR merge:          0
L1I TOTAL     ACCESS:   35098803  HIT:   35098803  MISS:          0  HIT %:        100  MISS %:          0   MPKI: 0
L1I LOAD      TOTAL       ACCESS:   35098803  HIT:   35098803  MISS:          0  HIT %:        100  MISS %:          0   MPKI: 0
L1I LOAD      NON_SPEC    ACCESS:   35098803  HIT:   35098803  MISS:          0  HIT %:        100  MISS %:          0   MPKI: 0
L1I PREFETCH  REQUESTED:          0  ISSUED:          0  USEFUL:          0  USELESS:          0
L1I USEFUL LOAD PREFETCHES:          0 PREFETCH ISSUED TO LOWER LEVEL:          0  ACCURACY: -nan
L1I TIMELY PREFETCHES:          0 LATE PREFETCHES: 0 DROPPED PREFETCHES: 0
L1I COMMIT LATE PREFETCHES: 0 NORMAL LATE: 0 MISSED OPPORTUNITY: 0 UNCOVERED: 0
L1I PREFETCHES SAME FILL-ORIGIN LEVEL: 0 DIFFERENT FILL-ORIGIN LEVEL: 0
L1I AVERAGE MISS LATENCY: -nan cycles
L1I AVERAGE MISS LATENCY LOAD: -nan cycles
L1I AVERAGE MISS LATENCY PREFETCH: -nan cycles
L1I AVERAGE MSHR OCCUPANCY: 0
L1I MSHR FULL: 0
L1I RQ	ACCESS:   46143565	FORWARD:          0	MERGED:   11044761	TO_CACHE:   35098804

BTB SPEC fills:          0  NON-SPEC fills:          0
BTB Test counter :          0
BTB Leapfrog:          0
BTB MSHR merge:          0
BTB TOTAL     ACCESS:    3509173  HIT:    3509164  MISS:          9  HIT %:    99.9997  MISS %: 0.000256471   MPKI: 4.5e-05
BTB BRANCH_DIRECT_JUMP	ACCESS:        876  HIT:        874  MISS:          2
BTB BRANCH_INDIRECT	ACCESS:          0  HIT:          0  MISS:          0
BTB BRANCH_CONDITIONAL	ACCESS:    3506545  HIT:    3506542  MISS:          3
BTB BRANCH_DIRECT_CALL	ACCESS:        876  HIT:        874  MISS:          2
BTB BRANCH_INDIRECT_CALL	ACCESS:          0  HIT:          0  MISS:          0
BTB BRANCH_RETURN	ACCESS:        876  HIT:        874  MISS:          2
BTB BRANCH_OTHER ACCESS:          0  HIT:          0  MISS:          0

L2C SPEC fills:          0  NON-SPEC fills:      32377
L2C Test counter :          0
L2C Leapfrog:          0
L2C MSHR merge:     156847
L2C TOTAL     ACCESS:   10801135  HIT:    8654175  MISS:    2146960  HIT %:    80.1228  MISS %:    19.8772   MPKI: 10.7348
L2C LOAD      TOTAL       ACCESS:    2911178  HIT:    2523631  MISS:     387547  HIT %:    86.6876  MISS %:    13.3124   MPKI: 1.93773
L2C LOAD      NON_SPEC    ACCESS:     963395  HIT:     931018  MISS:      32377  HIT %:    96.6393  MISS %:    3.36072   MPKI: 0.161885
L2C LOAD      SPEC        ACCESS:    1947783  HIT:    1592613  MISS:     355170  HIT %:    81.7654  MISS %:    18.2346   MPKI: 1.77585
L2C RFO       NON_SPEC    ACCESS:       2952  HIT:       2142  MISS:        810  HIT %:     72.561  MISS %:     27.439   MPKI: 0.00405
L2C PREFETCH  NON_SPEC    ACCESS:    4810491  HIT:    3364885  MISS:    1445606  HIT %:    69.9489  MISS %:    30.0511   MPKI: 7.22803
L2C WRITEBACK NON_SPEC    ACCESS:     655203  HIT:     655203  MISS:          0  HIT %:        100  MISS %:          0   MPKI: 0
L2C CLEAN_EVICTION NON_SPEC    ACCESS:    2108278  HIT:    1798903  MISS:     309375  HIT %:    85.3257  MISS %:    14.6743   MPKI: 1.54687
L2C COMMIT LOAD NON_SPEC    ACCESS:     175857  HIT:     175771  MISS:         86  HIT %:    99.9511  MISS %:  0.0489034   MPKI: 0.00043
L2C LOAD TRANSLATION NON_SPEC    ACCESS:     137176  HIT:     133640  MISS:       3536  HIT %:    97.4223  MISS %:    2.57771   MPKI: 0.01768
L2C PREFETCH  REQUESTED:    5545647  ISSUED:    5545462  USEFUL:    1393061  USELESS:      52400
L2C USEFUL LOAD PREFETCHES:    1393061 PREFETCH ISSUED TO LOWER LEVEL:    1660040  ACCURACY: 83.9173
L2C TIMELY PREFETCHES:    1393061 LATE PREFETCHES: 156908 DROPPED PREFETCHES: 0
L2C COMMIT LATE PREFETCHES: 15297 NORMAL LATE: 168704 MISSED OPPORTUNITY: 4817 UNCOVERED: 198790
L2C PREFETCHES SAME FILL-ORIGIN LEVEL: 1602516 DIFFERENT FILL-ORIGIN LEVEL: 57524
L2C AVERAGE MISS LATENCY: 156.149 cycles
L2C AVERAGE MISS LATENCY LOAD: 163.22 cycles
L2C AVERAGE MISS LATENCY PREFETCH: 187.634 cycles
L2C AVERAGE MSHR OCCUPANCY: 1.50188
L2C MSHR FULL: 0
L2C RQ	ACCESS:    3227163	FORWARD:          0	MERGED:          0	TO_CACHE:    3227163
L2C WQ	ACCESS:    2763516	FORWARD:          6	MERGED:         35	TO_CACHE:    2763481
L2C PQ	ACCESS:    5545462	FORWARD:          0	MERGED:     309668	TO_CACHE:    5235788

L2C Instructions Evicting Data 0
L2C Translations Evicting Data 3536
L2C Data Evicting Data 1476021
L2C Instructions Evicting Instructions 0
L2C Translations Evicting Instructions 0
L2C Data Evicting Instructions 0
L2C Instructions Evicting Translations 0
L2C Translations Evicting Translations 0
L2C Data Evicting Translations 2858
L2C Dense regions hint from L2: 0
PSCL5 SPEC fills:          0  NON-SPEC fills:          0
PSCL5 Test counter :          0
PSCL5 Leapfrog:          0
PSCL5 MSHR merge:          0
PSCL5 TOTAL     ACCESS:          0  HIT:          0  MISS:          0  HIT %:       -nan  MISS %:       -nan   MPKI: 0
PSCL5 PREFETCH  REQUESTED:          0  ISSUED:          0  USEFUL:          0  USELESS:          0
PSCL5 USEFUL LOAD PREFETCHES:          0 PREFETCH ISSUED TO LOWER LEVEL:          0  ACCURACY: -nan
PSCL5 TIMELY PREFETCHES:          0 LATE PREFETCHES: 0 DROPPED PREFETCHES: 0
PSCL5 COMMIT LATE PREFETCHES: 0 NORMAL LATE: 0 MISSED OPPORTUNITY: 0 UNCOVERED: 0
PSCL5 PREFETCHES SAME FILL-ORIGIN LEVEL: 0 DIFFERENT FILL-ORIGIN LEVEL: 0

PSCL4 SPEC fills:          0  NON-SPEC fills:          0
PSCL4 Test counter :          0
PSCL4 Leapfrog:          0
PSCL4 MSHR merge:          0
PSCL4 TOTAL     ACCESS:          0  HIT:          0  MISS:          0  HIT %:       -nan  MISS %:       -nan   MPKI: 0
PSCL4 PREFETCH  REQUESTED:          0  ISSUED:          0  USEFUL:          0  USELESS:          0
PSCL4 USEFUL LOAD PREFETCHES:          0 PREFETCH ISSUED TO LOWER LEVEL:          0  ACCURACY: -nan
PSCL4 TIMELY PREFETCHES:          0 LATE PREFETCHES: 0 DROPPED PREFETCHES: 0
PSCL4 COMMIT LATE PREFETCHES: 0 NORMAL LATE: 0 MISSED OPPORTUNITY: 0 UNCOVERED: 0
PSCL4 PREFETCHES SAME FILL-ORIGIN LEVEL: 0 DIFFERENT FILL-ORIGIN LEVEL: 0

PSCL3 SPEC fills:          0  NON-SPEC fills:          0
PSCL3 Test counter :          0
PSCL3 Leapfrog:          0
PSCL3 MSHR merge:          0
PSCL3 TOTAL     ACCESS:          0  HIT:          0  MISS:          0  HIT %:       -nan  MISS %:       -nan   MPKI: 0
PSCL3 PREFETCH  REQUESTED:          0  ISSUED:          0  USEFUL:          0  USELESS:          0
PSCL3 USEFUL LOAD PREFETCHES:          0 PREFETCH ISSUED TO LOWER LEVEL:          0  ACCURACY: -nan
PSCL3 TIMELY PREFETCHES:          0 LATE PREFETCHES: 0 DROPPED PREFETCHES: 0
PSCL3 COMMIT LATE PREFETCHES: 0 NORMAL LATE: 0 MISSED OPPORTUNITY: 0 UNCOVERED: 0
PSCL3 PREFETCHES SAME FILL-ORIGIN LEVEL: 0 DIFFERENT FILL-ORIGIN LEVEL: 0

PSCL2 SPEC fills:          0  NON-SPEC fills:          0
PSCL2 Test counter :          0
PSCL2 Leapfrog:          0
PSCL2 MSHR merge:          0
PSCL2 TOTAL     ACCESS:          0  HIT:          0  MISS:          0  HIT %:       -nan  MISS %:       -nan   MPKI: 0
PSCL2 PREFETCH  REQUESTED:          0  ISSUED:          0  USEFUL:          0  USELESS:          0
PSCL2 USEFUL LOAD PREFETCHES:          0 PREFETCH ISSUED TO LOWER LEVEL:          0  ACCURACY: -nan
PSCL2 TIMELY PREFETCHES:          0 LATE PREFETCHES: 0 DROPPED PREFETCHES: 0
PSCL2 COMMIT LATE PREFETCHES: 0 NORMAL LATE: 0 MISSED OPPORTUNITY: 0 UNCOVERED: 0
PSCL2 PREFETCHES SAME FILL-ORIGIN LEVEL: 0 DIFFERENT FILL-ORIGIN LEVEL: 0

LLC SPEC fills:          0  NON-SPEC fills:      17568
LLC Test counter :          0
LLC Leapfrog:          0
LLC MSHR merge:          0
LLC TOTAL     ACCESS:    3662550  HIT:    1684941  MISS:    1977609  HIT %:    46.0046  MISS %:    53.9954   MPKI: 9.88804
LLC LOAD      TOTAL       ACCESS:     230700  HIT:       1162  MISS:     229538  HIT %:   0.503684  MISS %:    99.4963   MPKI: 1.14769
LLC LOAD      NON_SPEC    ACCESS:      17920  HIT:        352  MISS:      17568  HIT %:    1.96429  MISS %:    98.0357   MPKI: 0.08784
LLC LOAD      SPEC        ACCESS:     212780  HIT:        810  MISS:     211970  HIT %:   0.380675  MISS %:    99.6193   MPKI: 1.05985
LLC RFO       NON_SPEC    ACCESS:        807  HIT:        807  MISS:          0  HIT %:        100  MISS %:          0   MPKI: 0
LLC PREFETCH  NON_SPEC    ACCESS:    1647571  HIT:      76946  MISS:    1570625  HIT %:    4.67027  MISS %:    95.3297   MPKI: 7.85312
LLC WRITEBACK NON_SPEC    ACCESS:     649683  HIT:     649669  MISS:         14  HIT %:    99.9978  MISS %:  0.0021549   MPKI: 7e-05
LLC CLEAN_EVICTION NON_SPEC    ACCESS:    1130225  HIT:     956333  MISS:     173892  HIT %:    84.6144  MISS %:    15.3856   MPKI: 0.86946
LLC COMMIT LOAD NON_SPEC    ACCESS:         28  HIT:         23  MISS:          5  HIT %:    82.1429  MISS %:    17.8571   MPKI: 2.5e-05
LLC LOAD TRANSLATION NON_SPEC    ACCESS:       3536  HIT:          1  MISS:       3535  HIT %:  0.0282805  MISS %:    99.9717   MPKI: 0.017675
LLC PREFETCH  REQUESTED:          0  ISSUED:          0  USEFUL:        340  USELESS:    1570606
LLC USEFUL LOAD PREFETCHES:        340 PREFETCH ISSUED TO LOWER LEVEL:    1570627  ACCURACY: 0.0216474
LLC TIMELY PREFETCHES:        340 LATE PREFETCHES: 0 DROPPED PREFETCHES: 0
LLC COMMIT LATE PREFETCHES: 0 NORMAL LATE: 0 MISSED OPPORTUNITY: 0 UNCOVERED: 0
LLC PREFETCHES SAME FILL-ORIGIN LEVEL: 4028 DIFFERENT FILL-ORIGIN LEVEL: 0
LLC AVERAGE MISS LATENCY: 148.196 cycles
LLC AVERAGE MISS LATENCY LOAD: 160.512 cycles
LLC AVERAGE MISS LATENCY PREFETCH: 162.754 cycles
LLC AVERAGE MSHR OCCUPANCY: 0.853189
LLC MSHR FULL: 0
LLC RQ	ACCESS:     235071	FORWARD:          0	MERGED:          0	TO_CACHE:     235071
LLC WQ	ACCESS:    1779908	FORWARD:          8	MERGED:          0	TO_CACHE:    1779908
LLC PQ	ACCESS:    1660040	FORWARD:          0	MERGED:      10038	TO_CACHE:    1649994

LLC Dense regions hint to LLC: 0

RAW hits: 2902
Loads Generated: 70169100
Loads sent to L1D: 70166195
Stores Generated: 14041094
Stores sent to L1D: 14041096
Major fault: 0 Minor fault: 34487
Allocated PAGES: 34487
Total Load insts: 87707345
Total Non-spec loads: 7499325
Percentage of speculative loads: 91.4496

LeapFrogging counter: 0
Commit hits: 23945876 miss: 39997027
Commit hit %: 37.4488 miss %: 62.5512
Commits not translated: 0
Loads retired: 2911178
Stores retired: 14041096
Cache fills: 2911178
L1D response latency: 33.536 cycles
Load retirement latency: 54.2509 cycles
OOO test counter: 0
Discarded buffer inserts: 23945876 hits: 453505 hit %: 1.89388
Filter prediction accuracy: -nan
------------------
Depth Distribution
------------------
depth 0: 283243
depth 1: 2342
depth 2: 1008
depth 3: 1159
depth 4: 477
depth 5: 460
depth 6: 619
depth 7: 7289
depth 8: 240700
depth 9: 1596349
depth 10: 386706
depth 11: 971405
depth 12: 77585
depth 13: 7120
depth 14: 3883
depth 15: 47
depth 16: 27
depth 17: 4
depth 18: 0
depth 19: 0
depth 20: 0
depth 21: 0
depth 22: 0
depth 23: 0
depth 24: 0
depth 25: 0
depth 26: 0
depth 27: 0
depth 28: 0
depth 29: 0
Total: 3580423
------------------
ST read accesses: 2883861
ST write accesses: 27317
PT read accesses: 140442356
PT write accesses: 3917306
FILTER read accesses: 54711674
FILTER write accesses: 62777282
GHR read accesses: 14041428
GHR write accesses: 2386010
PERC read accesses: 1015833096
PERC write accesses: 29420130
GHR counter read accesses: 5822356
GHR counter write accesses: 8797215
GHR ip read accesses: 18079170
GHR ip write accesses: 11644712
ST tag read accesses: 1072816896
ST tag write accesses: 13817073
------------------
Depth Distribution
------------------
depth 0: 32202972
depth 1: 30431
depth 2: 706264
depth 3: 2693850
depth 4: 3012041
depth 5: 10990495
depth 6: 9528902
depth 7: 9221816
depth 8: 2612943
depth 9: 683518
depth 10: 916847
depth 11: 3375071
depth 12: 4488720
depth 13: 3461732
depth 14: 2368318
depth 15: 896161
depth 16: 376064
depth 17: 120552
depth 18: 21072
depth 19: 3174
depth 20: 366
depth 21: 40
depth 22: 6
depth 23: 2
depth 24: 5
depth 25: 2
depth 26: 0
depth 27: 15
depth 28: 0
depth 29: 6
Total: 87711385
------------------
ST read accesses: 70141892
ST write accesses: 27241
PT read accesses: 1929381080
PT write accesses: 45989748
FILTER read accesses: 464753989
FILTER write accesses: 17519971
GHR read accesses: 57051088
GHR write accesses: 9069438
PERC read accesses: 14031769716
PERC write accesses: 26092967
GHR counter read accesses: 140338266
GHR counter write accesses: 77007722
GHR ip read accesses: 244264311
GHR ip write accesses: 280676532
ST tag read accesses: 20806761014
ST tag write accesses: 121293768

DRAM Statistics
 CHANNEL 0
 RQ ROW_BUFFER_HIT:     320426  ROW_BUFFER_MISS:    1483277
 DBUS_CONGESTED:       8673
 WQ ROW_BUFFER_HIT:     730710  ROW_BUFFER_MISS:    1028975  FULL:          0

 AVG_CONGESTED_CYCLE: 6
 All warmup complete: 2
Channel 0 Bank busy for read cycles: 0
Channel 0 Bank busy for write cycles: 0
Channel 0
Rank 0
0banks busy for read cycles: 22364718
0banks busy for write cycles: 29053
1banks busy for read cycles: 87634644
1banks busy for write cycles: 3081005
2banks busy for read cycles: 43666587
2banks busy for write cycles: 1534210
3banks busy for read cycles: 7802714
3banks busy for write cycles: 1312599
4banks busy for read cycles: 3100196
4banks busy for write cycles: 1355590
5banks busy for read cycles: 1883681
5banks busy for write cycles: 1419148
6banks busy for read cycles: 1373492
6banks busy for write cycles: 1795542
7banks busy for read cycles: 556923
7banks busy for write cycles: 3808165
8banks busy for read cycles: 805222
8banks busy for write cycles: 31904462

CPU 0 Branch Prediction Accuracy: 99.9751% MPKI: 0.00438 Average ROB Occupancy at Mispredict: 103.522
Branch types
NOT_BRANCH: 196487440 98.2437%
BRANCH_DIRECT_JUMP: 876 0.000438%
BRANCH_INDIRECT: 0 0%
BRANCH_CONDITIONAL: 3509611 1.75481%
BRANCH_DIRECT_CALL: 876 0.000438%
BRANCH_INDIRECT_CALL: 0 0%
BRANCH_RETURN: 876 0.000438%
BRANCH_OTHER: 0 0%

DRAM PAGES: 1048576
Allocated PAGES: 34487
