Initialize SIGNATURE TABLE
ST_SET: 1
ST_WAY: 256
ST_TAG_BIT: 16
ST_TAG_MASK: ffff

Initialize PATTERN TABLE
PT_SET: 512
PT_WAY: 4
SIG_DELTA_BIT: 7
C_SIG_BIT: 4
C_DELTA_BIT: 4

Initialize PREFETCH FILTER
FILTER_SET: 1024

Initialize PERCEPTRON
PERC_ENTRIES: 4096
PERC_FEATURES: 9
Initialize SIGNATURE TABLE
ST_SET: 1
ST_WAY: 256
ST_TAG_BIT: 16
ST_TAG_MASK: ffff

Initialize PATTERN TABLE
PT_SET: 512
PT_WAY: 4
SIG_DELTA_BIT: 7
C_SIG_BIT: 4
C_DELTA_BIT: 4

Initialize PREFETCH FILTER
FILTER_SET: 1024

Initialize PERCEPTRON
PERC_ENTRIES: 4096
PERC_FEATURES: 9

*** ChampSim Multicore Out-of-Order Simulator ***

Warmup Instructions: 50000000
Simulation Instructions: 200000000
Number of CPUs: 1
LLC sets: 2048
LLC ways: 16
L0D sets: 16
L0D ways: 2
ROB size: 352
LQ size: 128
SQ size: 72
Secure Berti: OFF
Berti: OFF
Berti Fill: OFF
On commit prefetching: ON
Hit-based filter: OFF
Time-guarding: ON
Free-slotting: ON
Leap-frogging: ON
Train prefetcher on L0D bypass: OFF
No translation penalty for prefetchers: OFF
Prefetch to L0D only: OFF
Prefetch to L1D only: OFF
Clean evictions: ON
Commit loads: ON
Commit write: ON
Fill commit loads to L2C, LLC: ON
DRAM IO FREQUENCY: 6400
ROB SIZE: 352
Off-chip DRAM Size: 4096 MB Channels: 1 Width: 64-bit Data Rate: 6400 MT/s
CPU 0 runs /home/sumon/secure_berti/GhostMinion/../../traces/spec/649.fotonik3d_s-7084B.champsimtrace.xz
.xz
BTB has LRU replacement policy
ITLB has LRU replacement policy
DTLB has LRU replacement policy
STLB has LRU replacement policy
L1I has LRU replacement policy
L0D has LRU replacement policy
PERC_ENTRIES: 4096
L1D has LRU replacement policy
PERC_ENTRIES: 4096
L2C has LRU replacement policy
LLC has LRU replacement policy
Heartbeat CPU 0 instructions: 10000001 cycles: 3128008 heartbeat IPC: 3.19692 cumulative IPC: 3.19692 (Simulation time: 0 hr 1 min 57 sec) 
Heartbeat CPU 0 instructions: 20000001 cycles: 6256883 heartbeat IPC: 3.19604 cumulative IPC: 3.19648 (Simulation time: 0 hr 4 min 1 sec) 
Heartbeat CPU 0 instructions: 30000001 cycles: 9387695 heartbeat IPC: 3.19406 cumulative IPC: 3.19567 (Simulation time: 0 hr 6 min 10 sec) 
Heartbeat CPU 0 instructions: 40000003 cycles: 12517505 heartbeat IPC: 3.19508 cumulative IPC: 3.19553 (Simulation time: 0 hr 8 min 21 sec) 
Heartbeat CPU 0 instructions: 50000002 cycles: 15649902 heartbeat IPC: 3.19244 cumulative IPC: 3.19491 (Simulation time: 0 hr 10 min 32 sec) 

Warmup complete CPU 0 instructions: 50000002 cycles: 15649902 (Simulation time: 0 hr 10 min 32 sec) 

Heartbeat CPU 0 instructions: 60000001 cycles: 26462757 heartbeat IPC: 0.924825 cumulative IPC: 0.924825 (Simulation time: 0 hr 13 min 8 sec) 
Heartbeat CPU 0 instructions: 70000002 cycles: 37253242 heartbeat IPC: 0.926742 cumulative IPC: 0.925783 (Simulation time: 0 hr 15 min 42 sec) 
Heartbeat CPU 0 instructions: 80000001 cycles: 48072085 heartbeat IPC: 0.924313 cumulative IPC: 0.925292 (Simulation time: 0 hr 18 min 19 sec) 
Heartbeat CPU 0 instructions: 90000001 cycles: 58921538 heartbeat IPC: 0.921705 cumulative IPC: 0.924393 (Simulation time: 0 hr 20 min 57 sec) 
Heartbeat CPU 0 instructions: 100000000 cycles: 69735666 heartbeat IPC: 0.924716 cumulative IPC: 0.924458 (Simulation time: 0 hr 23 min 34 sec) 
Heartbeat CPU 0 instructions: 110000000 cycles: 80523934 heartbeat IPC: 0.926933 cumulative IPC: 0.924869 (Simulation time: 0 hr 26 min 12 sec) 
Heartbeat CPU 0 instructions: 120000000 cycles: 91324053 heartbeat IPC: 0.925916 cumulative IPC: 0.925019 (Simulation time: 0 hr 28 min 49 sec) 
Heartbeat CPU 0 instructions: 130000002 cycles: 102104236 heartbeat IPC: 0.927628 cumulative IPC: 0.925344 (Simulation time: 0 hr 31 min 27 sec) 
Heartbeat CPU 0 instructions: 140000002 cycles: 112891991 heartbeat IPC: 0.926977 cumulative IPC: 0.925525 (Simulation time: 0 hr 34 min 5 sec) 
Heartbeat CPU 0 instructions: 150000001 cycles: 123664411 heartbeat IPC: 0.928296 cumulative IPC: 0.925802 (Simulation time: 0 hr 36 min 43 sec) 
Heartbeat CPU 0 instructions: 160000001 cycles: 134500161 heartbeat IPC: 0.922871 cumulative IPC: 0.925534 (Simulation time: 0 hr 39 min 22 sec) 
Heartbeat CPU 0 instructions: 170000001 cycles: 145327386 heartbeat IPC: 0.923598 cumulative IPC: 0.925373 (Simulation time: 0 hr 42 min 0 sec) 
Heartbeat CPU 0 instructions: 180000001 cycles: 156106288 heartbeat IPC: 0.927738 cumulative IPC: 0.925554 (Simulation time: 0 hr 44 min 36 sec) 
Heartbeat CPU 0 instructions: 190000001 cycles: 166883331 heartbeat IPC: 0.927898 cumulative IPC: 0.925721 (Simulation time: 0 hr 47 min 12 sec) 
Heartbeat CPU 0 instructions: 200000002 cycles: 177669511 heartbeat IPC: 0.927112 cumulative IPC: 0.925814 (Simulation time: 0 hr 49 min 46 sec) 
Heartbeat CPU 0 instructions: 210000003 cycles: 188466288 heartbeat IPC: 0.926202 cumulative IPC: 0.925838 (Simulation time: 0 hr 52 min 18 sec) 
Heartbeat CPU 0 instructions: 220000000 cycles: 199277620 heartbeat IPC: 0.924955 cumulative IPC: 0.925786 (Simulation time: 0 hr 54 min 46 sec) 
Heartbeat CPU 0 instructions: 230000001 cycles: 210060927 heartbeat IPC: 0.927359 cumulative IPC: 0.925873 (Simulation time: 0 hr 57 min 15 sec) 
Heartbeat CPU 0 instructions: 240000002 cycles: 220823261 heartbeat IPC: 0.929167 cumulative IPC: 0.926046 (Simulation time: 0 hr 59 min 38 sec) 
Heartbeat CPU 0 instructions: 250000001 cycles: 231632774 heartbeat IPC: 0.925111 cumulative IPC: 0.925999 (Simulation time: 1 hr 1 min 59 sec) 
Finished CPU 0 instructions: 200000003 cycles: 215982873 cumulative IPC: 0.925999 (Simulation time: 1 hr 1 min 59 sec) 
 Instruction ID: 250000131

ChampSim completed all CPUs

Region of Interest Statistics

CPU 0 cumulative IPC: 0.925999 instructions: 200000003 cycles: 215982873
ITLB SPEC fills:          0  NON-SPEC fills:          0
ITLB Test counter :          0
ITLB Leapfrog:          0
ITLB MSHR merge:          0
ITLB TOTAL     ACCESS:   24367188  HIT:   24367188  MISS:          0  HIT %:        100  MISS %:          0   MPKI: 0
ITLB LOAD TRANSLATION NON_SPEC    ACCESS:   24367188  HIT:   24367188  MISS:          0  HIT %:        100  MISS %:          0   MPKI: 0
ITLB PREFETCH  REQUESTED:          0  ISSUED:          0  USEFUL:          0  USELESS:          0
ITLB USEFUL LOAD PREFETCHES:          0 PREFETCH ISSUED TO LOWER LEVEL:          0  ACCURACY: -nan
ITLB TIMELY PREFETCHES:          0 LATE PREFETCHES: 0 DROPPED PREFETCHES: 0
ITLB COMMIT LATE PREFETCHES: 0 NORMAL LATE: 0 MISSED OPPORTUNITY: 0 UNCOVERED: 0
ITLB PREFETCHES SAME FILL-ORIGIN LEVEL: 0 DIFFERENT FILL-ORIGIN LEVEL: 0
ITLB AVERAGE MISS LATENCY: -nan cycles
ITLB AVERAGE MISS LATENCY LOAD: -nan cycles
ITLB AVERAGE MISS LATENCY PREFETCH: -nan cycles
ITLB AVERAGE MSHR OCCUPANCY: 0
ITLB MSHR FULL: 0
ITLB RQ	ACCESS:   29767231	FORWARD:          0	MERGED:    5400043	TO_CACHE:   24367188

DTLB SPEC fills:          0  NON-SPEC fills:          0
DTLB Test counter :          0
DTLB Leapfrog:          0
DTLB MSHR merge:          0
DTLB TOTAL     ACCESS:   61134864  HIT:   61011514  MISS:     123350  HIT %:    99.7982  MISS %:   0.201767   MPKI: 0.61675
DTLB LOAD TRANSLATION NON_SPEC    ACCESS:   61134864  HIT:   61011514  MISS:     123350  HIT %:    99.7982  MISS %:   0.201767   MPKI: 0.61675
DTLB PREFETCH  REQUESTED:          0  ISSUED:          0  USEFUL:          0  USELESS:          0
DTLB USEFUL LOAD PREFETCHES:          0 PREFETCH ISSUED TO LOWER LEVEL:          0  ACCURACY: -nan
DTLB TIMELY PREFETCHES:          0 LATE PREFETCHES: 0 DROPPED PREFETCHES: 0
DTLB COMMIT LATE PREFETCHES: 0 NORMAL LATE: 0 MISSED OPPORTUNITY: 0 UNCOVERED: 0
DTLB PREFETCHES SAME FILL-ORIGIN LEVEL: 0 DIFFERENT FILL-ORIGIN LEVEL: 0
DTLB AVERAGE MISS LATENCY: 97.3312 cycles
DTLB AVERAGE MISS LATENCY LOAD: -nan cycles
DTLB AVERAGE MISS LATENCY PREFETCH: -nan cycles
DTLB AVERAGE MSHR OCCUPANCY: 0.0215596
DTLB MSHR FULL: 0.000125735
DTLB RQ	ACCESS:   69479224	FORWARD:          0	MERGED:    8342134	TO_CACHE:   61137090

STLB SPEC fills:          0  NON-SPEC fills:          0
STLB Test counter :          0
STLB Leapfrog:          0
STLB MSHR merge:          0
STLB TOTAL     ACCESS:     123350  HIT:      68743  MISS:      54607  HIT %:      55.73  MISS %:      44.27   MPKI: 0.273035
STLB LOAD TRANSLATION NON_SPEC    ACCESS:     123350  HIT:      68743  MISS:      54607  HIT %:      55.73  MISS %:      44.27   MPKI: 0.273035
STLB PREFETCH  REQUESTED:          0  ISSUED:          0  USEFUL:          0  USELESS:          0
STLB USEFUL LOAD PREFETCHES:          0 PREFETCH ISSUED TO LOWER LEVEL:          0  ACCURACY: -nan
STLB TIMELY PREFETCHES:          0 LATE PREFETCHES: 0 DROPPED PREFETCHES: 0
STLB COMMIT LATE PREFETCHES: 0 NORMAL LATE: 0 MISSED OPPORTUNITY: 0 UNCOVERED: 0
STLB PREFETCHES SAME FILL-ORIGIN LEVEL: 0 DIFFERENT FILL-ORIGIN LEVEL: 0
STLB AVERAGE MISS LATENCY: 199.229 cycles
STLB AVERAGE MISS LATENCY LOAD: -nan cycles
STLB AVERAGE MISS LATENCY PREFETCH: -nan cycles
STLB AVERAGE MSHR OCCUPANCY: 0.0650912
STLB MSHR FULL: 0
STLB RQ	ACCESS:     123350	FORWARD:          0	MERGED:          0	TO_CACHE:     123350

STLB Hit, L1D data hit: 0
STLB Hit, L2C data hit: 0
STLB Hit, LLC data hit: 0
STLB Hit, LLC data miss: 0
STLB STLB hints to L2: 0
L0D SPEC fills:   39049016  NON-SPEC fills:          0
L0D TimeGuard Request with older TS:     583762 Restricted eviction:     685073 read:     308156
L0D Test counter :          0
L0D Leapfrog:          0
L0D MSHR merge:    1172933
L0D TOTAL     ACCESS:   58471850  HIT:   13809070  MISS:   44662780  HIT %:    23.6166  MISS %:    76.3834   MPKI: 223.314
L0D LOAD      TOTAL       ACCESS:   58471850  HIT:   13809070  MISS:   44662780  HIT %:    23.6166  MISS %:    76.3834   MPKI: 223.314
L0D LOAD      NON_SPEC    ACCESS:    5180783  HIT:     251970  MISS:    4928813  HIT %:    4.86355  MISS %:    95.1364   MPKI: 24.6441
L0D LOAD      SPEC        ACCESS:   53291067  HIT:   13557100  MISS:   39733967  HIT %:    25.4397  MISS %:    74.5603   MPKI: 198.67
L0D PREFETCH  REQUESTED:          0  ISSUED:          0  USEFUL:          0  USELESS:          0
L0D USEFUL LOAD PREFETCHES:          0 PREFETCH ISSUED TO LOWER LEVEL:          0  ACCURACY: -nan
L0D TIMELY PREFETCHES:          0 LATE PREFETCHES: 0 DROPPED PREFETCHES: 0
L0D COMMIT LATE PREFETCHES: 0 NORMAL LATE: 0 MISSED OPPORTUNITY: 0 UNCOVERED: 0
L0D PREFETCHES SAME FILL-ORIGIN LEVEL: 0 DIFFERENT FILL-ORIGIN LEVEL: 0
L0D AVERAGE MISS LATENCY: 7.04262 cycles
L0D AVERAGE MISS LATENCY LOAD: 7.04262 cycles
L0D AVERAGE MISS LATENCY PREFETCH: -nan cycles
L0D AVERAGE MSHR OCCUPANCY: 1.4642
L0D MSHR FULL: 0.00115728
L0D RQ	ACCESS:   70107549	FORWARD:          0	MERGED:   10462767	TO_CACHE:   59644782
L0D WQ	ACCESS:    9834442	FORWARD:          0	MERGED:          0	TO_CACHE:    9834442

L1D SPEC fills:          0  NON-SPEC fills:     670532
L1D Test counter :          0
L1D Leapfrog:          0
L1D MSHR merge:       2852
L1D TOTAL     ACCESS:  108791280  HIT:  102898010  MISS:    5893270  HIT %:     94.583  MISS %:    5.41704   MPKI: 29.4663
L1D LOAD      TOTAL       ACCESS:   44659928  HIT:   41371150  MISS:    3288778  HIT %:     92.636  MISS %:    7.36405   MPKI: 16.4439
L1D LOAD      NON_SPEC    ACCESS:    4928799  HIT:    4258267  MISS:     670532  HIT %:    86.3956  MISS %:    13.6044   MPKI: 3.35266
L1D LOAD      SPEC        ACCESS:   39731129  HIT:   37112883  MISS:    2618246  HIT %:    93.4101  MISS %:    6.58991   MPKI: 13.0912
L1D RFO       NON_SPEC    ACCESS:    9764673  HIT:    9764672  MISS:          1  HIT %:        100  MISS %: 1.0241e-05   MPKI: 5e-06
L1D COMMIT LOAD NON_SPEC    ACCESS:   15858827  HIT:   15809742  MISS:      49085  HIT %:    99.6905  MISS %:   0.309512   MPKI: 0.245425
L1D COMMIT WRITE NON_SPEC    ACCESS:   38507852  HIT:   35952446  MISS:    2555406  HIT %:    93.3639  MISS %:    6.63606   MPKI: 12.777
L1D PREFETCH  REQUESTED:          0  ISSUED:          0  USEFUL:          0  USELESS:          0
L1D USEFUL LOAD PREFETCHES:          0 PREFETCH ISSUED TO LOWER LEVEL:          0  ACCURACY: -nan
L1D TIMELY PREFETCHES:          0 LATE PREFETCHES: 0 DROPPED PREFETCHES: 0
L1D COMMIT LATE PREFETCHES: 0 NORMAL LATE: 0 MISSED OPPORTUNITY: 0 UNCOVERED: 3292325
L1D PREFETCHES SAME FILL-ORIGIN LEVEL: 0 DIFFERENT FILL-ORIGIN LEVEL: 0
L1D AVERAGE MISS LATENCY: 14.5376 cycles
L1D AVERAGE MISS LATENCY LOAD: 25.7795 cycles
L1D AVERAGE MISS LATENCY PREFETCH: -nan cycles
L1D AVERAGE MSHR OCCUPANCY: 0.246849
L1D MSHR FULL: 0
L1D RQ	ACCESS:   71046042	FORWARD:          0	MERGED:    4179909	TO_CACHE:   60525383
L1D WQ	ACCESS:   48354125	FORWARD:    6340750	MERGED:      76347	TO_CACHE:   48277778

L1D UNIQUE REGIONS ACCESSED: 0
L1D REGIONS CONFLICTS: 0
L1D Cross Page Prefetch Requests: 0
L1D Same Page Prefetch Requests: 0
L1D ROI Sum of L1D PQ occupancy: 0
L1D PREFETCHES PUSHED FROM L2C: 0
L1I SPEC fills:          0  NON-SPEC fills:          0
L1I Test counter :          0
L1I Leapfrog:          0
L1I MSHR merge:          0
L1I TOTAL     ACCESS:   29767230  HIT:   29767230  MISS:          0  HIT %:        100  MISS %:          0   MPKI: 0
L1I LOAD      TOTAL       ACCESS:   29767230  HIT:   29767230  MISS:          0  HIT %:        100  MISS %:          0   MPKI: 0
L1I LOAD      NON_SPEC    ACCESS:   29767230  HIT:   29767230  MISS:          0  HIT %:        100  MISS %:          0   MPKI: 0
L1I PREFETCH  REQUESTED:          0  ISSUED:          0  USEFUL:          0  USELESS:          0
L1I USEFUL LOAD PREFETCHES:          0 PREFETCH ISSUED TO LOWER LEVEL:          0  ACCURACY: -nan
L1I TIMELY PREFETCHES:          0 LATE PREFETCHES: 0 DROPPED PREFETCHES: 0
L1I COMMIT LATE PREFETCHES: 0 NORMAL LATE: 0 MISSED OPPORTUNITY: 0 UNCOVERED: 0
L1I PREFETCHES SAME FILL-ORIGIN LEVEL: 0 DIFFERENT FILL-ORIGIN LEVEL: 0
L1I AVERAGE MISS LATENCY: -nan cycles
L1I AVERAGE MISS LATENCY LOAD: -nan cycles
L1I AVERAGE MISS LATENCY PREFETCH: -nan cycles
L1I AVERAGE MSHR OCCUPANCY: 0
L1I MSHR FULL: 0
L1I RQ	ACCESS:   43436241	FORWARD:          0	MERGED:   13669010	TO_CACHE:   29767231

BTB SPEC fills:          0  NON-SPEC fills:          0
BTB Test counter :          0
BTB Leapfrog:          0
BTB MSHR merge:          0
BTB TOTAL     ACCESS:    1347104  HIT:    1347101  MISS:          3  HIT %:    99.9998  MISS %:  0.0002227   MPKI: 1.5e-05
BTB BRANCH_DIRECT_JUMP	ACCESS:          0  HIT:          0  MISS:          0
BTB BRANCH_INDIRECT	ACCESS:          0  HIT:          0  MISS:          0
BTB BRANCH_CONDITIONAL	ACCESS:    1347104  HIT:    1347101  MISS:          3
BTB BRANCH_DIRECT_CALL	ACCESS:          0  HIT:          0  MISS:          0
BTB BRANCH_INDIRECT_CALL	ACCESS:          0  HIT:          0  MISS:          0
BTB BRANCH_RETURN	ACCESS:          0  HIT:          0  MISS:          0
BTB BRANCH_OTHER ACCESS:          0  HIT:          0  MISS:          0

L2C SPEC fills:          0  NON-SPEC fills:      26801
L2C Test counter :          0
L2C Leapfrog:          0
L2C MSHR merge:      40921
L2C TOTAL     ACCESS:   17222147  HIT:   13601680  MISS:    3620467  HIT %:    78.9778  MISS %:    21.0222   MPKI: 18.1023
L2C LOAD      TOTAL       ACCESS:    3288776  HIT:    3133527  MISS:     155249  HIT %:    95.2794  MISS %:    4.72057   MPKI: 0.776245
L2C LOAD      NON_SPEC    ACCESS:     670530  HIT:     643729  MISS:      26801  HIT %:     96.003  MISS %:    3.99699   MPKI: 0.134005
L2C LOAD      SPEC        ACCESS:    2618246  HIT:    2489798  MISS:     128448  HIT %:    95.0941  MISS %:    4.90588   MPKI: 0.64224
L2C RFO       NON_SPEC    ACCESS:          1  HIT:          1  MISS:          0  HIT %:        100  MISS %:          0   MPKI: 0
L2C PREFETCH  NON_SPEC    ACCESS:   10337831  HIT:    6927231  MISS:    3410600  HIT %:    67.0086  MISS %:    32.9914   MPKI: 17.053
L2C WRITEBACK NON_SPEC    ACCESS:     266735  HIT:     266735  MISS:          0  HIT %:        100  MISS %:          0   MPKI: 0
L2C CLEAN_EVICTION NON_SPEC    ACCESS:    3006769  HIT:    2960132  MISS:      46637  HIT %:    98.4489  MISS %:    1.55107   MPKI: 0.233185
L2C COMMIT LOAD NON_SPEC    ACCESS:      49085  HIT:      48135  MISS:        950  HIT %:    98.0646  MISS %:    1.93542   MPKI: 0.00475
L2C LOAD TRANSLATION NON_SPEC    ACCESS:     272950  HIT:     265919  MISS:       7031  HIT %:    97.4241  MISS %:    2.57593   MPKI: 0.035155
L2C PREFETCH  REQUESTED:   11004161  ISSUED:   11002786  USEFUL:    3119689  USELESS:     290951
L2C USEFUL LOAD PREFETCHES:    3119689 PREFETCH ISSUED TO LOWER LEVEL:    3464581  ACCURACY: 90.0452
L2C TIMELY PREFETCHES:    3119689 LATE PREFETCHES: 41149 DROPPED PREFETCHES: 0
L2C COMMIT LATE PREFETCHES: 118 NORMAL LATE: 41162 MISSED OPPORTUNITY: 15 UNCOVERED: 114182
L2C PREFETCHES SAME FILL-ORIGIN LEVEL: 3451755 DIFFERENT FILL-ORIGIN LEVEL: 12826
L2C AVERAGE MISS LATENCY: 342.666 cycles
L2C AVERAGE MISS LATENCY LOAD: 295.705 cycles
L2C AVERAGE MISS LATENCY PREFETCH: 349.591 cycles
L2C AVERAGE MSHR OCCUPANCY: 5.50086
L2C MSHR FULL: 0.00318297
L2C RQ	ACCESS:    3610814	FORWARD:          0	MERGED:          0	TO_CACHE:    3610812
L2C WQ	ACCESS:    3273506	FORWARD:          3	MERGED:          0	TO_CACHE:    3273506
L2C PQ	ACCESS:   11002786	FORWARD:          0	MERGED:     216225	TO_CACHE:   10786560

L2C Instructions Evicting Data 0
L2C Translations Evicting Data 7028
L2C Data Evicting Data 3431405
L2C Instructions Evicting Instructions 0
L2C Translations Evicting Instructions 0
L2C Data Evicting Instructions 0
L2C Instructions Evicting Translations 0
L2C Translations Evicting Translations 3
L2C Data Evicting Translations 6946
L2C Dense regions hint from L2: 0
PSCL5 SPEC fills:          0  NON-SPEC fills:          0
PSCL5 Test counter :          0
PSCL5 Leapfrog:          0
PSCL5 MSHR merge:          0
PSCL5 TOTAL     ACCESS:          0  HIT:          0  MISS:          0  HIT %:       -nan  MISS %:       -nan   MPKI: 0
PSCL5 PREFETCH  REQUESTED:          0  ISSUED:          0  USEFUL:          0  USELESS:          0
PSCL5 USEFUL LOAD PREFETCHES:          0 PREFETCH ISSUED TO LOWER LEVEL:          0  ACCURACY: -nan
PSCL5 TIMELY PREFETCHES:          0 LATE PREFETCHES: 0 DROPPED PREFETCHES: 0
PSCL5 COMMIT LATE PREFETCHES: 0 NORMAL LATE: 0 MISSED OPPORTUNITY: 0 UNCOVERED: 0
PSCL5 PREFETCHES SAME FILL-ORIGIN LEVEL: 0 DIFFERENT FILL-ORIGIN LEVEL: 0

PSCL4 SPEC fills:          0  NON-SPEC fills:          0
PSCL4 Test counter :          0
PSCL4 Leapfrog:          0
PSCL4 MSHR merge:          0
PSCL4 TOTAL     ACCESS:          0  HIT:          0  MISS:          0  HIT %:       -nan  MISS %:       -nan   MPKI: 0
PSCL4 PREFETCH  REQUESTED:          0  ISSUED:          0  USEFUL:          0  USELESS:          0
PSCL4 USEFUL LOAD PREFETCHES:          0 PREFETCH ISSUED TO LOWER LEVEL:          0  ACCURACY: -nan
PSCL4 TIMELY PREFETCHES:          0 LATE PREFETCHES: 0 DROPPED PREFETCHES: 0
PSCL4 COMMIT LATE PREFETCHES: 0 NORMAL LATE: 0 MISSED OPPORTUNITY: 0 UNCOVERED: 0
PSCL4 PREFETCHES SAME FILL-ORIGIN LEVEL: 0 DIFFERENT FILL-ORIGIN LEVEL: 0

PSCL3 SPEC fills:          0  NON-SPEC fills:          0
PSCL3 Test counter :          0
PSCL3 Leapfrog:          0
PSCL3 MSHR merge:          0
PSCL3 TOTAL     ACCESS:          0  HIT:          0  MISS:          0  HIT %:       -nan  MISS %:       -nan   MPKI: 0
PSCL3 PREFETCH  REQUESTED:          0  ISSUED:          0  USEFUL:          0  USELESS:          0
PSCL3 USEFUL LOAD PREFETCHES:          0 PREFETCH ISSUED TO LOWER LEVEL:          0  ACCURACY: -nan
PSCL3 TIMELY PREFETCHES:          0 LATE PREFETCHES: 0 DROPPED PREFETCHES: 0
PSCL3 COMMIT LATE PREFETCHES: 0 NORMAL LATE: 0 MISSED OPPORTUNITY: 0 UNCOVERED: 0
PSCL3 PREFETCHES SAME FILL-ORIGIN LEVEL: 0 DIFFERENT FILL-ORIGIN LEVEL: 0

PSCL2 SPEC fills:          0  NON-SPEC fills:          0
PSCL2 Test counter :          0
PSCL2 Leapfrog:          0
PSCL2 MSHR merge:          0
PSCL2 TOTAL     ACCESS:          0  HIT:          0  MISS:          0  HIT %:       -nan  MISS %:       -nan   MPKI: 0
PSCL2 PREFETCH  REQUESTED:          0  ISSUED:          0  USEFUL:          0  USELESS:          0
PSCL2 USEFUL LOAD PREFETCHES:          0 PREFETCH ISSUED TO LOWER LEVEL:          0  ACCURACY: -nan
PSCL2 TIMELY PREFETCHES:          0 LATE PREFETCHES: 0 DROPPED PREFETCHES: 0
PSCL2 COMMIT LATE PREFETCHES: 0 NORMAL LATE: 0 MISSED OPPORTUNITY: 0 UNCOVERED: 0
PSCL2 PREFETCHES SAME FILL-ORIGIN LEVEL: 0 DIFFERENT FILL-ORIGIN LEVEL: 0

LLC SPEC fills:          0  NON-SPEC fills:      22283
LLC Test counter :          0
LLC Leapfrog:          0
LLC MSHR merge:          0
LLC TOTAL     ACCESS:    6858675  HIT:    3274987  MISS:    3583688  HIT %:    47.7496  MISS %:    52.2504   MPKI: 17.9184
LLC LOAD      TOTAL       ACCESS:     114328  HIT:        300  MISS:     114028  HIT %:   0.262403  MISS %:    99.7376   MPKI: 0.57014
LLC LOAD      NON_SPEC    ACCESS:      22283  HIT:          0  MISS:      22283  HIT %:          0  MISS %:        100   MPKI: 0.111415
LLC LOAD      SPEC        ACCESS:      92045  HIT:        300  MISS:      91745  HIT %:   0.325928  MISS %:    99.6741   MPKI: 0.458725
LLC PREFETCH  NON_SPEC    ACCESS:    3463514  HIT:      21459  MISS:    3442055  HIT %:   0.619573  MISS %:    99.3804   MPKI: 17.2103
LLC WRITEBACK NON_SPEC    ACCESS:     266195  HIT:     266195  MISS:          0  HIT %:        100  MISS %:          0   MPKI: 0
LLC CLEAN_EVICTION NON_SPEC    ACCESS:    3006885  HIT:    2986462  MISS:      20423  HIT %:    99.3208  MISS %:   0.679208   MPKI: 0.102115
LLC COMMIT LOAD NON_SPEC    ACCESS:        722  HIT:        546  MISS:        176  HIT %:    75.6233  MISS %:    24.3767   MPKI: 0.00088
LLC LOAD TRANSLATION NON_SPEC    ACCESS:       7031  HIT:         25  MISS:       7006  HIT %:   0.355568  MISS %:    99.6444   MPKI: 0.03503
LLC PREFETCH  REQUESTED:          0  ISSUED:          0  USEFUL:        839  USELESS:    3441319
LLC USEFUL LOAD PREFETCHES:        839 PREFETCH ISSUED TO LOWER LEVEL:    3442061  ACCURACY: 0.0243749
LLC TIMELY PREFETCHES:        839 LATE PREFETCHES: 0 DROPPED PREFETCHES: 0
LLC COMMIT LATE PREFETCHES: 0 NORMAL LATE: 0 MISSED OPPORTUNITY: 0 UNCOVERED: 0
LLC PREFETCHES SAME FILL-ORIGIN LEVEL: 685 DIFFERENT FILL-ORIGIN LEVEL: 0
LLC AVERAGE MISS LATENCY: 320.092 cycles
LLC AVERAGE MISS LATENCY LOAD: 258.711 cycles
LLC AVERAGE MISS LATENCY PREFETCH: 324.09 cycles
LLC AVERAGE MSHR OCCUPANCY: 4.39629
LLC MSHR FULL: 0
LLC RQ	ACCESS:     122081	FORWARD:          0	MERGED:          0	TO_CACHE:     122081
LLC WQ	ACCESS:    3273080	FORWARD:          0	MERGED:          0	TO_CACHE:    3273080
LLC PQ	ACCESS:    3464581	FORWARD:          0	MERGED:        367	TO_CACHE:    3464214

LLC Dense regions hint to LLC: 0

RAW hits: 638253
Loads Generated: 70745803
Loads sent to L1D: 70107549
Stores Generated: 9834442
Stores sent to L1D: 9834442
Major fault: 0 Minor fault: 54759
Allocated PAGES: 54759
Total Load insts: 87191504
Total Non-spec loads: 5571032
Percentage of speculative loads: 93.6106

LeapFrogging counter: 35862
Commit hits: 38519684 miss: 26383264
Commit hit %: 59.3497 miss %: 40.6503
Commits not translated: 0
Loads retired: 3288776
Stores retired: 9834442
Cache fills: 3288778
L1D response latency: 25.7795 cycles
Load retirement latency: 63.0923 cycles
OOO test counter: 0
Discarded buffer inserts: 38519684 hits: 7479 hit %: 0.019416
Filter prediction accuracy: -nan
------------------
Depth Distribution
------------------
depth 0: 29293
depth 1: 65
depth 2: 151
depth 3: 129695
depth 4: 533111
depth 5: 3331061
depth 6: 94577
depth 7: 1600
depth 8: 0
depth 9: 0
depth 10: 0
depth 11: 0
depth 12: 0
depth 13: 0
depth 14: 0
depth 15: 0
depth 16: 0
depth 17: 0
depth 18: 0
depth 19: 0
depth 20: 0
depth 21: 0
depth 22: 0
depth 23: 0
depth 24: 0
depth 25: 0
depth 26: 0
depth 27: 0
depth 28: 0
depth 29: 0
Total: 4119553
------------------
ST read accesses: 3234365
ST write accesses: 54411
PT read accesses: 95480878
PT write accesses: 4830175
FILTER read accesses: 65693100
FILTER write accesses: 101219456
GHR read accesses: 4490857
GHR write accesses: 829134
PERC read accesses: 704436021
PERC write accesses: 51577085
GHR counter read accesses: 6577552
GHR counter write accesses: 11632722
GHR ip read accesses: 23318523
GHR ip write accesses: 13155104
ST tag read accesses: 1292601331
ST tag write accesses: 44887797
------------------
Depth Distribution
------------------
depth 0: 15186931
depth 1: 1211831
depth 2: 342635
depth 3: 17371033
depth 4: 42436197
depth 5: 3974394
depth 6: 1731687
depth 7: 5207064
depth 8: 959690
depth 9: 10740
depth 10: 21
depth 11: 4
depth 12: 8
depth 13: 0
depth 14: 0
depth 15: 0
depth 16: 0
depth 17: 0
depth 18: 0
depth 19: 0
depth 20: 0
depth 21: 0
depth 22: 0
depth 23: 0
depth 24: 0
depth 25: 0
depth 26: 0
depth 27: 0
depth 28: 0
depth 29: 0
Total: 88432235
------------------
ST read accesses: 70691465
ST write accesses: 54341
PT read accesses: 1568891818
PT write accesses: 44205293
FILTER read accesses: 390996083
FILTER write accesses: 25954865
GHR read accesses: 26250750
GHR write accesses: 4842617
PERC read accesses: 11511451017
PERC write accesses: 47562423
GHR counter read accesses: 141491612
GHR counter write accesses: 85896695
GHR ip read accesses: 256633056
GHR ip write accesses: 282983224
ST tag read accesses: 21927896807
ST tag write accesses: 413608598

DRAM Statistics
 CHANNEL 0
 RQ ROW_BUFFER_HIT:     930398  ROW_BUFFER_MISS:    2632867
 DBUS_CONGESTED:        773
 WQ ROW_BUFFER_HIT:     741711  ROW_BUFFER_MISS:    2531388  FULL:          0

 AVG_CONGESTED_CYCLE: 5
 All warmup complete: 2
Channel 0 Bank busy for read cycles: 0
Channel 0 Bank busy for write cycles: 0
Channel 0
Rank 0
0banks busy for read cycles: 256826
0banks busy for write cycles: 24
1banks busy for read cycles: 22397535
1banks busy for write cycles: 421952
2banks busy for read cycles: 28752926
2banks busy for write cycles: 421663
3banks busy for read cycles: 30554618
3banks busy for write cycles: 422199
4banks busy for read cycles: 25523980
4banks busy for write cycles: 424702
5banks busy for read cycles: 16631472
5banks busy for write cycles: 428901
6banks busy for read cycles: 9210985
6banks busy for write cycles: 451268
7banks busy for read cycles: 4968109
7banks busy for write cycles: 3921857
8banks busy for read cycles: 3875213
8banks busy for write cycles: 67318644

CPU 0 Branch Prediction Accuracy: 99.9985% MPKI: 0.000105 Average ROB Occupancy at Mispredict: 92.0476
Branch types
NOT_BRANCH: 198618941 99.3095%
BRANCH_DIRECT_JUMP: 0 0%
BRANCH_INDIRECT: 0 0%
BRANCH_CONDITIONAL: 1380806 0.690403%
BRANCH_DIRECT_CALL: 0 0%
BRANCH_INDIRECT_CALL: 0 0%
BRANCH_RETURN: 0 0%
BRANCH_OTHER: 0 0%

DRAM PAGES: 1048576
Allocated PAGES: 54759
