Initialize SIGNATURE TABLE
ST_SET: 1
ST_WAY: 256
ST_TAG_BIT: 16
ST_TAG_MASK: ffff

Initialize PATTERN TABLE
PT_SET: 512
PT_WAY: 4
SIG_DELTA_BIT: 7
C_SIG_BIT: 4
C_DELTA_BIT: 4

Initialize PREFETCH FILTER
FILTER_SET: 1024

Initialize PERCEPTRON
PERC_ENTRIES: 4096
PERC_FEATURES: 9
Initialize SIGNATURE TABLE
ST_SET: 1
ST_WAY: 256
ST_TAG_BIT: 16
ST_TAG_MASK: ffff

Initialize PATTERN TABLE
PT_SET: 512
PT_WAY: 4
SIG_DELTA_BIT: 7
C_SIG_BIT: 4
C_DELTA_BIT: 4

Initialize PREFETCH FILTER
FILTER_SET: 1024

Initialize PERCEPTRON
PERC_ENTRIES: 4096
PERC_FEATURES: 9

*** ChampSim Multicore Out-of-Order Simulator ***

Warmup Instructions: 50000000
Simulation Instructions: 200000000
Number of CPUs: 1
LLC sets: 2048
LLC ways: 16
L0D sets: 16
L0D ways: 2
ROB size: 352
LQ size: 128
SQ size: 72
Secure Berti: OFF
Berti: OFF
Berti Fill: OFF
On commit prefetching: ON
Hit-based filter: OFF
Time-guarding: ON
Free-slotting: ON
Leap-frogging: ON
Train prefetcher on L0D bypass: OFF
No translation penalty for prefetchers: OFF
Prefetch to L0D only: OFF
Prefetch to L1D only: OFF
Clean evictions: ON
Commit loads: ON
Commit write: ON
Fill commit loads to L2C, LLC: ON
DRAM IO FREQUENCY: 6400
ROB SIZE: 352
Off-chip DRAM Size: 4096 MB Channels: 1 Width: 64-bit Data Rate: 6400 MT/s
CPU 0 runs /home/sumon/secure_berti/GhostMinion/../../traces/spec/654.roms_s-1390B.champsimtrace.xz
.xz
BTB has LRU replacement policy
ITLB has LRU replacement policy
DTLB has LRU replacement policy
STLB has LRU replacement policy
L1I has LRU replacement policy
L0D has LRU replacement policy
PERC_ENTRIES: 4096
L1D has LRU replacement policy
PERC_ENTRIES: 4096
L2C has LRU replacement policy
LLC has LRU replacement policy
Heartbeat CPU 0 instructions: 10000001 cycles: 4245576 heartbeat IPC: 2.35539 cumulative IPC: 2.35539 (Simulation time: 0 hr 2 min 49 sec) 
Heartbeat CPU 0 instructions: 20000002 cycles: 7894683 heartbeat IPC: 2.7404 cumulative IPC: 2.53335 (Simulation time: 0 hr 4 min 57 sec) 
Heartbeat CPU 0 instructions: 30000001 cycles: 11311403 heartbeat IPC: 2.92678 cumulative IPC: 2.65219 (Simulation time: 0 hr 6 min 58 sec) 
Heartbeat CPU 0 instructions: 40000002 cycles: 15371110 heartbeat IPC: 2.46323 cumulative IPC: 2.60228 (Simulation time: 0 hr 9 min 42 sec) 
Heartbeat CPU 0 instructions: 50000000 cycles: 20020990 heartbeat IPC: 2.15059 cumulative IPC: 2.49738 (Simulation time: 0 hr 12 min 40 sec) 

Warmup complete CPU 0 instructions: 50000004 cycles: 20020991 (Simulation time: 0 hr 12 min 40 sec) 

Heartbeat CPU 0 instructions: 60000001 cycles: 32362614 heartbeat IPC: 0.810266 cumulative IPC: 0.810266 (Simulation time: 0 hr 14 min 43 sec) 
Heartbeat CPU 0 instructions: 70000003 cycles: 43891678 heartbeat IPC: 0.867373 cumulative IPC: 0.837848 (Simulation time: 0 hr 16 min 41 sec) 
Heartbeat CPU 0 instructions: 80000002 cycles: 55420979 heartbeat IPC: 0.867355 cumulative IPC: 0.847458 (Simulation time: 0 hr 18 min 39 sec) 
Heartbeat CPU 0 instructions: 90000003 cycles: 69936254 heartbeat IPC: 0.688929 cumulative IPC: 0.801358 (Simulation time: 0 hr 21 min 42 sec) 
Heartbeat CPU 0 instructions: 100000000 cycles: 84325407 heartbeat IPC: 0.694968 cumulative IPC: 0.777552 (Simulation time: 0 hr 24 min 32 sec) 
Heartbeat CPU 0 instructions: 110000000 cycles: 99481627 heartbeat IPC: 0.659795 cumulative IPC: 0.755091 (Simulation time: 0 hr 27 min 5 sec) 
Heartbeat CPU 0 instructions: 120000001 cycles: 111915909 heartbeat IPC: 0.804228 cumulative IPC: 0.76174 (Simulation time: 0 hr 29 min 1 sec) 
Heartbeat CPU 0 instructions: 130000000 cycles: 124466492 heartbeat IPC: 0.796776 cumulative IPC: 0.76595 (Simulation time: 0 hr 31 min 10 sec) 
Heartbeat CPU 0 instructions: 140000001 cycles: 144854896 heartbeat IPC: 0.490475 cumulative IPC: 0.720958 (Simulation time: 0 hr 35 min 5 sec) 
Heartbeat CPU 0 instructions: 150000000 cycles: 161189418 heartbeat IPC: 0.6122 cumulative IPC: 0.708374 (Simulation time: 0 hr 38 min 20 sec) 
Heartbeat CPU 0 instructions: 160000002 cycles: 175972180 heartbeat IPC: 0.676464 cumulative IPC: 0.705349 (Simulation time: 0 hr 42 min 46 sec) 
Heartbeat CPU 0 instructions: 170000000 cycles: 190479087 heartbeat IPC: 0.689327 cumulative IPC: 0.703985 (Simulation time: 0 hr 47 min 6 sec) 
Heartbeat CPU 0 instructions: 180000003 cycles: 205002134 heartbeat IPC: 0.688561 cumulative IPC: 0.702774 (Simulation time: 0 hr 51 min 14 sec) 
Heartbeat CPU 0 instructions: 190000000 cycles: 219601846 heartbeat IPC: 0.684945 cumulative IPC: 0.70147 (Simulation time: 0 hr 53 min 54 sec) 
Heartbeat CPU 0 instructions: 200000003 cycles: 236935390 heartbeat IPC: 0.576916 cumulative IPC: 0.691517 (Simulation time: 0 hr 56 min 17 sec) 
Heartbeat CPU 0 instructions: 210000002 cycles: 254605341 heartbeat IPC: 0.565932 cumulative IPC: 0.682057 (Simulation time: 0 hr 59 min 48 sec) 
Heartbeat CPU 0 instructions: 220000000 cycles: 272725606 heartbeat IPC: 0.551868 cumulative IPC: 0.672722 (Simulation time: 1 hr 2 min 54 sec) 
Heartbeat CPU 0 instructions: 230000002 cycles: 292025554 heartbeat IPC: 0.518136 cumulative IPC: 0.661754 (Simulation time: 1 hr 5 min 29 sec) 
Heartbeat CPU 0 instructions: 240000002 cycles: 306469216 heartbeat IPC: 0.692345 cumulative IPC: 0.663296 (Simulation time: 1 hr 8 min 25 sec) 
Heartbeat CPU 0 instructions: 250000003 cycles: 320159850 heartbeat IPC: 0.730426 cumulative IPC: 0.666358 (Simulation time: 1 hr 11 min 39 sec) 
Finished CPU 0 instructions: 200000003 cycles: 300138860 cumulative IPC: 0.666358 (Simulation time: 1 hr 11 min 39 sec) 
 Instruction ID: 250000376

ChampSim completed all CPUs

Region of Interest Statistics

CPU 0 cumulative IPC: 0.666358 instructions: 200000003 cycles: 300138860
ITLB SPEC fills:          0  NON-SPEC fills:          0
ITLB Test counter :          0
ITLB Leapfrog:          0
ITLB MSHR merge:          0
ITLB TOTAL     ACCESS:   29876898  HIT:   29876891  MISS:          7  HIT %:        100  MISS %: 2.34295e-05   MPKI: 3.5e-05
ITLB LOAD TRANSLATION NON_SPEC    ACCESS:   29876898  HIT:   29876891  MISS:          7  HIT %:        100  MISS %: 2.34295e-05   MPKI: 3.5e-05
ITLB PREFETCH  REQUESTED:          0  ISSUED:          0  USEFUL:          0  USELESS:          0
ITLB USEFUL LOAD PREFETCHES:          0 PREFETCH ISSUED TO LOWER LEVEL:          0  ACCURACY: -nan
ITLB TIMELY PREFETCHES:          0 LATE PREFETCHES: 0 DROPPED PREFETCHES: 0
ITLB COMMIT LATE PREFETCHES: 0 NORMAL LATE: 0 MISSED OPPORTUNITY: 0 UNCOVERED: 0
ITLB PREFETCHES SAME FILL-ORIGIN LEVEL: 0 DIFFERENT FILL-ORIGIN LEVEL: 0
ITLB AVERAGE MISS LATENCY: 761 cycles
ITLB AVERAGE MISS LATENCY LOAD: -nan cycles
ITLB AVERAGE MISS LATENCY PREFETCH: -nan cycles
ITLB AVERAGE MSHR OCCUPANCY: 3.34707e-08
ITLB MSHR FULL: 0
ITLB RQ	ACCESS:   35708232	FORWARD:          0	MERGED:    5831333	TO_CACHE:   29876899

DTLB SPEC fills:          0  NON-SPEC fills:          0
DTLB Test counter :          0
DTLB Leapfrog:          0
DTLB MSHR merge:          0
DTLB TOTAL     ACCESS:   56456090  HIT:   56286125  MISS:     169965  HIT %:    99.6989  MISS %:   0.301057   MPKI: 0.849825
DTLB LOAD TRANSLATION NON_SPEC    ACCESS:   56456090  HIT:   56286125  MISS:     169965  HIT %:    99.6989  MISS %:   0.301057   MPKI: 0.849825
DTLB PREFETCH  REQUESTED:          0  ISSUED:          0  USEFUL:          0  USELESS:          0
DTLB USEFUL LOAD PREFETCHES:          0 PREFETCH ISSUED TO LOWER LEVEL:          0  ACCURACY: -nan
DTLB TIMELY PREFETCHES:          0 LATE PREFETCHES: 0 DROPPED PREFETCHES: 0
DTLB COMMIT LATE PREFETCHES: 0 NORMAL LATE: 0 MISSED OPPORTUNITY: 0 UNCOVERED: 0
DTLB PREFETCHES SAME FILL-ORIGIN LEVEL: 0 DIFFERENT FILL-ORIGIN LEVEL: 0
DTLB AVERAGE MISS LATENCY: 194.813 cycles
DTLB AVERAGE MISS LATENCY LOAD: -nan cycles
DTLB AVERAGE MISS LATENCY PREFETCH: -nan cycles
DTLB AVERAGE MSHR OCCUPANCY: 0.117092
DTLB MSHR FULL: 0.00944245
DTLB RQ	ACCESS:   66541449	FORWARD:          0	MERGED:    9955468	TO_CACHE:   56585981

STLB SPEC fills:          0  NON-SPEC fills:          0
STLB Test counter :          0
STLB Leapfrog:          0
STLB MSHR merge:          0
STLB TOTAL     ACCESS:     169972  HIT:      54651  MISS:     115321  HIT %:    32.1529  MISS %:    67.8471   MPKI: 0.576605
STLB LOAD TRANSLATION NON_SPEC    ACCESS:     169972  HIT:      54651  MISS:     115321  HIT %:    32.1529  MISS %:    67.8471   MPKI: 0.576605
STLB PREFETCH  REQUESTED:          0  ISSUED:          0  USEFUL:          0  USELESS:          0
STLB USEFUL LOAD PREFETCHES:          0 PREFETCH ISSUED TO LOWER LEVEL:          0  ACCURACY: -nan
STLB TIMELY PREFETCHES:          0 LATE PREFETCHES: 0 DROPPED PREFETCHES: 0
STLB COMMIT LATE PREFETCHES: 0 NORMAL LATE: 0 MISSED OPPORTUNITY: 0 UNCOVERED: 0
STLB PREFETCHES SAME FILL-ORIGIN LEVEL: 0 DIFFERENT FILL-ORIGIN LEVEL: 0
STLB AVERAGE MISS LATENCY: 273.634 cycles
STLB AVERAGE MISS LATENCY LOAD: -nan cycles
STLB AVERAGE MISS LATENCY PREFETCH: -nan cycles
STLB AVERAGE MSHR OCCUPANCY: 0.368478
STLB MSHR FULL: 0
STLB RQ	ACCESS:     169972	FORWARD:          0	MERGED:          0	TO_CACHE:     169972

STLB Hit, L1D data hit: 0
STLB Hit, L2C data hit: 0
STLB Hit, LLC data hit: 0
STLB Hit, LLC data miss: 0
STLB STLB hints to L2: 0
L0D SPEC fills:   28092879  NON-SPEC fills:          0
L0D TimeGuard Request with older TS:    2448997 Restricted eviction:    1798846 read:    1083953
L0D Test counter :          0
L0D Leapfrog:          0
L0D MSHR merge:    5853565
L0D TOTAL     ACCESS:   48368932  HIT:   12880305  MISS:   35488627  HIT %:    26.6293  MISS %:    73.3707   MPKI: 177.443
L0D LOAD      TOTAL       ACCESS:   48368932  HIT:   12880305  MISS:   35488627  HIT %:    26.6293  MISS %:    73.3707   MPKI: 177.443
L0D LOAD      NON_SPEC    ACCESS:    5862919  HIT:     265879  MISS:    5597040  HIT %:    4.53493  MISS %:    95.4651   MPKI: 27.9852
L0D LOAD      SPEC        ACCESS:   42506013  HIT:   12614426  MISS:   29891587  HIT %:    29.6768  MISS %:    70.3232   MPKI: 149.458
L0D PREFETCH  REQUESTED:          0  ISSUED:          0  USEFUL:          0  USELESS:          0
L0D USEFUL LOAD PREFETCHES:          0 PREFETCH ISSUED TO LOWER LEVEL:          0  ACCURACY: -nan
L0D TIMELY PREFETCHES:          0 LATE PREFETCHES: 0 DROPPED PREFETCHES: 0
L0D COMMIT LATE PREFETCHES: 0 NORMAL LATE: 0 MISSED OPPORTUNITY: 0 UNCOVERED: 0
L0D PREFETCHES SAME FILL-ORIGIN LEVEL: 0 DIFFERENT FILL-ORIGIN LEVEL: 0
L0D AVERAGE MISS LATENCY: 12.7406 cycles
L0D AVERAGE MISS LATENCY LOAD: 12.7406 cycles
L0D AVERAGE MISS LATENCY PREFETCH: -nan cycles
L0D AVERAGE MSHR OCCUPANCY: 2.13011
L0D MSHR FULL: 0.00741627
L0D RQ	ACCESS:   76465675	FORWARD:          0	MERGED:   22243180	TO_CACHE:   54222495
L0D WQ	ACCESS:   12318954	FORWARD:          0	MERGED:          0	TO_CACHE:   12318954

L1D SPEC fills:          0  NON-SPEC fills:     414211
L1D Test counter :          0
L1D Leapfrog:          0
L1D MSHR merge:     101741
L1D TOTAL     ACCESS:   95069142  HIT:   84753544  MISS:   10315598  HIT %:    89.1494  MISS %:    10.8506   MPKI: 51.578
L1D LOAD      TOTAL       ACCESS:   35386886  HIT:   30398455  MISS:    4988431  HIT %:    85.9032  MISS %:    14.0968   MPKI: 24.9422
L1D LOAD      NON_SPEC    ACCESS:    5593653  HIT:    5179442  MISS:     414211  HIT %:     92.595  MISS %:    7.40502   MPKI: 2.07105
L1D LOAD      SPEC        ACCESS:   29793233  HIT:   25219013  MISS:    4574220  HIT %:    84.6468  MISS %:    15.3532   MPKI: 22.8711
L1D RFO       NON_SPEC    ACCESS:    6318615  HIT:    5185872  MISS:    1132743  HIT %:    82.0729  MISS %:    17.9271   MPKI: 5.66371
L1D COMMIT LOAD NON_SPEC    ACCESS:   27230555  HIT:   26868708  MISS:     361847  HIT %:    98.6712  MISS %:    1.32883   MPKI: 1.80923
L1D COMMIT WRITE NON_SPEC    ACCESS:   26133086  HIT:   22300509  MISS:    3832577  HIT %:    85.3344  MISS %:    14.6656   MPKI: 19.1629
L1D PREFETCH  REQUESTED:          0  ISSUED:          0  USEFUL:          0  USELESS:          0
L1D USEFUL LOAD PREFETCHES:          0 PREFETCH ISSUED TO LOWER LEVEL:          0  ACCURACY: -nan
L1D TIMELY PREFETCHES:          0 LATE PREFETCHES: 0 DROPPED PREFETCHES: 0
L1D COMMIT LATE PREFETCHES: 0 NORMAL LATE: 0 MISSED OPPORTUNITY: 0 UNCOVERED: 5041405
L1D PREFETCHES SAME FILL-ORIGIN LEVEL: 0 DIFFERENT FILL-ORIGIN LEVEL: 0
L1D AVERAGE MISS LATENCY: 88.7818 cycles
L1D AVERAGE MISS LATENCY LOAD: 51.9369 cycles
L1D AVERAGE MISS LATENCY PREFETCH: -nan cycles
L1D AVERAGE MSHR OCCUPANCY: 3.06928
L1D MSHR FULL: 0.00667533
L1D RQ	ACCESS:   79646943	FORWARD:          0	MERGED:   15726427	TO_CACHE:   62805082
L1D WQ	ACCESS:   38473783	FORWARD:    1115434	MERGED:     216192	TO_CACHE:   38257591

L1D UNIQUE REGIONS ACCESSED: 0
L1D REGIONS CONFLICTS: 0
L1D Cross Page Prefetch Requests: 0
L1D Same Page Prefetch Requests: 0
L1D ROI Sum of L1D PQ occupancy: 0
L1D PREFETCHES PUSHED FROM L2C: 0
L1I SPEC fills:          0  NON-SPEC fills:          0
L1I Test counter :          0
L1I Leapfrog:          0
L1I MSHR merge:        357
L1I TOTAL     ACCESS:   35707875  HIT:   35707105  MISS:        770  HIT %:    99.9978  MISS %: 0.00215639   MPKI: 0.00385
L1I LOAD      TOTAL       ACCESS:   35707875  HIT:   35707105  MISS:        770  HIT %:    99.9978  MISS %: 0.00215639   MPKI: 0.00385
L1I LOAD      NON_SPEC    ACCESS:   35707875  HIT:   35707105  MISS:        770  HIT %:    99.9978  MISS %: 0.00215639   MPKI: 0.00385
L1I PREFETCH  REQUESTED:          0  ISSUED:          0  USEFUL:          0  USELESS:          0
L1I USEFUL LOAD PREFETCHES:          0 PREFETCH ISSUED TO LOWER LEVEL:          0  ACCURACY: -nan
L1I TIMELY PREFETCHES:          0 LATE PREFETCHES: 0 DROPPED PREFETCHES: 0
L1I COMMIT LATE PREFETCHES: 0 NORMAL LATE: 0 MISSED OPPORTUNITY: 0 UNCOVERED: 0
L1I PREFETCHES SAME FILL-ORIGIN LEVEL: 0 DIFFERENT FILL-ORIGIN LEVEL: 0
L1I AVERAGE MISS LATENCY: 317.218 cycles
L1I AVERAGE MISS LATENCY LOAD: 317.218 cycles
L1I AVERAGE MISS LATENCY PREFETCH: -nan cycles
L1I AVERAGE MSHR OCCUPANCY: 2.56243e-05
L1I MSHR FULL: 0
L1I RQ	ACCESS:   50826233	FORWARD:          0	MERGED:   15118001	TO_CACHE:   35708232

BTB SPEC fills:          0  NON-SPEC fills:          0
BTB Test counter :          0
BTB Leapfrog:          0
BTB MSHR merge:          0
BTB TOTAL     ACCESS:    7433880  HIT:    7433571  MISS:        309  HIT %:    99.9958  MISS %: 0.00415664   MPKI: 0.001545
BTB BRANCH_DIRECT_JUMP	ACCESS:       1193  HIT:       1166  MISS:         27
BTB BRANCH_INDIRECT	ACCESS:          0  HIT:          0  MISS:          0
BTB BRANCH_CONDITIONAL	ACCESS:    7432413  HIT:    7432256  MISS:        157
BTB BRANCH_DIRECT_CALL	ACCESS:        137  HIT:         76  MISS:         61
BTB BRANCH_INDIRECT_CALL	ACCESS:          0  HIT:          0  MISS:          0
BTB BRANCH_RETURN	ACCESS:        137  HIT:         73  MISS:         64
BTB BRANCH_OTHER ACCESS:          0  HIT:          0  MISS:          0

L2C SPEC fills:          0  NON-SPEC fills:      42614
L2C Test counter :          0
L2C Leapfrog:          0
L2C MSHR merge:     450588
L2C TOTAL     ACCESS:   19037571  HIT:   13030880  MISS:    6006691  HIT %:    68.4482  MISS %:    31.5518   MPKI: 30.0335
L2C LOAD      TOTAL       ACCESS:    4988359  HIT:    4312922  MISS:     675437  HIT %:    86.4597  MISS %:    13.5403   MPKI: 3.37718
L2C LOAD      NON_SPEC    ACCESS:     414961  HIT:     371577  MISS:      43384  HIT %:     89.545  MISS %:     10.455   MPKI: 0.21692
L2C LOAD      SPEC        ACCESS:    4573398  HIT:    3941345  MISS:     632053  HIT %:    86.1798  MISS %:    13.8202   MPKI: 3.16026
L2C RFO       NON_SPEC    ACCESS:    1132743  HIT:        209  MISS:    1132534  HIT %:  0.0184508  MISS %:    99.9815   MPKI: 5.66267
L2C PREFETCH  NON_SPEC    ACCESS:    6403832  HIT:    2708878  MISS:    3694954  HIT %:    42.3009  MISS %:    57.6991   MPKI: 18.4748
L2C WRITEBACK NON_SPEC    ACCESS:    1164235  HIT:    1164233  MISS:          2  HIT %:    99.9998  MISS %: 0.000171787   MPKI: 1e-05
L2C CLEAN_EVICTION NON_SPEC    ACCESS:    4410327  HIT:    3950594  MISS:     459733  HIT %:     89.576  MISS %:     10.424   MPKI: 2.29866
L2C COMMIT LOAD NON_SPEC    ACCESS:     361542  HIT:     341739  MISS:      19803  HIT %:    94.5226  MISS %:    5.47737   MPKI: 0.099015
L2C LOAD TRANSLATION NON_SPEC    ACCESS:     576533  HIT:     552305  MISS:      24228  HIT %:    95.7976  MISS %:    4.20236   MPKI: 0.12114
L2C PREFETCH  REQUESTED:    7237427  ISSUED:    7236394  USEFUL:    3359282  USELESS:     334652
L2C USEFUL LOAD PREFETCHES:    3359282 PREFETCH ISSUED TO LOWER LEVEL:    4182871  ACCURACY: 80.3104
L2C TIMELY PREFETCHES:    3359282 LATE PREFETCHES: 452402 DROPPED PREFETCHES: 0
L2C COMMIT LATE PREFETCHES: 24507 NORMAL LATE: 448399 MISSED OPPORTUNITY: 13272 UNCOVERED: 191073
L2C PREFETCHES SAME FILL-ORIGIN LEVEL: 4147380 DIFFERENT FILL-ORIGIN LEVEL: 35491
L2C AVERAGE MISS LATENCY: 476.839 cycles
L2C AVERAGE MISS LATENCY LOAD: 297.853 cycles
L2C AVERAGE MISS LATENCY PREFETCH: 547.826 cycles
L2C AVERAGE MSHR OCCUPANCY: 18.4544
L2C MSHR FULL: 0.360226
L2C RQ	ACCESS:    7060329	FORWARD:          0	MERGED:          0	TO_CACHE:    7059182
L2C WQ	ACCESS:    5575252	FORWARD:       1549	MERGED:        690	TO_CACHE:    5574562
L2C PQ	ACCESS:    7236394	FORWARD:          0	MERGED:      76898	TO_CACHE:    7159094

L2C Instructions Evicting Data 770
L2C Translations Evicting Data 24106
L2C Data Evicting Data 4867151
L2C Instructions Evicting Instructions 0
L2C Translations Evicting Instructions 8
L2C Data Evicting Instructions 674
L2C Instructions Evicting Translations 0
L2C Translations Evicting Translations 114
L2C Data Evicting Translations 22080
L2C Dense regions hint from L2: 0
PSCL5 SPEC fills:          0  NON-SPEC fills:          0
PSCL5 Test counter :          0
PSCL5 Leapfrog:          0
PSCL5 MSHR merge:          0
PSCL5 TOTAL     ACCESS:          0  HIT:          0  MISS:          0  HIT %:       -nan  MISS %:       -nan   MPKI: 0
PSCL5 PREFETCH  REQUESTED:          0  ISSUED:          0  USEFUL:          0  USELESS:          0
PSCL5 USEFUL LOAD PREFETCHES:          0 PREFETCH ISSUED TO LOWER LEVEL:          0  ACCURACY: -nan
PSCL5 TIMELY PREFETCHES:          0 LATE PREFETCHES: 0 DROPPED PREFETCHES: 0
PSCL5 COMMIT LATE PREFETCHES: 0 NORMAL LATE: 0 MISSED OPPORTUNITY: 0 UNCOVERED: 0
PSCL5 PREFETCHES SAME FILL-ORIGIN LEVEL: 0 DIFFERENT FILL-ORIGIN LEVEL: 0

PSCL4 SPEC fills:          0  NON-SPEC fills:          0
PSCL4 Test counter :          0
PSCL4 Leapfrog:          0
PSCL4 MSHR merge:          0
PSCL4 TOTAL     ACCESS:          0  HIT:          0  MISS:          0  HIT %:       -nan  MISS %:       -nan   MPKI: 0
PSCL4 PREFETCH  REQUESTED:          0  ISSUED:          0  USEFUL:          0  USELESS:          0
PSCL4 USEFUL LOAD PREFETCHES:          0 PREFETCH ISSUED TO LOWER LEVEL:          0  ACCURACY: -nan
PSCL4 TIMELY PREFETCHES:          0 LATE PREFETCHES: 0 DROPPED PREFETCHES: 0
PSCL4 COMMIT LATE PREFETCHES: 0 NORMAL LATE: 0 MISSED OPPORTUNITY: 0 UNCOVERED: 0
PSCL4 PREFETCHES SAME FILL-ORIGIN LEVEL: 0 DIFFERENT FILL-ORIGIN LEVEL: 0

PSCL3 SPEC fills:          0  NON-SPEC fills:          0
PSCL3 Test counter :          0
PSCL3 Leapfrog:          0
PSCL3 MSHR merge:          0
PSCL3 TOTAL     ACCESS:          0  HIT:          0  MISS:          0  HIT %:       -nan  MISS %:       -nan   MPKI: 0
PSCL3 PREFETCH  REQUESTED:          0  ISSUED:          0  USEFUL:          0  USELESS:          0
PSCL3 USEFUL LOAD PREFETCHES:          0 PREFETCH ISSUED TO LOWER LEVEL:          0  ACCURACY: -nan
PSCL3 TIMELY PREFETCHES:          0 LATE PREFETCHES: 0 DROPPED PREFETCHES: 0
PSCL3 COMMIT LATE PREFETCHES: 0 NORMAL LATE: 0 MISSED OPPORTUNITY: 0 UNCOVERED: 0
PSCL3 PREFETCHES SAME FILL-ORIGIN LEVEL: 0 DIFFERENT FILL-ORIGIN LEVEL: 0

PSCL2 SPEC fills:          0  NON-SPEC fills:          0
PSCL2 Test counter :          0
PSCL2 Leapfrog:          0
PSCL2 MSHR merge:          0
PSCL2 TOTAL     ACCESS:          0  HIT:          0  MISS:          0  HIT %:       -nan  MISS %:       -nan   MPKI: 0
PSCL2 PREFETCH  REQUESTED:          0  ISSUED:          0  USEFUL:          0  USELESS:          0
PSCL2 USEFUL LOAD PREFETCHES:          0 PREFETCH ISSUED TO LOWER LEVEL:          0  ACCURACY: -nan
PSCL2 TIMELY PREFETCHES:          0 LATE PREFETCHES: 0 DROPPED PREFETCHES: 0
PSCL2 COMMIT LATE PREFETCHES: 0 NORMAL LATE: 0 MISSED OPPORTUNITY: 0 UNCOVERED: 0
PSCL2 PREFETCHES SAME FILL-ORIGIN LEVEL: 0 DIFFERENT FILL-ORIGIN LEVEL: 0

LLC SPEC fills:          0  NON-SPEC fills:      24190
LLC Test counter :          0
LLC Leapfrog:          0
LLC MSHR merge:          1
LLC TOTAL     ACCESS:   10561547  HIT:    5008354  MISS:    5553193  HIT %:    47.4206  MISS %:    52.5794   MPKI: 27.766
LLC LOAD      TOTAL       ACCESS:     224849  HIT:      19211  MISS:     205638  HIT %:    8.54396  MISS %:     91.456   MPKI: 1.02819
LLC LOAD      NON_SPEC    ACCESS:      25026  HIT:         66  MISS:      24960  HIT %:   0.263726  MISS %:    99.7363   MPKI: 0.1248
LLC LOAD      SPEC        ACCESS:     199823  HIT:      19145  MISS:     180678  HIT %:    9.58098  MISS %:     90.419   MPKI: 0.90339
LLC RFO       NON_SPEC    ACCESS:    1132519  HIT:         28  MISS:    1132491  HIT %: 0.00247236  MISS %:    99.9975   MPKI: 5.66245
LLC PREFETCH  NON_SPEC    ACCESS:    4160348  HIT:      68752  MISS:    4091596  HIT %:    1.65255  MISS %:    98.3474   MPKI: 20.458
LLC WRITEBACK NON_SPEC    ACCESS:    1164840  HIT:    1164810  MISS:         30  HIT %:    99.9974  MISS %: 0.00257546   MPKI: 0.00015
LLC CLEAN_EVICTION NON_SPEC    ACCESS:    3836759  HIT:    3745281  MISS:      91478  HIT %:    97.6157  MISS %:    2.38425   MPKI: 0.45739
LLC COMMIT LOAD NON_SPEC    ACCESS:      18004  HIT:      10263  MISS:       7741  HIT %:     57.004  MISS %:     42.996   MPKI: 0.038705
LLC LOAD TRANSLATION NON_SPEC    ACCESS:      24228  HIT:          9  MISS:      24219  HIT %:  0.0371471  MISS %:    99.9629   MPKI: 0.121095
LLC PREFETCH  REQUESTED:          0  ISSUED:          0  USEFUL:      28256  USELESS:    4058262
LLC USEFUL LOAD PREFETCHES:      28256 PREFETCH ISSUED TO LOWER LEVEL:    4091621  ACCURACY: 0.690582
LLC TIMELY PREFETCHES:      28256 LATE PREFETCHES: 2 DROPPED PREFETCHES: 0
LLC COMMIT LATE PREFETCHES: 0 NORMAL LATE: 0 MISSED OPPORTUNITY: 0 UNCOVERED: 0
LLC PREFETCHES SAME FILL-ORIGIN LEVEL: 6273 DIFFERENT FILL-ORIGIN LEVEL: 0
LLC AVERAGE MISS LATENCY: 521.479 cycles
LLC AVERAGE MISS LATENCY LOAD: 322.404 cycles
LLC AVERAGE MISS LATENCY PREFETCH: 544.225 cycles
LLC AVERAGE MSHR OCCUPANCY: 9.79373
LLC MSHR FULL: 0
LLC RQ	ACCESS:    1399605	FORWARD:          0	MERGED:          0	TO_CACHE:    1399605
LLC WQ	ACCESS:    5001599	FORWARD:          0	MERGED:          0	TO_CACHE:    5001599
LLC PQ	ACCESS:    4182871	FORWARD:          0	MERGED:        106	TO_CACHE:    4182765

LLC Dense regions hint to LLC: 0

RAW hits: 1937429
Loads Generated: 78403123
Loads sent to L1D: 76465675
Stores Generated: 12318965
Stores sent to L1D: 12318954
Major fault: 0 Minor fault: 55185
Allocated PAGES: 55185
Total Load insts: 114044874
Total Non-spec loads: 6845089
Percentage of speculative loads: 93.9979

LeapFrogging counter: 280898
Commit hits: 26154829 miss: 44158317
Commit hit %: 37.1976 miss %: 62.8024
Commits not translated: 0
Loads retired: 4988430
Stores retired: 12318954
Cache fills: 4988431
L1D response latency: 51.9369 cycles
Load retirement latency: 135.404 cycles
OOO test counter: 0
Discarded buffer inserts: 26154829 hits: 169307 hit %: 0.647326
Filter prediction accuracy: -nan
------------------
Depth Distribution
------------------
depth 0: 175725
depth 1: 13677
depth 2: 17681
depth 3: 44947
depth 4: 1010805
depth 5: 1550185
depth 6: 790420
depth 7: 1236560
depth 8: 777181
depth 9: 459764
depth 10: 71273
depth 11: 216970
depth 12: 72977
depth 13: 15138
depth 14: 16319
depth 15: 85
depth 16: 5
depth 17: 0
depth 18: 0
depth 19: 0
depth 20: 0
depth 21: 0
depth 22: 0
depth 23: 0
depth 24: 0
depth 25: 0
depth 26: 0
depth 27: 0
depth 28: 0
depth 29: 0
Total: 6469712
------------------
ST read accesses: 4891366
ST write accesses: 96223
PT read accesses: 180115846
PT write accesses: 6654415
FILTER read accesses: 75919604
FILTER write accesses: 91926610
GHR read accesses: 12488340
GHR write accesses: 2043987
PERC read accesses: 1318082724
PERC write accesses: 64010375
GHR counter read accesses: 9975178
GHR counter write accesses: 15959029
GHR ip read accesses: 32752683
GHR ip write accesses: 19950356
ST tag read accesses: 1967108819
ST tag write accesses: 54304540
------------------
Depth Distribution
------------------
depth 0: 67915990
depth 1: 151590
depth 2: 217586
depth 3: 4191981
depth 4: 6552876
depth 5: 6219612
depth 6: 5508506
depth 7: 3222761
depth 8: 1834740
depth 9: 1964680
depth 10: 969418
depth 11: 595550
depth 12: 234060
depth 13: 77409
depth 14: 160585
depth 15: 31560
depth 16: 22443
depth 17: 14603
depth 18: 6387
depth 19: 2362
depth 20: 557
depth 21: 169
depth 22: 42
depth 23: 3
depth 24: 0
depth 25: 0
depth 26: 0
depth 27: 0
depth 28: 0
depth 29: 0
Total: 99895470
------------------
ST read accesses: 78306915
ST write accesses: 96164
PT read accesses: 1095175414
PT write accesses: 37515742
FILTER read accesses: 264889101
FILTER write accesses: 23178782
GHR read accesses: 50460651
GHR write accesses: 7868779
PERC read accesses: 8089546374
PERC write accesses: 52876881
GHR counter read accesses: 156806158
GHR counter write accesses: 90713722
GHR ip read accesses: 258088551
GHR ip write accesses: 313612316
ST tag read accesses: 30285413667
ST tag write accesses: 450303232

DRAM Statistics
 CHANNEL 0
 RQ ROW_BUFFER_HIT:     875346  ROW_BUFFER_MISS:    4586339
 DBUS_CONGESTED:        741
 WQ ROW_BUFFER_HIT:     968539  ROW_BUFFER_MISS:    4036241  FULL:       6177

 AVG_CONGESTED_CYCLE: 5
 All warmup complete: 2
Channel 0 Bank busy for read cycles: 0
Channel 0 Bank busy for write cycles: 0
Channel 0
Rank 0
0banks busy for read cycles: 2218862
0banks busy for write cycles: 22410
1banks busy for read cycles: 21198940
1banks busy for write cycles: 2470930
2banks busy for read cycles: 20209726
2banks busy for write cycles: 3173179
3banks busy for read cycles: 22438146
3banks busy for write cycles: 1000444
4banks busy for read cycles: 23017261
4banks busy for write cycles: 743456
5banks busy for read cycles: 20224486
5banks busy for write cycles: 691957
6banks busy for read cycles: 18375187
6banks busy for write cycles: 804641
7banks busy for read cycles: 18462904
7banks busy for write cycles: 6332179
8banks busy for read cycles: 34109268
8banks busy for write cycles: 104644885

CPU 0 Branch Prediction Accuracy: 99.7722% MPKI: 0.08495 Average ROB Occupancy at Mispredict: 168.25
Branch types
NOT_BRANCH: 192541507 96.2708%
BRANCH_DIRECT_JUMP: 1193 0.0005965%
BRANCH_INDIRECT: 0 0%
BRANCH_CONDITIONAL: 7457359 3.72868%
BRANCH_DIRECT_CALL: 137 6.85e-05%
BRANCH_INDIRECT_CALL: 0 0%
BRANCH_RETURN: 137 6.85e-05%
BRANCH_OTHER: 0 0%

DRAM PAGES: 1048576
Allocated PAGES: 55185
